#------------------------------------------------------------------------------
#$Date: 2017-11-04 02:17:50 +0200 (Sat, 04 Nov 2017) $
#$Revision: 202570 $
#$URL: file:///home/coder/svn-repositories/cod/cif/4/12/66/4126687.cif $
#------------------------------------------------------------------------------
#
# This file is available in the Crystallography Open Database (COD),
# http://www.crystallography.net/
#
# All data on this site have been placed in the public domain by the
# contributors.
#
data_4126687
loop_
_publ_author_name
'Zhang, Haoke'
'Zheng, Xiaoyan'
'Xie, Ni'
'He, Zikai'
'Liu, Junkai'
'Leung, Nelson L. C.'
'Niu, Yingli'
'Huang, Xuhui'
'Wong, Kam Sing'
'Kwok, Ryan T. K.'
'Sung, Herman H. Y.'
'Williams, Ian D.'
'Qin, Anjun'
'Lam, Jacky W. Y.'
'Tang, Ben Zhong'
_publ_section_title
;
 Why do simple molecules with &quot;isolated&quot; phenyl rings emit
 visible light?
;
_journal_name_full               'Journal of the American Chemical Society'
_journal_paper_doi               10.1021/jacs.7b08592
_journal_year                    2017
_chemical_formula_moiety         'C38 H46'
_chemical_formula_sum            'C38 H46'
_chemical_formula_weight         502.75
_chemical_name_systematic
;
 ? 
;
_space_group_crystal_system      monoclinic
_space_group_IT_number           13
_space_group_name_Hall           '-P 2yc'
_space_group_name_H-M_alt        'P 1 2/c 1'
_symmetry_space_group_name_Hall  '-P 2yc'
_symmetry_space_group_name_H-M   'P 1 2/c 1'
_atom_sites_solution_hydrogens   geom
_audit_creation_date             2015-10-15
_audit_creation_method
;
Olex2 1.2
(compiled 2015.09.30 svn.r3233 for OlexSys, GUI svn.r5103)
;
_cell_angle_alpha                90
_cell_angle_beta                 93.547(11)
_cell_angle_gamma                90
_cell_formula_units_Z            4
_cell_length_a                   21.442(2)
_cell_length_b                   7.1680(6)
_cell_length_c                   19.930(3)
_cell_measurement_reflns_used    2568
_cell_measurement_temperature    100.00(10)
_cell_measurement_theta_max      27.9000
_cell_measurement_theta_min      3.4990
_cell_volume                     3057.3(6)
_computing_cell_refinement
;
CrysAlisPro, Agilent Technologies,
Version 1.171.37.35 (release 13-08-2014 CrysAlis171 .NET)
(compiled Aug 13 2014,18:06:01)
;
_computing_data_collection
;
CrysAlisPro, Agilent Technologies,
Version 1.171.37.35 (release 13-08-2014 CrysAlis171 .NET)
(compiled Aug 13 2014,18:06:01)
;
_computing_data_reduction
;
CrysAlisPro, Agilent Technologies,
Version 1.171.37.35 (release 13-08-2014 CrysAlis171 .NET)
(compiled Aug 13 2014,18:06:01)
;
_computing_molecular_graphics    'Olex2 (Dolomanov et al., 2009)'
_computing_publication_material  'Olex2 (Dolomanov et al., 2009)'
_computing_structure_refinement  'ShelXL (Sheldrick, 2015)'
_computing_structure_solution    'ShelXS (Sheldrick, 2008)'
_diffrn_ambient_environment      N~2~
_diffrn_ambient_temperature      100.00(10)
_diffrn_detector                 'CCD plate'
_diffrn_detector_area_resol_mean 10.3587
_diffrn_detector_type            Atlas
_diffrn_measured_fraction_theta_full 0.991
_diffrn_measured_fraction_theta_max 0.991
_diffrn_measurement_details
;
#__ type_ start__ end____ width___ exp.time_
  1 omega  -43.00   61.00   1.0000   45.0000
omega____ theta____ kappa____ phi______ frames
    -      -12.9246   57.0000  120.0000 104

#__ type_ start__ end____ width___ exp.time_
  2 omega  -87.00   11.00   1.0000   45.0000
omega____ theta____ kappa____ phi______ frames
    -      -12.9246  -57.0000  -30.0000 98

#__ type_ start__ end____ width___ exp.time_
  3 omega  -20.00   55.00   1.0000   45.0000
omega____ theta____ kappa____ phi______ frames
    -       13.3934  -99.0000 -120.0000 75
;
_diffrn_measurement_device       'kappa diffractometer'
_diffrn_measurement_device_type  'SuperNova, Dual, Mo at zero, Atlas'
_diffrn_measurement_method       '\w scans'
_diffrn_orient_matrix_UB_11      0.0070913000
_diffrn_orient_matrix_UB_12      -0.0426597000
_diffrn_orient_matrix_UB_13      -0.0307167000
_diffrn_orient_matrix_UB_21      -0.0311822000
_diffrn_orient_matrix_UB_22      0.0149171000
_diffrn_orient_matrix_UB_23      -0.0128851000
_diffrn_orient_matrix_UB_31      0.0087346000
_diffrn_orient_matrix_UB_32      0.0880467000
_diffrn_orient_matrix_UB_33      -0.0126997000
_diffrn_radiation_monochromator  mirror
_diffrn_radiation_probe          x-ray
_diffrn_radiation_type           MoK\a
_diffrn_radiation_wavelength     0.71073
_diffrn_reflns_av_R_equivalents  0.1076
_diffrn_reflns_av_unetI/netI     0.1386
_diffrn_reflns_limit_h_max       25
_diffrn_reflns_limit_h_min       -25
_diffrn_reflns_limit_k_max       8
_diffrn_reflns_limit_k_min       -8
_diffrn_reflns_limit_l_max       24
_diffrn_reflns_limit_l_min       -20
_diffrn_reflns_number            17924
_diffrn_reflns_theta_full        25.000
_diffrn_reflns_theta_max         25.497
_diffrn_reflns_theta_min         3.504
_diffrn_source                   'sealed X-ray tube'
_diffrn_source_current           0.80
_diffrn_source_power             0.040
_diffrn_source_target            Mo
_diffrn_source_voltage           50
_exptl_absorpt_coefficient_mu    0.061
_exptl_absorpt_correction_T_max  1.00000
_exptl_absorpt_correction_T_min  0.76441
_exptl_absorpt_correction_type   multi-scan
_exptl_absorpt_process_details
;
CrysAlisPro, Agilent Technologies,
Version 1.171.37.35 (release 13-08-2014 CrysAlis171 .NET)
(compiled Aug 13 2014,18:06:01)
Empirical absorption correction using spherical harmonics,
 implemented in SCALE3 ABSPACK scaling algorithm.
;
_exptl_crystal_colour            colourless
_exptl_crystal_colour_primary    colourless
_exptl_crystal_density_diffrn    1.092
_exptl_crystal_density_method    'not measured'
_exptl_crystal_description       block
_exptl_crystal_F_000             1096
_exptl_crystal_size_max          0.25
_exptl_crystal_size_mid          0.2
_exptl_crystal_size_min          0.15
_refine_diff_density_max         0.232
_refine_diff_density_min         -0.205
_refine_diff_density_rms         0.047
_refine_ls_extinction_method     none
_refine_ls_goodness_of_fit_ref   1.001
_refine_ls_hydrogen_treatment    constr
_refine_ls_matrix_type           full
_refine_ls_number_parameters     355
_refine_ls_number_reflns         5657
_refine_ls_number_restraints     0
_refine_ls_restrained_S_all      1.001
_refine_ls_R_factor_all          0.1292
_refine_ls_R_factor_gt           0.0596
_refine_ls_shift/su_max          0.000
_refine_ls_shift/su_mean         0.000
_refine_ls_structure_factor_coef Fsqd
_refine_ls_weighting_details
;
w=exp[0.6280(sin\q/\l)^2^)]/[\s^2^(Fo^2^)+(0.0130P)^2^] 
where P=(Fo^2^+2Fc^2^)/3
;
_refine_ls_weighting_scheme      calc
_refine_ls_wR_factor_gt          0.0959
_refine_ls_wR_factor_ref         0.1164
_reflns_Friedel_coverage         0.000
_reflns_number_gt                3106
_reflns_number_total             5657
_reflns_threshold_expression     'I > 2\s(I)'
_cod_data_source_file            ja7b08592_si_004.cif
_cod_data_source_block           haoke1molt
_cod_database_code               4126687
_chemical_oxdiff_formula         'ph4 C2 Me12'
_shelx_space_group_comment
;
The symmetry employed for this shelxl refinement is uniquely defined
by the following loop, which should always be used as a source of
symmetry information in preference to the above space-group names.
They are only intended as comments.
;
_reflns_odcompleteness_completeness 99.59
_reflns_odcompleteness_iscentric 1
_reflns_odcompleteness_theta     27.04
_olex2_refinement_description
;
1. Fixed Uiso
 At 1.2 times of:
  All C(H) groups
 At 1.5 times of:
  All C(H,H,H) groups
2.a Ternary CH refined with riding coordinates:
 C2(H2), C1(H1)
2.b Aromatic/amide H refined with riding coordinates:
 C36(H36), C46(H46), C33(H33), C26(H26), C43(H43), C16(H16), C13(H13), C23(H23)
2.c Idealised Me refined as rotating group:
 C47(H47A,H47B,H47C), C49(H49A,H49B,H49C), C39(H39A,H39B,H39C), C37(H37A,H37B,
 H37C), C17(H17A,H17B,H17C), C48(H48A,H48B,H48C), C19(H19A,H19B,H19C), C27(H27A,
 H27B,H27C), C38(H38A,H38B,H38C), C29(H29A,H29B,H29C), C18(H18A,H18B,H18C),
 C28(H28A,H28B,H28C)
;
_shelx_res_file
;
    haoke1molt.res created by SHELXL-2014/7

TITL haoke1MoLT in P2/c #13
REM reset to P2/c #13
CELL 0.71073 21.442308 7.167996 19.929585 90 93.5474 90
ZERR 4 0.002081 0.00062 0.002622 0 0.0105 0
LATT 1
SYMM -X,+Y,0.5-Z
SFAC C H
UNIT 152 184

L.S. 4
PLAN  20
TEMP -173
BOND
CONF
fmap 2
acta 50
OMIT 0 51
OMIT 7 0 0
OMIT 13 0 0
OMIT -3 3 3
OMIT 12 0 0
OMIT 0 3 0
OMIT 6 0 0
OMIT 11 0 0
OMIT 8 0 0
OMIT 4 4 4
OMIT -4 4 4
OMIT 14 0 0
OMIT -1 2 1
OMIT 7 0 14
OMIT -10 4 11
OMIT 12 1 3
OMIT 12 0 6
OMIT 9 7 0
OMIT 5 0 0
OMIT -10 4 8
OMIT 1 3 2
OMIT -7 4 20
OMIT 0 4 0
OMIT 16 0 8
OMIT -3 3 1
OMIT 7 3 2
OMIT -18 4 14
OMIT 15 0 0
OMIT -3 6 13
OMIT 6 4 1
OMIT -8 3 1
OMIT 7 3 3
OMIT 6 0 12
OMIT -15 2 13
OMIT -12 0 4
REM <olex2.extras>
REM <HklSrc "%.\\haoke1MoLT.hkl">
REM </olex2.extras>

WGHT    0.013000    0.000000    0.628000
FVAR       1.06157
C36   1    0.339513    0.784024    0.103413    11.00000    0.02104    0.02468 =
         0.02019    0.00371    0.00140    0.00137
AFIX  43
H36   2    0.303884    0.854060    0.114226    11.00000   -1.20000
AFIX   0
C35   1    0.398645    0.850214    0.125010    11.00000    0.02443    0.02805 =
         0.01564    0.00486   -0.00086   -0.00262
C11   1    0.219946    0.587358    0.101285    11.00000    0.01920    0.02680 =
         0.01709   -0.00243    0.00100   -0.00369
C46   1    0.272872    0.456084   -0.118487    11.00000    0.01671    0.02337 =
         0.02201    0.00031   -0.00046    0.00039
AFIX  43
H46   2    0.241155    0.371353   -0.107054    11.00000   -1.20000
AFIX   0
C45   1    0.308334    0.411209   -0.171686    11.00000    0.02258    0.02354 =
         0.01857   -0.00022    0.00212    0.00373
C2    1    0.239725    0.657788   -0.022342    11.00000    0.01948    0.02185 =
         0.02093   -0.00146    0.00275   -0.00288
AFIX  13
H2    2    0.242155    0.794911   -0.013317    11.00000   -1.20000
AFIX   0
C15   1    0.148332    0.784249    0.161456    11.00000    0.01887    0.03568 =
         0.02769   -0.00979    0.00443   -0.00607
C44   1    0.354891    0.535976   -0.189943    11.00000    0.02325    0.02952 =
         0.01691    0.00259    0.00388    0.00401
C31   1    0.330421    0.618619    0.066446    11.00000    0.01874    0.02347 =
         0.01530    0.00223    0.00284   -0.00187
C33   1    0.442449    0.583278    0.073180    11.00000    0.02196    0.03501 =
         0.02247    0.00262    0.00466    0.00739
AFIX  43
H33   2    0.478253    0.513587    0.062693    11.00000   -1.20000
AFIX   0
C41   1    0.281054    0.620272   -0.080231    11.00000    0.01748    0.02646 =
         0.01441    0.00114    0.00133    0.00177
C47   1    0.340746    0.928831   -0.062530    11.00000    0.03048    0.02929 =
         0.02788   -0.00123    0.00867   -0.00592
AFIX 137
H47A  2    0.301153    0.990354   -0.054177    11.00000   -1.50000
H47B  2    0.365431    1.009816   -0.090330    11.00000   -1.50000
H47C  2    0.364135    0.904614   -0.019604    11.00000   -1.50000
AFIX   0
C34   1    0.450773    0.749641    0.108455    11.00000    0.02415    0.03410 =
         0.01890    0.00256    0.00110   -0.00082
C49   1    0.297137    0.231037   -0.210682    11.00000    0.02942    0.03192 =
         0.02198    0.00070    0.00527    0.00087
AFIX 137
H49A  2    0.335510    0.156430   -0.208274    11.00000   -1.50000
H49B  2    0.285101    0.260068   -0.257764    11.00000   -1.50000
H49C  2    0.263577    0.160351   -0.191171    11.00000   -1.50000
AFIX   0
C12   1    0.216828    0.452161    0.152239    11.00000    0.01788    0.03214 =
         0.02353    0.00376   -0.00089   -0.00746
C21   1    0.171197    0.615174   -0.043701    11.00000    0.02156    0.03019 =
         0.01650   -0.00641    0.00442   -0.00083
C26   1    0.142390    0.448275   -0.026946    11.00000    0.02545    0.03348 =
         0.02053   -0.00482    0.00660   -0.00017
AFIX  43
H26   2    0.165483    0.360504    0.000296    11.00000   -1.20000
AFIX   0
C42   1    0.327610    0.745602   -0.098895    11.00000    0.01939    0.02506 =
         0.01999    0.00098    0.00556    0.00033
C43   1    0.362730    0.699625   -0.152431    11.00000    0.02436    0.02738 =
         0.02280    0.00245    0.00653   -0.00120
AFIX  43
H43   2    0.394135    0.784736   -0.164406    11.00000   -1.20000
AFIX   0
C32   1    0.382818    0.514331    0.052427    11.00000    0.02572    0.02904 =
         0.01635    0.00008    0.00254    0.00018
C14   1    0.145621    0.648446    0.211879    11.00000    0.02534    0.04291 =
         0.01867   -0.00896    0.00813   -0.01514
C16   1    0.184545    0.750045    0.107386    11.00000    0.02315    0.02928 =
         0.01817   -0.00084    0.00133   -0.00690
AFIX  43
H16   2    0.185352    0.841314    0.072887    11.00000   -1.20000
AFIX   0
C1    1    0.262886    0.558952    0.044170    11.00000    0.02043    0.02137 =
         0.02332   -0.00016    0.00178   -0.00280
AFIX  13
H1    2    0.263900    0.422046    0.034650    11.00000   -1.20000
AFIX   0
C25   1    0.080821    0.405537   -0.048774    11.00000    0.02394    0.04356 =
         0.02172   -0.01312    0.01278   -0.00805
C39   1    0.405655    1.024515    0.167419    11.00000    0.02820    0.02934 =
         0.03012    0.00258   -0.00414   -0.00194
AFIX 137
H39A  2    0.426797    1.121104    0.142451    11.00000   -1.50000
H39B  2    0.430452    0.996201    0.209135    11.00000   -1.50000
H39C  2    0.364263    1.069311    0.178183    11.00000   -1.50000
AFIX   0
C37   1    0.379205    0.329630    0.015230    11.00000    0.02887    0.03230 =
         0.02761   -0.00319    0.00228    0.00517
AFIX 137
H37A  2    0.351169    0.244933    0.037521    11.00000   -1.50000
H37B  2    0.420988    0.274157    0.015405    11.00000   -1.50000
H37C  2    0.363125    0.350480   -0.031268    11.00000   -1.50000
AFIX   0
C13   1    0.180023    0.485334    0.205264    11.00000    0.02779    0.03887 =
         0.02138    0.00598    0.00161   -0.01106
AFIX  43
H13   2    0.178012    0.392278    0.239003    11.00000   -1.20000
AFIX   0
C17   1    0.253341    0.271843    0.149346    11.00000    0.03254    0.03762 =
         0.03713    0.01127    0.00628   -0.00075
AFIX 137
H17A  2    0.236617    0.196703    0.111285    11.00000   -1.50000
H17B  2    0.249611    0.202113    0.191204    11.00000   -1.50000
H17C  2    0.297429    0.300002    0.143675    11.00000   -1.50000
AFIX   0
C23   1    0.075133    0.700943   -0.104664    11.00000    0.02762    0.05159 =
         0.02649   -0.00433   -0.00084    0.01175
AFIX  43
H23   2    0.051740    0.789751   -0.131141    11.00000   -1.20000
AFIX   0
C48   1    0.394542    0.498380   -0.247940    11.00000    0.03333    0.03697 =
         0.02766    0.00148    0.01179    0.00170
AFIX 137
H48A  2    0.415165    0.377080   -0.241647    11.00000   -1.50000
H48B  2    0.426213    0.596385   -0.250170    11.00000   -1.50000
H48C  2    0.368136    0.497127   -0.289869    11.00000   -1.50000
AFIX   0
C22   1    0.137070    0.742621   -0.083806    11.00000    0.02175    0.03452 =
         0.02960   -0.00315    0.00544    0.00406
C24   1    0.046513    0.534595   -0.088135    11.00000    0.01943    0.05576 =
         0.02978   -0.01859    0.00507    0.00223
C19   1    0.111784    0.965207    0.164365    11.00000    0.03472    0.04176 =
         0.04950   -0.01389    0.01648   -0.00485
AFIX 137
H19A  2    0.067016    0.937368    0.163967    11.00000   -1.50000
H19B  2    0.120029    1.042435    0.125314    11.00000   -1.50000
H19C  2    0.124719    1.032611    0.205690    11.00000   -1.50000
AFIX   0
C27   1    0.165335    0.923776   -0.106479    11.00000    0.03395    0.04459 =
         0.04596    0.01441   -0.00051    0.00812
AFIX 137
H27A  2    0.177538    1.000349   -0.067094    11.00000   -1.50000
H27B  2    0.134519    0.991441   -0.135561    11.00000   -1.50000
H27C  2    0.202247    0.896816   -0.131459    11.00000   -1.50000
AFIX   0
C38   1    0.516196    0.819173    0.128304    11.00000    0.02481    0.05430 =
         0.03633   -0.00521   -0.00017   -0.00266
AFIX 137
H38A  2    0.523570    0.936932    0.105101    11.00000   -1.50000
H38B  2    0.546850    0.726235    0.115612    11.00000   -1.50000
H38C  2    0.520405    0.839242    0.177014    11.00000   -1.50000
AFIX   0
C29   1    0.052449    0.220545   -0.029544    11.00000    0.03145    0.05089 =
         0.04813   -0.01917    0.01566   -0.01532
AFIX 137
H29A  2    0.041589    0.147925   -0.070264    11.00000   -1.50000
H29B  2    0.014702    0.243448   -0.005466    11.00000   -1.50000
H29C  2    0.082740    0.150828   -0.000486    11.00000   -1.50000
AFIX   0
C18   1    0.106984    0.674784    0.271424    11.00000    0.04346    0.05927 =
         0.03181   -0.01216    0.01468   -0.01598
AFIX 137
H18A  2    0.114330    0.799794    0.290194    11.00000   -1.50000
H18B  2    0.118754    0.580955    0.305665    11.00000   -1.50000
H18C  2    0.062636    0.660803    0.257299    11.00000   -1.50000
AFIX   0
C28   1   -0.020110    0.493941   -0.114369    11.00000    0.02062    0.07954 =
         0.04772   -0.02438    0.00101   -0.00042
AFIX 137
H28A  2   -0.020467    0.385220   -0.144205    11.00000   -1.50000
H28B  2   -0.037018    0.602312   -0.139350    11.00000   -1.50000
H28C  2   -0.045834    0.468059   -0.076480    11.00000   -1.50000
AFIX   0
HKLF 4

REM  haoke1MoLT in P2/c #13
REM R1 =  0.0596 for    3106 Fo > 4sig(Fo)  and  0.1292 for all    5657 data
REM    355 parameters refined using      0 restraints

END

WGHT      0.0163      0.0000

REM Highest difference peak  0.232,  deepest hole -0.205,  1-sigma level  0.047
Q1    1   0.0849  0.7880  0.2586  11.00000  0.05    0.23
Q2    1   0.1410  0.6898  0.3120  11.00000  0.05    0.22
Q3    1   0.2635  0.4221 -0.3041  11.00000  0.05    0.20
Q4    1   0.3406  0.4596 -0.0987  11.00000  0.05    0.19
Q5    1   0.1987  0.6343  0.1043  11.00000  0.05    0.19
Q6    1   0.5861  0.7263  0.0871  11.00000  0.05    0.19
Q7    1   0.2707  0.4770  0.0380  11.00000  0.05    0.19
Q8    1   0.1635  0.8293  0.0489  11.00000  0.05    0.18
Q9    1   0.2595  1.0660 -0.0476  11.00000  0.05    0.18
Q10   1   0.2415  0.7607 -0.0012  11.00000  0.05    0.18
Q11   1   0.2914  0.5202 -0.0901  11.00000  0.05    0.18
Q12   1  -0.0644  0.2180 -0.0259  11.00000  0.05    0.18
Q13   1   0.0163  0.2080 -0.1004  11.00000  0.05    0.17
Q14   1   0.3489  0.2755  0.0102  11.00000  0.05    0.17
Q15   1   0.2299  0.5392  0.1310  11.00000  0.05    0.17
Q16   1   0.0678  0.8463 -0.0324  11.00000  0.05    0.16
Q17   1   0.0935  0.5983  0.2769  11.00000  0.05    0.16
Q18   1   0.2977 -0.0757 -0.2096  11.00000  0.05    0.16
Q19   1   0.3731  0.4166  0.0388  11.00000  0.05    0.16
Q20   1   0.4523  0.6832  0.0984  11.00000  0.05    0.16
;
_shelx_res_checksum              69628
_shelx_hkl_file
;
   4   0   0 19559.2 245.332   3
   5   0   0 132.726 64.3917   2
   5   0   0 116.960 24.8769   3
   5   0   0 85.5558 33.3122   1
  -6   0   0 1006.85 106.532   1
   6   0   0 1101.20 168.883   2
   6   0   0 1317.96 83.8199   3
   7   0   0 567.958 142.928   2
  -7   0   0 524.701 86.3202   1
   7   0   0 834.398 75.1769   3
  -7   0   0 728.390 66.3666   3
  -8   0   0 526.459 56.9529   3
   8   0   0 488.386 132.711   2
   8   0   0 656.711 68.4372   3
  -8   0   0 544.271 92.6804   1
   9   0   0 3115.84 151.174   3
   9   0   0 3357.86 361.025   2
  -9   0   0 2962.65 137.041   3
  -9   0   0 3055.92 218.174   1
  10   0   0 4660.17 448.059   2
  10   0   0 4350.04 189.383   3
 -10   0   0 4218.42 272.321   1
 -10   0   0 3942.72 163.387   3
 -11   0   0 158.658 59.7576   1
  11   0   0 243.572 52.2439   3
 -11   0   0 179.131 37.8580   3
  11   0   0 181.406 109.155   2
  12   0   0 437.520 70.8062   3
 -12   0   0 366.370 57.8438   3
  12   0   0 255.174 119.790   2
 -12   0   0 376.530 91.4756   1
 -13   0   0 404.177 62.6529   3
  13   0   0 581.199 82.3811   3
  13   0   0 429.187 168.831   2
 -13   0   0 403.743 99.2900   1
  14   0   0 464.685 79.4391   3
 -14   0   0 293.216 57.1768   3
 -14   0   0 366.472 100.114   1
  14   0   0 275.252 149.146   2
 -15   0   0 385.837 66.6774   3
  15   0   0 510.929 84.3330   3
 -15   0   0 487.913 117.321   1
  15   0   0 385.466 159.114   2
 -16   0   0 234.006 52.6341   3
  16   0   0 253.068 134.320   2
  16   0   0 352.786 71.8222   3
 -16   0   0 281.973 90.7483   1
  17   0   0 304.591 70.7742   3
 -17   0   0 276.050 92.3257   1
 -17   0   0 200.219 48.3127   3
  18   0   0 554.263 96.4894   3
 -18   0   0 698.862 147.801   1
  19   0   0 487.565 91.9041   3
 -19   0   0 493.327 125.854   1
 -20   0   0-8.16025 11.8547   1
 -21   0   0 47.6646 28.9836   3
 -21   0   0 27.9398 34.6691   1
 -22   0   0 50.0477 47.7878   1
 -23   0   0 143.812 76.2238   1
 -24   0   0 223.381 98.5381   1
 -25   0   0 205.157 97.0106   1
 -26   0   0 277.513 116.686   1
 -27   0   0 511.217 161.656   1
 -28   0   0-14.0446 29.9415   1
 -29   0   0 80.7025 67.5641   1
  -3  -1   0 2506.21 130.130   2
   3   1   0 2200.14 110.815   3
   3  -1   0 2181.24 142.010   1
   4  -1   0 2887.52 178.175   1
  -4  -1   0 3038.51 186.699   2
   4   1   0 2910.91 157.836   2
   4   1   0 2793.19 132.851   3
  -5  -1   0 1915.86 167.653   2
   5  -1   0 1768.93 149.509   1
   5   1   0 1867.39 159.453   2
   5   1   0 1620.03 110.778   3
   5  -1   0 2048.07 232.665   2
   6   1   0 530.633 64.9690   3
   6  -1   0 517.740 123.715   2
  -6  -1   0 491.189 92.6798   2
   6   1   0 551.268 99.8701   2
   6  -1   0 553.894 89.6857   1
  -6  -1   0 518.663 60.6171   1
   7  -1   0-2.98988 9.82573   1
  -7  -1   0 22.9302 17.8086   2
   7   1   0-28.7450 32.5653   2
   7   1   0-3.06825 9.47762   3
  -7  -1   0 8.55325 12.3626   1
   7  -1   0 9.42374 20.6151   2
  -8  -1   0 60.0161 36.0300   2
   8  -1   0 132.613 65.4842   2
  -8  -1   0 82.8153 30.9779   1
   8  -1   0 30.4365 26.8185   1
   8   1   0 69.6154 32.6560   2
  -8   1   0 55.0053 11.4068   3
   8   1   0 76.6383 30.1854   3
  -9  -1   0 1007.86 111.004   1
   9   1   0 1053.66 179.202   2
   9   1   0 906.031 98.6128   3
   9  -1   0 980.600 138.819   1
  -9  -1   0 997.194 172.426   2
  -9  -1   0 1048.30 100.468   3
   9  -1   0 1510.84 265.191   2
  -9   1   0 853.689 50.3767   3
  10   1   0 902.231 103.884   3
 -10   1   0 942.949 139.293   1
 -10   1   0 895.636 57.2818   3
  10   1   0 1037.53 190.461   2
 -10  -1   0 929.067 97.9218   3
  10  -1   0 938.844 218.184   2
 -10  -1   0 885.453 111.862   1
  10  -1   0 1046.85 150.562   1
  11   1   0 777.275 96.6022   3
 -11  -1   0 813.629 111.990   1
 -11   1   0 766.379 131.372   1
 -11  -1   0 662.552 85.2922   3
  11  -1   0 837.851 207.451   2
  11   1   0 821.070 187.540   2
 -11   1   0 724.543 55.7752   3
  12   1   0 978.178 206.648   2
  12  -1   0 954.774 236.119   2
 -12   1   0 770.371 61.5570   3
 -12  -1   0 800.632 94.3545   3
 -12   1   0 854.338 145.033   1
  12   1   0 742.517 99.1171   3
 -12  -1   0 820.136 118.609   1
 -13   1   0 572.286 122.621   1
 -13   1   0 490.596 52.2722   3
 -13  -1   0 548.631 103.153   1
  13  -1   0 624.175 210.697   2
 -13  -1   0 523.351 80.9258   3
  13   1   0 624.061 177.866   2
  13   1   0 476.627 81.9571   3
 -14   1   0 218.947 81.3570   1
  14   1   0 232.487 60.6781   3
  14   1   0 225.902 108.774   2
 -14  -1   0 214.625 66.5807   1
  14  -1   0 306.526 147.810   2
 -14   1   0 242.270 38.8141   3
  15   1   0 92.3637 35.4085   3
 -15   1   0 92.2433 57.5462   1
 -15   1   0 96.4549 28.2614   3
  15   1   0-120.061 82.6709   2
 -15  -1   0 28.0664 36.0856   1
  15  -1   0 73.6708 112.992   2
 -16   1   0 60.8541 23.9084   3
  16   1   0 14.9289 74.6068   2
  16   1   0 34.4781 25.7629   3
 -16  -1   0 17.0508 25.4902   1
 -16   1   0 21.1761 42.0049   1
  17   1   0 1497.40 167.815   3
 -17   1   0 1516.28 226.257   1
  17   1   0 1735.62 338.500   2
 -17  -1   0 1330.58 147.976   3
 -17  -1   0 1537.55 200.715   1
 -18   1   0 40.6052 36.1623   1
 -18  -1   0 15.0191 18.3166   3
 -18  -1   0 3.46184 30.3352   1
  18   1   0 71.5577 35.0426   3
  18   1   0 46.0083 92.2445   2
 -19  -1   0-18.7849 34.0261   3
  19   1   0-34.0631 32.2941   3
 -19   1   0 29.0013 37.9671   1
 -19  -1   0 4.62914 15.1613   1
  20   1   0 547.415 118.304   3
 -20   1   0 445.555 128.643   1
 -20  -1   0 477.575 120.419   1
 -20  -1   0 493.315 97.2257   3
 -21  -1   0 46.4656 39.9796   1
  21   1   0 7.73618 22.8296   3
 -21   1   0-36.1028 53.7595   1
 -22   1   0 481.258 146.029   1
  22   1   0 358.266 96.4030   3
 -22  -1   0 320.420 106.618   1
  23   1   0 245.234 79.1615   3
 -23   1   0 177.415 88.3294   1
 -23  -1   0 299.201 105.668   1
 -24   1   0 182.140 90.8161   1
 -24  -1   0 256.323 116.087   1
 -25  -1   0 53.8348 53.9024   1
 -25   1   0 183.630 93.5081   1
 -26   1   0-122.400 81.0068   1
 -26  -1   0-23.8953 33.6722   1
 -27   1   0 96.7797 78.2144   1
 -27  -1   0 49.5184 48.4101   1
 -28   1   0 100.990 76.8522   1
 -29   1   0 1.65424 32.8143   1
   0  -2   0 334.127 52.8243   1
   0   2   0 282.843 42.9795   3
   1   2   0 55.8472 22.0742   3
   1  -2   0 53.9545 16.4781   3
  -1  -2   0 61.0066 19.8566   1
   1   2   0 46.8972 18.1802   1
  -1   2   0 53.0134 15.0222   3
   1  -2   0 54.9508 23.5010   1
   2   2   0 27.3295 17.1326   3
   2  -2   0 35.1903 24.3220   1
  -2  -2   0 5.19834 6.22307   1
   2   2   0 23.3432 14.2659   1
  -2   2   0 0.64660 7.47899   3
   2  -2   0 18.7152 11.0751   3
   3   2   0 121.812 24.4250   1
   3   2   0 99.5816 31.9535   3
  -3   2   0 120.284 22.6337   3
   3  -2   0 134.453 41.3965   1
  -3  -2   0 113.298 23.6480   1
  -3  -2   0 110.622 21.4089   2
   3  -2   0 109.986 20.8486   3
  -4   2   0 144.884 22.4892   3
  -4  -2   0 143.565 30.3957   2
   4   2   0 143.337 39.5701   3
   4  -2   0 219.193 58.0315   1
  -4  -2   0 157.857 26.3799   1
   4  -2   0 152.996 22.4832   3
   5   2   0 5760.04 248.848   3
  -5   2   0 5679.32 120.364   3
  -5  -2   0 5676.06 161.530   1
   5   2   0 5837.59 158.494   2
   5  -2   0 6149.24 324.486   1
  -5  -2   0 6488.74 262.480   2
   6   2   0 536.579 78.9194   3
   6   2   0 565.837 61.9569   2
   6  -2   0 649.019 109.883   1
  -6  -2   0 735.856 106.005   2
   7   2   0 92.3074 35.7033   3
   7  -2   0 109.280 78.7657   2
  -7  -2   0 128.504 51.4793   2
   7  -2   0 66.5529 35.6210   1
   7   2   0 58.2512 22.3148   2
  -8  -2   0 384.158 88.4719   2
   8  -2   0 473.528 102.039   1
   8   2   0 313.940 64.2962   3
   8   2   0 418.124 72.8619   2
   8  -2   0 510.875 154.005   2
   9  -2   0 510.925 111.712   1
   9   2   0 425.564 84.2285   2
   9  -2   0 498.755 164.249   2
   9   2   0 489.530 84.6247   3
  -9  -2   0 512.702 68.3122   1
  -9  -2   0 524.611 115.311   2
  10   2   0 1620.72 185.829   2
  10  -2   0 1551.96 290.648   2
  10  -2   0 1609.05 206.582   1
 -10  -2   0 1539.51 206.076   2
 -10  -2   0 1613.21 132.312   1
  10   2   0 1560.86 154.421   3
  11  -2   0 76.0307 44.6807   2
 -11  -2   0 54.8345 25.1512   1
  11   2   0 69.8153 29.3287   3
  11  -2   0 63.2345 42.1231   1
 -11  -2   0 61.0010 31.6245   2
  11   2   0 74.4806 44.2508   2
 -12  -2   0 166.530 49.6700   1
  12  -2   0 187.418 109.189   2
  12   2   0 177.450 53.0967   3
  12   2   0 362.220 137.955   2
  12  -2   0 187.947 76.5072   1
 -13  -2   0 319.792 70.7411   3
  13   2   0 356.249 108.968   2
  13   2   0 444.462 88.9135   3
 -13   2   0 445.162 113.554   1
  13  -2   0 531.194 188.578   2
  13  -2   0 350.433 103.496   1
 -13  -2   0 374.497 76.4726   1
 -14   2   0 2.87734 19.4965   1
 -14  -2   0 47.2753 31.4457   1
  14   2   0 90.9500 56.0286   2
 -14  -2   0 1.55239 19.4936   3
  14   2   0 30.6659 22.7745   3
  15   2   0 2.09836 17.8345   3
 -15  -2   0 28.9573 23.2396   1
  15   2   0 92.3288 77.3694   2
 -15  -2   0-14.6928 25.7782   3
 -15   2   0 53.1781 37.2980   1
 -16   2   0 714.308 158.092   1
  16   2   0 597.646 113.415   3
  16   2   0 632.974 171.878   2
 -16  -2   0 715.329 121.252   1
 -16  -2   0 518.475 99.4562   3
  17   2   0 80.3455 44.3709   2
 -17  -2   0 22.4081 16.6361   1
  17   2   0-17.4521 27.8581   3
 -17   2   0-36.6166 55.6267   1
 -18  -2   0 630.985 124.770   1
 -18   2   0 649.367 160.165   1
  18   2   0 833.274 203.199   2
  18   2   0 583.383 119.775   3
  19   2   0 64.2840 46.0547   2
  19   2   0 136.750 48.8180   3
 -19   2   0 147.189 76.3223   1
 -19  -2   0 107.058 51.2649   1
 -20   2   0 426.563 129.786   1
  20   2   0 290.973 88.2929   3
 -20  -2   0 289.479 92.0220   1
 -21   2   0 800.369 190.406   1
  21   2   0 924.512 159.338   3
 -21  -2   0 784.828 151.693   1
  22   2   0-27.2035 43.3855   3
 -22  -2   0 29.7429 34.3043   1
 -22   2   0 8.17130 40.1451   1
 -23  -2   0 520.657 131.845   1
  23   2   0 564.633 130.850   3
 -23   2   0 709.845 183.869   1
  24   2   0 204.950 81.2655   3
 -24   2   0 145.343 88.9426   1
 -24  -2   0 223.292 85.9911   1
  25   2   0-26.1007 15.8688   3
 -25   2   0 30.2718 79.8008   1
 -26   2   0 27.6834 41.5863   1
 -27   2   0 137.976 109.662   1
 -28   2   0 67.0979 66.2207   1
   0   3   0 1248.46 127.786   1
   0  -3   0 1648.03 125.629   3
   0  -3   0 1203.81 126.043   1
   0   3   0 2148.21 149.474   3
  -1  -3   0 441.298 65.3955   3
   1   3   0 405.628 65.9523   1
   1  -3   0 413.860 59.3007   3
  -1   3   0 409.612 61.2141   3
  -1  -3   0 439.536 69.5619   1
   1   3   0 526.821 74.7750   3
  -1   3   0 393.052 71.8612   1
   1  -3   0 408.160 78.7300   1
   2   3   0 656.299 85.6289   3
  -2   3   0 734.014 100.873   1
  -2   3   0 685.525 77.1800   3
   2   3   0 736.451 83.4557   1
   2  -3   0 810.392 113.469   1
  -2  -3   0 742.155 82.8355   1
   2  -3   0 697.253 73.9382   3
  -3   3   0 469.954 85.6842   1
   3  -3   0 377.218 52.6589   3
   3   3   0 369.857 69.1433   3
  -3   3   0 373.302 52.9373   3
   3   3   0 307.349 52.1667   1
   3  -3   0 365.576 80.8807   1
  -3  -3   0 368.435 54.2998   1
   4  -3   0 1749.60 186.593   1
   4   3   0 1677.86 147.753   3
  -4  -3   0 1764.85 100.923   2
  -4  -3   0 1641.24 103.592   1
   4   3   0 1833.08 120.271   1
   4  -3   0 1838.17 109.752   3
  -4   3   0 1746.45 107.650   3
  -5  -3   0 1426.95 106.532   2
   5  -3   0 1558.85 184.798   1
  -5   3   0 1480.88 92.2675   3
  -5  -3   0 1454.00 91.1961   1
   5   3   0 1420.89 144.449   3
   5  -3   0 1558.80 94.9004   3
  -6  -3   0 647.965 58.9524   1
  -6  -3   0 783.389 94.5572   2
   6  -3   0 755.992 133.354   1
   6   3   0 801.537 111.938   3
  -6   3   0 716.955 60.0002   3
   7   3   0 74.1128 28.4901   3
  -7  -3   0 54.1874 9.33097   2
  -7  -3   0 73.2149 19.9831   1
  -7   3   0 62.8396 16.5103   3
   7  -3   0 61.3562 30.6856   1
  -8  -3   0-9.73482 17.2784   2
   8  -3   0 5.39211 56.7597   2
  -8  -3   0 9.49434 7.63994   1
   8   3   0-6.85359 10.0306   3
   8   3   0 13.5993 14.7593   2
   8  -3   0-9.28390 26.6484   1
   9   3   0 1775.48 114.554   2
  -9  -3   0 2030.93 204.890   2
   9   3   0 1743.05 174.367   3
   9  -3   0 1985.84 240.616   1
   9  -3   0 1826.85 342.903   2
  -9  -3   0 1721.51 109.194   1
  10   3   0 26.8070 28.8784   3
 -10  -3   0 16.5791 15.7386   2
  10  -3   0 79.1607 55.8373   1
  10  -3   0-37.6135 50.7546   2
 -10  -3   0 25.6715 16.8805   1
  10   3   0 4.02936 11.6311   2
 -10  -3   0 14.5619 15.7924   1
 -11  -3   0 157.575 37.7940   1
  11  -3   0 11.8298 32.8148   2
  11  -3   0 140.459 70.8943   1
 -11  -3   0 147.798 49.0793   2
 -11  -3   0 116.109 40.1050   3
  11   3   0 95.9900 43.5028   3
  11   3   0 158.479 44.9420   2
 -12  -3   0 124.270 43.4376   3
  12   3   0 187.760 57.4387   2
 -12   3   0 188.985 77.7949   1
  12   3   0 218.575 65.9374   3
 -12  -3   0 204.554 82.3964   2
 -12  -3   0 199.194 44.6823   1
 -13   3   0 186.815 78.2479   1
  13   3   0 160.531 54.8188   2
 -13  -3   0 73.7165 29.1641   1
 -14   3   0-3.86949 43.1814   1
 -14  -3   0-5.42735 9.05411   1
  14   3   0 0.39760 19.5802   2
  14   3   0-41.4068 38.3857   3
  15   3   0 480.445 108.448   2
 -15  -3   0 426.258 78.9723   1
 -15   3   0 494.847 134.529   1
  15   3   0 524.100 111.372   3
 -16  -3   0 211.734 57.0818   1
  16   3   0 126.780 59.4631   3
 -16   3   0 195.000 80.9794   1
  16   3   0 120.596 58.4302   2
 -17  -3   0 181.432 57.2922   1
 -17   3   0 154.207 74.5209   1
  17   3   0 116.107 61.1387   2
  17   3   0 83.7791 39.9398   3
  18   3   0 131.756 65.5211   2
  18   3   0 49.4160 30.9728   3
 -18  -3   0 59.2636 28.6177   1
 -18   3   0 127.889 68.6726   1
  19   3   0 52.2687 44.2618   2
 -19   3   0 83.9495 76.3467   1
 -19  -3   0-40.8305 29.1096   1
  19   3   0 17.9878 28.1901   3
 -20  -3   0 121.701 52.6710   1
 -20   3   0 4.24069 33.6170   1
  20   3   0 105.397 63.3809   3
  21   3   0-28.2710 53.0999   3
 -21   3   0-103.933 72.0728   1
 -21  -3   0-15.8717 20.1097   1
  22   3   0 18.8150 21.7718   3
 -22   3   0-90.6204 69.2572   1
  23   3   0 867.652 178.171   3
 -23   3   0 867.200 217.968   1
 -24   3   0 450.091 160.306   1
  24   3   0 376.362 121.985   3
 -25   3   0 16.6322 41.1224   1
  25   3   0 122.633 73.4722   3
  26   3   0-45.3975 38.7301   3
 -26   3   0 99.3115 95.5861   1
 -27   3   0 49.4574 58.8272   1
  27   3   0-50.3057 46.2914   3
   0  -4   0 4020.94 265.704   1
   0  -4   0 4424.97 240.093   3
   0   4   0 4427.03 245.716   3
   0   4   0 4222.81 260.593   1
  -1  -4   0-9.33358 15.8764   1
  -1   4   0-10.3017 12.2038   3
  -1   4   0 16.5909 18.2225   1
   1  -4   0 4.17475 13.1232   3
   1  -4   0-10.1559 13.0753   1
  -1  -4   0-5.57318 18.8790   3
   1   4   0-5.16064 6.12209   1
   1   4   0-12.8770 27.8432   3
   2  -4   0 223.913 50.2347   3
  -2   4   0 225.686 65.5146   1
   2  -4   0 203.324 64.9714   1
  -2  -4   0 208.153 51.2147   3
   2   4   0 204.200 52.4598   1
   2   4   0 238.606 58.1461   3
  -2   4   0 217.177 51.8867   3
  -2  -4   0 244.310 56.8019   1
   3  -4   0 314.393 83.1808   1
   3  -4   0 233.634 50.6588   3
  -3   4   0 185.614 43.2021   3
   3   4   0 195.422 57.6615   3
  -3  -4   0 196.253 49.3876   1
   3   4   0 257.971 55.0525   1
  -3  -4   0 201.495 56.3653   3
  -4  -4   0 369.079 74.3111   3
   4   4   0 419.960 70.0260   1
   4   4   0 422.526 86.2587   3
   4  -4   0 401.712 99.2210   1
  -4  -4   0 434.985 55.0915   2
   4  -4   0 490.305 71.9338   3
  -4   4   0 336.603 56.7843   3
  -4  -4   0 367.012 61.0810   1
   5  -4   0 302.986 87.9712   1
  -5  -4   0 220.685 44.5889   1
  -5   4   0 218.052 43.3032   3
   5  -4   0 272.577 51.1222   3
  -5  -4   0 213.217 42.5034   2
   5   4   0 214.825 66.1395   3
   5   4   0 227.036 49.2344   1
  -6   4   0 80.4959 40.8747   1
  -6   4   0 80.3497 20.6987   3
   6  -4   0 110.820 57.1626   1
  -6  -4   0 104.630 29.2097   1
  -6  -4   0 80.1824 28.4811   2
   6   4   0 81.9892 41.4006   3
   7  -4   0 81.6880 49.4930   1
  -7   4   0-35.4282 30.4574   1
  -7  -4   0 17.8213 11.6329   1
   7  -4   0-70.3567 37.4440   2
   7   4   0 24.9034 26.5309   3
  -7  -4   0 6.25024 12.9446   2
  -7   4   0 10.7290 11.2977   3
  -8  -4   0 102.711 39.0603   2
   8   4   0 139.158 61.1101   3
  -8   4   0 90.1906 53.6697   1
  -8  -4   0 74.5597 20.1747   1
   8  -4   0 60.0847 89.5228   2
  -8   4   0 113.033 27.1593   3
   8  -4   0 67.6055 49.5755   1
   9   4   0 70.0531 46.6723   3
   9  -4   0-43.6304 57.2678   2
  -9   4   0 38.1466 38.5308   1
   9  -4   0 98.9611 69.0230   1
  -9  -4   0 50.7332 14.6846   1
  -9  -4   0 73.3710 36.5476   2
 -10   4   0 24.7824 30.3290   1
 -10  -4   0 52.0917 13.9695   1
 -10  -4   0 37.7881 21.1490   2
 -10  -4   0 54.0750 15.4785   1
  10   4   0 31.3373 16.5470   3
 -11  -4   0 0.76995 2.79041   1
  11   4   0-2.87070 31.4021   3
 -11   4   0 4.39485 22.1324   1
 -11  -4   0-66.1766 36.2457   2
 -12  -4   0 283.749 37.0101   1
 -12   4   0 331.337 107.453   1
  12   4   0 298.372 82.7172   3
 -12  -4   0 282.563 37.0206   1
  13   4   0 352.998 55.9473   2
 -13  -4   0 312.034 41.9136   1
 -13  -4   0 284.934 40.8428   1
  13   4   0 338.467 96.0409   3
 -13   4   0 303.797 104.231   1
  14   4   0 119.396 48.6463   3
  14   4   0 153.415 38.1194   2
 -14  -4   0 137.407 30.8707   1
 -14   4   0 179.090 79.7459   1
 -14  -4   0 117.843 29.3084   1
  15   4   0 265.737 56.1857   2
 -15  -4   0 344.928 52.3147   1
 -15  -4   0 311.445 51.8622   1
 -15   4   0 300.757 115.262   1
  15   4   0 269.414 97.8107   3
 -16  -4   0 138.015 36.6677   1
  16   4   0 120.428 39.2826   2
 -16  -4   0 81.4509 27.9509   1
  16   4   0 55.4294 42.7874   3
 -16   4   0 69.9098 36.7417   1
  17   4   0 13.3847 21.5596   2
  17   4   0-10.0023 26.7876   3
 -17  -4   0 12.5112 8.39060   1
 -18  -4   0 115.879 37.4218   1
  18   4   0 87.4985 51.7856   3
 -18   4   0 110.718 76.9562   1
 -19   4   0 72.3172 59.0911   1
  19   4   0 73.4832 35.5450   3
  20   4   0 199.754 84.8375   3
 -20   4   0 146.832 87.8498   1
  21   4   0 80.7625 52.2214   3
 -21   4   0 41.3230 30.4294   1
  22   4   0 98.9673 62.2309   3
 -22   4   0 51.8829 55.7072   1
  23   4   0 28.8185 18.8891   3
 -23   4   0 46.1705 53.6503   1
 -24   4   0 22.0645 38.7977   1
  24   4   0-36.7741 16.3723   3
  25   4   0 330.552 120.759   3
 -25   4   0 231.356 115.683   1
  26   4   0 78.0735 50.6034   3
  27   4   0 110.245 78.5555   3
   0   5   0 424.357 91.5032   1
   0   5   0 301.129 76.4785   3
   0  -5   0 517.543 106.325   1
   0  -5   0 350.378 77.0835   3
   1   5   0-4.92556 12.6266   3
  -1  -5   0 1.69191 5.48512   1
  -1   5   0-11.5344 19.4233   3
   1  -5   0 18.0587 21.9789   3
  -1  -5   0-14.7509 21.7437   3
   1   5   0 25.4571 24.6917   1
   1  -5   0-1.92615 11.0882   1
   2  -5   0 153.696 66.1838   1
  -2  -5   0 192.361 60.4639   3
  -2   5   0 145.663 41.3877   3
   2   5   0 202.295 65.3678   3
   2   5   0 153.641 54.9022   1
  -2  -5   0 143.622 51.0963   1
   2  -5   0 160.360 50.5298   3
  -3  -5   0 223.599 59.6798   1
  -3   5   0 145.652 45.1033   3
   3   5   0 201.901 62.4252   3
   3   5   0 174.044 53.8496   1
   3  -5   0 164.960 46.8244   3
   3  -5   0 241.667 82.2761   1
  -3  -5   0 137.882 49.2412   3
  -4   5   0 427.607 75.6669   3
  -4  -5   0 574.626 70.2908   2
   4   5   0 570.624 110.618   3
   4   5   0 500.934 86.9215   1
   4  -5   0 615.497 136.460   1
   4  -5   0 636.985 94.3216   3
  -4  -5   0 511.927 86.2289   1
  -4  -5   0 498.200 101.236   3
  -4   5   0 590.116 122.475   1
   5  -5   0 1051.44 116.713   3
   5   5   0 1088.64 123.376   1
   5  -5   0 1190.19 196.431   1
  -5   5   0 1058.53 168.626   1
  -5  -5   0 1062.48 115.158   1
  -5  -5   0 952.880 96.0608   2
   5   5   0 1161.81 156.026   3
  -5   5   0 1050.72 115.941   3
   6  -5   0-8.72219 12.4796   1
  -6  -5   0 41.5957 29.3007   2
   6   5   0-1.27480 11.8108   3
  -6   5   0 28.8335 15.8207   3
  -6   5   0 5.30056 27.4499   1
   6  -5   0-34.7848 50.7405   2
  -6  -5   0-11.1537 11.1171   1
  -7   5   0 474.535 70.2214   3
   7   5   0 498.997 105.084   3
  -7  -5   0 466.203 63.3220   1
  -7  -5   0 430.885 71.5824   2
  -7   5   0 440.607 115.743   1
   7  -5   0 388.869 163.035   2
  -8  -5   0 879.167 74.2887   1
   8   5   0 1012.94 156.236   3
  -8  -5   0 1141.46 126.199   2
  -8   5   0 1177.64 107.054   3
  -8   5   0 1108.78 190.341   1
  -9   5   0 133.940 66.8906   1
  -9   5   0 229.271 44.6919   3
  -9  -5   0 158.557 47.1363   2
   9   5   0 151.520 61.4183   3
 -10   5   0 21.6847 41.9585   1
  10   5   0-104.163 52.9524   3
  11   5   0 518.643 120.597   3
 -11   5   0 478.379 131.814   1
 -12   5   0 66.0889 37.5369   1
  12   5   0 71.2411 34.3495   3
  13   5   0 5.12664 29.1760   3
 -13   5   0-4.09733 15.9154   1
  14   5   0 54.7700 44.4353   3
 -14   5   0 112.483 77.8748   1
  15   5   0 33.3324 37.5910   3
 -15   5   0 6.78944 40.2302   1
 -16   5   0 281.649 112.069   1
  16   5   0 70.7100 57.8810   3
  17   5   0-38.7300 36.4744   3
 -17   5   0 38.4155 44.5438   1
  18   5   0 163.597 77.5537   3
 -18   5   0 123.218 102.930   1
 -19   5   0-10.3195 25.0182   1
  19   5   0 19.5290 20.3382   3
 -20   5   0 14.1422 30.4348   1
  20   5   0 58.8850 26.1803   3
 -21   5   0 14.7694 30.7537   1
  21   5   0-88.5814 62.0555   3
 -22   5   0 3.87106 19.9336   1
  22   5   0 31.5190 42.5613   3
 -23   5   0-36.6381 73.9413   1
  23   5   0-29.5486 39.2209   3
  24   5   0 22.5190 32.9308   3
   0  -6   0 446.259 110.304   1
   0   6   0 492.125 101.177   3
  -1   6   0 38.4895 31.0191   1
   1   6   0-23.8778 45.5854   3
   1  -6   0 54.6000 39.8485   1
  -1  -6   0 40.5287 31.7011   1
   1  -6   0 1.97457 11.3709   3
  -1   6   0 24.7290 13.6608   3
  -2  -6   0 859.927 139.107   1
   2  -6   0 797.794 126.280   3
  -2   6   0 878.413 155.939   1
   2  -6   0 1006.36 177.772   1
   2   6   0 895.344 142.850   3
  -2   6   0 772.451 121.759   3
  -3   6   0 19.5747 24.5391   1
   3  -6   0 4.23944 78.5862   2
   3  -6   0-19.7548 21.5579   3
  -3   6   0-41.1408 37.5162   3
  -3  -6   0 30.9246 22.0493   1
   3   6   0-14.6734 17.7955   1
   3   6   0-37.2134 46.4184   3
   3  -6   0 28.7120 40.4435   1
  -4   6   0 323.883 77.4186   3
   4   6   0 405.208 89.2845   1
  -4  -6   0 339.531 61.5720   2
   4  -6   0 364.781 81.1296   3
   4   6   0 251.820 72.0718   3
   4  -6   0 356.649 158.235   2
  -4   6   0 273.890 89.9823   1
  -4  -6   0 376.377 83.8666   1
  -5  -6   0 812.303 115.240   1
   5   6   0 812.205 144.156   3
   5   6   0 758.277 114.225   1
   5  -6   0 729.033 111.280   3
  -5  -6   0 759.469 92.7502   2
  -5   6   0 781.526 159.224   1
  -5   6   0 668.810 105.401   3
  -6  -6   0 339.439 65.2658   2
  -6   6   0 271.938 91.3382   1
   6   6   0 329.046 86.3320   3
  -6   6   0 396.039 78.5965   3
  -6  -6   0 337.326 66.8161   1
   7   6   0 187.704 69.3277   3
  -7  -6   0 209.696 47.2006   1
  -7  -6   0 85.2915 31.9618   2
  -7   6   0 144.082 69.4036   1
  -7   6   0 247.639 61.3813   3
  -8  -6   0 1379.39 124.045   2
   8   6   0 2064.41 246.173   3
  -8  -6   0 1287.71 120.521   2
  -8   6   0 1750.41 258.325   1
  -8   6   0 1694.98 149.614   3
  -9   6   0 655.279 88.7656   3
   9   6   0 601.081 131.662   3
  -9   6   0 631.009 155.022   1
 -10   6   0 445.990 132.064   1
  10   6   0 638.609 139.098   3
  11   6   0-9.03664 28.3411   3
 -11   6   0 50.5158 46.5123   1
 -12   6   0 46.7190 45.7735   1
  12   6   0 24.5348 27.6247   3
  13   6   0 44.2639 51.7888   3
 -13   6   0-63.9779 54.6362   1
  14   6   0 148.520 73.0870   3
 -14   6   0 145.639 83.1955   1
 -15   6   0 16.8952 24.9587   1
  15   6   0 20.6799 31.7043   3
 -16   6   0 41.6657 49.6236   1
  16   6   0 100.947 55.2419   3
  17   6   0 81.7721 68.5945   3
 -17   6   0 128.890 82.3315   1
  18   6   0-6.47760 35.7775   3
 -18   6   0 96.3567 74.7017   1
 -19   6   0 65.4128 79.2361   1
  19   6   0 40.9303 44.3436   3
 -20   6   0-21.1458 37.6593   1
  20   6   0-18.8723 49.8895   3
  21   6   0 108.062 74.2909   3
   0   7   0 72.1309 45.2396   1
   0  -7   0 133.258 102.197   2
   0   7   0 38.0870 30.3572   3
   0  -7   0 86.8192 51.6646   1
  -1  -7   0 38.3304 46.4534   2
  -1  -7   0 37.6558 33.5940   1
   1   7   0 3.14840 41.7840   1
   1   7   0-3.87553 23.0273   3
  -1   7   0 72.0940 45.7536   1
   1  -7   0 92.6864 65.9112   2
  -1   7   0 0.85062 41.6776   3
   2   7   0-33.8198 44.9988   3
  -2   7   0-0.99823 25.8160   3
  -2  -7   0-10.3030 26.7071   2
  -2   7   0-5.80324 15.4422   1
   2  -7   0-49.5074 59.7726   2
   2   7   0-5.94735 15.7441   1
  -2  -7   0 21.8151 25.0504   1
  -3   7   0 37.2776 23.6953   3
  -3  -7   0-31.0412 27.9685   1
   3   7   0-10.0869 27.9604   3
  -3  -7   0-8.08888 12.3133   2
  -3   7   0-24.0252 29.4096   1
   4   7   0 237.723 82.3220   3
  -4   7   0 247.161 92.2210   1
  -4  -7   0 157.587 45.7043   2
  -4   7   0 168.394 61.6635   3
  -5   7   0 28.0616 37.6699   3
  -5   7   0 18.9445 19.8156   1
   5   7   0 24.0370 23.1915   1
   5   7   0 10.1353 31.7551   3
  -5  -7   0-8.44385 6.77064   2
  -6   7   0 881.576 130.395   3
  -6   7   0 964.949 197.063   1
   6   7   0 989.885 176.487   3
   7   7   0 27.2165 40.9915   3
  -7   7   0-18.6690 20.8441   3
  -7   7   0-34.3869 38.1804   1
  -8   7   0 20.6120 27.4541   1
  -8   7   0 8.15356 18.5997   3
   8   7   0-69.1342 65.5299   3
  -9   7   0 26.5689 47.5570   1
   9   7   0 3.54080 17.0436   3
  10   7   0 13.4085 24.8270   3
 -10   7   0 112.823 78.2782   1
 -11   7   0 84.9505 63.7790   1
  11   7   0 52.8105 57.4510   3
  12   7   0 29.4628 42.9412   3
 -12   7   0 46.0579 53.5182   1
 -13   7   0-39.8056 46.4412   1
  13   7   0-54.1847 48.1949   3
  14   7   0 45.5574 46.2110   3
 -14   7   0 10.6759 26.2490   1
  15   7   0 8.97133 57.0278   3
 -15   7   0 83.6332 68.5010   1
 -16   7   0 23.6883 38.5149   1
  16   7   0 66.1921 42.4752   3
 -17   7   0 101.678 85.1333   1
  17   7   0-1.45598 37.2406   3
 -18   7   0 165.994 102.229   1
   0   8   0 23.8230 25.1292   3
   0   8   0 75.5369 50.9044   1
   1   8   0 119.214 140.463   3
  -1   8   0-39.8992 38.5153   1
   1   8   0 165.036 72.8076   1
   2   8   0 23.4081 29.1737   3
   2   8   0-26.2118 29.0491   1
  -2   8   0 8.80069 22.2320   3
  -2   8   0 30.5934 34.5225   1
   3   8   0-33.5358 51.5359   3
  -3   8   0-15.2456 26.1953   1
  -3   8   0 5.21851 9.82020   3
   3   8   0 25.5354 36.4327   1
  -4   8   0 6.18825 31.4826   3
  -4   8   0 21.7941 33.2791   1
   4   8   0 39.8976 35.3830   3
   5   8   0 60.8936 54.8146   3
  -5   8   0 74.7386 37.7338   3
  -5   8   0 75.8175 57.3345   1
  -6   8   0 100.265 49.5108   3
  -6   8   0 84.7406 61.5956   1
   6   8   0 131.878 75.0352   3
  -7   8   0 84.7937 46.8339   3
   7   8   0 90.1705 44.0591   3
  -7   8   0 165.903 87.8662   1
   8   8   0 120.838 72.7764   3
  -8   8   0 168.410 100.977   1
   9   8   0-42.4688 55.3800   3
  -9   8   0-15.7251 30.1440   1
  10   8   0 50.9107 44.0925   3
 -10   8   0 137.042 84.9829   1
  11   8   0 39.6330 42.9546   3
 -11   8   0-87.9070 69.8599   1
 -12   8   0-15.0192 31.2049   1
  12   8   0-59.6586 52.9508   3
  13   8   0-48.3295 52.4321   3
 -13   8   0-39.8640 49.7809   1
 -14   8   0 351.462 140.714   1
 -15   8   0 75.5809 70.0210   1
   0   9   0 12.4410 35.3679   3
   1   9   0 102.560 70.4491   3
  -1   9   0 22.0338 29.1088   3
  -2   9   0 19.1901 27.2850   3
   2   9   0 67.6720 63.1361   3
   3   9   0-20.0663 29.7153   3
  -3   9   0 15.1183 28.9449   3
  -3   9   0-40.9092 43.2850   1
  -4   9   0 71.2543 58.3441   1
   4   9   0 110.229 66.7790   3
  -5   9   0 58.8359 54.0668   1
   5   9   0 59.2628 55.5690   3
   6   9   0 22.8576 15.0653   3
  -6   9   0 195.399 99.4270   1
   7   9   0 2.39123 32.5426   3
  -7   9   0 73.2945 62.4704   1
  -8   9   0-34.6408 44.5631   1
   8   9   0 163.438 84.0236   3
  -9   9   0 1.77638 16.4115   1
 -10   9   0 110.924 81.6007   1
 -11   9   0 40.6768 43.5729   1
   1  10   0 39.5728 41.4473   3
   2  10   0 64.6114 52.9449   3
 -29   0   1-16.2301 32.8719   1
 -28   0   1-51.4363 30.2632   1
 -27   0   1-27.9438 39.4548   1
 -26   0   1 21.2354 34.3615   1
 -25   0   1-71.8693 58.7421   1
 -24   0   1-19.5029 31.6528   1
 -23   0   1-24.6695 26.3278   1
 -22   0   1 61.0307 40.5985   1
 -21   0   1-4.67108 37.1305   1
 -21   0   1-19.4203 20.4209   3
 -20   0   1 51.8814 24.5838   1
 -19   0   1-25.5654 44.9393   1
 -18   0   1 12.3332 15.3657   1
 -17   0   1 18.3724 29.5993   1
 -17   0   1-17.3760 19.1356   3
 -16   0   1 2.51824 13.4235   3
 -16   0   1 16.9156 16.2612   1
  16   0  -1 32.1675 30.8252   3
  16   0  -1 8.30719 31.1981   2
  15   0  -1 20.3581 27.6086   3
 -15   0   1-13.8104 15.1243   3
 -15   0   1 18.2028 39.6000   1
  14   0  -1 22.2455 21.1188   3
  14   0  -1 31.5706 32.4229   2
 -14   0   1 20.6453 8.60972   1
 -14   0   1-11.3572 12.7342   3
 -13   0   1-7.87335 21.7924   1
 -13   0   1-2.83932 12.5992   3
  13   0  -1 24.7158 25.3418   3
  12   0  -1 29.8457 32.5467   2
  12   0  -1 4.86828 15.2325   3
 -12   0   1-10.7153 15.3450   3
 -12   0   1 4.45878 14.6688   1
  11   0  -1-9.38688 8.74299   3
 -11   0   1-8.53131 15.8594   1
 -11   0   1 5.00057 5.56084   3
  11   0  -1-9.73718 50.6342   2
 -10   0   1-23.0841 49.5798   2
  10   0  -1-5.25563 13.4475   3
 -10   0   1 3.82276 22.6329   1
 -10   0   1 7.04498 11.5341   3
  10   0  -1 4.64665 17.9460   2
   9   0  -1-10.1067 33.4906   2
  -9   0   1-5.42796 10.5722   3
  -9   0   1 19.3934 17.1047   1
   9   0  -1 3.71200 9.27294   3
  -9   0   1-11.0378 22.6556   2
  -8   0   1 3.80391 17.9466   1
  -8   0   1 43.3780 56.7572   2
   8   0  -1 6.30260 11.2550   3
   8   0  -1 6.58558 44.9997   2
  -8   0   1 7.38145 9.64689   3
   7   0  -1 14.8091 10.6004   3
   7   0  -1 32.2484 42.6119   2
  -7   0   1 10.6713 15.5168   1
  -7   0   1 8.39916 9.44521   3
   6   0  -1 35.9336 39.5966   2
   6   0  -1 7.22689 13.2036   3
   5   0  -1 2.82753 33.3435   2
   5   0  -1 8.04558 15.8112   3
   4   0  -1 10.1362 11.1472   3
   4   0   1 4.50339 4.32062   3
   5   0   1 19.0283 15.0678   1
   5   0   1-1.23232 4.15199   3
  -6   0  -1 4.47772 7.77577   3
  -6   0  -1 9.71023 10.9731   1
   6   0   1-0.68692 4.04083   3
   6   0   1-1.48445 8.33183   1
   6   0   1-0.53086 23.8043   2
  -7   0  -1 3.81120 3.36810   3
  -7   0  -1 12.9868 10.5157   1
   7   0   1-0.98672 5.36208   3
   7   0   1 11.8731 15.7012   2
   7   0   1 14.4348 16.7352   1
   8   0   1 4.75212 32.5788   2
   8   0   1-7.27235 13.4573   1
  -8   0  -1-2.39872 14.6498   1
  -8   0  -1 9.37315 7.25072   3
   8   0   1-10.9967 7.80137   3
  -9   0  -1-4.86157 10.2204   3
   9   0   1 9.91808 38.9278   2
  -9   0  -1 3.10948 12.4504   1
   9   0   1 3.66993 13.3253   3
   9   0   1-4.17951 10.8659   1
  10   0   1-11.6072 14.6782   1
  10   0   1-1.08504 11.6580   3
 -10   0  -1-1.01594 9.77804   3
 -10   0  -1 19.4117 30.1539   1
  10   0   1-15.6090 62.4334   2
  11   0   1 61.9101 68.2250   2
  11   0   1 7.36981 12.8205   3
 -11   0  -1 5.35562 10.5143   3
 -11   0  -1 1.53841 18.2335   1
  12   0   1-20.9981 26.5299   3
 -12   0  -1-3.83767 8.72218   3
  12   0   1 22.4818 64.6504   2
 -12   0  -1 4.12942 17.6242   1
  13   0   1-24.4266 38.5133   2
  13   0   1-10.3995 22.1713   3
 -13   0  -1 0.08310 20.4632   1
 -13   0  -1 31.4293 16.4896   3
 -14   0  -1-10.3595 10.0107   3
  14   0   1 43.2484 52.5444   2
 -14   0  -1-11.9519 29.4777   1
  14   0   1 6.40453 22.7373   3
 -15   0  -1 20.9674 27.0597   1
  15   0   1-23.5487 26.0397   3
 -15   0  -1 3.28920 5.60316   3
  15   0   1-2.82030 74.6744   2
  16   0   1-22.8796 29.6119   3
 -16   0  -1 48.4724 45.7147   1
 -16   0  -1 13.3650 14.4193   3
 -17   0  -1 4.54781 11.7222   3
  17   0   1-10.7079 25.7533   3
 -17   0  -1 4.35723 25.0601   1
 -18   0  -1 52.3254 42.2776   1
  18   0   1 10.0350 21.3383   3
  19   0   1 5.55029 14.0942   3
 -19   0  -1 50.6258 46.1145   1
  20   0   1 4.26918 28.3067   3
 -20   0  -1 29.3153 31.6379   1
  21   0   1 26.3541 36.5492   3
 -21   0  -1-24.8481 46.4101   1
 -22   0  -1-19.3438 28.8170   1
 -23   0  -1 34.7216 17.7154   1
 -24   0  -1 10.3679 46.6445   1
 -25   0  -1-79.1084 60.5079   1
 -26   0  -1 37.6424 28.1718   1
 -27   0  -1-0.19389 40.5732   1
 -28   0  -1-31.9556 42.1374   1
 -30   1   1 2802.59 427.848   1
 -29   1   1 53.7799 58.5578   1
 -28   1   1 179.642 96.7074   1
 -27   1   1 647.773 192.612   1
 -27  -1   1 611.278 169.075   1
 -26  -1   1 171.984 91.6030   1
 -26   1   1 263.413 119.083   1
 -25   1   1 240.475 122.839   1
 -25  -1   1 156.069 76.0221   1
 -24   1   1 115.354 76.8076   1
 -24  -1   1 83.2215 66.9277   1
 -23   1   1 135.593 74.8369   1
 -23  -1   1 78.1806 58.7828   1
 -22   1   1 91.2710 63.6791   1
 -22  -1   1 74.0162 61.5990   1
  21   1  -1 372.359 96.3814   3
 -21   1   1 193.491 92.9962   1
 -21  -1   1 302.621 115.456   1
 -20  -1   1 1201.00 199.600   1
  20   1  -1 1182.35 161.262   3
 -20   1   1 1192.48 220.947   1
 -20  -1   1 1117.93 147.112   3
 -19  -1   1 147.376 50.6561   3
  19   1  -1 172.724 63.4052   3
 -19   1   1 129.799 37.0973   3
 -19   1   1 172.169 84.3840   1
 -19  -1   1 61.1510 34.0878   1
 -18  -1   1 317.544 73.4524   3
 -18   1   1 248.955 46.8975   3
  18   1  -1 272.439 77.3398   3
 -18   1   1 311.333 109.011   1
 -18  -1   1 272.725 90.1595   1
 -17  -1   1 138.183 43.3994   3
 -17   1   1 352.857 105.540   1
 -17  -1   1 285.890 91.2042   1
  17   1  -1 392.817 86.7706   3
 -17   1   1 224.709 40.4547   3
  17   1  -1 347.454 139.492   2
 -16   1   1 1208.24 197.780   1
 -16  -1   1 966.514 119.828   3
 -16   1   1 1150.70 92.9170   3
 -16  -1   1 1002.95 161.630   1
  16   1  -1 1155.43 145.432   3
  16   1  -1 1381.12 280.364   2
  15  -1  -1-6.16183 35.9079   2
  15   1  -1 44.2583 30.8564   3
  15   1  -1-35.3764 73.0993   2
 -15  -1   1 15.8661 34.2911   1
 -15   1   1-6.67530 8.20646   3
 -15   1   1-8.90370 24.5714   1
  14   1  -1 16.0476 36.0134   2
  14   1  -1-12.2554 15.9442   3
  14  -1  -1 41.8729 56.3649   2
 -14   1   1-24.5753 38.1401   1
 -14   1   1 8.54625 3.47357   3
 -14  -1   1-4.91460 20.1284   1
 -13  -1   1 12.7265 30.0970   1
  13   1  -1-69.9674 57.3879   2
 -13  -1   1-9.05499 16.6277   3
 -13   1   1-2.55951 9.24692   3
 -13  -1   1-5.31224 45.6272   2
 -13   1   1-38.6454 32.3925   1
  13   1  -1 0.56486 25.4107   3
  13  -1  -1 55.2751 89.8603   2
 -12  -1   1 854.198 103.035   3
 -12  -1   1 957.082 134.139   1
  12   1  -1 852.725 110.240   3
  12  -1  -1 892.477 233.542   2
 -12   1   1 816.950 63.7418   3
 -12  -1   1 928.445 200.019   2
  12   1  -1 811.666 188.609   2
 -12   1   1 888.148 147.301   1
 -11   1   1 968.535 67.7156   3
  11  -1  -1 976.257 229.606   2
 -11  -1   1 1010.73 108.435   3
 -11  -1   1 932.969 188.027   2
 -11   1   1 1105.08 158.026   1
  11   1  -1 993.894 191.426   2
  11   1  -1 1098.62 119.823   3
 -11  -1   1 1088.06 135.753   1
 -10  -1   1 24.2290 13.1405   2
  10   1  -1 1.68835 37.7249   2
  10  -1  -1-33.6877 64.2891   2
 -10  -1   1 0.50797 19.6479   1
 -10  -1   1-4.11833 13.4662   3
  10   1  -1 1.81323 9.86839   3
 -10   1   1 4.28149 3.54997   3
  -9  -1   1 78.9254 55.0964   2
   9   1  -1 33.6992 33.3496   2
  -9   1   1 50.7634 13.6412   3
   9   1  -1 48.6028 27.4738   3
  -9  -1   1 32.2399 21.3224   1
  -9  -1   1 47.5020 24.9756   3
   9  -1  -1 6.21493 21.4686   2
  -8   1   1 24.2791 9.61451   3
   8   1  -1 23.2269 39.9765   2
   8   1  -1 5.72964 9.92782   3
  -8  -1   1 43.3852 53.0823   2
   8  -1  -1 71.4730 70.7546   2
  -7   1   1-1.42137 5.48924   3
   7  -1  -1-16.9533 25.0640   2
   7   1  -1-9.09848 13.3181   2
   7   1  -1-7.18341 18.0963   3
  -7  -1   1 0.87344 16.2438   2
   6   1  -1 1691.71 119.574   3
   6  -1  -1 1729.19 230.722   2
  -6   1   1 1605.84 60.7305   3
  -6  -1   1 1726.27 194.094   2
   6   1  -1 1682.81 165.852   2
   5   1  -1 348.823 66.2117   2
   5  -1  -1 228.510 74.4555   2
   5  -1  -1 191.067 48.9207   1
   5   1  -1 266.603 44.2785   3
  -5  -1   1 293.586 70.3834   2
   4  -1  -1 634.261 83.1486   1
   4   1  -1 621.790 63.6086   3
  -4  -1   1 581.204 83.2426   2
   4  -1  -1 636.796 120.948   2
   4   1  -1 612.699 71.5315   2
   3  -1  -1 1496.14 117.437   1
  -3  -1   1 1587.82 107.137   2
   3   1  -1 1590.04 96.1072   3
   3  -1  -1 1453.65 164.604   2
   2  -1  -1 1080.09 124.639   2
   2  -1  -1 1033.30 87.0649   1
  -2  -1   1 1000.39 69.5768   1
   2  -1   1 261.376 44.7106   1
   3  -1   1 2957.07 165.212   1
   3   1   1 2899.70 125.621   3
   4   1   1 2058.92 113.420   3
   4   1   1 2262.44 145.067   2
   4  -1   1 2176.65 154.032   1
   5   1   1 14174.1 319.490   3
  -5  -1  -1 13814.8 251.604   1
   5  -1   1 14524.5 431.046   1
   5   1   1 15832.2 454.329   2
   6   1   1 266.068 45.6384   3
   6  -1   1 320.895 70.9042   1
  -6  -1  -1 253.603 40.5016   1
   6   1   1 230.446 62.6680   2
   7  -1   1 8407.31 371.353   1
  -7  -1  -1 8081.31 253.959   1
   7   1   1 8216.24 269.861   3
   7   1   1 9350.20 450.810   2
  -8  -1  -1 1339.74 108.568   3
   8   1   1 1354.82 114.475   3
   8   1   1 1663.80 209.509   2
   8  -1   1 1534.33 251.484   2
   8  -1   1 1391.74 159.325   1
   8  -1   1 1367.06 60.8030   3
  -8  -1  -1 1329.01 113.728   1
   9   1   1 119.397 34.2391   3
   9   1   1 198.329 77.1722   2
  -9  -1  -1 157.161 42.0330   1
   9  -1   1 116.451 19.2325   3
  -9  -1  -1 156.688 38.3878   3
   9  -1   1 99.7633 40.3056   1
   9  -1   1 214.439 93.3511   2
  10  -1   1 2723.22 107.734   3
 -10   1  -1 2442.63 224.272   1
  10  -1   1 2546.94 344.351   2
 -10  -1  -1 2716.94 167.996   3
  10   1   1 2829.47 179.853   3
 -10  -1  -1 2642.44 186.742   1
  10  -1   1 2789.14 249.091   1
  10   1   1 3169.35 336.604   2
 -11  -1  -1 3583.90 201.294   3
  11   1   1 3974.52 401.757   2
  11  -1   1 3751.48 137.377   3
 -11   1  -1 3650.94 284.918   1
  11  -1   1 3621.82 294.711   1
  11   1   1 3527.69 209.524   3
 -11  -1  -1 3520.24 229.400   1
  11  -1   1 3863.93 439.944   2
  12  -1   1 11.7292 12.7356   3
  12   1   1 8.70879 19.8206   3
 -12  -1  -1-2.63651 21.1126   1
  12  -1   1 38.3942 36.8183   2
  12   1   1 31.0730 59.9969   2
 -12  -1  -1-8.55614 10.5052   3
 -12   1  -1 67.5828 43.9936   1
  12  -1   1 41.9976 41.7244   1
 -13  -1  -1 360.987 81.2855   1
  13   1   1 504.539 157.311   2
  13  -1   1 319.921 157.694   2
 -13   1  -1 306.669 93.3822   1
  13   1   1 364.990 72.9191   3
  13  -1   1 432.527 109.851   1
  13  -1   1 294.654 44.1638   3
 -13  -1  -1 289.807 66.2368   3
  14  -1   1 39.5468 15.6549   3
 -14  -1  -1 37.6672 27.5437   1
 -14   1  -1 16.1507 26.6701   1
  14   1   1 73.5101 59.1482   2
  14  -1   1 56.7354 30.4260   2
  14   1   1 21.3420 29.9118   3
  15   1   1 33.6645 79.2723   2
 -15   1  -1 3.22391 18.2214   1
  15  -1   1-36.4829 54.4041   2
  15  -1   1 26.4766 20.0896   3
 -15  -1  -1-2.08091 17.3520   1
  15   1   1 1.55487 23.0406   3
 -16  -1  -1 141.505 48.9014   3
 -16   1  -1 211.045 84.2936   1
  16   1   1 106.813 43.1846   3
 -16  -1  -1 154.761 57.1248   1
  16   1   1 202.198 134.124   2
 -17   1  -1 613.771 141.177   1
  17   1   1 694.179 198.264   2
 -17  -1  -1 535.346 93.1141   3
 -17  -1  -1 504.017 113.587   1
  17   1   1 634.183 106.860   3
  18   1   1 1012.44 143.320   3
 -18   1  -1 923.397 177.236   1
  18   1   1 1417.50 338.427   2
 -18  -1  -1 892.277 124.568   3
 -18  -1  -1 1008.33 166.953   1
 -19  -1  -1 10.9002 19.0545   3
 -19   1  -1 16.7493 18.4136   1
 -19  -1  -1-63.1401 42.6639   1
  19   1   1-22.1842 31.4393   3
 -20  -1  -1 2.56566 8.04558   3
 -20  -1  -1-0.47064 21.7683   1
  20   1   1 68.6550 41.0811   3
 -20   1  -1 51.1219 41.5070   1
 -21   1  -1-88.4304 60.4207   1
  21   1   1 12.9508 11.0956   3
 -21  -1  -1-12.9035 31.9794   1
 -22  -1  -1-66.1687 48.1082   1
  22   1   1 4.60709 19.2325   3
 -22   1  -1 5.18313 12.2027   1
 -23   1  -1 91.2999 65.7480   1
  23   1   1 48.7050 47.4373   3
 -23  -1  -1 76.9296 53.5010   1
 -24  -1  -1 782.670 173.430   1
  24   1   1 795.032 143.306   3
 -24   1  -1 938.474 212.761   1
 -25   1  -1 85.0018 67.8088   1
 -25  -1  -1 38.3471 40.1410   1
 -26  -1  -1 23.7991 60.1657   1
 -26   1  -1 83.1619 66.6143   1
 -27   1  -1-74.0071 64.3505   1
 -28   1  -1 56.3030 57.7781   1
 -29   1  -1-59.9431 61.2857   1
 -28   2   1 87.8760 75.8065   1
 -27   2   1 81.1517 88.8345   1
 -26   2   1 102.163 77.8772   1
 -25   2   1 315.239 132.313   1
 -24  -2   1 72.8922 35.9096   1
  24   2  -1 61.9426 49.9066   3
 -24   2   1 81.4575 71.5235   1
 -23   2   1 125.210 86.6759   1
 -23  -2   1 82.0943 48.6195   1
  23   2  -1 101.243 62.2869   3
 -22  -2   1-68.5915 47.3330   1
 -22   2   1 2.07874 44.8021   1
  22   2  -1-39.8514 11.5660   3
 -21   2   1-10.9608 39.7189   1
  21   2  -1 29.5255 32.9991   3
 -21  -2   1-7.51523 18.6245   1
 -20  -2   1-11.0752 21.9190   1
 -20   2   1 17.4140 29.3715   1
  20   2  -1 13.9134 47.7953   3
 -19  -2   1 86.7606 49.1997   1
  19   2  -1 132.099 70.6179   3
  19   2  -1 69.4805 30.9385   2
 -19   2   1 147.015 77.7571   1
 -18   2   1 14.9331 16.0058   1
 -18  -2   1 1.09095 8.18561   1
  18   2  -1-17.1895 21.5851   3
  18   2  -1 67.8344 49.4731   2
 -17   2   1 207.428 78.4764   1
 -17  -2   1 214.143 75.0489   1
  17   2  -1 308.648 88.3706   3
  17   2  -1 447.159 155.093   2
  16   2  -1 435.194 136.895   2
 -16   2   1 246.936 100.088   1
 -16  -2   1 160.595 53.8918   3
  16   2  -1 288.744 84.4691   3
 -16  -2   1 238.546 72.3268   1
 -15   2   1 6.24758 19.9329   1
  15   2  -1 34.1821 71.9920   2
  15   2  -1 30.8225 34.3030   3
 -15  -2   1 29.5558 24.7133   1
 -15  -2   1-4.33066 26.6457   3
 -14   2   1 57.5735 46.7752   1
  14   2  -1 6.20350 13.1457   3
 -14  -2   1-9.31478 11.0428   1
 -14  -2   1 27.2886 27.2316   3
  14   2  -1 67.9351 53.9964   2
 -14  -2   1 47.3628 38.0902   2
 -13   2   1 281.770 85.6032   1
  13  -2  -1 243.158 141.519   2
 -13  -2   1 240.704 61.7696   1
 -13  -2   1 230.639 95.9418   2
  13   2  -1 122.764 76.9919   2
  13   2  -1 251.739 69.5431   3
 -13  -2   1 293.228 70.3441   3
 -12  -2   1-17.9791 34.9500   2
 -12  -2   1-17.0837 20.9661   1
  12  -2  -1-62.8444 65.9197   2
  12   2  -1 13.6627 23.8508   2
  12   2  -1-23.5855 34.5251   3
  11   2  -1-6.28278 51.9042   2
  11   2  -1 17.6346 14.5868   3
  11  -2  -1-32.9648 47.1457   2
 -11  -2   1 0.15660 14.6300   1
 -11  -2   1 37.6448 47.2047   2
 -10  -2   1 64.4808 53.5170   2
  10   2  -1 76.9115 42.8334   3
  10  -2  -1 145.801 95.1081   2
  10   2  -1 65.4581 31.1202   2
  -9  -2   1 217.034 79.3454   2
   9  -2  -1 152.811 131.181   2
   9   2  -1 135.981 44.3546   3
   9   2  -1 168.918 51.3970   2
   9  -2  -1 208.977 72.7926   1
   8  -2  -1-7.03759 24.4716   1
   8  -2  -1 21.5114 39.4868   2
   8   2  -1-4.39833 31.5579   3
  -8  -2   1 14.8086 23.4593   2
   8   2  -1-8.29598 15.6874   2
   7  -2  -1 27.7630 33.8951   2
   7   2  -1 45.2210 19.9782   3
  -7  -2   1 91.3883 48.2692   2
   7  -2  -1 99.7182 42.7445   1
   7   2  -1 84.6229 34.6302   2
   6   2  -1 7.82993 11.9085   2
  -6  -2   1-0.88136 20.4002   2
  -6   2   1 9.65194 4.97475   3
   6  -2  -1-1.39723 6.07791   1
   6  -2  -1-12.1945 27.1531   2
   6   2  -1-12.4722 26.1053   3
   5   2  -1 6277.62 261.392   3
   5   2  -1 6109.86 187.704   2
   5  -2  -1 7120.90 487.202   2
   5  -2  -1 6384.34 328.448   1
  -5  -2   1 6354.50 214.650   1
  -5  -2   1 6287.47 266.241   2
  -5   2   1 5639.43 125.575   3
   4  -2  -1 213.509 80.4629   2
  -4  -2   1 188.390 36.1742   1
   4  -2  -1 184.736 53.1801   1
  -4  -2   1 174.762 39.3599   2
   4   2  -1 125.539 30.6601   3
  -4   2   1 122.317 20.2695   3
  -3  -2   1 424.078 53.3848   1
   3  -2  -1 434.942 74.6558   1
   3   2  -1 434.717 57.7052   1
   3   2  -1 428.791 61.4256   3
   3  -2  -1 451.522 110.106   2
  -3  -2   1 416.358 48.2590   2
  -3   2   1 385.326 39.5582   3
   2  -2  -1 128.245 40.9695   1
   2   2  -1 142.710 33.1820   1
  -2   2   1 136.936 26.4316   3
  -2  -2   1 194.686 39.7662   1
   2  -2  -1 165.382 30.9510   3
   2   2  -1 118.315 26.3267   3
   1  -2  -1 72.8867 22.4068   3
  -1   2   1 65.0845 18.9054   3
   1   2  -1 15.9448 15.1375   3
  -1  -2   1 49.1307 20.6357   1
   1  -2  -1 68.8938 22.8015   1
   0   2  -1-12.4603 15.8327   3
   0  -2   1 19.5200 14.1408   1
   0   2   1 4.49119 9.07159   3
   0  -2  -1 16.2185 15.5943   1
  -1   2  -1 1125.94 82.0021   3
   1  -2   1 1319.98 87.8692   3
   1   2   1 1181.82 79.8027   1
   1   2   1 1179.16 91.7942   3
   1  -2   1 1259.14 113.901   1
  -1  -2  -1 1189.16 85.3095   1
   2   2   1 191.130 39.6888   3
  -2   2  -1 185.867 30.2982   3
   2  -2   1 172.836 30.0082   3
   2   2   1 177.232 27.1715   1
   2  -2   1 129.147 39.7128   1
  -2  -2  -1 197.620 28.6444   1
   3  -2   1 2194.55 172.373   1
  -3   2  -1 2061.56 95.4427   3
   3  -2   1 2099.95 94.2853   3
   3   2   1 1995.46 132.895   3
   4  -2   1 370.154 35.0465   3
   4   2   1 368.179 61.8488   3
   4  -2   1 387.512 76.5935   1
  -4   2  -1 350.622 35.9832   3
   5   2   1 2827.48 172.572   3
   5  -2   1 2707.57 77.9432   3
   5  -2   1 3272.99 236.639   1
   6   2   1 70.3816 20.1716   2
   6  -2   1 95.8948 46.0301   1
  -6  -2  -1 78.5806 26.0147   2
   6   2   1 99.4286 34.1000   3
   7   2   1 3084.50 194.691   3
   7   2   1 2953.44 168.926   2
   7  -2   1 3501.33 269.084   1
  -7  -2  -1 2904.05 113.934   1
  -8  -2  -1 313.608 44.0290   1
   8   2   1 354.003 67.8747   3
   8   2   1 380.424 73.4807   2
   8  -2   1 280.354 79.0170   1
   9   2   1 1972.78 188.356   2
  -9  -2  -1 2087.86 126.545   1
   9   2   1 1758.15 161.339   3
   9  -2   1 1880.22 217.033   1
 -10  -2  -1 0.10549 3.50939   1
  10   2   1 30.4690 25.4758   3
  10   2   1 0.92438 12.1274   2
  10  -2   1 0.81579 7.45376   1
  10  -2   1-15.2333 34.8341   2
  11  -2   1 657.363 138.588   1
  11   2   1 740.897 137.062   2
  11  -2   1 646.353 195.327   2
  11   2   1 635.488 101.536   3
 -11  -2  -1 692.897 87.5088   1
 -12   2  -1 231.510 78.9807   1
 -12  -2  -1 204.921 52.8245   3
 -12  -2  -1 179.551 49.7381   1
  12  -2   1 180.292 78.4714   1
  12  -2   1 237.265 122.876   2
  12   2   1 176.710 73.5983   2
  12   2   1 195.044 61.0694   3
  13  -2   1 16.8140 17.4428   1
 -13  -2  -1 40.8385 28.2717   3
  13   2   1 73.9184 57.7464   2
 -13  -2  -1 74.5654 33.1366   1
 -13   2  -1 64.7159 45.6924   1
  13   2   1 45.7002 33.0843   3
  13  -2   1 35.2523 51.3562   2
 -14  -2  -1 158.731 48.6922   1
  14   2   1 110.965 54.1050   3
  14   2   1 99.3688 70.8843   2
 -14   2  -1 159.528 71.2972   1
 -14  -2  -1 45.8100 25.5506   3
 -15  -2  -1 38.2332 24.8034   1
  15   2   1-3.82933 47.0485   3
  15   2   1 45.3932 51.6849   2
 -15   2  -1-0.87330 12.5346   1
 -15  -2  -1 46.7178 29.6749   3
  16   2   1 175.551 100.912   2
 -16   2  -1 212.320 77.8147   1
 -16  -2  -1 304.387 76.1160   1
  16   2   1 145.170 42.1825   3
 -16  -2  -1 232.060 70.3334   3
 -17   2  -1 476.652 130.733   1
 -17  -2  -1 269.175 76.3190   1
  17   2   1 237.577 71.2557   3
  17   2   1 211.629 114.074   2
 -18  -2  -1 3.95442 10.1949   1
  18   2   1 41.6640 39.9818   3
 -18   2  -1 18.8236 46.1578   1
  18   2   1 55.8191 55.1958   2
 -19   2  -1 579.713 148.358   1
  19   2   1 803.124 221.466   2
  19   2   1 589.226 120.400   3
 -19  -2  -1 447.460 104.417   1
  20   2   1-26.4357 22.0516   3
 -20  -2  -1 12.6830 8.46749   1
 -20   2  -1-107.666 67.8872   1
 -21   2  -1-0.17444 48.6729   1
  21   2   1-16.3775 25.8855   3
 -21  -2  -1 12.2092 11.3799   1
 -22  -2  -1-8.03899 29.1846   1
 -22   2  -1 67.4942 48.7310   1
  22   2   1-8.69936 26.8854   3
 -23   2  -1 99.2175 81.8848   1
 -23  -2  -1 28.5319 24.6101   1
  23   2   1 45.4258 33.8287   3
 -24  -2  -1 268.154 92.2512   1
  24   2   1 183.567 74.8064   3
 -24   2  -1 204.288 105.192   1
  25   2   1 76.0307 54.7267   3
 -25   2  -1-37.5938 59.3216   1
 -26   2  -1 218.917 119.472   1
  26   2   1 142.320 68.2128   3
 -27   2  -1 42.2049 33.7211   1
 -28   2  -1 34.0441 82.3704   1
 -27   3   1-78.9881 73.3519   1
 -26   3   1 208.679 103.282   1
 -25   3   1-71.7998 66.7708   1
  25   3  -1 130.831 70.6839   3
  24   3  -1 192.545 83.4219   3
 -24   3   1 207.254 115.113   1
 -23   3   1-20.9185 30.2991   1
  23   3  -1 146.697 77.3593   3
 -22   3   1 70.3844 66.2299   1
  22   3  -1 153.628 74.9732   3
 -22  -3   1 187.855 76.2173   1
 -21  -3   1 570.797 122.290   1
  21   3  -1 575.900 133.904   3
 -21   3   1 532.662 166.827   1
 -20  -3   1 444.768 103.253   1
 -20   3   1 517.878 155.120   1
  20   3  -1 524.527 125.555   3
  19   3  -1 4.93632 36.6400   3
 -19  -3   1 78.4021 42.5723   1
  19   3  -1 130.517 65.6558   2
 -19   3   1 42.8282 67.1213   1
 -18  -3   1 17.1556 20.2436   1
 -18   3   1-14.9856 66.9779   1
  18   3  -1-19.6830 43.2937   3
  18   3  -1 8.21424 22.2756   2
 -17  -3   1 1.21563 13.1436   1
 -17   3   1 22.7350 15.8943   1
  17   3  -1-25.0059 22.3266   3
  17   3  -1 82.5752 50.1625   2
 -16  -3   1 2128.90 199.082   1
 -16   3   1 2274.91 300.557   1
  16   3  -1 2370.62 248.911   3
  16   3  -1 2205.13 247.441   2
  15   3  -1 459.896 108.754   2
 -15  -3   1 797.841 188.270   2
 -15   3   1 550.381 142.927   1
 -15  -3   1 594.620 98.9439   1
  15   3  -1 601.871 119.579   3
  14   3  -1-30.8160 41.6349   2
 -14  -3   1-7.18619 34.8432   2
 -14  -3   1-5.77744 5.87890   1
  14   3  -1 7.16792 18.5580   3
 -14   3   1 26.6848 20.9443   1
  13   3  -1-29.4881 39.2790   3
  13   3  -1 19.0845 27.2988   2
 -13  -3   1 20.4002 24.0486   1
 -13  -3   1 29.9728 50.8261   2
 -12  -3   1 105.887 33.8808   1
 -12  -3   1 82.3629 46.2483   3
 -12  -3   1 124.813 80.4069   2
  12   3  -1 107.187 43.3342   2
  12   3  -1 60.9988 31.0600   3
  11   3  -1 181.272 54.1595   2
  11  -3  -1 106.956 98.1560   2
  11   3  -1 88.6273 33.5261   3
 -11  -3   1 171.137 71.4028   2
 -11  -3   1 133.155 50.8476   3
  11  -3  -1 128.170 65.2373   1
 -10  -3   1 7.49627 13.7329   1
  10   3  -1 55.0082 41.0964   3
  10  -3  -1 37.7179 66.1534   2
 -10  -3   1 44.3439 47.9549   2
  10  -3  -1 26.0765 34.0981   1
  10   3  -1 25.1155 19.5465   2
   9   3  -1-15.6715 16.4091   2
  -9  -3   1-22.4015 42.0456   2
   9  -3  -1 37.7554 39.2407   1
  -9  -3   1 12.7508 11.8575   1
   9   3  -1-1.48917 14.1394   3
  -8  -3   1 110.189 54.3133   2
  -8  -3   1 105.007 30.5327   1
   8   3  -1 68.6625 23.4192   2
   8   3  -1 48.2261 16.5325   3
   8  -3  -1 97.8205 52.5349   1
  -8   3   1 82.9629 17.6167   3
   8  -3  -1 71.7380 53.6032   2
  -7  -3   1 11.3454 19.7048   2
   7  -3  -1-56.7406 53.9893   2
  -7  -3   1 2.60831 12.9780   1
  -7   3   1 16.3074 7.62648   3
   7  -3  -1-6.82749 7.92186   1
   7   3  -1 5.11414 23.9743   3
  -6  -3   1 3561.37 213.144   2
   6  -3  -1 3979.79 439.900   2
  -6   3   1 3550.01 135.196   3
   6  -3  -1 3628.44 288.073   1
   6   3  -1 3957.25 242.538   3
  -6  -3   1 3740.65 175.324   1
  -5   3   1 3910.47 152.461   3
   5  -3  -1 4611.64 441.180   2
   5  -3  -1 4387.07 304.048   1
   5   3  -1 4051.37 238.507   3
  -5  -3   1 4142.99 198.835   2
  -5  -3   1 4007.66 183.162   1
   4  -3  -1 22.2601 39.0159   2
   4   3  -1-9.01452 21.6325   3
  -4  -3   1 28.2989 15.6357   1
  -4   3   1 31.3847 14.4594   3
   4   3  -1 22.1250 15.2518   1
   4  -3  -1-2.34244 16.6249   1
  -4  -3   1 13.2072 7.49949   2
  -3   3   1 2710.69 204.731   1
   3   3  -1 2784.76 186.390   3
   3  -3  -1 2828.35 222.403   1
  -3  -3   1 2807.70 162.248   1
  -3  -3   1 2969.37 141.079   2
   3  -3  -1 2905.35 150.161   3
   3   3  -1 2697.58 172.101   1
  -3   3   1 2709.79 142.803   3
  -2   3   1 630.147 72.2704   3
   2  -3  -1 629.433 72.4046   3
  -2   3   1 592.171 89.8640   1
   2   3  -1 610.925 86.0020   3
   2   3  -1 621.292 83.8695   1
  -2  -3   1 634.800 86.9525   3
  -2  -3   1 639.787 81.5129   1
   2  -3  -1 643.075 99.3169   1
   1   3  -1 163.502 39.8133   3
   1   3  -1 81.5350 31.6873   1
   1  -3  -1 106.449 38.7195   1
  -1   3   1 88.3366 34.0993   1
  -1   3   1 96.3264 29.7027   3
   1  -3  -1 120.077 32.7192   3
  -1  -3   1 141.839 38.3617   3
  -1  -3   1 117.421 37.6252   1
   0   3  -1 9.10384 11.9779   3
   0   3  -1 20.3497 16.7837   1
   0  -3  -1 29.4503 22.3528   3
   0  -3   1 17.8413 9.10408   1
   0  -3   1 8.07017 7.01611   3
   0   3   1-1.94788 16.8322   3
   0  -3  -1 9.53786 9.87520   1
   0   3   1 20.9900 18.3600   1
   1  -3   1 283.301 50.7216   3
   1   3   1 371.211 63.7389   3
   1  -3   1 397.246 75.3944   1
  -1   3  -1 335.991 54.1476   3
   1   3   1 307.248 52.0852   1
  -1  -3  -1 363.225 61.5841   3
  -1   3  -1 281.101 61.5473   1
  -1  -3  -1 330.329 58.5387   1
  -2  -3  -1 1065.98 95.1554   1
   2   3   1 1090.19 93.5418   1
   2  -3   1 1092.42 133.476   1
   2  -3   1 1068.70 93.2309   3
  -2   3  -1 1050.75 95.1296   3
   2   3   1 1019.68 107.812   3
  -2   3  -1 969.323 119.815   1
  -3  -3  -1-0.86591 5.56174   1
   3   3   1-8.74748 14.7843   3
   3  -3   1-9.70385 16.2052   1
  -3   3  -1 2.82335 7.76845   3
   3   3   1 7.12631 8.98840   1
   3  -3   1-1.14843 5.08725   3
   4   3   1 85.9875 21.7558   1
   4  -3   1 58.0065 19.0678   3
  -4   3  -1 50.2696 19.4820   3
   4   3   1 108.630 39.3800   3
  -4  -3  -1 49.0073 15.2794   2
   4  -3   1 76.4886 38.5350   1
  -4  -3  -1 61.7280 17.5985   1
   5   3   1 13.1277 14.5506   3
   5  -3   1 8.73078 14.1475   1
  -5   3  -1 6.73863 12.2515   3
   5  -3   1 15.8435 7.93403   3
   6   3   1 42.4746 17.3190   3
  -6   3  -1 70.2102 21.2975   3
   6  -3   1 94.2655 22.7481   3
   6  -3   1 77.1902 49.5441   1
   7  -3   1 58.7902 46.1714   1
   7   3   1 3.19382 18.3839   3
  -7  -3  -1 16.4839 10.8074   2
  -8  -3  -1 1681.15 141.762   2
   8   3   1 1584.43 78.6328   2
   8   3   1 1826.17 175.376   3
   8  -3   1 1906.96 231.261   1
   9   3   1 907.289 73.0820   2
   9   3   1 969.745 131.114   3
   9  -3   1 958.710 167.934   1
  10  -3   1 84.4101 64.7840   1
  10   3   1 16.6520 17.7982   2
  10   3   1 14.6065 29.7623   3
  10  -3   1 42.6705 61.7061   2
 -10  -3  -1 1.56599 3.77993   1
  11   3   1 543.971 104.974   3
  11   3   1 454.821 74.3084   2
 -11  -3  -1 489.010 94.1441   3
 -11  -3  -1 455.408 53.3728   1
  11  -3   1 499.349 130.809   1
  11  -3   1 880.129 267.615   2
  12   3   1 820.460 128.672   3
 -12  -3  -1 672.477 72.7846   1
 -12   3  -1 687.185 142.028   1
 -12  -3  -1 615.410 109.503   3
  12   3   1 622.948 95.7717   2
  13   3   1 362.186 89.4351   3
 -13  -3  -1 338.436 56.8153   1
  13   3   1 376.976 83.3473   2
 -13   3  -1 391.896 114.946   1
 -14  -3  -1 109.757 34.0865   1
  14   3   1 75.8301 35.1215   2
  14   3   1 121.562 51.1980   3
 -14   3  -1 117.594 61.2241   1
  15   3   1-16.5186 31.5385   2
 -15   3  -1 37.4570 43.5332   1
 -15  -3  -1 15.3352 16.2510   1
  15   3   1-42.4322 35.5751   3
 -16  -3  -1 80.2675 30.6346   1
  16   3   1 102.311 49.8577   2
 -16   3  -1 137.050 75.4737   1
  16   3   1 95.5860 41.8925   3
  17   3   1 2270.17 263.476   2
 -17   3  -1 2308.98 307.059   1
  17   3   1 2315.40 248.971   3
 -17  -3  -1 2412.93 191.805   1
  18   3   1 275.874 89.3373   3
 -18  -3  -1 249.274 65.8278   1
  18   3   1 109.249 34.1166   2
 -18   3  -1 249.173 102.695   1
 -19  -3  -1 834.740 122.873   1
 -19   3  -1 1044.61 216.783   1
  19   3   1 662.960 141.105   3
  19   3   1 614.768 146.591   2
 -20  -3  -1-8.76137 16.0466   1
  20   3   1-24.5326 17.3678   3
 -20   3  -1 16.7988 30.1777   1
  21   3   1 177.668 80.7974   3
 -21  -3  -1 122.524 50.9256   1
 -21   3  -1 142.570 87.4338   1
 -22   3  -1 45.8572 63.9452   1
  22   3   1 129.042 66.7073   3
  23   3   1 43.0631 34.5144   3
 -23   3  -1 70.5553 48.9436   1
  24   3   1 27.2600 20.2672   3
 -24   3  -1 33.7299 45.5759   1
  25   3   1 214.121 82.0955   3
 -25   3  -1 263.536 123.311   1
  26   3   1 177.468 84.4389   3
 -26   3  -1-14.8462 51.0860   1
 -27   3  -1 44.0923 87.5612   1
  27   3   1 33.6022 38.4560   3
  26   4  -1 14.5091 23.7133   3
 -25   4   1-25.8433 44.1217   1
  25   4  -1 450.939 139.236   3
 -24   4   1 74.3211 70.2511   1
  24   4  -1 119.184 53.7867   3
  23   4  -1 70.1130 62.8292   3
 -23   4   1 31.4688 45.2068   1
 -22   4   1-64.6663 61.3479   1
  22   4  -1 12.0577 44.8798   3
  21   4  -1 116.762 55.1774   3
 -21   4   1 53.4728 54.6509   1
 -20   4   1-42.0012 47.8132   1
  20   4  -1 72.2781 42.3970   3
 -19   4   1-18.1929 35.7318   1
  19   4  -1 11.2936 29.6854   3
 -18  -4   1 0.40395 5.19062   1
  18   4  -1-1.26846 13.3031   3
 -18   4   1 57.8397 63.6289   1
 -17  -4   1 14.4733 17.5806   1
 -17   4   1 43.9764 45.1424   1
  17   4  -1-5.94282 43.1602   3
  17   4  -1 16.6985 18.6312   2
 -16  -4   1 44.3945 24.7310   1
  16   4  -1 38.5644 29.0044   2
 -16   4   1 78.7246 54.3611   1
 -16  -4   1 58.2467 24.4652   1
  16   4  -1 67.7236 47.1116   3
 -15   4   1 611.974 160.005   1
 -15  -4   1 574.943 84.8853   1
 -15  -4   1 641.503 88.2693   1
  15   4  -1 469.782 115.489   3
  15   4  -1 664.979 96.3200   2
 -14  -4   1 7.88546 15.9393   1
 -14   4   1 2.26117 21.8653   1
  14   4  -1 44.0599 23.2321   2
 -14  -4   1 71.2667 52.0332   2
  14   4  -1 4.96565 31.5184   3
 -14  -4   1 27.8885 18.1080   1
 -13  -4   1 130.198 57.3224   2
 -13  -4   1 163.960 40.2458   1
 -13   4   1 182.989 81.7061   1
  13   4  -1 101.413 45.3192   3
  13   4  -1 186.132 48.3208   2
 -13  -4   1 147.026 38.4771   1
 -12  -4   1-0.75755 10.4036   1
  12   4  -1-47.6885 47.7576   3
  12   4  -1-2.39941 9.37734   2
 -12   4   1 4.84600 32.0027   1
 -12  -4   1-31.2477 33.5391   2
 -11   4   1 76.2101 47.4823   1
 -11  -4   1 111.213 30.8553   1
 -11  -4   1 140.026 64.8720   2
  11   4  -1 58.3711 23.1486   3
 -10  -4   1 107.167 61.8418   2
 -10   4   1 69.8681 16.5787   3
  10   4  -1 91.8271 37.1685   3
 -10   4   1 90.9829 50.7206   1
 -10  -4   1 59.9271 22.0838   1
  -9  -4   1 898.047 90.0192   1
  -9   4   1 529.710 52.3896   3
   9  -4  -1 532.113 180.872   2
   9   4  -1 456.210 101.224   3
  -9  -4   1 591.703 119.047   2
   9  -4  -1 555.798 137.436   1
  -9   4   1 590.367 131.328   1
   8   4  -1 276.314 73.2696   3
  -8  -4   1 332.411 52.7206   1
  -8   4   1 327.983 45.3520   3
   8  -4  -1 352.447 155.067   2
  -8   4   1 444.753 109.086   1
  -8  -4   1 429.303 91.1922   2
   8  -4  -1 436.771 118.824   1
  -7   4   1 469.579 109.116   1
   7   4  -1 443.324 93.6319   3
   7  -4  -1 504.570 174.539   2
  -7  -4   1 443.497 80.7765   2
   7  -4  -1 481.859 121.473   1
  -7   4   1 483.558 60.2330   3
  -7  -4   1 476.955 65.4339   1
   6   4  -1 29.9841 23.0583   3
  -6  -4   1 58.9393 25.7532   1
   6  -4  -1 41.6641 35.9921   1
  -6  -4   1 49.0933 28.7986   2
   6  -4  -1 18.4069 41.8680   2
  -6   4   1 54.0884 21.0059   3
   5   4  -1 264.062 58.2870   1
   5  -4  -1 337.322 138.079   2
   5   4  -1 237.253 61.2120   3
  -5   4   1 251.899 48.2898   3
   5  -4  -1 282.883 86.7882   1
  -5  -4   1 254.441 52.2315   1
  -5  -4   1 236.279 52.1069   2
   4   4  -1 678.421 96.1345   1
   4  -4  -1 740.378 88.9456   3
   4  -4  -1 630.607 123.695   1
   4   4  -1 589.993 98.7622   3
  -4  -4   1 697.255 78.2261   2
  -4  -4   1 716.586 110.328   3
   4  -4  -1 853.314 200.256   2
  -4  -4   1 652.281 87.8799   1
  -4   4   1 655.016 81.8058   3
  -3   4   1 242.543 67.0650   1
   3  -4  -1 283.519 79.6587   1
  -3   4   1 341.064 59.7188   3
   3  -4  -1 411.596 131.196   2
  -3  -4   1 324.370 72.4311   3
   3   4  -1 267.406 66.0322   3
  -3  -4   1 304.938 63.6136   1
   3   4  -1 260.545 63.5394   1
   3  -4  -1 341.282 61.7404   3
   2   4  -1 630.588 96.6756   3
  -2   4   1 671.143 88.4975   3
  -2  -4   1 694.391 100.720   3
  -2  -4   1 656.190 97.9513   1
  -2   4   1 629.943 105.814   1
   2  -4  -1 625.125 86.8636   3
   2   4  -1 638.764 98.2485   1
   2  -4  -1 792.290 127.662   1
   1   4  -1 413.560 76.0953   3
   1   4  -1 488.397 89.0229   1
  -1  -4   1 486.016 80.0094   3
   1  -4  -1 517.148 97.0104   1
  -1   4   1 396.662 71.2736   3
   1  -4  -1 569.791 83.9486   3
  -1  -4   1 518.178 91.5623   1
  -1   4   1 458.279 84.7830   1
   0   4   1 2506.37 191.032   1
   0  -4   1 2379.16 174.929   3
   0  -4  -1 2537.31 204.478   1
   0   4  -1 2378.52 202.742   1
   0   4  -1 2390.76 178.950   3
   0  -4  -1 2530.35 186.145   3
   0  -4   1 2660.29 218.808   1
   0   4   1 2356.82 178.853   3
  -1  -4  -1 1714.40 158.425   1
  -1  -4  -1 1817.93 160.523   3
  -1   4  -1 1501.84 165.940   1
   1   4   1 1635.29 147.858   1
  -1   4  -1 1628.33 142.748   3
   1  -4   1 1695.16 182.454   1
   1   4   1 1520.63 148.104   3
   1  -4   1 1536.93 135.188   3
  -2   4  -1 2725.86 230.069   1
  -2  -4  -1 3102.04 198.774   1
   2   4   1 2910.64 187.710   1
   2  -4   1 3337.68 267.437   1
   2  -4   1 2958.38 178.478   3
  -2  -4  -1 2879.30 206.870   3
  -2   4  -1 3095.76 191.380   3
   2   4   1 2923.75 210.190   3
   3  -4   1 494.434 106.280   1
  -3  -4  -1 482.809 87.5650   3
  -3  -4  -1 500.426 73.6615   1
  -3   4  -1 502.178 75.9642   3
   3   4   1 497.801 73.2714   1
   3   4   1 520.699 90.2386   3
   3  -4   1 498.461 71.4459   3
   4   4   1 323.035 75.0715   3
  -4   4  -1 284.300 53.5198   3
  -4  -4  -1 293.698 51.1967   1
   4  -4   1 329.970 89.3822   1
   4  -4   1 378.452 59.8585   3
  -4  -4  -1 297.547 67.6739   3
  -4  -4  -1 334.089 42.4064   2
   4   4   1 310.131 53.8280   1
  -5  -4  -1 0.71734 6.35849   1
  -5  -4  -1 11.2235 12.8895   2
   5  -4   1 16.5559 17.2597   1
   5  -4   1 0.85405 9.96861   3
   5   4   1 19.3221 17.3843   3
   5   4   1 13.0448 13.9917   1
  -5   4  -1-2.75065 17.9124   3
   6  -4   1 331.533 50.2299   3
  -6  -4  -1 328.963 39.5110   1
  -6   4  -1 320.305 88.4789   1
   6  -4   1 403.476 108.993   1
  -6  -4  -1 285.500 44.9147   2
  -6   4  -1 356.667 57.0501   3
   6   4   1 331.123 80.4443   3
   7   4   1-19.4874 27.6332   3
   7  -4   1-62.6472 43.8187   1
  -7   4  -1 40.1884 22.5492   3
  -7   4  -1 16.8261 21.2315   1
   7  -4   1 31.1625 16.5974   3
   8   4   1 182.464 63.2948   3
  -8   4  -1 216.232 78.9058   1
   8  -4   1 210.847 83.7583   1
   9   4   1 261.580 78.8351   3
  -9   4  -1 289.979 96.0242   1
  10   4   1 6.72565 31.0353   3
 -10   4  -1 56.7420 47.7392   1
  11   4   1 60.4636 19.4379   3
 -11   4  -1 132.038 66.5484   1
  12   4   1 876.573 146.068   3
 -12   4  -1 983.124 185.798   1
 -13   4  -1 325.346 110.221   1
  13   4   1 249.300 40.5070   2
  13   4   1 241.820 72.7229   3
 -14   4  -1 47.9216 39.3541   1
  14   4   1 68.2667 44.6189   3
  14   4   1 62.9093 21.2878   2
  15   4   1 74.7717 28.3873   2
  15   4   1 67.7725 40.3879   3
 -15   4  -1 127.478 66.6795   1
  16   4   1 36.2930 33.6605   3
 -16  -4  -1 27.8455 11.8195   1
 -16   4  -1 4.45030 17.5903   1
 -16  -4  -1 9.41808 7.43345   1
  17   4   1 396.359 79.9528   2
  17   4   1 423.151 116.842   3
 -17   4  -1 259.551 113.019   1
  18   4   1 207.462 88.8561   3
 -18   4  -1 187.263 87.8842   1
 -19   4  -1 39.6446 31.9926   1
  19   4   1-6.44916 56.6236   3
  20   4   1 91.2732 57.8898   3
 -20   4  -1 0.80180 12.5367   1
 -21   4  -1-46.5784 51.4133   1
  21   4   1-31.1893 42.3708   3
 -22   4  -1 63.7374 67.5743   1
  22   4   1 25.4960 28.2579   3
 -23   4  -1 11.7743 32.3176   1
  23   4   1 17.8572 37.6213   3
 -24   4  -1 88.9387 67.2131   1
  24   4   1 66.6732 62.4115   3
 -25   4  -1-17.4978 44.0212   1
  25   4   1-8.96953 18.7007   3
  26   4   1-116.605 73.0837   3
  27   4   1 61.0370 55.6927   3
  24   5  -1 83.6696 63.7706   3
  23   5  -1 110.539 83.6150   3
 -23   5   1 31.6453 78.8499   1
  22   5  -1-146.293 80.5352   3
 -22   5   1-91.4927 75.3145   1
  21   5  -1 159.886 81.1627   3
 -21   5   1-45.0804 52.6486   1
  20   5  -1 8.72264 38.8458   3
 -20   5   1-34.0983 44.4542   1
  19   5  -1 95.1784 70.4338   3
 -19   5   1 177.015 98.0676   1
  18   5  -1 151.882 78.0887   3
 -18   5   1 226.860 106.244   1
  17   5  -1-13.0111 34.0600   3
 -17   5   1 8.25959 23.3082   1
 -16   5   1-1.28673 58.0168   1
  16   5  -1 6.43820 46.7035   3
 -15   5   1 113.272 71.1933   1
  15   5  -1-30.3602 36.3983   3
  14   5  -1-19.2328 28.7402   3
 -14   5   1 1.32928 36.3020   1
 -13   5   1 32.8375 37.3188   1
  13   5  -1-10.7391 26.8262   3
 -13  -5   1 37.6603 14.5647   2
  12   5  -1 825.515 155.820   3
 -12  -5   1 964.212 148.265   2
 -12  -5   1 700.815 53.9966   1
 -12   5   1 1012.59 199.874   1
 -11  -5   1 727.035 128.549   2
 -11  -5   1 529.486 54.0605   1
 -11   5   1 594.097 148.574   1
  11   5  -1 505.380 118.299   3
 -10  -5   1 51.4217 19.2760   1
 -10  -5   1 24.7635 27.5137   2
  10   5  -1 41.0137 30.3574   3
 -10   5   1 50.0278 25.3324   3
 -10   5   1 64.1145 44.9115   1
  -9   5   1 145.965 32.6458   3
   9   5  -1 177.444 60.7739   3
  -9  -5   1 197.006 64.1484   2
  -9  -5   1 194.205 39.5677   1
  -9   5   1 267.737 92.2571   1
  -8  -5   1 126.125 47.6432   2
   8   5  -1-21.5353 45.6067   3
  -8   5   1 31.4426 31.6149   1
  -8  -5   1 41.9790 21.7850   1
  -8   5   1 23.9568 7.99147   3
  -7  -5   1 11.4031 16.8196   2
  -7  -5   1 15.0142 13.1813   1
  -7   5   1-27.0958 27.2263   3
   7  -5  -1-51.4712 106.300   2
  -7   5   1-15.9904 10.3014   1
   7   5  -1-33.8221 45.5035   3
  -6   5   1 96.9180 45.6058   1
  -6  -5   1 131.132 45.1377   2
  -6  -5   1 153.359 42.4492   1
   6  -5  -1 70.8354 30.8851   2
  -6   5   1 68.4264 24.3834   3
   6   5  -1 119.700 52.9058   3
   6  -5  -1 75.2129 42.4480   1
   5   5  -1 0.49527 22.5706   3
  -5   5   1 18.0165 13.5254   3
   5  -5  -1-4.53011 16.0214   1
   5  -5  -1 43.6310 52.7519   2
  -5   5   1 12.2813 28.6304   1
  -5  -5   1 12.3062 17.2267   2
   5   5  -1-10.1301 13.7647   1
  -5  -5   1 15.6912 10.3908   1
  -4  -5   1 469.778 93.6902   3
  -4   5   1 540.126 86.4701   3
  -4  -5   1 495.931 72.7395   2
   4   5  -1 490.962 99.7777   3
   4  -5  -1 506.329 122.837   1
   4   5  -1 429.970 88.0874   1
   4  -5  -1 391.498 143.119   2
  -4   5   1 522.437 114.119   1
  -4  -5   1 521.829 91.6012   1
   4  -5  -1 588.423 94.1887   3
  -3  -5   1 708.366 111.719   1
   3   5  -1 532.633 98.2076   1
   3  -5  -1 668.732 190.393   2
   3  -5  -1 689.756 103.085   3
  -3   5   1 563.121 90.4421   3
   3   5  -1 578.459 107.886   3
  -3  -5   1 626.949 107.219   3
   3  -5  -1 596.101 132.401   1
  -2  -5   1 61.6489 28.8893   1
  -2  -5   1 24.9440 24.9111   3
   2  -5  -1 42.2607 19.6618   3
   2   5  -1 46.2144 31.2246   1
   2  -5  -1 16.7673 22.3897   1
   2  -5  -1 18.7255 31.7800   2
  -2   5   1 17.6405 16.3717   3
   2   5  -1 11.1890 26.0189   3
   1   5  -1-14.7262 27.6601   3
   1  -5  -1 25.7096 15.1698   3
   1   5  -1 71.0076 41.9568   1
  -1  -5   1-23.8634 23.1766   3
  -1   5   1 0.73535 23.3328   3
  -1  -5   1 15.5429 22.4075   1
   1  -5  -1 10.9411 20.1270   1
   1  -5  -1-64.6557 53.4975   2
   0  -5  -1 262.238 73.8316   1
   0   5  -1 157.551 46.2583   3
   0  -5   1 217.753 56.7589   3
   0   5   1 177.910 59.0984   1
   0  -5  -1 150.710 68.8213   2
   0  -5   1 230.658 72.3065   1
   0   5   1 238.666 64.4076   3
   0  -5  -1 177.150 56.6068   3
   1   5   1 18.3259 24.1400   1
   1  -5   1 9.28790 13.2441   1
  -1   5  -1 25.6322 14.7625   3
   1   5   1 8.82020 17.5252   3
   1  -5   1 3.79578 19.7855   3
  -1  -5  -1 41.6606 33.6466   1
  -1  -5  -1 76.0820 42.5090   3
  -2  -5  -1 152.319 51.3919   3
  -2   5  -1 121.991 39.1638   3
  -2  -5  -1 131.989 46.5150   1
   2  -5   1 127.073 54.3641   1
   2  -5   1 89.7119 33.6707   3
   2   5   1 112.283 45.4160   3
   2   5   1 153.461 49.5163   1
  -3  -5  -1 607.761 110.214   3
   3  -5   1 584.224 91.3005   3
   3   5   1 505.384 100.191   3
  -3   5  -1 476.950 83.4408   3
   3   5   1 539.847 88.5406   1
   3  -5   1 527.710 125.106   1
  -3   5  -1 471.587 109.636   1
  -3  -5  -1 699.248 102.337   1
   4   5   1 380.364 70.1934   1
   4   5   1 400.993 94.8628   3
   4  -5   1 383.117 74.7503   3
  -4  -5  -1 463.169 76.5717   1
  -4   5  -1 368.003 100.037   1
  -4  -5  -1 381.440 51.6302   2
  -4   5  -1 376.190 72.2985   3
   4  -5   1 479.723 119.633   1
   5  -5   1 1009.72 113.064   3
   5   5   1 1031.73 150.237   3
   5  -5   1 985.640 180.874   1
   5   5   1 1096.09 113.289   1
  -5  -5  -1 941.965 99.1391   1
  -5   5  -1 1040.87 171.293   1
  -5  -5  -1 988.258 85.5523   2
  -5   5  -1 1058.97 117.472   3
   6  -5   1 17.5598 30.6200   1
  -6   5  -1 59.8498 45.7077   1
   6   5   1 69.2161 41.6726   3
  -6  -5  -1 35.6000 17.1242   1
  -6   5  -1 32.9074 21.1725   3
   6  -5   1 18.2162 20.9312   3
  -6  -5  -1 14.9450 7.98620   2
  -6  -5  -1 7.27655 6.35824   2
  -7   5  -1 1294.20 118.440   3
  -7   5  -1 1322.49 202.318   1
   7  -5   1 1413.04 124.421   3
   7   5   1 1193.29 168.838   3
   8   5   1 981.280 155.162   3
  -8   5  -1 914.779 171.373   1
  -9   5  -1-34.7574 34.6727   1
   9   5   1-5.13677 23.1941   3
 -10   5  -1 13.5096 21.6394   1
  10   5   1-18.2155 24.5914   3
  11   5   1 324.895 93.3185   3
 -11   5  -1 373.541 115.146   1
  12   5   1-23.3732 47.3593   3
 -12   5  -1-4.52600 41.9887   1
 -13   5  -1 51.7956 46.4337   1
  13   5   1-9.81948 24.5826   3
 -14   5  -1-10.6414 10.6100   1
  14   5   1-42.3153 47.5879   3
  15   5   1 490.792 132.287   3
 -15   5  -1 529.635 149.340   1
  16   5   1 347.314 130.207   3
 -16   5  -1 187.332 100.123   1
 -17   5  -1 45.3404 47.6896   1
  17   5   1-4.56644 16.9515   3
  18   5   1-19.5773 46.5350   3
 -18   5  -1-1.00760 35.0652   1
 -19   5  -1 32.1219 43.1269   1
  19   5   1 12.7122 37.6295   3
  20   5   1 116.701 64.5765   3
 -20   5  -1 72.9368 64.7712   1
 -21   5  -1 48.4133 54.1921   1
  21   5   1 7.38787 22.0176   3
 -22   5  -1 33.9204 59.7073   1
  22   5   1 87.8990 49.5419   3
  23   5   1 13.0020 28.3385   3
 -23   5  -1 147.414 98.1581   1
  24   5   1 93.9806 67.1752   3
  21   6  -1-28.3849 39.4020   3
 -20   6   1 173.835 114.761   1
  20   6  -1 283.315 117.339   3
  19   6  -1 150.149 84.8576   3
 -19   6   1-35.2836 46.9289   1
  18   6  -1 117.974 71.5965   3
 -18   6   1 73.1764 65.2505   1
  17   6  -1 337.360 122.293   3
 -17   6   1 371.026 140.605   1
  16   6  -1 8.01279 50.4945   3
 -16   6   1-50.7672 52.3005   1
  15   6  -1 273.052 100.371   3
 -15   6   1 285.148 122.959   1
 -14   6   1 157.991 81.1407   1
  14   6  -1 294.727 110.703   3
 -13   6   1-8.82599 22.6854   1
  13   6  -1-20.8387 33.7345   3
 -12   6   1 182.923 90.1889   1
  12   6  -1 69.5925 45.9022   3
  11   6  -1 2.78920 14.9967   3
 -11   6   1 34.5376 10.2235   1
 -10  -6   1 479.274 52.2344   1
  10   6  -1 734.102 154.777   3
 -10  -6   1 533.419 96.4944   2
 -10   6   1 818.294 178.515   1
 -10   6   1 574.701 77.6822   3
  -9  -6   1 120.288 51.6027   2
   9   6  -1 79.5241 44.7158   3
  -9   6   1 94.4027 59.2144   1
  -9   6   1 170.134 43.8374   3
  -9  -6   1 123.213 32.2588   1
  -8   6   1 0.51390 13.8877   3
   8   6  -1-11.4706 40.0510   3
  -8  -6   1-33.5980 30.3461   2
  -8  -6   1-3.76458 7.03329   1
  -8   6   1 5.77895 38.0686   1
  -7  -6   1 780.881 105.504   1
  -7   6   1 790.754 164.313   1
  -7  -6   1 721.271 107.194   2
   7   6  -1 734.261 144.643   3
  -7   6   1 741.246 103.679   3
  -6  -6   1 1342.25 141.295   2
  -6  -6   1 1475.16 155.495   1
  -6   6   1 1219.81 202.356   1
   6   6  -1 1259.70 188.334   3
  -6   6   1 1278.50 142.802   3
   5  -6  -1 28.7959 48.6543   2
  -5  -6   1 95.5517 43.1275   1
   5   6  -1 50.6953 33.8415   3
   5   6  -1 122.451 53.4923   1
  -5   6   1 104.970 34.7601   3
  -5   6   1 77.5289 49.2629   1
  -5  -6   1 81.6595 33.3902   2
  -4  -6   1 33.4453 26.3022   1
   4  -6  -1-74.7322 104.128   2
  -4  -6   1 7.47795 22.1549   2
   4   6  -1-13.0374 17.4518   1
  -4   6   1-35.0211 34.6097   3
  -4   6   1 63.8764 43.5387   1
   4   6  -1-5.18953 35.9374   3
  -3   6   1 660.667 108.485   3
  -3  -6   1 539.443 110.139   1
  -3   6   1 636.160 134.989   1
   3  -6  -1 679.421 114.970   3
   3   6  -1 541.017 116.036   3
   3  -6  -1 512.199 129.674   1
   3  -6  -1 600.556 190.041   2
  -2  -6   1 176.250 66.4788   1
   2  -6  -1 143.094 72.6052   2
   2  -6  -1 246.751 88.5835   1
  -2   6   1 142.424 50.2417   3
  -2   6   1 174.938 71.1943   1
   2   6  -1 143.311 59.3674   3
   2  -6  -1 232.980 71.1987   3
   1  -6  -1 133.596 61.1953   1
  -1   6   1 167.493 62.6014   1
   1   6  -1 144.722 60.9198   3
  -1  -6   1 164.290 66.6313   1
   1  -6  -1-9.27915 24.2792   2
   1  -6  -1 221.669 69.4458   3
  -1   6   1 82.4897 43.2483   3
   0   6  -1 695.520 122.799   3
   0   6  -1 744.142 140.622   1
   0  -6   1 711.985 140.658   1
   0   6   1 676.791 121.419   3
   0  -6  -1 728.069 135.795   1
   0  -6  -1 592.687 167.072   2
   1  -6   1 749.054 125.498   3
   1  -6   1 729.652 149.878   1
  -1  -6  -1 798.072 136.356   1
  -1   6  -1 772.988 125.200   3
   1   6   1 766.130 129.790   3
  -1   6  -1 711.032 139.210   1
  -1  -6  -1 728.662 172.832   2
   2  -6   1-29.1752 31.1389   1
   2   6   1 13.2055 20.7421   1
  -2   6  -1-24.4325 40.2935   3
  -2  -6  -1-69.7543 38.3965   1
   2  -6   1 5.60275 9.98980   3
  -2  -6  -1-26.8438 49.6353   2
  -2   6  -1-11.0019 29.4077   1
   2   6   1 39.1206 29.1160   3
   3   6   1 548.852 100.866   1
  -3   6  -1 408.599 87.6028   3
  -3   6  -1 455.367 117.912   1
  -3  -6  -1 534.984 132.516   2
   3  -6   1 464.434 128.831   1
  -3  -6  -1 524.926 101.732   1
   3  -6   1 484.030 96.0997   3
   3   6   1 621.438 119.864   3
  -4   6  -1 251.012 66.0856   3
   4   6   1 313.400 85.1530   3
   4   6   1 280.787 69.7721   1
  -4  -6  -1 363.801 78.9811   1
   4  -6   1 357.589 79.0529   3
  -4   6  -1 339.062 105.198   1
  -4  -6  -1 346.096 95.1751   2
  -4  -6  -1 337.321 55.9003   2
  -5   6  -1 557.757 96.4763   3
   5  -6   1 666.519 105.818   3
   5   6   1 619.890 128.579   3
  -5  -6  -1 734.893 123.504   2
  -5   6  -1 566.763 139.761   1
   5   6   1 635.202 98.4411   1
  -5  -6  -1 621.495 75.0208   2
   6  -6   1 44.7870 31.2108   3
  -6  -6  -1-10.3922 10.3942   2
  -6  -6  -1-14.9072 9.45157   2
  -6   6  -1-6.84682 13.9488   3
  -6   6  -1 6.10871 35.0668   1
   6   6   1 14.7272 17.2240   3
  -7   6  -1 1.79745 31.2482   1
  -7   6  -1 66.8089 31.6085   3
   7   6   1 20.5021 19.7484   3
   8   6   1-48.7962 59.5972   3
  -8   6  -1 11.5442 32.7822   1
   9   6   1 351.158 98.6812   3
  -9   6  -1 353.093 120.797   1
 -10   6  -1 34.5678 45.9790   1
  10   6   1-7.39820 27.1452   3
 -11   6  -1 126.489 73.2433   1
  11   6   1 128.563 61.2189   3
 -12   6  -1 51.3561 48.2597   1
  12   6   1-117.007 63.1398   3
  13   6   1 73.6466 52.0551   3
 -13   6  -1 93.5598 69.0789   1
 -14   6  -1 49.7545 49.5081   1
  14   6   1 113.669 77.8560   3
  15   6   1-85.7169 57.7040   3
 -15   6  -1 19.8528 33.4717   1
  16   6   1 80.1019 54.8881   3
 -16   6  -1 39.2513 54.0172   1
  17   6   1 105.419 71.0401   3
 -17   6  -1 147.382 90.3287   1
 -18   6  -1 65.9395 62.5842   1
  18   6   1 66.5735 57.6827   3
  19   6   1 403.013 132.443   3
 -19   6  -1 142.998 81.6666   1
 -20   6  -1 33.0716 46.6386   1
  20   6   1-63.1090 55.3032   3
  21   6   1-79.3456 62.8181   3
 -18   7   1 81.5881 72.1768   1
 -17   7   1 377.926 158.661   1
  17   7  -1 271.219 101.698   3
  16   7  -1 93.7964 40.9478   3
 -16   7   1 158.130 104.609   1
 -15   7   1 225.360 106.499   1
  15   7  -1 112.555 61.2194   3
  14   7  -1 198.829 101.142   3
 -14   7   1 88.1536 85.1102   1
  13   7  -1 183.951 81.5518   3
 -13   7   1 123.255 90.9424   1
 -12   7   1 4.73694 30.7726   1
  12   7  -1 43.5442 48.7932   3
  11   7  -1-3.81965 19.7949   3
 -11   7   1-32.1063 39.5544   1
 -10   7   1 43.9216 45.0457   1
  10   7  -1-71.4466 52.0263   3
  -9   7   1 21.7104 30.3211   3
  -9   7   1 68.7749 55.0404   1
   9   7  -1 22.9830 43.2182   3
   8   7  -1 499.053 132.998   3
  -8   7   1 537.487 154.521   1
  -8   7   1 506.177 94.7603   3
   7   7  -1 962.991 181.423   3
  -7   7   1 965.794 197.584   1
  -7   7   1 1074.88 142.726   3
   6   7  -1 198.826 79.3095   3
  -6   7   1 215.486 66.8680   3
  -6  -7   1 225.832 63.1561   2
  -6   7   1 293.585 103.491   1
  -5   7   1 807.571 128.856   3
  -5   7   1 853.343 176.319   1
   5   7  -1 861.879 165.688   3
  -5  -7   1 747.216 109.876   2
  -4   7   1 235.488 94.1259   1
  -4   7   1 229.058 69.3421   3
   4   7  -1 288.010 90.8433   3
  -4  -7   1 206.407 58.6066   2
   3   7  -1 121.333 59.0199   3
  -3   7   1 46.6153 39.5325   1
  -3  -7   1 101.208 51.7677   1
  -3   7   1 91.6135 40.7160   3
  -3  -7   1 83.0991 39.2370   2
  -2  -7   1 44.0353 35.1310   1
   2   7  -1 31.6091 38.6948   3
  -2   7   1-11.4014 20.2065   1
  -2   7   1 4.15342 20.0974   3
   2   7  -1-9.47760 17.6247   1
   1   7  -1 684.029 135.001   3
  -1  -7   1 772.492 155.416   1
   1  -7  -1 603.391 189.609   2
  -1   7   1 636.901 135.580   1
  -1   7   1 606.310 120.232   3
   1   7  -1 572.271 131.009   1
   1  -7  -1 736.359 155.708   1
   0   7   1 111.222 48.7041   1
   0  -7   1 82.8745 52.4505   1
   0   7  -1 99.1877 55.5824   1
   0  -7  -1 99.4038 74.7592   2
   0   7   1 120.970 55.4123   3
   0   7  -1 45.4096 30.3695   3
   1   7   1 128.797 57.7758   3
   1   7   1 105.693 50.1498   1
  -1   7  -1 171.005 73.2224   1
  -1   7  -1 68.6485 44.9232   3
  -1  -7  -1 25.9076 36.2375   2
  -2   7  -1 61.2229 47.7297   1
  -2   7  -1 30.5779 25.4203   3
   2   7   1-22.9416 34.9800   3
  -3  -7  -1 27.0218 21.0143   2
  -3   7  -1-7.82261 18.5511   1
   3   7   1 20.7534 17.4106   3
  -3   7  -1 2.53398 19.6745   3
  -4   7  -1 301.338 84.6446   3
  -4  -7  -1 296.140 60.0084   2
   4   7   1 267.334 86.3491   3
  -4   7  -1 419.865 128.202   1
   4   7   1 345.553 85.8979   1
  -5   7  -1 11.0220 21.7059   1
  -5  -7  -1 45.5918 23.2603   2
   5   7   1-105.797 56.8774   3
   5   7   1-14.8637 17.3478   1
  -5   7  -1 25.3037 27.0567   3
  -6   7  -1 13.8293 25.0592   1
   6   7   1-27.9564 50.2500   3
  -6   7  -1 53.9466 10.0682   3
  -7   7  -1-83.8934 59.3655   1
  -7   7  -1 42.8661 34.0574   3
   7   7   1 59.0723 22.4341   3
  -8   7  -1 333.080 121.765   1
   8   7   1 332.710 102.292   3
   9   7   1 23.7777 13.1716   3
  -9   7  -1-51.0402 48.5076   1
  10   7   1-42.1450 26.5517   3
 -10   7  -1-0.18221 41.3220   1
 -11   7  -1-48.3130 49.0633   1
  11   7   1-27.8149 32.9356   3
  12   7   1 1.05668 14.3252   3
 -12   7  -1-18.1174 31.7423   1
  13   7   1-13.1932 44.5275   3
 -13   7  -1 3.89847 18.3553   1
 -14   7  -1-82.9539 67.7936   1
  14   7   1-85.1385 60.6427   3
 -15   7  -1 27.1329 63.7309   1
  15   7   1-41.4902 43.5657   3
  16   7   1 203.649 97.0261   3
 -16   7  -1 147.166 109.040   1
 -17   7  -1 31.6373 46.1564   1
  17   7   1-34.7771 52.6706   3
 -18   7  -1 44.2903 81.3559   1
 -15   8   1-5.60837 23.7637   1
 -14   8   1-3.74811 18.8607   1
 -13   8   1 215.341 110.580   1
  13   8  -1 34.7567 57.6840   3
  12   8  -1 47.8090 47.6717   3
 -12   8   1 68.4500 69.3015   1
  11   8  -1 225.508 107.347   3
 -11   8   1 139.570 86.4345   1
 -10   8   1 43.0141 47.8761   1
  10   8  -1 19.4695 25.1224   3
   9   8  -1 197.894 89.0060   3
  -9   8   1 158.268 88.4615   1
   8   8  -1 97.7401 63.1329   3
  -8   8   1 113.471 86.6767   1
   7   8  -1 116.377 62.5021   3
  -7   8   1 84.2987 76.0050   1
  -7   8   1 132.170 53.5107   3
  -6   8   1-2.54961 13.7892   1
   6   8  -1 3.29961 15.8289   3
  -6   8   1 63.6485 39.1492   3
  -5   8   1 7.80112 20.0776   1
  -5   8   1 33.9981 12.8019   3
   5   8  -1 18.0460 47.6851   3
   4   8  -1 61.3707 46.7991   3
  -4   8   1 97.3289 52.1558   3
  -4   8   1 56.4106 56.8203   1
  -3   8   1 58.0250 45.0331   3
   3   8  -1 35.2878 33.5709   1
  -3   8   1 36.0966 37.4799   1
   3   8  -1 13.9244 30.4250   3
  -2   8   1 10.8643 10.2518   3
   2   8  -1 16.7323 30.0815   3
   2   8  -1-20.8518 26.9596   1
  -2   8   1 32.3608 18.3358   1
   1   8  -1-30.1424 32.5704   1
   1   8  -1 36.8328 34.9841   3
  -1   8   1 27.5268 38.3574   3
  -1   8   1 20.8833 40.0299   1
   0   8  -1-86.5853 56.0510   1
   0   8   1-42.2068 27.7127   3
   0   8   1 4.71533 14.3567   1
   0   8  -1 10.5594 38.7330   3
   1   8   1 11.1227 10.0919   3
  -1   8  -1 3.61737 25.6711   3
   1   8   1 2.87321 11.4778   1
  -1   8  -1-50.7833 44.1906   1
  -2   8  -1 17.1781 25.4542   3
   2   8   1-10.3844 31.7805   3
  -2   8  -1-8.27800 19.4399   1
   2   8   1 50.7269 37.1163   1
   3   8   1-1.94101 26.3157   3
  -3   8  -1-29.9732 35.6887   1
  -3   8  -1-24.4515 35.1925   3
  -4   8  -1 9.54630 12.2878   3
   4   8   1-34.9175 47.2210   3
  -4   8  -1-56.2970 49.5318   1
  -5   8  -1 91.8123 52.8029   3
  -5   8  -1-16.0433 28.1830   1
   5   8   1-33.5455 56.3086   3
  -6   8  -1-67.0351 56.0796   1
   6   8   1-43.4456 42.6183   3
   7   8   1 177.378 83.4592   3
  -7   8  -1 202.463 108.133   1
   8   8   1 76.9261 54.2978   3
  -8   8  -1-57.1448 53.7816   1
  -9   8  -1-47.3553 49.9541   1
   9   8   1 142.285 79.8156   3
 -10   8  -1-61.3017 57.9667   1
  10   8   1 89.3188 65.5677   3
  11   8   1 50.8040 48.2227   3
 -11   8  -1 186.732 122.219   1
  12   8   1-2.09371 33.5695   3
 -12   8  -1-91.6335 72.8675   1
 -13   8  -1 102.231 102.759   1
  13   8   1 141.850 82.2904   3
 -14   8  -1 28.1945 42.6520   1
 -15   8  -1 73.2340 69.4173   1
 -12   9   1 18.3737 36.3069   1
 -11   9   1-16.9773 33.9155   1
 -10   9   1-36.7464 47.5113   1
  -9   9   1-59.2816 57.7169   1
   8   9  -1-40.8873 59.0014   3
  -8   9   1 12.5737 27.4021   1
   7   9  -1-32.8157 36.4514   3
  -7   9   1-28.7909 40.1923   1
   6   9  -1-23.2054 40.7564   3
  -6   9   1 27.0769 37.6867   1
   5   9  -1-21.8583 40.0397   3
  -5   9   1 65.5940 56.1743   1
  -4   9   1 101.639 68.2458   1
  -4   9   1 54.2889 41.0206   3
   4   9  -1-6.69540 20.3037   3
   3   9  -1 51.6047 48.8561   3
  -3   9   1 103.687 64.2488   3
  -2   9   1 118.534 73.0947   3
   2   9  -1 31.1037 53.1767   3
  -1   9   1 72.8341 50.4918   3
   1   9  -1 4.38057 37.9084   3
   0   9  -1 9.27027 28.5055   3
   0   9   1-38.5824 38.0124   3
  -1   9  -1-26.2886 31.4306   3
   1   9   1 75.6851 55.6453   3
  -2   9  -1 27.0774 48.7943   3
  -2   9  -1-37.7052 42.0025   1
   2   9   1 11.9742 12.2872   3
   3   9   1-11.1558 53.0658   3
  -3   9  -1-27.8239 28.4564   3
  -3   9  -1 51.4662 56.2647   1
   4   9   1 60.6637 50.2165   3
  -4   9  -1-65.4760 56.6134   1
   5   9   1-58.6894 45.0865   3
  -5   9  -1 34.7762 42.6664   1
  -6   9  -1 3.46991 17.1022   1
   6   9   1-66.8090 69.3015   3
   7   9   1 115.955 76.0381   3
  -7   9  -1 98.0701 85.4053   1
  -8   9  -1 30.7426 42.7141   1
   8   9   1 103.737 75.5398   3
  -9   9  -1 193.689 113.703   1
 -10   9  -1-45.3777 53.5750   1
 -11   9  -1 108.417 91.3083   1
   2  10  -1 234.686 100.180   3
   1  10  -1 39.1643 40.9223   3
   1  10   1 73.5191 56.1723   3
   2  10   1 17.6250 22.1745   3
 -29   0   2 82.9281 69.7997   1
 -28   0   2-94.8756 73.3685   1
 -27   0   2 294.816 128.561   1
 -26   0   2 1734.94 299.452   1
 -25   0   2 64.8382 65.8495   1
 -24   0   2 1102.56 229.425   1
 -23   0   2 97.3246 60.1035   1
 -22   0   2 10.0299 32.4508   1
 -21   0   2 1953.97 175.437   3
 -21   0   2 2358.15 306.482   1
 -20   0   2 420.235 127.713   1
 -19   0   2 115.818 61.2148   1
 -18   0   2 1394.58 218.226   1
 -17   0   2 2402.40 278.005   1
 -16   0   2 2811.15 183.807   3
  16   0  -2 3884.02 525.424   2
 -16   0   2 2719.91 289.279   1
 -15   0   2 93.0396 32.6579   3
  15   0  -2 168.604 89.2798   2
 -15   0   2 109.556 49.8302   1
  14   0  -2 182.011 94.8569   2
 -14   0   2 189.868 70.9705   1
 -14   0   2 141.585 38.7650   3
 -13   0   2 1414.31 273.767   2
  13   0  -2 1871.08 330.123   2
 -13   0   2 1513.16 125.601   3
 -13   0   2 1392.11 183.547   1
 -12   0   2 1606.02 124.369   3
 -12   0   2 1617.90 192.003   1
  12   0  -2 1640.60 291.894   2
 -12   0   2 1673.55 288.712   2
 -11   0   2 1040.84 97.6496   3
  11   0  -2 1200.24 244.431   2
 -11   0   2 968.108 212.472   2
 -11   0   2 1040.25 145.620   1
 -10   0   2 15.3143 44.0692   2
 -10   0   2 7.78117 12.0320   3
 -10   0   2 26.0693 25.3362   1
  10   0  -2-32.6740 61.9432   2
  -9   0   2 630.397 69.9287   3
   9   0  -2 645.765 157.963   2
  -9   0   2 731.076 110.918   1
  -9   0   2 660.726 158.856   2
  -8   0   2 165.026 32.9473   3
   8   0  -2 165.985 53.5230   2
  -7   0   2 9468.52 248.207   3
   7   0  -2 11072.4 587.155   2
   6   0  -2 2983.03 280.226   2
   5   0  -2 2965.30 257.019   2
   4   0  -2 18000.0 557.082   2
   4   0   2 49968.4 603.228   1
   4   0   2 50756.1 448.790   3
  -5   0  -2 682.571 76.4627   1
   5   0   2 725.805 80.9798   1
   5   0   2 672.456 55.0363   3
  -6   0  -2 2734.17 163.707   1
   6   0   2 2959.81 177.451   1
   6   0   2 2919.33 120.849   3
   7   0   2 14.1831 7.75524   3
   7   0   2 5.07207 8.18176   1
  -7   0  -2 5.97146 7.16214   1
   8   0   2 178.035 34.8749   3
  -8   0  -2 176.170 47.6310   1
   8   0   2 184.836 52.2389   1
   9   0   2 55.8348 31.4170   1
   9   0   2 101.774 50.1859   2
  -9   0  -2 111.886 29.4808   3
  -9   0  -2 77.3063 36.4555   1
   9   0   2 67.0608 22.6162   3
  10   0   2 25804.3 1009.55   2
  10   0   2 24831.7 448.869   3
 -10   0  -2 23767.4 624.125   1
 -10   0  -2 23715.3 424.724   3
  10   0   2 24504.5 661.584   1
  11   0   2 204.747 84.9740   2
 -11   0  -2 209.525 42.1347   3
  11   0   2 148.505 51.5080   1
  11   0   2 183.709 42.2339   3
 -11   0  -2 184.730 58.6791   1
  12   0   2 55.5524 22.8552   3
  12   0   2 0.91191 13.3364   2
 -12   0  -2 26.7273 20.7261   3
 -12   0  -2-12.7843 24.7760   1
  12   0   2-4.21170 14.4712   1
 -13   0  -2 297.696 80.5680   1
 -13   0  -2 249.337 51.9839   3
  13   0   2 249.243 52.5562   3
  13   0   2 336.770 146.768   2
  13   0   2 268.890 81.3650   1
 -14   0  -2 287.216 83.7293   1
  14   0   2 323.274 59.7063   3
  14   0   2 230.855 108.072   2
  15   0   2 1788.20 149.183   3
  15   0   2 2305.91 387.650   2
 -15   0  -2 1977.51 221.422   1
  16   0   2 1184.86 295.897   2
 -16   0  -2 976.429 161.849   1
  16   0   2 1050.48 119.015   3
  17   0   2 46.0257 31.3449   3
 -17   0  -2 44.1388 41.0071   1
 -18   0  -2 95.5108 51.7389   1
  18   0   2 101.351 37.9762   3
 -19   0  -2 238.696 89.3687   1
  19   0   2 139.693 43.2752   3
  20   0   2 898.710 124.503   3
 -20   0  -2 867.900 170.233   1
 -21   0  -2 60.0012 42.4522   1
  21   0   2-1.71264 18.3667   3
 -22   0  -2 10.3860 21.7734   1
  22   0   2 7.97412 14.2356   3
 -23   0  -2 21.4923 30.7435   1
  23   0   2 14.5444 23.9080   3
 -24   0  -2 28.1752 59.5376   1
 -25   0  -2 0.69514 12.2978   1
 -26   0  -2 1266.07 242.558   1
 -27   0  -2 22.7508 47.0989   1
 -28   0  -2 1202.21 253.963   1
 -29   1   2-2.20688 16.5224   1
 -28   1   2-34.7745 47.2293   1
 -27   1   2-45.5656 53.3309   1
 -27  -1   2 74.2216 60.4395   1
 -26   1   2 452.190 160.276   1
 -26  -1   2 320.557 132.872   1
 -25  -1   2 264.222 108.913   1
 -25   1   2 185.052 102.446   1
 -24   1   2 1139.35 239.546   1
 -24  -1   2 933.672 198.756   1
 -23  -1   2 445.001 135.188   1
 -23   1   2 452.113 144.185   1
 -22   1   2-6.06872 38.4970   1
 -22  -1   2 26.9748 60.5722   1
 -21   1   2 288.074 54.8527   3
 -21  -1   2 395.489 115.298   1
 -21   1   2 282.058 116.319   1
 -20   1   2 276.957 100.921   1
 -20  -1   2 325.987 103.400   1
 -20   1   2 274.758 53.9404   3
 -19   1   2 866.843 92.1150   3
 -19   1   2 961.497 194.795   1
 -19  -1   2 968.164 179.923   1
 -19  -1   2 756.146 115.223   3
 -18  -1   2 12.7240 12.0119   3
 -18   1   2 113.687 67.8097   1
  18   1  -2 89.7942 43.6295   3
 -18  -1   2 16.8725 18.8584   1
 -18   1   2 27.9853 18.4717   3
  17   1  -2 446.031 151.945   2
 -17  -1   2 442.229 114.151   1
 -17  -1   2 449.423 86.7885   3
 -17   1   2 379.022 116.780   1
  17   1  -2 463.271 95.1110   3
 -17   1   2 436.637 59.7237   3
 -16  -1   2 636.486 133.654   1
  16   1  -2 763.538 223.230   2
 -16  -1   2 597.095 98.6545   3
 -16   1   2 529.396 132.519   1
  16   1  -2 619.190 111.879   3
 -16   1   2 544.695 63.8143   3
 -15  -1   2 80.0369 71.8269   2
 -15   1   2 152.166 35.2484   3
 -15  -1   2 155.087 59.6175   1
 -15   1   2 190.220 72.8526   1
  15   1  -2 222.484 112.383   2
  15   1  -2 209.581 64.3134   3
 -14  -1   2 709.110 127.769   1
  14   1  -2 616.132 180.378   2
 -14  -1   2 719.146 194.066   2
 -14   1   2 613.133 132.273   1
 -14   1   2 671.150 70.6402   3
  14  -1  -2 712.667 218.730   2
  14   1  -2 756.852 113.019   3
 -13   1   2 477.202 56.4531   3
  13  -1  -2 529.410 189.582   2
 -13  -1   2 447.666 99.0847   1
 -13  -1   2 424.396 141.813   2
  13   1  -2 622.217 169.817   2
  13   1  -2 458.988 84.3462   3
 -13   1   2 486.351 118.617   1
  12   1  -2-5.87562 11.7746   3
  12  -1  -2 3.05846 59.2715   2
 -12   1   2-16.1504 37.8781   1
 -12  -1   2-5.99084 12.6815   3
 -12  -1   2-2.05578 38.8979   2
  12   1  -2 7.77113 37.1255   2
 -12   1   2 4.18180 5.64498   3
 -12  -1   2 3.63706 20.3734   1
  11  -1  -2 21.6334 45.8288   2
  11   1  -2 15.9011 11.1575   3
 -11  -1   2 14.4214 56.8631   2
 -11  -1   2 5.86895 5.18331   3
  11   1  -2 15.6741 51.4630   2
 -11   1   2 1.90416 10.2819   1
 -11   1   2 1.16387 4.85505   3
  10  -1  -2 13.0467 72.7421   2
 -10   1   2 31.1581 12.5817   3
 -10  -1   2 77.9597 68.8774   2
 -10  -1   2 20.7800 11.6689   3
  10   1  -2 48.5462 44.0457   2
  10   1  -2 34.9373 15.5261   3
   9   1  -2 233.368 54.0313   3
   9   1  -2 125.211 59.0066   2
  -9  -1   2 197.400 45.7103   3
   9  -1  -2 280.849 113.730   2
  -9   1   2 230.634 32.7015   3
  -9  -1   2 230.612 82.0262   2
   8  -1  -2 186.785 102.331   2
  -8   1   2 139.991 24.9635   3
   8   1  -2 157.639 68.6027   2
  -8  -1   2 127.435 66.9940   2
   8   1  -2 162.524 41.1424   3
  -7  -1   2 9845.44 532.589   2
   7   1  -2 9190.32 426.125   2
   7   1  -2 8878.29 296.889   3
   7  -1  -2 11008.1 647.131   2
  -6  -1   2 142.761 65.1154   2
   6   1  -2 97.3233 31.9368   3
   6  -1  -2 96.4571 74.1518   2
   6   1  -2 36.4543 11.7565   2
   5  -1  -2 414.455 111.558   2
   5   1  -2 236.153 51.4017   2
   5   1  -2 343.533 55.1777   3
  -5  -1   2 358.360 83.4764   2
   4   1  -2 2610.84 139.038   3
   4   1  -2 2595.53 156.204   2
   4  -1  -2 2883.71 271.853   2
  -4  -1   2 2463.79 170.776   2
   3   1  -2 4393.96 170.398   2
   3  -1  -2 5307.64 336.285   2
   3   1  -2 4353.00 171.678   3
   2  -1  -2 305.624 67.8100   2
  -2  -1   2 225.179 40.6615   1
   2   1  -2 262.898 40.7554   3
   1  -1  -2 81.9951 31.4471   2
  -1  -1   2 71.1347 22.1777   1
   0  -1   2 3391.76 159.102   1
   0  -1  -2 3244.83 156.525   2
   1  -1   2 356.697 53.4578   1
   2   1   2 3.00290 9.62389   3
   2  -1   2 0.32725 4.63022   1
   3   1   2 1802.65 105.843   3
   3  -1   2 1909.39 137.206   1
   4   1   2 11333.4 192.253   1
   4  -1   2 12394.3 374.615   1
   4   1   2 11637.8 276.892   3
  -4  -1  -2 11612.0 197.610   1
   5   1   2 574.666 52.4922   1
   5   1   2 590.622 62.9351   3
   5  -1   2 673.101 93.7333   1
  -5  -1  -2 611.042 52.2787   1
   6   1   2 11262.9 420.323   2
   6   1   2 10687.4 288.910   3
   6  -1   2 11640.9 415.684   1
  -6  -1  -2 10790.3 254.270   1
   6   1   2 10446.0 258.639   1
   7   1   2 1465.89 114.219   3
  -7  -1  -2 1368.92 102.044   1
   7  -1   2 1566.47 161.483   1
   7   1   2 1419.47 107.056   1
   7  -1   2 1430.84 63.2599   3
   7   1   2 1638.92 177.538   2
  -8  -1  -2 3718.82 184.810   1
   8   1   2 3493.54 184.871   3
   8  -1   2 3979.19 270.780   1
   8  -1   2 3478.82 107.071   3
  -8  -1  -2 3427.60 179.870   3
   8   1   2 3649.12 187.355   1
   8   1   2 3774.67 302.063   2
   9   1   2 2139.57 152.044   3
  -9   1  -2 2131.71 197.232   1
  -9  -1  -2 2059.94 144.720   3
  -9  -1  -2 2144.29 151.854   1
   9  -1   2 2110.70 207.515   1
   9  -1   2 2091.08 90.3018   3
   9   1   2 2244.29 256.034   2
 -10  -1  -2 1743.59 137.818   3
  10  -1   2 1730.52 89.1251   3
  10   1   2 1991.69 260.831   2
 -10   1  -2 1618.47 179.720   1
  10  -1   2 1643.56 191.402   1
 -10  -1  -2 1766.86 147.869   1
  10   1   2 1750.75 141.720   3
  11   1   2 9.60150 21.0342   2
  11   1   2-0.56350 15.3531   3
 -11  -1  -2 19.3444 17.0822   1
 -11   1  -2 39.0237 41.5649   1
  11  -1   2 21.1435 24.4583   1
 -11  -1  -2 20.0251 28.0356   3
  11  -1   2 22.5090 12.3862   3
  11  -1   2 110.802 88.7182   2
 -12   1  -2-12.6728 22.5549   1
  12  -1   2-68.7980 62.7342   2
  12  -1   2-5.00264 10.4035   3
 -12  -1  -2 7.51255 9.92353   1
 -12  -1  -2 15.8884 16.9643   3
  12   1   2-26.8341 49.5238   2
  12  -1   2 35.3638 30.3140   1
  12   1   2-7.26365 12.5266   3
  13  -1   2 4.09660 11.0326   1
 -13   1  -2 2.57895 26.4291   1
  13   1   2 2.94349 11.5301   3
  13   1   2-34.3899 15.1675   2
  13  -1   2-20.2401 37.0875   2
 -13  -1  -2-11.6534 18.5274   1
  13  -1   2-3.82240 11.5714   3
  14  -1   2 857.455 246.375   2
  14  -1   2 656.877 68.9882   3
 -14  -1  -2 577.299 105.337   1
  14   1   2 563.893 167.724   2
  14   1   2 642.216 98.2429   3
 -14   1  -2 683.131 133.271   1
  14  -1   2 644.286 139.896   1
 -15   1  -2-17.7259 33.8309   1
  15  -1   2-27.1020 42.2115   2
 -15  -1  -2-18.0897 16.6049   1
  15  -1   2 31.6308 44.1047   1
  15  -1   2 16.2594 17.6486   3
  15   1   2 34.0292 28.5265   3
  15   1   2 34.5963 51.6494   2
 -16  -1  -2 93.6745 46.5843   1
 -16   1  -2 91.3405 51.5028   1
 -16  -1  -2 109.537 43.4117   3
  16  -1   2 133.161 35.2229   3
  16   1   2 185.356 110.345   2
  16   1   2 108.853 77.1233   3
 -17  -1  -2 537.887 94.7061   3
 -17  -1  -2 553.616 116.624   1
  17   1   2 437.336 171.272   2
  17  -1   2 575.772 73.6193   3
 -17   1  -2 614.746 140.569   1
  17   1   2 506.313 94.5063   3
  18   1   2 434.089 89.7390   3
 -18  -1  -2 448.266 89.7595   3
  18  -1   2 393.782 62.8288   3
  18   1   2 358.517 159.688   2
 -18   1  -2 305.526 103.078   1
 -18  -1  -2 371.871 99.6296   1
 -19  -1  -2 775.218 147.076   1
 -19  -1  -2 633.792 109.643   3
 -19   1  -2 809.069 169.801   1
  19   1   2 793.013 129.461   3
 -20   1  -2 110.972 63.9650   1
  20   1   2 71.4329 47.8593   3
 -20  -1  -2 52.7854 41.2930   1
 -21  -1  -2-8.94208 24.4741   1
  21   1   2-30.4289 33.3689   3
 -21   1  -2 21.7489 32.2552   1
 -22  -1  -2-22.9216 28.5542   1
  22   1   2 40.2722 35.4545   3
 -22   1  -2-42.7753 43.7330   1
 -23  -1  -2 40.8200 40.9562   1
 -23   1  -2 49.9348 50.8524   1
  23   1   2 111.842 57.0184   3
 -24   1  -2-50.3788 49.9581   1
 -24  -1  -2 27.6565 43.3981   1
  24   1   2 53.9142 49.1465   3
 -25  -1  -2 36.7916 33.3662   1
 -25   1  -2-42.2263 18.1549   1
  25   1   2 113.013 59.6646   3
 -26   1  -2 331.461 125.192   1
 -26  -1  -2 467.631 142.752   1
 -27   1  -2-42.2281 49.5631   1
 -28   1  -2 154.768 123.782   1
 -29   1  -2 44.8444 53.4324   1
 -28   2   2-33.9865 69.3858   1
 -27   2   2 53.4586 58.8733   1
 -26   2   2-10.4503 28.6302   1
 -25   2   2-42.8634 51.5164   1
 -25  -2   2-50.1709 34.9507   1
 -24   2   2-47.9077 55.7599   1
 -24  -2   2-1.90551 13.1962   1
 -23   2   2 9.53776 43.0115   1
 -23  -2   2 33.8565 34.4244   1
 -22   2   2 184.969 97.6395   1
 -22  -2   2 239.974 81.1347   1
  22   2  -2 153.687 75.3058   3
  21   2  -2 64.0630 51.7451   3
 -21   2   2-25.7868 36.6057   1
 -21  -2   2 0.88043 30.5476   1
 -20  -2   2 259.104 93.0876   1
  20   2  -2 247.383 85.3518   3
 -20   2   2 232.285 100.778   1
  19   2  -2 1308.65 186.287   3
 -19  -2   2 1237.89 190.995   1
 -19   2   2 1480.74 255.087   1
 -18  -2   2 89.7559 58.3498   1
 -18   2   2 84.1695 65.1533   1
  18   2  -2 161.899 72.3200   3
  18   2  -2 156.368 65.7142   2
  17   2  -2 68.3222 71.6191   2
 -17  -2   2 63.6297 48.4016   1
  17   2  -2 98.3436 51.5575   3
 -17   2   2 46.6711 57.4345   1
  16   2  -2-130.148 72.4998   2
 -16  -2   2 46.0456 36.8645   3
 -16  -2   2 80.9275 74.4658   2
 -16   2   2 62.0306 14.5749   3
 -16  -2   2 94.1686 50.1124   1
  16   2  -2 84.9446 48.1083   3
 -16   2   2 134.429 63.3247   1
 -15  -2   2 25.4409 35.3346   1
  15   2  -2 18.5316 34.7529   3
 -15  -2   2-20.6179 27.3902   3
 -15   2   2 79.9832 60.1579   1
 -15  -2   2-9.68927 32.3277   2
 -15   2   2 23.5829 8.75212   3
  15   2  -2-30.4952 68.5028   2
 -14  -2   2 683.179 185.698   2
 -14  -2   2 581.011 104.898   3
 -14   2   2 477.046 36.4013   3
  14   2  -2 524.542 128.624   2
 -14  -2   2 629.764 114.064   1
  14   2  -2 523.695 103.355   3
 -14   2   2 648.107 145.951   1
  13   2  -2 52.3048 23.1601   2
 -13  -2   2 74.4440 63.8665   2
  13  -2  -2 57.5572 66.6966   2
 -13   2   2 61.7446 13.0404   3
 -13  -2   2 76.5034 37.9777   3
  13   2  -2 56.6417 23.7333   3
 -13  -2   2 114.164 46.1239   1
 -13   2   2 44.4530 29.0118   1
 -12  -2   2 833.297 189.371   2
  12  -2  -2 892.589 265.669   2
 -12  -2   2 687.440 105.934   3
 -12   2   2 664.554 41.6706   3
  12   2  -2 679.550 130.624   2
  12   2  -2 859.768 123.517   3
  11  -2  -2 5040.18 577.730   2
 -11  -2   2 4307.08 418.459   2
  11   2  -2 3331.48 278.202   2
  11   2  -2 3891.71 257.055   3
 -10  -2   2 506.043 144.520   2
  10  -2  -2 490.978 180.838   2
  10   2  -2 452.421 85.3741   3
  10   2  -2 379.695 86.8387   2
 -10   2   2 365.856 32.1904   3
   9   2  -2 579.896 99.4242   2
   9  -2  -2 742.182 204.688   2
   9   2  -2 522.008 89.8562   3
  -9  -2   2 501.664 130.472   2
   8   2  -2 23.1565 19.2864   3
   8   2  -2 52.2362 31.0398   2
   8  -2  -2-18.7388 50.3928   2
  -8  -2   2 3.26859 24.7484   2
  -7  -2   2 33.5920 37.9887   2
   7   2  -2 21.1248 26.5845   2
   7  -2  -2 11.9796 44.4398   2
   7   2  -2 11.1084 8.40262   3
   6   2  -2 622.430 88.2085   3
   6   2  -2 598.811 73.8400   2
  -6  -2   2 670.832 106.578   2
   6  -2  -2 743.005 167.787   2
  -5  -2   2 970.609 97.0771   1
  -5  -2   2 1082.95 117.242   2
  -5   2   2 1021.84 64.2687   3
   5  -2  -2 1040.45 189.350   2
   5   2  -2 1082.54 90.0299   2
   5   2  -2 975.334 105.856   3
   4   2  -2 1513.02 97.1070   2
   4   2  -2 1477.84 124.482   3
  -4  -2   2 1744.09 131.115   1
   4  -2  -2 1654.00 225.109   2
  -4  -2   2 1529.42 120.828   2
  -4   2   2 1503.54 82.8970   3
   3   2  -2 2192.27 146.538   3
   3  -2  -2 2593.82 262.237   2
  -3   2   2 2296.58 108.346   3
  -3  -2   2 2330.29 145.954   1
   3   2  -2 2312.34 154.110   1
  -3  -2   2 2393.04 132.144   2
   2   2  -2 248.951 47.6843   3
   2  -2  -2 224.341 69.4320   2
   2   2  -2 248.147 50.1532   1
  -2  -2   2 229.209 44.7519   1
  -2   2   2 250.652 39.8190   3
  -1   2   2 85.7846 23.4545   3
  -1  -2   2 85.6478 29.6396   1
   1   2  -2 75.5849 24.9327   3
   1  -2  -2 142.580 54.8578   2
   0  -2   2 109.560 37.6368   1
   0  -2   2 90.5253 23.0271   3
   0   2   2 91.8486 23.8029   3
   0   2   2 98.8448 26.1030   1
   0  -2  -2 136.993 49.8926   2
   0   2  -2 87.5625 25.0606   3
  -1  -2  -2 498.357 72.6695   2
   1  -2   2 492.742 56.5373   3
  -1   2  -2 435.294 52.5694   3
   1   2   2 391.615 53.0435   3
   1  -2   2 452.301 73.4867   1
   1   2   2 438.740 50.5558   1
  -2   2  -2 893.340 72.3236   3
   2  -2   2 934.555 109.255   1
   2  -2   2 960.139 73.8678   3
   2   2   2 899.128 58.7991   1
   2   2   2 807.991 80.3966   3
   3   2   2 2749.44 154.380   3
   3  -2   2 3080.45 122.917   3
   3  -2   2 3091.01 209.969   1
   4  -2   2 297.284 35.3797   3
   4  -2   2 327.516 72.2908   1
   4   2   2 204.521 44.3155   3
   5  -2   2 6532.42 147.647   3
   5  -2   2 6301.22 332.692   1
   5   2   2 6080.25 253.298   3
   6  -2   2 435.150 33.4260   3
   6   2   2 530.601 78.9165   3
   6   2   2 379.862 49.8887   2
   6  -2   2 463.992 94.8700   1
   7  -2   2 5184.37 333.149   1
   7   2   2 4828.02 244.003   3
   7   2   2 4769.39 230.422   2
   8   2   2 1472.94 150.880   2
   8   2   2 1422.54 137.128   3
   8  -2   2 1528.32 187.787   1
  -8  -2  -2 1290.58 78.8352   1
  -9  -2  -2 19.9298 13.7416   1
   9   2   2 7.82300 10.0821   3
   9   2   2 17.3357 27.4923   2
   9  -2   2 5.64321 29.0725   1
  10   2   2 1717.07 202.532   2
  10  -2   2 1816.71 223.650   1
  10   2   2 1667.50 158.450   3
 -10  -2  -2 1657.69 115.235   1
 -11  -2  -2 1603.61 125.182   1
  11   2   2 1681.07 164.472   3
  11  -2   2 1689.18 222.439   1
  11   2   2 1710.35 221.071   2
 -12  -2  -2 205.500 50.0214   1
  12   2   2 152.618 60.5045   2
  12  -2   2 291.634 94.7885   1
  12  -2   2 309.828 143.362   2
  12   2   2 200.960 59.1164   3
 -12   2  -2 222.130 76.4454   1
 -12  -2  -2 222.017 62.1638   3
 -13   2  -2 12.9781 16.6320   1
  13   2   2 74.0513 50.6872   2
  13  -2   2-111.587 89.3134   2
 -13  -2  -2 18.6617 13.7920   3
  13   2   2-8.42387 16.6973   3
  13  -2   2 72.4255 50.1694   1
 -13  -2  -2 18.9456 13.7060   1
  14   2   2 114.371 56.1422   2
 -14  -2  -2 29.9780 21.9556   3
 -14  -2  -2 61.3882 29.2342   1
  14   2   2 105.166 44.3268   3
 -14   2  -2 81.2431 34.5357   1
 -15  -2  -2 305.821 78.1610   3
  15   2   2 307.941 118.641   2
 -15   2  -2 276.825 92.2683   1
  15   2   2 334.081 80.9718   3
 -15  -2  -2 395.933 82.0810   1
  16   2   2 43.9358 27.6559   3
 -16   2  -2 11.7456 25.7547   1
  16   2   2-20.5530 40.8308   2
 -16  -2  -2 40.2972 17.2336   1
 -17   2  -2 1433.78 229.205   1
 -17  -2  -2 1500.09 172.392   1
  17   2   2 1969.00 324.148   2
  17   2   2 1565.20 183.969   3
 -18   2  -2-23.4965 15.2086   1
 -18  -2  -2 34.2904 34.5732   1
  18   2   2-76.5055 42.7838   3
 -19  -2  -2 204.669 67.9119   1
  19   2   2 341.021 141.992   2
  19   2   2 186.307 63.4561   3
 -19   2  -2 342.863 120.615   1
 -20   2  -2 66.1284 59.3313   1
  20   2   2-4.25165 8.99781   3
 -20  -2  -2 24.4015 20.1155   1
 -21  -2  -2 132.847 58.6375   1
 -21   2  -2 172.084 94.4997   1
  21   2   2 92.0849 44.7352   3
 -22  -2  -2 55.5902 41.1371   1
  22   2   2-2.45249 17.7208   3
 -22   2  -2 98.0349 67.9737   1
 -23   2  -2 9.44338 24.7655   1
 -23  -2  -2 72.9286 47.9579   1
  23   2   2 59.5774 49.2867   3
  24   2   2 68.3156 50.5125   3
 -24   2  -2 79.5371 63.3952   1
  25   2   2 168.774 71.3293   3
 -25   2  -2 239.928 114.407   1
  26   2   2 31.1420 33.7859   3
 -26   2  -2 208.841 109.430   1
 -27   2  -2 701.327 205.075   1
 -28   2  -2 54.2654 60.2080   1
 -26   3   2-68.1867 82.9440   1
 -25   3   2 150.471 113.765   1
  24   3  -2-4.84204 28.3832   3
 -24   3   2 63.3311 71.4687   1
  23   3  -2 81.4105 68.3223   3
 -23   3   2 125.102 84.7403   1
 -22  -3   2-9.22804 34.4359   1
 -22   3   2 32.1023 48.3552   1
  22   3  -2-0.13143 12.2245   3
 -21   3   2 13.9120 40.3804   1
  21   3  -2 10.7125 17.0554   3
 -21  -3   2 2.69094 11.5756   1
 -20   3   2 146.230 76.6654   1
  20   3  -2 155.400 77.2993   3
 -20  -3   2 121.660 59.7886   1
  19   3  -2 882.570 159.283   3
 -19   3   2 741.809 182.314   1
  19   3  -2 634.890 148.057   2
 -19  -3   2 855.808 145.764   1
 -18  -3   2 199.967 70.5850   1
  18   3  -2 127.171 63.9455   2
  18   3  -2 120.236 59.0884   3
 -18   3   2 144.326 77.8410   1
  17   3  -2 8.23472 11.1255   3
 -17   3   2 55.2790 41.9186   1
 -17  -3   2 11.6492 45.4090   2
 -17  -3   2 40.2454 28.7198   1
  17   3  -2 69.4230 55.2174   2
  16   3  -2 116.798 69.6784   2
 -16  -3   2 151.397 55.9630   1
 -16   3   2 172.795 79.2834   1
  16   3  -2 54.3371 34.2561   3
 -16  -3   2 231.381 130.123   2
 -15  -3   2 349.103 136.804   2
 -15   3   2 268.316 97.4648   1
  15   3  -2 164.341 64.6403   3
  15   3  -2 198.927 73.1387   2
 -15  -3   2 255.297 68.3571   1
 -14  -3   2 1531.59 265.323   2
  14   3  -2 1301.20 177.454   3
 -14  -3   2 1644.09 170.628   1
 -14   3   2 1405.82 224.058   1
  14   3  -2 1196.42 162.043   2
  13   3  -2 196.405 64.6451   2
  13   3  -2 129.256 57.3188   3
 -13   3   2 133.247 67.7505   1
 -13  -3   2 242.665 89.1942   2
  12   3  -2 117.134 47.8870   3
  12   3  -2 51.5020 37.9243   2
 -12  -3   2 119.892 73.8078   2
 -12  -3   2 123.319 54.6843   3
 -11  -3   2 403.891 130.042   2
  11   3  -2 334.312 71.2719   2
  11  -3  -2 345.851 172.493   2
  11   3  -2 400.054 92.9350   3
 -11  -3   2 334.617 78.0216   3
 -10  -3   2 240.751 57.1608   1
 -10   3   2 161.452 20.4502   3
 -10  -3   2 378.006 116.151   2
  10   3  -2 214.107 50.8638   2
  10   3  -2 266.315 74.6752   3
  10  -3  -2 527.633 188.345   2
   9   3  -2-22.7840 18.2838   3
  -9  -3   2 12.0684 16.6176   1
  -9   3   2-0.02551 5.00295   3
   9  -3  -2-29.3531 88.8807   2
  -9  -3   2 4.95694 46.1929   2
   9   3  -2 6.14274 13.5382   2
   8  -3  -2 93.9209 69.5428   2
   8   3  -2 127.184 35.7065   2
  -8   3   2 96.2782 20.8820   3
  -8  -3   2 124.812 59.5438   2
  -8  -3   2 104.819 36.2939   1
   8   3  -2 134.501 44.3185   3
   7  -3  -2 564.048 178.667   2
  -7  -3   2 489.939 92.2208   2
  -7   3   2 459.307 47.2498   3
   7   3  -2 437.527 83.6432   3
  -7  -3   2 397.424 67.3427   1
  -6  -3   2 221.411 49.8920   1
  -6  -3   2 213.538 56.5461   2
   6   3  -2 181.109 55.4865   3
   6  -3  -2 278.221 119.282   2
  -6   3   2 198.356 32.8543   3
   6  -3  -2 195.924 66.5749   1
   5   3  -2 1975.39 171.945   3
  -5  -3   2 2310.77 158.778   1
  -5  -3   2 2339.71 164.456   2
  -5   3   2 2010.99 111.790   3
   5  -3  -2 2334.44 309.760   2
   5  -3  -2 2508.65 229.096   1
   4   3  -2 543.289 84.4392   1
   4   3  -2 454.496 79.1018   3
   4  -3  -2 544.700 151.043   2
  -4  -3   2 455.455 66.2351   2
   4  -3  -2 441.789 90.9398   1
  -4   3   2 382.259 51.1172   3
  -4  -3   2 513.378 76.2386   1
  -4   3   2 455.289 89.9822   1
   3  -3  -2 264.079 92.5676   2
  -3   3   2 193.224 37.5545   3
  -3  -3   2 241.296 52.5527   1
  -3  -3   2 262.623 47.6477   2
   3   3  -2 188.479 50.7105   3
   3  -3  -2 202.440 59.3680   1
  -3   3   2 227.872 60.0506   1
   3   3  -2 219.292 54.8263   1
   2   3  -2 1543.31 144.872   1
  -2  -3   2 1636.59 140.323   3
   2   3  -2 1446.01 133.638   3
   2  -3  -2 1447.90 148.290   1
  -2   3   2 1398.72 107.847   3
  -2  -3   2 1610.87 141.426   1
   2  -3  -2 1604.94 220.424   2
  -2   3   2 1471.92 143.288   1
   1  -3  -2 4918.90 347.995   2
  -1  -3   2 5077.25 257.841   1
   1   3  -2 4999.50 265.555   1
   1  -3  -2 5304.89 265.642   1
  -1   3   2 4594.06 204.128   3
   1   3  -2 4824.07 233.182   3
  -1  -3   2 5177.66 239.851   3
  -1   3   2 4823.19 245.245   1
   1  -3  -2 5003.51 221.666   3
   0   3   2 192.621 45.0354   3
   0   3  -2 262.120 62.0238   1
   0  -3  -2 282.983 54.8021   3
   0  -3  -2 308.231 79.0148   2
   0   3  -2 298.360 57.5500   3
   0   3   2 301.252 56.5164   1
   0  -3   2 329.459 69.7446   1
   0  -3  -2 284.396 58.4768   1
   0  -3   2 284.555 55.4465   3
  -1   3  -2 6.29226 7.40781   1
   1  -3   2 8.59792 9.50675   3
   1  -3   2 5.31960 11.2266   1
  -1  -3  -2 14.5647 19.4153   3
  -1   3  -2 31.2375 14.9079   3
  -1  -3  -2 42.7380 35.4356   2
   1   3   2 19.5607 16.1595   1
   1   3   2 9.27093 10.5737   3
  -1  -3  -2 11.8642 16.9750   1
   2   3   2 2090.38 120.474   1
   2  -3   2 2240.07 195.685   1
  -2  -3  -2 2083.13 162.149   2
   2  -3   2 2056.75 133.603   3
   2   3   2 1890.74 149.233   3
  -2   3  -2 1971.41 134.317   3
   3   3   2 86.9432 22.9046   1
   3  -3   2 71.7994 35.4727   1
  -3   3  -2 64.8283 24.3219   3
   3   3   2 74.9675 31.1413   3
   3  -3   2 97.8244 28.1039   3
  -3  -3  -2 54.5589 20.9089   2
   4   3   2 51.0672 28.9811   3
   4  -3   2 58.6376 39.2708   1
   4  -3   2 22.9333 8.77086   3
  -4   3  -2 31.9912 17.8081   3
   5  -3   2 35.0232 14.9010   3
   5  -3   2 49.8825 24.7850   1
   5   3   2 11.8964 20.0452   3
   6  -3   2 2373.59 108.295   3
   6  -3   2 2499.39 246.981   1
   6   3   2 2302.31 187.501   3
   7  -3   2 600.238 46.9273   3
   7  -3   2 680.861 135.716   1
   7   3   2 680.602 103.903   3
   8  -3   2 97.1757 16.4018   3
   8   3   2 37.4678 21.1481   3
   8  -3   2 99.1885 51.2122   1
   9   3   2 156.174 26.3125   2
   9  -3   2 296.545 95.7954   1
   9   3   2 225.446 65.8799   3
  10   3   2-5.58274 17.2673   3
  10   3   2 12.6571 12.9905   2
  10  -3   2 29.8736 36.4760   1
  11   3   2 157.268 60.6936   3
 -11  -3  -2 175.118 26.9463   1
  11  -3   2 133.304 56.8687   1
  11   3   2 188.262 47.5275   2
 -11  -3  -2 190.189 62.0969   3
 -12  -3  -2 346.577 85.4645   3
  12   3   2 398.802 75.0602   2
 -12   3  -2 338.293 104.927   1
 -12  -3  -2 332.431 43.5183   1
  12   3   2 413.236 89.9768   3
  13   3   2 295.568 76.1119   2
  13   3   2 235.692 73.6201   3
 -13  -3  -2 259.345 44.0359   1
 -13   3  -2 314.245 106.132   1
 -14  -3  -2 479.523 65.5799   1
  14   3   2 410.249 90.0411   2
  14   3   2 464.965 100.509   3
 -14   3  -2 372.441 111.822   1
  15   3   2-23.1800 36.8935   2
 -15  -3  -2-10.0463 14.1648   1
  15   3   2 14.6092 28.7301   3
 -15   3  -2-17.2411 31.6819   1
  16   3   2 226.109 79.4498   2
 -16  -3  -2 177.835 47.9356   1
  16   3   2 189.689 64.2798   3
 -16   3  -2 219.919 91.3273   1
 -17  -3  -2 128.838 42.7825   1
  17   3   2 156.845 68.9519   2
 -17   3  -2 203.740 92.1817   1
  17   3   2 151.304 59.3587   3
 -18   3  -2 380.377 128.969   1
  18   3   2 476.940 134.484   2
 -18  -3  -2 449.318 83.5511   1
  18   3   2 319.303 93.8174   3
 -19  -3  -2 140.367 51.2269   1
  19   3   2 98.9658 62.4167   3
 -19   3  -2 162.442 85.5760   1
  19   3   2 225.663 90.2782   2
  20   3   2 126.379 62.1157   3
 -20  -3  -2 198.305 60.6441   1
 -20   3  -2 199.557 96.9653   1
  21   3   2-22.9415 43.1001   3
 -21   3  -2-4.39880 20.5235   1
  22   3   2 81.4480 60.9887   3
 -22   3  -2 2.01440 31.3384   1
  23   3   2-14.0373 42.7454   3
 -23   3  -2 42.8970 49.3782   1
 -24   3  -2 133.700 91.9384   1
  24   3   2 131.980 66.0268   3
  25   3   2 105.303 67.8576   3
 -25   3  -2 40.7129 42.4129   1
 -26   3  -2 56.6740 61.6650   1
  26   3   2-22.2733 25.5560   3
  27   3   2 108.357 67.2039   3
 -25   4   2 242.343 137.510   1
  25   4  -2 343.463 130.021   3
  24   4  -2 59.6699 38.8266   3
 -24   4   2 63.5480 65.0485   1
 -23   4   2 38.1612 49.6482   1
  23   4  -2 78.1902 58.9369   3
  22   4  -2-7.69985 26.8295   3
 -22   4   2-33.7993 38.0893   1
  21   4  -2 288.993 102.269   3
 -21   4   2 474.408 159.297   1
 -20   4   2 143.651 88.8304   1
  20   4  -2 96.6099 41.2613   3
  19   4  -2 322.618 109.653   3
 -19   4   2 159.927 90.2091   1
 -19  -4   2 322.561 78.0709   1
 -18   4   2-8.58038 22.7015   1
 -18  -4   2 40.9786 27.8003   1
  18   4  -2 113.811 65.6147   3
 -17   4   2 69.2179 52.8743   1
  17   4  -2 104.007 64.7058   3
  17   4  -2 22.4129 21.7463   2
 -17  -4   2 106.690 41.8922   1
 -16   4   2-30.0336 37.3473   1
 -16  -4   2 100.516 63.3198   2
 -16  -4   2 108.685 57.6397   1
  16   4  -2 34.7807 50.6900   3
 -16  -4   2 12.0389 19.9388   1
  16   4  -2-9.98583 28.0693   2
  15   4  -2-10.2014 26.7866   2
 -15  -4   2 18.3371 17.3217   1
 -15  -4   2 22.2687 19.9670   1
  15   4  -2 36.7283 25.9330   3
 -15  -4   2 49.9604 19.0953   2
 -15   4   2 9.79393 22.9414   1
 -14  -4   2 309.780 66.6298   1
  14   4  -2 142.883 67.0550   3
 -14  -4   2 362.894 114.877   2
  14   4  -2 307.398 63.4250   2
 -14  -4   2 300.120 67.1572   1
 -14   4   2 277.243 100.986   1
 -13  -4   2 336.926 115.439   2
  13   4  -2 245.204 55.6244   2
 -13  -4   2 255.278 57.5309   1
  13   4  -2 300.214 89.7404   3
 -13   4   2 313.144 108.055   1
 -12   4   2 60.9195 48.2348   1
 -12  -4   2 67.4271 44.8931   2
  12   4  -2 61.4365 40.6300   3
 -12  -4   2 63.7615 26.0909   1
  12   4  -2 84.6623 33.1817   2
  11   4  -2 233.799 72.8129   3
 -11   4   2 182.216 78.9475   1
 -11  -4   2 172.614 46.5942   1
 -11  -4   2 216.588 84.6604   2
 -11   4   2 138.516 19.9546   3
 -10  -4   2 1682.40 228.541   2
 -10   4   2 1348.76 209.344   1
  10   4  -2 1512.98 191.604   3
 -10   4   2 1423.11 81.8751   3
 -10  -4   2 1478.01 132.270   1
  -9   4   2-26.9347 38.3584   1
  -9  -4   2-9.94428 17.9927   2
  -9  -4   2 30.1123 21.3754   1
  -9   4   2 20.1419 12.8645   3
   9   4  -2-13.0153 15.2040   3
  -8  -4   2 92.0084 31.6310   1
   8   4  -2 79.1789 33.5263   3
  -8  -4   2 140.157 46.7081   2
  -8   4   2 78.3330 23.0897   3
  -8   4   2 112.410 54.8722   1
   8  -4  -2 168.125 115.627   2
   7  -4  -2 31.9530 70.0924   2
  -7  -4   2 55.7642 26.4388   1
   7   4  -2 39.2031 36.1574   3
  -7   4   2 28.4265 33.8982   1
   7  -4  -2 38.2199 33.4506   1
  -7  -4   2 54.1578 31.2038   2
  -7   4   2 47.6308 19.8763   3
   6   4  -2 42.9340 31.4705   3
  -6   4   2 106.892 35.4516   3
  -6  -4   2 86.5922 42.4324   2
   6  -4  -2 157.871 89.1818   1
  -6  -4   2 69.7693 32.5171   1
   6  -4  -2 35.1381 27.9725   2
  -5   4   2-1.48336 6.65894   3
   5  -4  -2 11.0160 78.0694   2
   5  -4  -2 15.8516 26.5076   1
   5   4  -2 26.9690 20.8028   1
   5   4  -2 25.3700 29.8229   3
  -5  -4   2 12.1959 9.64921   1
  -5  -4   2 6.71845 16.1634   2
  -5  -4   2 13.5492 12.9716   3
   4   4  -2 761.429 110.770   1
  -4  -4   2 805.728 94.4903   2
   4  -4  -2 601.038 172.071   2
   4   4  -2 768.138 115.605   3
  -4  -4   2 750.451 113.220   3
  -4   4   2 780.336 89.5561   3
  -4  -4   2 862.814 108.729   1
   4  -4  -2 811.434 137.540   1
   3   4  -2 171.128 52.2210   1
  -3   4   2 184.713 58.2385   1
   3  -4  -2 241.121 101.685   2
  -3   4   2 157.832 42.0474   3
   3  -4  -2 137.230 50.1942   1
   3   4  -2 201.592 56.2260   3
  -3  -4   2 229.071 59.1532   1
  -3  -4   2 167.143 51.6533   3
  -2   4   2 2246.34 162.959   3
  -2  -4   2 2483.72 196.202   3
   2  -4  -2 2486.82 222.660   1
   2   4  -2 2340.71 201.299   1
   2   4  -2 2241.34 186.774   3
   2  -4  -2 2343.47 293.292   2
  -2  -4   2 2542.03 201.344   1
  -2   4   2 2298.02 199.190   1
   2  -4  -2 2365.63 172.213   3
  -1  -4   2 1298.66 139.326   3
  -1  -4   2 1235.52 146.462   1
   1   4  -2 1123.51 130.007   3
   1  -4  -2 1290.74 150.866   1
  -1   4   2 1144.21 132.870   1
   1   4  -2 1248.16 149.945   1
  -1   4   2 1237.49 125.133   3
   1  -4  -2 1213.76 201.233   2
   1  -4  -2 1361.28 135.109   3
   0   4  -2 1291.85 156.817   1
   0   4   2 1065.67 121.670   3
   0  -4   2 1403.28 138.137   3
   0   4  -2 1098.67 125.607   3
   0  -4   2 1194.29 150.751   1
   0   4   2 1220.75 129.906   1
   0  -4  -2 1368.74 139.552   3
   0  -4  -2 1193.71 137.526   1
   0  -4  -2 1290.69 190.816   2
   1  -4   2-18.7280 25.0235   1
   1   4   2-1.23262 10.2650   3
  -1  -4  -2 6.60553 23.2791   3
   1  -4   2 36.4560 19.5621   3
  -1  -4  -2 9.55635 21.5635   2
  -1   4  -2-25.2331 20.4314   3
  -1  -4  -2 17.3907 21.1947   1
  -1   4  -2 10.3729 14.8330   1
   1   4   2 10.2860 11.5520   1
   2   4   2 142.204 38.7405   1
   2  -4   2 140.712 54.3571   1
   2  -4   2 167.732 44.3341   3
  -2   4  -2 119.587 38.4281   3
   2   4   2 135.354 45.8140   3
  -2  -4  -2 164.172 44.1487   1
  -2  -4  -2 223.057 61.6597   2
  -2  -4  -2 220.657 60.4644   3
   3  -4   2 53.1214 25.9400   3
  -3   4  -2 60.7646 26.4397   3
   3   4   2 70.6424 27.3167   1
   3  -4   2 89.0847 43.2388   1
   3   4   2 59.1052 29.0511   3
  -3  -4  -2 46.8279 27.5130   2
  -3  -4  -2 34.1397 21.0602   3
   4   4   2 904.414 83.5756   1
   4   4   2 1132.42 137.832   3
  -4   4  -2 952.309 100.866   3
   4  -4   2 902.716 94.5443   3
   4  -4   2 1098.13 167.530   1
  -4  -4  -2 847.809 96.0386   2
  -4  -4  -2 998.402 131.413   3
  -4  -4  -2 924.056 57.2073   2
   5   4   2 423.150 48.7353   1
   5  -4   2 408.399 58.1378   3
  -5   4  -2 508.691 71.2379   3
   5  -4   2 602.050 128.198   1
   5   4   2 548.249 98.9939   3
   6  -4   2 169.115 66.8086   1
   6  -4   2 174.570 35.8765   3
   6   4   2 157.345 54.9867   3
  -6   4  -2 176.231 65.2177   1
   7  -4   2 59.1579 52.7820   1
   7   4   2 13.1207 25.6248   3
  -7   4  -2 19.4115 13.8869   1
   7  -4   2 50.2668 21.1173   3
   8   4   2-28.3913 31.1380   3
   8  -4   2 8.75965 10.5163   3
  -8   4  -2 30.1425 31.4189   1
   8  -4   2 8.64935 19.4825   1
   9   4   2 114.147 52.7288   3
  -9   4  -2 119.875 55.2561   1
 -10   4  -2 155.688 71.7776   1
  10   4   2 68.5348 43.9044   3
 -11   4  -2 590.831 139.475   1
  11   4   2 681.294 126.881   3
 -12   4  -2 1562.42 232.640   1
  12   4   2 1610.38 198.841   3
  13   4   2 564.802 49.1112   2
  13   4   2 622.247 131.563   3
 -13   4  -2 519.646 137.307   1
  14   4   2 42.9367 16.6717   2
 -14   4  -2 124.752 74.4032   1
  14   4   2 31.4952 30.6446   3
 -15   4  -2 332.595 118.691   1
  15   4   2 307.145 89.7198   3
  15   4   2 221.153 43.5496   2
  16   4   2 244.158 54.4413   2
  16   4   2 209.367 84.7944   3
 -16   4  -2 221.400 96.8275   1
  17   4   2 363.484 109.126   3
 -17   4  -2 246.648 101.283   1
 -18   4  -2 397.515 135.679   1
  18   4   2 358.988 107.999   3
 -19   4  -2 142.684 92.0883   1
  19   4   2 156.273 77.1535   3
  20   4   2-53.2661 55.8690   3
 -20   4  -2-26.1998 49.0901   1
  21   4   2 106.318 102.391   3
 -21   4  -2 64.8374 83.0368   1
  22   4   2 47.7964 40.3267   3
 -22   4  -2 126.624 85.4659   1
 -23   4  -2 91.7789 94.9854   1
  23   4   2-1.72228 31.2598   3
 -24   4  -2-14.8484 44.8893   1
  24   4   2-18.5942 30.6739   3
  25   4   2-49.5913 65.5045   3
 -25   4  -2 197.993 114.582   1
  26   4   2 280.084 108.275   3
  27   4   2 75.0492 50.9870   3
  24   5  -2 108.584 72.4406   3
  23   5  -2 36.6835 42.6057   3
 -23   5   2 3.56646 17.5964   1
 -22   5   2-24.9038 40.5775   1
  22   5  -2-10.4659 24.8078   3
  21   5  -2 37.0095 48.2974   3
 -21   5   2 10.9996 27.9113   1
 -20   5   2-147.334 91.9924   1
  20   5  -2-15.5956 55.0785   3
  19   5  -2 24.0220 32.6884   3
 -19   5   2 108.361 77.0886   1
 -18   5   2 116.372 80.0309   1
  18   5  -2 224.932 89.3372   3
 -17   5   2 218.254 111.101   1
  17   5  -2 157.272 82.1081   3
 -16   5   2-20.3420 41.7022   1
  16   5  -2-24.5186 40.1503   3
 -15  -5   2 210.496 45.6938   1
 -15  -5   2 345.429 116.780   2
 -15   5   2 174.021 81.6901   1
  15   5  -2 324.023 106.010   3
 -14  -5   2 150.282 39.4014   1
 -14  -5   2 149.892 37.3390   1
 -14   5   2 214.990 95.3685   1
 -14  -5   2 106.178 66.0380   2
  14   5  -2 114.266 53.1602   3
 -13  -5   2 364.000 108.873   2
  13   5  -2 456.937 118.644   3
 -13   5   2 387.726 125.691   1
 -13  -5   2 330.662 56.2462   1
 -12  -5   2 259.080 91.0771   2
 -12  -5   2 187.232 43.1057   1
  12   5  -2 261.020 92.1253   3
 -12   5   2 256.941 93.2835   1
 -11  -5   2 198.138 45.7280   1
  11   5  -2 210.054 78.7535   3
 -11   5   2 283.986 100.933   1
 -11  -5   2 198.919 73.0017   2
 -11   5   2 213.961 36.0290   3
 -10   5   2 180.315 79.6252   1
 -10  -5   2 288.462 88.7869   2
 -10   5   2 207.003 40.1521   3
  10   5  -2 257.240 83.8826   3
 -10  -5   2 211.694 47.5827   1
  -9  -5   2 91.3762 45.9671   2
  -9   5   2 69.8091 25.4915   3
   9   5  -2 76.5706 41.9928   3
  -9   5   2 90.1972 49.8926   1
  -9  -5   2 68.3491 25.4536   1
  -8   5   2 1109.62 106.170   3
  -8   5   2 955.552 172.462   1
   8   5  -2 1057.09 160.544   3
  -8  -5   2 1031.38 142.399   2
  -8  -5   2 1154.92 120.890   1
  -7  -5   2 100.710 35.9519   1
  -7   5   2 70.5283 44.9821   1
  -7   5   2 105.599 32.5253   3
   7   5  -2 61.5127 40.6309   3
  -7  -5   2 128.012 51.7707   2
   7  -5  -2 84.3957 58.1407   2
  -6   5   2 91.5757 54.4017   1
   6  -5  -2 34.1760 35.5687   1
  -6  -5   2 35.9697 23.0298   1
  -6   5   2 30.4627 24.0664   3
   6   5  -2 58.3759 32.4707   3
  -6  -5   2 67.4664 42.1356   2
   6  -5  -2-1.72528 24.2136   2
  -5   5   2 286.566 85.6944   1
  -5   5   2 355.939 68.3742   3
  -5  -5   2 377.808 73.7164   2
  -5  -5   2 331.720 73.7136   1
   5  -5  -2 436.521 167.799   2
   5   5  -2 257.128 75.5093   3
   5   5  -2 257.099 68.8055   1
   5  -5  -2 357.194 103.260   1
  -4  -5   2-18.2386 23.6388   1
  -4  -5   2 41.3374 30.3915   3
   4   5  -2-1.68456 15.1986   1
  -4   5   2 7.41760 14.4991   1
  -4  -5   2 20.5260 19.6940   2
   4   5  -2 3.48300 31.7308   3
   4  -5  -2-26.0152 55.2398   2
  -4   5   2 29.0881 25.3011   3
   4  -5  -2 4.54038 6.91281   1
   3   5  -2 160.274 56.8921   1
   3   5  -2 68.7665 41.6627   3
  -3   5   2 114.525 45.9025   3
   3  -5  -2 127.883 57.2815   1
  -3  -5   2 121.418 48.3589   1
  -3  -5   2 152.413 58.4348   3
   3  -5  -2 147.568 101.724   2
   2   5  -2 58.9821 34.0250   3
   2   5  -2 127.573 48.9117   1
   2  -5  -2 169.154 92.3412   2
  -2  -5   2 55.1077 32.4229   3
   2  -5  -2 98.8277 47.5845   1
  -2   5   2 87.0313 34.5972   3
  -2  -5   2 74.5699 39.6418   1
   2  -5  -2 149.214 55.0997   3
  -1   5   2 689.713 108.587   3
   1  -5  -2 726.584 171.594   2
   1   5  -2 775.667 122.075   3
   1  -5  -2 644.548 118.508   1
  -1  -5   2 722.777 126.947   1
  -1  -5   2 678.615 109.894   3
   1  -5  -2 854.088 125.353   3
   0  -5   2 387.442 92.0911   1
   0  -5  -2 365.601 116.558   2
   0   5  -2 231.773 65.5865   3
   0  -5  -2 355.631 84.1574   1
   0   5   2 263.070 66.3461   3
   0   5   2 358.172 79.8238   1
   0  -5   2 323.173 72.8249   3
   0  -5  -2 400.895 85.3537   3
  -1   5  -2 24.0511 11.0113   3
   1  -5   2 76.8487 43.1644   1
  -1  -5  -2 98.3051 59.0048   2
   1   5   2 36.5912 23.5775   3
   1   5   2 104.501 45.6383   1
   1  -5   2 34.2354 23.8269   3
  -1  -5  -2 41.2351 32.3483   3
  -2  -5  -2-21.1090 33.5124   2
   2  -5   2 11.4268 33.3121   1
   2   5   2-3.56816 18.1392   1
  -2  -5  -2 26.0357 36.3414   3
   2  -5   2-13.9345 18.5017   3
  -2   5  -2-7.17534 12.7699   3
   2   5   2 36.5543 71.5804   3
  -3   5  -2 401.201 101.318   1
   3   5   2 499.272 81.8245   1
  -3   5  -2 618.911 98.1134   3
   3  -5   2 709.904 144.475   1
   3   5   2 528.759 102.721   3
   3  -5   2 570.520 88.5024   3
  -3  -5  -2 637.149 119.266   2
  -3  -5  -2 534.500 104.662   3
   4  -5   2-97.0364 54.8314   1
   4   5   2 31.2304 15.3069   3
  -4   5  -2-13.9324 36.9882   1
  -4   5  -2 34.7121 20.1533   3
  -4  -5  -2 14.2082 10.6153   2
  -4  -5  -2 27.2368 22.2156   2
   4   5   2 28.3820 18.1045   1
  -5   5  -2 273.665 87.9844   1
   5   5   2 360.485 57.5295   1
   5  -5   2 381.249 68.1119   3
  -5  -5  -2 223.071 47.2793   2
   5  -5   2 422.409 117.237   1
  -5   5  -2 433.790 77.0746   3
   5   5   2 364.581 88.6411   3
  -6   5  -2 168.978 65.8989   1
   6   5   2 197.815 72.6387   3
   6  -5   2 184.434 46.7235   3
  -7   5  -2 96.9827 59.2888   1
   7   5   2 109.048 54.4733   3
   7  -5   2 53.7463 21.6801   3
  -8   5  -2 110.974 58.3136   1
   8  -5   2 143.938 39.2866   3
   8   5   2 141.992 58.5655   3
   9   5   2 116.730 60.3154   3
  -9   5  -2 184.037 88.9062   1
  10   5   2 649.195 131.341   3
 -10   5  -2 710.625 160.806   1
  11   5   2 1980.51 237.808   3
 -11   5  -2 1929.95 271.563   1
 -12   5  -2 93.2443 61.3322   1
  12   5   2 46.2905 39.8497   3
  13   5   2 34.7726 46.0530   3
 -13   5  -2 32.6831 37.5983   1
  14   5   2 14.4544 31.9164   3
 -14   5  -2-16.1990 27.9807   1
  15   5   2 17.5950 37.2454   3
 -15   5  -2 85.5195 67.6947   1
  16   5   2 53.9878 38.9685   3
 -16   5  -2-28.3899 38.0061   1
  17   5   2 445.566 118.149   3
 -17   5  -2 403.469 145.351   1
  18   5   2 80.6182 30.7080   3
 -18   5  -2 123.314 80.4211   1
  19   5   2-69.5085 57.9304   3
 -19   5  -2 32.4031 49.8701   1
 -20   5  -2 77.9265 61.0223   1
  20   5   2-12.3139 14.0099   3
  21   5   2-4.27889 54.3222   3
 -21   5  -2-5.13698 21.5637   1
 -22   5  -2-10.0216 27.0122   1
  22   5   2 84.0990 66.8098   3
 -23   5  -2-2.30189 18.4488   1
  23   5   2 16.7454 36.3541   3
  24   5   2 65.9058 56.7149   3
  21   6  -2-54.5767 56.1970   3
 -20   6   2-72.1895 68.5064   1
  20   6  -2 4.87287 16.7354   3
  19   6  -2-74.9779 64.7124   3
 -19   6   2 30.9783 53.4737   1
  18   6  -2 18.6037 42.3746   3
 -18   6   2 39.3597 48.8530   1
  17   6  -2 35.4914 45.6471   3
 -17   6   2-4.26337 19.3262   1
  16   6  -2 387.685 116.239   3
 -16   6   2 374.030 145.072   1
  15   6  -2 95.0472 70.2797   3
 -15   6   2 109.608 73.8581   1
  14   6  -2-46.0713 66.6848   3
 -14   6   2-90.6412 65.7990   1
  13   6  -2 927.205 183.387   3
 -13   6   2 861.010 198.507   1
 -12   6   2 733.901 177.520   1
 -12  -6   2 745.866 141.223   2
  12   6  -2 613.475 146.903   3
 -11  -6   2-31.3330 42.2243   2
 -11   6   2 54.4113 59.4387   1
 -11   6   2 9.65646 13.4532   3
  11   6  -2-22.3595 48.4649   3
 -10   6   2 200.075 94.5243   1
 -10   6   2 187.514 46.9453   3
 -10  -6   2 280.101 88.4158   2
  10   6  -2 150.761 65.5162   3
 -10  -6   2 242.667 52.1240   1
   9   6  -2 216.952 88.1063   3
  -9   6   2 273.073 107.197   1
  -9   6   2 351.307 66.0535   3
  -9  -6   2 369.257 95.7286   2
  -9  -6   2 272.148 59.3262   1
  -8  -6   2 948.983 118.696   1
  -8   6   2 856.756 107.667   3
  -8   6   2 1156.58 203.016   1
   8   6  -2 819.513 157.206   3
  -8  -6   2 838.107 131.364   2
  -7   6   2-10.4209 27.6576   3
   7   6  -2 16.0888 29.2268   3
  -7  -6   2 43.3986 27.0788   1
  -7  -6   2 4.73019 31.9769   2
  -7   6   2 40.8228 33.7026   1
  -6   6   2 51.9414 40.3075   1
  -6   6   2 62.6318 28.4441   3
  -6  -6   2 96.7745 42.0309   1
  -6  -6   2 88.8505 43.7485   2
   6   6  -2 110.237 60.9113   3
   5  -6  -2 911.019 252.606   2
   5   6  -2 737.826 143.387   3
   5   6  -2 832.081 139.973   1
  -5   6   2 784.425 114.828   3
  -5  -6   2 752.541 111.012   2
  -5   6   2 675.521 145.577   1
  -5  -6   2 774.236 126.925   1
   4   6  -2 1141.56 169.358   3
  -4   6   2 1091.29 175.952   1
  -4   6   2 1164.76 142.003   3
   4  -6  -2 1542.42 318.304   2
  -4  -6   2 1204.68 133.449   2
  -4  -6   2 1359.24 172.741   1
   3   6  -2 786.187 140.520   3
  -3   6   2 836.391 150.279   1
  -3   6   2 860.621 124.938   3
   3  -6  -2 889.556 228.749   2
  -3  -6   2 800.704 111.805   2
  -3  -6   2 858.312 144.471   1
  -2   6   2 47.6235 36.3352   1
   2   6  -2 84.7996 46.7237   3
   2  -6  -2 19.5203 17.6963   2
  -2  -6   2 33.4852 25.5169   1
  -2   6   2 82.9258 39.1979   3
   1   6  -2-9.74338 13.6027   1
  -1  -6   2-27.7371 28.0455   1
  -1   6   2 8.16507 14.7852   3
   1   6  -2-1.20819 24.6666   3
   1  -6  -2 29.7770 41.0721   2
   0  -6   2 539.367 126.399   1
   0   6  -2 482.123 119.551   1
   0  -6  -2 539.379 152.889   2
   0   6  -2 436.759 95.0613   3
   0   6   2 593.733 114.561   3
   1  -6   2 142.307 75.5832   1
   1  -6   2 175.957 54.5632   3
  -1   6  -2 222.051 73.1161   3
  -1   6  -2 135.216 59.0418   1
   1   6   2 170.260 54.2142   3
  -1  -6  -2 278.241 106.133   2
   2  -6   2 44.3480 46.8346   1
   2   6   2-15.1942 19.8153   3
   2   6   2 8.55824 8.36876   1
  -2   6  -2 8.94528 10.1110   3
  -2   6  -2-51.3195 39.6675   1
  -2  -6  -2 41.5268 39.6854   2
   2  -6   2-26.7283 22.2310   3
   3   6   2-12.9990 19.2178   3
  -3  -6  -2 44.2314 42.8898   2
  -3   6  -2 8.87469 15.5443   3
  -3   6  -2-83.9066 51.4209   1
   3  -6   2-34.6983 32.7411   3
   3   6   2-17.5954 29.4147   1
   4  -6   2-38.5128 35.7407   3
  -4   6  -2-35.9033 50.4079   1
  -4  -6  -2 13.6479 19.1579   2
   4   6   2 10.8252 12.9330   1
  -4   6  -2 32.4080 31.4119   3
   4   6   2 61.8553 35.8451   3
  -4  -6  -2 3.29095 5.67630   2
  -5  -6  -2 690.177 65.6621   2
  -5   6  -2 908.522 176.024   1
   5   6   2 987.776 112.694   1
  -5   6  -2 991.757 129.842   3
   5   6   2 1035.12 162.881   3
   5  -6   2 1091.61 134.011   3
  -5  -6  -2 839.626 105.947   2
  -6   6  -2 31.3546 33.9302   1
   6   6   2 45.2607 48.4935   3
   6  -6   2 13.3022 32.7023   3
   7  -6   2 59.4582 26.7193   3
  -7   6  -2-31.4813 34.7729   1
   7   6   2-24.9643 14.7651   3
  -8   6  -2 262.705 99.8865   1
   8   6   2 366.209 109.797   3
   9   6   2 32.4870 33.8881   3
  -9   6  -2 48.1058 40.4364   1
  10   6   2 18.3795 35.2721   3
 -10   6  -2 19.1229 39.4868   1
 -11   6  -2 75.4663 59.2684   1
  11   6   2 234.269 79.4683   3
 -12   6  -2-103.441 68.5300   1
  12   6   2 3.22485 14.6088   3
 -13   6  -2 4.95751 18.2517   1
  13   6   2 58.5785 31.5765   3
 -14   6  -2 43.9009 54.4250   1
  14   6   2-17.4137 47.4976   3
 -15   6  -2 270.644 123.473   1
  15   6   2 388.264 118.543   3
  16   6   2-5.64645 21.2132   3
 -16   6  -2-47.8711 51.4435   1
  17   6   2 43.6138 47.6715   3
 -17   6  -2-4.36616 18.9550   1
  18   6   2 67.7405 46.6573   3
 -18   6  -2 183.751 114.602   1
  19   6   2 78.4507 36.7135   3
 -19   6  -2-43.8037 52.7213   1
  20   6   2 86.6429 67.5436   3
 -20   6  -2 137.703 93.8749   1
  21   6   2 639.689 170.353   3
 -18   7   2-20.7984 38.1643   1
 -17   7   2 509.133 176.049   1
  17   7  -2 643.245 181.387   3
  16   7  -2 183.341 77.0716   3
 -16   7   2 150.056 93.0438   1
  15   7  -2 35.3499 28.8355   3
 -15   7   2 62.0417 59.1678   1
 -14   7   2 46.4259 73.1733   1
  14   7  -2-5.76996 42.4613   3
 -13   7   2 68.3916 52.3783   1
  13   7  -2 94.4958 67.5779   3
 -12   7   2-9.96251 23.9049   1
  12   7  -2 7.98187 12.3342   3
 -11   7   2 52.3986 67.5855   1
  11   7  -2 40.7387 55.3552   3
 -10   7   2 16.0825 23.1586   3
  10   7  -2 27.8275 38.2361   3
 -10   7   2-2.91607 41.3859   1
   9   7  -2 50.4149 31.0797   3
  -9   7   2 115.518 44.2277   3
  -9   7   2 224.114 96.6453   1
   8   7  -2-0.13297 24.8525   3
  -8   7   2 14.2086 9.29788   1
  -8   7   2 39.9986 26.3617   3
  -7   7   2 14.9011 25.1165   1
  -7   7   2 17.0537 18.8172   3
  -7  -7   2 60.8814 34.1329   2
   7   7  -2 27.8538 31.5097   3
  -6  -7   2 55.0593 46.3847   2
  -6   7   2-17.2805 20.4150   3
   6   7  -2-9.29285 27.3311   3
  -6   7   2-2.13549 17.1298   1
  -5  -7   2 429.457 89.4926   2
  -5   7   2 254.101 74.9052   3
   5   7  -2 340.962 105.905   3
  -5   7   2 462.122 131.501   1
   4   7  -2 342.525 101.677   3
  -4   7   2 372.738 89.8105   3
  -4  -7   2 383.840 87.4679   2
  -4   7   2 289.660 105.951   1
  -3   7   2 767.928 132.612   3
  -3   7   2 668.838 146.951   1
   3   7  -2 736.318 146.512   1
   3   7  -2 759.440 149.713   3
  -3  -7   2 956.098 166.002   1
  -3  -7   2 699.359 114.722   2
   2   7  -2-14.0908 22.4007   3
   2   7  -2-5.22522 36.1758   1
  -2   7   2 6.10273 15.0627   1
  -2   7   2-32.4751 48.7517   3
  -2  -7   2-59.6096 43.0038   1
   1   7  -2 67.1751 51.0133   3
   1   7  -2 165.852 81.8356   1
   1  -7  -2 140.151 93.6185   2
  -1   7   2 67.7741 41.4356   1
  -1  -7   2 165.939 73.3237   1
  -1   7   2 122.788 56.4607   3
   0   7  -2-16.2117 33.6250   1
   0   7   2-29.5502 41.4351   3
   0   7   2-30.3550 28.9815   1
   0  -7  -2-5.19356 22.1119   2
   0   7  -2 10.5736 33.5311   3
  -1   7  -2 5.44118 17.4051   1
   1   7   2 38.1210 57.4175   3
  -1   7  -2 5.65367 11.4322   3
   1   7   2-2.81919 16.5986   1
  -2   7  -2 18.6528 17.8096   3
  -2   7  -2 34.3612 33.6823   1
   2   7   2-17.4257 12.9913   3
  -3   7  -2-17.9865 28.0611   3
  -3   7  -2 27.1033 41.6338   1
   3   7   2-23.1533 33.5304   3
   4   7   2 79.9755 39.2942   1
  -4   7  -2 146.038 57.9916   3
  -4   7  -2 119.986 63.8182   1
  -4  -7  -2 116.388 32.0694   2
   4   7   2 109.341 58.1595   3
   5   7   2 696.940 150.012   3
   5   7   2 586.027 95.6222   1
  -5   7  -2 789.737 128.757   3
  -5   7  -2 679.622 164.660   1
  -6   7  -2 0.16025 24.7193   1
   6   7   2 8.06809 38.3391   3
   7   7   2 680.545 152.815   3
  -7   7  -2 778.242 185.538   1
  -8   7  -2 363.013 137.007   1
   8   7   2 137.221 59.6353   3
   9   7   2-1.47973 41.6915   3
  -9   7  -2-109.404 71.4820   1
 -10   7  -2-19.4957 32.1026   1
  10   7   2 30.4818 43.0220   3
 -11   7  -2-117.382 76.7094   1
  11   7   2-84.9162 57.0906   3
  12   7   2-31.3148 16.9545   3
 -12   7  -2-18.6235 31.4705   1
  13   7   2-57.4457 49.2789   3
 -13   7  -2 13.8643 29.9720   1
  14   7   2 187.731 92.0253   3
 -14   7  -2 145.602 102.268   1
 -15   7  -2 87.6099 59.4310   1
  15   7   2 71.9002 56.4122   3
 -16   7  -2 76.0399 64.5949   1
  16   7   2-60.9340 72.8195   3
 -17   7  -2-63.0128 63.8687   1
  17   7   2 33.7297 57.9606   3
 -15   8   2 185.513 123.493   1
 -14   8   2-58.8961 59.6606   1
  13   8  -2 155.729 85.6124   3
 -13   8   2 30.5883 42.9290   1
  12   8  -2-12.4771 27.6716   3
 -12   8   2-19.5654 34.7586   1
 -11   8   2-54.7745 54.4224   1
  11   8  -2 47.4457 68.2321   3
 -10   8   2 35.3375 45.9032   1
  10   8  -2 12.3427 32.7845   3
  -9   8   2 50.6166 50.2276   1
   9   8  -2 4.61888 44.0648   3
  -8   8   2 166.762 87.7301   1
   8   8  -2 44.5505 31.2312   3
   7   8  -2 12.8317 21.1889   3
  -7   8   2 35.2238 26.7839   3
  -7   8   2-0.17375 34.7059   1
   6   8  -2 187.304 93.1698   3
  -6   8   2 117.888 77.8929   1
  -6   8   2 130.368 61.5271   3
  -5   8   2 31.6309 39.1538   1
  -5   8   2 93.5081 47.6470   3
   5   8  -2 48.3580 42.8551   3
   4   8  -2 2.16362 17.2620   3
  -4   8   2 21.9690 16.1799   1
  -4   8   2 60.8387 40.3847   3
   4   8  -2 70.5468 57.1306   1
  -3   8   2 197.626 81.7015   1
  -3   8   2 164.957 71.8259   3
   3   8  -2 144.131 69.5579   1
   3   8  -2 169.678 86.0567   3
   2   8  -2 10.9965 21.1315   3
   2   8  -2 35.7781 35.8321   1
  -2   8   2 38.2547 33.0498   3
  -2   8   2-97.9659 58.6524   1
  -1   8   2 42.9156 38.1322   1
   1   8  -2 112.650 64.2882   1
   1   8  -2 44.0515 43.8388   3
  -1   8   2 71.5558 51.5743   3
   0   8   2-43.7918 42.8097   3
   0   8   2 23.1225 26.8835   1
   0   8  -2-33.9626 31.9011   3
   0   8  -2 12.3134 23.2019   1
  -1   8  -2-92.8846 52.3064   3
   1   8   2-0.60241 10.3779   3
  -1   8  -2-8.30728 28.5184   1
   1   8   2-69.9106 45.1230   1
  -2   8  -2 140.653 76.0178   1
   2   8   2 117.675 66.3564   3
  -2   8  -2 39.9115 31.6553   3
  -3   8  -2 56.0966 49.6389   1
   3   8   2 48.8505 32.1014   3
  -3   8  -2 164.981 69.1325   3
  -4   8  -2 4.68553 18.1418   3
  -4   8  -2-1.71819 12.7590   1
   4   8   2-60.4865 48.9814   3
  -5   8  -2 42.7952 80.2159   1
   5   8   2-38.1388 37.6014   3
  -6   8  -2 78.5701 61.4475   1
   6   8   2-34.2881 57.1234   3
  -7   8  -2 33.2697 60.4179   1
   7   8   2 110.112 51.5967   3
  -8   8  -2-21.1919 34.5805   1
   8   8   2-34.7860 53.2655   3
   9   8   2-18.5872 49.6386   3
  -9   8  -2 121.563 97.1766   1
 -10   8  -2 193.867 114.613   1
  10   8   2 233.282 106.427   3
  11   8   2-2.36430 37.2010   3
 -11   8  -2 9.49934 25.3100   1
 -12   8  -2 1477.45 306.456   1
  12   8   2 51.4953 55.3954   3
  13   8   2 139.182 71.7030   3
 -13   8  -2 182.843 97.5752   1
 -14   8  -2-79.3268 71.1204   1
 -12   9   2-68.7412 65.9834   1
 -11   9   2 41.4253 50.7310   1
 -10   9   2 91.4638 72.5995   1
  -9   9   2-91.0297 71.2318   1
  -8   9   2 9.26977 24.5007   1
   8   9  -2-25.9521 46.5553   3
   7   9  -2-34.3468 40.6681   3
  -7   9   2 114.897 75.8698   1
  -6   9   2 51.0248 58.1630   1
   6   9  -2 151.817 91.1206   3
   5   9  -2 65.0950 55.1006   3
  -5   9   2 34.0259 41.0088   1
  -4   9   2 96.8612 54.8073   3
  -4   9   2 62.1401 52.8770   1
   4   9  -2-37.5536 40.3832   3
   3   9  -2 9.50150 14.2856   3
  -3   9   2 9.26540 29.7004   3
  -2   9   2 2.56432 15.3408   3
   2   9  -2 36.6661 45.9165   3
   1   9  -2 19.2072 14.4310   3
  -1   9   2-2.65709 13.3690   3
   0   9   2-169.908 77.4652   3
   0   9  -2 44.8750 43.5620   3
   1   9   2 13.3549 59.3730   3
  -1   9  -2-6.18596 19.7825   3
  -2   9  -2-144.637 82.0678   1
  -2   9  -2 59.3269 37.8525   3
   2   9   2 29.0333 39.3661   3
  -3   9  -2 16.0254 39.8901   1
   3   9   2-8.32303 26.2741   3
  -4   9  -2 53.2536 52.2170   1
   4   9   2-20.2954 30.9341   3
  -5   9  -2 220.698 106.762   1
   5   9   2 349.057 118.456   3
   6   9   2 66.2395 58.6939   3
  -6   9  -2 159.205 92.5244   1
   7   9   2 39.0253 19.3535   3
  -7   9  -2 61.7391 59.2937   1
   8   9   2 214.574 94.1324   3
  -8   9  -2 242.250 120.065   1
  -9   9  -2 95.7116 76.2735   1
 -10   9  -2 9.39710 29.0791   1
 -11   9  -2-134.185 93.0304   1
   2  10  -2 55.9958 49.8040   3
   1  10   2-30.1162 37.2251   3
   2  10   2 113.967 80.1293   3
 -29   0   3 203.206 109.943   1
 -28   0   3 22.1195 37.8334   1
 -27   0   3-1.70802 15.6691   1
 -26   0   3-64.9689 59.6188   1
 -25   0   3-99.4787 71.7826   1
 -24   0   3 61.4040 57.3889   1
 -23   0   3-9.83589 46.5590   1
 -22   0   3 37.4320 56.2978   1
 -21   0   3-4.04998 15.3080   1
 -21   0   3-26.3011 28.3724   3
 -20   0   3 14.7023 43.4267   1
 -20   0   3-4.20272 19.1263   3
 -19   0   3 104.738 63.4952   1
 -18   0   3-6.45184 15.5056   1
 -17   0   3 4.24675 31.8741   1
 -16   0   3-20.6416 20.3998   3
 -16   0   3-7.96595 15.5553   1
 -16   0   3 24.8568 45.7225   2
 -15   0   3-7.13727 5.60956   3
  15   0  -3-57.1393 96.1307   2
 -15   0   3 29.4637 52.2775   2
 -15   0   3 3.72093 17.6324   1
  14   0  -3-30.2769 48.4518   2
 -14   0   3-27.6608 48.4739   2
 -14   0   3 0.41033 7.65948   3
 -14   0   3-16.6586 29.0509   1
  13   0  -3 0.21561 47.8025   2
 -13   0   3 19.7303 19.5823   3
 -13   0   3 7.85323 62.9626   2
 -13   0   3 6.88545 17.7859   1
 -12   0   3 2.36651 34.9778   2
 -12   0   3-5.11571 7.34092   3
  12   0  -3-0.39726 57.8557   2
 -12   0   3 22.5355 23.9692   1
 -11   0   3 11.3475 12.3617   3
 -11   0   3-33.3528 52.4375   2
  11   0  -3 40.5092 57.9592   2
 -11   0   3-14.3550 11.3672   1
  10   0  -3-8.67749 21.4674   2
 -10   0   3-1.46743 10.2985   3
 -10   0   3 26.3778 70.7430   2
  -9   0   3-16.9701 17.7722   3
   9   0  -3-124.319 68.8064   2
  -8   0   3 20.7774 13.1182   3
   8   0  -3-3.76254 15.6537   2
  -7   0   3-3.14167 14.7705   3
   7   0  -3-13.0238 25.1691   2
   6   0  -3 2.55698 31.5057   2
   5   0  -3 11.0903 36.5204   2
   4   0  -3 33.7131 37.9257   2
   3   0  -3 0.74896 22.1433   2
   3   0   3-0.02925 6.52138   1
   4   0   3 8.14564 4.17819   1
  -5   0  -3 11.9689 17.1485   1
   5   0   3 3.71503 12.7190   1
  -6   0  -3-8.95986 17.3783   1
   6   0   3-3.68728 10.4965   1
   6   0   3 1.93557 10.4228   3
   7   0   3 14.9334 17.2325   3
   7   0   3 9.85011 19.2897   1
  -7   0  -3 13.0658 21.1709   1
  -8   0  -3-1.35674 16.5705   1
   8   0   3 1.81905 13.2010   1
   8   0   3 7.21456 11.5926   3
   9   0   3-7.49362 21.8795   1
  -9   0  -3-6.49310 11.6959   1
   9   0   3 12.0226 11.0659   3
  10   0   3-1.38691 9.67543   1
 -10   0  -3 3.03254 12.0142   1
  10   0   3 5.60249 5.65684   3
  11   0   3 16.6708 47.3420   2
  11   0   3-14.5564 15.1074   3
  11   0   3 2.59751 18.8899   1
 -11   0  -3-10.2100 17.8790   1
  12   0   3-9.69372 7.87660   3
  12   0   3-9.18498 14.0043   1
  12   0   3 27.3003 25.4952   2
 -12   0  -3 0.37108 14.2457   1
 -13   0  -3-2.17642 14.1819   1
  13   0   3 66.6278 101.060   2
  13   0   3-54.5143 35.7675   1
  13   0   3 4.36529 16.7917   3
 -14   0  -3 12.7379 10.8774   1
  14   0   3 38.2703 26.6169   3
  14   0   3 43.1030 59.4630   2
  14   0   3 37.9867 37.4672   1
  15   0   3 18.8176 22.7957   3
  15   0   3 45.9760 81.3300   2
 -15   0  -3-20.8039 25.4854   1
  15   0   3 34.1533 37.1119   1
  16   0   3-4.48897 21.2039   3
  16   0   3-64.3325 68.2589   2
 -16   0  -3-12.6603 23.1724   1
 -17   0  -3 3.13830 12.7519   1
  17   0   3-11.2376 27.2021   3
  18   0   3 8.13030 26.4244   3
 -18   0  -3 24.2165 30.6940   1
  19   0   3-3.13839 9.38989   3
 -19   0  -3 13.3028 30.0734   1
 -20   0  -3 49.6975 41.4127   1
  20   0   3-20.6395 29.1640   3
  21   0   3-10.8346 15.3087   3
 -21   0  -3-50.2512 43.0575   1
 -22   0  -3 23.4369 41.5292   1
  22   0   3 33.9658 27.6941   3
 -23   0  -3-72.0574 54.3532   1
  23   0   3-3.15163 10.5540   3
 -24   0  -3 38.9125 41.6388   1
 -25   0  -3-33.2504 39.8359   1
 -26   0  -3-87.8758 64.9360   1
 -27   0  -3 141.438 83.7576   1
 -28   0  -3 23.8555 36.6965   1
 -29   1   3 72.1419 69.0123   1
 -28   1   3 110.103 97.0666   1
 -28  -1   3 17.1264 32.0012   1
 -27  -1   3 87.4938 83.2298   1
 -27   1   3 64.6264 64.0725   1
 -26  -1   3-42.0270 45.9154   1
 -26   1   3 53.5090 66.3025   1
 -25   1   3 45.6131 49.4079   1
 -25  -1   3 108.741 69.1856   1
 -24   1   3 126.266 77.1998   1
 -24  -1   3 217.538 96.5432   1
 -23  -1   3 479.827 144.882   1
 -23   1   3 350.561 129.969   1
 -22   1   3 494.316 155.369   1
 -22  -1   3 442.729 136.858   1
 -21   1   3 119.986 80.9208   1
 -21  -1   3 233.104 91.7404   1
 -21   1   3 168.766 42.1906   3
 -20   1   3 59.8208 50.0081   1
 -20  -1   3 23.8427 38.0699   1
 -20   1   3 47.2405 23.6233   3
 -19   1   3 182.192 41.6347   3
 -19   1   3 214.685 96.6300   1
 -19  -1   3 227.002 66.6404   3
 -19  -1   3 282.456 97.7255   1
 -18  -1   3 39.9321 32.8244   1
 -18  -1   3 64.3217 37.6837   3
 -18   1   3 12.0488 19.1405   1
 -18   1   3 44.5854 22.2928   3
 -17  -1   3 215.345 59.5411   3
 -17   1   3 235.786 50.4875   3
 -17  -1   3 224.825 84.6410   1
  17   1  -3 270.776 138.720   2
 -17   1   3 275.635 96.3277   1
 -17  -1   3 337.342 143.724   2
 -16   1   3 644.897 149.757   1
 -16  -1   3 705.909 139.583   1
 -16   1   3 673.013 78.9030   3
  16   1  -3 845.466 219.478   2
 -16  -1   3 701.418 109.713   3
 -16  -1   3 697.601 211.796   2
 -15  -1   3 620.994 127.195   1
  15   1  -3 609.229 180.381   2
 -15   1   3 630.301 147.928   1
 -15  -1   3 579.885 180.630   2
 -15   1   3 628.596 74.8319   3
 -14  -1   3 181.225 71.9564   1
 -14   1   3 166.153 39.6288   3
  14   1  -3 202.695 61.2134   3
  14   1  -3 121.454 72.9492   2
 -14  -1   3 170.060 62.8217   2
 -14   1   3 201.846 80.1943   1
  14  -1  -3 71.1991 32.5933   2
  13   1  -3 3307.61 377.336   2
 -13   1   3 3226.13 450.864   2
 -13  -1   3 3223.94 415.492   2
  13   1  -3 3130.92 224.744   3
 -13   1   3 2814.74 150.658   3
 -13   1   3 2794.59 282.622   1
  13  -1  -3 3746.54 498.244   2
 -12   1   3 2.07686 11.8398   3
 -12  -1   3 15.0293 12.4916   3
  12   1  -3 50.1913 32.0080   3
  12   1  -3 126.337 84.5092   2
 -12   1   3 50.0890 39.1956   1
  12  -1  -3 58.8204 62.6324   2
 -12  -1   3 63.0127 46.6535   2
 -11  -1   3-2.37270 20.7002   2
 -11  -1   3 11.0989 8.61905   3
  11   1  -3 20.7637 28.1553   3
  11  -1  -3 2.63250 41.2106   2
  11   1  -3 33.5804 39.6235   2
 -11   1   3 8.24043 6.36211   3
  10   1  -3 488.589 80.8601   3
 -10   1   3 507.132 57.8370   3
 -10  -1   3 467.259 77.7055   3
  10  -1  -3 671.182 185.728   2
 -10  -1   3 623.491 171.230   2
  10   1  -3 518.077 132.006   2
   9   1  -3 1013.63 163.950   2
   9   1  -3 853.139 104.146   3
  -9   1   3 921.374 75.6399   3
  -9  -1   3 982.645 197.353   2
   9  -1  -3 1397.03 264.864   2
  -9  -1   3 849.522 97.6411   3
   8   1  -3 199.134 62.0874   2
  -8  -1   3 245.879 90.5283   2
   8   1  -3 201.311 51.4617   3
   8  -1  -3 190.889 84.2273   2
   7  -1  -3 346.789 114.566   2
   7   1  -3 263.881 70.1485   2
  -7  -1   3 412.727 108.495   2
   7   1  -3 286.495 54.6684   3
   6   1  -3 4182.26 202.558   3
  -6  -1   3 4698.09 332.357   2
   6  -1  -3 4779.31 409.945   2
   6   1  -3 4113.28 257.659   2
   5  -1  -3 302.555 93.4825   2
  -5  -1   3 274.671 64.8817   2
   5   1  -3 268.781 52.5972   3
   5   1  -3 302.505 62.9631   2
   4  -1  -3 2216.97 236.858   2
   4   1  -3 1681.00 131.213   2
   3  -1  -3 15277.0 572.204   2
   3   1  -3 13123.3 325.122   2
   2   1  -3 5767.50 192.356   2
  -2  -1   3 5879.47 241.339   1
   2  -1  -3 6510.02 327.564   2
   1  -1  -3 4586.16 229.304   2
  -1  -1   3 4262.74 200.699   1
   0  -1   3 727.058 83.2374   1
   0  -1  -3 663.901 68.6168   2
   1  -1   3 5947.87 243.864   1
  -1  -1  -3 5950.68 153.570   2
   2   1   3 1516.84 87.2465   1
   2  -1   3 1634.00 132.162   1
  -3  -1  -3 22951.1 334.541   1
   3   1   3 23217.1 398.419   3
   3  -1   3 23504.6 513.518   1
   3   1   3 23065.0 323.780   1
  -4  -1  -3 2518.93 114.626   1
   4   1   3 2519.20 108.235   1
   4  -1   3 2449.13 172.449   1
   4   1   3 2433.33 138.426   3
  -5  -1  -3 18469.2 332.507   1
   5   1   3 18975.4 390.112   3
   5   1   3 18469.2 321.620   1
   5  -1   3 19284.5 515.801   1
   6   1   3 2744.59 138.517   1
  -6  -1  -3 2711.86 137.696   1
   6   1   3 2808.11 156.050   3
   6  -1   3 2901.97 210.841   1
  -7  -1  -3 2642.14 147.713   1
   7   1   3 2758.17 153.324   1
   7   1   3 2598.82 151.810   3
   7  -1   3 2797.59 220.198   1
   8  -1   3 2368.93 102.135   3
   8   1   3 2134.87 147.769   1
  -8  -1  -3 2105.96 141.828   1
  -8  -1  -3 2267.49 150.490   3
   8   1   3 2412.60 245.065   2
   8   1   3 2193.76 146.973   3
   8  -1   3 2332.91 210.826   1
   9   1   3 147.786 41.3539   1
   9   1   3 127.274 37.3392   3
   9   1   3 110.528 49.2171   2
   9  -1   3 105.345 48.2526   1
  -9   1  -3 148.150 56.8334   1
   9  -1   3 99.9896 20.3562   3
  -9  -1  -3 114.543 39.2641   3
  -9  -1  -3 110.251 33.2705   1
  10   1   3 169.415 45.2900   3
 -10   1  -3 157.451 57.0039   1
  10   1   3 279.781 93.5942   2
 -10  -1  -3 185.721 46.9384   3
 -10  -1  -3 196.909 48.8956   1
  10  -1   3 246.675 35.8043   3
  10   1   3 221.016 54.0272   1
  10  -1   3 233.164 72.2566   1
  11   1   3 761.624 107.376   1
  11   1   3 835.488 104.514   3
 -11  -1  -3 798.150 99.1108   3
  11  -1   3 868.594 71.2716   3
 -11   1  -3 765.458 128.988   1
 -11  -1  -3 987.319 117.430   1
  11  -1   3 853.755 147.558   1
  11   1   3 1047.76 196.380   2
 -12  -1  -3 7.54611 7.71385   1
 -12   1  -3-4.63172 7.97693   1
  12  -1   3 22.2305 12.2766   3
  12   1   3 2.21233 12.7127   3
  12  -1   3 15.7663 13.9090   1
  12   1   3 0.15768 26.2943   2
 -12  -1  -3 30.1181 29.7394   3
  13   1   3 542.538 155.794   2
 -13   1  -3 377.380 96.4820   1
  13   1   3 408.153 75.3143   3
  13  -1   3 427.335 176.289   2
  13  -1   3 529.466 61.8545   3
  13  -1   3 492.341 121.064   1
 -13  -1  -3 500.921 92.8448   1
  14   1   3 411.652 82.0691   3
  14  -1   3 307.654 97.0492   1
  14  -1   3 480.019 60.4917   3
  14   1   3 442.623 150.040   2
 -14  -1  -3 433.019 88.7909   1
 -14   1  -3 525.672 118.619   1
  14  -1   3 488.542 185.772   2
 -15   1  -3 13.6918 24.2142   1
  15   1   3 51.3864 54.4423   2
 -15  -1  -3-6.51752 18.3946   1
  15  -1   3-18.0140 20.6037   3
  15  -1   3-24.6169 29.0225   1
  15   1   3 11.9140 26.6782   3
  16  -1   3 524.903 68.0825   3
  16   1   3 563.677 100.081   3
 -16   1  -3 535.179 128.790   1
 -16  -1  -3 578.673 112.511   1
  16   1   3 690.306 214.522   2
  17  -1   3 18.4244 13.1771   3
 -17  -1  -3 10.2995 30.8582   1
  17   1   3 10.6118 17.4947   3
 -17   1  -3 29.5329 35.3674   1
  17   1   3 59.3048 64.5904   2
  18   1   3 443.911 198.812   2
  18   1   3 278.342 72.9455   3
 -18  -1  -3 338.313 94.7253   1
  18  -1   3 265.462 50.8714   3
 -18   1  -3 296.228 104.097   1
  19   1   3-9.77865 27.7507   3
 -19  -1  -3 6.05398 11.4300   1
 -19   1  -3 0.13966 21.3580   1
  19  -1   3 8.04210 6.32259   3
  20  -1   3 41.7687 26.0970   3
 -20   1  -3 104.510 67.7997   1
  20   1   3 5.13413 22.4959   3
 -20  -1  -3 80.4593 50.4595   1
 -21   1  -3-19.0919 47.8750   1
 -21  -1  -3 4.11528 16.2630   1
  21   1   3-17.2201 29.6697   3
 -22  -1  -3-37.2426 36.0157   1
 -22   1  -3-18.6613 29.9643   1
  22   1   3 9.21271 25.5482   3
  23   1   3-37.2594 31.0550   3
 -23  -1  -3-14.6512 23.7088   1
 -23   1  -3-4.35578 18.1142   1
 -24  -1  -3-20.6082 28.5611   1
  24   1   3-40.4412 33.4281   3
 -24   1  -3 24.6206 32.3254   1
 -25  -1  -3-59.0021 48.9756   1
 -25   1  -3-43.3659 49.8327   1
 -26   1  -3 112.641 77.2142   1
 -27   1  -3 88.7090 70.7102   1
 -28   1  -3 462.486 159.946   1
 -29   1  -3 275.295 126.742   1
 -28   2   3 157.923 109.205   1
 -27   2   3 71.2380 68.6469   1
 -26   2   3 29.7648 40.1114   1
 -25  -2   3 30.6432 36.8659   1
 -25   2   3-42.5336 50.7202   1
 -24  -2   3 24.7667 19.7101   1
 -24   2   3-18.2375 34.5641   1
 -23  -2   3 85.4984 57.4898   1
 -23   2   3 4.80401 76.9947   1
 -22  -2   3 8.32267 47.4954   1
 -22   2   3 28.6587 52.1790   1
 -21  -2   3 345.843 107.576   1
 -21   2   3 220.060 102.586   1
 -20   2   3 257.645 113.405   1
 -20  -2   3 332.671 116.502   1
  19   2  -3 93.8727 45.8118   3
 -19   2   3 7.70740 27.9093   1
 -19  -2   3 64.8483 51.1606   1
 -19   2   3 52.5266 16.6050   3
 -18   2   3 6.51406 8.18283   3
 -18  -2   3 11.7076 33.3253   1
  18   2  -3 3.89644 26.8109   3
  18   2  -3-7.80675 36.0665   2
 -18   2   3 8.77834 30.9214   1
 -18  -2   3 78.3178 75.5088   2
  17   2  -3 48.9342 43.4318   3
 -17   2   3 5.09869 6.58071   3
 -17  -2   3 35.1232 52.0888   2
  17   2  -3 21.3860 77.6320   2
 -17  -2   3 33.2618 25.8356   1
 -17   2   3 69.8016 56.5248   1
  16   2  -3-6.64683 65.6569   2
 -16   2   3 28.4571 27.2282   1
  16   2  -3 59.1731 47.5074   3
 -16   2   3 16.4722 7.13198   3
 -16  -2   3-72.4034 85.0867   2
 -16  -2   3 44.9228 32.7543   1
 -15   2   3 1265.47 209.630   1
  15   2  -3 1293.18 167.430   3
 -15   2   3 1075.73 71.4146   3
  15   2  -3 1202.68 207.531   2
 -15  -2   3 1395.80 279.391   2
 -15  -2   3 1347.93 179.003   1
 -15  -2   3 1165.17 150.554   3
 -14  -2   3 8.61719 17.0189   2
 -14   2   3 28.3253 9.79803   3
 -14  -2   3 40.8087 31.2723   3
  14   2  -3 100.661 53.4049   3
  14   2  -3 13.1077 43.1193   2
 -14   2   3 44.9571 46.6129   1
  13   2  -3 479.329 116.689   2
 -13   2   3 561.597 51.4362   3
 -13   2   3 657.328 146.733   1
  13   2  -3 644.032 114.514   3
 -13  -2   3 510.902 96.9982   3
 -13  -2   3 649.257 188.917   2
  13  -2  -3 814.692 245.597   2
 -12  -2   3 307.088 73.2662   3
  12  -2  -3 538.442 206.487   2
  12   2  -3 256.838 78.6051   2
 -12  -2   3 431.744 148.855   2
  12   2  -3 323.194 80.5201   3
 -12   2   3 375.415 41.8538   3
  11   2  -3 207.872 74.0540   2
  11  -2  -3 250.312 123.798   2
  11   2  -3 211.920 60.9157   3
 -11   2   3 201.444 30.6803   3
 -11  -2   3 259.831 123.780   2
 -10  -2   3 2057.42 289.116   2
  10   2  -3 1762.72 191.254   2
  10   2  -3 1850.66 174.717   3
  10  -2  -3 2166.32 363.393   2
   9   2  -3 6169.17 330.027   2
   9   2  -3 6384.00 315.115   3
   9  -2  -3 8007.29 669.723   2
  -9  -2   3 7981.10 532.234   2
   8  -2  -3 2233.06 337.846   2
  -8  -2   3 1863.98 232.543   2
   8   2  -3 1746.60 158.854   3
   8   2  -3 1640.79 157.427   2
   7  -2  -3 404.257 141.668   2
   7   2  -3 311.246 63.8979   2
  -7  -2   3 316.340 86.1269   2
   7   2  -3 344.569 71.3968   3
   6  -2  -3 942.663 197.679   2
   6   2  -3 715.990 96.3954   3
  -6  -2   3 642.513 107.577   2
   6   2  -3 631.396 82.2090   2
   5  -2  -3 367.500 113.298   2
   5   2  -3 554.089 81.6711   3
  -5  -2   3 477.240 77.4517   1
  -5  -2   3 501.905 85.6024   2
   5   2  -3 582.935 73.2153   2
   4   2  -3 130.339 33.0066   2
   4  -2  -3 83.8507 57.8574   2
  -4  -2   3 77.8596 30.7107   1
   4   2  -3 108.774 37.6706   3
  -4  -2   3 140.795 43.1600   2
   3  -2  -3 4668.86 368.034   2
  -3  -2   3 3798.18 186.271   2
  -3  -2   3 4060.41 218.115   1
   3   2  -3 3783.93 198.434   3
   3   2  -3 3982.36 225.484   1
  -2   2   3 2865.68 139.946   3
   2   2  -3 2857.18 166.810   3
  -2  -2   3 2763.46 179.858   1
   2  -2  -3 3337.99 288.965   2
  -2  -2   3 2972.86 154.447   2
  -1   2   3 3349.23 155.128   3
   1  -2  -3 3843.85 279.711   2
  -1   2   3 3416.75 245.870   2
  -1  -2   3 3474.88 204.731   1
   1   2  -3 3594.59 176.793   3
   0  -2  -3 9.71980 12.3442   2
   0  -2   3 8.97444 5.90938   1
   0   2   3-17.7068 24.7368   2
   0  -2   3 8.81585 5.81533   3
   0   2   3 14.8959 10.3392   1
   0   2   3 21.6790 15.3220   3
  -1  -2  -3 178.323 43.6750   2
   1   2   3 122.560 31.4803   3
   1  -2   3 137.642 43.8600   1
   1  -2   3 137.368 32.2899   3
   1   2   3 147.301 40.2666   2
   1   2   3 129.383 30.1318   1
   2  -2   3-0.83747 10.7804   3
   2   2   3 22.9324 19.0927   3
   2   2   3 32.0211 13.1825   1
   2  -2   3 28.7355 20.3132   1
   3  -2   3 1415.68 92.9954   3
   3   2   3 1403.71 116.623   3
   3  -2   3 1471.31 149.481   1
   4   2   3 96.0325 29.5200   3
   4  -2   3 91.5825 40.8072   1
   4  -2   3 94.4916 23.6329   3
   5  -2   3 1944.50 94.9653   3
   5   2   3 1772.12 136.821   3
   5  -2   3 1947.86 187.557   1
   6  -2   3 89.9519 20.2079   3
   6   2   3 49.1519 24.1926   2
   6  -2   3 80.5001 39.3987   1
   6   2   3 57.8701 28.0239   3
   7   2   3 57.9575 25.8651   2
   7   2   3 36.5450 19.5635   3
   7  -2   3 28.0682 28.4214   1
   8   2   3 11.2884 21.5676   3
  -8  -2  -3 4.47622 7.85595   1
   8   2   3 30.6627 32.4443   2
   8  -2   3-11.9065 17.5379   1
  -9  -2  -3 369.087 49.7368   1
   9  -2   3 414.848 104.582   1
   9   2   3 353.247 72.6672   3
   9   2   3 494.022 105.435   2
  10   2   3 36.1181 33.2086   3
  10  -2   3 4.32850 13.6562   1
  10   2   3-17.1605 32.3053   2
 -10  -2  -3 8.90169 8.55759   1
 -11  -2  -3 37.4839 15.7975   1
  11  -2   3 106.702 61.3875   1
  11   2   3 33.5435 35.8787   2
 -11   2  -3 50.7820 41.1879   1
  11   2   3 58.4924 32.7507   3
  12  -2   3 175.923 73.0361   1
  12   2   3 146.037 48.5627   3
  12   2   3 159.101 72.2942   2
 -12  -2  -3 168.045 42.7757   1
 -12   2  -3 196.523 72.2956   1
 -12  -2  -3 168.738 55.9830   3
 -13  -2  -3 434.499 76.0581   1
  13  -2   3 417.031 118.953   1
  13   2   3 509.933 97.3266   3
  13   2   3 359.361 106.925   2
 -13   2  -3 417.639 111.102   1
 -13  -2  -3 479.203 91.6098   3
 -14   2  -3 70.3242 52.0369   1
  14   2   3-1.61622 38.9161   2
 -14  -2  -3 39.7938 19.2122   1
  14   2   3 42.8579 24.9610   3
 -14  -2  -3 101.063 53.9877   3
 -15  -2  -3 545.823 106.341   3
 -15   2  -3 655.965 148.621   1
 -15  -2  -3 608.119 98.5642   1
  15   2   3 1336.23 262.990   2
  15   2   3 790.370 128.279   3
 -16   2  -3 90.9824 50.2292   1
 -16  -2  -3 42.2009 19.0373   1
  16   2   3 121.121 71.8883   2
  16   2   3 117.611 52.0380   3
 -17  -2  -3 1307.26 159.294   1
  17   2   3 1473.89 281.764   2
  17   2   3 1441.62 181.574   3
 -17   2  -3 1530.65 237.272   1
 -18  -2  -3 169.584 60.1499   1
  18   2   3 101.943 51.3774   3
 -18   2  -3 132.559 78.5784   1
  18   2   3 261.649 122.812   2
 -19  -2  -3 31.5255 31.4697   1
  19   2   3 12.6349 18.8226   3
 -19   2  -3-33.6165 51.0241   1
 -20   2  -3 7.90740 21.3536   1
  20   2   3 5.85793 13.7551   3
 -20  -2  -3 48.4086 34.5643   1
 -21   2  -3 11.8327 25.3283   1
 -21  -2  -3 27.2404 27.4042   1
  21   2   3 22.5838 18.9505   3
 -22   2  -3 45.9856 47.0961   1
 -22  -2  -3-2.82540 10.6730   1
  22   2   3 74.8320 53.6915   3
 -23  -2  -3 72.1574 46.6336   1
 -23   2  -3 50.4243 50.8898   1
  23   2   3 63.1696 48.5628   3
 -24   2  -3 126.805 77.5095   1
  24   2   3-8.67781 19.4295   3
  25   2   3 46.6319 24.3193   3
 -25   2  -3 94.6406 59.9061   1
 -26   2  -3-11.4408 53.5738   1
  26   2   3 133.315 67.7278   3
 -27   2  -3-24.7360 40.7034   1
 -28   2  -3 222.308 118.472   1
 -26   3   3 192.172 112.413   1
 -25   3   3 122.598 95.8670   1
 -24   3   3 110.879 77.3364   1
 -23   3   3 65.9301 59.5281   1
  22   3  -3 71.7394 60.7242   3
 -22  -3   3 35.5777 35.5456   1
 -22   3   3 87.9333 84.9227   1
 -21  -3   3 58.5024 27.0355   1
 -21   3   3-10.6071 17.8023   1
  21   3  -3-4.19596 22.0258   3
 -20  -3   3 336.279 96.4478   1
 -20   3   3 266.203 122.137   1
  20   3  -3 328.261 110.607   3
  19   3  -3 79.3474 53.2571   2
  19   3  -3 79.8960 63.5236   3
 -19  -3   3 70.7130 34.6972   1
 -19  -3   3 107.421 49.5480   2
 -19   3   3 201.771 102.432   1
  18   3  -3 251.978 94.2060   3
  18   3  -3 85.6458 52.7367   2
 -18   3   3 175.978 92.7161   1
 -18  -3   3 270.463 82.8430   1
 -18  -3   3 98.5170 90.8640   2
  17   3  -3 420.040 117.634   2
 -17   3   3 336.357 121.263   1
 -17  -3   3 500.035 166.301   2
 -17  -3   3 360.860 91.7721   1
  17   3  -3 376.983 100.290   3
  16   3  -3 25.7107 15.7087   3
 -16  -3   3-106.969 85.8475   2
  16   3  -3 25.9321 27.2753   2
 -16   3   3 32.0106 40.4534   1
 -16  -3   3 34.2708 37.1462   1
  15   3  -3 552.822 122.652   3
  15   3  -3 527.278 120.317   2
 -15   3   3 561.501 152.799   1
 -15  -3   3 568.511 180.201   2
 -14   3   3 711.315 167.120   1
 -14  -3   3 872.764 215.741   2
  14   3  -3 621.698 127.211   3
  14   3  -3 797.367 138.270   2
  13   3  -3 505.100 105.128   2
 -13  -3   3 440.301 154.520   2
 -13   3   3 523.370 136.239   1
  13   3  -3 409.483 99.1811   3
 -12   3   3 9.09875 5.25515   3
  12   3  -3-5.71861 27.5077   3
 -12  -3   3-33.9738 54.0015   2
  12   3  -3 30.0531 31.1102   2
 -12   3   3 6.19872 4.59472   3
  11  -3  -3 108.096 96.7671   2
  11   3  -3 45.3108 27.4701   2
 -11  -3   3 72.8799 63.8594   2
 -11   3   3 50.7444 13.7627   3
  11   3  -3 41.7221 34.2069   3
  10   3  -3 114.052 42.8729   2
 -10  -3   3 79.2204 36.9301   1
  10   3  -3 91.0942 41.7859   3
 -10   3   3 70.5033 17.6139   3
  10  -3  -3 197.690 120.525   2
 -10  -3   3 54.1578 61.9878   2
  -9  -3   3 987.583 123.346   1
   9   3  -3 936.987 104.824   2
   9   3  -3 1115.78 148.616   3
   9  -3  -3 1408.37 304.350   2
  -9  -3   3 1294.20 200.391   2
  -9   3   3 946.035 67.7613   3
  -8  -3   3 320.734 67.9539   1
   8   3  -3 309.264 58.2799   2
  -8  -3   3 487.945 113.582   2
   8   3  -3 300.144 70.8334   3
  -8   3   3 326.839 42.7479   3
   8  -3  -3 278.445 135.568   2
   7   3  -3 962.712 126.765   3
   7  -3  -3 1096.84 249.330   2
  -7   3   3 915.138 74.1537   3
   7   3  -3 1066.75 101.949   2
  -7  -3   3 947.972 141.227   2
  -7  -3   3 915.259 112.713   1
   6  -3  -3 3913.58 443.369   2
  -6   3   3 3159.80 145.414   3
   6   3  -3 3343.34 234.250   3
  -6  -3   3 3408.52 214.682   1
  -6  -3   3 3306.17 234.651   2
  -5   3   3 700.358 71.2352   3
  -5  -3   3 714.924 98.0721   1
   5   3  -3 783.454 110.409   3
  -5  -3   3 640.459 93.7605   2
   5  -3  -3 787.531 189.629   2
  -4   3   3 0.34346 9.92473   1
   4  -3  -3 11.5204 14.4766   2
  -4   3   3-12.3095 12.7081   3
   4   3  -3 6.42910 19.2739   3
  -4  -3   3 2.75329 11.6552   1
   4   3  -3 12.3635 13.9877   1
  -4  -3   3 9.67507 15.9830   2
  -3   3   3 780.516 83.8065   3
  -3  -3   3 626.106 95.3040   1
   3   3  -3 733.971 105.362   3
   3   3  -3 623.125 100.979   1
  -3  -3   3 600.875 79.3727   2
   3  -3  -3 701.958 168.331   2
  -3   3   3 574.468 99.4331   1
   2   3  -3 356.919 74.1648   1
  -2  -3   3 321.744 68.4903   1
   2  -3  -3 476.527 125.097   2
  -2   3   3 354.729 55.7745   3
  -2  -3   3 309.920 63.4166   3
   2   3  -3 380.037 69.0585   3
  -2   3   3 379.990 76.0099   1
  -1  -3   3 1971.06 172.722   1
  -1  -3   3 1933.75 149.533   3
  -1   3   3 1862.73 154.196   1
  -1   3   3 1787.98 129.227   3
   1   3  -3 1672.23 163.900   1
   1  -3  -3 2049.95 235.120   2
   1   3  -3 1769.66 146.333   3
   0  -3   3 1512.07 154.852   1
   0  -3   3 1541.23 131.702   3
   0   3  -3 1529.31 159.952   1
   0   3   3 1415.23 119.545   3
   0   3   3 1394.29 123.723   1
   0  -3  -3 1760.44 199.213   2
   0   3  -3 1460.69 129.001   3
   1  -3   3 1009.05 131.029   1
   1  -3   3 1180.62 109.013   3
  -1  -3  -3 1261.56 124.019   3
   1   3   3 1081.83 107.114   3
  -1   3  -3 1072.98 106.792   3
  -1  -3  -3 1302.45 151.144   2
  -1   3  -3 870.598 124.208   1
   1   3   3 994.923 95.8292   1
   2  -3   3 2630.64 218.813   1
  -2   3  -3 2535.18 157.845   3
   2  -3   3 2718.49 159.060   3
   2   3   3 2426.46 164.792   3
  -2  -3  -3 2865.80 183.616   2
   2   3   3 2503.36 132.898   1
   3  -3   3 772.130 124.693   1
   3   3   3 753.698 62.7403   1
   3   3   3 867.012 106.641   3
   3  -3   3 967.163 102.555   3
   4   3   3 27.9425 19.6699   3
   4  -3   3 29.9331 18.9324   3
   4  -3   3 23.4173 18.7248   1
   5   3   3 1411.44 140.890   3
   5  -3   3 1500.33 100.980   3
   5  -3   3 1333.75 175.133   1
   6  -3   3 594.060 124.074   1
   6   3   3 515.768 89.5423   3
   6  -3   3 565.551 57.9271   3
   7  -3   3 1604.10 88.9385   3
   7  -3   3 1686.50 213.053   1
   7   3   3 1377.52 149.500   3
   8  -3   3 614.604 47.6304   3
   8   3   3 618.860 102.352   3
   8  -3   3 623.414 135.579   1
   9   3   3 306.062 76.7948   3
   9  -3   3 161.286 71.3922   1
  10  -3   3 184.869 80.7193   1
  10   3   3 176.724 35.1924   2
  10   3   3 165.949 53.3869   3
  11   3   3 369.616 63.4261   2
  11   3   3 502.429 104.385   3
 -11  -3  -3 512.159 100.564   3
 -12   3  -3 38.5748 43.1282   1
 -12  -3  -3 9.47550 7.45835   1
  12   3   3 35.4348 29.1208   3
  12   3   3-4.79545 25.7211   2
 -13   3  -3 188.988 77.1056   1
 -13  -3  -3 244.166 40.0389   1
  13   3   3 295.215 67.9601   2
  13   3   3 272.540 81.1336   3
  14   3   3 163.648 66.5632   2
  14   3   3 117.742 61.2498   3
 -14   3  -3 108.025 54.4716   1
 -14  -3  -3 84.8984 25.7275   1
 -15   3  -3 80.8746 52.3215   1
  15   3   3 133.543 65.8390   2
  15   3   3 245.181 80.4776   3
 -15  -3  -3 74.1863 27.4746   1
 -16  -3  -3 250.098 53.5962   1
  16   3   3 244.433 80.5718   3
 -16   3  -3 243.067 93.8553   1
  16   3   3 255.860 85.9828   2
 -17  -3  -3 1334.56 132.981   1
 -17   3  -3 1257.69 228.984   1
  17   3   3 1436.53 198.174   3
  17   3   3 1518.67 219.347   2
 -18  -3  -3 346.690 69.9507   1
  18   3   3 409.062 104.130   3
  18   3   3 528.859 135.743   2
 -18   3  -3 505.962 149.851   1
 -19  -3  -3 25.5174 21.0108   1
  19   3   3 24.2313 17.9720   3
 -19   3  -3 116.474 72.3835   1
  20   3   3 18.8597 31.0447   3
 -20   3  -3 112.958 84.6856   1
 -20  -3  -3 82.2031 38.6433   1
 -21   3  -3 119.296 63.8293   1
  21   3   3 215.866 84.6190   3
  22   3   3 11.9089 24.9623   3
 -22   3  -3 1.82493 49.7196   1
 -23   3  -3 177.390 85.6653   1
  23   3   3 123.652 65.3152   3
 -24   3  -3 119.045 83.4618   1
  24   3   3-36.2434 55.3122   3
  25   3   3-122.005 68.8309   3
 -25   3  -3-42.0009 72.3757   1
  26   3   3 136.467 80.0305   3
 -26   3  -3 32.9830 47.2673   1
  27   3   3 220.830 98.4270   3
 -25   4   3-17.8160 66.8010   1
 -24   4   3 252.004 126.921   1
  23   4  -3 85.4844 65.1947   3
 -23   4   3 228.830 133.969   1
  22   4  -3 41.7741 23.0113   3
 -22   4   3 19.5498 44.9099   1
 -21   4   3 41.7853 41.6054   1
  21   4  -3 32.3947 15.4073   3
 -20   4   3 372.519 143.489   1
  20   4  -3 421.458 123.957   3
 -19  -4   3 1094.77 157.081   1
 -19   4   3 897.409 212.603   1
  19   4  -3 969.378 184.073   3
 -18  -4   3 672.255 121.984   1
 -18   4   3 776.099 196.049   1
  18   4  -3 550.867 135.740   3
 -18  -4   3 755.571 204.968   2
 -17  -4   3 239.230 71.7155   1
 -17  -4   3 422.117 92.7451   1
  17   4  -3 362.619 86.1823   2
 -17   4   3 268.347 114.600   1
 -17  -4   3 493.371 173.206   2
  17   4  -3 453.482 123.171   3
 -16  -4   3-11.7888 16.0684   1
  16   4  -3-7.23936 29.0764   3
 -16  -4   3 44.4647 23.5122   2
  16   4  -3 26.1354 22.7849   2
 -16  -4   3-1.48765 11.1182   1
 -16   4   3 38.8839 47.7641   1
  15   4  -3 491.341 123.699   3
  15   4  -3 418.293 82.4716   2
 -15  -4   3 529.572 169.049   2
 -15   4   3 464.494 141.655   1
 -15  -4   3 480.002 94.5940   1
  14   4  -3-29.2104 24.9114   2
  14   4  -3 19.2454 49.1284   3
 -14   4   3 5.94128 29.2115   1
 -14  -4   3-46.8483 28.9793   1
 -14  -4   3-8.95956 30.7809   2
  13   4  -3 17.0474 37.9028   3
  13   4  -3 19.2241 39.2680   2
 -13  -4   3-0.06542 10.4634   1
 -13   4   3-6.93721 26.4085   1
 -13  -4   3 24.4676 54.1764   2
 -12   4   3 32.8500 9.71433   3
 -12  -4   3-28.2154 79.1064   2
 -12  -4   3 75.9916 43.5956   1
 -12   4   3 126.464 72.7450   1
  12   4  -3 8.44499 47.2353   3
  12   4  -3 96.9015 38.0522   2
 -11  -4   3 215.848 91.8003   2
 -11  -4   3 225.844 58.3927   1
 -11   4   3 214.949 80.9696   1
 -11   4   3 207.709 30.9132   3
  11   4  -3 286.305 87.1339   3
 -10  -4   3 30.1921 45.0124   2
 -10   4   3 32.3125 15.3725   3
 -10   4   3-6.20752 11.5817   1
  10   4  -3 2.17154 19.4025   3
 -10  -4   3 31.2660 23.5568   1
  -9   4   3 206.566 37.1027   3
  -9  -4   3 361.242 103.361   2
  -9  -4   3 181.539 52.8327   1
   9  -4  -3 421.198 177.588   2
  -9   4   3 363.825 105.097   1
   9   4  -3 222.607 72.0286   3
  -8  -4   3 267.509 74.9605   2
   8  -4  -3 373.796 176.386   2
  -8   4   3 196.613 76.2130   1
  -8  -4   3 265.271 64.7229   1
   8   4  -3 270.058 80.7453   3
  -8   4   3 226.091 40.7800   3
  -7  -4   3 216.118 62.6236   2
  -7  -4   3 216.810 57.3691   1
  -7   4   3 295.575 88.4868   1
  -7   4   3 192.471 39.4701   3
   7   4  -3 168.634 65.1849   3
   7  -4  -3 126.091 71.0944   2
  -6  -4   3 43.8346 28.5412   1
   6   4  -3 65.8752 44.4879   3
   6  -4  -3 56.7074 70.2056   2
  -6  -4   3 28.8530 30.6659   2
  -6   4   3 14.6251 10.7631   3
   5  -4  -3 166.071 92.9711   2
  -5  -4   3 192.223 57.0225   2
  -5  -4   3 118.963 47.7582   3
  -5   4   3 127.380 35.6384   3
  -5  -4   3 161.748 50.3781   1
   5   4  -3 132.106 50.4959   3
   4   4  -3 447.901 93.4498   1
   4  -4  -3 623.142 174.485   2
  -4  -4   3 561.682 95.9662   1
  -4   4   3 513.450 75.3678   3
  -4  -4   3 530.383 83.6393   2
  -4  -4   3 534.695 96.6948   3
   4   4  -3 1251.71 156.785   3
  -3  -4   3 172.430 53.0153   1
  -3   4   3 241.369 68.5883   1
   3   4  -3 159.262 48.9014   3
  -3  -4   3 184.646 55.2308   3
   3  -4  -3 163.849 94.7582   2
   3   4  -3 198.469 62.4951   1
  -3   4   3 186.009 48.0024   3
  -3  -4   3 225.532 50.8702   2
  -2   4   3 41.3496 24.7449   3
  -2   4   3 14.6356 16.5219   1
  -2  -4   3 14.1157 13.5052   3
   2   4  -3 33.4927 24.9576   1
  -2  -4   3 19.1865 21.5673   1
   2  -4  -3 74.2649 64.4173   2
   2   4  -3 34.3742 16.3061   3
   1   4  -3 367.406 82.5290   1
   1   4  -3 365.031 75.0891   3
   1  -4  -3 424.525 122.806   2
  -1   4   3 393.453 78.6380   1
  -1  -4   3 360.517 75.4975   3
  -1   4   3 367.504 68.8858   3
  -1  -4   3 467.776 93.2057   1
   0  -4  -3 10602.6 561.057   2
   0   4  -3 9193.05 364.299   3
   0  -4   3 9504.56 367.963   3
   0  -4  -3 9280.96 365.935   3
   0  -4   3 9117.95 427.408   1
   0   4   3 8637.45 341.913   3
   0   4  -3 8690.68 427.673   1
   0   4   3 8530.68 343.688   1
  -1   4  -3 75.1021 34.7172   3
  -1  -4  -3 127.550 47.3068   3
   1   4   3 68.5387 36.3981   3
   1  -4   3 76.6172 37.0896   1
   1  -4   3 114.160 39.9790   3
  -1  -4  -3 124.963 55.1070   2
   1   4   3 79.4837 32.0531   1
   2   4   3 581.398 76.5009   1
  -2  -4  -3 603.220 107.617   2
   2  -4   3 561.340 82.5291   3
  -2  -4  -3 552.076 94.2709   3
  -2   4  -3 575.872 87.7670   3
   2  -4   3 572.507 114.376   1
   2   4   3 506.575 86.8207   3
  -3  -4  -3 408.966 72.4039   2
   3  -4   3 399.840 99.5635   1
   3   4   3 406.112 58.6593   1
  -3   4  -3 458.309 76.6338   3
  -3  -4  -3 514.818 93.9694   3
   3  -4   3 527.989 77.7672   3
   3   4   3 413.717 83.0000   3
  -4  -4  -3 552.876 99.0560   3
   4   4   3 445.099 53.6486   1
   4  -4   3 452.044 110.788   1
   4   4   3 507.218 93.3576   3
   4  -4   3 556.679 77.9838   3
   5  -4   3 39.2845 22.1357   3
  -5   4  -3 59.0493 38.4613   1
   5  -4   3 37.6139 34.1490   1
   5   4   3 32.7722 18.4751   3
  -6   4  -3 41.0848 32.6463   1
   6   4   3 89.5925 36.7180   3
   6  -4   3 65.7501 22.3788   3
   6  -4   3 45.3186 36.7445   1
   7  -4   3 60.8403 44.1009   1
  -7   4  -3-2.04567 20.9067   1
   7   4   3-0.37128 12.8458   3
   7  -4   3 24.8063 16.2284   3
   8   4   3 47.4203 44.9019   3
   8  -4   3 73.5938 47.4288   1
  -8   4  -3 24.4913 30.4842   1
   9   4   3 60.6813 36.7433   3
  -9   4  -3 85.9218 51.3223   1
   9  -4   3 19.8821 9.30557   3
  10   4   3 1577.53 188.495   3
 -10   4  -3 1367.99 210.111   1
 -11   4  -3 1252.72 206.396   1
  11   4   3 1313.55 181.486   3
  12   4   3 1036.16 162.828   3
 -12   4  -3 861.225 177.670   1
 -13   4  -3 21.0967 30.2802   1
  13   4   3 173.417 62.3540   3
  14   4   3 286.397 88.1870   3
  14   4   3 280.034 33.5598   2
 -14   4  -3 321.208 115.562   1
  15   4   3 4.49732 4.37408   2
 -15   4  -3-4.31232 25.6385   1
  15   4   3 34.8818 32.6644   3
  16   4   3 115.187 37.8757   2
  16   4   3 42.8683 29.3107   3
 -16   4  -3 176.510 87.9761   1
 -17   4  -3 61.5063 48.2022   1
  17   4   3-33.9702 42.3225   3
  18   4   3 46.7115 36.2808   3
 -18   4  -3 62.6660 57.1173   1
  19   4   3 59.8793 36.5179   3
 -19   4  -3 221.453 98.8235   1
 -20   4  -3 51.5428 53.1683   1
  20   4   3-27.4214 52.0498   3
 -21   4  -3 75.5763 55.2372   1
  21   4   3 128.570 61.4644   3
  22   4   3 390.254 122.825   3
 -22   4  -3 310.609 130.982   1
 -23   4  -3-68.3213 65.4227   1
  23   4   3-16.3638 25.3634   3
 -24   4  -3-69.3819 67.5141   1
  24   4   3 130.503 74.5377   3
  25   4   3-60.9443 59.9089   3
  26   4   3-145.524 81.9850   3
  27   4   3 378.416 123.890   3
  24   5  -3 905.062 207.204   3
 -23   5   3 38.8191 51.8852   1
  23   5  -3 68.9173 49.0158   3
 -22   5   3 237.057 122.055   1
  22   5  -3 499.357 148.090   3
  21   5  -3 74.2337 77.1478   3
 -21   5   3 17.9957 57.9716   1
  20   5  -3 75.6123 70.4974   3
 -20   5   3-7.71448 24.3556   1
  19   5  -3 71.6868 52.0834   3
 -19   5   3-18.7854 33.6486   1
  18   5  -3 162.177 85.8640   3
 -18   5   3 42.5070 52.3244   1
  17   5  -3-3.55886 24.1879   3
 -17  -5   3-34.0384 42.4998   2
 -17   5   3-32.9570 41.7468   1
 -16  -5   3 343.459 170.908   2
 -16   5   3 180.338 92.9934   1
  16   5  -3 232.492 91.7887   3
 -16  -5   3 171.220 50.3458   1
 -15   5   3 92.3301 78.9072   1
  15   5  -3 33.2152 42.4373   3
 -15  -5   3 103.714 61.6349   2
 -14  -5   3 115.793 73.0123   2
 -14  -5   3 54.9544 28.6480   1
 -14   5   3 41.8055 46.7668   1
  14   5  -3 103.869 62.2800   3
 -13   5   3 21.0402 32.9987   1
 -13  -5   3-61.1402 34.5765   2
  13   5  -3-17.1770 38.5464   3
 -13  -5   3 40.2929 25.2531   1
  12   5  -3 9.28385 32.9802   3
 -12   5   3-0.71050 5.06148   3
 -12  -5   3 11.7290 13.1671   1
 -12   5   3 7.97674 21.4561   1
 -12  -5   3-34.8261 39.8266   2
 -11   5   3 292.737 46.4301   3
 -11  -5   3 371.384 72.3055   1
  11   5  -3 283.681 93.7235   3
 -11  -5   3 602.304 150.474   2
 -10  -5   3-7.06704 10.8512   1
 -10   5   3-3.91644 10.5764   3
 -10  -5   3 85.1778 58.8831   2
 -10   5   3 2.47386 33.3897   1
  10   5  -3 4.47685 25.3493   3
  -9   5   3 48.3162 42.2753   1
  -9  -5   3 67.6722 31.7772   1
  -9   5   3 86.6409 28.2780   3
  -9  -5   3 63.6392 37.1386   2
   9   5  -3 62.4652 37.8297   3
  -8   5   3 174.413 43.5344   3
  -8   5   3 206.433 83.1957   1
   8   5  -3 138.135 66.6436   3
  -8  -5   3 118.913 51.8981   2
  -8  -5   3 145.719 47.2828   1
  -7  -5   3 1090.54 149.785   2
   7   5  -3 809.744 145.322   3
  -7  -5   3 1458.68 162.357   1
  -7   5   3 906.351 163.710   1
  -7   5   3 925.988 105.456   3
   7  -5  -3 1177.76 292.307   2
  -6   5   3 656.551 91.5496   3
  -6  -5   3 613.048 101.444   1
   6  -5  -3 822.831 236.179   2
   6   5  -3 613.773 124.090   3
  -6  -5   3 695.866 113.853   2
  -6   5   3 747.910 146.044   1
  -5   5   3 13.2603 27.6070   1
  -5   5   3 29.7076 22.4118   3
   5   5  -3-30.7283 29.8266   3
  -5  -5   3 5.95487 24.3213   2
  -5  -5   3 54.6079 33.5787   1
   5   5  -3 2.87012 16.7096   1
   5  -5  -3 92.8519 73.2290   2
  -4  -5   3 176.010 53.3281   2
  -4   5   3 108.202 43.7327   3
   4  -5  -3 191.528 103.901   2
  -4   5   3 256.101 80.1071   1
   4   5  -3 57.2679 35.6138   1
  -4  -5   3 90.9374 41.1910   1
   4   5  -3 131.923 55.2049   3
  -3   5   3 61.9526 29.4923   3
  -3  -5   3 50.4411 28.1142   1
  -3  -5   3 113.455 43.2937   2
   3   5  -3 70.8615 39.1660   3
   3  -5  -3 48.2431 63.9735   2
  -3  -5   3 89.6796 41.2028   3
   3   5  -3 63.5367 35.1406   1
   2   5  -3 479.649 96.8269   3
  -2  -5   3 501.676 99.4712   3
   2  -5  -3 593.218 181.376   2
  -2   5   3 441.633 84.4751   3
  -2  -5   3 389.348 92.1138   1
  -1   5   3 25.0475 23.9953   3
  -1  -5   3 14.9961 25.2962   3
   1   5  -3 42.2901 30.6655   3
  -1  -5   3 61.6724 43.2179   1
  -1   5   3-9.39047 22.4976   1
   1  -5  -3 10.8246 24.2159   2
   0   5   3 308.581 70.3637   3
   0  -5  -3 424.669 126.483   2
   0  -5   3 236.030 66.6002   3
   0   5  -3 387.878 85.6991   3
   0  -5   3 409.635 99.6087   1
   0   5   3 342.293 76.1399   1
   1  -5   3 36.9161 33.7581   1
   1  -5   3 51.4651 23.1449   3
  -1  -5  -3 89.7565 51.4312   2
  -1   5  -3 124.256 52.1751   3
   1   5   3 45.0006 33.9287   3
   1   5   3 75.2707 33.1464   1
  -1  -5  -3 120.925 51.7523   3
  -2  -5  -3 1206.09 177.095   2
  -2   5  -3 1119.48 175.089   1
   2  -5   3 1159.89 134.910   3
   2   5   3 1099.56 147.078   3
   2   5   3 1098.85 124.593   1
  -2   5  -3 1153.05 137.736   3
  -2  -5  -3 1245.90 159.900   3
   2  -5   3 1029.12 170.376   1
   3  -5   3 1222.22 193.544   1
  -3   5  -3 1189.62 181.681   1
   3   5   3 1184.76 121.083   1
  -3   5  -3 1226.87 138.206   3
  -3  -5  -3 1315.11 160.927   2
  -3  -5  -3 1347.71 170.770   3
   3   5   3 1132.86 149.654   3
   3  -5   3 1257.34 136.873   3
  -4   5  -3 99.3705 56.8104   1
  -4  -5  -3 76.1029 29.8839   2
   4  -5   3 131.255 61.4903   1
  -4   5  -3 172.558 54.0846   3
   4   5   3 145.836 52.6187   3
  -4  -5  -3 90.8932 18.1938   2
   4   5   3 136.303 37.7422   1
   4  -5   3 117.875 39.0077   3
  -5   5  -3 305.982 98.0810   1
   5  -5   3 329.025 60.5388   3
   5  -5   3 367.537 115.808   1
   5   5   3 335.895 84.3464   3
   5   5   3 346.787 50.5355   1
   6   5   3 127.588 57.6267   3
   6  -5   3 111.123 32.9695   3
  -6   5  -3 172.744 75.4101   1
  -7   5  -3 62.8935 26.0158   1
   7  -5   3 80.2318 26.0752   3
   7   5   3 81.3878 32.6687   3
  -8   5  -3 589.502 143.174   1
   8  -5   3 739.010 82.7533   3
   8   5   3 694.117 132.018   3
   9   5   3 584.020 122.990   3
  -9   5  -3 509.975 139.856   1
   9  -5   3 528.068 65.5981   3
 -10   5  -3 435.004 127.336   1
  10   5   3 517.486 123.139   3
  11   5   3 2411.23 261.183   3
 -11   5  -3 2385.81 306.979   1
  12   5   3 150.956 65.2123   3
 -12   5  -3 127.079 71.6818   1
 -13   5  -3 174.558 90.7473   1
  13   5   3 22.6274 36.9480   3
 -14   5  -3 44.6699 42.5804   1
  14   5   3 2.42904 28.3306   3
 -15   5  -3 50.7138 49.9905   1
  15   5   3-7.59693 34.8460   3
  16   5   3 681.659 153.759   3
 -16   5  -3 545.448 170.909   1
 -17   5  -3 44.2746 48.0633   1
  17   5   3-35.3503 46.9583   3
  18   5   3-115.050 65.8282   3
 -18   5  -3-17.3752 32.2961   1
 -19   5  -3-73.1615 64.3350   1
  19   5   3-7.38539 33.2058   3
 -20   5  -3-3.63036 53.7723   1
  20   5   3 20.4649 33.7134   3
 -21   5  -3 103.726 88.7374   1
  21   5   3 46.1955 28.5165   3
  22   5   3 63.4217 53.7210   3
 -22   5  -3 159.368 100.724   1
  23   5   3 76.7797 58.4256   3
  24   5   3 21.9278 34.1745   3
  21   6  -3 274.087 123.997   3
  20   6  -3 155.311 92.2780   3
 -20   6   3 1.96447 64.8364   1
  19   6  -3 255.842 110.880   3
 -19   6   3 132.918 85.1279   1
  18   6  -3 383.309 129.134   3
 -18   6   3 373.553 150.968   1
  17   6  -3 134.064 76.8960   3
 -17   6   3 158.636 93.2565   1
 -16   6   3 267.130 105.368   1
  16   6  -3 127.620 63.8966   3
  15   6  -3 36.8880 57.9122   3
 -15   6   3-37.8538 44.5238   1
  14   6  -3 56.2726 53.0552   3
 -14   6   3 17.7559 37.4749   1
  13   6  -3 4.18840 34.8221   3
 -13   6   3 1.42413 16.5927   1
 -12  -6   3 105.652 64.5252   2
 -12   6   3 102.052 29.0214   3
  12   6  -3 142.384 69.3842   3
 -12   6   3 84.0579 55.9921   1
 -11   6   3 202.853 95.5241   1
 -11  -6   3 330.888 108.762   2
 -11   6   3 219.221 46.4805   3
  11   6  -3 331.215 106.957   3
 -10   6   3 48.6564 45.8026   1
 -10  -6   3 93.3104 53.0996   2
  10   6  -3 80.6045 59.2404   3
 -10  -6   3 37.9459 27.2406   1
 -10   6   3-9.67562 16.5302   3
   9   6  -3 727.402 154.029   3
  -9   6   3 559.411 84.4666   3
  -9  -6   3 614.247 99.7819   1
  -9   6   3 665.535 159.010   1
  -9  -6   3 575.410 120.772   2
   8   6  -3 112.227 61.1478   3
  -8  -6   3 37.9062 25.7220   1
  -8  -6   3 103.938 52.9660   2
  -8   6   3 119.416 62.1562   1
  -8   6   3 32.6366 26.1766   3
  -7  -6   3 1159.49 160.483   2
   7   6  -3 1196.05 188.920   3
  -7   6   3 1149.39 132.237   3
  -7  -6   3 1083.08 144.771   1
  -7   6   3 1065.36 191.294   1
  -6  -6   3 30.4835 29.7326   2
   6   6  -3 39.3702 55.7383   3
  -6  -6   3-20.3344 20.8525   1
  -6   6   3 45.7438 28.1503   3
  -6   6   3 76.8921 52.6568   1
  -5  -6   3 106.690 41.0256   2
  -5  -6   3 45.4242 31.5776   1
  -5   6   3 129.419 64.5764   1
   5   6  -3 92.1493 54.3597   3
  -5   6   3 179.917 57.3154   3
   5  -6  -3 434.808 181.921   2
   4   6  -3 56.1764 41.0934   3
  -4  -6   3 57.2738 24.5243   2
  -4   6   3 19.9153 24.1938   1
   4  -6  -3 120.600 90.2719   2
  -4   6   3 60.8782 33.4191   3
  -4  -6   3 72.1779 42.5120   1
  -3  -6   3 33.3368 21.9942   2
  -3   6   3 49.5865 48.1382   1
  -3   6   3 34.3111 30.5572   3
   3   6  -3 14.8647 33.9082   3
   3  -6  -3 61.4993 63.6726   2
  -3  -6   3 43.7646 37.8000   1
  -2   6   3 2067.90 201.218   3
   2  -6  -3 2599.23 384.943   2
  -2  -6   3 1943.77 230.736   1
   2   6  -3 1775.31 209.481   3
  -2   6   3 1931.08 219.181   1
   2   6  -3 2033.07 242.228   1
   1   6  -3 29.6968 35.5836   3
   1   6  -3 40.2553 36.7539   1
  -1   6   3 69.6600 45.9727   3
   1  -6  -3 141.681 85.5867   2
  -1  -6   3 100.494 53.1549   1
   0   6   3 50.7108 26.8222   3
   0  -6   3 126.598 61.6540   1
   0   6  -3 57.3503 41.1980   1
   0  -6  -3 190.215 103.099   2
   0   6  -3 12.2965 32.2756   3
   1  -6   3 50.8890 40.5088   1
  -1  -6  -3 75.5298 55.4403   2
  -1   6  -3 16.2441 18.7558   1
   1   6   3 72.4837 30.3178   3
  -1   6  -3 42.9788 43.1779   3
   1  -6   3 4.84527 8.98601   3
   2  -6   3 31.6636 25.0137   3
  -2   6  -3 2.53541 9.68754   3
  -2  -6  -3 22.3458 29.4818   2
  -2   6  -3 27.9511 21.3530   1
   2   6   3 16.3257 20.0827   3
   2   6   3 28.2673 30.0182   1
  -3   6  -3 350.161 106.853   1
  -3  -6  -3 355.083 89.8371   2
  -3   6  -3 448.846 95.3710   3
   3   6   3 448.773 105.159   3
   3   6   3 401.695 80.6000   1
   3  -6   3 361.739 80.7287   3
  -4  -6  -3 27.0159 14.1271   2
  -4   6  -3 17.5400 24.6585   1
  -4   6  -3 66.4130 39.9629   3
   4   6   3 15.2927 22.2918   3
  -4  -6  -3 43.5234 21.0706   2
   4   6   3 25.5279 17.0044   1
   4  -6   3 15.2235 9.88003   3
   5  -6   3 351.498 76.0084   3
  -5   6  -3 404.221 122.264   1
   5   6   3 330.729 96.2775   3
   5   6   3 408.010 65.0151   1
   6   6   3 131.673 59.2682   3
   6  -6   3 53.5027 30.2738   3
  -6   6  -3 107.418 61.5608   1
   7   6   3 585.577 126.920   3
  -7   6  -3 433.911 125.223   1
   7  -6   3 577.778 89.7229   3
  -8   6  -3 95.4517 62.4995   1
   8   6   3 178.335 71.2594   3
   8  -6   3 177.183 49.9650   3
   9   6   3 614.662 138.709   3
  -9   6  -3 371.939 119.627   1
 -10   6  -3 52.0459 65.2129   1
  10   6   3 75.9361 57.6466   3
 -11   6  -3 209.290 96.6542   1
  11   6   3 270.911 95.5237   3
  12   6   3 14.5582 24.3430   3
 -12   6  -3-28.3506 42.9121   1
 -13   6  -3 32.7088 40.8258   1
  13   6   3 84.5620 57.8071   3
  14   6   3-33.6808 36.5566   3
 -14   6  -3-54.6017 53.4492   1
 -15   6  -3 90.6496 54.7639   1
  15   6   3 10.0687 41.3285   3
  16   6   3-9.59403 49.3572   3
 -16   6  -3 128.547 80.0148   1
  17   6   3 53.4968 49.8895   3
 -17   6  -3 27.6653 41.3807   1
 -18   6  -3 273.932 127.424   1
  18   6   3 115.098 81.1339   3
 -19   6  -3 73.8065 64.4003   1
  19   6   3 31.1175 46.5738   3
  20   6   3-46.3057 59.1696   3
 -20   6  -3 111.943 86.1485   1
  21   6   3 87.6768 86.0333   3
 -18   7   3 100.429 79.7920   1
  17   7  -3 236.033 112.865   3
 -17   7   3 47.1192 44.7683   1
  16   7  -3 226.612 100.797   3
 -16   7   3 223.387 113.121   1
  15   7  -3 41.2001 61.3703   3
 -15   7   3-39.8568 48.1486   1
  14   7  -3 247.567 113.983   3
 -14   7   3 276.046 138.278   1
 -13   7   3 57.0586 36.8460   1
  13   7  -3 243.823 109.639   3
 -12   7   3 56.7726 29.3038   1
  12   7  -3-0.46365 22.8928   3
  11   7  -3-14.7814 30.4044   3
 -11   7   3-10.3807 23.7126   1
 -10   7   3 14.2802 11.3895   3
  10   7  -3 1.15329 17.7909   3
 -10   7   3 81.4087 67.3035   1
   9   7  -3 86.7272 62.5383   3
  -9   7   3 156.620 51.4234   3
  -9   7   3 104.989 73.5468   1
   8   7  -3 305.429 109.676   3
  -8   7   3 289.739 101.297   1
  -8   7   3 192.592 61.8006   3
  -7  -7   3 374.707 98.0570   2
  -7   7   3 280.058 73.8956   3
   7   7  -3 309.628 98.3895   3
  -7   7   3 317.387 117.275   1
  -6   7   3 11.0455 40.5568   1
  -6  -7   3 62.4168 48.7750   2
  -6   7   3-16.1517 36.1454   3
   6   7  -3 29.7128 55.5483   3
   5   7  -3 829.812 163.253   3
   5   7  -3 866.851 163.153   1
  -5   7   3 815.573 128.082   3
  -5   7   3 1000.94 186.165   1
  -5  -7   3 941.702 139.774   2
  -4   7   3 200.560 90.1684   1
  -4  -7   3 221.370 68.0320   2
  -4  -7   3 110.580 54.5832   1
   4   7  -3 95.4196 52.6906   3
  -4   7   3 243.902 73.3713   3
   4   7  -3 113.691 70.9731   1
  -3  -7   3 193.056 64.0769   2
   3   7  -3 181.256 70.4156   1
  -3   7   3 100.293 57.9886   1
   3   7  -3 215.299 75.6325   3
  -3   7   3 245.899 78.4417   3
  -2   7   3 378.683 106.515   1
  -2   7   3 541.748 113.160   3
   2   7  -3 327.154 103.544   1
   2  -7  -3 478.018 176.883   2
   2   7  -3 400.825 110.383   3
   1  -7  -3 35.0953 47.9324   2
  -1   7   3-31.5921 29.8946   1
   1   7  -3 18.8104 25.4048   3
   1   7  -3-41.5423 37.9801   1
  -1   7   3 15.5714 22.0900   3
   0   7  -3 23.5497 31.8366   3
   0   7   3 112.372 53.5522   1
   0   7  -3 55.7926 44.2275   1
   0   7   3 35.2823 32.3530   3
   1   7   3 24.7082 23.7059   3
  -1   7  -3 0.57936 20.0425   3
  -1   7  -3 54.7892 55.2298   1
  -2   7  -3 61.7636 35.6207   3
   2   7   3 49.8653 32.1181   3
  -2   7  -3 17.3665 23.7253   1
   3   7   3 21.5237 26.2999   3
  -3   7  -3 34.4623 31.1098   3
  -3   7  -3-21.1203 30.1308   1
   3   7   3 74.9186 32.0045   1
   4   7   3 267.799 91.2378   3
   4   7   3 186.490 54.3771   1
  -4   7  -3 122.968 66.2335   1
   5   7   3 156.411 62.5420   3
   5   7   3 103.580 33.4814   1
  -5   7  -3 103.305 66.9599   1
   6   7   3 202.699 81.2538   3
  -6   7  -3 215.926 89.1402   1
   7   7   3 385.995 111.378   3
  -7   7  -3 231.402 108.699   1
  -8   7  -3 243.503 112.385   1
   8   7   3 129.892 66.1365   3
   9   7   3 588.825 143.222   3
  -9   7  -3 622.876 176.548   1
 -10   7  -3 47.8774 46.5030   1
  10   7   3 31.5851 35.0470   3
  11   7   3-40.9990 61.1291   3
 -11   7  -3 1.99718 14.2824   1
 -12   7  -3-134.289 84.6776   1
  12   7   3-5.12540 41.3770   3
 -13   7  -3-23.0781 36.7273   1
  13   7   3-7.65492 53.0364   3
  14   7   3-68.8595 67.2122   3
 -14   7  -3-44.8419 51.8115   1
 -15   7  -3 55.0116 69.7571   1
  15   7   3 28.8517 36.5558   3
  16   7   3 89.1041 62.7351   3
 -16   7  -3 7.27154 61.5027   1
 -17   7  -3 52.4305 71.5767   1
  17   7   3 272.874 107.964   3
 -15   8   3-18.1209 34.6803   1
 -14   8   3-31.3324 43.7869   1
  13   8  -3 122.685 94.0741   3
 -13   8   3 130.486 97.3929   1
  12   8  -3-19.2030 57.8935   3
 -12   8   3 98.8049 73.5252   1
  11   8  -3-49.1110 47.3513   3
 -11   8   3 19.9411 45.1867   1
  10   8  -3 45.8227 45.7776   3
 -10   8   3-11.5755 25.5980   1
  -9   8   3-43.6650 46.2390   1
   9   8  -3 29.6268 61.5726   3
  -8   8   3 373.810 129.791   1
   8   8  -3 233.185 108.110   3
  -7   8   3 131.331 57.9256   3
  -7   8   3 149.909 84.0771   1
   7   8  -3 121.738 73.0730   3
  -6   8   3-11.6957 23.8473   1
  -6   8   3 8.85242 32.5967   3
   6   8  -3-4.06922 24.2603   3
   5   8  -3 249.326 100.617   3
  -5   8   3 191.426 69.1732   3
  -5   8   3 266.272 97.2702   1
  -4   8   3 21.9360 29.8113   1
   4   8  -3-61.9921 46.7184   1
  -4   8   3 2.22564 20.6000   3
   4   8  -3 33.2905 12.0857   3
   3   8  -3 186.577 84.9389   3
  -3   8   3 208.615 89.7256   1
   3   8  -3 260.358 101.635   1
  -3   8   3 131.488 54.5703   3
  -2   8   3 58.0999 44.7664   1
  -2   8   3 23.6759 21.5723   3
   2   8  -3 129.015 72.3986   3
  -2  -8   3 87.8451 47.3832   2
   2   8  -3 128.189 69.2966   1
   1   8  -3 49.6496 62.2110   3
  -1   8   3-15.6066 23.1984   1
   1   8  -3 1.37121 25.9135   1
  -1   8   3 108.811 55.6115   3
   0   8  -3 73.8836 62.2049   1
   0   8  -3-10.0504 27.1724   3
   0   8   3 41.6410 35.7135   1
   0   8   3-34.7188 37.3331   3
   1   8   3-30.9908 32.2124   3
   1   8   3 25.6050 24.9369   1
  -1   8  -3 62.2297 51.0551   1
  -1   8  -3-33.1604 11.5569   3
  -2   8  -3-5.33744 17.3157   1
   2   8   3-30.0528 33.6343   3
   3   8   3 13.1466 37.8691   3
  -3   8  -3-71.8861 56.8422   1
  -4   8  -3-4.11027 16.5974   1
   4   8   3 43.0165 21.0781   3
  -5   8  -3 5.72391 34.5373   1
   5   8   3 23.8028 29.2558   3
  -6   8  -3 56.1795 83.3186   1
   6   8   3 325.190 159.238   3
   7   8   3 174.962 66.4141   3
  -7   8  -3 112.100 90.9837   1
   8   8   3 95.8536 67.0990   3
  -8   8  -3 174.045 95.2632   1
  -9   8  -3 54.2544 32.4994   1
   9   8   3 92.2711 52.8150   3
 -10   8  -3-21.1784 36.5371   1
  10   8   3 33.7019 38.9295   3
 -11   8  -3 489.458 186.445   1
  11   8   3 244.284 101.498   3
 -12   8  -3 59.7453 60.7343   1
  12   8   3 61.5650 50.2135   3
 -13   8  -3 73.0980 68.2589   1
  13   8   3 73.6176 55.0240   3
 -14   8  -3-1.00648 41.5372   1
 -12   9   3-69.3664 65.8475   1
 -11   9   3 309.264 134.384   1
 -10   9   3 107.114 78.3003   1
  -9   9   3 117.369 80.2062   1
   8   9  -3-88.7222 64.3241   3
  -8   9   3-86.8845 67.7822   1
  -7   9   3-20.7788 33.4598   1
   7   9  -3-46.4691 35.7294   3
  -6   9   3 23.1768 34.8518   1
   6   9  -3-22.1245 27.5141   3
   5   9  -3-40.1344 49.3450   3
  -5   9   3 69.1640 56.3381   1
   4   9  -3 15.0047 27.0280   3
  -4   9   3 51.9395 36.3969   3
  -3   9   3 43.6727 45.7549   3
   3   9  -3 34.8286 36.7756   3
   2   9  -3 39.0215 57.4097   3
  -2   9   3-24.0703 34.3828   3
   1   9  -3 91.1275 56.3663   3
  -1   9   3 46.2973 36.2777   3
   0   9   3-88.2823 41.9684   3
   1   9   3 31.1091 39.8824   3
  -1   9  -3 15.1723 27.6384   1
  -2   9  -3 2.67222 15.6751   1
   2   9   3 31.5247 35.8652   3
   3   9   3-16.5658 32.3399   3
  -3   9  -3-9.60962 24.4371   1
  -4   9  -3 83.9262 66.4391   1
   4   9   3 132.913 80.9498   3
  -5   9  -3 160.842 90.5000   1
   5   9   3 106.981 62.3879   3
  -6   9  -3 51.8406 54.6760   1
   6   9   3 260.724 115.741   3
  -7   9  -3 22.1732 61.3555   1
   7   9   3 170.530 89.8502   3
  -8   9  -3 53.4325 57.1311   1
  -9   9  -3 20.0782 47.5988   1
 -10   9  -3-4.93916 76.9975   1
 -29   0   4 109.576 82.6439   1
 -28   0   4-27.1182 41.6137   1
 -27   0   4-50.5596 54.6957   1
 -26   0   4-28.8051 41.7113   1
 -25   0   4 349.572 130.497   1
 -24   0   4 81.3298 58.7978   1
 -23   0   4-29.2347 39.0994   1
 -22   0   4 638.719 171.566   1
 -21   0   4 1801.99 172.359   3
 -21   0   4 1894.03 287.423   1
 -20   0   4 797.015 184.593   1
 -20   0   4 505.104 90.2862   3
 -19   0   4 152.325 67.5639   1
 -19   0   4 128.509 44.2185   3
 -18   0   4 279.415 126.278   2
 -18   0   4 528.324 140.056   1
 -17   0   4 610.136 217.421   2
 -17   0   4 535.983 142.162   1
 -16   0   4 764.327 158.754   1
 -16   0   4 635.477 218.068   2
  15   0  -4 2751.07 415.634   2
 -15   0   4 2208.09 387.457   2
 -15   0   4 2253.86 262.507   1
 -15   0   4 2370.06 180.017   3
 -14   0   4 142.948 43.2697   3
 -14   0   4 151.170 101.412   2
 -14   0   4 139.893 60.7349   1
  14   0  -4 213.933 121.680   2
  13   0  -4 156.380 85.9137   2
 -13   0   4 254.539 127.238   2
 -13   0   4 178.675 47.4692   3
 -13   0   4 176.468 68.5278   1
 -12   0   4 2097.37 155.990   3
 -12   0   4 2273.01 362.895   2
  12   0  -4 2015.61 316.635   2
  11   0  -4 3709.78 410.119   2
 -11   0   4 3353.43 192.589   3
 -11   0   4 3863.60 460.987   2
 -10   0   4 288.044 122.401   2
  10   0  -4 248.511 111.500   2
 -10   0   4 142.852 36.4417   3
   9   0  -4 2330.43 290.117   2
  -9   0   4 2116.12 146.334   3
  -8   0   4 1586.52 121.974   3
   8   0  -4 1784.15 238.269   2
   7   0  -4 212.197 81.1947   2
   6   0  -4 1934.78 215.124   2
   5   0  -4 171.678 48.6863   2
   4   0  -4 2370.93 196.462   2
   3   0  -4 1586.31 141.853   2
   2   0  -4 41431.7 638.925   2
   1   0  -4 1272.25 97.8409   2
   0   0   4 27057.8 518.777   1
   0   0  -4 27960.3 415.834   2
   1   0   4 8076.87 278.718   1
   2   0   4 44623.6 651.903   1
   3   0   4 965.578 96.8297   1
   4   0   4 9085.26 306.973   1
  -4   0  -4 8955.40 309.621   1
   5   0   4 21.6933 17.1137   1
  -5   0  -4-1.71598 22.1672   1
  -6   0  -4 1674.87 145.016   1
   6   0   4 1595.76 138.921   1
  -7   0  -4 108.900 40.1114   1
   7   0   4 99.6593 37.1373   1
   7   0   4 74.3710 25.3507   3
   8   0   4 9807.63 281.997   3
  -8   0  -4 9220.30 366.793   1
   8   0   4 9227.28 375.861   1
  -9   0  -4 467.837 84.6850   1
   9   0   4 633.126 73.5478   3
   9   0   4 490.908 90.3660   1
  10   0   4 33.6627 27.7235   1
  10   0   4 11.1849 11.5934   3
 -10   0  -4 3.56288 11.5527   1
  11   0   4 1515.38 119.291   3
 -11   0  -4 1634.59 173.923   1
  11   0   4 1644.97 184.699   1
  12   0   4 1656.45 132.575   3
 -12   0  -4 1535.31 175.482   1
  12   0   4 1851.97 205.947   1
 -13   0  -4 697.726 125.222   1
  13   0   4 919.955 151.833   1
  13   0   4 945.116 238.474   2
  13   0   4 784.883 94.0422   3
  14   0   4 969.100 108.304   3
  14   0   4 1068.38 251.776   2
  14   0   4 976.095 161.174   1
 -14   0  -4 1011.45 152.936   1
  15   0   4-8.31931 35.4523   1
  15   0   4-68.7688 66.5703   2
  15   0   4 35.9716 20.8952   3
 -15   0  -4 28.7077 27.2024   1
 -16   0  -4 713.038 140.641   1
  16   0   4 728.725 150.043   1
  16   0   4 731.569 101.398   3
  16   0   4 524.722 189.130   2
  17   0   4 60.0056 32.0225   3
 -17   0  -4 59.6256 39.3876   1
  17   0   4 29.8331 18.8620   1
 -18   0  -4 27.7528 20.9069   1
  18   0   4-7.06020 13.4512   3
 -19   0  -4 45.3663 47.2745   1
  19   0   4-2.47562 12.8678   3
  20   0   4-11.3677 34.9915   3
 -20   0  -4-6.47268 28.0664   1
  21   0   4 147.307 57.0224   3
 -21   0  -4 81.4221 56.2407   1
  22   0   4 145.279 50.8728   3
 -22   0  -4-69.7116 51.9633   1
 -23   0  -4-16.6833 36.5603   1
  23   0   4 3.91818 13.8575   3
 -24   0  -4-24.3401 33.8835   1
 -25   0  -4 2.11577 15.4454   1
 -26   0  -4 523.739 162.781   1
 -27   0  -4 505.297 160.504   1
 -29   1   4 65.5635 67.3727   1
 -28  -1   4 52.7510 54.5417   1
 -28   1   4 44.2625 71.7202   1
 -27  -1   4 70.3291 63.4296   1
 -27   1   4 101.713 79.9670   1
 -26   1   4-14.3726 31.6465   1
 -26  -1   4-34.2663 42.9363   1
 -25   1   4-1.97459 16.9342   1
 -25  -1   4-55.3942 25.9591   1
 -24   1   4 18.7597 35.5049   1
 -24  -1   4 11.3069 37.9832   1
 -23  -1   4-21.5822 21.3174   1
 -23   1   4-47.6875 58.3523   1
 -22   1   4 399.755 144.567   1
 -22  -1   4 325.326 115.557   1
 -21  -1   4 876.493 189.243   1
 -21   1   4 1101.01 227.860   1
 -20   1   4 1070.44 111.206   3
 -20   1   4 1183.76 229.616   1
 -20  -1   4 1454.53 237.448   1
 -19   1   4 31.5907 39.9638   1
 -19  -1   4 69.9036 63.4161   1
 -19  -1   4 26.3066 91.4200   2
 -19   1   4 51.0510 23.7887   3
 -18  -1   4 106.740 63.4640   1
 -18  -1   4-12.4874 83.0175   2
 -18   1   4 61.3730 26.0869   3
 -18   1   4 123.494 68.2893   1
 -18  -1   4 47.8705 30.6784   3
 -17   1   4 24.5869 13.7566   3
 -17  -1   4 11.9276 12.9161   3
 -17   1   4 4.81067 45.0418   1
 -17  -1   4 45.5398 39.4049   1
 -17  -1   4-4.95652 54.0650   2
 -16  -1   4 116.390 63.3554   1
 -16   1   4 133.747 38.3742   3
 -16   1   4 191.760 84.6914   1
  16   1  -4 208.626 102.017   2
 -16  -1   4 69.7739 64.5219   2
 -16  -1   4 114.257 45.6897   3
  15   1  -4 123.099 92.3728   2
 -15  -1   4 44.0758 32.8292   1
 -15  -1   4 53.6543 24.2518   3
 -15   1   4 57.0521 27.1394   3
 -15   1   4 57.5907 37.7347   2
 -15  -1   4 45.0540 31.0097   2
 -15   1   4 46.5099 45.2667   1
  14   1  -4 1561.38 266.309   2
  14  -1  -4 1769.87 356.528   2
 -14   1   4 1426.12 211.793   1
 -14   1   4 1660.88 128.103   3
 -14  -1   4 1408.50 296.440   2
 -14   1   4 1212.34 294.767   2
 -13  -1   4 671.397 204.709   2
 -13   1   4 539.775 190.899   2
  13   1  -4 730.240 179.575   2
  13  -1  -4 618.590 198.200   2
 -13   1   4 493.446 67.0001   3
 -13   1   4 546.565 126.374   1
  12  -1  -4 3198.46 450.157   2
 -12  -1   4 2630.30 386.756   2
 -12   1   4 2294.11 250.067   1
  12   1  -4 2526.83 308.106   2
 -12   1   4 2600.58 152.967   3
 -11  -1   4 30.3034 26.0466   2
  11   1  -4-22.6757 56.7895   2
 -11   1   4 26.1760 17.3431   3
 -11  -1   4-19.9504 22.7600   3
  11  -1  -4-11.9431 55.3329   2
  10   1  -4 1678.84 222.316   2
  10  -1  -4 2032.49 324.988   2
 -10   1   4 1806.86 121.301   3
 -10  -1   4 2122.76 315.250   2
 -10  -1   4 1752.83 152.353   3
  -9  -1   4 808.958 99.0073   3
   9   1  -4 735.870 138.768   2
   9  -1  -4 951.019 212.512   2
  -9  -1   4 719.595 166.400   2
  -8  -1   4 26.1555 37.5255   2
   8   1  -4-14.1557 17.8985   2
   8  -1  -4 25.2841 37.2590   2
   7  -1  -4 10.4835 17.8393   2
   7   1  -4 25.2616 12.6914   2
  -7  -1   4 18.2261 13.7710   2
   6   1  -4 22.2764 30.8983   2
  -6  -1   4 21.6053 18.7078   2
   6  -1  -4 32.1262 52.1104   2
   5   1  -4 81.1158 33.1517   2
   5  -1  -4 116.467 62.9898   2
   4  -1  -4 11814.2 538.131   2
   4   1  -4 10903.0 350.104   2
   3  -1  -4 635.666 120.584   2
   3   1  -4 429.472 63.1857   2
  -2  -1   4 16537.0 450.542   1
   2  -1  -4 17092.5 505.493   2
   2   1  -4 17187.9 366.554   2
   1  -1  -4 160.251 41.3979   2
  -1  -1   4 167.479 43.6489   1
   0  -1   4 4653.88 233.649   1
   0  -1  -4 4478.88 186.836   2
   1  -1   4 7984.13 312.069   1
  -1  -1  -4 7952.07 206.105   2
   2   1   4 19265.7 382.044   1
   2  -1   4 19457.1 494.338   1
   3  -1   4 17954.5 487.990   1
   3   1   4 18402.2 356.266   1
   3   1   4 18690.6 285.715   2
   4   1   4 22677.3 435.551   3
   4  -1   4 22518.9 560.418   1
  -4  -1  -4 22229.8 407.398   1
   4   1   4 22333.8 392.151   1
   5  -1   4 2513.03 192.056   1
   5   1   4 2626.57 155.362   3
  -5  -1  -4 2422.26 137.051   1
   5   1   4 2501.86 134.640   1
   6  -1   4 60.2404 27.9827   1
   6   1   4 97.0724 28.5163   1
  -6  -1  -4 87.1750 28.9458   1
   6   1   4 91.0490 30.4428   3
  -7  -1  -4 2092.90 141.617   1
   7   1   4 2288.31 145.685   1
   7   1   4 2041.19 144.461   3
   7  -1   4 2250.43 201.056   1
  -8  -1  -4 4093.01 210.805   1
  -8   1  -4 4002.75 269.456   1
   8   1   4 4227.13 211.548   3
   8   1   4 4296.09 215.973   1
   8  -1   4 4201.63 288.967   1
  -9   1  -4 3389.32 256.926   1
  -9  -1  -4 3347.30 200.533   1
   9  -1   4 3585.31 147.031   3
   9   1   4 3382.71 193.626   3
   9  -1   4 3591.37 277.677   1
   9   1   4 3586.01 211.412   1
  10  -1   4 505.842 56.7759   3
 -10  -1  -4 456.229 78.5847   1
  10  -1   4 409.662 97.0199   1
  10   1   4 423.575 69.0489   3
 -10   1  -4 430.834 96.1921   1
  10   1   4 412.880 76.0414   1
  11   1   4 203.342 52.4921   3
  11   1   4 161.134 48.9339   1
  11  -1   4 166.742 69.3524   1
 -11   1  -4 121.288 57.1302   1
 -11  -1  -4 187.072 55.7111   1
  11  -1   4 192.715 34.5668   3
  11   1   4 168.790 84.1554   2
  12   1   4 239.285 64.2980   1
  12  -1   4 320.081 94.5834   1
  12   1   4 239.952 57.2093   3
 -12  -1  -4 275.033 68.5510   1
  12  -1   4 266.321 41.6654   3
 -12   1  -4 254.754 77.8002   1
  12   1   4 264.474 107.501   2
  13   1   4 31.3128 61.5107   2
  13   1   4 68.5039 36.3760   1
  13  -1   4 64.0602 38.7647   1
  13  -1   4 49.7343 18.7502   3
 -13  -1  -4 17.3666 19.5275   1
  13   1   4 18.6806 6.55606   3
 -13   1  -4 62.4020 43.5137   1
  14   1   4 762.306 126.934   1
 -14  -1  -4 793.696 122.481   1
  14   1   4 804.263 202.516   2
  14  -1   4 881.865 85.8739   3
 -14   1  -4 760.822 144.919   1
  14  -1   4 791.296 236.257   2
  14   1   4 792.753 111.941   3
  14  -1   4 825.110 163.671   1
  15  -1   4 320.805 101.090   1
  15  -1   4 427.207 60.8307   3
  15   1   4 382.008 82.2515   3
  15   1   4 395.688 156.996   2
 -15  -1  -4 404.894 94.7620   1
 -15   1  -4 377.171 106.016   1
  16   1   4 3.75841 11.1762   3
 -16   1  -4 7.08004 36.3687   1
 -16  -1  -4-5.24812 27.5828   1
  16  -1   4 16.1129 13.5026   3
  16   1   4-60.4059 62.7708   2
  17   1   4 156.046 57.5097   3
  17   1   4 155.651 102.352   2
  17  -1   4 101.647 25.8550   3
 -17   1  -4 65.3555 56.4689   1
 -17  -1  -4 123.529 58.7597   1
  18   1   4 45.6359 51.7615   3
  18   1   4-11.0037 50.7759   2
 -18   1  -4-31.6499 36.3990   1
  18  -1   4-8.64146 17.4945   3
 -18  -1  -4 4.79077 12.8621   1
  19  -1   4 115.958 36.5467   3
  19   1   4 102.331 47.1742   3
 -19  -1  -4 244.648 83.7313   1
 -19   1  -4 211.290 87.2888   1
  20   1   4-30.4221 33.5441   3
  20  -1   4 1.47062 6.42147   3
 -20  -1  -4 12.0184 14.5089   1
 -20   1  -4-40.6476 40.4370   1
 -21  -1  -4 125.278 66.2397   1
  21  -1   4 151.992 42.4555   3
  21   1   4 120.697 52.4320   3
 -21   1  -4 65.3993 41.5574   1
 -22  -1  -4 45.0541 50.7637   1
  22   1   4-1.22279 20.9746   3
 -22   1  -4 58.7077 66.8504   1
 -23  -1  -4 32.2801 40.5873   1
  23   1   4-24.1134 18.7589   3
 -23   1  -4-7.04523 14.7175   1
 -24  -1  -4-15.8803 25.9785   1
  24   1   4-10.7536 33.7257   3
 -24   1  -4 16.7198 62.4959   1
 -25  -1  -4 208.455 91.2235   1
 -25   1  -4 79.0252 54.5096   1
 -26   1  -4-2.06732 15.8749   1
 -27   1  -4 36.1229 38.4209   1
 -28   1  -4-56.2952 58.9391   1
 -29   1  -4 451.460 165.945   1
 -28   2   4 34.5752 67.2126   1
 -27   2   4 85.7502 73.6029   1
 -26   2   4 92.0366 76.6313   1
 -25   2   4 41.0894 51.6899   1
 -25  -2   4 2.38061 15.6118   1
 -24   2   4-90.1485 72.8228   1
 -24  -2   4 144.615 78.2588   1
 -23  -2   4 39.0970 15.4382   1
 -23   2   4 74.4370 77.1196   1
 -22   2   4 91.9551 82.1964   1
 -22  -2   4 84.3027 60.6029   1
 -21  -2   4 193.282 85.7985   1
 -21   2   4 234.293 111.067   1
 -20   2   4 46.0796 55.5187   1
 -20  -2   4 58.1423 58.5732   1
 -20   2   4 22.5676 12.7289   3
 -20  -2   4-56.3901 122.062   2
 -19  -2   4 859.350 172.863   1
 -19   2   4 667.621 64.4248   3
 -19   2   4 702.403 179.442   1
 -19  -2   4 704.075 220.540   2
 -18   2   4 1316.49 92.3681   3
 -18  -2   4 1531.05 341.334   2
 -18  -2   4 1487.48 215.691   1
 -18   2   4 1815.24 281.467   1
 -17  -2   4-12.0213 38.9863   2
 -17   2   4-5.99958 35.8433   1
  17   2  -4-31.9180 53.1260   2
 -17  -2   4-6.90223 20.7894   1
 -17   2   4 24.7916 11.4582   3
 -16  -2   4 2306.86 384.101   2
  16   2  -4 2929.43 264.175   3
 -16   2   4 2336.35 124.545   3
 -16  -2   4 2288.63 249.188   1
  16   2  -4 1986.49 279.734   2
 -16   2   4 2524.07 315.125   1
 -15  -2   4 1257.97 282.579   2
  15   2  -4 956.423 146.500   3
  15   2  -4 1004.27 194.289   2
 -15  -2   4 1161.35 157.360   3
 -15   2   4 960.679 79.7239   3
 -15   2   4 1247.81 217.432   1
  14   2  -4-35.7607 39.3125   2
  14   2  -4 69.6371 54.6449   3
 -14  -2   4 3.68691 8.21982   3
 -14  -2   4-24.9956 42.8915   2
 -14   2   4-36.1017 36.0057   1
 -14   2   4-14.1635 16.6885   3
  13   2  -4 27.0999 43.5401   2
 -13   2   4 30.5985 43.2872   1
  13   2  -4 68.5627 48.3364   3
 -13  -2   4 80.2586 87.8423   2
 -13   2   4 0.02628 12.1712   3
 -13  -2   4 14.6504 20.7910   3
  12  -2  -4 155.092 103.300   2
  12   2  -4 4.78490 12.4074   2
 -12  -2   4 52.9572 33.7513   3
 -12  -2   4 161.551 121.553   2
  12   2  -4 14.0085 34.7600   3
 -12   2   4 40.8160 16.5265   3
  11   2  -4 62.1551 38.9923   2
 -11  -2   4 63.0375 31.9835   3
  11  -2  -4 76.4078 54.7864   2
 -11  -2   4 4.64373 48.2785   2
  11   2  -4 75.7997 42.2376   3
  10  -2  -4 284.565 115.265   2
  10   2  -4 328.900 75.0753   3
 -10  -2   4 436.984 136.613   2
  10   2  -4 322.318 81.6857   2
   9  -2  -4 1594.66 296.535   2
   9   2  -4 1415.45 150.678   3
   9   2  -4 1496.34 169.316   2
  -9  -2   4 1653.60 246.287   2
   8   2  -4 50.1505 36.5675   2
   8   2  -4-15.8413 15.3769   3
  -8  -2   4-14.4211 39.3519   2
   8  -2  -4 7.14147 59.9340   2
  -7  -2   4 1205.69 175.549   2
   7  -2  -4 1329.15 252.911   2
   7   2  -4 1070.94 124.801   3
   7   2  -4 1013.44 118.518   2
  -6  -2   4 583.544 109.983   2
   6   2  -4 512.632 84.5624   3
   6   2  -4 524.622 79.3999   2
   6  -2  -4 471.894 147.555   2
   5   2  -4 321.821 55.8420   2
  -5  -2   4 335.670 69.4186   1
  -5  -2   4 293.999 69.0302   2
   5  -2  -4 361.285 124.146   2
   5   2  -4 294.280 64.7189   3
   4  -2  -4 1504.61 228.125   2
   4   2  -4 1327.30 127.207   3
   4   2  -4 1303.62 110.198   2
  -4  -2   4 1213.98 132.413   1
  -4  -2   4 1343.56 134.322   2
  -3  -2   4 2624.05 192.192   1
   3  -2  -4 2954.67 291.757   2
  -3  -2   4 2706.00 173.480   2
  -2  -2   4 228.729 48.9800   2
  -2   2   4 354.950 96.1191   2
  -2  -2   4 316.894 67.1281   1
   2  -2  -4 269.139 83.4129   2
   1  -2  -4 7570.62 370.917   2
  -1   2   4 7521.09 408.959   2
  -1  -2   4 6984.87 317.522   1
   0  -2   4 1173.29 131.415   1
   0  -2  -4 1177.42 125.087   2
   0   2   4 1110.81 143.883   2
   0  -2   4 1183.32 105.027   3
   0   2   4 1094.52 98.2753   3
   1   2   4 2562.72 191.522   2
   1   2   4 2417.25 148.199   3
  -1  -2  -4 2346.67 137.328   2
   1  -2   4 2413.65 141.576   3
   1  -2   4 2538.02 196.791   1
   2  -2   4 17.1989 19.9928   1
   2  -2   4 7.19443 19.4380   3
   2   2   4-2.01916 13.9634   2
   2   2   4 15.6943 20.0362   3
  -2  -2  -4 7.30647 10.0698   2
   3   2   4 107.571 28.6727   2
   3   2   4 85.9785 30.8470   3
   3  -2   4 81.8770 35.8335   1
   4   2   4 5110.74 237.172   3
   4  -2   4 5459.22 311.721   1
   4   2   4 5044.52 147.237   1
   5   2   4 308.592 29.7850   2
   5  -2   4 350.916 81.9202   1
   5   2   4 329.883 62.3327   3
   6  -2   4 1983.86 202.526   1
   6   2   4 1811.99 146.524   3
   6   2   4 1663.36 77.2044   1
   7   2   4 146.457 25.5711   1
   7   2   4 202.214 51.4928   3
   7  -2   4 181.608 59.5911   1
  -7  -2  -4 157.319 28.8137   1
   7   2   4 183.243 47.5430   2
   8   2   4 149.174 29.4950   1
  -8  -2  -4 154.458 30.7414   1
   8  -2   4 162.469 63.1252   1
   8   2   4 247.561 61.3336   2
   8   2   4 182.530 46.5636   3
   9   2   4 2611.09 232.520   2
  -9  -2  -4 2414.93 134.386   1
   9   2   4 2475.29 188.486   3
   9  -2   4 2567.87 261.452   1
 -10  -2  -4 1321.99 108.428   1
  10  -2   4 1327.24 71.1780   3
  10   2   4 1310.64 141.966   3
  10   2   4 1397.43 187.248   2
  10  -2   4 1600.23 214.615   1
 -11   2  -4 1263.86 186.561   1
  11   2   4 1301.57 197.351   2
 -11  -2  -4 1138.01 136.966   3
  11   2   4 1109.98 136.293   3
 -11  -2  -4 1324.61 115.637   1
  11  -2   4 1073.42 59.8863   3
  11  -2   4 1343.45 203.672   1
  12   2   4 2926.14 318.702   2
  12  -2   4 2486.09 92.1007   3
 -12  -2  -4 2559.26 173.262   1
 -12  -2  -4 2729.62 215.128   3
  12   2   4 2887.11 225.601   3
 -12   2  -4 2814.90 280.091   1
  12  -2   4 2980.98 313.197   1
 -13  -2  -4 348.560 67.9928   1
  13   2   4 381.228 84.5327   3
 -13   2  -4 288.149 99.4667   1
  13   2   4 486.372 143.530   2
  13  -2   4 285.814 104.207   1
  13  -2   4 298.651 32.0837   3
 -13  -2  -4 345.628 79.5414   3
 -14  -2  -4 366.969 73.7561   1
  14  -2   4 296.707 31.3557   3
 -14   2  -4 311.283 94.7711   1
  14   2   4 323.242 123.124   2
  14   2   4 394.890 86.3475   3
 -15   2  -4 896.739 171.812   1
  15  -2   4 789.528 50.9989   3
  15   2   4 924.444 138.138   3
  15   2   4 1181.22 238.692   2
 -15  -2  -4 1017.49 130.068   1
  16  -2   4 98.4915 17.6750   3
 -16  -2  -4 136.318 49.2138   1
  16   2   4 107.859 45.8286   3
 -16   2  -4 116.748 61.4663   1
  16   2   4 224.671 112.747   2
  17   2   4 1107.34 161.502   3
  17   2   4 1218.74 260.770   2
 -17  -2  -4 1013.60 141.432   1
 -17   2  -4 910.542 182.991   1
 -18  -2  -4 74.4848 38.9515   1
  18   2   4 17.0117 41.5401   2
  18   2   4 64.1074 44.5927   3
 -18   2  -4 71.6188 54.8054   1
 -19  -2  -4 529.412 111.065   1
  19   2   4 623.276 124.438   3
  19   2   4 436.963 168.615   2
 -19   2  -4 547.230 148.130   1
 -20  -2  -4 48.7593 37.3246   1
  20   2   4 34.1595 48.7374   3
 -20   2  -4 17.5517 22.7499   1
  21   2   4-16.3481 46.9399   3
 -21  -2  -4 6.05259 24.5042   1
 -21   2  -4 24.6825 13.8339   1
 -22  -2  -4-42.6650 35.4415   1
  22   2   4-10.5575 16.3892   3
 -22   2  -4 103.546 65.2412   1
  23   2   4 39.6587 40.1165   3
 -23   2  -4 84.8087 66.0095   1
 -24   2  -4-85.9521 68.2068   1
  24   2   4-50.2114 40.5259   3
 -25   2  -4-30.3214 42.2946   1
  25   2   4 150.865 65.3429   3
 -26   2  -4 102.331 69.0600   1
  26   2   4 47.4579 49.8547   3
 -27   2  -4 503.701 177.872   1
 -28   2  -4 245.186 125.664   1
 -26   3   4-15.6373 35.5556   1
 -25   3   4-141.457 95.5876   1
 -24   3   4-100.012 78.9176   1
 -23  -3   4 142.247 77.4348   1
 -23   3   4 25.3679 27.6469   1
 -22   3   4 35.5756 40.1626   1
 -22  -3   4 7.72608 50.3868   1
 -21  -3   4 36.2315 46.1698   1
 -21   3   4 23.7168 40.3564   1
 -20   3   4 91.1565 61.1834   1
 -20  -3   4 21.4577 29.3221   1
 -19  -3   4 0.34375 22.6862   1
  19   3  -4 51.3630 55.0243   3
 -19   3   4-19.1665 56.1123   1
 -19  -3   4 7.50150 22.1048   2
  18   3  -4 41.5746 29.8782   2
  18   3  -4 99.8975 73.3112   3
 -18  -3   4 59.7070 65.9249   2
 -18   3   4 72.7617 71.8304   1
 -18  -3   4 109.772 63.5707   1
 -17   3   4 81.1087 52.8570   1
  17   3  -4 163.897 71.4104   3
 -17  -3   4 101.215 63.5793   2
 -17  -3   4 163.696 71.0002   1
  17   3  -4 154.557 71.0193   2
  16   3  -4 436.015 113.565   3
  16   3  -4 194.128 71.6224   2
 -16   3   4 421.676 136.255   1
 -16  -3   4 315.508 134.021   2
  15   3  -4 315.371 90.3126   3
 -15   3   4 294.842 27.5633   3
 -15  -3   4 584.434 188.864   2
  15   3  -4 452.092 113.049   2
 -15   3   4 498.420 143.869   1
 -14   3   4 32.0821 37.9330   1
  14   3  -4 18.2291 53.2782   3
  14   3  -4 57.6403 45.0057   2
 -14   3   4 20.4738 8.50922   3
 -14  -3   4 44.7553 70.5275   2
 -14   3   4 25.6983 11.2369   3
 -13   3   4 240.403 34.1750   3
 -13   3   4 232.029 90.1145   1
  13   3  -4 275.296 85.1145   3
 -13  -3   4 295.253 136.306   2
  13   3  -4 278.827 75.5247   2
  12   3  -4 30.8450 35.3979   3
 -12   3   4-42.2101 38.0445   1
 -12  -3   4 57.1986 62.8358   2
  12   3  -4-24.1948 36.5060   2
  11   3  -4 146.075 51.0874   2
  11   3  -4 177.266 69.7594   3
  11  -3  -4 104.458 62.1233   2
 -11  -3   4 126.173 79.1773   2
 -11  -3   4 166.134 59.0740   3
  10  -3  -4 210.110 117.826   2
  10   3  -4 196.843 52.2781   2
 -10  -3   4 141.876 82.8580   2
 -10  -3   4 142.911 50.0564   1
  10   3  -4 226.881 72.9577   3
   9   3  -4 23.5188 29.1921   3
   9   3  -4 2.62349 13.1324   2
  -9  -3   4 10.2404 14.1081   1
  -9  -3   4 10.9979 29.3742   2
   9  -3  -4 0.49858 57.6739   2
  -8  -3   4 34.0869 25.6531   1
   8  -3  -4 222.037 129.128   2
   8   3  -4 64.2144 31.1988   2
   8   3  -4 102.294 55.4924   3
  -8   3   4 79.5234 27.2857   3
  -8  -3   4 66.7732 41.1832   2
   7  -3  -4 1285.97 267.333   2
  -7  -3   4 1073.98 154.922   2
   7   3  -4 963.344 132.115   3
  -7  -3   4 951.440 125.684   1
  -7   3   4 1022.16 87.6265   3
   7   3  -4 1103.60 110.342   2
   6   3  -4 727.343 111.518   3
  -6  -3   4 614.368 99.4631   1
  -6  -3   4 677.042 110.357   2
  -6   3   4 638.193 71.7650   3
   6  -3  -4 713.989 188.354   2
  -5   3   4 37.9149 17.8648   3
  -5  -3   4 83.4025 36.7366   1
  -5   3   4 84.8350 39.1532   1
   5  -3  -4 60.6009 52.6031   2
   5   3  -4 73.9125 37.7436   3
  -5  -3   4 95.2983 42.3270   2
  -4  -3   4 479.241 87.4152   1
  -4   3   4 418.441 62.7633   3
  -4  -3   4 422.776 76.3691   2
  -4   3   4 372.260 85.2205   1
   4  -3  -4 339.188 122.723   2
   4   3  -4 442.343 84.3539   3
  -3  -3   4 238.387 52.2284   2
  -3   3   4 293.212 68.2092   1
  -3   3   4 280.898 51.4135   3
   3   3  -4 221.917 59.4385   3
  -3  -3   4 293.679 67.6390   1
   3  -3  -4 343.179 108.621   2
   3   3  -4 228.406 66.3714   1
   2  -3  -4 1232.28 194.406   2
   2   3  -4 1083.09 124.250   3
  -2  -3   4 1058.22 133.162   1
  -2   3   4 951.649 96.7646   3
  -2  -3   4 1070.98 118.971   3
   2   3  -4 1065.48 137.611   1
  -2   3   4 912.412 116.735   1
  -1   3   4 1694.34 135.589   3
  -1  -3   4 1746.10 149.331   3
   1  -3  -4 2238.54 244.409   2
  -1  -3   4 1789.19 177.373   1
   1   3  -4 1787.69 150.703   3
   1   3  -4 1931.29 189.609   1
  -1   3   4 1828.65 158.232   1
   0  -3  -4 1049.70 148.903   2
   0  -3   4 1225.19 148.302   1
   0   3   4 943.760 105.574   1
   0   3   4 928.386 102.715   3
   0   3  -4 975.013 135.314   1
   0  -3   4 969.669 105.373   3
  -1  -3  -4 1611.49 154.222   2
   1   3   4 1321.11 114.882   1
   1  -3   4 1536.56 129.771   3
   1   3   4 1523.04 133.721   3
   1  -3   4 1552.71 170.639   1
  -2  -3  -4 411.568 59.3726   2
   2   3   4 425.665 71.6606   3
   2  -3   4 515.575 72.3739   3
   2   3   4 409.281 57.0029   1
   2  -3   4 531.667 101.180   1
   3   3   4 47.4629 17.9667   1
   3   3   4 20.8222 19.4222   3
   3  -3   4 12.6587 8.06498   3
   3  -3   4 55.3003 30.2052   1
   4   3   4 592.516 87.0525   3
   4  -3   4 501.168 106.397   1
   4  -3   4 624.536 73.3162   3
   4   3   4 545.753 44.0678   1
   5   3   4 120.855 39.2779   3
   5  -3   4 120.782 53.1836   1
   5  -3   4 134.545 31.1406   3
   6  -3   4-13.5111 13.9684   3
   6   3   4-13.7786 16.5977   3
   6  -3   4-4.60390 26.0844   1
   7  -3   4 947.167 160.667   1
   7  -3   4 681.730 65.2061   3
   7   3   4 685.819 106.460   3
   8  -3   4 734.717 62.1379   3
   8  -3   4 734.559 148.833   1
   8   3   4 628.719 106.521   3
   9  -3   4 111.015 22.0932   3
   9  -3   4 65.6909 47.6356   1
   9   3   4 152.583 52.1856   3
  10   3   4 87.7521 25.8425   2
  10  -3   4 94.0002 15.8530   3
  10  -3   4 127.805 67.0343   1
  10   3   4 138.763 56.4654   3
  11   3   4 193.825 65.0882   3
 -11   3  -4 211.692 76.0121   1
  11   3   4 235.414 52.2573   2
 -11  -3  -4 204.698 65.2509   3
  12   3   4 34.1421 31.3123   2
  12   3   4 15.0295 21.5154   3
 -12   3  -4 17.7662 33.1017   1
  13   3   4 154.104 53.9232   3
 -13  -3  -4 128.019 27.6237   1
  13   3   4 151.592 45.1714   2
 -13   3  -4 148.575 74.7307   1
 -14   3  -4 20.4304 30.5003   1
  14   3   4 34.5277 36.7762   2
  14   3   4 9.20388 16.0927   3
 -14  -3  -4 18.8824 13.6878   1
  15   3   4-26.8667 32.3200   2
 -15  -3  -4 28.9526 16.9667   1
  15   3   4 1.31588 16.3089   3
 -15   3  -4-2.02188 28.1995   1
  16   3   4 170.841 71.4314   3
  16   3   4 52.1041 51.1625   2
 -16  -3  -4 91.5040 31.4228   1
 -16   3  -4 125.617 69.2574   1
  17   3   4-116.566 63.0849   2
 -17  -3  -4 6.28397 9.60994   1
  17   3   4 82.9330 53.2520   3
 -17   3  -4-44.0281 60.1877   1
 -18  -3  -4 356.269 69.5187   1
  18   3   4 452.026 126.554   2
  18   3   4 340.636 99.2458   3
 -18   3  -4 252.245 100.418   1
 -19  -3  -4 23.5178 19.7101   1
 -19   3  -4 37.7106 18.1287   1
  19   3   4-4.31629 27.8689   3
 -20   3  -4-5.77232 17.7470   1
  20   3   4 8.55391 23.3332   3
  21   3   4 317.902 100.995   3
 -21   3  -4 129.580 81.1723   1
 -22   3  -4 171.542 91.6378   1
  22   3   4 137.522 56.8695   3
  23   3   4 81.5409 53.8312   3
 -23   3  -4 198.243 96.5312   1
  24   3   4 111.208 70.9462   3
 -24   3  -4 182.182 119.946   1
 -25   3  -4 109.572 82.3413   1
  25   3   4-33.6681 37.5888   3
 -26   3  -4 254.434 197.808   1
  26   3   4 46.9200 51.9294   3
  27   3   4-105.126 66.7226   3
 -24   4   4 41.8768 57.9871   1
 -23   4   4 102.690 80.2929   1
 -22   4   4-12.6375 29.4817   1
 -21   4   4-48.1467 52.8727   1
  21   4  -4 34.6783 38.5717   3
 -20   4   4 23.5938 11.1972   1
 -20  -4   4 15.0978 19.2416   1
 -20  -4   4-46.6129 60.7711   2
  19   4  -4 59.4503 61.3989   3
 -19   4   4 14.1411 29.1337   1
 -19  -4   4 33.1999 44.8029   2
 -19  -4   4-4.00425 12.9016   1
 -18  -4   4 664.817 127.726   1
 -18  -4   4 461.903 179.597   2
 -18   4   4 709.076 189.979   1
  18   4  -4 574.995 138.997   3
  17   4  -4 46.5112 11.6676   2
  17   4  -4 142.443 85.0469   3
 -17  -4   4 264.725 125.023   2
 -17   4   4 109.231 79.7972   1
 -17  -4   4 98.7901 48.6840   1
 -17  -4   4 124.354 70.7579   1
  16   4  -4 150.650 51.0673   2
 -16  -4   4 249.592 112.638   2
 -16   4   4 154.553 74.1230   1
  16   4  -4 218.137 84.4624   3
 -16  -4   4 164.621 60.8241   1
 -15   4   4 178.493 93.9163   1
  15   4  -4 201.363 82.8545   3
 -15  -4   4 291.063 137.746   2
 -15  -4   4 262.324 75.3276   1
  15   4  -4 170.384 58.7608   2
  14   4  -4 700.298 107.967   2
 -14  -4   4 644.426 116.417   1
  14   4  -4 746.197 149.232   3
 -14   4   4 712.435 172.476   1
 -14  -4   4 560.066 180.675   2
  13   4  -4 20.5365 34.3239   2
 -13  -4   4 11.2741 20.4752   1
 -13  -4   4-1.41224 43.5953   2
  13   4  -4 10.1497 28.2919   3
 -13   4   4 29.0739 32.6481   1
 -12   4   4-12.7262 52.4056   1
 -12  -4   4-64.6589 45.9410   2
  12   4  -4 14.4784 32.9221   3
 -12  -4   4-10.9043 15.0098   1
  12   4  -4 16.9769 11.8663   2
 -12   4   4-4.64836 8.40247   3
  11   4  -4 43.0007 45.4748   3
 -11   4   4 126.007 65.4940   1
 -11  -4   4 224.509 101.589   2
 -11  -4   4 137.732 49.9235   1
 -11   4   4 104.775 23.4721   3
 -10   4   4 65.4245 21.0918   3
 -10  -4   4 85.5051 42.1327   1
  10   4  -4 66.4954 37.2013   3
 -10   4   4 56.1319 31.5624   1
 -10  -4   4 124.652 83.3073   2
  -9  -4   4 320.796 75.2436   1
  -9   4   4 234.246 86.8767   1
  -9  -4   4 298.640 88.7671   2
   9  -4  -4 233.635 147.001   2
  -9   4   4 254.154 41.3116   3
   9   4  -4 272.677 85.1230   3
  -8   4   4 18.7152 18.5472   1
  -8  -4   4-9.32997 42.0291   2
  -8   4   4-7.32208 12.9884   3
   8  -4  -4 28.6480 63.3037   2
  -8  -4   4 2.89282 27.1028   1
   8   4  -4-1.01520 20.6443   3
  -7  -4   4 97.2938 56.9583   2
  -7   4   4 64.4552 25.6349   3
  -7   4   4 53.2722 43.3706   1
   7   4  -4 67.7194 43.9550   3
  -7  -4   4 54.6823 32.6305   1
   7  -4  -4 163.429 107.112   2
   6   4  -4 22.4519 30.1839   3
  -6  -4   4 6.62207 32.2256   2
  -6   4   4-6.04213 24.7396   1
  -6  -4   4 14.7676 25.2535   3
  -6   4   4 12.6146 10.2628   3
  -6  -4   4 21.6470 22.0706   1
   6  -4  -4 31.1793 71.8259   2
  -5   4   4 42.2953 18.8600   3
   5  -4  -4 95.3493 97.3978   2
  -5  -4   4 62.4086 36.1414   2
   5   4  -4 32.6151 21.5385   3
  -5  -4   4 40.6214 31.8042   1
  -5  -4   4 78.5632 35.8846   3
  -4  -4   4 60.8125 37.9582   1
  -4   4   4 181.476 48.3546   3
   4   4  -4 186.567 62.4260   1
  -4  -4   4 73.9928 32.0061   2
   4  -4  -4 112.511 86.0042   2
   4   4  -4 166.530 65.1295   3
  -4  -4   4 90.2930 44.3828   3
  -3  -4   4 91.6284 43.2311   1
   3   4  -4 77.4872 40.4534   1
   3   4  -4 114.611 45.4417   3
  -3   4   4 104.029 47.1957   1
   3  -4  -4 75.8889 67.4877   2
  -3  -4   4 100.799 39.4714   2
  -3  -4   4 106.222 41.6341   3
  -3   4   4 63.8352 30.4645   3
  -2  -4   4 86.4637 40.8457   1
  -2   4   4 40.1805 21.5720   3
   2   4  -4 113.991 50.7223   3
   2   4  -4 105.341 53.9808   1
   2  -4  -4 111.292 80.2254   2
  -2   4   4 93.7141 44.2543   1
  -2  -4   4 52.6864 28.2068   3
  -1  -4   4 724.242 106.780   3
  -1   4   4 571.906 84.7165   3
  -1  -4   4 692.449 119.666   1
   1   4  -4 676.481 104.053   3
   1  -4  -4 657.856 144.006   2
   1   4  -4 755.176 131.691   1
  -1   4   4 719.690 109.312   1
   0  -4  -4 2232.56 252.994   2
   0   4  -4 1805.55 165.139   3
   0  -4   4 1834.50 165.389   3
   0   4   4 1431.55 138.903   3
   0  -4   4 1646.36 188.249   1
   0   4   4 1667.58 155.658   1
   1  -4   4 168.448 58.4660   1
  -1   4  -4 150.141 50.2171   3
   1   4   4 156.901 43.2216   1
   1   4   4 132.837 46.6959   3
  -1  -4  -4 197.739 63.8080   2
   1  -4   4 155.289 47.4887   3
   2  -4   4 357.650 69.9143   3
   2  -4   4 418.032 100.018   1
  -2  -4  -4 418.859 82.4936   2
   2   4   4 389.364 63.5898   1
   2   4   4 393.343 77.5337   3
  -3  -4  -4 330.396 49.5167   2
   3   4   4 432.456 59.1541   1
   3  -4   4 552.046 83.5977   3
   3  -4   4 478.555 113.205   1
   3   4   4 451.705 85.7543   3
   4   4   4 93.3813 25.0706   1
  -4   4  -4 100.194 59.2486   1
   4  -4   4 86.6985 56.4921   1
   4   4   4 144.745 55.9118   3
   4  -4   4 137.573 43.4549   3
  -4  -4  -4 127.628 52.7986   3
  -5   4  -4 48.9436 41.3597   1
   5  -4   4 77.6939 45.9309   1
   5   4   4 41.9146 30.5787   3
   5  -4   4 82.4523 29.3585   3
  -6   4  -4 294.658 91.6529   1
   6  -4   4 505.438 126.014   1
   6  -4   4 452.086 65.1223   3
   6   4   4 298.351 75.7469   3
  -7   4  -4 65.1138 45.4376   1
   7  -4   4 144.558 66.8219   1
   7   4   4 110.289 47.9364   3
   7  -4   4 103.047 26.9076   3
  -8   4  -4 46.6411 41.6282   1
   8  -4   4 37.7265 16.6881   3
   8   4   4 47.7226 35.3888   3
  -9   4  -4 688.027 147.629   1
   9   4   4 841.739 138.706   3
   9  -4   4 875.918 70.7161   3
  10   4   4 4822.19 331.162   3
 -10   4  -4 4411.06 388.184   1
  10  -4   4 4295.56 130.577   3
 -11   4  -4 421.535 123.423   1
  11   4   4 325.108 83.6284   3
  12   4   4 1090.27 168.590   3
 -12   4  -4 992.544 191.656   1
 -13   4  -4 189.271 91.1044   1
  13   4   4 194.514 71.6156   3
 -14   4  -4 188.141 81.8208   1
  14   4   4 166.232 74.2786   3
 -15   4  -4 359.338 123.029   1
  15   4   4 513.732 121.465   3
  15   4   4 265.412 34.2470   2
 -16   4  -4-65.1772 54.2373   1
  16   4   4-0.57887 23.8339   3
  16   4   4 23.7465 11.2627   2
  17   4   4 105.978 56.6440   3
 -17   4  -4 27.5195 36.8973   1
 -18   4  -4-9.99625 40.5877   1
  18   4   4 56.1651 45.7703   3
 -19   4  -4 20.4064 34.0842   1
  19   4   4-37.7058 44.6491   3
 -20   4  -4 174.255 107.521   1
  20   4   4 202.810 82.1894   3
 -21   4  -4-83.5889 68.9441   1
  21   4   4-122.123 67.7228   3
 -22   4  -4 245.197 119.562   1
  22   4   4-16.4449 20.8106   3
 -23   4  -4 527.500 181.521   1
  23   4   4 577.610 151.227   3
 -24   4  -4 68.5201 67.7676   1
  24   4   4 28.6632 50.0755   3
  25   4   4 195.061 90.5356   3
  26   4   4 91.0558 70.2293   3
 -23   5   4 63.8976 66.4325   1
  22   5  -4 212.374 112.872   3
 -22   5   4 119.542 87.9303   1
  21   5  -4-2.00899 27.3909   3
 -21   5   4 88.4972 73.7861   1
 -20   5   4 49.0590 54.7470   1
  20   5  -4 51.2372 52.1981   3
  19   5  -4 78.4355 65.6029   3
 -19   5   4 89.1266 71.1885   1
  18   5  -4 83.6789 68.0005   3
 -18   5   4 167.207 90.2866   1
  17   5  -4 13.4883 35.2861   3
 -17  -5   4 7.96173 46.4086   2
 -17   5   4 13.0524 38.1884   1
 -16   5   4 115.216 73.2148   1
 -16  -5   4 229.698 98.6367   2
  16   5  -4 140.387 74.6990   3
  15   5  -4 196.376 80.4803   3
 -15   5   4 205.794 99.1779   1
 -15  -5   4 309.430 129.812   2
 -14   5   4 30.6376 37.7106   1
 -14  -5   4-15.0673 16.9741   1
  14   5  -4 48.7531 57.4059   3
 -14  -5   4-83.0005 67.6625   2
 -13  -5   4 13.2982 28.1473   2
 -13   5   4 11.9224 28.2865   1
 -13   5   4-5.77049 8.92078   3
 -13  -5   4 5.94385 9.97664   1
  13   5  -4 24.0221 47.8006   3
 -12   5   4 17.1972 14.3912   3
 -12  -5   4-53.9074 73.6957   2
 -12   5   4 56.6267 51.1100   1
 -12  -5   4 3.79028 9.39033   1
  12   5  -4 18.6106 34.5362   3
  11   5  -4-11.3098 18.6132   3
 -11  -5   4 46.1853 65.2882   2
 -11  -5   4 0.68946 4.35502   1
 -11   5   4 28.6380 17.1085   3
 -11   5   4 12.0247 24.2909   1
 -10  -5   4 125.686 45.3965   1
  10   5  -4 81.8731 51.9129   3
 -10  -5   4 78.7361 35.4563   2
 -10   5   4 101.188 60.5325   1
 -10   5   4 72.1607 27.5938   3
  -9  -5   4 262.144 68.8544   1
  -9  -5   4 308.214 92.4125   2
  -9   5   4 238.386 86.9395   1
  -9   5   4 205.022 47.6755   3
   9   5  -4 326.071 97.7548   3
  -8  -5   4 963.797 155.490   2
  -8  -5   4 887.544 128.673   1
  -8   5   4 955.014 105.088   3
   8   5  -4 983.550 162.025   3
  -8   5   4 867.889 170.532   1
  -7   5   4 774.877 97.0741   3
  -7  -5   4 982.604 138.379   1
  -7  -5   4 915.523 148.791   2
   7   5  -4 828.878 147.816   3
   7  -5  -4 1393.70 321.523   2
  -7   5   4 839.755 162.288   1
  -6  -5   4 148.646 57.4474   1
  -6  -5   4 143.954 59.9817   2
  -6   5   4 183.008 50.5092   3
  -6   5   4 149.722 68.7173   1
   6   5  -4 82.7512 52.0792   3
   6  -5  -4 364.513 166.027   2
  -5  -5   4-19.4800 12.3438   2
  -5   5   4-10.5619 32.7011   1
   5  -5  -4 54.0828 94.4796   2
   5   5  -4 24.6631 18.6372   3
  -5   5   4 7.82527 25.1784   3
  -5  -5   4-1.79996 18.3137   1
  -4   5   4 391.272 99.3818   1
   4  -5  -4 423.231 159.410   2
   4   5  -4 393.500 95.9480   3
  -4   5   4 296.324 65.2476   3
  -4  -5   4 429.675 81.3913   2
  -4  -5   4 343.478 86.5691   1
   3  -5  -4 430.154 161.130   2
  -3   5   4 389.906 75.7521   3
   3   5  -4 340.853 85.6011   3
  -3  -5   4 426.535 95.6656   3
  -3  -5   4 468.059 85.9010   2
  -3  -5   4 346.638 88.3396   1
   2   5  -4 74.3843 44.6852   3
  -2  -5   4 55.6105 42.6449   3
   2  -5  -4 81.9414 46.6454   2
  -2   5   4 9.31481 8.47908   3
  -2  -5   4 16.7973 13.4154   1
   1  -5  -4 1572.97 257.104   2
   1   5  -4 1066.73 154.530   3
  -1   5   4 1030.35 133.218   3
  -1  -5   4 1297.48 158.915   3
  -1   5   4 1206.17 151.359   1
  -1  -5   4 1251.72 176.708   1
   0  -5   4 53.9961 37.3871   1
   0   5   4 64.3164 33.2231   1
   0   5  -4 102.862 45.1140   3
   0   5   4 96.6214 44.8911   3
   0  -5  -4 114.709 62.1441   2
   0  -5   4 113.608 39.2875   3
   1  -5   4 374.830 82.5239   3
   1   5   4 266.527 74.9350   3
  -1   5  -4 208.680 74.9205   1
  -1   5  -4 321.866 81.0700   3
   1  -5   4 310.123 93.9906   1
  -1  -5  -4 288.386 85.4767   2
   1   5   4 269.879 63.9564   1
  -2   5  -4 189.129 76.5365   1
   2   5   4 149.756 60.3123   3
   2   5   4 148.348 43.3389   1
   2  -5   4 106.721 40.1650   3
  -2  -5  -4 228.856 65.7728   2
   2  -5   4 224.292 81.4141   1
   3   5   4 695.113 89.0902   1
  -3  -5  -4 637.435 91.0632   2
   3  -5   4 696.557 103.061   3
  -3   5  -4 657.961 141.774   1
   3  -5   4 873.242 165.510   1
   3   5   4 647.557 117.511   3
   4   5   4 8.26581 13.0055   3
   4  -5   4 13.0134 22.3129   3
   4  -5   4 72.8812 48.8871   1
   4   5   4-11.9027 13.2532   1
  -4   5  -4-9.16050 24.8486   1
   5   5   4 93.1577 46.3210   3
   5   5   4 97.1474 23.1980   1
  -5   5  -4 83.7609 56.0567   1
   5  -5   4 124.937 41.3191   3
   6   5   4 104.437 44.4720   3
   6  -5   4 159.568 43.0297   3
  -6   5  -4 132.714 66.7856   1
  -7   5  -4 398.109 117.478   1
   7   5   4 469.096 104.979   3
   7  -5   4 467.216 72.2001   3
  -8   5  -4 29.3709 23.8708   1
   8  -5   4 1.98259 9.64787   3
   8   5   4 62.2374 46.2513   3
  -9   5  -4-9.14061 37.4481   1
   9  -5   4 5.76061 10.0685   3
   9   5   4-5.05642 21.4823   3
  10   5   4 1515.79 206.266   3
 -10   5  -4 1521.40 244.750   1
  10  -5   4 1687.94 107.814   3
  11   5   4 893.546 158.707   3
 -11   5  -4 802.695 180.331   1
  12   5   4 138.333 62.6678   3
 -12   5  -4 15.0554 29.8307   1
  13   5   4 24.3054 21.3611   3
 -13   5  -4-30.0723 37.2549   1
 -14   5  -4 124.273 71.4685   1
  14   5   4 170.852 68.8530   3
  15   5   4 5.89716 39.3932   3
 -15   5  -4 57.2885 53.4783   1
  16   5   4 23.8792 33.2014   3
 -16   5  -4 48.9776 49.9324   1
 -17   5  -4 58.6997 67.7138   1
  17   5   4 13.2000 58.3940   3
 -18   5  -4 252.404 110.877   1
  18   5   4 166.784 74.4260   3
 -19   5  -4 0.66561 48.4582   1
  19   5   4 55.0640 46.1014   3
  20   5   4 12.7921 23.1545   3
 -20   5  -4 29.9122 42.9973   1
  21   5   4 391.026 127.294   3
 -21   5  -4 396.412 156.378   1
  22   5   4 246.265 104.187   3
 -22   5  -4 55.3154 81.8668   1
  23   5   4 261.519 118.062   3
  24   5   4-43.5910 47.2566   3
  21   6  -4 10.1951 48.6103   3
 -20   6   4 105.023 87.3233   1
  20   6  -4 4.00663 19.2518   3
 -19   6   4-28.4348 51.7377   1
  19   6  -4 241.310 112.988   3
 -18   6   4-99.3109 76.5585   1
  18   6  -4 109.948 67.7978   3
 -17   6   4 53.6495 54.9955   1
  17   6  -4 106.903 70.6782   3
  16   6  -4 371.272 126.745   3
 -16   6   4 274.211 120.750   1
 -15   6   4-31.9630 41.5976   1
  15   6  -4 163.631 87.5257   3
  14   6  -4 406.141 125.721   3
 -14   6   4 363.765 132.024   1
 -13  -6   4 341.329 126.812   2
  13   6  -4 271.370 100.735   3
 -13   6   4 295.505 122.729   1
 -12   6   4 32.1870 47.9005   1
 -12  -6   4 8.70813 36.7713   2
 -12   6   4-5.46701 60.9096   3
  12   6  -4 30.5831 47.3934   3
 -11   6   4-71.1951 28.0536   3
 -11  -6   4 73.0275 63.6539   2
 -11   6   4 29.2985 39.1299   1
  11   6  -4 7.33201 31.0723   3
 -10  -6   4 410.187 118.951   2
  10   6  -4 326.532 110.092   3
 -10   6   4 345.911 118.695   1
 -10  -6   4 335.972 78.1964   1
 -10   6   4 312.284 61.8005   3
  -9  -6   4 634.422 137.957   2
  -9  -6   4 746.710 119.790   1
  -9   6   4 617.137 92.8572   3
  -9   6   4 632.000 156.473   1
   9   6  -4 663.208 147.729   3
  -8  -6   4 44.6276 24.8137   2
  -8  -6   4 42.6847 30.2051   1
   8   6  -4 60.0952 41.6577   3
  -8   6   4 35.5609 25.3110   3
  -8   6   4 22.5394 16.0865   1
  -7   6   4 97.9504 57.8934   1
   7   6  -4 114.657 66.3738   3
  -7  -6   4 84.2181 34.1496   1
  -7  -6   4 141.583 64.9037   2
  -7   6   4 169.695 52.4128   3
   6   6  -4 266.006 90.2181   3
  -6  -6   4 252.299 78.1654   2
  -6  -6   4 180.497 63.1846   1
  -6   6   4 138.737 66.1177   1
  -6   6   4 127.741 45.3883   3
  -5  -6   4 48.9417 36.7663   2
  -5  -6   4 96.2084 45.1820   1
   5  -6  -4 204.271 122.244   2
  -5   6   4 103.489 57.6084   1
   5   6  -4 135.480 64.8045   3
  -5   6   4 77.7504 39.8141   3
  -4  -6   4 12.3229 24.7377   2
  -4   6   4-17.7120 32.0083   1
   4  -6  -4-71.3192 70.4881   2
  -4  -6   4 18.6795 26.2932   1
  -4   6   4 36.3168 34.7612   3
   4   6  -4 32.3346 27.5513   3
  -3   6   4 31.1993 31.4522   3
   3   6  -4 72.1355 46.4038   1
  -3   6   4 55.3360 38.8571   1
  -3  -6   4-21.7394 24.4460   1
   3  -6  -4 37.2479 49.8396   2
   3   6  -4 49.1509 52.1049   3
  -3  -6   4 20.7033 21.3767   2
   2   6  -4 442.149 114.843   1
   2   6  -4 414.141 100.624   3
  -2   6   4 366.695 87.0037   3
  -2  -6   4 404.257 107.665   1
   2  -6  -4 478.869 180.806   2
  -2   6   4 314.444 84.8755   1
   1   6  -4 126.854 59.8694   3
  -1   6   4 21.6708 26.8291   3
  -1  -6   4 119.491 68.0617   1
   1   6  -4 129.231 54.1393   1
   1  -6  -4-20.1410 34.4834   2
   0   6   4 969.847 145.220   3
   0   6  -4 892.891 139.391   3
   0  -6  -4 1173.54 222.780   2
   0   6  -4 974.461 177.428   1
   0  -6   4 998.364 178.364   1
   1   6   4 2.47920 11.6985   1
  -1  -6  -4 63.1611 48.6833   2
  -1   6  -4 18.8796 38.4016   3
   1   6   4 23.7775 24.3197   3
  -1   6  -4-22.3156 27.8479   1
   2   6   4 712.460 110.240   1
  -2   6  -4 703.997 152.157   1
  -2  -6  -4 741.006 139.387   2
   2  -6   4 619.831 113.335   3
   2   6   4 625.966 124.884   3
  -3  -6  -4 736.210 112.340   2
   3   6   4 718.216 132.403   3
   3   6   4 745.837 105.113   1
   3  -6   4 682.685 112.421   3
  -3   6  -4 719.103 159.333   1
   4  -6   4 324.573 73.4246   3
   4   6   4 363.070 65.8856   1
  -4   6  -4 411.109 123.424   1
   4   6   4 465.306 107.015   3
  -5   6  -4 914.216 186.085   1
   5  -6   4 928.971 121.827   3
   5   6   4 802.860 144.610   3
   5   6   4 887.247 87.1541   1
   6   6   4 59.3221 50.3589   3
   6  -6   4 110.161 40.2116   3
  -6   6  -4 48.2053 27.7413   1
  -7   6  -4 92.5366 63.6256   1
   7   6   4-13.9012 16.6067   3
   7  -6   4 13.9460 20.0380   3
   8   6   4 16.5827 40.8030   3
   8  -6   4 6.53985 7.38876   3
  -8   6  -4-3.05043 14.0148   1
  -9   6  -4 3.67169 15.1432   1
   9   6   4 13.8453 21.5749   3
 -10   6  -4-19.7751 30.7383   1
  10   6   4 14.1393 37.7756   3
 -11   6  -4 1.80426 35.6547   1
  11   6   4 76.9181 70.5028   3
 -12   6  -4 21.0224 32.9972   1
  12   6   4 45.7929 47.4981   3
 -13   6  -4 136.924 82.7765   1
  13   6   4 106.768 74.5395   3
 -14   6  -4 17.4502 32.0128   1
  14   6   4 64.6805 49.9833   3
 -15   6  -4 133.118 71.2509   1
  15   6   4 185.077 90.5375   3
  16   6   4-7.03887 30.2246   3
 -16   6  -4-33.0135 43.9671   1
 -17   6  -4-22.9294 38.4573   1
  17   6   4-17.3341 26.0392   3
 -18   6  -4 470.185 172.148   1
  18   6   4 375.518 122.794   3
 -19   6  -4 174.766 84.4177   1
  19   6   4 52.9949 40.1359   3
 -20   6  -4-46.4348 56.4467   1
  20   6   4-16.5916 48.2716   3
 -18   7   4-50.5734 57.2200   1
 -17   7   4 62.5399 58.4494   1
  17   7  -4 60.9579 53.2011   3
  16   7  -4 280.372 123.241   3
 -16   7   4 130.341 117.103   1
  15   7  -4-89.3308 49.8838   3
 -15   7   4-24.4866 38.9707   1
  14   7  -4 18.1722 37.2730   3
 -14   7   4 64.6079 59.2667   1
  13   7  -4 153.759 86.3638   3
 -13   7   4 236.382 112.423   1
 -12   7   4 236.472 107.456   1
  12   7  -4 268.743 104.559   3
  11   7  -4 32.0337 43.2412   3
 -11   7   4 5.92237 45.1574   1
 -10   7   4 218.571 55.2572   3
  10   7  -4 121.744 75.7738   3
 -10   7   4 258.309 108.682   1
  -9   7   4 261.979 65.3078   3
   9   7  -4 152.984 78.2115   3
  -9   7   4 220.946 95.5352   1
  -8  -7   4 60.8030 49.9686   2
   8   7  -4 93.7020 72.2238   3
  -8   7   4 2.92510 16.9899   3
  -8   7   4-36.9512 38.9378   1
  -7   7   4 325.469 79.4663   3
  -7  -7   4 355.285 102.258   2
   7   7  -4 298.337 103.927   3
  -7   7   4 351.358 117.767   1
  -6   7   4 224.123 94.8211   1
   6   7  -4 204.828 77.6681   3
  -6  -7   4 445.949 111.524   2
  -6   7   4 219.040 68.6514   3
  -5  -7   4 188.035 67.8074   2
   5   7  -4 52.8370 44.8893   3
  -5   7   4 105.512 49.6615   3
  -5   7   4 119.689 63.4948   1
   5   7  -4 136.243 67.6618   1
  -4   7   4 16.9174 13.6101   3
   4   7  -4 10.6034 15.0646   1
  -4  -7   4 72.3983 41.0489   2
   4   7  -4 5.54566 22.6390   3
  -4   7   4 9.90948 26.1254   1
   3   7  -4 168.457 73.7663   3
  -3  -7   4 210.968 65.2861   2
  -3   7   4 175.570 66.5964   3
  -3   7   4 175.119 71.5932   1
   3   7  -4 256.538 86.8454   1
  -2   7   4 94.6444 47.9698   1
   2  -7  -4 69.8348 68.6283   2
  -2   7   4 148.171 60.8800   3
   2   7  -4 98.7721 53.2114   3
   2   7  -4 87.6089 51.1629   1
  -2  -7   4 144.387 54.9362   2
  -1   7   4 446.319 110.306   1
   1   7  -4 501.477 135.769   1
   1   7  -4 355.192 101.672   3
  -1   7   4 420.878 103.138   3
   0   7   4 474.052 111.779   1
   0   7   4 624.024 126.963   3
   0   7  -4 438.543 124.660   1
   0   7  -4 541.389 120.932   3
  -1   7  -4 98.1268 53.0330   3
  -1   7  -4-6.35245 35.3217   1
   1   7   4 43.0943 39.2621   3
   2   7   4 29.0143 24.2447   3
  -2   7  -4-13.5357 45.4673   1
   3   7   4 11.9046 7.11328   1
   3   7   4 3.10462 12.9938   3
  -3   7  -4 44.7022 48.2115   1
   4   7   4 29.7076 21.3509   1
  -4   7  -4 51.9438 41.3084   1
   4   7   4 128.663 65.7156   3
  -5   7  -4 197.058 107.047   1
   5   7   4 76.7308 75.3030   3
  -6   7  -4 621.212 168.473   1
   6   7   4 555.806 135.939   3
   7   7   4-12.4889 36.2158   3
  -7   7  -4-20.7185 32.1177   1
   8   7   4 90.6479 65.4893   3
  -8   7  -4 30.2651 17.3521   1
  -9   7  -4-3.43364 15.4765   1
   9   7   4-5.18512 26.0736   3
 -10   7  -4 45.2789 48.6506   1
  10   7   4 97.9203 78.5720   3
  11   7   4 287.976 109.653   3
 -11   7  -4 438.960 151.122   1
 -12   7  -4-1.91308 18.0417   1
  12   7   4 88.2232 61.7429   3
  13   7   4 15.3828 12.7369   3
 -13   7  -4-40.6208 49.2436   1
  14   7   4-35.1445 74.8920   3
 -14   7  -4-68.2932 63.9831   1
  15   7   4-6.60186 20.4599   3
 -15   7  -4-137.090 91.7194   1
 -16   7  -4-28.1805 42.9597   1
  16   7   4 15.8337 26.1105   3
 -17   7  -4-50.5883 58.7184   1
  17   7   4 42.3883 60.4564   3
 -15   8   4 92.5275 75.6552   1
 -14   8   4 196.542 111.742   1
  13   8  -4 37.3463 74.7469   3
 -13   8   4-84.5519 69.2807   1
  12   8  -4 55.4791 42.6856   3
 -12   8   4 112.584 77.9417   1
  11   8  -4 40.1607 43.0670   3
 -11   8   4-2.00101 14.4905   1
  10   8  -4 84.7606 60.8887   3
 -10   8   4 99.3677 70.0682   1
   9   8  -4 85.9490 76.1432   3
  -9   8   4 183.553 93.0806   1
  -8   8   4 73.8729 64.0458   1
   8   8  -4 131.411 78.1696   3
  -7   8   4-16.8636 28.3794   1
  -7   8   4-2.87994 22.8851   3
   7   8  -4 10.4178 44.1298   3
  -6   8   4 75.2438 55.0986   1
  -6   8   4-14.3945 30.8120   3
   6   8  -4 62.2952 57.5939   3
  -5   8   4-46.8940 43.3308   1
  -5   8   4-27.1174 25.3952   3
   5   8  -4 44.5633 53.4751   3
  -4   8   4-34.7371 36.6938   1
   4   8  -4 33.5610 48.9072   3
  -4   8   4 45.6518 26.3683   3
   4   8  -4 5.59785 16.8813   1
  -3  -8   4 62.0827 49.0380   2
   3   8  -4 56.2816 41.7895   1
  -3   8   4-63.9711 42.2699   3
  -3   8   4 0.82526 8.52979   1
  -2  -8   4 24.3892 25.7718   2
  -2   8   4-15.6567 22.9752   1
   2   8  -4-69.4999 48.7418   3
  -2   8   4 15.3590 21.5476   3
   2   8  -4 22.4291 31.5967   1
   1   8  -4-2.10678 27.4128   3
  -1  -8   4 59.7689 37.5576   2
  -1   8   4 109.599 58.2302   1
  -1   8   4 129.716 54.7475   3
   1   8  -4 46.7236 44.4415   1
   0   8   4 12.8308 19.9440   1
   0   8  -4-50.6014 46.8693   1
   0   8   4-33.2662 17.8363   3
  -1   8  -4 9.54778 34.8115   1
   1   8   4 84.5211 49.6082   3
   2   8   4-4.52463 12.3857   3
  -2   8  -4 6.48475 24.0523   1
  -3   8  -4 7.20222 17.7030   1
   3   8   4 7.92039 18.8540   3
   4   8   4 11.9356 22.4983   3
  -4   8  -4-18.4020 30.5404   1
   5   8   4 60.4917 51.8356   3
  -5   8  -4-58.0770 54.0748   1
  -6   8  -4 155.285 107.973   1
   6   8   4 34.8796 19.7784   3
   7   8   4 150.874 75.7311   3
  -7   8  -4 69.9817 47.3331   1
   8   8   4 88.3156 56.7011   3
  -8   8  -4 36.7144 42.7320   1
  -9   8  -4 14.8010 31.7999   1
   9   8   4-115.806 69.0182   3
 -10   8  -4 86.1451 61.6668   1
  10   8   4 5.39306 18.1808   3
 -11   8  -4 143.263 92.5701   1
  11   8   4 55.7151 39.2085   3
 -12   8  -4 82.6700 71.9518   1
  12   8   4 3.32455 52.2016   3
 -13   8  -4-97.1178 78.2586   1
 -14   8  -4-88.4211 77.2946   1
 -12   9   4 137.716 104.741   1
 -11   9   4-64.9894 61.8573   1
 -10   9   4-14.1147 30.9204   1
  -9   9   4-72.1209 62.3661   1
  -8   9   4 203.431 101.681   1
   8   9  -4 231.231 108.549   3
   7   9  -4-9.31789 53.1214   3
  -7   9   4-49.4236 49.9603   1
  -6   9   4 92.6007 66.0598   1
   6   9  -4 228.564 91.2515   3
   5   9  -4 38.3410 31.2125   3
  -4   9   4 112.180 59.5859   3
  -3   9   4 15.3807 24.4244   3
  -2   9   4 90.8808 60.1515   3
  -1   9   4 50.0824 40.2756   3
   0   9   4 27.3401 17.5608   3
   1   9   4-60.1815 48.1247   3
  -1   9  -4 70.7094 59.5608   1
  -2   9  -4 12.1862 25.8779   1
   2   9   4-54.2399 46.3255   3
   3   9   4-1.97599 14.3070   3
  -3   9  -4 50.5748 51.8592   1
  -4   9  -4-120.883 80.7032   1
   4   9   4-53.4347 66.5941   3
   5   9   4-44.2543 59.6634   3
  -5   9  -4 63.5634 60.2567   1
   6   9   4 7.32393 18.7718   3
  -6   9  -4-28.8923 42.1334   1
   7   9   4-104.613 68.7933   3
  -7   9  -4 41.3356 54.5649   1
  -8   9  -4-14.2964 31.4591   1
  -9   9  -4 90.7247 76.4810   1
 -10   9  -4 148.342 98.2841   1
 -29   0   5 0.24778 14.8868   1
 -28   0   5-134.492 91.1355   1
 -27   0   5-24.8343 40.8611   1
 -26   0   5-101.816 76.3420   1
 -25   0   5-16.6703 21.4983   1
 -24   0   5 62.0149 57.9265   1
 -23   0   5 26.9605 59.1507   1
 -22   0   5 18.5660 32.0742   1
 -21   0   5 42.1117 26.4483   3
 -21   0   5 36.9483 43.9719   1
 -20   0   5 25.0734 44.0468   1
 -20   0   5-20.2606 20.8668   3
 -19   0   5-34.7041 39.9064   1
 -19   0   5-12.6647 122.587   2
 -19   0   5-6.77222 10.5803   3
 -18   0   5 37.5731 53.2803   1
 -18   0   5-9.19600 21.7467   3
 -18   0   5-62.7889 74.5305   2
 -17   0   5-2.91955 31.6633   1
 -17   0   5 30.0838 51.3795   2
 -16   0   5 4.55542 21.3213   1
 -16   0   5 2.56630 82.6798   2
 -15   0   5-15.4661 27.8987   2
 -15   0   5 28.9073 32.5418   1
 -14   0   5-17.8544 25.5742   3
 -14   0   5 27.9262 72.1134   2
  14   0  -5-57.7808 77.7284   2
 -13   0   5 32.5932 49.4522   2
  13   0  -5 4.27916 61.1507   2
 -13   0   5-33.4354 27.8189   3
  12   0  -5-3.44006 32.0850   2
 -12   0   5-0.09983 11.8550   3
 -12   0   5 46.3902 82.3256   2
 -11   0   5 10.6394 10.2796   3
  11   0  -5-6.23441 36.7052   2
 -11   0   5 47.2240 61.1352   2
  10   0  -5 38.8601 47.1701   2
 -10   0   5 45.0605 27.4430   3
   9   0  -5-16.2996 30.8662   2
  -9   0   5 23.9551 21.5073   3
   8   0  -5 15.2804 23.9776   2
   7   0  -5-8.29836 15.1361   2
   6   0  -5-30.0333 43.4568   2
   5   0  -5-2.95313 24.7126   2
   4   0  -5 23.2445 16.9785   2
   3   0  -5 29.1574 33.6318   2
   2   0  -5-13.0381 21.0146   2
   1   0  -5-5.24351 11.0611   2
   0   0  -5 11.1315 11.8107   2
   0   0   5 6.38896 16.6686   1
   1   0   5 2.52757 21.5288   1
   2   0   5 5.92175 9.64302   1
   3   0   5 3.39745 11.7823   1
  -4   0  -5-4.46236 10.9092   1
   4   0   5 6.17072 10.1413   1
   5   0   5-7.14001 11.4063   1
  -5   0  -5 8.11430 13.4349   1
  -6   0  -5 3.85218 13.0060   1
   6   0   5-5.68601 7.70976   1
   7   0   5-0.88555 12.1608   1
  -7   0  -5 1.76620 13.7552   1
  -8   0  -5-7.94710 14.8080   1
   8   0   5 9.76483 16.5629   1
   8   0   5 30.4726 23.3246   3
  -9   0  -5-2.83037 16.0137   1
   9   0   5-3.91058 8.34469   1
   9   0   5 10.3975 18.3950   3
 -10   0  -5 30.7994 29.0985   1
  10   0   5 90.2362 36.2548   3
  10   0   5 41.9196 34.7742   1
 -11   0  -5-5.45123 8.78219   1
  11   0   5-1.71007 23.6389   1
  11   0   5-8.01254 15.6885   3
  12   0   5 13.9573 14.6268   1
  12   0   5 9.45870 13.9807   3
 -12   0  -5 6.16605 28.5939   1
  13   0   5 19.1931 36.9762   1
 -13   0  -5 5.90173 16.6859   1
  13   0   5-8.92497 7.75438   3
 -14   0  -5-13.4511 31.8355   1
  14   0   5 0.72813 7.29007   1
  14   0   5 1.22031 13.9356   3
  14   0   5 8.29346 26.8963   2
  15   0   5-8.46882 8.89322   3
  15   0   5 22.7946 28.7653   1
 -15   0  -5-3.37212 15.0378   1
 -16   0  -5-4.44691 17.5810   1
  16   0   5-75.2790 72.6692   2
  16   0   5 15.8303 26.5944   1
  16   0   5-8.63344 6.17353   3
  17   0   5-33.5195 33.5401   1
  17   0   5 5.24337 10.3727   3
 -17   0  -5 30.0764 36.6833   1
 -18   0  -5-12.8541 28.7855   1
  18   0   5-1.18498 17.4109   3
 -19   0  -5 39.7106 35.4297   1
  19   0   5 10.3170 17.1892   3
 -20   0  -5-0.40658 10.3915   1
  20   0   5-18.9247 14.8594   3
 -21   0  -5 74.8259 60.1174   1
  21   0   5-9.14496 23.7007   3
 -22   0  -5 7.15826 16.6217   1
  22   0   5-15.1507 27.2019   3
  23   0   5-24.6622 36.1375   3
 -23   0  -5 37.1104 40.1618   1
 -24   0  -5 35.6563 48.0617   1
 -25   0  -5 19.4156 28.5358   1
 -26   0  -5 37.7393 44.0088   1
 -27   0  -5 113.562 76.5206   1
 -29   1   5 653.031 209.751   1
 -28  -1   5 266.973 123.433   1
 -28   1   5 87.5888 61.4049   1
 -27  -1   5 200.675 112.000   1
 -27   1   5 167.999 98.6184   1
 -26   1   5 520.607 176.699   1
 -26  -1   5 432.848 156.373   1
 -25  -1   5 162.769 92.4547   1
 -25   1   5 150.873 93.4767   1
 -24  -1   5 381.326 135.031   1
 -24   1   5 275.563 126.588   1
 -23  -1   5 46.0043 42.8237   1
 -23   1   5 117.277 91.1698   1
 -22  -1   5-8.22443 29.9993   1
 -22   1   5-8.43493 20.9156   1
 -21  -1   5 162.612 76.6102   1
 -21   1   5 96.7734 70.1903   1
 -21  -1   5 346.399 187.473   2
 -20  -1   5 13.5442 21.4616   1
 -20   1   5 99.9291 82.4391   1
 -20  -1   5 5.27430 33.6828   2
 -19   1   5 753.393 99.3334   3
 -19  -1   5 895.167 185.985   1
 -19   1   5 819.430 187.835   1
 -19  -1   5 914.346 271.511   2
 -18  -1   5 138.061 75.4306   1
 -18  -1   5 113.940 50.9735   3
 -18  -1   5 335.036 171.188   2
 -18   1   5 210.432 100.829   1
 -18   1   5 95.2065 35.0101   3
 -17   1   5 525.807 146.027   1
 -17  -1   5 436.657 163.164   2
 -17  -1   5 442.272 92.8501   3
 -17   1   5 456.282 75.5510   3
 -17  -1   5 446.635 123.182   1
 -17   1   5 438.210 194.133   2
 -16  -1   5 1108.35 281.139   2
 -16  -1   5 1009.73 139.482   3
 -16   1   5 964.004 108.233   3
 -16   1   5 990.626 281.531   2
 -16   1   5 1041.64 195.401   1
 -15   1   5 449.953 126.902   1
  15   1  -5 488.980 166.115   2
 -15   1   5 521.154 190.953   2
 -15  -1   5 545.834 99.8077   3
 -15   1   5 421.003 70.0415   3
 -15  -1   5 567.988 212.074   2
 -14   1   5-13.7453 38.8410   1
 -14   1   5 2.40291 11.7865   3
 -14   1   5-47.5769 60.3833   2
  14   1  -5-9.23893 21.8650   2
 -14  -1   5 103.700 90.1284   2
 -14  -1   5 40.0275 41.0546   3
 -13  -1   5 330.625 146.502   2
  13   1  -5 285.909 96.8050   2
 -13   1   5 413.314 66.2736   3
 -13   1   5 369.599 106.828   1
 -13   1   5 483.040 177.203   2
  13  -1  -5 572.895 193.786   2
  12   1  -5 12.6974 58.8786   2
  12  -1  -5 114.150 114.371   2
 -12   1   5 2.59030 12.2749   3
 -12  -1   5 33.0555 69.0675   2
 -12   1   5 19.7137 8.42105   1
 -11   1   5 231.325 47.0869   3
  11   1  -5 289.609 110.067   2
  11  -1  -5 340.987 148.480   2
 -11  -1   5 403.897 148.146   2
 -10  -1   5 99.6317 32.5196   3
  10  -1  -5 149.170 95.0373   2
 -10  -1   5 92.1425 73.6134   2
  10   1  -5 143.720 60.3959   2
   9   1  -5 975.536 160.312   2
   9  -1  -5 1284.18 247.034   2
  -9  -1   5 1256.64 232.123   2
  -9  -1   5 1229.39 130.830   3
   8   1  -5 336.468 87.8183   2
  -8  -1   5 538.815 144.131   2
   8  -1  -5 446.011 139.727   2
   7   1  -5 390.533 92.1208   2
  -7  -1   5 552.905 141.760   2
   7  -1  -5 510.704 135.948   2
  -6  -1   5 2867.17 270.909   2
   6  -1  -5 3217.51 322.344   2
   6   1  -5 2712.77 214.333   2
   5  -1  -5 1162.80 177.717   2
   5   1  -5 1113.06 126.997   2
   4  -1  -5 2365.99 235.971   2
   4   1  -5 2204.50 165.022   2
   3  -1  -5 12273.0 481.186   2
   3   1  -5 11846.1 352.907   2
  -2  -1   5 513.279 89.2606   1
   2  -1  -5 507.357 88.7298   2
   2   1  -5 508.757 70.7589   2
   1  -1  -5 25423.4 546.325   2
  -1  -1   5 26271.4 612.384   1
   0  -1  -5 404.463 58.9165   2
   0  -1   5 379.376 73.5350   1
   1  -1   5 9698.05 371.751   1
  -1  -1  -5 9211.18 247.687   2
   2   1   5 1229.43 111.980   1
   2  -1   5 1281.46 136.992   1
   2   1   5 1303.64 96.5101   2
   3   1   5 44.3648 19.4527   2
   3   1   5 19.5773 17.6152   1
   3  -1   5 21.1848 17.6782   1
   4   1   5 1900.55 132.460   1
  -4  -1  -5 1968.87 140.380   1
   4  -1   5 1829.68 170.243   1
   5  -1   5 34.0910 30.1978   1
   5   1   5 47.2536 22.6697   1
  -5  -1  -5 45.9956 19.4116   1
   6   1   5 2001.76 146.069   3
   6   1   5 1966.53 138.047   1
  -6  -1  -5 1873.56 140.869   1
   6  -1   5 2089.90 192.494   1
   7   1   5 6577.66 262.527   1
  -7   1  -5 6141.76 341.402   1
   7  -1   5 6607.00 354.708   1
  -7  -1  -5 6245.84 267.716   1
   7   1   5 6317.50 266.726   3
   8  -1   5-9.64426 16.5938   1
   8   1   5-21.0872 23.7332   3
   8   1   5 7.55873 19.8819   1
  -8  -1  -5-3.88117 15.8018   1
  -8   1  -5 47.0273 40.4424   1
  -9  -1  -5 3249.04 208.634   1
   9   1   5 3453.01 205.925   3
  -9   1  -5 3104.74 256.572   1
   9   1   5 3280.12 210.229   1
   9  -1   5 3260.26 271.251   1
  10   1   5 254.333 61.8514   1
 -10  -1  -5 189.402 52.1069   1
  10  -1   5 241.126 79.0310   1
  10   1   5 188.316 46.1337   3
  10  -1   5 211.207 40.0501   3
 -10   1  -5 203.757 70.1111   1
 -11   1  -5 101.995 44.8332   1
  11  -1   5 134.008 33.3478   3
  11   1   5 130.044 46.5814   1
 -11  -1  -5 68.9743 31.2554   1
  11   1   5 124.695 38.9459   3
  11  -1   5 132.515 61.8865   1
 -12   1  -5 77.8873 42.4787   1
  12   1   5 70.9072 36.5898   1
 -12  -1  -5 79.3200 33.1749   1
  12   1   5 98.6408 41.0817   3
  12  -1   5 151.494 64.1078   1
  12  -1   5 90.3059 22.9865   3
  12   1   5 83.0507 63.2350   2
 -13   1  -5 21.5761 30.6965   1
 -13  -1  -5 9.98655 19.2437   1
  13   1   5-5.34363 29.3703   1
  13   1   5 40.8161 20.8184   3
  13  -1   5 30.5928 14.7991   3
  13  -1   5 71.1745 46.0215   1
  13   1   5 7.27805 21.7642   2
 -14   1  -5 46.7094 38.4169   1
  14   1   5 85.3965 40.3367   1
 -14  -1  -5 83.8377 40.1463   1
  14  -1   5 29.7794 19.1024   1
  14   1   5 34.8153 24.5892   3
  14  -1   5 41.6567 19.4351   3
  14   1   5 89.5360 50.2107   2
 -15   1  -5 234.737 89.9767   1
  15   1   5 193.170 65.4443   1
 -15  -1  -5 167.169 60.8672   1
  15  -1   5 214.479 47.0122   3
  15   1   5 290.107 69.8659   3
  15  -1   5 179.474 68.8755   1
  15   1   5 213.006 110.950   2
 -16   1  -5 170.033 74.2810   1
 -16  -1  -5 87.0283 47.8565   1
  16   1   5 92.9400 45.8665   1
  16   1   5 117.872 45.9253   3
  16   1   5 140.307 92.3668   2
  16  -1   5 153.747 41.4945   3
 -17  -1  -5 124.778 59.7423   1
  17   1   5 102.104 83.4632   2
  17  -1   5 152.818 45.9646   3
  17   1   5 119.792 51.9565   3
 -17   1  -5 88.1147 51.1157   1
 -18   1  -5 331.863 108.229   1
 -18  -1  -5 496.173 115.924   1
  18   1   5 411.982 94.3206   3
  18  -1   5 434.950 68.2612   3
  18   1   5 466.670 174.268   2
  19   1   5 21.7945 32.4932   3
 -19  -1  -5 3.43053 9.10016   1
 -19   1  -5 6.79758 13.9650   1
  19  -1   5-5.38239 14.8692   3
 -20   1  -5 214.833 97.2562   1
  20  -1   5 222.983 51.6646   3
 -20  -1  -5 242.266 90.0601   1
  20   1   5 299.400 81.5054   3
 -21  -1  -5 26.6193 34.5909   1
  21  -1   5 11.4732 14.5798   3
  21   1   5-19.7295 38.2840   3
 -21   1  -5-6.31110 19.1466   1
 -22   1  -5 1.19541 13.5530   1
 -22  -1  -5-0.26737 10.2899   1
  22   1   5 26.1044 16.3478   3
 -23  -1  -5-33.0025 35.3464   1
  23   1   5-0.79608 14.6243   3
 -24   1  -5 29.6320 18.2906   1
 -24  -1  -5-63.3290 49.9643   1
  24   1   5 0.93621 16.1869   3
 -25   1  -5 193.285 105.846   1
 -25  -1  -5 1.74127 13.8183   1
 -26   1  -5 126.932 82.8953   1
 -27   1  -5-49.9164 54.3779   1
 -28   1  -5 49.1478 55.8023   1
 -27   2   5 632.997 204.452   1
 -26  -2   5 105.899 78.0806   1
 -26   2   5 99.8105 88.9442   1
 -25  -2   5-3.43094 48.9701   1
 -25   2   5 73.9970 38.7324   1
 -24  -2   5 27.0924 36.0273   1
 -24   2   5 22.0303 55.9617   1
 -23  -2   5 45.8344 50.6537   1
 -23   2   5 65.6156 62.0836   1
 -22  -2   5-2.21383 26.1446   1
 -22   2   5 19.5403 28.6049   1
 -21  -2   5 147.743 75.1876   1
 -21   2   5 110.763 89.8098   1
 -21  -2   5 152.775 113.024   2
 -20  -2   5-11.0895 29.5436   1
 -20   2   5 68.0457 55.8610   1
 -20  -2   5 14.8091 43.3269   2
 -19  -2   5 269.844 157.859   2
 -19  -2   5 294.241 104.497   1
 -19   2   5 291.157 115.799   1
 -19   2   5 244.331 45.6745   3
 -18  -2   5 372.721 108.978   1
 -18   2   5 271.587 108.641   1
 -18  -2   5 337.822 169.677   2
 -18   2   5 315.204 51.4345   3
 -17   2   5 304.609 122.379   1
 -17   2   5 413.885 60.2595   3
 -17  -2   5 454.577 192.178   2
 -16   2   5 84.9235 54.8371   1
  16   2  -5 59.0380 64.8701   2
 -16   2   5 50.6586 23.9518   3
 -16  -2   5 103.744 83.3526   2
 -15   2   5 201.707 88.6724   1
 -15  -2   5 466.926 194.628   2
  15   2  -5 216.032 96.5950   2
 -15   2   5 342.899 56.0020   3
 -14   2   5 565.098 144.158   1
  14   2  -5 319.406 100.151   2
 -14  -2   5 421.066 90.5441   3
 -14   2   5 357.142 56.1402   3
 -14  -2   5 420.862 163.125   2
 -14   2   5 419.835 171.952   2
 -13   2   5 701.348 153.246   1
 -13  -2   5 723.459 119.408   3
  13   2  -5 586.847 135.135   2
 -13   2   5 780.631 83.2646   3
 -13  -2   5 741.286 217.842   2
  12   2  -5 124.948 65.1117   2
 -12  -2   5 207.629 110.429   2
  12  -2  -5 45.6642 117.719   2
 -12  -2   5 88.7510 42.0512   3
 -11  -2   5 1135.16 244.113   2
  11   2  -5 719.692 131.562   2
  11  -2  -5 1124.57 265.208   2
 -11  -2   5 822.539 121.356   3
  10   2  -5 78.6825 49.7333   2
  10  -2  -5 13.6076 73.1645   2
   9   2  -5 369.793 87.2314   2
  -9  -2   5 580.064 152.887   2
   9  -2  -5 368.937 132.536   2
   8   2  -5 18.5634 10.9643   2
  -8  -2   5 36.1249 36.0353   2
   8  -2  -5 18.5666 53.1662   2
   7  -2  -5 872.347 200.827   2
  -7  -2   5 534.332 116.346   2
   7   2  -5 551.564 90.2959   2
   6   2  -5 220.545 53.3789   2
  -6  -2   5 240.758 72.9015   2
   6  -2  -5 350.339 124.163   2
  -6  -2   5 224.299 62.4220   1
   5   2  -5 11.5578 13.3439   2
   5  -2  -5 31.0664 48.4089   2
  -5  -2   5 37.3365 33.7306   1
  -5  -2   5-14.6744 16.3510   2
   4  -2  -5 1029.83 182.854   2
  -4  -2   5 832.572 111.951   2
  -4  -2   5 950.707 126.928   1
   4   2  -5 816.541 94.2083   2
   3  -2  -5 669.483 133.265   2
  -3  -2   5 602.560 99.7974   1
  -3  -2   5 603.113 89.4521   2
  -3   2   5 723.496 151.717   2
   2  -2  -5 1056.56 151.783   2
  -2  -2   5 1113.55 135.856   1
  -2   2   5 1064.54 175.507   2
  -2  -2   5 1119.55 114.666   2
  -1   2   5 108.697 44.2390   2
   1  -2  -5 101.957 35.8294   2
  -1  -2   5 145.731 49.8561   1
   0   2   5 3869.13 286.539   2
   0  -2   5 3628.78 192.069   3
   0  -2   5 3733.42 251.497   1
   0  -2  -5 3627.65 212.264   2
  -1  -2  -5 366.071 56.5969   2
   1  -2   5 378.178 81.0779   1
   1   2   5 235.134 62.4306   2
   2  -2   5 397.354 84.5352   1
   2   2   5 397.031 66.9520   3
   2   2   5 367.445 67.3038   2
  -2  -2  -5 437.288 49.2177   2
   3  -2   5 184.574 60.4410   1
   3   2   5 94.5591 28.4165   2
   3   2   5 135.987 41.9485   3
   4  -2   5 3303.49 252.710   1
   4   2   5 3105.42 146.674   1
   4   2   5 2986.79 135.045   2
   4   2   5 3090.60 192.915   3
   5   2   5 2864.65 130.700   1
   5  -2   5 3145.52 255.503   1
   5   2   5 2874.03 190.590   3
   5   2   5 2754.70 113.896   2
   6   2   5 56.0464 28.0112   3
   6   2   5 38.1700 13.9248   2
   6  -2   5 36.5013 31.4795   1
   6   2   5 28.7665 13.6020   1
   7  -2   5 1578.65 193.030   1
   7   2   5 1210.28 129.022   3
   7   2   5 1169.49 84.5346   1
   8  -2   5 2209.00 236.336   1
   8   2   5 1872.75 163.218   3
  -8  -2  -5 2000.36 126.230   1
   8   2   5 2022.72 119.275   1
   9  -2   5 2633.53 267.321   1
  -9  -2  -5 2334.72 144.822   1
   9   2   5 2375.70 183.822   3
   9   2   5 2495.88 230.709   2
   9   2   5 2387.70 139.836   1
  10   2   5 357.219 89.4887   2
 -10   2  -5 449.748 111.734   1
  10   2   5 345.502 58.0384   1
  10  -2   5 420.597 111.675   1
  10   2   5 249.673 57.2389   3
 -10  -2  -5 439.014 66.1022   1
  11   2   5 1369.03 123.693   1
  11   2   5 1429.96 201.699   2
 -11   2  -5 1245.83 186.555   1
  11  -2   5 1366.33 206.512   1
  11  -2   5 1286.22 82.9064   3
 -11  -2  -5 1153.69 114.274   1
  11   2   5 972.950 127.564   3
 -12   2  -5 112.888 57.9757   1
  12  -2   5 87.5856 20.8521   3
  12  -2   5 128.152 68.7664   1
 -12  -2  -5 85.1503 30.9136   1
  12   2   5 144.649 60.3391   2
  12   2   5 91.1016 40.4628   3
  13   2   5 202.221 86.5578   2
  13  -2   5 194.401 30.8967   3
 -13  -2  -5 192.809 52.0547   1
  13   2   5 141.753 51.7127   3
  14   2   5 60.3987 38.5649   3
 -14   2  -5-10.8221 43.5463   1
 -14  -2  -5 41.6049 22.9317   1
  14   2   5 74.1205 57.2795   2
  14  -2   5 49.5066 17.8223   3
 -15   2  -5 572.783 136.232   1
  15   2   5 671.287 118.705   3
 -15  -2  -5 655.128 106.751   1
  15   2   5 683.040 178.306   2
  15  -2   5 637.922 57.5703   3
 -16   2  -5 341.863 108.817   1
 -16  -2  -5 186.928 58.3087   1
  16   2   5 172.267 89.8178   2
  16  -2   5 168.639 28.5618   3
  16   2   5 186.183 66.3344   3
 -17   2  -5 747.155 166.159   1
 -17  -2  -5 776.830 124.305   1
  17  -2   5 683.453 57.6637   3
  17   2   5 890.000 143.200   3
  17   2   5 881.023 228.533   2
 -18   2  -5 38.2296 36.6864   1
 -18  -2  -5 51.1465 30.7992   1
  18  -2   5 84.6540 20.5009   3
  18   2   5-141.873 94.0173   2
  18   2   5 118.759 46.4720   3
 -19   2  -5 282.387 109.597   1
 -19  -2  -5 378.758 95.4951   1
  19   2   5 365.013 164.135   2
  19   2   5 344.781 93.4546   3
 -20   2  -5 86.9541 61.2065   1
 -20  -2  -5 120.268 54.4133   1
  20   2   5 144.976 63.7968   3
 -21   2  -5 98.4133 64.0156   1
  21   2   5 22.9709 36.2167   3
 -21  -2  -5 29.5961 11.9879   1
 -22   2  -5 55.1050 66.9376   1
 -22  -2  -5 38.5249 32.7976   1
  22   2   5 28.0456 32.1587   3
  23   2   5-49.9176 46.4281   3
 -23   2  -5 32.8278 42.6711   1
 -24   2  -5 42.2783 42.3225   1
  24   2   5-7.72664 17.8573   3
  25   2   5-129.014 65.9041   3
 -25   2  -5 51.1339 21.5494   1
 -26   2  -5-50.2472 56.1426   1
 -27   2  -5 424.843 166.217   1
 -28   2  -5-20.9731 39.9214   1
 -26   3   5 140.754 98.5280   1
 -25   3   5-117.909 88.4731   1
 -24   3   5 28.8797 44.9802   1
 -23  -3   5-12.3335 33.4408   1
 -23   3   5-2.35816 42.3333   1
 -22  -3   5 86.9136 66.2168   1
 -22   3   5-35.0304 51.9162   1
 -22  -3   5-73.7275 86.9745   2
 -21  -3   5 108.637 94.4135   2
 -21  -3   5 79.2503 49.7960   1
 -21   3   5 71.9268 64.9850   1
 -20  -3   5-16.3954 36.7652   1
 -20   3   5 26.7378 38.7161   1
 -19   3   5 11.4875 54.7177   1
 -19  -3   5 3.56531 21.6461   1
 -18  -3   5 567.056 226.067   2
 -18   3   5 556.653 166.890   1
 -17  -3   5 2538.08 429.486   2
  17   3  -5 1761.35 241.066   2
 -17   3   5 2113.57 311.028   1
 -16   3   5 197.275 31.2347   3
  16   3  -5 145.111 62.5826   2
 -16   3   5 295.064 119.322   1
 -16  -3   5 434.693 177.730   2
 -15   3   5 661.758 63.2131   3
  15   3  -5 805.193 150.326   3
 -15  -3   5 1276.00 339.961   2
 -15   3   5 751.841 176.790   1
  15   3  -5 805.089 148.867   2
  14   3  -5 1478.90 194.247   3
  14   3  -5 1274.75 175.920   2
 -14   3   5 1245.60 91.8269   3
 -14  -3   5 1569.55 314.293   2
 -14   3   5 1207.16 216.788   1
 -13   3   5 220.938 97.4270   1
 -13  -3   5 318.305 136.151   2
  13   3  -5 433.637 107.376   3
  13   3  -5 274.784 77.7523   2
  12   3  -5 147.006 67.2362   3
 -12  -3   5 260.185 113.846   2
  12   3  -5 200.806 64.6472   2
 -12   3   5 143.010 67.8428   1
  11   3  -5 37.5950 35.2648   2
 -11  -3   5-6.90771 19.3593   3
  11  -3  -5-17.1179 87.6539   2
 -11  -3   5-36.8341 75.1008   2
  11   3  -5 55.8700 42.2409   3
 -10  -3   5 28.2111 22.7278   1
 -10  -3   5 25.0995 56.9337   2
  10   3  -5 15.1662 33.9144   3
  10   3  -5 8.55056 15.2192   2
  10  -3  -5 9.72561 53.5150   2
   9   3  -5 174.319 55.5875   2
   9   3  -5 194.133 68.9685   3
  -9  -3   5 217.483 87.8425   2
   9  -3  -5 157.251 41.4889   2
  -9  -3   5 164.836 57.9996   1
   8   3  -5 421.636 75.9123   2
  -8  -3   5 455.533 111.764   2
   8   3  -5 484.403 97.2617   3
  -8  -3   5 421.154 90.3724   1
   8  -3  -5 741.741 218.940   2
  -7  -3   5 32.6972 45.4848   2
   7   3  -5 30.5333 43.7973   3
  -7  -3   5-2.77310 13.7592   1
   7  -3  -5-0.21375 64.3346   2
   7   3  -5 4.89941 17.2626   2
  -6  -3   5 190.323 66.7207   2
   6   3  -5 111.895 43.6116   3
   6  -3  -5 165.733 95.4458   2
  -6  -3   5 149.391 53.9244   1
  -5  -3   5 778.552 120.858   1
   5   3  -5 742.433 112.274   3
  -5  -3   5 913.017 127.743   2
   5  -3  -5 944.037 205.036   2
  -5   3   5 805.136 186.413   2
   4  -3  -5 2826.90 340.689   2
  -4   3   5 2184.43 290.487   2
  -4  -3   5 2254.80 203.023   1
  -4   3   5 2228.72 150.441   3
  -4   3   5 2163.44 207.718   1
  -4  -3   5 2209.64 186.349   2
   3  -3  -5 4144.11 386.925   2
   3   3  -5 3776.07 280.582   1
  -3   3   5 3323.96 333.257   2
  -3  -3   5 3780.88 265.723   1
  -3   3   5 3347.46 189.645   3
  -3  -3   5 3609.23 224.641   2
  -3   3   5 3318.75 242.271   1
   2  -3  -5 1079.82 180.217   2
  -2   3   5 832.215 159.049   2
  -2  -3   5 921.898 110.298   2
  -2  -3   5 892.555 113.596   3
  -2  -3   5 883.415 130.045   1
  -2   3   5 833.481 97.9513   3
  -2   3   5 724.722 110.237   1
   2   3  -5 920.633 138.507   1
  -1   3   5 160.230 46.3808   1
   1   3  -5 154.895 55.3115   1
  -1  -3   5 212.788 65.7541   1
   1  -3  -5 201.712 69.5275   2
  -1  -3   5 101.444 35.3056   3
  -1   3   5 159.729 61.8043   2
  -1   3   5 174.407 44.5141   3
   0   3   5 119.466 41.8622   1
   0   3   5 19.8250 30.0521   2
   0  -3   5 49.2178 29.9857   1
   0   3  -5 106.041 48.3960   1
   0  -3  -5 100.534 43.3690   2
   0  -3   5 62.8503 28.3305   3
   0   3   5 83.0409 33.2381   3
   1  -3   5 93.5562 42.6399   1
   1   3   5 66.7332 23.6555   1
  -1  -3  -5 65.2926 25.7088   2
   1  -3   5 140.706 37.5977   3
   1   3   5 58.7257 25.7736   2
   1   3   5 67.8237 30.7448   3
   2  -3   5 145.583 54.7598   1
  -2  -3  -5 128.389 34.4974   2
   2  -3   5 93.7838 31.4468   3
   2   3   5 128.787 33.6549   1
   2   3   5 175.842 50.2647   2
   2   3   5 132.214 42.3643   3
   3  -3   5 1049.09 107.136   3
   3  -3   5 1223.38 165.955   1
   3   3   5 1133.27 124.384   3
  -3  -3  -5 1011.06 61.6529   2
   3   3   5 1047.53 87.2618   1
   4   3   5 41.0041 14.7992   1
   4   3   5 40.6707 23.2398   3
   4  -3   5 40.7060 22.9469   3
   4  -3   5 64.7444 43.5258   1
   5   3   5 64.6944 28.3156   3
   5  -3   5 30.5268 22.1823   3
   5  -3   5 28.9564 32.8175   1
   6   3   5 145.656 49.4879   3
   6  -3   5 242.986 46.3675   3
   6  -3   5 249.522 76.6936   1
   7  -3   5 116.720 30.4126   3
   7  -3   5 110.222 60.0228   1
   7   3   5 97.6547 38.5910   3
   8  -3   5 160.346 33.4237   3
   8  -3   5 200.891 83.6869   1
   8   3   5 198.760 61.5660   3
   9  -3   5 563.491 135.941   1
   9  -3   5 525.942 55.8749   3
   9   3   5 478.424 95.4364   3
  10   3   5 492.831 68.6623   2
  10   3   5 472.797 95.8558   3
  10  -3   5 434.246 47.2373   3
 -11   3  -5 396.324 118.948   1
  11   3   5 280.601 65.3132   2
  11  -3   5 367.836 38.0423   3
  11   3   5 431.391 93.7905   3
 -12   3  -5 346.411 110.774   1
  12   3   5 460.244 93.1262   2
  12   3   5 583.967 114.001   3
 -13  -3  -5 220.324 36.1034   1
 -13   3  -5 274.703 97.4949   1
  13   3   5 269.289 79.9381   2
  13   3   5 284.744 79.7585   3
 -14   3  -5-13.6550 16.3667   1
  14   3   5 84.7235 54.2883   2
 -14  -3  -5-3.64775 10.7199   1
  14   3   5 31.0941 20.8599   3
 -15   3  -5 116.271 61.4516   1
  15   3   5 143.035 64.6613   2
 -15  -3  -5 43.4753 18.3491   1
  15   3   5 45.6746 34.0572   3
 -16   3  -5 22.2974 45.8117   1
 -16  -3  -5 20.4679 15.1789   1
  16   3   5 73.3843 62.8017   2
  16   3   5-21.1604 37.8957   3
 -17   3  -5 383.728 127.783   1
  17   3   5 408.650 120.827   2
 -17  -3  -5 329.808 62.7792   1
  17   3   5 304.386 95.9506   3
 -18   3  -5 126.859 77.9787   1
  18   3   5 37.8783 28.1936   3
 -19   3  -5 205.323 97.7626   1
 -19  -3  -5 130.340 44.8149   1
  19   3   5 166.277 68.7435   3
 -20   3  -5 195.341 104.771   1
  20   3   5 168.350 68.1096   3
 -21   3  -5-26.6858 38.8367   1
  21   3   5 19.0020 27.0771   3
 -22   3  -5 147.851 80.2578   1
  22   3   5 42.7110 46.3590   3
 -23   3  -5-32.0774 31.6322   1
  23   3   5-19.1954 20.8418   3
 -24   3  -5 113.204 90.6559   1
  24   3   5-27.1904 61.0068   3
 -25   3  -5-13.8806 48.8894   1
  25   3   5-22.6541 39.7727   3
  26   3   5 58.0523 49.4059   3
 -26   3  -5 6.12942 25.0861   1
 -24   4   5 357.961 155.307   1
 -23   4   5 319.839 138.530   1
 -22   4   5-113.524 83.8453   1
 -21  -4   5-0.62386 58.8505   2
 -21   4   5 87.3186 79.6973   1
 -20  -4   5 160.477 73.0949   1
 -20  -4   5 107.869 94.8306   2
 -20   4   5 397.069 157.956   1
 -19  -4   5 355.333 97.7899   1
 -19   4   5 377.828 144.914   1
 -19  -4   5 369.712 162.241   2
 -18  -4   5 215.922 182.707   2
  18   4  -5 380.169 112.929   3
 -18   4   5 293.640 115.848   1
  17   4  -5 144.179 65.8921   2
  17   4  -5 98.7165 57.2120   3
 -17  -4   5 138.650 66.7712   1
 -17   4   5 188.029 84.6440   1
 -17  -4   5 305.417 175.301   2
  16   4  -5-10.4703 16.2534   2
 -16  -4   5 19.6219 29.9844   1
  16   4  -5 1.83070 45.2441   3
 -16  -4   5 43.8417 66.7189   2
  15   4  -5-9.43136 18.8720   2
 -15  -4   5-29.6287 27.2651   1
  15   4  -5 75.6255 56.3086   3
 -15   4   5 6.41222 5.47745   3
 -15   4   5 18.6660 42.4421   1
 -15   4   5 2.06564 3.15445   3
 -15  -4   5 90.0311 104.386   2
  14   4  -5 58.2353 54.4444   3
 -14   4   5 126.102 69.6968   1
 -14  -4   5 42.6783 31.8739   1
  14   4  -5 12.9059 20.3683   2
 -14  -4   5-15.8357 45.3745   2
 -14   4   5 41.2803 14.0733   3
  13   4  -5 137.703 46.4382   2
 -13  -4   5 124.518 54.5381   1
  13   4  -5 187.288 77.7635   3
 -13   4   5 45.2402 13.3066   1
 -13  -4   5 72.9113 28.1062   2
 -13   4   5 94.6912 22.1621   3
  12   4  -5 276.607 69.3544   2
 -12   4   5 242.750 98.1955   1
 -12  -4   5 386.298 135.250   2
  12   4  -5 337.002 102.192   3
 -12  -4   5 336.362 88.2266   1
 -12   4   5 306.220 45.3475   3
 -11   4   5-37.4001 40.5011   1
 -11  -4   5-10.6925 20.2286   2
  11   4  -5 84.4533 59.3845   3
 -11  -4   5-0.24732 5.04716   1
 -11   4   5 9.81662 7.29061   3
 -10   4   5 357.388 116.795   1
 -10  -4   5 376.387 89.0421   1
 -10  -4   5 502.864 126.789   2
 -10   4   5 485.332 64.0010   3
  10   4  -5 467.577 110.299   3
   9   4  -5 402.853 102.851   3
  -9  -4   5 376.102 88.4631   1
  -9   4   5 269.549 93.1574   1
  -9  -4   5 331.671 92.1239   2
   9  -4  -5 215.692 121.559   2
  -9   4   5 320.756 53.6488   3
  -8   4   5 12.5863 20.0323   1
  -8  -4   5 70.5526 46.0895   2
   8   4  -5 50.3705 34.8327   3
   8  -4  -5-154.504 103.693   2
  -8   4   5 19.4810 11.3191   3
  -8  -4   5-6.83290 25.7023   1
  -7  -4   5-11.7860 7.37693   1
  -7  -4   5 24.0644 36.9366   2
  -7  -4   5 10.5460 22.7958   3
  -7   4   5 46.2713 51.4007   1
   7  -4  -5-25.9910 36.2100   2
   7   4  -5 56.8322 50.4207   3
  -7   4   5-4.98900 6.56757   3
  -6  -4   5 397.068 89.3346   1
  -6  -4   5 321.407 88.1477   2
  -6   4   5 244.950 79.6683   1
   6   4  -5 315.586 87.6003   3
  -6  -4   5 286.260 83.0232   3
   6  -4  -5 408.996 142.191   2
  -6   4   5 331.035 61.1159   3
  -5  -4   5 430.453 93.9303   2
  -5  -4   5 385.220 89.4163   3
  -5  -4   5 333.721 81.0760   1
   5  -4  -5 396.279 147.847   2
  -5   4   5 381.793 66.0549   3
   5   4  -5 449.342 98.0772   3
  -4  -4   5 12.6079 18.9357   2
   4   4  -5 21.1679 24.2726   1
   4   4  -5 23.0371 35.6662   3
  -4  -4   5 53.8217 37.5700   1
   4  -4  -5 29.9979 60.5109   2
  -4  -4   5-6.53187 20.3919   3
  -4   4   5-17.7271 9.85633   3
   3   4  -5 67.5872 42.2964   3
   3   4  -5 25.4765 27.2563   1
  -3  -4   5 35.7145 31.2374   1
   3  -4  -5 31.2476 32.9278   2
  -3  -4   5 19.7884 30.8890   3
  -3   4   5 41.1573 18.9707   3
  -3  -4   5 8.27656 9.54048   2
  -2  -4   5 69.4387 44.1841   1
  -2   4   5 25.5644 18.7679   1
   2  -4  -5-13.6435 42.4764   2
  -2  -4   5 15.5127 29.3587   3
  -2   4   5-11.1740 14.4056   3
  -1  -4   5 414.592 96.6730   1
   1  -4  -5 573.155 138.392   2
  -1  -4   5 439.178 83.3924   3
  -1   4   5 458.113 78.4900   3
  -1   4   5 425.523 84.7964   1
   0   4   5 79.0809 37.7742   1
   0  -4  -5 222.393 73.1800   2
   0   4   5 125.470 45.8425   3
   0  -4   5 133.236 45.4743   3
   0  -4   5 201.158 74.2929   1
   1   4   5 19.6374 18.0312   1
  -1  -4  -5-11.4563 8.95426   2
   1  -4   5-14.6035 18.9784   3
   1   4   5 5.32850 14.7451   3
   1  -4   5-6.79999 13.8983   1
   2  -4   5 146.784 45.1564   3
   2   4   5 92.9272 34.1318   3
  -2  -4  -5 82.1334 28.4639   2
   2   4   5 94.8272 31.1698   1
   2  -4   5 136.986 56.7282   1
  -3  -4  -5 169.333 31.2345   2
   3   4   5 147.264 36.8429   1
   3  -4   5 195.115 51.3109   3
   3  -4   5 163.765 66.8127   1
  -3   4  -5 173.389 68.6371   1
   3   4   5 71.5247 28.7109   3
  -4   4  -5-7.41385 26.6547   1
   4  -4   5 19.8434 20.6815   1
   4  -4   5 35.8345 29.8333   3
   4   4   5 12.0461 24.3359   3
   4   4   5 12.5454 17.1506   1
   5   4   5 63.0199 38.6131   3
   5  -4   5 74.5835 25.5585   3
  -5   4  -5 100.289 54.9656   1
   5  -4   5 60.2249 44.8988   1
   6   4   5 215.647 65.4031   3
  -6   4  -5 205.383 76.2969   1
   6  -4   5 177.108 73.9479   1
   6  -4   5 198.382 46.7667   3
  -7   4  -5 814.132 159.389   1
   7  -4   5 830.097 89.9270   3
   7   4   5 770.005 128.495   3
   8   4   5 41.6308 29.7514   3
  -8   4  -5-7.77340 15.9024   1
   8  -4   5 45.2235 21.8420   3
   9  -4   5 547.746 62.2676   3
  -9   4  -5 587.447 142.223   1
   9   4   5 526.385 109.596   3
  10  -4   5 2458.05 118.649   3
 -10   4  -5 2344.61 288.926   1
  10   4   5 2443.51 239.967   3
 -11   4  -5 27.6420 30.0204   1
  11   4   5-30.0165 23.1320   3
  11  -4   5-0.29156 5.26837   3
 -12   4  -5 103.685 68.7290   1
  12   4   5 103.458 56.8334   3
 -13   4  -5 144.986 70.1803   1
  13   4   5 151.425 67.5131   3
 -14   4  -5-7.13828 18.9057   1
  14   4   5 15.4674 35.5991   3
 -15   4  -5 182.173 93.9840   1
  15   4   5 224.716 83.4128   3
 -16   4  -5 17.7297 30.2572   1
  16   4   5 20.7192 10.1743   2
  16   4   5 80.2283 53.3560   3
 -17   4  -5 72.2008 60.8051   1
  17   4   5 20.2124 25.5114   3
 -18   4  -5 60.8215 63.4734   1
  18   4   5 124.966 73.1096   3
 -19   4  -5-7.73068 24.7608   1
  19   4   5-13.0608 18.7243   3
 -20   4  -5 97.5564 87.1745   1
  20   4   5-10.1425 21.0934   3
 -21   4  -5 26.3662 22.6110   1
  21   4   5-18.9661 57.0932   3
  22   4   5 161.824 78.4521   3
 -22   4  -5 257.908 124.273   1
 -23   4  -5 70.3347 88.4894   1
  23   4   5 66.9716 54.3863   3
 -24   4  -5 11.5317 30.4214   1
  24   4   5-104.989 67.5038   3
  25   4   5 255.204 111.805   3
  26   4   5-70.5114 58.2887   3
 -22   5   5 43.1220 54.5043   1
 -21   5   5 85.6336 91.4911   1
 -20   5   5 365.436 147.530   1
  19   5  -5 230.166 96.9706   3
 -19   5   5 98.0231 75.7505   1
  18   5  -5 59.0484 63.8410   3
 -18   5   5 60.8354 52.8254   1
 -18  -5   5-38.4081 54.1465   2
  17   5  -5 2.32452 39.9714   3
 -17  -5   5 11.7853 40.8662   2
 -17   5   5-6.97118 21.9480   1
 -16  -5   5 25.4291 44.3264   2
  16   5  -5 118.788 72.5732   3
 -16   5   5-65.9142 57.9194   1
  15   5  -5 106.536 64.8667   3
 -15  -5   5-4.33717 36.3513   2
 -14  -5   5 117.048 97.0646   2
 -14   5   5 30.2689 11.3168   3
 -14   5   5-50.2003 48.6634   1
  14   5  -5 94.3698 64.5665   3
 -14  -5   5 18.1206 14.9533   1
 -13  -5   5 209.041 107.087   2
 -13   5   5 129.594 74.9655   1
  13   5  -5 143.513 78.6490   3
 -13   5   5 183.874 36.2124   3
 -13  -5   5 136.877 53.5621   1
 -12   5   5 296.542 108.939   1
 -12  -5   5 369.322 134.536   2
 -12   5   5 250.143 45.2527   3
 -12  -5   5 330.116 83.8700   1
  12   5  -5 457.156 126.228   3
 -11  -5   5 402.680 134.178   2
 -11   5   5 305.395 108.474   1
 -11   5   5 361.906 58.0236   3
  11   5  -5 351.262 105.158   3
 -11  -5   5 280.870 76.2949   1
 -10  -5   5 370.811 114.201   2
 -10  -5   5 503.686 104.176   1
 -10   5   5 575.770 77.7152   3
  10   5  -5 595.124 134.611   3
 -10   5   5 642.425 150.923   1
  -9  -5   5 332.370 98.7644   2
  -9   5   5 482.262 133.247   1
  -9  -5   5 434.363 97.5142   1
   9   5  -5 374.543 105.989   3
  -9   5   5 360.307 65.5358   3
  -8  -5   5 175.197 78.2149   2
  -8  -5   5 222.355 70.1447   1
  -8   5   5 96.7713 58.0452   1
   8   5  -5 154.217 67.4769   3
  -8   5   5 126.049 38.3818   3
  -7  -5   5 1421.41 190.794   2
  -7   5   5 1149.32 121.656   3
  -7  -5   5 1256.07 167.621   1
   7   5  -5 1209.96 177.291   3
   7  -5  -5 1481.50 337.101   2
  -7   5   5 1225.05 194.157   1
  -6  -5   5 1109.67 160.472   1
   6   5  -5 857.166 147.127   3
  -6   5   5 881.393 110.591   3
   6  -5  -5 1052.09 256.282   2
  -6   5   5 842.523 162.123   1
  -6  -5   5 904.388 142.499   2
  -5   5   5 418.415 78.6902   3
  -5  -5   5 390.266 94.8147   1
   5   5  -5 378.640 106.319   3
  -5  -5   5 306.878 78.7246   2
  -5   5   5 511.381 118.873   1
   5  -5  -5 240.351 117.058   2
  -4  -5   5 18.8640 12.1560   1
  -4  -5   5 34.3265 25.3965   2
  -4   5   5 22.3203 33.6217   1
   4   5  -5 4.68150 34.0545   3
   4  -5  -5 55.5515 92.3317   2
  -4   5   5 27.0192 21.4417   3
   3   5  -5 60.0882 45.4894   3
   3  -5  -5 15.0066 37.6834   2
  -3  -5   5-11.4520 10.1838   2
  -3   5   5 7.05542 18.4605   3
  -3  -5   5 11.8835 17.6687   1
  -2   5   5 131.976 44.3652   3
   2  -5  -5 154.115 70.1426   2
   2   5  -5 203.032 67.8416   3
  -2  -5   5 130.747 58.1319   1
  -2  -5   5 147.980 59.5674   3
  -1  -5   5 203.108 63.3090   3
   1   5  -5 147.066 59.6025   1
  -1  -5   5 264.153 83.7040   1
   1  -5  -5 272.012 107.244   2
   0   5  -5 655.570 137.282   1
   0   5   5 613.539 110.017   3
   0  -5  -5 631.529 144.069   2
   0  -5   5 752.159 121.549   3
   0  -5   5 702.534 138.603   1
   0   5   5 544.728 98.1412   1
   1   5   5 1315.52 142.928   1
  -1  -5  -5 1615.75 200.869   2
   1   5   5 1243.08 153.255   3
   1  -5   5 1357.41 155.778   3
  -1   5  -5 1399.10 205.715   1
   1  -5   5 1410.60 204.369   1
   2  -5   5 1065.06 180.803   1
   2   5   5 858.336 107.099   1
   2   5   5 998.224 140.551   3
  -2   5  -5 1002.70 175.299   1
  -2  -5  -5 934.206 124.666   2
   2  -5   5 1073.24 137.740   3
   3   5   5 0.62676 19.9011   3
  -3  -5  -5-17.5086 13.1801   2
   3  -5   5 26.1734 29.3267   3
   3  -5   5 16.9864 10.7286   1
  -3   5  -5 18.5788 28.9517   1
   3   5   5 8.72653 15.0025   1
   4  -5   5 1390.23 146.333   3
   4   5   5 1317.35 106.824   1
  -4   5  -5 1361.70 214.450   1
   4   5   5 1177.67 161.973   3
   5  -5   5 622.662 95.4769   3
   5   5   5 643.980 122.259   3
  -5   5  -5 604.433 146.591   1
   5   5   5 546.799 50.4026   1
   6   5   5 404.121 98.1419   3
   6  -5   5 424.406 73.7812   3
  -6   5  -5 442.395 121.645   1
   7  -5   5 1869.50 150.851   3
  -7   5  -5 1607.85 243.690   1
   7   5   5 1601.20 201.146   3
   8   5   5 180.744 60.9724   3
  -8   5  -5 110.627 58.8099   1
   8  -5   5 234.344 50.3302   3
  -9   5  -5 659.920 158.179   1
   9  -5   5 563.106 70.4024   3
   9   5   5 692.862 141.324   3
  10  -5   5 382.982 52.0314   3
 -10   5  -5 394.058 124.399   1
  10   5   5 565.745 124.865   3
  11   5   5 65.7651 44.4043   3
 -11   5  -5 142.663 79.4206   1
  11  -5   5 99.6057 24.7025   3
 -12   5  -5 317.299 116.026   1
  12   5   5 286.103 94.4705   3
 -13   5  -5 128.429 83.5452   1
  13   5   5 52.5870 49.4427   3
 -14   5  -5-39.8621 43.8586   1
  14   5   5-20.9358 25.6165   3
 -15   5  -5 11.5483 25.3022   1
  15   5   5 47.4482 58.7208   3
 -16   5  -5-75.3003 62.5519   1
  16   5   5 46.2739 53.4808   3
 -17   5  -5 51.5469 60.4611   1
  17   5   5-13.8181 26.1982   3
  18   5   5 122.383 71.0756   3
 -18   5  -5-23.1820 37.5356   1
 -19   5  -5 14.1532 31.4850   1
  19   5   5 124.142 74.7072   3
 -20   5  -5 275.214 126.671   1
  20   5   5 433.735 127.246   3
 -21   5  -5 7.46114 24.6116   1
  21   5   5 13.2482 28.9637   3
 -22   5  -5 190.763 112.680   1
  22   5   5-63.1520 54.1059   3
  23   5   5 111.757 76.2991   3
 -20   6   5-47.7059 56.6272   1
  19   6  -5 52.0046 45.3464   3
 -19   6   5 30.3491 43.4072   1
  18   6  -5 130.395 73.0142   3
 -18   6   5 141.724 109.620   1
  17   6  -5 163.531 79.1046   3
 -17   6   5 84.2834 69.4552   1
  16   6  -5 29.1058 30.2163   3
 -16   6   5 35.5414 58.8495   1
  15   6  -5 294.455 109.514   3
 -15   6   5 493.895 173.151   1
  14   6  -5 331.382 115.008   3
 -14   6   5 226.561 107.325   1
 -13   6   5 5.14497 36.6371   1
  13   6  -5 14.6885 28.8116   3
 -13  -6   5-17.9079 34.9715   2
  12   6  -5 411.534 130.928   3
 -12  -6   5 433.853 157.109   2
 -12   6   5 322.362 118.534   1
 -12   6   5 316.752 58.4432   3
  11   6  -5 275.193 101.850   3
 -11   6   5 263.615 57.5485   3
 -11  -6   5 341.065 114.040   2
 -11   6   5 177.804 94.3951   1
 -10   6   5 40.2500 25.5145   3
  10   6  -5-1.91591 37.0366   3
 -10  -6   5 7.06022 13.3207   1
 -10  -6   5-19.0898 43.9231   2
 -10   6   5 65.4083 48.1005   1
  -9   6   5 29.8960 30.5507   1
   9   6  -5 64.1565 61.9561   3
  -9   6   5 45.7113 27.2554   3
  -9  -6   5 31.9492 18.1007   2
  -9  -6   5-31.6885 26.5337   1
  -8   6   5 407.087 81.7767   3
  -8  -6   5 389.534 101.739   2
   8   6  -5 331.841 102.876   3
  -8   6   5 457.150 132.013   1
  -8  -6   5 410.704 98.5822   1
  -7  -6   5 141.170 78.7453   2
  -7  -6   5 52.9423 35.3870   1
   7   6  -5 52.4291 33.9469   3
  -7   6   5 88.2166 53.5191   1
  -7   6   5 120.076 49.1705   3
  -6  -6   5 74.0899 41.7011   2
  -6  -6   5 167.559 63.9929   1
   6   6  -5 144.036 85.1942   3
  -6   6   5 95.5286 49.4715   1
  -6   6   5 74.8871 35.7493   3
  -5  -6   5 21.5923 21.9074   1
  -5  -6   5-32.2969 44.1521   2
   5   6  -5-19.2599 32.1821   3
  -5   6   5 6.81964 25.8137   3
  -5   6   5-4.43893 8.78744   1
   5   6  -5-58.9429 43.1424   1
   4   6  -5 359.637 102.560   3
   4   6  -5 374.006 111.778   1
  -4  -6   5 405.708 93.2175   2
   4  -6  -5 345.273 140.425   2
  -4   6   5 447.458 113.360   1
  -4   6   5 302.313 76.4129   3
  -4  -6   5 422.227 104.804   1
  -3  -6   5 30.2526 29.6134   1
  -3  -6   5-6.69176 21.8701   2
   3   6  -5 26.6327 35.0980   1
  -3   6   5-13.6652 14.9153   3
   3   6  -5 32.1717 39.4526   3
   3  -6  -5-101.116 79.2675   2
  -3   6   5-1.92663 16.8813   1
   2   6  -5 134.162 62.5286   3
   2  -6  -5 186.986 107.679   2
   2   6  -5 113.824 66.4388   1
  -2  -6   5 88.0065 52.3682   1
  -2   6   5 82.7620 44.3157   1
  -2   6   5 117.110 53.2132   3
   1  -6  -5-50.5872 49.9016   2
   1   6  -5 44.5355 52.6368   1
  -1  -6   5 52.9459 37.4064   1
  -1   6   5 28.3750 22.5458   3
   0   6  -5 773.293 162.843   1
   0  -6  -5 923.222 188.829   2
   0   6   5 768.631 130.552   3
  -1   6  -5 119.313 60.7747   1
  -1  -6  -5 238.294 90.1429   2
   1   6   5 116.434 47.4260   1
   1   6   5 188.894 67.9655   3
  -2  -6  -5 2801.19 239.155   2
   2   6   5 2213.72 191.448   1
   2   6   5 2200.55 229.532   3
   2  -6   5 2504.27 230.416   3
  -2   6  -5 2301.82 289.461   1
  -3  -6  -5 646.535 82.1236   2
   3   6   5 698.240 98.7714   1
  -3   6  -5 747.091 169.360   1
   3   6   5 769.147 138.196   3
   3  -6   5 743.837 120.238   3
   4  -6   5 350.977 82.1543   3
   4   6   5 344.655 94.0999   3
  -4   6  -5 357.058 121.260   1
   4   6   5 345.932 62.3881   1
   5  -6   5-8.55899 18.9285   3
   5   6   5 3.44661 3.90539   1
  -5   6  -5-1.66770 11.5463   1
   5   6   5-3.96139 23.3356   3
   6  -6   5 20.2006 18.3351   3
  -6   6  -5 37.3843 38.7984   1
   6   6   5 0.31674 9.17425   3
   7  -6   5-2.75555 8.14803   3
  -7   6  -5 42.2736 31.8102   1
   7   6   5 30.5295 33.1761   3
   8   6   5 277.966 89.3325   3
  -8   6  -5 114.460 81.7711   1
   8  -6   5 220.087 54.2300   3
   9   6   5-26.9900 35.8722   3
  -9   6  -5-4.49372 16.6902   1
 -10   6  -5 181.957 87.2425   1
  10   6   5 240.555 88.7995   3
  11   6   5 70.1786 48.3109   3
 -11   6  -5 84.2333 66.2637   1
 -12   6  -5 135.272 85.8404   1
  12   6   5 174.618 82.6917   3
 -13   6  -5-95.1800 70.3832   1
  13   6   5 84.7140 56.7286   3
  14   6   5 44.3265 54.1269   3
 -14   6  -5-1.66975 13.9323   1
 -15   6  -5-52.7396 54.6685   1
  15   6   5 48.5089 45.1297   3
 -16   6  -5-27.7789 41.7141   1
  16   6   5 24.3331 20.6790   3
 -17   6  -5 190.105 109.048   1
  17   6   5 172.827 77.7297   3
 -18   6  -5 56.9802 60.6586   1
  18   6   5-36.2541 56.1923   3
 -19   6  -5 174.609 105.794   1
  19   6   5 130.411 65.5555   3
  20   6   5-7.97404 34.2525   3
 -18   7   5-9.71743 27.5666   1
 -17   7   5 119.858 98.6462   1
  17   7  -5 102.390 58.5129   3
 -16   7   5-37.3499 48.4037   1
  16   7  -5 61.6520 54.5715   3
  15   7  -5 56.7793 57.5915   3
 -15   7   5 1.97063 15.6267   1
 -14   7   5 65.4616 60.0422   1
  14   7  -5 230.879 111.362   3
 -13   7   5 116.810 77.5667   1
  13   7  -5 71.7405 58.5894   3
 -12   7   5 295.526 122.020   1
  12   7  -5 206.873 91.2933   3
 -11   7   5 37.7967 42.9322   1
  11   7  -5 64.8703 60.9737   3
 -10   7   5-5.55394 27.7209   3
 -10   7   5-6.88640 19.8381   1
  -9   7   5 41.9209 19.5298   3
  -9  -7   5-50.2131 43.7745   2
   9   7  -5 68.5585 57.4115   3
  -9   7   5 115.906 72.3846   1
  -8  -7   5 139.796 67.2038   2
  -8   7   5 110.407 48.8937   3
   8   7  -5 103.605 72.2113   3
  -8   7   5 149.869 76.2020   1
   7   7  -5 2.38810 13.6348   3
  -7  -7   5 53.3048 23.5164   2
  -7   7   5 64.7730 41.3898   3
  -7   7   5 73.4102 51.5079   1
  -6  -7   5 565.090 129.871   2
  -6   7   5 570.476 110.361   3
  -6   7   5 579.632 147.163   1
   6   7  -5 563.380 138.088   3
  -5  -7   5 262.428 79.2127   2
  -5   7   5 151.804 57.9075   3
   5   7  -5 206.634 88.2287   3
  -5   7   5 192.787 83.2312   1
  -4  -7   5 254.384 80.9970   2
   4   7  -5 297.883 101.288   3
   4   7  -5 289.813 105.239   1
  -4   7   5 218.447 71.5230   3
  -4   7   5 260.916 92.2386   1
  -3  -7   5 113.545 58.8061   2
  -3   7   5 145.233 60.1042   3
  -3   7   5 103.190 48.9673   1
   3   7  -5 90.2885 65.9484   3
   3   7  -5 398.837 122.071   1
   2   7  -5 22.1525 29.5116   1
  -2  -7   5 77.5808 53.7607   2
  -2   7   5-1.88849 20.4774   3
  -2   7   5 1.29363 37.2879   1
  -1   7   5 569.383 123.898   1
   1   7  -5 758.065 173.200   1
  -1   7   5 601.617 122.121   3
   0   7   5 79.2271 37.4023   1
   0   7  -5 71.0554 53.0638   1
   0   7   5 59.7570 31.3700   3
  -1   7  -5 584.588 155.244   1
   1   7   5 518.754 122.369   3
  -2   7  -5 227.005 97.8843   1
   2   7   5 243.457 83.8157   3
   3   7   5 233.306 83.2075   3
   3   7   5 368.911 78.9482   1
  -3   7  -5 387.856 121.769   1
   4   7   5-10.3472 12.2217   1
   4   7   5 3.61325 10.0926   3
  -4   7  -5 63.7282 46.7739   1
   5   7   5 126.761 77.9106   3
  -5   7  -5 107.005 74.0522   1
  -6   7  -5 118.067 81.0060   1
   6   7   5 119.213 59.6507   3
  -7   7  -5 379.765 137.457   1
   7   7   5 477.589 130.358   3
  -8   7  -5 176.536 93.0682   1
   8   7   5 88.7167 56.9015   3
  -9   7  -5 46.0922 57.6864   1
   9   7   5-20.2685 28.7810   3
  10   7   5 30.9751 42.4746   3
 -10   7  -5-66.7838 59.4167   1
 -11   7  -5-4.85526 21.4250   1
  11   7   5 150.248 103.831   3
  12   7   5-35.1571 38.5692   3
 -12   7  -5-1.52966 14.6612   1
 -13   7  -5 49.1408 54.4834   1
  13   7   5 16.6923 52.6712   3
 -14   7  -5 169.274 208.641   1
  14   7   5 26.6687 40.7646   3
 -15   7  -5 85.4631 73.7832   1
  15   7   5 4.26049 17.4479   3
  16   7   5-64.8085 65.8157   3
 -16   7  -5 48.7230 57.5909   1
 -17   7  -5-48.4613 58.1445   1
 -15   8   5 143.649 93.7695   1
 -14   8   5 10.9553 27.0831   1
 -13   8   5-46.7728 52.1181   1
  13   8  -5-5.53819 40.5177   3
  12   8  -5-32.7230 48.8142   3
 -12   8   5 77.4039 64.6780   1
  11   8  -5-15.2432 28.7459   3
 -11   8   5 11.7787 43.2881   1
  10   8  -5 156.463 93.6083   3
 -10   8   5 63.9333 56.1326   1
   9   8  -5 26.5024 38.9456   3
  -9   8   5 30.2109 38.5576   1
   8   8  -5 8.98008 35.7970   3
  -8   8   5 106.279 69.0713   1
   7   8  -5 167.929 68.9937   3
  -7   8   5 117.927 47.3837   3
  -7   8   5 256.043 103.760   1
   6   8  -5 163.907 84.5942   3
  -6   8   5 65.9770 32.8108   3
  -6   8   5 117.627 75.5210   1
  -5   8   5 113.331 59.7106   3
   5   8  -5 101.117 66.0194   3
  -5   8   5 84.5496 57.1619   1
   4   8  -5 96.6153 63.0365   1
  -4   8   5 41.9664 34.0682   3
  -4   8   5-3.54880 13.8493   1
   3   8  -5 53.0855 45.8701   1
  -3   8   5-54.5910 43.6216   1
  -3   8   5 6.14916 28.5555   3
  -3  -8   5-79.1354 46.8570   2
  -2  -8   5-7.35688 23.9237   2
  -2   8   5-13.1853 37.2051   1
   2   8  -5 52.1586 47.9450   1
  -2   8   5 7.82686 16.2723   3
  -1  -8   5-11.8811 33.4418   2
  -1   8   5 23.3656 32.0690   1
  -1   8   5-27.6604 29.7498   3
   1   8  -5 70.8958 62.3231   1
   0   8  -5 18.9592 30.6214   1
   0   8   5 33.5768 31.0233   1
   0   8   5 48.1049 39.1473   3
  -1   8  -5 4.66961 28.2850   1
   1   8   5 143.054 71.8709   3
   2   8   5 59.5049 64.8827   3
  -2   8  -5-3.32036 15.9071   1
  -3   8  -5 138.901 90.0128   1
   3   8   5 18.0615 16.5294   3
  -4   8  -5 21.6672 50.9350   1
   4   8   5 52.8027 46.2323   3
   5   8   5 17.5579 26.8773   3
  -5   8  -5-38.2476 45.3762   1
  -6   8  -5 663.896 183.663   1
   6   8   5 76.8346 53.9129   3
   7   8   5 234.947 100.217   3
  -7   8  -5 98.9079 73.3068   1
  -8   8  -5 111.486 79.2524   1
   8   8   5-3.39863 15.8942   3
  -9   8  -5 18.1904 64.0983   1
   9   8   5 50.2350 46.2641   3
 -10   8  -5 426.427 166.844   1
  10   8   5 212.659 93.4454   3
  11   8   5 123.581 67.7631   3
 -11   8  -5-42.3839 51.9356   1
 -12   8  -5 403.892 171.117   1
  12   8   5 281.222 105.367   3
 -13   8  -5 31.4037 65.3682   1
 -12   9   5 133.586 89.7303   1
 -11   9   5-16.1259 32.3691   1
 -10   9   5 15.2347 31.3343   1
  -9   9   5 26.5372 38.5272   1
  -8   9   5 96.7700 70.3680   1
  -7   9   5 0.75372 21.9677   1
  -6   9   5 69.4189 45.8614   1
  -4   9   5-13.7458 23.1037   3
  -3   9   5 40.7647 37.7598   3
  -2   9   5-65.3324 47.5666   3
  -1   9   5 6.37550 17.9429   3
   0   9  -5 162.600 90.6837   1
   0   9   5-105.581 62.0107   3
  -1   9  -5-80.8188 65.4970   1
   1   9   5 66.2917 51.7276   3
   2   9   5 3.71517 33.6100   3
  -2   9  -5-17.8089 32.3519   1
  -3   9  -5-77.3139 64.9691   1
   3   9   5-7.35246 20.8707   3
  -4   9  -5-30.0825 41.7793   1
   4   9   5 0.15784 35.5189   3
  -5   9  -5-89.1605 72.3335   1
   5   9   5-37.0778 40.5681   3
  -6   9  -5 102.025 78.0549   1
   6   9   5 95.4890 53.4377   3
  -7   9  -5 39.5652 69.6574   1
   7   9   5 77.2060 41.0702   3
  -8   9  -5-7.37179 25.4579   1
  -9   9  -5 19.9942 38.4001   1
 -29   0   6 155.501 101.680   1
 -28   0   6 27.8822 33.5062   1
 -27   0   6 93.3879 101.807   1
 -26   0   6 68.1141 64.4666   1
 -25   0   6-17.7452 24.3033   1
 -24   0   6 481.501 157.631   1
 -23   0   6 14.4632 46.1683   1
 -22   0   6 16.9751 25.4361   1
 -21   0   6 1788.64 428.698   2
 -21   0   6 1657.82 278.617   1
 -20   0   6 387.959 131.725   1
 -20   0   6 376.963 84.5284   3
 -20   0   6 422.092 222.178   2
 -19   0   6 4424.45 287.135   3
 -19   0   6 4736.68 656.883   2
 -19   0   6 4800.30 453.387   1
 -18   0   6 10008.2 932.948   2
 -18   0   6 9213.41 607.690   1
 -18   0   6 9081.24 404.855   3
 -17   0   6 1470.76 352.167   2
 -17   0   6 1273.16 147.348   3
 -17   0   6 1337.37 228.162   1
 -16   0   6 1376.02 336.328   2
 -16   0   6 1626.99 239.894   1
 -15   0   6 1665.31 358.159   2
  14   0  -6 143.362 97.9275   2
 -14   0   6 129.287 73.3491   2
  13   0  -6 524.967 162.482   2
 -13   0   6 396.691 162.405   2
 -12   0   6 176.902 128.863   2
 -12   0   6 261.305 65.7485   3
  12   0  -6 308.617 134.159   2
  11   0  -6 651.229 166.303   2
 -11   0   6 589.911 91.6650   3
 -11   0   6 809.082 225.458   2
  10   0  -6 2826.71 330.351   2
 -10   0   6 2626.82 186.452   3
   9   0  -6 126.197 68.1103   2
   8   0  -6 12168.4 605.165   2
   7   0  -6 438.707 106.961   2
   6   0  -6 2538.60 241.598   2
   5   0  -6 105.914 47.7346   2
   4   0  -6 1355.18 152.563   2
   3   0  -6 826.267 111.246   2
   2   0  -6 3258.30 198.589   2
   1   0  -6 2901.78 171.462   2
   0   0   6 4325.47 255.689   1
   0   0  -6 4253.15 196.263   2
   1   0   6 2116.88 174.848   1
   2   0   6 74.4014 32.5798   1
  -3   0  -6 13.4384 17.7859   1
   3   0   6 14.5477 13.7465   1
   4   0   6 425.770 78.8726   1
  -4   0  -6 362.027 75.0431   1
   5   0   6 2028.74 174.877   1
  -5   0  -6 1921.41 175.642   1
   6   0   6-7.93479 15.5717   1
  -6   0  -6 32.5447 29.4977   1
  -7   0  -6 1.73603 17.8627   1
   7   0   6-9.87603 14.6220   1
   8   0   6 2805.88 220.657   1
  -8   0  -6 2865.22 227.596   1
   9   0   6 1028.95 139.065   1
  -9   0  -6 1053.94 141.767   1
   9   0   6 1087.49 110.375   3
 -10   0  -6 4627.25 303.458   1
  10   0   6 4888.89 315.668   1
  10   0   6 4706.69 233.769   3
 -11   0  -6 89.3942 46.3913   1
  11   0   6 105.240 48.8396   1
  11   0   6 91.3273 33.2990   3
  12   0   6 847.118 105.131   3
 -12   0  -6 582.286 119.072   1
  12   0   6 355.814 97.6484   1
  13   0   6 293.401 58.6632   3
 -13   0  -6 429.778 102.080   1
  13   0   6 326.500 92.3334   1
  14   0   6 917.946 109.650   3
 -14   0  -6 962.362 156.614   1
  14   0   6 929.505 160.533   1
  15   0   6 320.071 99.7839   1
 -15   0  -6 410.282 101.764   1
  15   0   6 338.975 70.1168   3
  16   0   6 54.8123 42.0471   1
 -16   0  -6-17.7970 36.0853   1
  16   0   6-19.8776 19.3771   3
  16   0   6 89.0432 103.931   2
  17   0   6 55.4251 49.1120   1
 -17   0  -6 46.5337 39.3887   1
  17   0   6 35.1430 26.4689   3
 -18   0  -6 5.76275 27.4381   1
  18   0   6 12.2481 12.4123   3
 -19   0  -6 33.9821 35.6838   1
  19   0   6 20.5806 24.6308   3
 -20   0  -6 564.098 143.106   1
  20   0   6 495.965 96.8053   3
  21   0   6 34.9221 31.1400   3
 -21   0  -6 50.7576 37.4914   1
 -22   0  -6 107.352 66.1331   1
  22   0   6 40.9602 23.6858   3
 -23   0  -6-22.3754 32.2209   1
 -24   0  -6 45.2116 46.0352   1
 -25   0  -6 93.7774 66.7956   1
 -26   0  -6 110.017 74.0549   1
 -28  -1   6-83.2576 71.1352   1
 -28   1   6 82.2281 51.8590   1
 -27   1   6-81.5453 74.1806   1
 -27  -1   6 59.9851 59.3536   1
 -26  -1   6 86.7133 68.1124   1
 -26   1   6 60.9615 38.7099   1
 -25  -1   6 405.003 140.168   1
 -25   1   6 336.791 139.178   1
 -24  -1   6 6.46596 35.9330   1
 -24   1   6 50.7969 41.4080   1
 -23   1   6 18.3024 17.1102   1
 -23  -1   6 176.450 86.6591   1
 -22   1   6-13.4376 43.9061   1
 -22  -1   6 7.51488 43.2320   1
 -22  -1   6 60.1673 37.6463   2
 -21  -1   6 27.1989 17.1170   1
 -21  -1   6 47.4938 74.0023   2
 -21   1   6 17.4265 40.8661   1
 -20  -1   6 165.593 85.8216   1
 -20   1   6 118.333 70.3155   1
 -20  -1   6 95.5284 105.022   2
 -19   1   6 169.480 88.6412   1
 -19   1   6 229.451 163.105   2
 -19  -1   6 397.594 290.721   2
 -19  -1   6 73.3027 42.4768   1
 -18  -1   6 1547.40 372.210   2
 -18   1   6 1770.62 399.506   2
 -18  -1   6 1434.97 231.339   1
 -18   1   6 1690.24 266.928   1
 -17   1   6 57.4940 63.1039   1
 -17  -1   6 21.2248 20.5007   3
 -17   1   6-45.8266 56.0650   2
 -17  -1   6 96.1752 54.0407   2
 -16   1   6 798.029 176.042   1
 -16   1   6 782.970 100.274   3
 -16  -1   6 919.836 272.874   2
 -16  -1   6 975.869 139.190   3
 -16   1   6 947.000 284.090   2
  15   1  -6 2250.33 316.083   2
 -15  -1   6 3476.57 518.623   2
 -15   1   6 2678.14 456.332   2
 -15  -1   6 2568.58 219.941   3
 -15   1   6 2754.23 193.105   3
 -15   1   6 2780.16 317.301   1
 -14  -1   6 238.614 66.6674   3
 -14   1   6 267.896 98.1255   1
  14   1  -6 103.099 30.2940   2
 -14   1   6 232.659 52.6998   3
 -14  -1   6 179.750 104.922   2
 -14   1   6 129.637 95.9504   2
 -13   1   6 275.582 60.6606   3
  13   1  -6 221.361 87.6797   2
 -13   1   6 188.932 117.084   2
  13  -1  -6 341.372 163.925   2
 -13  -1   6 281.567 70.0891   3
 -13  -1   6 332.947 162.339   2
  12   1  -6 431.226 124.841   2
  12  -1  -6 667.637 195.657   2
 -12   1   6 575.298 84.2748   3
 -12  -1   6 541.365 194.375   2
  11   1  -6 30.9509 28.1890   2
  11  -1  -6-60.9235 56.9959   2
 -11  -1   6 25.0254 57.5779   2
  10  -1  -6 4008.23 443.943   2
 -10  -1   6 3707.37 437.285   2
  10   1  -6 2843.19 290.053   2
   9   1  -6 147.003 62.9110   2
   9  -1  -6 261.459 103.159   2
  -9  -1   6 158.656 80.3700   2
  -9  -1   6 328.890 72.6653   3
   8   1  -6 1242.03 177.062   2
   8  -1  -6 1376.33 226.586   2
  -8  -1   6 1437.11 236.097   2
  -7  -1   6 2525.78 288.383   2
   7  -1  -6 2346.21 286.986   2
   7   1  -6 2425.26 222.149   2
   6   1  -6 4467.97 280.947   2
   6  -1  -6 4746.48 382.441   2
   5   1  -6-1.45843 12.8267   2
   5  -1  -6-40.6134 55.8875   2
   4   1  -6 594.856 90.4777   2
   4  -1  -6 623.702 116.744   2
   3   1  -6 243.256 55.7112   2
  -3  -1   6 197.044 61.7457   1
   3  -1  -6 172.868 56.3622   2
   2  -1  -6 21041.3 566.534   2
  -2  -1   6 20784.1 601.046   1
   2   1  -6 22049.3 485.989   2
  -1  -1   6 331.161 73.8253   1
   1  -1  -6 312.703 64.8977   2
   0  -1   6 4797.88 281.291   1
   0  -1  -6 4545.46 210.893   2
   1   1   6 883.451 101.149   2
  -1  -1  -6 903.880 85.3493   2
   1  -1   6 880.794 124.243   1
   2   1   6 140.483 35.1001   2
   2   1   6 180.187 50.8449   1
   2  -1   6 151.812 50.2140   1
   3   1   6 28.5678 18.1489   2
   3  -1   6 13.2171 21.8775   1
   3   1   6 18.7014 16.1580   1
   4   1   6 188.098 47.2721   1
   4  -1   6 248.708 69.0087   1
  -4  -1  -6 178.477 50.5745   1
   5  -1   6-21.3256 20.8688   1
   5   1   6-8.11050 13.2755   1
  -5  -1  -6 5.03048 14.7383   1
   6  -1   6 6978.78 366.173   1
   6   1   6 6724.55 281.553   1
  -6  -1  -6 6669.80 293.184   1
  -7  -1  -6 9.43479 13.7666   1
  -7   1  -6 53.5427 32.7191   1
   7  -1   6-11.6783 21.2700   1
   7   1   6 1.29026 6.43345   1
   7   1   6 5.42215 30.7777   3
   8  -1   6 580.481 112.062   1
   8   1   6 539.053 83.5429   1
  -8  -1  -6 522.726 86.3684   1
   8   1   6 584.664 86.5689   3
  -8   1  -6 585.519 111.468   1
   9   1   6 549.782 86.7483   3
  -9   1  -6 480.764 106.047   1
  -9  -1  -6 499.930 86.3592   1
   9  -1   6 489.144 108.343   1
   9   1   6 495.940 85.0443   1
 -10   1  -6 46.8774 28.7255   1
  10   1   6 102.684 39.3676   1
  10  -1   6 139.363 58.1583   1
 -10  -1  -6 104.434 38.2986   1
  10   1   6 120.189 41.7826   3
 -11  -1  -6 240.784 66.0347   1
 -11   1  -6 220.788 75.7307   1
  11  -1   6 302.720 56.0110   3
  11  -1   6 251.861 80.2214   1
  11   1   6 290.983 64.3273   3
  11   1   6 261.151 65.8249   1
 -12   1  -6-1.43407 30.9741   1
  12   1   6 18.2666 17.9338   1
  12   1   6-18.7474 24.3891   3
  12  -1   6 9.97180 10.7583   1
 -12  -1  -6 4.48166 10.7718   1
  12  -1   6 38.7773 21.5523   3
 -13   1  -6 159.594 64.5147   1
  13   1   6 138.022 51.0913   1
  13  -1   6 207.295 84.0536   1
 -13  -1  -6 134.648 50.7000   1
  13  -1   6 157.680 36.8327   3
  13   1   6 177.257 52.9364   3
  14   1   6 1813.93 311.364   2
 -14   1  -6 1732.94 228.107   1
 -14  -1  -6 1733.16 191.512   1
  14  -1   6 1697.85 128.845   3
  14   1   6 1879.66 177.159   3
  14   1   6 1798.59 202.374   1
  14  -1   6 2115.58 265.389   1
 -15   1  -6 175.846 81.8187   1
 -15  -1  -6 247.417 71.8484   1
  15   1   6 190.348 65.9441   1
  15   1   6 202.003 62.2847   3
  15   1   6 174.013 98.0266   2
  15  -1   6 184.875 42.1531   3
  16   1   6 113.962 54.3062   1
 -16   1  -6 107.093 59.3384   1
  16  -1   6 146.707 41.0889   3
 -16  -1  -6 130.057 56.0012   1
  16   1   6 176.696 57.3240   3
  16   1   6 124.871 107.683   2
 -17   1  -6 285.179 102.226   1
  17   1   6 234.541 123.960   2
 -17  -1  -6 221.674 76.2825   1
  17   1   6 272.065 73.0674   3
  17   1   6 238.382 78.0695   1
  17  -1   6 210.914 49.4441   3
  18   1   6 258.155 72.4179   3
 -18   1  -6 301.022 104.792   1
 -18  -1  -6 273.091 83.8099   1
  18  -1   6 212.405 53.2498   3
  18   1   6 292.388 145.898   2
  19   1   6 35.3554 29.3088   3
 -19   1  -6-23.1225 41.6573   1
 -19  -1  -6 71.0327 52.1640   1
  19  -1   6-6.25533 10.2127   3
 -20   1  -6 142.372 75.9859   1
  20  -1   6 122.668 37.8299   3
 -20  -1  -6 260.995 95.3099   1
  20   1   6 142.784 54.2217   3
 -21   1  -6-20.5314 31.5245   1
 -21  -1  -6 9.28460 38.1439   1
  21  -1   6 13.9702 7.06380   3
  21   1   6 56.7014 42.3555   3
 -22   1  -6 246.092 114.164   1
 -22  -1  -6 224.192 91.6821   1
  22   1   6 102.806 48.0334   3
 -23   1  -6 81.6224 89.6574   1
 -23  -1  -6 32.5824 35.8320   1
  23   1   6 59.9337 53.5192   3
  24   1   6 19.0075 14.5532   3
 -24   1  -6-8.59934 27.0793   1
 -24  -1  -6-84.6935 57.9250   1
 -25   1  -6-39.4095 46.4599   1
 -26   1  -6 137.574 87.2159   1
 -27   1  -6 161.887 92.8805   1
 -28   1  -6-112.725 83.2805   1
 -27   2   6 540.174 189.379   1
 -26  -2   6 124.339 79.9407   1
 -26   2   6 22.2246 41.7840   1
 -25  -2   6 61.3542 43.4927   1
 -25   2   6 0.98761 48.2617   1
 -24  -2   6 174.402 93.7263   1
 -24   2   6 115.577 81.1184   1
 -23  -2   6 15.3907 27.1009   1
 -23   2   6-20.2295 36.8413   1
 -22  -2   6 148.568 84.5645   1
 -22   2   6 170.231 92.4270   1
 -22  -2   6 347.438 187.419   2
 -21  -2   6 33.8550 24.0518   1
 -21  -2   6 48.2857 111.334   2
 -21   2   6 39.4067 47.3252   1
 -20  -2   6 231.093 95.9743   1
 -20   2   6 286.886 117.417   1
 -20  -2   6 226.867 196.946   2
 -19   2   6 216.473 106.898   1
 -19   2   6 102.712 32.6763   3
 -19  -2   6 36.8585 52.3828   2
 -19  -2   6 128.746 66.7396   1
 -18   2   6 15.2733 9.13930   3
 -18   2   6-11.2463 35.5658   1
 -18  -2   6 12.4103 70.2494   2
 -17   2   6 63.3380 51.0081   1
 -17   2   6 126.204 40.7523   3
 -17  -2   6 243.058 141.237   2
 -16   2   6 106.568 85.4287   2
 -16   2   6 102.078 66.0046   1
 -16   2   6 183.958 40.4935   3
 -16  -2   6 325.112 171.189   2
  15   2  -6 901.843 180.595   2
 -15   2   6 863.724 96.7327   3
 -15  -2   6 1270.12 304.362   2
 -15   2   6 852.352 187.013   1
 -15   2   6 814.256 271.077   2
  14   2  -6-1.00278 21.5808   2
 -14   2   6 100.024 60.7392   1
 -14  -2   6 38.3018 66.1937   2
 -14   2   6 28.2782 20.5249   3
 -14   2   6 4.48272 58.9116   2
 -13   2   6 31.3659 30.0702   1
  13   2  -6 55.8341 47.2346   2
 -13  -2   6 81.3617 36.4785   2
 -13  -2   6 63.8123 34.9507   3
 -13   2   6 166.660 143.487   2
  12   2  -6 600.391 133.111   2
 -12  -2   6 815.711 216.132   2
  12  -2  -6 726.061 223.525   2
 -12  -2   6 628.454 109.596   3
  11   2  -6 50.5868 31.1270   2
 -11  -2   6 28.1849 68.2206   2
 -11  -2   6 2.03973 28.6377   3
  11  -2  -6 68.8340 58.8511   2
  10   2  -6 171.282 67.3282   2
 -10  -2   6 105.513 71.2506   2
  10  -2  -6 74.9791 73.8519   2
  -9  -2   6 2022.61 288.171   2
   9  -2  -6 2214.44 345.503   2
   9   2  -6 1594.37 180.741   2
   8   2  -6 241.079 66.9197   2
  -8  -2   6 236.156 74.4252   2
   8  -2  -6 295.935 113.268   2
   7   2  -6 13.4009 13.4365   2
  -7  -2   6-17.1603 28.5935   2
   7  -2  -6 51.6609 66.1664   2
   6   2  -6-5.46374 6.45445   2
  -6  -2   6 6.23682 19.2906   2
   6  -2  -6-8.50851 77.5961   2
  -6  -2   6 4.18893 14.1836   1
  -5  -2   6 149.119 66.1600   2
  -5  -2   6 147.715 58.1133   1
   5   2  -6 85.9698 35.2244   2
   5  -2  -6 101.066 73.4488   2
   4  -2  -6 3957.31 340.707   2
  -4  -2   6 3548.30 250.886   2
  -4  -2   6 3494.94 259.494   1
   4   2  -6 3719.56 216.263   2
   3  -2  -6 3430.80 293.458   2
  -3   2   6 3737.57 365.058   2
  -3  -2   6 3366.17 228.348   2
  -3  -2   6 3271.35 249.865   1
  -2  -2   6 575.306 88.5401   2
  -2   2   6 675.127 144.941   2
  -2  -2   6 529.079 98.2027   1
   2  -2  -6 512.997 101.214   2
   1  -2  -6 3710.46 245.219   2
  -1   2   6 3798.39 318.427   2
  -1  -2   6 3912.62 271.503   1
   0  -2   6-1.16141 16.9685   1
   0  -2  -6 16.9263 19.7130   2
   0   2   6 23.0360 33.3065   2
   1   2   6 1513.59 162.389   2
   1  -2   6 1581.46 178.319   1
  -1  -2  -6 1546.64 120.614   2
  -2  -2  -6 71.3604 23.0753   2
   2   2   6 112.714 33.6070   2
   2  -2   6 74.1974 40.3781   1
   3  -2   6 6.17509 11.8739   1
   3   2   6 16.3208 16.2203   2
   3   2   6 42.3761 30.6789   1
   4  -2   6 169.225 67.0462   1
   4   2   6 153.281 36.2287   2
   4   2   6 122.710 35.4192   1
   4   2   6 120.885 47.0366   3
   5  -2   6 5953.58 364.623   1
   5   2   6 5798.73 221.831   1
   5   2   6 5613.80 277.672   3
   5   2   6 5817.80 198.626   2
   6  -2   6 1386.82 179.816   1
   6   2   6 1239.29 100.318   1
   6   2   6 1356.62 138.353   3
   6   2   6 1379.83 90.5189   2
   7   2   6 87.7832 41.3215   3
   7  -2   6 38.7017 30.8230   1
   7   2   6 98.6525 25.8879   1
   8   2   6 4049.40 185.356   1
   8  -2   6 4135.40 328.645   1
   8   2   6 4119.69 252.143   3
  -8  -2  -6 4235.16 206.909   1
  -9  -2  -6 3689.61 199.055   1
   9   2   6 3743.39 241.535   3
   9   2   6 3942.69 194.148   1
   9  -2   6 4435.02 354.236   1
  10   2   6 3816.07 248.782   3
 -10   2  -6 3425.99 311.103   1
  10  -2   6 4074.60 350.809   1
 -10  -2  -6 3613.05 205.195   1
  10   2   6 3527.27 194.756   1
  11   2   6 3.42221 3.91660   1
 -11   2  -6 20.0740 35.1476   1
 -11  -2  -6-5.90627 18.4235   1
  11   2   6 0.99197 18.1522   3
  11  -2   6 11.3796 18.0521   1
  11   2   6-11.3018 20.2150   2
 -12  -2  -6 266.267 62.2341   1
  12   2   6 247.498 67.9377   3
  12   2   6 244.972 57.2213   1
  12  -2   6 279.005 102.721   1
  12   2   6 282.656 91.1219   2
 -12   2  -6 278.950 93.5494   1
  12  -2   6 260.017 43.7723   3
  13   2   6 290.742 64.5728   1
  13   2   6 270.412 105.147   2
  13  -2   6 255.305 40.9916   3
  13   2   6 271.565 74.2523   3
 -13   2  -6 334.679 105.276   1
 -13  -2  -6 252.081 60.5295   1
 -14   2  -6 136.016 67.5413   1
  14   2   6 198.239 66.8841   3
 -14  -2  -6 206.485 55.0670   1
  14   2   6 24.9949 33.8078   2
  14  -2   6 166.175 31.9325   3
  15   2   6 3981.74 293.828   3
  15   2   6 4479.60 466.238   2
 -15  -2  -6 3895.13 264.143   1
  15  -2   6 4259.92 169.507   3
 -15   2  -6 4167.77 385.547   1
 -16  -2  -6-1.49082 21.1524   1
 -16   2  -6-12.5650 15.4734   1
  16   2   6 50.4612 42.1008   3
  16  -2   6 9.42694 13.1801   3
 -17   2  -6 847.221 181.559   1
  17  -2   6 631.834 64.8574   3
 -17  -2  -6 567.404 109.925   1
  17   2   6 1075.04 253.710   2
  17   2   6 626.232 120.366   3
 -18   2  -6 147.724 77.0155   1
 -18  -2  -6 105.817 51.3511   1
  18   2   6 76.1298 45.2491   3
  18  -2   6 70.0350 21.1363   3
  18   2   6 41.0323 52.1154   2
 -19   2  -6 193.708 98.8487   1
 -19  -2  -6 64.2397 40.9488   1
  19   2   6 85.6164 77.3310   2
  19   2   6 33.6608 37.7756   3
  19  -2   6 78.4481 20.7821   3
 -20   2  -6 59.1604 61.2239   1
 -20  -2  -6-47.0602 34.9565   1
  20   2   6-43.3969 28.7626   3
 -21   2  -6 224.879 106.273   1
 -21  -2  -6 249.335 82.4753   1
  21   2   6 273.806 100.262   3
 -22   2  -6 130.045 85.9599   1
  22   2   6 77.5625 52.8897   3
  23   2   6 24.4988 27.1322   3
 -23   2  -6 45.4983 62.3138   1
 -24   2  -6 26.7842 40.4984   1
  24   2   6 180.237 80.4332   3
  25   2   6 114.407 65.1359   3
 -25   2  -6 151.816 94.1198   1
 -26   2  -6-61.5623 62.6481   1
 -27   2  -6-100.714 80.9383   1
 -28   2  -6 32.9918 52.5642   1
 -26   3   6-254.715 133.625   1
 -25   3   6 43.0561 41.1040   1
 -24   3   6 4.29022 22.5065   1
 -23  -3   6 87.5096 97.9730   2
 -23  -3   6 21.8324 47.6098   1
 -23   3   6-33.0276 53.0570   1
 -22  -3   6-55.8512 47.7758   1
 -22   3   6 13.5899 30.7185   1
 -22  -3   6 34.2687 116.236   2
 -21  -3   6 43.4762 27.0461   1
 -21   3   6 111.420 63.7587   1
 -21  -3   6 92.7305 83.2377   2
 -20  -3   6 119.014 82.1516   1
 -20  -3   6 90.6985 99.7469   2
 -20   3   6 105.758 80.2379   1
 -19   3   6 343.615 129.388   1
 -19  -3   6 546.642 211.437   2
 -18   3   6 22.7017 24.8583   1
 -18   3   6 55.8032 17.5610   3
 -18  -3   6 125.756 106.792   2
 -17   3   6 87.0576 65.2761   1
 -17  -3   6 57.7924 97.9691   2
 -17   3   6 40.8808 17.2070   3
 -16   3   6 1036.67 89.8018   3
 -16  -3   6 1027.48 287.100   2
 -16   3   6 1281.95 239.525   1
  16   3  -6 985.732 174.164   2
  15   3  -6 213.499 89.5182   2
 -15   3   6 264.231 103.738   1
 -15   3   6 246.327 45.2463   3
 -15  -3   6 225.668 108.806   2
  14   3  -6 453.119 106.228   2
 -14   3   6 466.908 135.911   1
 -14  -3   6 632.802 190.369   2
  13   3  -6 505.139 108.888   2
 -13   3   6 648.982 158.610   1
 -12  -3   6 1020.50 246.495   2
  12   3  -6 653.408 118.526   2
 -12   3   6 702.460 157.141   1
 -12   3   6 689.096 237.424   2
  11   3  -6 172.871 64.4370   2
 -11   3   6 308.834 104.839   1
 -11  -3   6 244.086 96.6197   2
 -11  -3   6 201.506 71.0092   1
 -11   3   6 303.589 138.900   2
 -10  -3   6 2303.92 311.228   2
  10  -3  -6 2235.48 397.053   2
 -10  -3   6 1610.78 197.180   1
 -10   3   6 1596.41 319.293   2
  10   3  -6 1693.65 173.391   2
   9   3  -6 126.471 46.0254   2
  -9  -3   6 65.6509 36.5236   1
  -9  -3   6 91.1273 48.8753   2
   9  -3  -6 195.628 134.987   2
  -9   3   6 125.455 98.8134   2
  -8  -3   6 1260.36 197.279   2
   8  -3  -6 1545.90 303.374   2
  -8   3   6 1092.48 241.654   2
   8   3  -6 1144.30 131.024   2
  -8  -3   6 1115.47 158.103   1
  -7  -3   6-1.15616 12.7920   1
   7  -3  -6 19.2870 58.9464   2
  -7  -3   6 33.1538 47.1517   2
   7   3  -6 23.1799 7.29025   2
  -6  -3   6 146.228 66.7465   2
   6  -3  -6 85.7136 50.1648   2
  -6  -3   6 74.1907 38.2042   1
  -5  -3   6 123.197 51.1131   1
  -5   3   6 145.546 78.8797   2
   5  -3  -6 229.542 103.509   2
  -5  -3   6 137.515 49.7916   2
  -4  -3   6 46.6033 32.0274   1
  -4  -3   6 46.2166 31.5081   2
   4  -3  -6 49.0798 52.2325   2
  -4   3   6 13.3085 11.7215   2
  -4   3   6 3.11354 19.5885   1
   3  -3  -6 4921.78 408.528   2
  -3   3   6 5008.05 428.005   2
   3   3  -6 4788.92 336.428   1
  -3  -3   6 4818.30 320.339   1
  -3  -3   6 5112.07 285.981   2
  -2  -3   6 22.0254 21.6245   2
   2  -3  -6 9.34813 19.5154   2
  -2  -3   6 14.9826 17.1759   3
   2   3  -6 22.8557 23.3545   1
  -2  -3   6 7.88367 26.8811   1
  -2   3   6 3.42429 44.3567   2
  -2   3   6 10.8167 18.0738   3
  -1  -3   6 560.334 111.046   1
   1  -3  -6 575.822 113.666   2
  -1  -3   6 603.953 92.4212   3
  -1   3   6 599.265 88.0033   3
  -1   3   6 489.771 122.847   2
   1   3  -6 526.313 111.855   1
   0   3   6 332.940 96.2225   2
   0  -3  -6 274.848 67.2119   2
   0  -3   6 310.508 83.5092   1
   0  -3   6 362.653 74.8779   3
   0   3   6 368.427 74.9517   3
  -1  -3  -6 728.851 95.0845   2
   1   3   6 718.351 126.373   2
   1  -3   6 761.550 132.818   1
   1  -3   6 733.396 99.0468   3
   1   3   6 761.909 102.884   3
   2   3   6 1371.84 158.429   2
   2   3   6 1261.00 135.229   3
  -2  -3  -6 1148.20 96.8311   2
   2  -3   6 1252.58 173.083   1
   2  -3   6 1298.09 127.124   3
  -3  -3  -6 42.5342 14.8854   2
   3  -3   6 51.1169 26.5572   3
   3  -3   6 17.2956 20.2663   1
   3   3   6 50.7067 26.7025   2
   3   3   6 35.4269 29.7938   3
   4  -3   6 796.063 143.260   1
   4   3   6 536.558 78.2931   2
   4   3   6 708.564 78.0058   1
   4  -3   6 692.247 88.2532   3
   4   3   6 691.711 103.859   3
   5  -3   6 4020.22 205.633   3
   5  -3   6 4144.56 331.340   1
   5   3   6 3785.66 245.969   3
   5   3   6 3862.78 156.517   1
   6   3   6 1014.70 64.1445   1
   6  -3   6 1221.49 109.182   3
   6   3   6 1225.88 142.316   3
   6  -3   6 1239.01 186.269   1
   7  -3   6 132.708 37.5849   3
   7  -3   6 46.5971 35.0450   1
   7   3   6 88.5593 40.0793   3
   8  -3   6 326.326 53.5224   3
   8  -3   6 264.320 96.9359   1
   8   3   6 339.956 75.3257   3
   9   3   6 387.101 62.2144   2
   9  -3   6 534.030 64.5246   3
   9  -3   6 653.528 149.077   1
   9   3   6 505.582 96.1786   3
   9   3   6 388.605 38.3635   2
  10   3   6 503.397 99.3864   3
 -10   3  -6 397.026 110.336   1
  10  -3   6 513.868 59.8567   3
  10   3   6 379.458 72.1448   2
  10   3   6 413.996 41.9685   2
  11   3   6-7.16541 12.4920   3
 -11   3  -6 10.1363 26.3873   1
  11  -3   6 7.87914 10.8287   3
  11   3   6-20.1310 21.6741   2
  12  -3   6 186.067 31.6486   3
 -12   3  -6 196.989 89.2238   1
  12   3   6 310.758 88.5295   3
  12   3   6 166.611 58.9482   2
 -13   3  -6 538.570 138.835   1
  13  -3   6 397.613 39.4115   3
  13   3   6 489.622 109.543   2
  13  -3   6 413.489 37.6429   3
  13   3   6 438.266 102.333   3
 -14  -3  -6 864.378 84.5351   1
  14   3   6 1058.20 173.673   2
 -14   3  -6 856.553 179.877   1
  14   3   6 1075.01 161.258   3
 -15   3  -6 836.413 183.236   1
  15   3   6 815.064 144.822   3
  15   3   6 1159.23 194.846   2
 -15  -3  -6 753.584 86.5220   1
 -16   3  -6 77.6904 60.0077   1
  16   3   6 78.2177 39.5416   2
 -16  -3  -6 95.3527 32.6470   1
  16   3   6 130.274 59.8270   3
 -17   3  -6-22.5872 14.1045   1
 -17  -3  -6-5.34554 10.7998   1
  17   3   6 26.9347 33.8740   2
  17   3   6 30.8125 24.7317   3
 -18   3  -6 150.880 90.7172   1
 -18  -3  -6 101.068 40.1335   1
  18   3   6 271.969 94.8910   3
 -19   3  -6 146.333 79.0747   1
  19   3   6 128.479 65.1594   3
 -20   3  -6 27.9983 43.7264   1
  20   3   6-39.2008 36.1437   3
 -21   3  -6 51.2494 62.0507   1
  21   3   6 23.1971 30.9048   3
 -22   3  -6-33.0018 69.5530   1
  22   3   6-46.8695 51.8637   3
  23   3   6-26.3687 50.4131   3
 -23   3  -6-51.3933 55.9234   1
 -24   3  -6-52.9613 68.5345   1
  24   3   6-85.8947 57.5615   3
 -25   3  -6-3.49429 21.9127   1
  25   3   6 72.2200 54.0908   3
 -26   3  -6-306.304 142.926   1
  26   3   6-22.8495 32.4781   3
 -24   4   6 202.302 90.6544   1
 -23   4   6 217.734 158.308   1
 -22   4   6 314.684 133.936   1
 -22  -4   6 219.834 132.314   2
 -21  -4   6 835.914 282.173   2
 -21   4   6 843.611 225.286   1
 -20  -4   6-13.5641 36.4871   1
 -20   4   6 6.04989 60.3618   1
 -20  -4   6-99.9603 92.5754   2
 -19   4   6 959.030 227.078   1
 -19  -4   6 1222.83 321.160   2
 -18   4   6 54.9572 61.9990   1
 -18  -4   6-16.2921 42.0114   2
 -17   4   6-53.6882 52.8544   1
 -17  -4   6-33.0186 48.6902   2
 -17  -4   6 13.3243 20.8167   1
  16   4  -6 357.882 91.0565   2
 -16  -4   6 402.247 106.484   1
 -16   4   6 306.849 38.7377   3
 -16   4   6 490.096 151.572   1
 -16  -4   6 794.594 241.265   2
 -16   4   6 356.029 39.3094   3
  15   4  -6 73.5277 45.8271   2
 -15   4   6 91.0100 84.6197   1
 -15  -4   6 205.115 116.481   2
 -15   4   6 48.4785 19.0089   3
 -15  -4   6 75.1029 44.4613   1
  14   4  -6 396.987 93.0657   2
 -14   4   6 392.207 52.3105   3
 -14   4   6 454.504 140.037   1
 -14  -4   6 511.835 189.812   2
 -14  -4   6 359.121 96.9791   1
  13   4  -6 42.0571 45.3749   2
 -13  -4   6 38.1870 30.3279   1
 -13   4   6 40.8421 46.1103   1
 -13  -4   6-5.95416 51.1600   2
 -13   4   6-6.19169 7.41310   3
  12   4  -6 19.2398 17.2214   2
 -12   4   6-25.1297 39.7957   1
 -12  -4   6 50.9080 43.2252   2
  12   4  -6 57.9151 66.8025   3
 -12   4   6 13.2015 13.2879   3
 -12  -4   6 46.7757 33.9813   1
 -11   4   6 35.1425 39.8178   1
 -11  -4   6 160.839 98.4562   2
  11   4  -6 138.692 74.2578   3
 -11  -4   6 23.2150 13.6923   1
 -11   4   6 84.8851 29.7675   3
 -10   4   6 579.121 140.478   1
  10   4  -6 565.495 124.765   3
 -10  -4   6 544.119 137.415   2
 -10  -4   6 449.135 103.899   1
 -10   4   6 545.110 76.6849   3
  -9   4   6 104.575 70.1402   1
  -9  -4   6 142.360 60.0498   1
   9   4  -6 93.8321 53.6745   3
   9  -4  -6 41.7530 65.5096   2
  -9  -4   6 121.231 48.9624   2
  -9   4   6 132.475 40.0347   3
  -8  -4   6-1.93561 8.19167   1
  -8   4   6-2.52068 32.0243   1
  -8  -4   6-35.1475 37.5273   2
  -8   4   6 7.59900 16.3502   3
   8  -4  -6-35.2834 103.967   2
  -7   4   6 463.073 116.226   1
  -7  -4   6 571.624 125.610   2
  -7   4   6 540.789 79.8992   3
   7  -4  -6 545.673 195.350   2
  -7  -4   6 456.874 101.589   1
  -6  -4   6 10.4355 27.9121   2
  -6  -4   6-4.18285 21.9692   3
  -6   4   6-1.47039 10.8127   1
   6  -4  -6-37.4985 49.1267   2
  -6  -4   6 36.9870 34.1845   1
  -6   4   6 40.4259 24.3650   3
  -5  -4   6 93.3034 52.5353   3
  -5  -4   6 96.8092 49.4303   2
  -5   4   6 25.7139 20.5010   3
   5  -4  -6 46.8063 50.6172   2
  -5  -4   6 66.8392 38.9681   1
  -4  -4   6-11.8006 11.7387   2
  -4  -4   6 9.85425 15.9396   1
   4  -4  -6-65.8320 56.0978   2
  -4  -4   6-1.20643 14.0008   3
  -3  -4   6 51.5207 52.0949   2
  -3  -4   6 66.7758 42.5558   1
   3  -4  -6 21.2347 58.5871   2
  -3  -4   6 19.6334 22.9014   3
  -3   4   6 35.2418 25.5990   3
  -2  -4   6 262.869 69.7146   3
  -2   4   6 234.016 67.9437   1
  -2  -4   6 195.910 73.1695   1
   2  -4  -6 208.745 84.8806   2
  -2   4   6 198.418 53.9516   3
  -2  -4   6 360.426 79.0684   2
  -1  -4   6 133.831 58.8609   1
  -1   4   6 45.9827 26.4179   1
   1  -4  -6 110.474 66.2298   2
  -1  -4   6 108.155 42.5376   3
  -1   4   6 80.8278 35.3805   3
   0  -4   6-7.84543 27.7279   1
   0   4   6 2.95794 15.0982   1
   0  -4  -6 0.93104 37.6019   2
   0  -4   6-11.7677 31.6585   3
   0   4   6 1.06231 10.7192   3
   1  -4   6 80.1528 44.6418   1
   1   4   6 7.60125 13.4204   1
  -1  -4  -6 3.92660 17.8124   2
   1  -4   6 2.34996 14.2592   3
   1   4   6 18.7556 24.0710   3
   2   4   6 64.5146 37.0248   3
  -2  -4  -6 36.9214 24.0652   2
   2   4   6 53.4998 26.2085   1
   2  -4   6-14.8762 29.3653   3
   2  -4   6 66.9463 49.7322   1
  -2   4  -6 50.3261 31.3096   1
   3   4   6 277.805 52.6938   1
   3  -4   6 197.778 50.8755   3
   3  -4   6 344.195 99.3244   1
  -3   4  -6 183.316 75.1117   1
   3   4   6 225.686 60.9310   3
  -3  -4  -6 246.246 38.2038   2
  -4   4  -6 118.128 64.5548   1
   4   4   6 104.429 28.4587   1
   4  -4   6 96.1138 56.0372   1
   4  -4   6 100.078 32.5086   3
   4   4   6 138.157 54.1891   3
   5   4   6-1.94356 4.94704   1
  -5   4  -6-15.3236 29.3272   1
   5   4   6 5.95740 5.17097   1
   5  -4   6 54.4557 40.4416   1
   5   4   6-23.5437 29.9074   3
   5  -4   6-2.26787 16.2621   3
   6   4   6 678.819 113.675   3
   6  -4   6 759.252 94.8568   3
  -6   4  -6 635.965 145.126   1
  -7   4  -6 1026.37 185.943   1
   7  -4   6 1201.38 114.275   3
   7   4   6 953.813 139.936   3
   8   4   6 44.0559 16.5513   3
  -8   4  -6-6.45713 13.2561   1
   8  -4   6 13.2824 10.5176   3
   9  -4   6 455.840 62.8693   3
  -9   4  -6 417.116 123.627   1
   9   4   6 425.500 97.8534   3
 -10   4  -6 215.235 94.5345   1
  10  -4   6 172.608 36.1840   3
  10   4   6 155.416 61.8744   3
  11   4   6 4.19487 20.6639   3
 -11   4  -6-4.75969 29.4400   1
  11  -4   6 4.84833 7.76627   3
 -12   4  -6 73.8526 44.6751   1
  12   4   6 101.167 46.2948   3
  12  -4   6 105.589 20.0822   3
 -13   4  -6 726.202 171.542   1
  13   4   6 853.725 152.363   3
 -14   4  -6 292.893 108.068   1
  14   4   6 314.665 90.3884   3
 -15   4  -6-12.0026 52.8372   1
  15   4   6 6.69495 23.7501   3
 -16   4  -6 169.846 78.7709   1
  16   4   6 294.463 95.3697   3
 -17   4  -6 49.2281 45.9548   1
  17   4   6 130.334 60.6607   3
 -18   4  -6-111.951 76.4629   1
  18   4   6 32.2687 35.7948   3
 -19   4  -6-21.4297 36.2590   1
  19   4   6-31.6852 52.0502   3
 -20   4  -6 56.2219 57.2654   1
  20   4   6 32.9020 40.5402   3
 -21   4  -6 46.0078 53.7391   1
  21   4   6 90.7092 59.1031   3
 -22   4  -6 96.6437 89.0498   1
  22   4   6 37.9364 27.5798   3
 -23   4  -6 9.04225 40.6797   1
  23   4   6-33.8435 55.6129   3
 -24   4  -6-63.2121 66.9756   1
  24   4   6 22.8356 22.6868   3
  25   4   6 248.331 103.639   3
  26   4   6 343.507 125.647   3
 -22   5   6-18.7585 37.3650   1
 -21   5   6-15.0026 33.3110   1
 -20   5   6 204.671 113.201   1
 -19   5   6-33.3877 45.5075   1
 -18  -5   6 249.684 139.327   2
 -18   5   6 161.095 98.1947   1
 -17   5   6 118.939 78.1553   1
 -17  -5   6 186.610 140.102   2
 -16   5   6 48.1798 30.3234   1
 -16  -5   6 111.395 118.131   2
 -15  -5   6 39.8290 56.1674   2
 -15   5   6 126.103 78.3103   1
 -15   5   6 62.1483 17.8220   3
 -14   5   6 723.177 73.1865   3
 -14   5   6 743.623 183.162   1
  14   5  -6 906.278 177.196   3
 -14  -5   6 835.374 234.556   2
 -14  -5   6 781.263 139.951   1
 -13   5   6 427.220 60.8211   3
  13   5  -6 443.254 122.703   3
 -13   5   6 524.388 153.294   1
 -13  -5   6 520.762 178.697   2
 -13  -5   6 345.484 90.9655   1
 -12   5   6 126.916 76.1781   1
 -12  -5   6 46.5157 62.3094   2
  12   5  -6 152.718 70.8705   3
 -12   5   6 98.2650 30.8248   3
 -12  -5   6 58.5216 31.0487   1
 -11   5   6 344.602 125.438   1
 -11  -5   6 524.848 150.726   2
 -11   5   6 357.652 59.7494   3
  11   5  -6 411.735 116.052   3
 -11  -5   6 306.577 85.1989   1
 -10  -5   6 1778.64 266.091   2
 -10   5   6 1562.65 131.595   3
  10   5  -6 1699.44 226.607   3
 -10  -5   6 1356.92 181.213   1
 -10   5   6 1541.25 244.124   1
  -9  -5   6 10.8660 18.9537   2
   9   5  -6 40.7162 39.5982   3
  -9   5   6-16.4404 31.9420   1
  -9  -5   6 39.5105 39.1209   1
  -9   5   6-16.0322 12.9908   3
  -8  -5   6 94.5234 56.2506   2
  -8   5   6 59.6852 72.9234   1
  -8  -5   6 24.7461 17.4459   1
   8   5  -6 56.9417 37.6114   3
  -8   5   6 13.4154 17.1284   3
  -7  -5   6 143.491 65.8652   2
   7   5  -6 212.741 85.3994   3
  -7   5   6 110.946 40.1353   3
  -7   5   6 80.6426 49.8443   1
  -7  -5   6 75.9788 41.3277   1
   7  -5  -6-126.536 97.0779   2
  -6  -5   6 223.794 73.5660   2
  -6   5   6 173.667 42.3516   3
  -6   5   6 340.460 102.651   1
  -6  -5   6 306.588 87.8131   1
   6   5  -6 306.153 92.0808   3
   6  -5  -6 290.819 138.944   2
  -5  -5   6 110.708 34.2933   2
  -5  -5   6 96.3909 54.3972   1
   5  -5  -6 46.4914 48.8063   2
  -5   5   6 37.9228 19.4143   1
  -5   5   6 30.7219 13.9228   3
  -4  -5   6 140.458 55.9601   2
  -4  -5   6 192.877 71.9456   1
  -4   5   6 212.131 58.6561   3
  -4   5   6 194.161 69.8095   1
   4  -5  -6 133.565 91.4094   2
  -3  -5   6 281.131 70.8361   2
  -3  -5   6 276.594 86.4714   1
  -3   5   6 189.263 54.8576   3
   3  -5  -6 237.080 113.214   2
   3   5  -6 292.557 97.5244   1
   2   5  -6 27.6595 37.9827   1
   2  -5  -6 70.1081 59.2391   2
  -2  -5   6 34.6039 18.5508   3
  -2   5   6 1.04398 8.69066   3
  -2  -5   6 44.9526 24.8253   2
  -2  -5   6 24.6840 18.4573   1
   1  -5  -6 28.2785 26.0287   2
   1   5  -6 16.1751 31.8681   1
  -1   5   6 31.2213 15.8195   3
  -1  -5   6 78.0377 43.8533   1
  -1  -5   6 54.2945 42.4578   3
   0   5   6 51.6276 34.8499   3
   0  -5   6 16.7202 10.3278   1
   0   5  -6-13.8045 19.1940   1
   0  -5  -6 36.7884 48.4375   2
   0   5   6 13.1347 16.1976   1
   0  -5   6 48.3513 42.7872   3
  -1  -5  -6 1878.48 195.943   2
   1  -5   6 1880.38 240.772   1
   1  -5   6 1789.65 185.294   3
   1   5   6 1763.47 183.197   3
  -1   5  -6 1538.30 225.470   1
   1   5   6 1801.68 170.211   1
  -2  -5  -6 989.713 115.402   2
   2   5   6 951.602 139.999   3
   2  -5   6 1108.44 146.597   3
  -2   5  -6 1147.72 194.584   1
   2  -5   6 1020.99 180.846   1
   2   5   6 1192.85 128.434   1
  -3  -5  -6 22.9268 13.9880   2
   3   5   6 22.6474 20.4943   1
   3  -5   6 20.7098 27.9442   3
   3   5   6-9.30497 21.9446   3
  -3   5  -6-10.5461 34.5901   1
   4  -5   6 233.292 62.1360   3
  -4   5  -6 256.950 96.6247   1
   4   5   6 222.256 69.2918   3
   4   5   6 237.151 44.8797   1
   5  -5   6 227.383 57.1789   3
   5   5   6 259.572 35.5919   1
  -5   5  -6 340.521 111.440   1
   5   5   6 271.706 80.0991   3
  -6   5  -6 107.100 71.3113   1
   6  -5   6 164.118 46.1080   3
   6   5   6 133.932 56.4014   3
   7   5   6 289.518 88.9863   3
  -7   5  -6 270.231 102.868   1
   7  -5   6 305.419 63.3705   3
   8  -5   6 29.6720 14.7168   3
   8   5   6 43.0294 23.0132   3
  -9   5  -6 1173.34 220.425   1
   9   5   6 1308.38 188.077   3
   9  -5   6 1198.38 112.342   3
 -10   5  -6 149.445 78.8806   1
  10   5   6 88.3427 54.3739   3
  10  -5   6 68.5361 25.7366   3
  11  -5   6 564.280 60.6050   3
 -11   5  -6 590.565 161.868   1
  11   5   6 529.259 130.586   3
 -12   5  -6-46.1589 46.4585   1
  12   5   6 24.4748 38.8098   3
  12  -5   6 17.1214 9.44858   3
 -13   5  -6 17.5909 32.3571   1
  13   5   6-93.0867 54.2691   3
 -14   5  -6-1.14430 13.0071   1
  14   5   6-9.99696 36.0656   3
 -15   5  -6 12.1126 38.9640   1
  15   5   6 61.6148 53.5948   3
 -16   5  -6-1.86213 14.7404   1
  16   5   6 9.08389 44.9925   3
  17   5   6 55.7215 46.1052   3
 -17   5  -6-63.5965 59.9636   1
 -18   5  -6-74.3693 65.8615   1
  18   5   6 21.1667 30.0749   3
 -19   5  -6 60.8929 71.4324   1
  19   5   6 94.2863 71.7831   3
 -20   5  -6 34.1809 18.2840   1
  20   5   6 202.276 98.5719   3
 -21   5  -6 121.403 89.0942   1
  21   5   6 270.931 105.792   3
 -22   5  -6-48.7942 58.8832   1
  22   5   6 27.3680 27.4610   3
  23   5   6 127.685 84.9109   3
 -20   6   6 415.286 166.596   1
 -19   6   6 121.463 87.6491   1
 -18   6   6 166.572 100.261   1
 -17   6   6 173.174 95.0666   1
 -16   6   6 12.2851 28.1668   1
 -15   6   6 4.10536 48.2716   1
  14   6  -6 214.191 92.7469   3
 -14   6   6 76.5694 62.5516   1
 -14  -6   6 186.658 124.479   2
  13   6  -6 288.014 100.906   3
 -13  -6   6 267.330 139.733   2
 -13   6   6 338.545 124.174   1
 -12   6   6 38.9644 28.5490   3
 -12  -6   6 0.99024 42.9963   2
  12   6  -6 47.3753 51.4206   3
 -12   6   6 57.1395 51.4573   1
  11   6  -6 195.220 84.4247   3
 -11   6   6 85.9229 34.1272   3
 -11  -6   6 169.596 91.1824   2
 -11   6   6 128.502 75.1217   1
 -10  -6   6 933.631 153.643   1
 -10  -6   6 719.110 169.727   2
 -10   6   6 781.591 178.419   1
  10   6  -6 788.025 165.907   3
 -10   6   6 971.281 119.339   3
  -9   6   6 133.362 42.9394   3
  -9  -6   6 147.294 63.5266   1
  -9  -6   6 216.707 91.3092   2
  -9   6   6 280.182 100.894   1
   9   6  -6 193.052 83.7197   3
  -8  -6   6 67.1949 41.5793   1
  -8  -6   6 72.5909 49.1120   2
   8   6  -6 41.0649 27.7627   3
  -8   6   6 100.803 68.7738   1
  -8   6   6 80.3394 34.9549   3
  -7  -6   6 65.7186 54.5316   2
   7   6  -6 79.9679 57.0728   3
  -7   6   6 71.1903 57.3780   1
  -7   6   6 48.4532 27.4527   3
  -7  -6   6 34.5075 30.5073   1
  -6  -6   6 30.8795 32.7087   2
   6   6  -6 146.806 68.1338   3
  -6   6   6 42.0678 47.7155   1
  -6   6   6 100.340 39.2862   3
  -6  -6   6 138.816 61.0840   1
  -5  -6   6-4.37727 15.1329   2
  -5   6   6 30.4542 30.1522   3
   5  -6  -6-72.2497 72.8735   2
  -5   6   6 1.43989 14.0254   1
  -5  -6   6 28.5968 33.9525   1
  -4   6   6 189.987 64.1875   3
  -4  -6   6 206.228 69.2437   2
  -4  -6   6 127.193 62.2251   1
   4  -6  -6 175.709 120.181   2
  -4   6   6 232.163 82.7596   1
   4   6  -6 130.936 69.7978   1
  -3  -6   6-13.0141 18.2807   2
   3  -6  -6-89.5830 71.9934   2
   3   6  -6-15.0503 12.6039   1
  -3   6   6 4.01600 12.0600   1
  -3  -6   6-25.4505 35.4101   1
  -3   6   6-1.85942 22.1371   3
  -2  -6   6-5.38162 14.0864   1
   2   6  -6-1.91950 16.5894   1
  -2   6   6-3.37963 8.38119   3
   2  -6  -6-21.5617 34.7170   2
  -2   6   6-12.8773 31.2079   1
  -2  -6   6 3.97956 35.4593   2
   1  -6  -6 47.2772 45.0470   2
  -1   6   6 32.5544 29.1612   3
   1   6  -6 34.9022 12.6451   1
   0  -6  -6 664.472 147.925   2
   0   6  -6 554.620 145.693   1
   0   6   6 559.402 113.612   3
   1   6   6 500.783 96.2790   1
   1   6   6 497.385 108.379   3
  -1   6  -6 559.068 148.317   1
  -1  -6  -6 455.654 106.410   2
  -2   6  -6 73.0722 48.2874   1
   2   6   6 150.459 62.5937   3
  -2  -6  -6 100.759 38.9942   2
   2   6   6 106.320 37.6338   1
   3   6   6 171.292 45.3687   1
  -3  -6  -6 143.785 31.8419   2
   3  -6   6 158.221 53.7727   3
   3   6   6 170.360 62.8055   3
  -3   6  -6 182.626 85.6422   1
   4   6   6 8.39491 9.79794   1
  -4   6  -6 12.0731 41.1563   1
   4  -6   6 16.8256 14.3487   3
   4   6   6 2.91486 12.0317   3
  -5   6  -6 164.772 89.8604   1
   5   6   6 142.291 64.2877   3
   5  -6   6 133.744 50.4552   3
   6  -6   6-21.6065 20.5912   3
   6   6   6 14.6840 21.7766   3
  -6   6  -6-8.67890 30.9156   1
   7   6   6 331.319 100.553   3
  -7   6  -6 285.857 113.137   1
   7  -6   6 361.535 77.2448   3
  -8   6  -6-4.53411 16.7548   1
   8   6   6 20.0398 27.8942   3
   8  -6   6 47.7522 26.0113   3
  -9   6  -6 243.096 100.883   1
   9   6   6 378.813 110.479   3
 -10   6  -6-68.6779 57.9725   1
  10   6   6 55.5504 50.7033   3
 -11   6  -6 78.9218 62.7405   1
  11   6   6-25.6531 46.9788   3
  12   6   6 53.3342 39.7715   3
 -12   6  -6 84.3541 52.7617   1
  13   6   6 55.6938 55.5601   3
 -13   6  -6 59.3679 45.3997   1
 -14   6  -6 37.7844 80.8023   1
  14   6   6 51.1596 43.9019   3
 -15   6  -6 84.8836 64.2950   1
  15   6   6 92.4753 71.5796   3
 -16   6  -6 384.634 157.201   1
  16   6   6 24.5750 46.6080   3
 -17   6  -6 65.8919 64.7190   1
  17   6   6 67.4321 49.8640   3
 -18   6  -6 247.656 125.685   1
  18   6   6 24.2271 20.6547   3
  19   6   6 177.581 89.5696   3
 -19   6  -6 225.207 122.465   1
  20   6   6-152.714 84.8936   3
 -17   7   6 28.9922 44.0855   1
 -16   7   6 55.8412 58.9435   1
 -15   7   6 58.0135 43.2880   1
 -14   7   6 322.818 129.821   1
 -13   7   6 82.4399 65.7876   1
  12   7  -6 483.890 141.426   3
 -12   7   6 465.612 148.456   1
  11   7  -6 133.324 77.5194   3
 -11   7   6 67.5845 69.3510   1
 -10   7   6 79.4953 38.6461   3
  10   7  -6 94.2137 59.4817   3
 -10   7   6-2.63092 14.9257   1
  -9  -7   6-40.0226 41.4096   2
   9   7  -6 48.3069 56.0212   3
  -9   7   6 11.9255 13.8726   1
  -9   7   6 1.86419 9.78068   3
  -8  -7   6 15.2211 26.0784   2
  -8   7   6-4.24122 20.0361   3
  -8   7   6 14.6409 25.7367   1
  -7  -7   6 43.5396 39.0704   2
  -7   7   6 75.3616 51.8880   1
  -7   7   6 31.0944 27.3838   3
  -6  -7   6 131.792 58.3668   2
  -6   7   6 33.5555 33.1833   3
  -6   7   6 52.6456 38.1982   1
  -5  -7   6 76.3981 46.8638   2
  -5   7   6 137.832 55.7141   3
  -5   7   6 102.327 74.3080   1
  -4  -7   6 67.6451 51.4543   2
  -4   7   6 113.990 47.9893   3
  -4   7   6 135.746 64.7357   1
   4   7  -6 160.782 85.3395   1
  -3  -7   6 70.7639 43.5030   2
  -3   7   6 88.8372 51.5147   1
   3   7  -6 96.4107 62.4376   1
  -3   7   6 175.270 65.8415   3
  -2  -7   6 277.371 89.9683   2
  -2   7   6 366.499 98.9356   3
   2   7  -6 403.283 126.989   1
  -2   7   6 288.506 91.5011   1
  -1   7   6 72.7057 47.3644   3
   1   7  -6 68.5355 49.9326   1
  -1   7   6 102.138 50.9435   1
   0   7   6 130.435 60.4684   1
   0   7   6 162.430 68.6870   3
   1   7   6 270.341 88.4181   3
  -1   7  -6 326.753 121.354   1
  -2   7  -6-68.9450 55.1845   1
   2   7   6 51.9886 51.1780   3
  -3   7  -6 605.432 165.484   1
   3   7   6 564.481 95.4847   1
   3   7   6 599.074 138.416   3
   4   7   6 871.034 164.071   3
  -4   7  -6 1018.64 220.941   1
   5   7   6 150.051 65.5966   3
  -5   7  -6 30.9852 15.4889   1
   6   7   6 143.731 70.9735   3
  -6   7  -6 281.080 115.377   1
  -7   7  -6 10.6088 31.5390   1
   7   7   6-7.35215 15.9159   3
  -8   7  -6 123.246 74.3142   1
   8   7   6 59.4062 62.5487   3
  -9   7  -6 97.9179 71.9870   1
   9   7   6 95.3451 71.0957   3
 -10   7  -6 27.7122 81.6210   1
  10   7   6 9.46945 22.0735   3
 -11   7  -6 118.311 90.5012   1
  11   7   6 217.103 90.8967   3
  12   7   6 95.7219 75.3150   3
 -12   7  -6 194.550 112.811   1
 -13   7  -6-90.2852 73.9953   1
  13   7   6 0.48466 21.5704   3
 -14   7  -6 29.4195 29.1299   1
  14   7   6 0.16701 46.2869   3
  15   7   6 11.0646 43.1659   3
 -15   7  -6-67.9380 66.1964   1
 -16   7  -6 0.25880 38.5919   1
  16   7   6 20.4007 31.6043   3
 -15   8   6-24.2439 39.9759   1
 -14   8   6-21.8381 37.8342   1
 -13   8   6 14.5218 30.4515   1
 -12   8   6-101.451 74.2000   1
 -11   8   6 4.42664 36.1596   1
 -10   8   6 254.342 111.359   1
  -9   8   6-39.2669 43.5353   1
  -8   8   6 159.801 92.6178   1
  -7   8   6 29.3663 30.1013   3
  -7   8   6 26.3607 34.1602   1
  -6   8   6 90.9044 57.1896   3
  -6   8   6 46.2584 51.4681   1
  -5   8   6 226.856 77.9879   3
  -5   8   6 282.654 102.998   1
  -4   8   6 158.730 72.7009   1
  -4  -8   6 130.336 64.9512   2
  -4   8   6 305.706 86.3590   3
   4   8  -6 226.972 112.184   1
  -3   8   6-38.8990 37.0520   1
  -3  -8   6-30.5312 32.1446   2
   3   8  -6-22.8482 32.9809   1
  -3   8   6 57.2193 43.6576   3
  -2  -8   6 19.2876 18.4561   2
  -2   8   6-33.3204 32.9803   1
  -2   8   6 75.7475 57.7016   3
   2   8  -6 131.977 77.4377   1
  -1  -8   6 12.8471 38.1097   2
   1   8  -6-2.00202 15.5942   1
  -1   8   6 4.97525 13.7526   1
  -1   8   6-32.4311 41.0068   3
   0   8   6 448.817 120.671   3
   0   8  -6 421.474 143.336   1
  -1   8  -6 39.9909 44.9210   1
   1   8   6 106.651 54.0588   3
  -2   8  -6 93.0679 68.4029   1
   2   8   6 42.8510 14.4573   3
   3   8   6 42.4628 38.5877   3
  -3   8  -6 63.1177 61.2906   1
  -4   8  -6-108.243 75.4238   1
   4   8   6 3.75180 23.5444   3
  -5   8  -6 274.874 126.282   1
   5   8   6 264.179 105.123   3
   6   8   6 197.109 96.7825   3
  -6   8  -6 47.0911 52.9377   1
   7   8   6-10.0477 32.9198   3
  -7   8  -6-80.8302 67.8908   1
   8   8   6 325.474 119.682   3
  -8   8  -6 27.9596 34.7176   1
  -9   8  -6 35.5301 47.1293   1
   9   8   6-14.7320 27.1398   3
  10   8   6 413.512 133.534   3
 -10   8  -6 430.550 160.410   1
 -11   8  -6 1134.65 337.911   1
  11   8   6 22.2485 38.1207   3
 -12   8  -6 460.720 183.463   1
 -13   8  -6 153.518 102.207   1
 -11   9   6 58.8609 71.7085   1
 -10   9   6 26.5763 39.3507   1
  -9   9   6-24.6417 37.2700   1
  -8   9   6 193.049 98.0698   1
  -7   9   6 39.9826 44.1186   1
  -4   9   6 99.1260 53.2494   3
  -3   9   6-13.7352 23.3581   3
  -2   9   6-61.8691 46.8632   3
  -1   9   6-18.6432 34.8874   3
   0   9  -6 138.957 86.6016   1
   0   9   6 157.275 76.3369   3
   1   9   6-35.0011 37.2271   3
  -1   9  -6 73.0559 64.1541   1
   2   9   6 77.1029 55.4743   3
  -2   9  -6 68.9636 62.8273   1
  -3   9  -6 51.9902 55.5642   1
   3   9   6 122.476 69.9367   3
  -4   9  -6-79.3566 68.6651   1
   4   9   6 94.5691 61.2475   3
  -5   9  -6-30.9561 44.5053   1
   5   9   6 93.4477 61.5497   3
  -6   9  -6 51.0487 36.2707   1
   6   9   6-1.52211 31.7855   3
  -7   9  -6 6.41223 23.1890   1
  -8   9  -6 150.862 99.6303   1
  -9   9  -6-72.4978 70.2316   1
 -29   0   7 48.9631 59.2046   1
 -28   0   7 57.7192 60.7217   1
 -27   0   7-37.0617 28.6610   1
 -26   0   7-26.7340 81.9080   1
 -25   0   7 0.22712 65.1521   1
 -24   0   7-72.3743 64.5806   1
 -23   0   7 0.62488 18.9879   1
 -22   0   7-1.38891 35.9089   1
 -22   0   7-61.1619 151.594   2
 -21   0   7 29.0794 47.6013   1
 -21   0   7 104.314 128.902   2
 -20   0   7-32.5300 18.6697   1
 -20   0   7-39.5013 53.9690   2
 -19   0   7-4.05822 22.6889   1
 -19   0   7-31.6644 59.5577   2
 -19   0   7 22.2763 25.5844   3
 -18   0   7 206.951 136.916   2
 -18   0   7 140.463 90.8708   1
 -18   0   7 54.4792 35.1192   3
 -17   0   7-7.52336 14.9678   3
 -17   0   7 41.6994 107.728   2
 -17   0   7-23.1308 38.8207   1
 -16   0   7-34.0419 26.3086   3
 -16   0   7 21.9341 41.7294   2
 -15   0   7-29.7409 34.6233   3
 -15   0   7 32.5432 70.8396   2
 -14   0   7 185.223 141.820   2
 -13   0   7-101.980 109.378   2
  13   0  -7-15.1121 74.2626   2
  12   0  -7-48.1831 81.9307   2
 -12   0   7-46.3514 66.3368   2
  11   0  -7-4.95250 42.0036   2
 -11   0   7 9.64334 22.6550   3
 -11   0   7-19.3489 62.3048   2
  10   0  -7-20.8533 44.9268   2
   9   0  -7-44.3157 53.6461   2
   8   0  -7 18.1073 40.9391   2
   7   0  -7 28.4172 32.8657   2
   6   0  -7-6.69262 21.1760   2
   5   0  -7-13.3429 26.5606   2
   4   0  -7 14.2268 27.4871   2
   3   0  -7-12.9311 16.7592   2
   2   0  -7 15.3180 15.6020   2
   1   0  -7 15.9152 18.8957   2
   0   0   7 144.273 59.6929   1
   0   0  -7 121.290 41.3483   2
   1   0   7 3.64736 8.80000   1
   2   0   7 5.42655 11.8026   1
  -2   0  -7 42.3011 30.9843   1
   3   0   7 4.63688 5.80216   1
  -3   0  -7 18.2864 36.0173   1
  -4   0  -7 16.2007 16.9425   1
   4   0   7-12.6020 21.8791   1
   5   0   7 18.8638 25.7209   1
  -5   0  -7 12.2449 18.1056   1
   6   0   7 5.57938 22.5510   1
  -6   0  -7 26.5928 37.1994   1
  -7   0  -7 13.0018 17.2576   1
   7   0   7 3.30893 8.39848   1
   8   0   7-3.22825 23.1509   1
  -8   0  -7 9.67685 16.4042   1
  -9   0  -7 1.26869 23.5046   1
   9   0   7 2.67151 16.5400   1
 -10   0  -7-19.9861 14.9394   1
  10   0   7 4.77498 11.6258   1
  10   0   7 18.1145 21.3594   3
  11   0   7-61.0271 37.3893   1
 -11   0  -7-20.0175 32.9365   1
  11   0   7-2.13194 10.0273   3
  12   0   7-11.0554 34.9490   1
 -12   0  -7 22.0387 15.6763   1
  12   0   7 5.94682 15.2977   3
  13   0   7-15.1209 20.8164   1
 -13   0  -7-21.9144 29.4076   1
  13   0   7-11.2562 16.4541   3
  14   0   7 339.148 103.678   1
 -14   0  -7 436.451 110.991   1
  14   0   7 804.670 109.023   3
  15   0   7-69.1440 46.1725   1
 -15   0  -7 5.61244 16.1814   1
  15   0   7-4.82943 19.6798   3
  16   0   7 44.2050 29.5245   3
  16   0   7-2.41584 21.3099   1
 -16   0  -7 46.7834 39.5635   1
 -17   0  -7 8.36916 23.1971   1
  17   0   7 15.0041 23.4083   3
 -18   0  -7 7.54462 24.6560   1
  18   0   7 30.5405 26.4237   3
 -19   0  -7-2.47491 29.5339   1
  19   0   7-6.03152 17.2973   3
  20   0   7 2.89790 15.1680   3
 -20   0  -7-29.8895 34.5763   1
 -21   0  -7 51.5108 45.7936   1
  21   0   7 36.5041 29.6198   3
 -22   0  -7-8.21065 46.9971   1
  22   0   7-36.6126 37.3155   3
 -23   0  -7 72.3266 56.7398   1
 -24   0  -7 7.65803 21.5338   1
 -25   0  -7 6.72832 30.7340   1
 -26   0  -7-54.2474 53.6529   1
 -28  -1   7 57.2851 61.1072   1
 -28   1   7 86.7221 78.0753   1
 -27  -1   7 196.472 108.205   1
 -27   1   7 45.0730 55.5029   1
 -26  -1   7 29.2292 60.8097   1
 -26   1   7-15.8604 65.5505   1
 -25  -1   7 151.038 91.3163   1
 -25   1   7 286.334 133.992   1
 -24  -1   7 246.808 115.112   1
 -24   1   7 270.954 130.796   1
 -23  -1   7-4.70152 20.3994   1
 -23   1   7-10.1302 55.8676   1
 -23  -1   7 84.3932 43.9095   2
 -22   1   7 36.8865 46.1360   1
 -22  -1   7-1.68340 129.700   2
 -22  -1   7 0.56002 39.1661   1
 -21  -1   7 55.0814 45.5407   1
 -21   1   7-138.220 84.7770   1
 -21  -1   7-124.713 114.311   2
 -20  -1   7 316.938 114.200   1
 -20  -1   7 429.424 200.283   2
 -20   1   7 401.978 136.817   1
 -20   1   7 309.306 70.8818   3
 -20   1   7 433.978 208.316   2
 -19  -1   7 1254.25 342.824   2
 -19   1   7 1116.29 229.584   1
 -19   1   7 1260.22 372.567   2
 -19  -1   7 1513.41 252.458   1
 -18   1   7 759.709 277.989   2
 -18   1   7 832.566 190.726   1
 -18  -1   7 1053.50 323.734   2
 -17   1   7 538.107 150.922   1
 -17  -1   7 275.670 141.878   2
 -17   1   7 417.805 190.163   2
 -16   1   7 961.789 191.873   1
 -16  -1   7 1031.34 299.109   2
 -16  -1   7 806.158 128.052   3
 -16   1   7 964.877 288.503   2
 -15   1   7 545.532 212.668   2
 -15  -1   7 385.428 86.8641   3
 -15  -1   7 395.492 161.427   2
 -15   1   7 380.179 119.973   1
 -14   1   7 44.9035 35.0600   3
  14   1  -7 18.5373 56.6334   2
 -14  -1   7 39.5503 109.956   2
 -14  -1   7-1.20269 21.5571   3
 -14   1   7 140.480 125.279   2
 -13   1   7 363.753 72.3704   3
  13   1  -7 291.959 116.974   2
 -13  -1   7 324.688 138.280   2
 -13  -1   7 303.166 71.2181   3
 -13   1   7 262.608 143.261   2
  12   1  -7 44.5348 62.7033   2
 -12  -1   7 98.1846 90.5742   2
 -12  -1   7 22.7155 33.4795   3
  11   1  -7 3600.57 342.552   2
 -11  -1   7 4016.88 489.915   2
  11  -1  -7 3682.98 432.373   2
  10   1  -7 11.1940 21.4331   2
  10  -1  -7 65.9521 67.5998   2
 -10  -1   7 30.0414 22.6455   2
   9   1  -7-7.11635 26.7281   2
   9  -1  -7 22.9887 29.0806   2
  -9  -1   7-7.73265 24.6984   2
   8   1  -7 408.921 101.081   2
   8  -1  -7 372.279 113.912   2
  -8  -1   7 515.066 150.500   2
   7   1  -7 3213.53 258.194   2
   7  -1  -7 3290.01 329.471   2
   6   1  -7 150.163 55.9897   2
   6  -1  -7 71.1504 46.4708   2
   5  -1  -7 4363.99 338.023   2
   5   1  -7 4527.21 275.413   2
   4  -1  -7 587.785 115.423   2
   4   1  -7 595.231 93.3728   2
   3   1  -7 40.3748 21.6092   2
  -3  -1   7 62.4812 34.4116   1
   3  -1  -7 60.2200 34.9371   2
  -2  -1   7 61.0040 40.5134   1
   2   1  -7 90.0786 30.7458   2
   2  -1  -7 133.927 52.1355   2
  -1  -1   7 13818.3 514.174   1
   1  -1  -7 13361.6 421.374   2
   0  -1   7 1056.41 141.172   1
   0  -1  -7 1083.87 110.690   2
   1   1   7 1964.19 162.472   2
   1  -1   7 1922.28 190.703   1
  -1  -1  -7 1807.34 130.033   2
   2   1   7 746.978 107.056   1
   2  -1   7 858.784 128.492   1
   2   1   7 711.008 91.6663   2
   3  -1   7 655.648 113.365   1
   3   1   7 667.550 82.2941   2
   3   1   7 665.826 97.4366   1
   4   1   7 76.2632 30.1512   2
   4   1   7 84.9000 33.0769   1
   4  -1   7 63.1548 36.1452   1
  -5  -1  -7 3876.65 242.948   1
   5  -1   7 4083.49 289.214   1
   5   1   7 3936.75 234.246   1
   6  -1   7 384.720 89.4509   1
   6   1   7 437.333 78.8640   1
  -6   1  -7 453.036 98.6371   1
  -6  -1  -7 430.290 81.5847   1
   7   1   7 3.92417 13.9089   1
  -7   1  -7-12.8909 22.6540   1
  -7  -1  -7 10.7233 13.6074   1
   7  -1   7 6.52712 5.89260   1
   8  -1   7 737.615 129.947   1
   8   1   7 764.333 105.592   1
  -8   1  -7 605.886 119.741   1
   8   1   7 730.223 103.922   3
  -8  -1  -7 644.482 103.491   1
   9   1   7 2129.72 182.974   1
   9  -1   7 2176.01 231.478   1
  -9   1  -7 2023.13 223.043   1
  -9  -1  -7 2135.35 190.490   1
   9   1   7 2203.96 178.874   3
 -10  -1  -7 176.517 54.8020   1
 -10   1  -7 167.746 65.7075   1
  10   1   7 97.7509 39.0477   1
  10  -1   7 151.019 61.5715   1
  10   1   7 174.489 48.5146   3
 -11   1  -7 234.671 85.8890   1
  11   1   7 126.753 48.0395   1
  11  -1   7 182.942 69.3656   1
 -11  -1  -7 165.812 56.8626   1
  11   1   7 244.099 61.9127   3
 -12  -1  -7 119.400 51.5156   1
 -12   1  -7 72.9826 41.2160   1
  12   1   7 124.587 52.1303   1
  12  -1   7 77.2437 46.5322   1
  12   1   7 74.6874 33.4582   3
  12  -1   7 106.381 38.2757   3
  13   1   7 261.544 77.5681   1
 -13   1  -7 233.693 82.2596   1
  13  -1   7 254.957 94.5981   1
 -13  -1  -7 226.602 70.1552   1
  13  -1   7 257.597 54.7713   3
  13   1   7 252.399 62.4351   3
 -14   1  -7 1676.88 233.303   1
 -14  -1  -7 1678.79 195.545   1
  14   1   7 1668.03 166.472   3
  14  -1   7 1854.30 144.014   3
  14   1   7 1726.67 202.549   1
  14  -1   7 1964.23 262.451   1
  15   1   7 50.6386 33.2098   1
 -15   1  -7 116.448 71.3110   1
 -15  -1  -7 94.9415 43.8351   1
  15   1   7 124.833 85.6192   2
  15  -1   7 88.1765 28.4315   3
  15   1   7 107.904 37.4322   3
  16   1   7 371.610 98.1823   1
 -16   1  -7 418.035 116.672   1
  16  -1   7 378.092 66.0222   3
 -16  -1  -7 366.437 94.3268   1
  16   1   7 402.555 91.2294   3
  16   1   7 379.892 152.835   2
  17   1   7 309.847 97.9634   1
  17  -1   7 324.968 66.9972   3
 -17   1  -7 328.245 108.226   1
 -17  -1  -7 318.647 93.4877   1
  17   1   7 234.401 70.0187   3
  17   1   7 297.103 139.168   2
  18   1   7 42.9362 36.2232   1
 -18   1  -7 76.4080 55.3129   1
 -18  -1  -7-9.94212 24.3223   1
  18  -1   7-3.76315 12.7036   3
  18   1   7-24.6998 23.9184   3
 -19   1  -7 15.2751 27.0352   1
 -19  -1  -7 16.4386 36.3318   1
  19  -1   7 0.37657 7.79893   3
  19   1   7-7.91873 23.8778   3
 -20   1  -7 155.740 76.8526   1
 -20  -1  -7 127.482 66.7121   1
  20  -1   7 41.4317 24.4042   3
  20   1   7 78.9258 44.2193   3
  21   1   7 128.132 58.1232   3
 -21   1  -7 133.607 57.1696   1
 -21  -1  -7 57.8586 44.7858   1
 -22  -1  -7 20.4382 16.3105   1
  22   1   7 58.6569 54.7399   3
 -23   1  -7 40.7188 53.4228   1
  23   1   7-20.9027 45.9639   3
 -23  -1  -7-35.1080 37.4038   1
 -24   1  -7 75.4604 66.0787   1
 -24  -1  -7 67.8036 50.7820   1
  24   1   7 16.7484 15.6903   3
 -25   1  -7 84.1288 50.4297   1
 -26   1  -7 53.2084 55.8688   1
 -27   1  -7-28.4115 42.7715   1
 -28   1  -7 172.511 102.918   1
 -27   2   7-139.132 99.5740   1
 -26  -2   7-16.4666 32.5279   1
 -26   2   7 17.2906 38.9599   1
 -25  -2   7 120.546 81.7332   1
 -25   2   7 75.7088 63.9260   1
 -24  -2   7-2.68995 16.9133   1
 -24  -2   7 97.6047 43.8607   2
 -24   2   7-5.87819 30.3697   1
 -23  -2   7 228.494 103.798   1
 -23   2   7 203.394 107.572   1
 -23  -2   7 278.208 175.359   2
 -22  -2   7 84.7176 62.4568   1
 -22   2   7 4.02423 44.4067   1
 -22  -2   7-89.5626 99.1338   2
 -21  -2   7 1.99341 15.4862   1
 -21   2   7-46.4370 71.1654   1
 -21  -2   7 74.0729 113.682   2
 -20   2   7-7.74340 32.3735   1
 -20  -2   7-1.48651 122.793   2
 -20  -2   7 26.7195 37.1648   1
 -19   2   7 92.7047 68.9511   1
 -19   2   7 58.6410 28.3247   3
 -19  -2   7 40.7222 39.5605   2
 -18   2   7 1063.14 227.314   1
 -18   2   7 1158.05 120.183   3
 -18  -2   7 1501.32 383.192   2
 -18   2   7 1276.83 358.892   2
 -17   2   7 1406.47 134.665   3
 -17  -2   7 1404.93 369.248   2
 -17   2   7 1434.99 379.495   2
 -17   2   7 1448.01 258.647   1
 -16   2   7 732.422 252.650   2
 -16   2   7 601.592 164.060   1
 -16   2   7 587.174 86.6409   3
 -16  -2   7 759.624 251.107   2
 -15   2   7 697.013 166.951   1
 -15   2   7 751.467 99.2887   3
 -15  -2   7 963.900 272.889   2
 -15   2   7 790.817 271.102   2
 -14   2   7 103.724 63.4645   1
  14   2  -7 203.326 86.2132   2
 -14  -2   7 375.284 160.588   2
 -14   2   7 165.888 117.725   2
 -13   2   7 468.769 127.784   1
  13   2  -7 404.201 113.079   2
 -13  -2   7 511.499 169.569   2
 -13   2   7 331.528 149.094   2
  12   2  -7 30.7548 19.2243   2
 -12  -2   7-52.0125 36.6345   2
 -12  -2   7 10.8533 18.2079   3
 -12   2   7 44.9100 42.4069   1
  11   2  -7 139.297 68.5406   2
 -11  -2   7 173.377 131.894   2
  11  -2  -7 151.400 85.5272   2
 -11  -2   7 94.7802 40.9406   3
  10   2  -7 382.957 97.0950   2
 -10  -2   7 427.637 155.436   2
  10  -2  -7 457.048 155.662   2
   9   2  -7-32.5741 24.7306   2
  -9  -2   7 78.0745 54.6113   2
   9  -2  -7 1.18781 16.3152   2
  -8  -2   7 714.290 159.663   2
   8  -2  -7 878.160 200.599   2
   8   2  -7 681.507 115.907   2
   7   2  -7 331.578 75.6691   2
  -7  -2   7 264.278 88.4227   2
   7  -2  -7 353.297 127.215   2
  -6  -2   7 425.620 101.173   1
   6   2  -7 267.090 71.8526   2
  -6  -2   7 450.998 110.935   2
   6  -2  -7 345.902 111.286   2
  -5  -2   7 2507.22 241.241   2
   5  -2  -7 2508.54 287.354   2
  -5  -2   7 2092.99 218.070   1
   5   2  -7 2297.17 181.772   2
  -4  -2   7 663.935 113.027   2
  -4  -2   7 447.477 98.5534   1
   4  -2  -7 443.437 108.936   2
  -4   2   7 523.450 152.343   2
   4   2  -7 611.811 92.4284   2
  -3   2   7 1289.04 224.548   2
  -3  -2   7 1213.01 160.230   1
   3  -2  -7 1343.35 176.294   2
  -3  -2   7 1283.83 152.726   2
   2  -2  -7 194.566 65.2576   2
  -2  -2   7 289.780 79.0428   1
  -2   2   7 236.862 94.9194   2
  -1   2   7 1331.10 195.724   2
  -1  -2   7 1485.99 178.527   1
   1  -2  -7 1434.89 152.504   2
   0  -2  -7 30.8723 28.0582   2
   0   2   7 22.3970 19.8418   2
   0  -2   7-9.35787 13.2788   1
   1   2   7 7498.93 376.389   2
  -1  -2  -7 7344.28 274.087   2
   1  -2   7 7732.08 411.838   1
   2   2   7 2167.98 181.947   2
   2  -2   7 2186.28 222.105   1
  -2  -2  -7 2232.38 133.724   2
   3   2   7 3103.97 197.295   2
   3   2   7 3104.56 203.290   1
   3  -2   7 3205.16 270.865   1
   4  -2   7 81.1145 45.8024   1
   4   2   7 103.620 37.7490   2
   4   2   7 53.8698 24.0493   1
   5  -2   7 1543.93 193.940   1
   5   2   7 1445.94 127.478   1
   5   2   7 1421.76 144.152   3
   5   2   7 1338.53 108.822   2
   6   2   7 170.674 35.2805   2
   6   2   7 193.376 45.4099   1
   6   2   7 179.740 59.8587   3
   6  -2   7 222.453 76.7478   1
   7   2   7 5.97481 9.37578   2
   7   2   7 3.66717 11.0271   1
   7  -2   7-18.6535 27.8224   1
   7   2   7-1.91283 11.5063   3
   8  -2   7 3211.79 299.863   1
   8   2   7 3202.20 182.163   1
   8   2   7 3159.01 230.026   3
   9  -2   7 211.137 80.1503   1
  -9  -2  -7 192.342 51.3704   1
  -9   2  -7 165.541 69.5935   1
   9   2   7 264.610 53.2648   1
   9   2   7 243.500 64.3128   3
 -10  -2  -7 115.206 39.4044   1
 -10   2  -7 157.692 66.1550   1
  10   2   7 117.422 39.5033   1
  10  -2   7 118.023 60.5558   1
  10   2   7 120.820 46.4779   3
  11   2   7 140.949 43.2510   1
  11  -2   7 148.382 65.8575   1
 -11   2  -7 39.9860 40.2759   1
 -11  -2  -7 158.724 50.1688   1
  11   2   7 160.710 55.1569   3
  12   2   7 345.276 69.7580   1
 -12   2  -7 323.746 104.454   1
 -12  -2  -7 323.743 72.1602   1
  12   2   7 362.342 82.3087   3
  13   2   7 389.862 80.1787   1
 -13  -2  -7 470.282 89.5667   1
 -13   2  -7 386.949 121.893   1
  13   2   7 347.606 84.6005   3
  13  -2   7 483.760 64.5713   3
  13   2   7 347.074 108.761   2
  14   2   7-45.0983 27.9584   1
 -14  -2  -7-10.2025 14.6917   1
  14  -2   7-16.6900 12.1508   3
 -14   2  -7 2.33177 14.4945   1
  14   2   7 7.44728 47.5236   2
  14   2   7 13.2288 19.4699   3
 -15   2  -7 869.624 180.420   1
  15   2   7 943.568 146.370   3
 -15  -2  -7 870.405 129.181   1
  15  -2   7 809.748 78.4944   3
  15   2   7 851.877 202.884   2
  15   2   7 886.461 128.252   1
 -16   2  -7 411.033 128.477   1
  16  -2   7 526.507 65.6778   3
  16   2   7 440.226 151.029   2
  16   2   7 437.883 102.889   3
 -16  -2  -7 494.288 98.3472   1
 -17  -2  -7 36.3004 36.0897   1
 -17   2  -7 19.1827 45.9889   1
  17  -2   7 20.8396 14.1869   3
  17   2   7 71.9253 24.0809   2
  17   2   7 16.2571 29.6898   3
 -18  -2  -7 48.8990 33.9098   1
 -18   2  -7 52.0777 46.9286   1
  18   2   7 45.1414 31.5497   3
  18   2   7 28.0154 45.0978   2
  18  -2   7 46.7797 17.9618   3
  19   2   7 400.922 102.496   3
 -19  -2  -7 349.834 92.7440   1
 -19   2  -7 247.938 105.999   1
 -20  -2  -7 94.5649 44.1270   1
  20   2   7 188.312 76.2669   3
 -20   2  -7 153.522 69.7750   1
 -21   2  -7 9.41619 23.2451   1
  21   2   7 101.283 54.4700   3
 -21  -2  -7 40.9359 41.4088   1
 -22   2  -7-76.5697 63.5468   1
  22   2   7-5.64635 17.8541   3
 -23   2  -7-127.297 83.3132   1
  23   2   7 110.584 103.661   3
 -24   2  -7-82.0369 69.2702   1
  24   2   7-33.5083 34.2647   3
 -25   2  -7 29.8527 44.0777   1
  25   2   7 3.05351 14.1935   3
 -26   2  -7 10.6486 30.0532   1
 -27   2  -7 349.639 150.164   1
 -25   3   7-52.5017 61.7423   1
 -24  -3   7 17.2867 30.0355   1
 -24   3   7 0.25932 37.2743   1
 -23  -3   7 48.5592 46.7476   1
 -23   3   7 189.555 122.521   1
 -23  -3   7-162.439 98.7506   2
 -22  -3   7-46.7261 44.7598   1
 -22   3   7 60.8844 61.8958   1
 -22  -3   7 111.127 107.235   2
 -21  -3   7 60.1373 49.3499   1
 -21   3   7 78.6465 68.7332   1
 -21  -3   7 20.0869 52.1472   2
 -20   3   7 148.204 90.9713   1
 -20  -3   7 257.452 157.531   2
 -19   3   7 28.7041 36.3480   1
 -19  -3   7 12.8662 26.1744   2
 -18   3   7 298.718 119.445   1
 -18   3   7 264.566 46.7153   3
 -18  -3   7 459.836 202.848   2
 -17   3   7 1006.31 222.919   1
 -17   3   7 815.755 88.9764   3
 -17  -3   7 1043.08 298.227   2
 -16   3   7 90.4875 67.1904   1
 -16   3   7 117.499 34.1271   3
 -16  -3   7 0.94986 61.2243   2
  15   3  -7 152.662 65.3350   2
 -15   3   7 119.760 76.3895   1
 -15  -3   7 17.3216 34.3900   2
  14   3  -7 51.5376 32.4958   2
 -14   3   7 94.7057 67.7476   1
 -14  -3   7 100.813 174.936   2
 -14   3   7 25.2782 41.2282   2
 -13   3   7 845.597 182.260   1
  13   3  -7 723.491 134.963   2
 -13  -3   7 1043.87 256.407   2
 -13   3   7 710.492 232.412   2
 -12   3   7 12.5783 24.4754   1
  12   3  -7 146.929 58.2893   2
 -12  -3   7 74.3843 45.5585   2
 -12   3   7 13.2721 45.4875   2
 -11   3   7 679.573 157.896   1
  11   3  -7 499.349 101.140   2
 -11  -3   7 610.056 129.791   1
 -11  -3   7 702.481 187.389   2
 -11   3   7 554.207 196.416   2
 -10   3   7 66.0268 58.3224   1
  10   3  -7 22.0437 22.5096   2
 -10  -3   7 38.2066 39.9079   2
  10  -3  -7 54.2648 66.4900   2
 -10  -3   7 99.7175 50.9032   1
 -10   3   7 24.9480 43.3682   2
  -9   3   7 47.7297 40.6875   1
   9   3  -7 6.21258 12.3936   2
  -9  -3   7 13.2245 44.1557   2
   9  -3  -7 60.9271 75.9939   2
  -9   3   7-46.9754 75.2640   2
  -9  -3   7 19.6166 31.5854   1
   8   3  -7 32.4646 32.2101   2
  -8   3   7 53.5903 52.6217   1
  -8  -3   7 22.6731 24.0491   2
  -8  -3   7 4.45938 25.1955   1
   8  -3  -7 77.6886 105.567   2
  -8   3   7-36.7642 47.8290   2
  -7  -3   7 1805.39 232.637   2
   7  -3  -7 2069.95 327.765   2
  -7  -3   7 1946.48 217.855   1
  -7   3   7 1828.77 226.862   1
  -6  -3   7 1.72038 14.5490   2
  -6  -3   7 27.4485 21.6021   1
   6  -3  -7 91.8529 77.0867   2
   5  -3  -7 826.487 189.334   2
  -5  -3   7 843.503 140.574   1
  -5  -3   7 817.718 135.828   2
  -4  -3   7 24.8659 22.0261   2
  -4  -3   7 45.0455 36.2386   1
   4  -3  -7 39.8417 52.0327   2
  -4   3   7 84.0756 65.3743   2
  -3  -3   7 434.275 90.0069   2
   3  -3  -7 457.208 120.128   2
  -3  -3   7 389.882 80.0043   3
  -3   3   7 444.090 133.551   2
  -3  -3   7 457.219 104.641   1
   2  -3  -7 706.480 135.902   2
  -2  -3   7 956.270 150.842   1
  -2  -3   7 713.511 108.893   3
  -2   3   7 802.075 179.076   2
  -2  -3   7 802.012 116.899   2
   1  -3  -7 1559.90 181.660   2
  -1   3   7 1886.29 259.196   2
  -1  -3   7 1826.57 210.668   1
  -1  -3   7 1914.23 172.939   3
  -1  -3   7 2128.36 187.150   2
   0  -3  -7 166.060 48.7808   2
   0  -3   7 263.572 79.0705   1
   0  -3   7 289.173 71.3535   3
   0   3   7 218.782 86.7955   2
   0   3   7 245.353 67.8128   3
  -1  -3  -7 2357.50 169.559   2
   1   3   7 2634.92 268.279   2
   1  -3   7 2600.39 256.245   1
   1  -3   7 2404.41 184.673   3
   1   3   7 2563.89 195.492   3
   2  -3   7 1530.80 199.672   1
   2  -3   7 1360.84 136.880   3
   2   3   7 1511.57 154.612   3
   2   3   7 1692.36 198.699   2
  -2  -3  -7 1462.71 112.966   2
   3  -3   7-18.2656 22.2750   1
   3  -3   7-6.18655 19.5738   3
   3   3   7 1.17721 18.9714   2
   3   3   7-7.31429 16.5564   3
  -3  -3  -7-3.52771 9.59587   2
   4  -3   7 36.0938 32.4910   1
   4   3   7 79.6686 33.2471   1
   4  -3   7 70.0737 30.4989   3
   4   3   7 62.0256 35.0975   2
   4   3   7 66.5338 35.2533   3
   5   3   7 185.239 46.9891   2
   5   3   7 223.722 44.8399   1
   5  -3   7 227.597 54.4153   3
   5   3   7 283.070 69.5662   3
   5  -3   7 254.797 83.0042   1
   6  -3   7 47.2153 42.9226   1
   6   3   7 65.3001 26.2236   2
   6   3   7 63.7731 21.2159   1
   6   3   7 61.3234 31.9472   3
   7   3   7 21.1372 9.38273   2
   7  -3   7 6.26949 16.7739   1
   7   3   7 29.8354 25.0993   3
   7   3   7 41.4094 15.6792   1
   8   3   7 196.343 36.0086   2
   8  -3   7 230.515 86.9222   1
   8   3   7 297.744 74.6888   3
   8   3   7 201.220 31.4734   1
   9   3   7-0.77102 5.42067   2
   9   3   7 4.53366 5.52884   1
   9   3   7 7.69199 11.7094   2
  -9   3  -7-7.78986 17.2232   1
   9   3   7 0.95342 16.3837   3
  10   3   7 35.8681 18.9873   2
  10   3   7 11.2133 7.67391   1
  10   3   7-13.4268 15.1207   2
 -10   3  -7-41.4536 44.3968   1
  10   3   7 29.6256 19.4972   3
  11   3   7 766.470 121.325   2
 -11   3  -7 749.855 164.434   1
  11   3   7 724.488 121.775   3
  11   3   7 762.449 68.7383   2
 -12   3  -7 236.180 110.601   1
  12   3   7 38.0158 30.1603   2
  12   3   7 66.7593 39.3200   3
 -13   3  -7 389.065 123.607   1
  13   3   7 444.920 106.446   2
  13  -3   7 373.667 49.0167   3
  13   3   7 320.126 88.0250   3
 -14   3  -7 681.509 163.452   1
  14  -3   7 709.809 62.9589   3
  14   3   7 790.450 139.761   3
  14   3   7 810.705 156.025   2
  14  -3   7 645.174 56.9457   3
 -15  -3  -7 361.406 62.6479   1
 -15   3  -7 266.451 105.187   1
  15  -3   7 312.191 35.6823   3
  15  -3   7 316.056 34.0428   3
  15   3   7 366.619 106.112   2
  15   3   7 431.602 105.607   3
 -16   3  -7 238.341 103.117   1
 -16  -3  -7 285.996 57.5478   1
  16   3   7 461.531 130.744   2
  16   3   7 438.008 110.011   3
 -17  -3  -7 274.830 60.3621   1
 -17   3  -7 212.375 97.6022   1
  17   3   7 223.899 99.7097   2
  17   3   7 347.516 100.096   3
 -18  -3  -7-4.96301 11.3071   1
  18   3   7 8.70992 35.5725   3
 -18   3  -7-39.6084 44.7654   1
 -19   3  -7 121.230 70.3337   1
  19   3   7 72.0055 37.2175   3
 -20   3  -7-23.0096 36.9992   1
  20   3   7 88.1980 47.6894   3
 -21   3  -7 5.32645 22.0691   1
  21   3   7 66.0378 60.7369   3
 -22   3  -7-48.5704 53.8208   1
  22   3   7 8.99024 24.1017   3
 -23   3  -7 18.6401 37.2711   1
  23   3   7 91.4908 63.1312   3
 -24   3  -7-89.3875 75.9037   1
  24   3   7-46.0174 36.3554   3
 -25   3  -7 24.9333 37.2120   1
  25   3   7 8.31138 17.3105   3
  26   3   7 134.219 41.5214   3
 -24   4   7-7.95834 27.0998   1
 -23   4   7 230.816 124.378   1
 -22   4   7 50.7827 57.6538   1
 -22  -4   7 83.9877 92.0750   2
 -21  -4   7 228.902 100.364   1
 -21   4   7 237.795 120.986   1
 -21  -4   7 245.401 151.307   2
 -20   4   7 1128.22 263.612   1
 -20  -4   7 989.330 299.086   2
 -19   4   7 329.028 136.904   1
 -19  -4   7 300.727 177.702   2
 -18   4   7 992.183 234.907   1
 -18  -4   7 1335.57 331.773   2
 -17   4   7 148.747 78.0728   1
 -17  -4   7 263.873 164.456   2
 -17   4   7 193.548 34.9471   3
 -16  -4   7 15.4144 22.7032   1
 -16   4   7 41.6130 27.6386   1
 -16  -4   7-0.62169 101.981   2
 -16   4   7 15.7751 11.7878   3
  15   4  -7-19.6255 11.4910   2
 -15   4   7 50.5945 49.6544   1
 -15  -4   7 120.778 104.816   2
 -15   4   7 106.485 30.0700   3
 -15  -4   7 45.3487 36.9588   1
  14   4  -7 24.8605 16.0752   2
 -14   4   7 9.03794 42.6760   1
 -14  -4   7 72.8500 85.8709   2
 -14  -4   7 72.2314 45.8014   1
 -14   4   7 43.2244 16.5423   3
  13   4  -7 35.0769 25.4688   2
 -13   4   7 45.7963 54.2730   1
 -13  -4   7 25.1684 27.0898   1
 -13  -4   7 43.8988 24.6823   2
 -13   4   7 10.0173 13.7768   3
  12   4  -7 28.8441 21.7769   2
 -12   4   7 114.309 75.4680   1
 -12  -4   7 63.7915 62.6920   2
 -12   4   7 67.1855 28.1886   3
 -12  -4   7 39.5076 34.5098   1
 -11   4   7 0.44376 37.8029   1
 -11  -4   7 130.623 89.0586   2
 -11  -4   7 3.42106 11.4686   1
 -11   4   7 20.0484 13.6853   3
 -10   4   7 127.696 64.0464   1
 -10  -4   7 43.5883 39.4223   2
 -10  -4   7 45.0673 34.5325   1
 -10   4   7 113.038 37.6745   3
  -9   4   7 21.6387 33.1965   1
  -9  -4   7 18.5604 39.4558   2
  -9  -4   7 14.7627 37.6316   1
  -9   4   7 11.9519 21.7664   3
  -8   4   7 112.753 60.9212   1
  -8  -4   7 74.2832 40.5377   1
  -8  -4   7 95.9968 30.9583   2
   8  -4  -7 24.0394 63.0891   2
  -8   4   7 145.780 47.4158   3
  -7  -4   7 225.747 76.8336   1
  -7   4   7 291.193 96.4848   1
  -7  -4   7 311.106 99.9557   2
   7  -4  -7 122.317 73.3039   2
  -7   4   7 255.372 59.2562   3
  -6   4   7 155.020 67.1880   1
  -6  -4   7 170.847 72.0289   2
  -6   4   7 151.158 47.7254   3
   6  -4  -7 71.6488 78.1200   2
  -6  -4   7 157.367 62.5212   1
  -6   4   7 163.226 94.9821   2
  -5   4   7 245.464 87.9687   1
  -5  -4   7 275.509 88.6283   2
   5  -4  -7 305.159 122.479   2
  -5  -4   7 126.242 50.9930   3
  -5  -4   7 223.878 76.0803   1
  -5   4   7 213.936 54.9483   3
  -4  -4   7-4.91394 16.4382   2
   4  -4  -7 27.1138 67.1626   2
  -4  -4   7 14.0065 22.0651   1
  -4  -4   7 7.05237 22.9278   3
  -4   4   7 42.0835 33.0343   3
  -3  -4   7 154.228 50.8077   2
   3  -4  -7 200.426 94.2016   2
  -3  -4   7 73.9091 43.6574   1
  -3  -4   7 73.4989 30.3955   3
  -3   4   7 135.395 48.5111   3
  -3   4   7 76.0547 50.7792   2
  -2  -4   7 47.3972 35.5096   1
   2  -4  -7 46.9140 16.3587   2
  -2  -4   7-5.28534 25.6444   3
  -2  -4   7-12.0329 15.4107   2
  -2   4   7-4.46209 25.2017   2
  -2   4   7 34.1969 32.4652   3
   1   4  -7 121.639 58.9184   1
  -1   4   7 138.840 50.9579   1
  -1   4   7 77.1385 36.6690   3
  -1  -4   7 111.016 57.2034   1
   1  -4  -7 18.2240 17.4857   2
  -1  -4   7 135.330 45.6630   3
  -1   4   7 63.6033 47.1204   2
   0   4   7 59.8556 36.6608   1
   0  -4   7 33.6074 25.7145   1
   0  -4  -7 71.6314 37.2412   2
   0   4   7 50.7610 26.3203   3
   0  -4   7 9.90609 13.8576   3
   0   4  -7 36.1711 40.3233   1
   1   4   7 34.1195 28.1130   1
   1  -4   7 56.8706 44.5602   1
  -1  -4  -7 66.0986 34.4722   2
   1   4   7 52.5577 34.9216   3
  -1   4  -7 55.8103 14.3690   1
   1  -4   7 60.4537 31.1070   3
   2  -4   7-11.0016 17.9804   1
   2   4   7-0.66677 7.01777   1
  -2   4  -7 2.35848 17.1236   1
  -2  -4  -7 21.6803 24.5226   2
   2  -4   7 4.04412 12.9541   3
   2   4   7 13.2618 22.3650   3
  -3   4  -7 176.292 67.3877   1
   3   4   7 226.135 50.0727   1
   3  -4   7 290.168 66.5727   3
   3   4   7 178.920 53.8680   3
   3  -4   7 127.765 67.1644   1
  -3  -4  -7 291.321 42.3017   2
   4   4   7 2.65398 5.63658   1
   4  -4   7 15.2496 8.62820   3
   4  -4   7-9.67434 23.3489   1
   4   4   7-16.8253 21.0236   3
  -4   4  -7-0.36993 23.2669   1
   5  -4   7 728.427 102.333   3
   5   4   7 854.980 129.028   3
  -5   4  -7 735.049 153.513   1
   5   4   7 663.112 66.3438   1
   5   4   7 730.064 74.9411   1
   6  -4   7 265.270 58.6369   3
  -6   4  -7 222.791 83.5390   1
   6   4   7 176.375 61.3930   3
   7  -4   7 194.648 48.9238   3
  -7   4  -7 95.2571 56.3528   1
   7   4   7 151.130 53.8390   3
   8  -4   7 750.873 91.1567   3
  -8   4  -7 735.942 164.619   1
   8   4   7 786.502 130.630   3
   9   4   7 431.489 97.7027   3
  -9   4  -7 364.349 120.405   1
   9  -4   7 404.182 64.4187   3
 -10   4  -7 199.011 91.2829   1
  10  -4   7 241.219 46.5422   3
  10   4   7 179.770 67.0971   3
  11   4   7 376.196 97.4855   3
 -11   4  -7 419.398 130.569   1
  11  -4   7 479.369 60.6948   3
 -12   4  -7 340.303 113.844   1
  12  -4   7 402.096 51.5285   3
  12   4   7 423.677 109.659   3
 -13   4  -7 389.669 126.720   1
  13  -4   7 331.771 36.8259   3
  13   4   7 452.988 112.761   3
 -14   4  -7 106.332 69.3728   1
  14   4   7 122.001 63.1406   3
 -15   4  -7-38.3407 71.7687   1
  15   4   7 17.1806 37.5657   3
 -16   4  -7 1081.11 231.480   1
  16   4   7 1286.56 200.655   3
  17   4   7 1.51849 27.0999   3
 -17   4  -7-2.58199 58.6588   1
 -18   4  -7-12.4343 23.7835   1
  18   4   7 47.7059 51.6394   3
 -19   4  -7-67.0465 62.0388   1
  19   4   7-1.10666 31.4217   3
  20   4   7 72.3453 67.4868   3
 -20   4  -7-76.0728 67.7437   1
 -21   4  -7 99.6606 80.6710   1
  21   4   7 204.503 92.9412   3
  22   4   7 131.847 72.9078   3
 -22   4  -7 58.5104 24.7894   1
 -23   4  -7 477.608 180.851   1
  23   4   7 186.797 87.8847   3
  24   4   7-13.1330 37.3896   3
  25   4   7-66.6692 55.7208   3
 -22   5   7 366.930 162.387   1
 -21   5   7 118.087 88.2662   1
 -20   5   7 28.5792 35.8591   1
 -19   5   7-12.7574 29.9854   1
 -19  -5   7 193.775 132.101   2
 -18   5   7-7.22124 23.3049   1
 -18  -5   7-48.1700 67.4097   2
 -17   5   7 146.772 87.3584   1
 -17  -5   7 137.732 77.2795   2
 -16  -5   7 468.944 262.594   2
 -16   5   7 420.083 145.926   1
 -15   5   7 70.2178 50.0619   1
 -15  -5   7-40.0235 78.8493   2
 -15   5   7 47.7799 18.7527   3
 -14  -5   7 714.795 141.989   1
 -14   5   7 705.622 186.683   1
 -14  -5   7 940.461 255.770   2
 -14   5   7 570.721 70.9865   3
 -13  -5   7 254.706 85.2339   1
 -13   5   7 346.334 120.782   1
 -13  -5   7 416.874 154.136   2
 -13   5   7 280.190 51.2734   3
 -12   5   7 28.2195 27.1714   1
 -12  -5   7 152.533 101.896   2
 -12   5   7 31.2469 17.1844   3
 -12  -5   7 19.6206 9.09618   1
 -11  -5   7 1606.34 278.396   2
 -11   5   7 1272.38 123.057   3
 -11  -5   7 1416.22 197.159   1
 -11   5   7 1492.91 249.064   1
 -10  -5   7 192.691 69.6236   1
 -10   5   7 324.582 114.463   1
 -10  -5   7 217.515 98.1309   2
 -10   5   7 214.693 54.0719   3
  -9   5   7-18.1966 16.8676   3
  -9  -5   7 36.7258 21.9799   2
  -9   5   7 28.9730 49.0674   1
  -9  -5   7-34.9712 30.9111   1
  -8  -5   7 68.0245 53.9152   2
  -8   5   7 56.0406 41.6683   1
  -8  -5   7 46.4871 35.6971   1
  -8   5   7 50.7921 24.5682   3
  -7  -5   7 46.0588 41.8150   2
  -7   5   7 43.3578 38.4327   1
  -7  -5   7 23.1550 25.4739   1
   7  -5  -7 86.8972 123.244   2
  -7   5   7 20.3763 18.0893   3
  -6  -5   7 128.091 57.2870   2
  -6   5   7 92.2283 55.8029   1
  -6  -5   7 149.292 68.9062   1
   6  -5  -7 51.8619 76.4239   2
  -6   5   7 85.6945 37.1817   3
  -5  -5   7 74.6479 50.2795   2
  -5  -5   7-0.10889 5.44263   1
  -5   5   7-0.11270 18.0963   1
   5  -5  -7 33.0914 62.3901   2
  -5   5   7 7.03571 10.3431   3
  -4  -5   7 265.180 80.2586   2
  -4  -5   7 170.926 71.8466   1
  -4   5   7 284.457 89.5115   1
   4  -5  -7 357.290 130.885   2
   4   5  -7 284.577 96.0057   1
  -4   5   7 271.921 67.8309   3
   3   5  -7 0.90900 36.1091   1
  -3  -5   7 17.5081 41.7398   2
  -3  -5   7 101.532 55.1527   1
  -3   5   7 21.0158 11.3352   1
   3  -5  -7 97.3920 75.2385   2
  -3   5   7 17.7315 16.4302   3
  -2  -5   7 21.2440 16.7133   2
  -2  -5   7 102.559 53.4050   1
   2   5  -7 29.4978 37.1238   1
   2  -5  -7 143.037 84.4981   2
  -2   5   7 24.4845 27.2398   3
   1  -5  -7 1821.08 242.072   2
  -1  -5   7 1390.34 207.498   1
  -1   5   7 1246.68 150.656   3
   1   5  -7 1497.88 227.102   1
  -1  -5   7 1620.91 187.165   3
   0  -5  -7 246.525 65.9130   2
   0   5   7 263.530 69.4186   1
   0   5  -7 350.476 109.903   1
   0  -5   7 202.586 68.3235   3
   0   5   7 197.259 59.6543   3
   0  -5   7 327.471 101.183   1
   1  -5   7 77.8371 42.7195   3
  -1  -5  -7-9.59688 20.8560   2
  -1   5  -7-1.34102 26.2038   1
   1   5   7 17.8987 26.0385   1
   1   5   7 47.6596 47.8099   3
  -2   5  -7 105.003 68.8734   1
  -2  -5  -7 85.5214 34.7733   2
   2   5   7 80.2423 35.9356   1
   2  -5   7 101.960 42.0920   3
   2   5   7 150.149 53.3468   3
  -3   5  -7 48.2456 51.4653   1
  -3  -5  -7 8.83736 12.4030   2
   3   5   7-8.63414 26.2599   3
   3   5   7 5.60210 12.9814   1
   3  -5   7 63.0053 44.4656   3
   4   5   7 116.469 32.4151   1
   4  -5   7 80.9099 38.0559   3
   4   5   7 109.090 45.8258   3
  -4   5  -7 83.3725 53.6598   1
   5   5   7 570.686 56.5956   1
   5   5   7 628.250 66.5853   1
   5  -5   7 699.712 107.824   3
  -5   5  -7 788.716 172.599   1
   5   5   7 647.896 122.487   3
  -6   5  -7 281.071 107.956   1
   6   5   7 166.620 64.0030   3
   6  -5   7 214.123 57.1295   3
   7  -5   7 607.467 94.5979   3
   7   5   7 783.863 140.641   3
  -7   5  -7 641.695 165.300   1
  -8   5  -7 352.979 126.584   1
   8   5   7 435.388 115.083   3
   8  -5   7 448.927 76.6419   3
   9  -5   7 663.934 90.6076   3
  -9   5  -7 641.650 167.293   1
   9   5   7 769.757 146.968   3
 -10   5  -7 599.357 163.884   1
  10  -5   7 514.162 72.2670   3
  10   5   7 453.926 115.699   3
 -11   5  -7 289.820 122.302   1
  11  -5   7 369.089 55.7813   3
  11   5   7 410.038 113.670   3
 -12   5  -7 10.0514 22.2720   1
  12   5   7 5.71066 36.4061   3
 -13   5  -7 163.345 85.5851   1
  13   5   7 147.986 76.0266   3
 -14   5  -7 36.4598 43.8344   1
  14   5   7-20.9567 25.2994   3
 -15   5  -7 5.32299 19.6210   1
  15   5   7 4.55602 30.1676   3
 -16   5  -7-62.5931 59.2161   1
  16   5   7 32.2096 24.8360   3
 -17   5  -7 35.8815 48.1264   1
  17   5   7 30.8975 56.7220   3
 -18   5  -7-8.29802 35.2491   1
  18   5   7-1.06224 22.1252   3
 -19   5  -7 312.873 132.356   1
  19   5   7 252.149 103.809   3
 -20   5  -7 3.49699 19.8111   1
  20   5   7 71.5231 48.1799   3
 -21   5  -7 109.741 69.2620   1
  21   5   7 41.8068 46.4663   3
  22   5   7-89.8802 64.2937   3
 -20   6   7-117.907 89.6372   1
 -19   6   7 509.932 185.220   1
 -18   6   7 30.8377 45.9826   1
 -17   6   7 52.3717 56.4599   1
 -16   6   7-3.75482 42.3663   1
 -15   6   7 23.3510 37.4717   1
 -14   6   7-9.68188 25.1748   1
 -14  -6   7 10.4974 51.8009   2
 -13  -6   7 129.572 89.7420   2
 -13   6   7 33.0037 40.5429   1
 -13   6   7 90.7709 33.7050   3
 -12   6   7 47.7890 47.9131   1
 -12   6   7 125.846 40.8021   3
 -11  -6   7 77.3253 44.7930   2
 -11   6   7 123.951 84.4266   1
 -10   6   7 10.9333 12.5390   1
 -10   6   7-9.46268 12.6638   3
  -9  -6   7 85.4873 54.5152   1
  -9  -6   7 107.463 53.9244   2
  -9   6   7 101.585 51.6895   1
  -9   6   7 81.3992 38.8684   3
  -8  -6   7 17.5451 22.9755   1
  -8  -6   7-1.78994 36.9810   2
  -8   6   7 24.5204 26.4111   1
  -8   6   7-13.5420 20.7442   3
  -7  -6   7 274.141 89.1603   1
  -7  -6   7 343.607 106.477   2
  -7   6   7 271.444 98.8193   1
  -7   6   7 212.407 62.0664   3
  -6  -6   7-83.0934 50.0570   1
  -6  -6   7-44.3936 47.4450   2
  -6   6   7-1.83991 32.5590   1
  -6   6   7 6.48366 14.2185   3
  -5  -6   7 477.227 119.394   2
  -5   6   7 418.872 116.421   1
   5  -6  -7 450.357 178.075   2
  -5   6   7 402.078 87.5186   3
  -5  -6   7 427.605 109.581   1
  -4  -6   7 25.3276 25.7592   2
   4   6  -7 59.3509 47.5248   1
   4  -6  -7 50.2657 78.7240   2
  -4   6   7 8.17330 16.8879   1
  -4   6   7-18.8492 15.7716   3
   3   6  -7 182.915 89.8233   1
  -3  -6   7 138.018 62.4031   2
   3  -6  -7 149.448 86.4159   2
  -3   6   7 109.996 54.4760   1
  -3   6   7 73.4753 35.2182   3
  -2  -6   7 262.665 82.0395   2
   2   6  -7 243.224 92.9021   1
   2  -6  -7 349.131 129.989   2
  -2   6   7 227.878 75.7085   1
  -2   6   7 233.576 69.2208   3
  -1   6   7 11.0400 20.7528   3
   1  -6  -7 21.0124 25.9102   2
   1   6  -7 4.34694 15.5936   1
   0  -6  -7-51.4475 58.1557   2
   0   6   7 22.1019 25.3642   3
   0   6  -7 1.21595 10.6471   1
  -1  -6  -7 39.4458 15.8722   2
  -1   6  -7 14.7972 25.8363   1
   1   6   7-10.1429 26.6116   3
  -2  -6  -7 64.7641 30.2927   2
  -2   6  -7 104.450 73.0057   1
   2   6   7 77.9087 35.1651   1
   2   6   7 58.2819 34.1475   3
  -3  -6  -7 8.42852 5.50275   2
  -3   6  -7-3.82789 15.1424   1
   3   6   7 56.5748 27.9504   1
   3  -6   7 27.9969 37.4940   3
   3   6   7-20.6621 36.8876   3
  -4   6  -7-4.07335 29.4661   1
   4   6   7-11.3250 11.0932   1
   4  -6   7-29.9187 22.5847   3
   4   6   7-61.9784 40.9855   3
   5  -6   7 93.6966 38.9789   3
   5   6   7 33.4016 41.9120   3
  -5   6  -7 88.6390 62.3869   1
   6   6   7 4.42607 36.4246   3
   6  -6   7 31.4024 18.4751   3
  -6   6  -7 17.2003 29.1475   1
   7  -6   7 167.535 54.1340   3
  -7   6  -7 239.440 112.920   1
   7   6   7 190.705 67.5939   3
  -8   6  -7 14.9287 28.1068   1
   8   6   7 32.9196 45.4467   3
  -9   6  -7 70.4120 51.6805   1
   9   6   7 65.0527 48.8944   3
  10   6   7 64.0614 38.9532   3
 -10   6  -7 83.8968 59.7367   1
 -11   6  -7 147.920 91.9217   1
  11   6   7 148.639 77.4248   3
 -12   6  -7 231.059 117.839   1
  12   6   7 210.271 83.3047   3
 -13   6  -7 128.850 81.6054   1
  13   6   7 887.444 210.433   3
 -14   6  -7 177.588 100.218   1
  14   6   7 244.521 101.282   3
 -15   6  -7 95.7380 76.4945   1
  15   6   7 86.9676 57.5135   3
 -16   6  -7-9.99619 27.4129   1
  16   6   7-8.17270 33.3908   3
  17   6   7 113.129 63.0051   3
 -17   6  -7 3.70476 19.2814   1
  18   6   7 92.1219 71.0228   3
 -18   6  -7-27.9455 44.0915   1
 -19   6  -7 31.6768 46.8311   1
  19   6   7 42.1296 44.5126   3
 -17   7   7-56.1567 59.9139   1
 -16   7   7 67.5540 41.1440   1
 -15   7   7 18.9746 29.6325   1
 -14   7   7 43.5621 49.7859   1
 -13   7   7 31.0708 41.2868   1
 -12   7   7 351.213 135.292   1
 -11   7   7 352.226 129.228   1
 -10  -7   7 216.026 113.285   2
 -10   7   7 256.303 116.154   1
 -10   7   7 154.983 52.9882   3
  -9   7   7 8.33292 20.9599   3
  -9  -7   7 3.11390 45.6261   2
  -9   7   7-18.7897 29.6820   1
  -8  -7   7 19.4409 44.5759   2
  -8   7   7 24.5151 29.7223   3
  -8   7   7-17.2844 27.8298   1
  -7   7   7 12.0216 25.5605   3
  -7  -7   7 16.3041 43.5027   2
  -7   7   7-61.4750 49.1486   1
  -6  -7   7 152.954 82.6682   2
  -6   7   7 133.356 70.2328   1
  -6   7   7 98.4285 45.6685   3
  -5  -7   7 256.589 90.5417   2
  -5   7   7 147.840 61.6364   3
  -5   7   7 226.570 85.5528   1
  -4  -7   7 13.7340 17.7042   2
  -4   7   7 0.87750 8.27358   1
  -4   7   7 2.31650 12.9146   3
   4   7  -7-10.0379 22.0027   1
  -3  -7   7 346.417 97.8838   2
  -3   7   7 304.303 96.6660   1
   3   7  -7 311.599 117.157   1
  -3   7   7 294.415 87.7779   3
  -2  -7   7 11.8972 32.7093   2
   2   7  -7 3.71243 39.6764   1
  -2   7   7-54.5760 37.8225   3
  -2   7   7-4.86107 12.9002   1
  -1  -7   7 57.5468 46.5904   2
   1   7  -7 77.5767 58.5414   1
  -1   7   7 45.7309 26.2540   3
  -1   7   7 11.4619 17.8303   1
   0   7   7 87.9169 50.4834   3
   0   7  -7 128.348 80.0673   1
   0   7   7 77.4907 43.7095   1
   1   7   7 244.918 82.8186   3
  -1   7  -7 274.125 107.057   1
  -2   7  -7 124.696 78.6057   1
   2   7   7 58.5938 42.4103   3
  -3   7  -7 612.900 175.003   1
   3   7   7 663.190 100.878   1
   3   7   7 746.987 153.364   3
  -4   7  -7-27.2118 52.6466   1
   4   7   7 57.3741 45.0564   3
  -5   7  -7 16.9808 35.2405   1
   5   7   7-18.3323 29.0015   3
   6   7   7 113.999 67.5411   3
  -6   7  -7 45.0407 68.0334   1
   7   7   7 19.0772 32.6548   3
  -7   7  -7 63.8102 68.2640   1
   8   7   7 109.820 64.1891   3
  -8   7  -7 91.0044 101.437   1
   9   7   7-33.3099 52.5546   3
  -9   7  -7 10.8522 25.2007   1
 -10   7  -7 48.8888 52.9041   1
  10   7   7 22.8043 52.5902   3
 -11   7  -7 37.3438 47.2697   1
  11   7   7 19.4723 39.6173   3
 -12   7  -7-0.23349 52.7601   1
  12   7   7 165.475 96.7676   3
 -13   7  -7 54.9408 59.4167   1
  13   7   7-37.1314 40.9567   3
 -14   7  -7 67.7720 60.6982   1
  14   7   7 62.7045 62.8719   3
 -15   7  -7 108.140 87.3286   1
  15   7   7 90.7815 79.4048   3
 -16   7  -7 61.5511 50.5076   1
 -14   8   7 0.23254 11.7463   1
 -13   8   7-95.6716 73.9014   1
 -12   8   7 36.3789 45.7828   1
 -11   8   7 78.6646 64.5946   1
 -10   8   7 22.2171 42.2629   1
  -9   8   7 131.541 78.9329   1
  -8   8   7-49.0565 47.4109   1
  -7   8   7 0.09794 9.06556   3
  -7   8   7-33.0582 38.2500   1
  -6   8   7 126.262 57.5737   3
  -6   8   7 124.279 70.6152   1
  -5   8   7 95.0572 60.2104   1
  -5   8   7 79.6572 46.2438   3
  -4   8   7 43.1632 41.0581   3
  -4   8   7-14.7168 24.1129   1
  -3  -8   7-56.7606 44.0191   2
  -3   8   7 18.9560 24.8199   3
   3   8  -7 12.3514 26.0977   1
  -2   8   7 58.7687 46.4015   1
  -2  -8   7-19.6830 26.2638   2
  -2   8   7 2.93199 21.5044   3
   2   8  -7-0.19104 7.82413   1
  -1  -8   7 14.2504 17.9643   2
  -1   8   7-11.3834 32.2432   3
   0   8   7 6.49786 37.2300   3
   0  -8   7-45.8495 51.1586   2
  -1   8  -7-117.319 77.7277   1
   1   8   7 46.6544 19.0098   3
  -2   8  -7 92.6964 86.1583   1
   2   8   7 158.929 75.6025   3
   3   8   7 640.309 153.358   3
  -3   8  -7 707.115 194.845   1
  -4   8  -7 37.6509 63.1266   1
   4   8   7 31.0745 40.8828   3
  -5   8  -7 554.191 181.816   1
   5   8   7 449.831 134.085   3
  -6   8  -7 269.156 123.429   1
   6   8   7 315.950 112.181   3
  -7   8  -7 138.413 96.0194   1
   7   8   7 172.519 103.679   3
   8   8   7 60.7407 68.8634   3
  -8   8  -7-32.0200 45.5391   1
   9   8   7 554.966 159.570   3
  -9   8  -7 389.700 154.359   1
  10   8   7 6.12475 19.2905   3
 -10   8  -7 175.977 105.532   1
  11   8   7 182.734 96.8202   3
 -11   8  -7 242.470 123.265   1
 -12   8  -7 21.2060 57.3592   1
 -11   9   7 25.7462 39.0336   1
 -10   9   7 58.5131 57.4117   1
  -9   9   7 294.654 140.578   1
  -8   9   7 174.387 102.015   1
  -4   9   7 21.3125 27.4630   3
  -3   9   7 79.5687 52.0544   3
  -2   9   7 11.1272 21.4634   3
  -1   9   7-12.1851 23.4027   3
   0   9  -7 51.8119 54.9305   1
   0   9   7 42.6004 40.6947   3
  -1   9  -7 19.6235 35.6989   1
   1   9   7 2.38069 13.5534   3
   2   9   7-26.2039 38.4977   3
  -2   9  -7-62.2112 61.0560   1
   3   9   7-108.703 66.6879   3
  -3   9  -7 59.8357 60.9726   1
  -4   9  -7-2.15689 17.0393   1
   4   9   7-97.2790 64.2668   3
  -5   9  -7 9.29825 27.5657   1
   5   9   7-13.3725 16.1014   3
  -6   9  -7 7.78196 26.4822   1
  -7   9  -7-36.3451 50.5249   1
  -8   9  -7-105.499 84.7906   1
 -29   0   8 200.099 119.327   1
 -28   0   8 4.80286 25.1318   1
 -27   0   8-35.3990 50.4893   1
 -26   0   8-20.6286 66.6074   1
 -25   0   8-31.8978 45.8853   1
 -24   0   8 316.165 129.002   1
 -23   0   8 1170.33 255.147   1
 -23   0   8 1995.06 498.972   2
 -22   0   8-17.5253 51.7860   1
 -22   0   8 67.2939 77.4206   2
 -21   0   8-44.6550 66.3869   1
 -21   0   8 73.4241 132.385   2
 -20   0   8 187.895 94.5074   1
 -20   0   8 380.376 217.140   2
 -19   0   8 77.4695 73.8042   1
 -19   0   8-41.7535 45.7859   2
 -18   0   8 318.306 80.9924   3
 -18   0   8 561.506 235.907   2
 -17   0   8 503.001 95.1101   3
 -17   0   8 565.140 234.586   2
 -16   0   8 19.4937 27.0327   3
 -16   0   8 149.025 155.675   2
 -15   0   8 83.5395 42.7878   3
 -15   0   8 160.244 125.643   2
 -14   0   8 1709.59 179.565   3
 -14   0   8 1938.82 412.901   2
 -13   0   8 500.963 209.750   2
  12   0  -8 48.9197 68.9751   2
 -12   0   8 111.054 93.1359   2
  11   0  -8 480.427 135.866   2
 -11   0   8 562.958 185.560   2
  10   0  -8 729.219 158.887   2
   9   0  -8 234.042 83.1948   2
   8   0  -8 4127.35 349.005   2
   7   0  -8 7140.27 433.764   2
   6   0  -8 6608.81 392.938   2
   5   0  -8 4856.27 318.657   2
   4   0  -8 11845.6 467.673   2
   3   0  -8 983.461 127.291   2
   2   0  -8 858.104 111.503   2
  -1   0   8 711.478 121.831   1
   1   0  -8 789.077 100.196   2
   0   0   8 122.085 55.8371   1
   1   0   8 534.769 102.736   1
   2   0   8 2051.65 197.697   1
  -3   0  -8 1207.28 160.112   1
   3   0   8 1385.27 160.489   1
  -4   0  -8 154.774 56.8487   1
   4   0   8 117.333 48.1327   1
   5   0   8 645.669 112.594   1
  -5   0  -8 702.608 120.118   1
   6   0   8 41.3283 28.7808   1
  -6   0  -8 7.95003 11.3069   1
   7   0   8 4177.47 292.071   1
  -7   0  -8 4129.64 299.140   1
  -8   0  -8 61.5243 39.6588   1
   8   0   8 85.4697 43.2566   1
   9   0   8 101.633 41.4663   1
  -9   0  -8 44.4331 40.6660   1
  10   0   8 1038.39 154.168   1
 -10   0  -8 981.926 153.742   1
 -11   0  -8 1032.85 160.381   1
  11   0   8 1077.66 125.186   3
  11   0   8 991.247 155.699   1
  12   0   8 46.0791 34.9563   1
 -12   0  -8 120.051 54.7236   1
  12   0   8 74.8914 32.6891   3
 -13   0  -8 102.153 49.2069   1
  13   0   8 69.8614 30.7109   1
  13   0   8 113.098 43.1587   3
  14   0   8 116.799 40.2445   3
  14   0   8 103.215 53.1116   1
 -14   0  -8 95.5803 51.5608   1
  15   0   8 31.8889 28.1209   1
 -15   0  -8 0.69850 14.5414   1
  15   0   8 0.11939 10.4883   3
  16   0   8 478.614 130.725   1
 -16   0  -8 625.635 143.753   1
  16   0   8 785.399 114.003   3
 -17   0  -8 244.652 91.3577   1
  17   0   8 256.369 68.3613   3
 -18   0  -8 839.986 170.916   1
  18   0   8 911.330 131.416   3
  19   0   8 61.4461 42.9114   3
 -19   0  -8 134.603 70.4786   1
 -20   0  -8 259.787 102.361   1
  20   0   8 355.048 83.0710   3
 -21   0  -8 124.539 75.3988   1
  21   0   8 62.5878 36.3614   3
 -22   0  -8 17.5982 33.7324   1
  22   0   8 77.6701 51.9183   3
 -23   0  -8 86.4206 45.5058   1
 -24   0  -8 13.5166 28.0404   1
 -25   0  -8 70.9254 66.4521   1
 -28  -1   8-26.5590 43.8585   1
 -28   1   8 11.2635 32.6742   1
 -27  -1   8-94.9782 77.7876   1
 -27   1   8 40.1719 74.3844   1
 -26  -1   8 50.0987 75.3588   1
 -26   1   8 48.7416 58.7051   1
 -25  -1   8 138.424 100.175   1
 -25   1   8 76.2550 63.6055   1
 -24  -1   8 4.29035 26.2355   1
 -24   1   8-41.1978 51.7132   1
 -24  -1   8 11.7430 61.3485   2
 -23  -1   8 640.695 302.770   2
 -23  -1   8 459.833 160.391   1
 -23   1   8 480.203 168.564   1
 -22   1   8 31.8492 44.5458   1
 -22  -1   8 9.33910 33.6028   1
 -22  -1   8 141.432 116.427   2
 -22   1   8 80.2549 77.5603   2
 -21  -1   8 40.9244 57.6395   1
 -21   1   8 24.9531 47.1573   1
 -21  -1   8 127.113 131.349   2
 -21   1   8-10.4845 46.4077   2
 -20   1   8-49.5903 70.2624   1
 -20  -1   8-124.354 110.057   2
 -20   1   8-18.9508 23.0499   3
 -20   1   8-28.6206 98.5086   2
 -20  -1   8-23.0612 30.4042   1
 -19   1   8 14.8061 61.2983   1
 -19   1   8 13.2139 136.949   2
 -19   1   8 38.8039 24.2932   3
 -19  -1   8-18.5148 112.103   2
 -18   1   8 284.297 109.459   1
 -18   1   8 293.239 66.5757   3
 -18  -1   8 675.959 270.142   2
 -18   1   8 467.721 213.205   2
 -17   1   8 159.871 88.0417   1
 -17   1   8 83.8400 37.0536   3
 -17  -1   8 135.701 145.032   2
 -17   1   8-16.0487 62.8289   2
 -16   1   8 41.8734 65.9473   2
 -16  -1   8 110.390 139.203   2
 -15   1   8-3.76895 28.5792   2
 -15  -1   8 53.0213 114.680   2
 -15  -1   8-16.8592 32.1484   3
 -14  -1   8 787.454 131.076   3
 -14  -1   8 717.478 243.302   2
 -14   1   8 1013.35 285.556   2
  13   1  -8 631.212 157.263   2
 -13  -1   8 837.084 254.008   2
 -13  -1   8 655.634 117.690   3
 -13   1   8 491.136 205.965   2
  12   1  -8 85.1025 57.4155   2
 -12  -1   8 75.0531 88.2449   2
 -12  -1   8 62.2354 37.1428   3
  11   1  -8-11.5173 21.1193   2
  11  -1  -8 54.4583 23.3282   2
 -11  -1   8-18.1156 67.4264   2
 -11  -1   8 34.3787 41.8147   3
 -10  -1   8 7.23950 19.5412   3
  10   1  -8 53.8787 51.4484   2
 -10  -1   8-13.7302 63.1477   2
   9   1  -8 548.243 125.662   2
   9  -1  -8 338.826 117.389   2
  -9  -1   8 663.213 184.345   2
   8   1  -8 568.878 117.831   2
   8  -1  -8 532.254 133.801   2
  -8  -1   8 604.308 169.303   2
   7   1  -8 248.416 78.6888   2
   7  -1  -8 261.717 91.7919   2
   6   1  -8 39.8032 27.2969   2
   6  -1  -8 19.0350 31.5506   2
   5  -1  -8 5979.21 391.652   2
   5   1  -8 6173.51 331.244   2
   4  -1  -8 4364.20 310.950   2
   4   1  -8 4795.95 275.600   2
   3   1  -8 290.394 68.2692   2
   3  -1  -8 349.524 83.0256   2
  -3  -1   8 366.635 89.8153   1
  -2  -1   8 1163.33 161.150   1
   2   1  -8 1269.59 132.559   2
   2  -1  -8 1323.37 149.128   2
  -1  -1   8 244.473 74.3232   1
   1  -1  -8 218.770 55.6987   2
   0   1   8 877.081 127.300   2
   0  -1   8 834.355 134.721   1
   0  -1  -8 851.759 102.336   2
   1   1   8 2217.78 187.001   2
   1  -1   8 2332.85 223.458   1
   1   1   8 2373.64 208.892   1
  -1  -1  -8 2471.97 164.188   2
   2   1   8 1581.52 167.760   1
   2  -1   8 1740.12 194.106   1
   2   1   8 1742.27 155.816   2
   3  -1   8 1264.21 165.708   1
   3   1   8 1460.99 156.058   1
   3   1   8 1436.00 133.189   2
   4   1   8 770.573 92.8931   2
   4  -1   8 1002.41 148.391   1
   4   1   8 1014.95 130.020   1
  -5  -1  -8 1032.52 136.609   1
   5   1   8 1145.11 112.692   2
   5  -1   8 1116.36 160.075   1
   5   1   8 1022.05 128.733   1
  -6  -1  -8 1564.77 169.505   1
   6  -1   8 1810.15 207.651   1
   6   1   8 1744.10 168.947   1
  -6   1  -8 1665.74 200.428   1
   7  -1   8 1134.71 164.001   1
   7   1   8 1285.19 145.566   1
  -7   1  -8 1124.49 163.769   1
  -7  -1  -8 1139.81 145.457   1
   8  -1   8 939.328 153.529   1
   8   1   8 1139.07 138.405   1
  -8  -1  -8 1188.18 149.710   1
  -8   1  -8 1108.11 169.197   1
  -9   1  -8 36.4587 31.0117   1
  -9  -1  -8 75.9333 44.3079   1
   9  -1   8 58.8741 45.4393   1
   9   1   8 26.4101 19.1945   1
   9   1   8 59.1439 35.8159   3
  10   1   8 762.198 118.544   1
  10  -1   8 739.953 142.791   1
 -10   1  -8 783.674 148.350   1
  10   1   8 878.561 119.121   3
 -10  -1  -8 692.862 117.961   1
  11   1   8 860.868 122.869   3
 -11   1  -8 662.431 137.293   1
  11  -1   8 679.448 142.163   1
 -11  -1  -8 914.220 139.429   1
  11   1   8 823.672 127.414   1
 -12  -1  -8 281.310 81.6437   1
  12   1   8 380.720 78.4214   3
  12   1   8 392.661 92.5738   1
  12  -1   8 330.213 106.159   1
 -12   1  -8 287.583 93.2384   1
  12  -1   8 409.649 73.1566   3
  13  -1   8 198.404 54.3934   3
  13   1   8 143.843 51.3073   1
  13  -1   8 190.611 77.0618   1
 -13   1  -8 188.771 77.0291   1
  13   1   8 179.252 62.6216   3
 -13  -1  -8 115.451 57.7123   1
 -14   1  -8 763.874 158.071   1
 -14  -1  -8 750.699 135.704   1
  14   1   8 868.598 125.167   3
  14  -1   8 885.244 108.192   3
  14   1   8 763.499 138.697   1
  15   1   8 292.878 89.8630   1
 -15   1  -8 342.390 107.785   1
 -15  -1  -8 314.147 85.4346   1
  15  -1   8 288.700 58.0394   3
  15   1   8 267.426 70.2854   3
  16   1   8 514.433 99.2105   3
  16   1   8 516.930 122.993   1
 -16   1  -8 466.634 134.619   1
  16  -1   8 587.251 85.4621   3
 -16  -1  -8 513.190 118.083   1
  16   1   8 518.546 183.488   2
  17   1   8 96.4421 41.6848   1
 -17   1  -8 196.146 86.4948   1
 -17  -1  -8 136.911 66.5555   1
  17   1   8 175.952 61.4684   3
  17  -1   8 165.780 50.1634   3
  17   1   8 266.635 135.496   2
  18   1   8 270.884 91.7083   1
 -18   1  -8 296.602 104.001   1
 -18  -1  -8 323.149 97.3275   1
  18  -1   8 291.686 66.9988   3
  18   1   8 287.885 82.7811   3
  19   1   8 81.3884 46.1666   3
 -19  -1  -8 104.910 57.5678   1
 -19   1  -8 95.5047 69.6993   1
  19  -1   8 60.1464 25.7862   3
 -20   1  -8 20.4865 26.7108   1
 -20  -1  -8 40.9308 65.4767   1
  20   1   8 12.3215 20.5375   3
  20  -1   8-7.58830 14.3145   3
 -21   1  -8-78.3327 60.5808   1
 -21  -1  -8-36.5321 36.6501   1
 -22   1  -8 87.7280 66.3108   1
 -22  -1  -8 30.6339 27.4211   1
  22   1   8 51.7382 37.5636   3
 -23   1  -8 43.7224 49.3579   1
 -23  -1  -8 12.4477 53.0914   1
  23   1   8 89.3939 129.262   3
 -24   1  -8 137.971 85.4778   1
 -25   1  -8 88.8076 58.7189   1
 -26   1  -8-15.2088 33.2236   1
 -27   1  -8 287.409 133.373   1
 -26  -2   8 28.0177 41.9659   1
 -26   2   8 7.43743 29.3095   1
 -25  -2   8-8.01334 24.3106   1
 -25   2   8 238.024 112.607   1
 -25  -2   8 117.897 125.447   2
 -24  -2   8 88.5576 56.3971   1
 -24   2   8 64.3128 102.265   1
 -24  -2   8 64.2379 141.951   2
 -23   2   8-66.4986 65.6133   1
 -23  -2   8 134.268 149.187   2
 -23  -2   8 98.5884 74.7536   1
 -22  -2   8 12.3005 35.3351   1
 -22   2   8-39.5669 44.8771   1
 -22  -2   8 1.67242 93.7252   2
 -21   2   8-21.4627 41.8915   1
 -21  -2   8-4.10295 82.3386   2
 -21  -2   8 101.432 67.8196   1
 -20   2   8 145.834 84.5422   1
 -20  -2   8 94.2308 79.0141   2
 -19  -2   8 204.009 183.995   2
 -19   2   8 55.7298 51.0151   1
 -19   2   8 70.0558 110.107   2
 -18   2   8 14.8497 47.0854   1
 -18  -2   8-0.75835 26.9737   2
 -18   2   8-36.5180 109.446   2
 -17   2   8 2279.29 476.487   2
 -17  -2   8 2073.83 434.107   2
 -17   2   8 1840.21 294.447   1
 -16   2   8 1487.67 385.486   2
 -16  -2   8 1825.01 405.156   2
 -16   2   8 1727.40 278.108   1
 -15   2   8 73.3290 52.5130   1
 -15   2   8 221.990 58.8344   3
 -15  -2   8 119.712 59.0583   2
 -15   2   8 118.304 81.3942   2
 -14   2   8 251.225 116.275   1
 -14   2   8 138.997 91.4384   2
 -14  -2   8 176.868 113.601   2
 -13   2   8 20.6690 31.0150   2
  13   2  -8 99.5356 76.4700   2
 -13  -2   8-59.6183 71.3292   2
  12   2  -8 75.1382 65.3995   2
 -12  -2   8 73.1265 113.220   2
 -12   2   8 49.4219 75.6820   2
  11   2  -8 256.495 87.4096   2
 -11  -2   8 471.136 178.257   2
 -11  -2   8 302.374 78.9526   3
  10   2  -8 22.3184 37.2045   2
 -10  -2   8-6.74878 50.6246   2
  10  -2  -8-7.08109 46.9691   2
 -10  -2   8 9.21984 12.1289   3
   9   2  -8-10.9905 13.4306   2
  -9  -2   8-42.9824 53.2025   2
   9  -2  -8 12.5826 23.9497   2
   8   2  -8 34.2960 27.1855   2
  -8  -2   8-12.5512 33.1501   2
   8  -2  -8 77.9779 67.9249   2
  -7  -2   8 1524.07 221.838   2
   7  -2  -8 1658.13 258.156   2
  -7  -2   8 1523.37 199.126   1
   7   2  -8 1360.29 161.270   2
  -6  -2   8 2671.49 279.386   2
   6  -2  -8 2435.51 290.947   2
   6   2  -8 2785.69 219.504   2
  -6  -2   8 2513.15 254.712   1
  -5  -2   8 1319.42 183.410   2
   5  -2  -8 1229.02 195.677   2
  -5  -2   8 1447.79 188.633   1
   5   2  -8 1406.94 150.895   2
  -4  -2   8 160.891 76.1267   2
  -4  -2   8 128.865 55.5690   1
   4  -2  -8 91.9680 47.3279   2
  -4   2   8 47.0161 25.4366   2
   3  -2  -8 4.85113 27.9301   2
  -3   2   8-32.1240 37.4692   2
  -3  -2   8-8.28384 14.3603   1
   2  -2  -8 1461.69 171.224   2
  -2   2   8 1350.69 217.099   2
  -2  -2   8 1414.33 183.079   1
   1  -2  -8 1219.89 144.662   2
  -1   2   8 1581.33 218.814   2
  -1  -2   8 1258.26 172.691   1
   0   2   8 6792.30 414.977   2
   0  -2   8 6479.31 393.215   1
   0  -2  -8 6152.75 291.646   2
   1   2   8 1866.01 200.148   2
   1  -2   8 1893.69 212.813   1
  -1  -2  -8 1808.17 141.199   2
   2   2   8 484.680 92.1466   2
   2  -2   8 644.052 126.181   1
  -2  -2  -8 587.972 74.4370   2
   3   2   8 709.363 103.898   2
   3   2   8 743.065 109.133   1
   3  -2   8 695.222 131.266   1
   4   2   8 1199.34 124.772   2
   4  -2   8 1281.63 182.811   1
   4   2   8 1183.63 131.094   1
   5  -2   8 828.515 147.931   1
   5   2   8 862.718 109.820   1
   5   2   8 798.195 94.2992   2
   6  -2   8 2845.76 277.737   1
   6   2   8 2714.42 190.986   1
   6   2   8 2651.38 210.108   3
   6   2   8 2493.28 158.863   2
   7  -2   8 2522.65 264.704   1
   7   2   8 2388.63 174.316   1
   7   2   8 2429.03 207.520   3
   7   2   8 2374.54 149.659   2
   8  -2   8 786.406 150.441   1
   8   2   8 943.065 108.468   1
  -8   2  -8 811.037 156.886   1
   8   2   8 868.453 125.746   3
   8   2   8 846.227 89.6400   2
  -9  -2  -8 277.756 66.5713   1
   9   2   8 254.773 56.0738   1
  -9   2  -8 209.792 83.8163   1
   9  -2   8 210.634 79.2385   1
   9   2   8 238.254 64.3457   3
 -10  -2  -8 616.356 99.5572   1
 -10   2  -8 547.449 132.112   1
  10  -2   8 721.366 151.318   1
  10   2   8 667.814 114.380   3
  10   2   8 620.422 93.4702   1
  11   2   8 759.710 121.023   3
 -11   2  -8 858.354 168.890   1
  11   2   8 788.577 109.018   1
 -11  -2  -8 815.835 116.779   1
 -12   2  -8 1029.90 190.581   1
  12   2   8 973.007 139.271   3
 -12  -2  -8 945.410 128.709   1
  12   2   8 827.453 115.013   1
  13  -2   8 164.552 45.5570   3
  13   2   8 136.934 48.1008   1
 -13   2  -8 140.540 74.4877   1
 -13  -2  -8 187.251 59.7472   1
  13   2   8 177.007 60.1150   3
  14   2   8 1736.58 283.410   2
 -14   2  -8 1654.29 248.985   1
  14   2   8 1557.49 179.900   3
  14  -2   8 1569.97 127.710   3
 -14  -2  -8 1616.31 178.233   1
  14   2   8 1457.02 166.605   1
  15   2   8 309.127 79.2533   1
 -15  -2  -8 270.729 77.3646   1
 -15   2  -8 212.264 90.4604   1
  15   2   8 196.858 82.9287   2
  15   2   8 288.967 85.4097   3
  15  -2   8 266.762 50.8454   3
  16   2   8-7.43620 13.7353   1
 -16  -2  -8 50.3248 38.7862   1
  16   2   8 4.69621 16.7017   3
 -16   2  -8-29.5535 54.8161   1
  16   2   8-53.6700 53.5221   2
  16  -2   8-1.87711 8.28805   3
 -17  -2  -8 328.533 89.9405   1
 -17   2  -8 289.614 110.680   1
  17  -2   8 373.409 61.0870   3
  17   2   8 307.672 86.1727   3
  17   2   8 606.600 185.974   2
  18   2   8 1.11773 13.3287   3
 -18  -2  -8-11.2125 31.1521   1
 -18   2  -8 88.3302 62.7218   1
  18  -2   8 13.1513 8.28639   3
  18   2   8 98.0671 79.7557   2
 -19  -2  -8-6.68787 22.5265   1
 -19   2  -8 8.47331 25.6756   1
  19   2   8 13.5464 23.4889   3
 -20   2  -8 205.744 122.520   1
  20   2   8 223.761 76.9842   3
 -20  -2  -8 228.714 78.0187   1
 -21   2  -8-18.5742 16.6108   1
  21   2   8 68.7305 49.2737   3
 -22   2  -8 18.8187 34.4603   1
  22   2   8 35.0642 56.4395   3
 -23   2  -8 154.988 92.9785   1
  23   2   8 164.238 71.3151   3
 -24   2  -8-46.1727 60.7937   1
  24   2   8-27.3147 31.7482   3
 -25   2  -8 91.7607 75.4760   1
  25   2   8-25.7942 55.9793   3
 -26   2  -8 118.025 81.1808   1
 -27   2  -8 685.729 206.859   1
 -25   3   8 88.9761 86.4479   1
 -25  -3   8 21.7471 62.6795   2
 -24  -3   8 64.2359 57.7507   1
 -24   3   8 88.0291 78.5771   1
 -24  -3   8 16.4259 49.7096   2
 -23  -3   8-8.51323 56.8640   1
 -23   3   8 16.1207 35.0105   1
 -23  -3   8 20.6921 51.2914   2
 -22  -3   8 74.7289 58.1099   1
 -22  -3   8-4.52305 99.2918   2
 -22   3   8-42.7109 52.6536   1
 -21   3   8 38.6634 55.2581   1
 -21  -3   8 94.1685 102.206   2
 -20   3   8-35.7864 46.4599   1
 -20  -3   8 227.771 153.903   2
 -19   3   8 636.620 182.973   1
 -19  -3   8 1073.43 330.884   2
 -18   3   8 34.8887 63.7881   1
 -18  -3   8-176.699 131.735   2
 -17   3   8-4.07244 28.4314   1
 -17  -3   8 127.041 141.291   2
 -17   3   8 10.1011 5.62470   3
 -16   3   8 607.043 167.921   1
 -16  -3   8 593.685 219.999   2
 -16   3   8 611.734 260.180   2
 -15   3   8 922.677 210.166   1
 -15  -3   8 990.416 283.230   2
 -15   3   8 928.837 297.123   2
 -14   3   8 78.7629 102.672   2
 -14   3   8 134.314 78.1179   1
 -14  -3   8 63.6191 48.3683   2
 -13   3   8 534.197 150.037   1
  13   3  -8 616.148 127.241   2
 -13  -3   8 416.435 171.420   2
 -13   3   8 652.569 235.792   2
 -12   3   8 0.29588 25.4063   1
  12   3  -8-4.59915 27.2486   2
 -12  -3   8-20.9575 31.5361   1
 -12  -3   8 100.073 81.2624   2
 -12   3   8-93.9677 86.3095   2
 -11  -3   8 1771.28 300.145   2
 -11  -3   8 1163.04 187.738   1
 -11   3   8 1335.06 306.711   2
 -11   3   8 1151.08 203.234   1
  11   3  -8 1132.91 158.042   2
 -10   3   8 616.607 148.669   1
  10   3  -8 507.706 106.521   2
 -10   3   8 566.115 194.599   2
 -10  -3   8 700.532 173.065   2
 -10  -3   8 575.401 127.291   1
   9   3  -8 252.121 69.7471   2
  -9  -3   8 262.031 100.767   2
   9  -3  -8 190.571 116.896   2
  -9   3   8 136.936 95.6893   2
  -9  -3   8 249.539 83.4742   1
  -9   3   8 303.120 97.3246   1
   8   3  -8-11.6508 30.0553   2
  -8   3   8 21.3531 57.1906   2
  -8  -3   8-23.9986 14.7882   2
  -8  -3   8-37.9948 32.2984   1
   8  -3  -8 0.60707 39.6507   2
  -7  -3   8 871.190 153.120   1
  -7  -3   8 913.405 174.292   2
   7  -3  -8 1186.97 239.926   2
  -7   3   8 998.669 243.278   2
  -6  -3   8 116.336 68.7005   2
   6  -3  -8 121.673 79.6820   2
  -6  -3   8 140.452 55.9212   1
  -5  -3   8 74.9569 62.8694   2
   5  -3  -8 225.707 97.3110   2
  -5  -3   8 77.7439 38.3535   1
  -4  -3   8 14.4599 37.7031   2
  -4  -3   8 6.33139 10.6277   1
   4  -3  -8-27.9613 60.2172   2
  -3  -3   8 496.417 104.538   2
   3  -3  -8 441.875 111.578   2
  -3  -3   8 434.049 105.924   1
  -3  -3   8 513.809 98.1983   3
  -3   3   8 670.101 178.588   2
  -2  -3   8 50.9642 25.8595   2
   2  -3  -8 20.9480 9.99605   2
  -2  -3   8 25.4133 27.6670   3
  -2   3   8 86.4106 79.3946   2
  -2  -3   8 13.9377 27.9526   1
  -1  -3   8 99.1324 41.0566   2
   1  -3  -8 66.0447 40.3576   2
  -1  -3   8 40.8331 21.1909   3
  -1   3   8 84.5634 61.4481   2
  -1  -3   8 21.6797 20.5952   1
   0  -3  -8 264.055 71.7899   2
   0  -3   8 268.246 81.4954   1
   0  -3   8 360.522 77.9505   3
   0   3   8 124.790 59.0564   2
  -1  -3  -8 216.622 53.8097   2
   1  -3   8 245.638 83.3781   1
   1  -3   8 261.898 64.9569   3
   1   3   8 228.766 88.9340   2
  -2  -3  -8 162.804 40.8876   2
   2  -3   8 186.348 71.9447   1
   2  -3   8 214.044 58.0147   3
   2   3   8 173.534 68.3509   2
   2   3   8 191.727 62.2180   3
   3   3   8 856.031 139.996   2
   3  -3   8 873.426 158.459   1
   3   3   8 929.591 130.968   3
   4   3   8 350.383 69.2705   1
   4  -3   8 347.031 98.8416   1
   4   3   8 321.525 78.4913   2
   4   3   8 245.887 72.0465   3
   5   3   8 40.6426 27.4308   2
   5   3   8 10.4053 5.06437   1
   5   3   8 31.2087 33.3428   3
   5  -3   8 15.4507 15.1155   1
   6   3   8 2.02755 10.3057   1
   6   3   8-8.43140 15.0667   2
   6  -3   8 91.2400 57.4866   1
   6   3   8 8.26090 15.5146   3
   7   3   8 409.597 59.3783   1
   7   3   8 255.207 50.1585   2
   7  -3   8 345.757 106.753   1
   7   3   8 407.756 87.9370   3
   8   3   8-1.03653 4.82332   2
  -8   3  -8 19.9028 44.5341   1
   8   3   8 7.25706 8.60529   1
   8   3   8-10.0666 17.3585   3
   9   3   8 459.262 96.6639   3
  -9   3  -8 461.283 125.437   1
   9   3   8 408.097 54.8132   1
   9   3   8 423.739 57.6088   2
  10   3   8 163.564 33.7515   2
  10   3   8 146.474 32.8154   1
 -10   3  -8 164.772 72.6212   1
  10   3   8 165.704 61.5338   3
  11   3   8 185.051 37.0275   2
  11   3   8 69.2723 21.9651   1
 -11   3  -8 100.880 60.0091   1
  11   3   8 94.3360 41.3210   2
  11   3   8 78.9548 38.0023   3
 -12   3  -8 631.872 161.545   1
  12   3   8 592.894 116.722   3
  12   3   8 541.842 112.410   2
  12   3   8 517.403 65.6363   1
  12   3   8 616.746 70.3005   2
 -13   3  -8 74.7274 54.1489   1
  13   3   8 181.099 66.7004   2
  13   3   8 143.055 59.3854   3
 -14   3  -8 236.566 96.3564   1
  14   3   8 274.757 86.5193   2
  14   3   8 251.340 86.3920   3
  14  -3   8 259.868 44.6215   3
  15   3   8 212.084 72.3896   3
 -15   3  -8 156.040 86.2197   1
  15  -3   8 303.159 44.5005   3
  15   3   8 294.569 108.550   2
 -16  -3  -8 423.086 75.5641   1
 -16   3  -8 545.210 158.183   1
  16   3   8 552.565 125.141   3
  16  -3   8 472.648 49.5392   3
  16   3   8 464.423 134.988   2
  17   3   8-3.26955 13.1546   3
 -17   3  -8 43.2047 59.2937   1
 -17  -3  -8 7.00418 17.3688   1
 -18   3  -8 598.019 175.186   1
  18   3   8 703.713 148.479   3
 -19   3  -8-22.0562 41.7821   1
  19   3   8-10.3134 26.6607   3
 -20   3  -8-45.4486 52.2522   1
  20   3   8 28.9207 23.9207   3
  21   3   8 25.0708 31.0841   3
 -21   3  -8 42.2215 46.6753   1
 -22   3  -8 70.3696 64.3674   1
  22   3   8-52.7065 44.2429   3
 -23   3  -8-36.0413 49.0198   1
  23   3   8-14.9069 21.6584   3
 -24   3  -8 161.677 106.421   1
  24   3   8 204.154 95.8797   3
  25   3   8-23.4670 32.6320   3
 -25   3  -8 110.703 87.1009   1
  26   3   8 497.044 135.631   3
 -23   4   8 144.577 109.154   1
 -23  -4   8 140.707 123.180   2
 -22   4   8 25.3365 42.0892   1
 -22  -4   8 128.957 32.1843   2
 -21   4   8 40.4199 51.5634   1
 -21  -4   8 27.0040 122.266   2
 -20   4   8 107.346 78.2555   1
 -20  -4   8 65.7054 84.4872   2
 -19   4   8 248.892 120.390   1
 -19  -4   8 284.144 167.934   2
 -18   4   8 18.4620 49.5395   1
 -18  -4   8-12.0811 42.3717   2
 -17   4   8 82.9368 46.2425   1
 -17  -4   8 117.604 101.723   2
 -17   4   8 55.5594 22.9808   3
 -16   4   8 57.1600 57.9837   1
 -16  -4   8-80.6680 86.1600   2
 -15   4   8 168.842 93.0073   1
 -15  -4   8 213.709 86.8498   1
 -15  -4   8 434.635 179.189   2
 -14   4   8 41.2769 38.1030   1
 -14  -4   8-43.9225 63.8148   2
 -14  -4   8 17.8173 24.9844   1
  13   4  -8 66.5286 37.1824   2
 -13   4   8 20.1204 10.5036   1
 -13  -4   8 17.8653 13.1511   1
 -13  -4   8 32.5538 63.3313   2
 -12  -4   8 333.923 102.409   1
 -12   4   8 407.913 132.440   1
 -12  -4   8 392.794 148.753   2
  12   4  -8 391.953 92.7265   2
 -11   4   8 49.7861 47.8407   1
 -11  -4   8 28.6984 54.6025   2
 -11  -4   8 66.3296 43.2063   1
 -10   4   8 83.1831 63.0007   1
 -10  -4   8 24.7689 22.9311   2
 -10  -4   8 30.2697 29.8847   1
 -10   4   8 99.4010 62.6616   2
  -9   4   8 236.170 99.1769   1
  -9  -4   8 145.597 86.4085   2
  -9  -4   8 155.110 63.7597   1
  -9   4   8 264.733 117.062   2
  -8   4   8 371.439 114.155   1
  -8  -4   8 418.708 106.701   1
  -8  -4   8 495.894 137.244   2
   8  -4  -8 703.642 206.550   2
  -8   4   8 387.740 150.620   2
  -7  -4   8 54.7119 36.2630   1
  -7   4   8 46.6950 34.8098   1
  -7  -4   8 153.743 84.6512   2
   7  -4  -8 85.2445 48.4915   2
  -7   4   8-87.0785 74.0271   2
  -6  -4   8 105.077 63.9667   2
   6  -4  -8 67.2811 77.3046   2
  -6   4   8-52.5169 55.9574   2
  -6  -4   8-8.82805 16.7836   1
  -6   4   8 42.8112 34.4605   3
  -5  -4   8 724.264 136.256   2
   5  -4  -8 1135.36 232.437   2
  -5  -4   8 800.297 149.473   1
  -5   4   8 938.001 122.658   3
  -5   4   8 759.647 144.745   1
  -4  -4   8 726.822 135.273   2
   4  -4  -8 643.192 159.253   2
  -4  -4   8 567.413 112.451   3
  -4  -4   8 611.596 132.159   1
  -4   4   8 520.993 93.6143   3
  -3  -4   8 87.0404 42.1314   2
   3   4  -8 75.2289 50.4976   1
   3  -4  -8 68.6105 51.2542   2
  -3  -4   8 30.9721 23.7313   1
  -3  -4   8 137.618 58.3488   3
  -3   4   8 118.689 47.9051   3
  -2  -4   8 39.0266 41.0603   2
   2  -4  -8-37.8125 54.7982   2
  -2  -4   8-1.11579 24.9325   1
  -2  -4   8-20.7786 27.3065   3
  -2   4   8 2.15314 27.8558   2
  -2   4   8 54.3899 39.0480   3
   2   4  -8 22.1389 31.4319   1
   1  -4  -8 1071.66 166.504   2
  -1   4   8 1324.82 218.046   2
  -1  -4   8 1447.73 208.402   1
  -1  -4   8 1216.92 155.849   3
  -1   4   8 1157.81 145.571   3
  -1   4   8 1389.07 168.045   1
   1   4  -8 1327.32 207.810   1
  -1  -4   8 1329.57 166.367   2
   0   4   8 264.702 69.7297   1
   0  -4   8 258.306 87.6764   1
   0  -4  -8 204.053 64.7529   2
   0  -4   8 239.814 66.8421   3
   0   4   8 182.162 70.2028   2
   0   4  -8 217.908 87.1585   1
   0   4   8 289.103 77.5782   3
  -1  -4  -8 1020.93 123.532   2
   1   4   8 1053.52 138.882   3
   1   4   8 837.509 151.333   2
   1  -4   8 1036.30 180.063   1
   1  -4   8 1101.03 141.867   3
  -1   4  -8 981.189 181.979   1
   1   4   8 990.788 129.425   1
   2   4   8 94.8254 39.9128   1
   2  -4   8 228.269 86.4174   1
  -2  -4  -8 101.801 30.9464   2
  -2   4  -8 87.0421 39.6917   1
   2  -4   8 122.770 40.2271   3
   2   4   8 104.971 46.4732   2
   2   4   8 125.230 43.3977   3
   3   4   8 173.575 45.7565   1
  -3  -4  -8 221.188 39.0287   2
  -3   4  -8 157.761 74.3113   1
   3   4   8 191.183 61.1462   2
   3  -4   8 206.277 53.1171   3
   3   4   8 265.835 75.4625   3
   3  -4   8 218.999 79.0579   1
   4   4   8 171.427 42.7516   1
  -4   4  -8 222.567 89.7483   1
   4  -4   8 99.4934 41.3837   3
   4   4   8 184.000 60.5964   3
   5   4   8 140.751 34.5274   1
   5   4   8 140.952 37.6315   1
   5  -4   8 191.230 56.8279   3
   5   4   8 190.408 61.8625   3
  -5   4  -8 170.078 76.6752   1
   6   4   8 342.410 47.4766   1
   6  -4   8 321.173 67.4953   3
  -6   4  -8 311.715 102.581   1
   6   4   8 229.469 72.6408   3
   6   4   8 283.174 42.4388   1
   7  -4   8 555.048 87.7217   3
  -7   4  -8 564.195 145.502   1
   7   4   8 469.757 103.797   3
   8  -4   8 541.681 84.3759   3
  -8   4  -8 622.507 153.159   1
   8   4   8 431.464 96.5242   3
   9  -4   8 224.951 51.5362   3
  -9   4  -8 365.811 122.225   1
   9   4   8 345.525 89.4456   3
  10  -4   8 509.023 74.3896   3
 -10   4  -8 562.162 151.644   1
  10   4   8 538.445 116.038   3
  11  -4   8 431.759 65.3493   3
 -11   4  -8 548.072 149.468   1
  11   4   8 496.411 113.316   3
 -12   4  -8 1705.50 270.406   1
  12  -4   8 1767.83 125.596   3
  12   4   8 1775.35 219.694   3
 -13   4  -8 60.2575 47.2421   1
  13  -4   8 98.0283 26.5696   3
  13   4   8 136.129 66.1612   3
 -14   4  -8 214.352 87.0113   1
  14   4   8 154.698 65.7879   3
  14  -4   8 101.858 21.1372   3
 -15   4  -8-16.6557 41.0312   1
  15   4   8 103.093 50.4119   3
 -16   4  -8 174.334 98.9120   1
  16   4   8 101.086 54.0326   3
 -17   4  -8 363.252 144.419   1
  17   4   8 193.135 82.6256   3
 -18   4  -8 339.704 135.905   1
  18   4   8 345.080 117.350   3
 -19   4  -8-48.9729 53.4593   1
  19   4   8 27.6717 21.4868   3
 -20   4  -8 143.127 91.7608   1
  20   4   8 125.085 72.9427   3
 -21   4  -8 95.7321 69.6789   1
  21   4   8 71.3027 59.0720   3
 -22   4  -8 48.1167 76.0207   1
  22   4   8 101.909 62.3137   3
 -23   4  -8 62.2054 40.0392   1
  23   4   8-31.6353 38.0852   3
  24   4   8-26.9702 36.2044   3
  25   4   8-37.6248 43.2266   3
 -22   5   8 154.168 83.5761   1
 -21   5   8 126.419 92.4796   1
 -20   5   8 47.9716 71.5347   1
 -19   5   8-29.7492 44.6411   1
 -19  -5   8-25.4363 55.5022   2
 -18   5   8 90.8612 67.5813   1
 -18  -5   8 111.778 104.364   2
 -17   5   8 190.068 101.796   1
 -17  -5   8 447.670 180.648   2
 -16   5   8 8.66604 31.1990   1
 -16  -5   8-57.3624 125.186   2
 -15   5   8 264.231 122.871   1
 -15  -5   8 171.360 104.942   2
 -15   5   8 94.6124 29.4887   3
 -14   5   8 9.06903 21.1620   1
 -14  -5   8 50.6213 91.1812   2
 -14   5   8 0.25435 11.5320   3
 -13   5   8 139.834 71.6856   1
 -13  -5   8 412.706 157.299   2
 -13   5   8 356.704 65.3991   3
 -12  -5   8 54.5039 40.7389   1
 -12   5   8 28.9200 45.6466   1
 -12  -5   8 34.0027 72.1048   2
 -12   5   8 52.7713 23.8754   3
 -11   5   8 80.1134 58.7499   1
 -11  -5   8-92.9617 100.527   2
 -11   5   8 24.4580 21.1621   3
 -11  -5   8 33.3502 20.4422   1
 -10   5   8 158.288 78.0046   1
 -10  -5   8 192.695 93.8069   2
 -10  -5   8 66.3107 42.8611   1
 -10   5   8 160.726 51.3682   3
  -9   5   8 166.712 88.4221   1
  -9  -5   8 218.937 95.0870   2
  -9  -5   8 161.697 68.7831   1
  -9   5   8 218.568 58.1906   3
  -8   5   8 793.263 168.659   1
  -8  -5   8 648.933 142.114   1
  -8   5   8 679.564 105.118   3
  -8  -5   8 759.477 170.598   2
  -7  -5   8 873.829 171.220   2
  -7  -5   8 804.382 158.620   1
  -7   5   8 734.849 112.695   3
  -7   5   8 847.423 172.755   1
  -6  -5   8-16.8953 33.8387   2
  -6   5   8 20.0245 20.3698   1
  -6  -5   8-31.5596 31.3383   1
   6  -5  -8 34.0846 46.9003   2
  -6   5   8 50.1883 32.5404   3
  -5  -5   8 32.1333 33.0572   2
  -5   5   8 35.5349 65.5605   1
  -5  -5   8 21.2725 32.0556   1
   5  -5  -8 59.5917 57.2281   2
  -5   5   8 11.7555 13.0904   3
  -4  -5   8 6.91610 22.3531   2
  -4   5   8 18.4023 34.2226   1
  -4  -5   8 23.7992 25.7315   1
   4  -5  -8 71.4223 59.8630   2
   4   5  -8-26.3474 40.7850   1
  -4   5   8 4.00789 7.49398   3
  -3  -5   8 287.145 83.6985   2
  -3  -5   8 251.628 87.0981   1
  -3   5   8 299.165 93.6995   1
   3  -5  -8 359.258 136.650   2
   3   5  -8 259.312 96.7101   1
  -3   5   8 300.070 80.5596   3
  -2  -5   8 15.9989 34.2233   2
  -2  -5   8 20.8838 33.1958   1
   2  -5  -8-12.9080 32.7970   2
   2   5  -8-26.1998 23.1902   1
  -2   5   8-8.30516 17.4331   3
   1   5  -8 197.222 82.3864   1
  -1   5   8 173.501 56.4127   3
   1  -5  -8 189.212 71.7465   2
  -1  -5   8 325.019 86.8661   2
   0  -5  -8 463.364 100.237   2
   0  -5   8 511.258 103.903   3
   0   5   8 524.144 100.798   3
   0   5  -8 587.985 149.785   1
  -1  -5  -8 91.8830 47.8825   2
   1   5   8 86.2275 40.5343   1
  -1   5  -8 76.1881 56.4323   1
   1  -5   8 125.955 53.9221   3
   1   5   8 101.674 46.7863   3
  -2  -5  -8 95.4844 32.5575   2
   2   5   8 129.369 44.0299   1
  -2   5  -8 122.908 70.2991   1
   2  -5   8 83.9386 36.3182   3
   2   5   8 44.5980 28.8706   3
  -3  -5  -8 5.70673 8.53086   2
  -3   5  -8-1.03721 26.9891   1
   3   5   8-6.72587 14.4978   1
   3  -5   8 9.30653 19.9119   3
   3   5   8 11.9066 9.49975   3
  -4   5  -8 87.8258 58.5480   1
   4   5   8 75.1284 27.0484   1
   4   5   8 93.0519 48.4333   3
   4  -5   8 127.424 48.8400   3
   5   5   8 167.969 34.7362   1
   5  -5   8 187.159 58.7091   3
   5   5   8 117.235 57.4709   3
   5   5   8 171.975 38.6160   1
  -5   5  -8 112.786 61.4269   1
   6   5   8 361.636 89.2932   3
   6  -5   8 428.356 82.3611   3
  -6   5  -8 403.420 122.903   1
   7  -5   8 132.293 46.5337   3
  -7   5  -8 43.0539 35.4843   1
   7   5   8 147.279 61.3879   3
   8   5   8 56.0396 44.3598   3
   8  -5   8 48.2231 27.4252   3
  -8   5  -8 86.9855 65.9853   1
  -9   5  -8-13.8427 26.3001   1
   9  -5   8 21.8618 17.1120   3
   9   5   8 14.2570 27.5237   3
 -10   5  -8 96.2650 57.4838   1
  10  -5   8 81.0534 31.2373   3
  10   5   8 80.9289 51.7553   3
 -11   5  -8 246.844 109.731   1
  11   5   8 300.357 97.8389   3
 -12   5  -8 229.537 105.680   1
  12   5   8 261.267 88.1747   3
 -13   5  -8 86.9882 67.8778   1
  13   5   8 24.2363 26.3348   3
 -14   5  -8 17.3863 19.7846   1
  14   5   8 106.078 70.1571   3
 -15   5  -8 42.1670 48.7606   1
  15   5   8 17.6246 26.5890   3
 -16   5  -8-9.23990 31.3240   1
  16   5   8 6.84044 22.9469   3
 -17   5  -8 120.201 99.8405   1
  17   5   8-79.3036 55.5145   3
 -18   5  -8-11.8656 41.2008   1
  18   5   8 73.9521 54.7624   3
 -19   5  -8 128.268 89.0719   1
  19   5   8 248.203 101.024   3
  20   5   8-22.2641 42.0989   3
 -20   5  -8-31.2860 46.6451   1
 -21   5  -8 68.5216 69.5766   1
  21   5   8 216.365 100.617   3
  22   5   8 182.351 95.9181   3
 -19   6   8 75.9682 71.3447   1
 -18   6   8-25.9869 42.6722   1
 -17   6   8 206.288 112.280   1
 -16   6   8-48.2874 54.0073   1
 -15   6   8-7.55899 20.0008   1
 -15  -6   8 31.7742 55.2663   2
 -14   6   8 90.7282 69.6410   1
 -14  -6   8-8.79716 59.7068   2
 -13   6   8-58.3399 54.9370   1
 -13  -6   8-88.6080 50.9169   2
 -13   6   8-2.37404 14.2215   3
 -12  -6   8 70.9987 57.9236   2
 -12   6   8 20.5078 32.1705   1
 -12   6   8 61.0079 35.3183   3
 -11  -6   8 51.1687 52.6679   2
 -11   6   8-16.4436 45.7373   1
 -11   6   8 87.9367 40.2991   3
 -10  -6   8 34.1203 74.3894   2
 -10   6   8-5.25842 18.0211   1
 -10   6   8-15.2019 22.8035   3
  -9  -6   8 346.259 119.025   2
  -9   6   8 229.130 94.2019   1
  -9   6   8 263.409 68.5266   3
  -8  -6   8-60.9118 37.0970   2
  -8   6   8-42.4657 41.0399   1
  -8   6   8-16.2313 27.4072   3
  -7  -6   8-26.4147 41.5411   2
  -7   6   8-18.4111 27.3703   1
  -7   6   8 8.97245 7.91574   3
  -6  -6   8 25.0013 18.8328   2
  -6   6   8 2.98428 30.8037   1
  -6   6   8 17.5412 12.5458   3
  -5  -6   8 96.6949 55.5613   2
  -5   6   8 72.0980 46.1493   1
   5  -6  -8 74.8212 68.4708   2
  -5   6   8 31.3123 9.54662   3
   4   6  -8 107.127 65.9376   1
  -4  -6   8 122.231 68.8255   2
  -4   6   8 123.482 64.2845   1
   4  -6  -8 146.263 73.9747   2
  -4   6   8 59.0587 27.0280   3
   3  -6  -8 1717.51 284.925   2
   3   6  -8 1577.35 258.924   1
  -3   6   8 1259.67 162.943   3
  -3   6   8 1500.56 209.749   1
  -3  -6   8 1621.02 213.720   2
  -2  -6   8 66.8122 28.2444   2
  -2   6   8 11.5138 15.8062   3
   2  -6  -8 10.1717 60.5842   2
  -2   6   8-15.9012 21.1171   1
   2   6  -8 0.15931 36.6435   1
   1   6  -8 162.571 90.3782   1
   1  -6  -8 78.3688 27.0499   2
  -1   6   8 245.948 81.9993   1
  -1   6   8 214.925 71.1289   3
  -1  -6   8 207.974 78.4777   2
   0  -6  -8 185.572 60.8368   2
   0   6   8 235.411 73.1437   3
   0   6  -8 268.061 100.677   1
  -1  -6  -8-4.62624 7.82343   2
  -1   6  -8-0.32878 29.7226   1
   1   6   8 41.2002 29.3370   3
  -2  -6  -8 100.427 34.4650   2
  -2   6  -8 54.9531 46.2402   1
   2   6   8 115.660 44.5792   1
   2   6   8 167.119 66.4968   3
  -3  -6  -8 24.4086 10.9244   2
  -3   6  -8-12.5168 51.3257   1
   3   6   8 97.4260 35.7824   1
   3   6   8 38.2524 37.7158   3
  -4   6  -8-8.26954 21.6182   1
   4  -6   8-0.66081 19.1685   3
   4   6   8-28.6945 32.7072   3
   4   6   8-9.05262 9.95947   1
  -5   6  -8 299.183 127.021   1
   5   6   8 181.123 34.7214   1
   5   6   8 267.062 90.6698   3
   5  -6   8 161.922 60.1673   3
   6  -6   8 301.730 74.7015   3
   6   6   8 204.954 80.6613   3
  -6   6  -8 371.188 128.770   1
   7   6   8 3.64735 27.0317   3
   7  -6   8 27.9111 24.1123   3
  -7   6  -8-17.8012 30.8450   1
   8   6   8 265.909 92.8725   3
  -8   6  -8 216.134 105.789   1
   9   6   8 328.537 106.389   3
  -9   6  -8 262.061 115.989   1
 -10   6  -8 97.0592 60.8077   1
  10   6   8 104.910 63.5939   3
 -11   6  -8 341.493 139.978   1
  11   6   8 506.538 131.271   3
 -12   6  -8 15.6972 31.0146   1
  12   6   8 16.3871 37.0315   3
 -13   6  -8 238.914 118.135   1
  13   6   8 103.789 65.6010   3
 -14   6  -8-76.2772 56.3792   1
  14   6   8 33.9736 42.4002   3
  15   6   8 116.553 57.0741   3
 -15   6  -8 158.490 98.4615   1
 -16   6  -8-88.6115 75.2496   1
  16   6   8 56.8008 63.1176   3
 -17   6  -8-88.2599 76.6809   1
  17   6   8-17.2783 29.9907   3
 -18   6  -8-95.2430 81.0729   1
  18   6   8 60.7183 53.1792   3
 -17   7   8-105.167 83.0252   1
 -16   7   8 58.6696 60.8757   1
 -15   7   8 185.200 104.886   1
 -14   7   8 248.101 125.891   1
 -13   7   8 283.464 118.201   1
 -12   7   8-56.0212 54.0928   1
 -11   7   8 251.361 114.978   1
 -10   7   8 3.82834 7.93617   3
 -10  -7   8 13.1098 20.7748   2
 -10   7   8 6.00856 19.2832   1
  -9   7   8 11.4256 47.4718   1
  -9   7   8 6.10426 16.7744   3
  -8   7   8 25.8939 19.9702   3
  -8  -7   8 68.5774 71.3673   2
  -8   7   8 31.2317 37.0970   1
  -7  -7   8 8.00912 41.7725   2
  -7   7   8 64.2403 50.5607   1
  -7   7   8 29.0638 22.2244   3
  -6   7   8 136.789 71.6171   1
  -6  -7   8 194.839 93.2856   2
  -6   7   8 161.283 67.0607   3
  -5   7   8 114.248 52.4410   3
  -5  -7   8 42.5696 40.1887   2
  -5   7   8 104.677 60.6722   1
   4   7  -8 26.3354 46.1259   1
  -4  -7   8 86.7411 55.3758   2
  -4   7   8 76.9777 50.4606   1
  -4   7   8 6.16175 12.7466   3
  -3  -7   8 18.8931 28.1265   2
  -3   7   8 2.13355 10.1316   1
  -3   7   8 46.2724 38.0333   3
   3   7  -8 33.3375 39.9092   1
  -2  -7   8 38.9669 34.5667   2
  -2   7   8 22.4126 25.9081   1
  -2   7   8 12.6399 24.4171   3
   2   7  -8 20.1565 31.9296   1
  -1  -7   8 36.6770 29.5715   2
   1   7  -8 5.64070 29.9406   1
  -1   7   8 28.6346 22.8804   1
  -1   7   8 31.7122 31.3537   3
   0   7  -8 21.7797 39.5843   1
   0   7   8 3.93925 19.8359   3
   0   7   8 33.9007 28.3531   1
  -1   7  -8 60.7699 54.6512   1
   1   7   8-35.6665 33.1582   3
  -2   7  -8 86.7791 72.4610   1
   2   7   8 95.0130 51.2172   3
  -3   7  -8 137.278 77.6956   1
   3   7   8 11.6644 15.5944   3
  -4   7  -8 110.269 83.7591   1
   4   7   8 53.9586 38.5397   3
  -5   7  -8 182.963 109.462   1
   5   7   8 238.819 89.9136   3
  -6   7  -8 22.7455 45.3133   1
   6   7   8 1.45107 37.3918   3
   7   7   8 34.4275 44.0086   3
  -7   7  -8 8.81246 34.4799   1
   8   7   8 101.061 61.3312   3
  -8   7  -8-61.6801 58.9639   1
   9   7   8 72.5674 56.7392   3
  -9   7  -8 28.3251 66.4612   1
  10   7   8-11.8928 30.1976   3
 -10   7  -8-40.0694 49.5919   1
  11   7   8 202.733 91.1006   3
 -11   7  -8 93.2086 99.9393   1
 -12   7  -8 3.14031 23.3086   1
  12   7   8-12.1209 25.6015   3
 -13   7  -8 376.478 156.759   1
  13   7   8 275.340 112.376   3
 -14   7  -8 281.579 135.818   1
  14   7   8 329.247 121.303   3
 -15   7  -8 82.3609 75.7808   1
  15   7   8 99.7666 58.2575   3
 -14   8   8 211.658 113.246   1
 -13   8   8-25.7600 40.0752   1
 -12   8   8-41.4711 48.8914   1
 -11   8   8 46.3481 50.1244   1
 -10   8   8 95.6887 69.6619   1
  -9   8   8 120.293 76.0639   1
  -8   8   8-44.1433 45.4118   1
  -7   8   8-0.66809 24.9392   1
  -7   8   8 21.8925 25.0477   3
  -6   8   8 92.7917 66.6201   1
  -6   8   8 110.360 60.8466   3
  -5   8   8 33.2489 32.5186   3
  -5   8   8-25.5067 32.0992   1
  -4  -8   8 142.025 73.1470   2
  -4   8   8 93.0943 52.2730   3
  -4   8   8 115.543 65.2405   1
  -3  -8   8-43.2997 41.0280   2
  -3   8   8-2.44861 11.8964   3
   3   8  -8 42.9759 47.7788   1
  -3   8   8-48.2119 40.5831   1
  -2  -8   8 198.064 85.5384   2
  -2   8   8 68.4950 50.8392   3
   2   8  -8 152.765 89.5051   1
  -1  -8   8 7.91419 23.4413   2
   1   8  -8 70.6601 39.1599   1
  -1   8   8 30.1851 50.1610   3
   0  -8   8 46.0160 19.7671   2
   0   8  -8 66.0846 60.2128   1
   0   8   8 92.4432 68.6945   3
  -1   8  -8-43.6843 49.7328   1
   1   8   8 17.7934 34.1303   3
   2   8   8 309.559 104.152   3
  -2   8  -8 191.229 102.355   1
  -3   8  -8 32.4075 43.7709   1
   3   8   8-8.53066 39.7874   3
   4   8   8 37.7370 20.3169   3
  -4   8  -8-24.2986 38.3920   1
  -5   8  -8 259.110 122.595   1
   5   8   8 124.122 61.1478   3
  -6   8  -8-83.5156 71.2686   1
   6   8   8 49.3118 46.5379   3
  -7   8  -8-8.52768 25.3312   1
   7   8   8 90.8462 64.7822   3
  -8   8  -8 64.9478 64.2338   1
   8   8   8 44.6219 58.1348   3
  -9   8  -8-70.1594 67.5435   1
   9   8   8 114.640 70.6223   3
  10   8   8 235.727 102.256   3
 -10   8  -8 191.829 112.296   1
 -11   8  -8-1.83988 19.7362   1
 -10   9   8 26.1305 38.9726   1
  -9   9   8-2.83538 15.7772   1
  -4   9   8 68.9736 48.6405   3
  -3   9   8 39.1373 41.6096   3
  -2   9   8 14.9053 25.2834   3
   1   9  -8 53.8642 57.6064   1
  -1   9   8 67.9299 50.8106   3
   0   9   8 49.5162 44.3316   3
   0   9  -8 108.741 80.8734   1
  -1   9  -8 115.701 83.8301   1
   1   9   8 36.0207 31.5434   3
  -2   9  -8 65.9783 64.2819   1
   2   9   8 3.92686 23.1359   3
   3   9   8-90.3105 53.4804   3
  -3   9  -8 3.19513 20.0805   1
  -4   9  -8 86.9546 75.2751   1
   4   9   8 3.31798 29.8358   3
  -5   9  -8 141.998 96.5075   1
  -6   9  -8-139.832 96.7546   1
  -7   9  -8 84.7907 77.0164   1
 -28   0   9 13.2616 42.8191   1
 -27   0   9-39.1907 54.2210   1
 -26   0   9-123.252 91.0496   1
 -25   0   9 19.2078 52.3101   1
 -24   0   9 94.0184 76.2240   1
 -24   0   9 84.2180 35.6742   2
 -23   0   9 57.9819 66.0067   1
 -23   0   9-367.399 217.303   2
 -22   0   9-26.3239 58.2614   1
 -22   0   9 29.3570 76.6706   2
 -21   0   9 17.8822 56.1835   1
 -21   0   9 42.5567 157.247   2
 -20   0   9 27.7257 46.9309   1
 -20   0   9-68.9338 92.2802   2
 -19   0   9-5.86018 95.3298   2
 -18   0   9-8.93882 123.267   2
 -17   0   9-3.86673 34.1845   3
 -17   0   9-84.0650 109.588   2
 -16   0   9 6.12220 20.8412   3
 -16   0   9 118.674 138.599   2
 -15   0   9 7.36886 29.6073   3
 -15   0   9-45.8611 133.344   2
 -14   0   9 7.57732 20.1302   3
 -14   0   9-2.03998 82.8836   2
 -13   0   9 1.32457 10.8892   3
 -13   0   9 9.96172 72.9683   2
 -12   0   9-31.2258 86.0381   2
  11   0  -9-27.7503 34.2548   2
 -11   0   9-45.6428 101.418   2
  10   0  -9-3.41163 15.0724   2
   9   0  -9 7.57406 33.7269   2
   8   0  -9 35.9307 35.3736   2
   7   0  -9 24.6497 29.2265   2
   6   0  -9 14.9975 35.9388   2
   5   0  -9 30.2293 28.8903   2
   4   0  -9-0.51669 18.0108   2
   3   0  -9-0.06459 10.8190   2
   2   0  -9-10.2336 20.6467   2
   1   0  -9-15.1562 15.8784   2
  -1   0   9 6.86242 29.4383   1
   0   0   9 36.2354 32.2878   1
   1   0   9-2.40291 7.94600   1
   2   0   9 14.9609 29.5214   1
   3   0   9-7.39917 28.9210   1
  -3   0  -9 21.0145 33.2881   1
  -4   0  -9-21.5653 22.6214   1
   4   0   9-3.51487 11.0214   1
  -5   0  -9-5.22736 24.6071   1
   5   0   9-3.14711 13.6864   1
   6   0   9-16.4818 19.3515   1
  -6   0  -9 5.45912 31.6262   1
   7   0   9 31.2191 33.1933   1
  -7   0  -9 8.58733 8.33882   1
   8   0   9-8.77837 14.8527   1
  -8   0  -9 11.9765 21.0757   1
  -9   0  -9 8.93780 18.8066   1
   9   0   9-10.1705 16.1046   1
 -10   0  -9-13.5890 29.8060   1
  10   0   9-2.25812 12.6198   1
  11   0   9-3.27852 11.6860   1
  11   0   9 37.0134 37.0133   3
 -11   0  -9 29.6147 37.6736   1
  12   0   9 38.0801 32.3038   1
 -12   0  -9 30.8458 22.0310   1
  12   0   9 31.3134 30.6983   3
  13   0   9-67.4997 44.2536   1
 -13   0  -9-11.7099 15.6815   1
  13   0   9 69.8737 37.1017   3
  14   0   9-8.96546 30.8744   1
 -14   0  -9 11.9059 46.3143   1
  14   0   9-0.65409 15.8367   3
  15   0   9 10.6527 20.0023   1
 -15   0  -9-3.70154 27.7498   1
  15   0   9-1.59421 7.68141   3
 -16   0  -9 8.53349 16.5884   1
  16   0   9 16.3068 19.1371   3
  17   0   9-11.0021 12.0721   3
 -17   0  -9-46.2731 41.0503   1
 -18   0  -9 38.5910 40.3107   1
  18   0   9 50.4721 39.8846   3
 -19   0  -9-7.17161 17.8200   1
  19   0   9-6.60566 20.7802   3
 -20   0  -9-2.19124 26.7479   1
  20   0   9-13.5495 24.9400   3
 -21   0  -9-20.8378 31.3435   1
  21   0   9-11.0779 16.6770   3
 -22   0  -9 75.2873 55.6174   1
  22   0   9 66.8431 36.9835   3
 -23   0  -9-4.50351 33.4865   1
 -24   0  -9 15.6352 29.4579   1
 -25   0  -9-48.0086 50.5512   1
 -28  -1   9 144.432 103.770   1
 -27  -1   9 61.1059 69.8147   1
 -27   1   9 168.718 110.346   1
 -26  -1   9-135.335 92.5825   1
 -26   1   9 13.1620 72.8653   1
 -25  -1   9 44.6349 53.5622   1
 -25   1   9 52.0026 60.3757   1
 -25  -1   9 97.3828 112.286   2
 -24  -1   9 65.8810 62.4690   1
 -24   1   9 10.1722 29.6297   1
 -24  -1   9 218.635 169.833   2
 -23  -1   9 20.2431 43.1992   1
 -23   1   9 61.2071 64.2969   1
 -23   1   9 2.61894 124.039   2
 -22  -1   9 601.067 180.725   1
 -22   1   9 350.439 143.805   1
 -22  -1   9 46.4043 76.2469   2
 -22   1   9 344.856 232.761   2
 -21   1   9 260.047 118.785   1
 -21  -1   9 406.801 227.644   2
 -21   1   9 102.382 146.678   2
 -21  -1   9 374.217 144.299   1
 -20   1   9-18.8326 41.8991   1
 -20  -1   9 62.4994 125.627   2
 -20   1   9 158.295 164.007   2
 -19   1   9 111.210 71.6776   1
 -19  -1   9 203.404 156.271   2
 -19   1   9 184.405 137.197   2
 -18   1   9 125.414 89.0127   1
 -18   1   9 143.902 41.8585   3
 -18   1   9-28.0323 108.094   2
 -17   1   9 121.144 132.689   2
 -17   1   9 54.4560 34.5479   3
 -17  -1   9 154.215 141.008   2
 -16   1   9 1587.40 172.054   3
 -16  -1   9 1847.93 422.729   2
 -16   1   9 2185.43 464.203   2
 -15   1   9 1271.34 152.866   3
 -15  -1   9 1131.78 315.403   2
 -15   1   9 1154.67 339.825   2
 -14  -1   9 141.587 123.472   2
 -14   1   9 392.554 203.363   2
 -13  -1   9 379.729 177.723   2
 -13  -1   9 293.374 78.9675   3
 -13   1   9 541.350 228.221   2
  12   1  -9 214.780 91.0079   2
 -12  -1   9 136.115 114.859   2
 -12  -1   9 159.182 61.5501   3
 -12   1   9 222.441 136.903   2
  11   1  -9 62.7527 50.6588   2
  11  -1  -9 5.31369 73.4049   2
 -11  -1   9 96.4817 68.3431   2
 -11  -1   9 34.9931 23.9969   3
  10   1  -9 41.0149 44.6463   2
  10  -1  -9-24.2723 44.5071   2
 -10  -1   9 3.94153 64.1476   2
 -10  -1   9-13.6277 15.5723   3
   9   1  -9 29.7505 41.6171   2
   9  -1  -9 19.2827 34.2789   2
  -9  -1   9 12.3949 16.4303   2
   8   1  -9 111.345 60.9219   2
   8  -1  -9 128.171 61.7392   2
  -8  -1   9 150.959 73.4261   2
   7   1  -9 108.194 47.8180   2
   7  -1  -9 107.902 67.1488   2
   6   1  -9 290.309 77.8532   2
   6  -1  -9 269.970 88.8267   2
   5  -1  -9 3931.21 320.532   2
   5   1  -9 4167.14 278.834   2
   4   1  -9 121.825 47.6968   2
   4  -1  -9 87.6035 49.9898   2
  -4  -1   9 5.04820 20.5987   1
   3   1  -9 60.5673 44.2265   2
   3  -1  -9 38.8782 37.7169   2
  -3  -1   9 31.6183 42.7021   1
  -2  -1   9 1256.57 174.237   1
   2  -1  -9 1272.24 148.204   2
  -1  -1   9 203.573 68.1084   1
   1  -1  -9 312.187 71.1804   2
  -1   1   9 211.613 70.9350   2
   0  -1  -9 82.1540 34.2756   2
   0   1   9 89.6977 38.2149   2
   0  -1   9 91.9472 51.0121   1
   1   1   9 1658.59 176.069   2
   1   1   9 1584.42 181.507   1
   1  -1   9 1548.13 191.652   1
  -1  -1  -9 1717.88 145.682   2
   2   1   9 2315.87 215.703   1
   2  -1   9 2146.88 226.146   1
   2   1   9 1950.33 179.722   2
   3   1   9 103.089 36.7129   2
   3   1   9 93.3132 39.2121   1
   3  -1   9 83.0355 42.8708   1
   4   1   9 372.258 70.3050   2
   4   1   9 339.427 78.1869   1
   4  -1   9 392.065 97.6960   1
   5   1   9 40.6564 23.5997   2
   5  -1   9 66.1895 37.1838   1
  -5   1  -9 109.915 54.8737   1
   5   1   9 77.3502 39.1258   1
   6  -1   9 379.440 98.6464   1
  -6   1  -9 366.318 99.9646   1
  -6  -1  -9 365.655 88.1161   1
   6   1   9 370.777 84.3008   1
  -7  -1  -9 766.557 126.580   1
   7  -1   9 803.999 142.684   1
   7   1   9 802.430 125.198   1
  -7   1  -9 941.076 163.550   1
  -8   1  -9 307.190 96.9676   1
   8   1   9 263.122 71.8912   1
  -8  -1  -9 301.176 81.5111   1
   8  -1   9 273.879 86.6916   1
   9  -1   9 2175.04 246.105   1
   9   1   9 1891.01 192.368   1
  -9   1  -9 2018.06 241.627   1
   9   1   9 2101.60 190.094   3
  -9  -1  -9 2006.21 209.475   1
 -10  -1  -9 375.741 91.3651   1
  10  -1   9 275.833 89.3192   1
  10   1   9 412.630 90.3349   1
 -10   1  -9 362.665 103.595   1
  10   1   9 412.870 87.2439   3
  11   1   9 1154.75 157.366   1
  11  -1   9 1384.92 207.283   1
  11   1   9 1123.33 142.533   3
 -11   1  -9 1040.16 179.427   1
 -11  -1  -9 1253.17 170.301   1
 -12  -1  -9 275.293 80.9030   1
  12   1   9 261.249 78.5019   1
  12  -1   9 275.680 90.2973   1
 -12   1  -9 232.228 84.6407   1
  12   1   9 217.953 64.7388   3
 -13  -1  -9 18.5726 26.7482   1
  13   1   9 53.1283 41.3845   1
 -13   1  -9-24.0685 39.6555   1
  13   1   9-36.1822 32.2565   3
  13  -1   9 28.0091 27.2190   3
 -14  -1  -9 97.4428 55.4157   1
  14   1   9 64.3522 34.6125   3
  14   1   9 68.7433 38.7093   1
 -14   1  -9 61.5294 51.4150   1
  14  -1   9 117.405 42.8908   3
 -15  -1  -9 391.402 105.370   1
  15   1   9 384.773 105.009   1
  15   1   9 321.166 78.2088   3
 -15   1  -9 391.284 117.562   1
  15  -1   9 415.560 78.1768   3
  16   1   9 53.8903 32.4918   1
 -16   1  -9 54.4596 13.0628   1
  16   1   9 54.2712 29.4175   3
  16  -1   9 70.0045 33.2443   3
 -16  -1  -9 9.89378 14.4504   1
  17   1   9-52.0191 40.4779   1
 -17   1  -9-25.6306 39.6685   1
  17   1   9 15.6532 26.8364   3
  17  -1   9 16.1565 11.2161   3
 -17  -1  -9 28.0659 35.3367   1
  18   1   9 512.357 132.233   1
 -18   1  -9 381.591 130.878   1
  18   1   9 478.130 105.349   3
  18  -1   9 395.673 77.5983   3
 -18  -1  -9 389.093 111.587   1
 -19   1  -9 19.0076 23.4330   1
  19   1   9-2.63354 24.0257   3
 -19  -1  -9-1.93825 18.4061   1
  19  -1   9 26.4368 25.0580   3
  20   1   9 17.9902 17.0443   3
 -20   1  -9-25.1802 32.4494   1
  20  -1   9 65.1874 31.4369   3
 -20  -1  -9 54.7791 44.2201   1
 -21   1  -9 27.4591 37.4110   1
  21   1   9 37.6180 43.2831   3
 -21  -1  -9 16.0857 25.6973   1
 -22  -1  -9 62.9929 47.4448   1
 -22   1  -9 21.5941 41.9446   1
  22   1   9-26.2298 27.7164   3
 -23   1  -9-78.4269 54.1648   1
  23   1   9-4.40485 13.7025   3
 -23  -1  -9-8.75371 23.0344   1
 -24   1  -9 11.1661 51.7272   1
 -25   1  -9-62.5400 60.2283   1
 -26   1  -9 32.6164 45.3667   1
 -27   1  -9 34.5060 47.9981   1
 -26  -2   9 129.511 80.3551   1
 -26   2   9 261.515 145.014   1
 -25  -2   9 243.317 107.696   1
 -25   2   9 101.440 84.6681   1
 -25  -2   9 333.118 176.754   2
 -24  -2   9 57.1538 56.8472   1
 -24   2   9 15.9217 55.0534   1
 -23  -2   9 114.172 122.186   2
 -23  -2   9-1.01004 16.0380   1
 -23   2   9-6.99298 45.8433   1
 -22   2   9 120.355 104.701   1
 -22  -2   9 58.1996 87.8283   2
 -22  -2   9 131.352 89.7136   1
 -21   2   9-1.60021 18.2678   1
 -21  -2   9 16.8721 53.6779   2
 -21   2   9-42.6856 153.308   2
 -20   2   9 26.7714 38.2706   1
 -20  -2   9 161.667 213.264   2
 -20   2   9-113.850 118.685   2
 -19   2   9 113.083 91.6473   1
 -19   2   9 224.741 61.3027   3
 -19  -2   9 330.010 189.148   2
 -19   2   9 524.400 242.807   2
 -18   2   9 79.1079 68.1138   1
 -18  -2   9 64.9376 106.167   2
 -18   2   9-38.4480 66.7886   2
 -17   2   9 396.833 133.714   1
 -17  -2   9 669.547 256.976   2
 -17   2   9 243.838 132.144   2
 -16   2   9 184.055 97.1749   1
 -16   2   9 299.197 171.717   2
 -16  -2   9 287.697 137.958   2
 -15  -2   9 70.7789 91.6270   2
 -15   2   9 94.2892 60.9589   1
 -14   2   9 68.2718 75.9019   2
 -14  -2   9 18.2425 101.779   2
 -13  -2   9 18.0644 53.3528   2
 -13   2   9 30.8022 25.7714   2
  12   2  -9 368.509 100.176   2
 -12  -2   9 633.900 220.998   2
 -12   2   9 549.911 212.370   2
  11   2  -9 337.488 97.0027   2
 -11  -2   9 402.935 162.999   2
 -11   2   9 346.411 185.538   2
  10   2  -9 153.411 69.3152   2
  10  -2  -9 204.719 115.035   2
 -10  -2   9 319.542 132.361   2
 -10  -2   9 247.487 72.5782   3
 -10   2   9 217.744 127.305   2
   9   2  -9 49.0265 23.3753   2
  -9  -2   9-4.30577 53.6107   2
   9  -2  -9 6.77213 63.2404   2
  -8  -2   9 692.764 162.986   2
   8  -2  -9 646.884 166.547   2
   8   2  -9 647.145 119.064   2
   7   2  -9 121.030 53.2631   2
  -7  -2   9 86.8886 41.1481   1
  -7  -2   9 125.413 68.8455   2
   7  -2  -9 63.1137 42.2046   2
  -7   2   9 38.0273 66.4351   2
   6   2  -9 10.3233 20.9972   2
  -6  -2   9-5.05324 35.7907   2
   6  -2  -9 11.5877 28.5352   2
  -6  -2   9 19.5397 23.5518   1
  -5  -2   9 2589.14 268.939   2
   5  -2  -9 2704.83 291.486   2
  -5  -2   9 2538.78 262.950   1
   5   2  -9 2693.63 217.598   2
  -4  -2   9 443.526 107.593   2
  -4  -2   9 335.691 98.1983   1
   4  -2  -9 288.054 92.9398   2
   3  -2  -9 790.071 137.146   2
  -3  -2   9 790.345 143.493   1
  -3   2   9 861.299 194.429   2
   2  -2  -9 1250.47 161.922   2
  -2   2   9 1342.95 223.644   2
  -2  -2   9 1223.21 178.796   1
  -1   2   9 1173.46 192.414   2
  -1  -2   9 1016.28 163.312   1
   1  -2  -9 1004.40 131.343   2
   0   2   9 807.899 147.043   2
   0  -2   9 1061.22 166.236   1
   0  -2  -9 1108.95 128.337   2
  -1  -2  -9 238.555 54.5591   2
   1   2   9 211.054 73.4919   2
   1  -2   9 246.128 78.8806   1
   2   2   9 1621.55 181.140   2
   2  -2   9 2007.23 233.222   1
  -2  -2  -9 1949.29 146.162   2
   3   2   9 83.8044 42.5890   2
   3  -2   9 70.0591 44.0893   1
   3   2   9 88.0224 40.5080   1
   4   2   9 510.958 91.0310   2
   4  -2   9 773.414 146.631   1
   4   2   9 567.450 97.8319   1
   5   2   9 143.681 46.0756   2
   5   2   9 158.988 51.7593   1
   5  -2   9 142.568 66.8743   1
   6   2   9 214.604 57.6274   1
   6  -2   9 125.324 59.0570   1
   6   2   9 178.890 48.0504   2
   7  -2   9 410.331 112.390   1
  -7   2  -9 344.603 103.328   1
   7   2   9 358.017 64.3699   2
   7   2   9 383.226 76.2710   1
   7   2   9 444.740 92.2271   3
   8  -2   9 1016.09 177.116   1
   8   2   9 1004.40 123.192   1
  -8   2  -9 959.189 174.871   1
   8   2   9 1004.22 142.108   3
   8   2   9 1039.94 107.963   2
   9   2   9 421.138 80.4043   1
  -9   2  -9 356.073 107.757   1
   9  -2   9 469.575 123.573   1
   9   2   9 377.237 85.5899   3
  10   2   9 532.712 90.7955   1
 -10  -2  -9 654.928 109.796   1
  10   2   9 697.183 117.433   3
 -10   2  -9 728.907 158.538   1
 -11  -2  -9 696.696 115.122   1
 -11   2  -9 702.756 157.944   1
  11   2   9 629.208 117.483   3
  11   2   9 642.232 101.841   1
 -12  -2  -9 1271.08 158.525   1
 -12   2  -9 1357.17 222.578   1
  12   2   9 1577.69 184.631   3
  12   2   9 1475.40 161.722   1
 -13   2  -9 1465.61 236.527   1
  13   2   9 1499.75 181.595   3
 -13  -2  -9 1462.52 173.619   1
  13   2   9 1510.93 168.999   1
  14   2   9 508.155 101.509   1
 -14   2  -9 566.092 150.176   1
  14  -2   9 598.667 85.7390   3
  14   2   9 459.950 100.252   3
 -14  -2  -9 476.625 99.3608   1
 -15   2  -9 1021.91 203.130   1
  15   2   9 1042.39 155.708   3
 -15  -2  -9 1050.85 153.756   1
  15  -2   9 1108.97 115.703   3
  15   2   9 1198.01 247.546   2
  15   2   9 974.160 145.447   1
  16   2   9 0.96283 6.77943   1
 -16   2  -9 10.1915 36.5404   1
 -16  -2  -9 2.62505 18.7528   1
  16   2   9 48.7696 30.5029   3
  16   2   9 100.598 73.9505   2
  16  -2   9 12.4417 10.3516   3
  17   2   9 265.770 76.9445   1
 -17  -2  -9 434.547 103.747   1
 -17   2  -9 466.496 142.321   1
  17   2   9 419.102 105.061   3
  17  -2   9 412.328 65.1604   3
  17   2   9 393.207 150.103   2
  18  -2   9 69.9951 22.9926   3
 -18  -2  -9 95.5471 56.4568   1
 -18   2  -9-1.61337 34.9788   1
  18   2   9 61.1613 47.6527   3
 -19  -2  -9 198.355 72.3759   1
 -19   2  -9 322.135 124.649   1
  19   2   9 249.440 82.4825   3
 -20  -2  -9 19.4158 24.6009   1
 -20   2  -9 15.4310 29.4733   1
  20   2   9 45.4879 29.4819   3
 -21   2  -9 42.0365 48.0935   1
  21   2   9 61.4095 44.7173   3
 -22   2  -9 51.6665 58.9458   1
  22   2   9 5.97061 29.3720   3
 -23   2  -9 22.7389 38.7237   1
  23   2   9 85.2524 57.1725   3
 -24   2  -9-82.5987 71.2820   1
  24   2   9 32.9993 61.4754   3
 -25   2  -9 63.4892 53.0004   1
 -26   2  -9 0.25352 59.8155   1
 -27   2  -9-137.671 97.1943   1
 -26  -3   9 116.570 128.606   2
 -25   3   9-113.953 92.6824   1
 -25  -3   9 501.260 250.215   2
 -24  -3   9 68.4763 60.0585   1
 -24   3   9-22.2255 41.4335   1
 -24  -3   9 41.2337 66.4544   2
 -23  -3   9-35.9295 64.1879   1
 -23   3   9 16.3351 35.8683   1
 -23  -3   9 105.397 151.956   2
 -22   3   9 45.8753 82.5811   1
 -22  -3   9 152.019 167.906   2
 -21   3   9 7.75839 45.5933   1
 -21  -3   9 10.1112 45.7189   2
 -20   3   9 41.6467 49.2834   1
 -20  -3   9 46.1073 52.5023   2
 -19   3   9 363.318 139.349   1
 -19  -3   9 300.589 176.496   2
 -18   3   9 104.044 75.2447   1
 -18  -3   9-101.487 89.7110   2
 -17   3   9 39.4773 62.0159   1
 -17  -3   9 181.477 139.767   2
 -17   3   9 256.854 167.868   2
 -16   3   9 273.431 116.687   1
 -16  -3   9 151.793 106.359   2
 -16   3   9 50.5197 56.7258   2
 -15   3   9 871.379 203.634   1
 -15  -3   9 996.167 293.683   2
 -15   3   9 752.062 285.832   2
 -14  -3   9 1491.67 342.801   2
 -14   3   9 1472.85 360.197   2
 -14   3   9 1136.56 226.589   1
 -13   3   9 35.3290 52.1024   1
 -13  -3   9-8.88983 53.4226   2
 -13   3   9-4.62173 26.1816   2
 -12  -3   9 2913.84 428.240   2
 -12   3   9 2556.48 459.404   2
 -12  -3   9 2244.71 275.748   1
 -12   3   9 2219.45 296.803   1
  12   3  -9 2002.61 224.187   2
 -11  -3   9 1.25177 15.6078   1
  11   3  -9-16.6792 31.7123   2
 -11  -3   9 100.073 117.718   2
 -11   3   9-1.49515 74.9932   2
 -11   3   9-17.9121 32.1850   1
  10   3  -9 89.8854 54.5625   2
 -10  -3   9 106.269 58.8294   1
 -10  -3   9-14.5149 79.2010   2
 -10   3   9 18.8357 40.6432   2
   9   3  -9 228.989 71.7883   2
  -9  -3   9 160.918 83.2806   2
   9  -3  -9 226.699 118.458   2
  -9   3   9 229.992 140.610   2
  -9  -3   9 221.551 82.2474   1
   8   3  -9 4.09906 30.1203   2
  -8  -3   9 48.1488 48.1871   2
  -8  -3   9-18.5874 24.0834   1
   8  -3  -9 131.697 81.1734   2
  -8   3   9-26.0253 60.5101   2
  -7  -3   9 286.341 89.9945   1
  -7  -3   9 491.509 135.058   2
   7  -3  -9 424.777 150.401   2
  -7   3   9 367.632 149.100   2
  -6  -3   9 459.886 132.392   2
   6  -3  -9 515.540 148.637   2
  -6   3   9 414.984 162.490   2
  -6  -3   9 380.667 105.322   1
  -5  -3   9 147.414 64.4945   2
   5  -3  -9 29.7478 31.7179   2
  -5  -3   9 81.4267 47.7254   1
  -4  -3   9-8.01226 34.7496   2
  -4  -3   9 31.6839 35.5572   1
   4  -3  -9-3.15096 35.8180   2
  -4  -3   9 12.5336 22.7440   3
   3  -3  -9 737.992 146.309   2
  -3  -3   9 795.779 125.027   3
  -3  -3   9 804.619 151.069   1
  -3  -3   9 755.130 134.013   2
   2  -3  -9 1454.70 187.288   2
  -2   3   9 1449.31 262.914   2
   2   3  -9 1555.34 226.628   1
  -2  -3   9 1409.24 164.755   3
  -2  -3   9 1489.27 207.746   1
  -2  -3   9 1688.52 191.287   2
  -1  -3   9 74.9381 42.6538   2
   1  -3  -9 64.1322 39.6907   2
  -1  -3   9 94.7551 42.7155   3
  -1   3   9 39.7747 43.5627   2
  -1  -3   9 44.7113 45.7314   1
   0  -3  -9 49.7345 31.9945   2
   0  -3   9 109.618 52.5714   3
   0   3   9-17.4695 43.4505   2
   0  -3   9 15.3227 29.2819   1
   0  -3   9 62.6012 43.1176   2
   1  -3   9 659.890 139.502   1
   1   3   9 615.051 143.245   2
  -1  -3  -9 666.631 94.7562   2
  -2  -3  -9 27.3522 13.2854   2
   2  -3   9 71.8212 54.1425   1
   2   3   9 60.3518 40.4508   2
   3  -3   9 777.325 156.467   1
   3   3   9 625.025 126.402   2
   3   3   9 825.818 123.904   3
   4  -3   9 93.3757 56.9481   1
   4   3   9 85.7246 44.6481   2
   4   3   9 60.8467 31.0003   1
   4   3   9 125.441 55.4664   3
   5  -3   9 88.1841 52.9475   1
   5   3   9 82.0578 33.8027   2
   5   3   9 61.5482 27.1224   1
   5   3   9 130.588 57.6557   3
   6   3   9-6.23017 25.6703   2
   6   3   9 23.0953 17.1984   1
   6   3   9 26.5726 41.8694   3
   7   3   9 94.8345 33.9275   2
   7   3   9 97.0712 33.4694   1
   7   3   9 106.897 52.5842   3
  -7   3  -9 100.095 54.5671   1
   8   3   9 1174.35 117.562   2
   8   3   9 1601.80 128.476   1
  -8   3  -9 1412.77 225.642   1
   8   3   9 1159.45 158.752   3
   9   3   9 1597.92 125.744   1
  -9   3  -9 1985.02 275.592   1
   9   3   9 1979.53 212.036   3
   9   3   9 1556.13 126.971   2
  10   3   9 26.1758 24.9210   2
  10   3   9 3.17947 9.90886   1
 -10   3  -9 44.4836 16.5647   1
  10   3   9 41.1361 26.0501   3
 -11   3  -9 3141.63 352.928   1
  11   3   9 2903.77 259.329   3
  11   3   9 2649.09 164.234   1
  11   3   9 2951.82 164.749   2
  12   3   9 1715.44 218.296   2
 -12   3  -9 1548.42 250.826   1
  12   3   9 1704.38 201.160   3
  12   3   9 1553.94 128.228   1
  12   3   9 1650.45 124.264   2
 -13   3  -9 1129.43 215.919   1
  13   3   9 1079.08 161.967   3
  13   3   9 924.585 160.602   2
  13   3   9 901.480 99.9573   1
  13   3   9 1153.49 107.575   2
  14   3   9 1267.18 205.199   2
 -14   3  -9 1040.28 216.299   1
  14   3   9 1016.28 164.295   3
  14   3   9 1048.15 109.406   1
 -15   3  -9 884.971 203.814   1
  15   3   9 1142.25 179.310   3
  15  -3   9 997.759 94.1573   3
  15   3   9 952.094 192.669   2
  16   3   9 787.246 153.017   3
 -16   3  -9 588.245 162.377   1
  16  -3   9 671.497 71.3709   3
 -17   3  -9 292.797 125.523   1
  17   3   9 244.509 92.4245   3
 -18   3  -9 622.406 179.780   1
  18   3   9 449.537 117.351   3
 -19   3  -9 561.257 173.512   1
  19   3   9 490.676 127.267   3
 -20   3  -9 641.206 187.879   1
  20   3   9 877.424 172.940   3
 -21   3  -9-40.6014 44.4368   1
  21   3   9 57.5601 45.6066   3
 -22   3  -9-89.1304 74.4650   1
  22   3   9 25.0207 20.3335   3
 -23   3  -9-99.2012 93.2747   1
  23   3   9 7.14004 19.4498   3
 -24   3  -9 89.5530 77.2373   1
  24   3   9 74.1959 46.3533   3
 -25   3  -9-42.6370 79.2441   1
  25   3   9 85.0017 62.0170   3
 -23   4   9 11.6981 30.5648   1
 -23  -4   9-1.74639 40.0403   2
 -22   4   9 99.5079 91.5787   1
 -22  -4   9 173.132 142.834   2
 -21   4   9 204.223 115.261   1
 -21  -4   9 275.897 177.377   2
 -20   4   9 57.3638 60.8128   1
 -20  -4   9 98.2263 63.0376   2
 -19   4   9-45.9985 60.2765   1
 -19  -4   9-52.6199 122.428   2
 -18   4   9 435.671 156.336   1
 -18  -4   9 928.879 298.289   2
 -17   4   9 76.1347 70.3489   1
 -17  -4   9 279.927 180.637   2
 -16  -4   9 651.584 218.662   2
 -16   4   9 468.768 163.037   1
 -15   4   9 34.2932 12.6198   1
 -15  -4   9-31.8802 72.2690   2
 -14   4   9-22.0607 34.1417   1
 -14  -4   9 159.768 122.417   2
 -13   4   9 2.46644 14.4087   1
 -13  -4   9-45.0005 65.6824   2
 -13   4   9-8.36702 41.8254   2
 -12  -4   9 73.4893 49.1813   1
 -12   4   9-10.0656 23.3830   1
 -12  -4   9 130.295 102.678   2
 -12   4   9 37.0037 109.415   2
 -11   4   9 301.070 107.390   1
 -11  -4   9 391.956 137.280   2
 -11  -4   9 374.508 107.869   1
 -11   4   9 361.303 175.351   2
 -10  -4   9 2228.19 325.607   2
 -10   4   9 2443.44 443.061   2
 -10  -4   9 1944.57 250.019   1
 -10   4   9 2209.52 294.981   1
  -9   4   9 587.797 149.826   1
  -9   4   9 559.865 207.980   2
  -9  -4   9 554.417 153.584   2
  -9  -4   9 409.149 114.874   1
  -8  -4   9 4935.88 438.524   2
  -8   4   9 5258.90 602.240   2
  -8  -4   9 4692.34 381.831   1
  -8   4   9 4844.42 412.545   1
  -7   4   9-4.65198 12.7971   1
  -7   4   9-5.12245 37.8279   2
  -7  -4   9 3.18639 11.2680   1
  -7  -4   9 41.7210 54.6493   2
   7  -4  -9 123.667 105.485   2
  -6   4   9 555.795 132.282   1
  -6  -4   9 644.867 141.103   2
   6  -4  -9 734.529 194.652   2
  -6   4   9 350.941 145.906   2
  -6  -4   9 510.359 126.555   1
  -5   4   9 291.419 94.2614   1
  -5  -4   9 179.702 70.2011   2
   5  -4  -9 453.777 134.473   2
  -5   4   9 105.963 69.7874   2
  -5  -4   9 138.686 67.1287   1
  -4  -4   9 624.694 128.403   2
   4  -4  -9 459.403 118.526   2
  -4  -4   9 565.038 132.657   1
  -4   4   9 699.901 110.865   3
  -4   4   9 545.995 120.057   1
  -3  -4   9 58.4651 39.4848   2
  -3  -4   9 101.427 43.9059   3
   3  -4  -9 16.3197 39.9658   2
  -3  -4   9 60.6732 38.8436   1
   3   4  -9 73.3570 62.2964   1
  -3   4   9 105.092 50.0080   3
  -2  -4   9 29.0602 34.6419   2
   2  -4  -9 44.7422 18.8448   2
   2   4  -9 121.605 65.4848   1
  -2  -4   9-13.6897 21.5821   1
  -2  -4   9 56.8247 36.1721   3
  -2   4   9 165.816 57.9068   3
  -1  -4   9-5.62504 25.1749   2
   1  -4  -9-13.9697 29.6854   2
  -1  -4   9-31.6008 31.5620   3
   1   4  -9 41.5436 59.6880   1
  -1   4   9 3.29240 15.3012   2
  -1   4   9-9.97343 13.5052   3
   0  -4  -9 692.741 117.454   2
   0   4  -9 638.870 154.442   1
   0  -4   9 640.751 145.633   1
   0  -4   9 696.346 119.792   3
   0   4   9 654.166 111.196   3
   0   4   9 571.842 145.327   2
  -1  -4  -9-27.7814 24.8883   2
   1  -4   9 20.1474 8.22544   1
   1  -4   9 42.8406 24.3751   3
   1   4   9 56.2113 40.0321   2
  -1   4  -9 14.5789 16.4591   1
   1   4   9 32.2465 28.8680   3
  -2  -4  -9 174.745 44.1705   2
  -2   4  -9 140.963 73.5451   1
   2  -4   9 121.052 53.8697   3
   2   4   9 62.0337 49.7564   2
   2   4   9 167.749 60.2863   3
  -3   4  -9 275.603 102.305   1
   3  -4   9 179.917 56.6178   3
   3   4   9 283.933 84.5221   2
   3   4   9 289.368 76.9014   3
  -3  -4  -9 293.111 49.4823   2
  -4   4  -9 197.895 87.0327   1
   4  -4   9 195.251 57.2579   3
   4   4   9 129.051 55.1221   2
   4   4   9 163.515 50.8794   1
   4   4   9 176.399 64.7148   3
   5   4   9 231.742 53.2914   1
  -5   4  -9 170.134 79.5337   1
   5  -4   9 239.708 66.2760   3
   5   4   9 181.251 50.6199   2
   5   4   9 261.951 76.2328   3
   6   4   9 347.486 91.6967   3
   6  -4   9 199.166 58.5436   3
   6   4   9 304.061 54.1272   1
  -6   4  -9 313.007 110.831   1
   7  -4   9 40.4907 33.8837   3
   7   4   9 16.0363 10.3399   1
   7   4   9 3.70805 22.6399   3
  -7   4  -9-13.9679 24.8109   1
   7   4   9 9.20728 7.83895   1
   8  -4   9 79.3247 39.3548   3
  -8   4  -9 51.7087 32.2436   1
   8   4   9-0.27232 28.9181   3
  -9   4  -9 1164.64 222.375   1
   9  -4   9 1421.85 141.194   3
   9   4   9 1501.22 191.251   3
  10  -4   9 58.5525 28.8729   3
 -10   4  -9 49.4009 46.7616   1
  10   4   9 63.1142 27.0168   3
  11  -4   9 323.856 62.4158   3
 -11   4  -9 542.243 158.990   1
  11   4   9 374.875 100.862   3
  12  -4   9-15.6797 17.0958   3
 -12   4  -9-11.1735 36.2176   1
  12   4   9 25.5529 37.2234   3
 -13   4  -9 65.7176 56.1003   1
  13   4   9 105.089 57.6923   3
  14   4   9 23.1254 10.3874   3
 -14   4  -9-43.1805 77.9459   1
 -15   4  -9-34.7561 57.3575   1
  15   4   9-13.6274 40.1693   3
 -16   4  -9 4.91200 30.4617   1
  16   4   9 5.62418 11.9750   3
  17   4   9 99.3876 52.6608   3
 -17   4  -9 19.1455 53.6238   1
 -18   4  -9 186.475 95.0013   1
  18   4   9 62.5409 47.5955   3
 -19   4  -9 56.6032 59.4559   1
  19   4   9-3.02530 37.9750   3
 -20   4  -9 110.122 98.5520   1
  20   4   9 106.951 67.4768   3
 -21   4  -9 8.46931 28.3132   1
  21   4   9 176.633 86.4693   3
 -22   4  -9 52.3558 60.3405   1
  22   4   9 207.806 98.0858   3
 -23   4  -9-66.3321 69.0781   1
  23   4   9 132.777 78.9828   3
  24   4   9 26.1394 42.2695   3
 -21   5   9 580.781 199.835   1
 -20   5   9-64.4260 66.2024   1
 -19   5   9 7.73632 25.8952   1
 -19  -5   9 6.40060 118.000   2
 -18   5   9 66.3721 55.5630   1
 -18  -5   9 76.2619 125.453   2
 -17   5   9-16.4813 33.3498   1
 -17  -5   9 24.4927 35.9645   2
 -16   5   9 42.0342 49.5116   1
 -16  -5   9 13.1742 85.4574   2
 -15   5   9 414.013 145.785   1
 -15  -5   9 320.206 151.156   2
 -15   5   9 246.871 57.2189   3
 -14   5   9 2.77943 15.4420   1
 -14  -5   9-40.9553 109.331   2
 -14   5   9 83.2049 35.2957   3
 -13   5   9 103.333 73.0314   1
 -13  -5   9 209.392 114.892   2
 -13   5   9 197.571 52.7621   3
 -12   5   9 61.5099 54.1137   1
 -12  -5   9 19.8354 39.3599   2
 -12   5   9 66.7440 36.6892   3
 -11   5   9 88.5044 61.5659   1
 -11  -5   9 122.368 53.9514   2
 -11   5   9 71.2098 32.0828   3
 -10  -5   9 1275.94 247.834   2
 -10   5   9 1264.10 142.148   3
 -10   5   9 1184.39 226.246   1
  -9   5   9 8.07250 14.7330   1
  -9  -5   9 34.1821 32.1028   1
  -9  -5   9 92.2648 65.2934   2
  -9   5   9 91.6292 41.5700   3
  -8   5   9 959.288 187.326   1
  -8  -5   9 894.088 187.181   2
  -8  -5   9 826.116 166.475   1
  -8   5   9 747.543 114.150   3
  -7   5   9 784.974 170.871   1
  -7  -5   9 628.588 150.178   2
  -7   5   9 528.033 96.5073   3
  -6  -5   9-25.5999 33.5604   2
  -6   5   9 0.13060 34.0850   1
   6  -5  -9 37.2368 64.0687   2
  -6   5   9 22.4146 27.0181   3
  -5  -5   9 18.2742 25.0641   2
  -5   5   9-0.73555 18.5368   1
   5  -5  -9-13.9452 26.5666   2
  -5   5   9-12.7100 23.1576   3
  -4  -5   9 91.7213 51.8855   2
  -4   5   9 74.1141 44.3450   1
   4  -5  -9 128.978 65.5708   2
  -4   5   9 88.4909 38.4834   3
  -3  -5   9-22.8217 18.1125   2
  -3   5   9 55.0423 43.2810   1
   3   5  -9 18.3989 16.9588   1
   3  -5  -9-59.4596 75.6459   2
  -3   5   9 42.2141 38.4984   3
  -2  -5   9 167.993 71.9098   2
   2   5  -9 172.014 81.2119   1
  -2   5   9 56.0882 29.7370   1
   2  -5  -9 68.4025 42.4134   2
  -2   5   9 104.385 40.8203   3
  -1  -5   9 128.123 60.4772   2
   1  -5  -9 51.7489 31.2879   2
   1   5  -9 38.3063 30.8622   1
  -1   5   9 125.378 54.3235   3
   0   5  -9 535.520 149.509   1
   0  -5  -9 611.452 116.508   2
   0   5   9 503.505 105.217   3
  -1  -5  -9 408.114 84.6746   2
   1   5   9 332.450 81.7377   1
  -1   5  -9 423.487 134.168   1
   1   5   9 358.599 90.7337   3
  -2  -5  -9 15.8014 15.3526   2
   2   5   9 49.0780 31.4740   1
  -2   5  -9 41.8150 33.8027   1
   2  -5   9 36.1900 29.1487   3
   2   5   9 22.0808 21.7175   3
  -3  -5  -9 29.1134 15.7262   2
   3   5   9 40.7924 28.2789   1
  -3   5  -9 88.9943 82.5849   1
   3  -5   9 11.4429 28.7271   3
   3   5   9 10.7295 19.4900   3
  -4   5  -9 737.594 175.466   1
   4  -5   9 717.989 117.667   3
   4   5   9 690.831 128.161   3
   4   5   9 727.452 94.5018   1
  -5   5  -9 0.98311 18.6662   1
   5   5   9 5.00429 7.06114   1
   5   5   9 12.7566 4.99690   1
   5   5   9 41.5423 42.2980   3
   5  -5   9-6.16169 23.3632   3
   6   5   9 823.628 61.5410   1
  -6   5  -9 1015.32 210.472   1
   6  -5   9 981.161 130.620   3
   6   5   9 829.654 65.4706   1
   6   5   9 893.436 148.564   3
  -7   5  -9 592.304 166.015   1
   7  -5   9 560.272 97.1467   3
   7   5   9 655.350 135.470   3
   8   5   9 83.3875 47.2232   3
   8  -5   9 69.3580 32.6128   3
  -8   5  -9 75.9067 53.3692   1
  -9   5  -9 292.274 123.860   1
   9  -5   9 315.662 68.4928   3
   9   5   9 274.381 90.9332   3
  10  -5   9 595.663 90.7194   3
 -10   5  -9 590.074 169.501   1
  10   5   9 523.142 129.893   3
 -11   5  -9 146.138 95.7279   1
  11   5   9 31.0685 14.2761   3
 -12   5  -9 54.9973 79.2133   1
  12   5   9 37.4090 40.4516   3
 -13   5  -9 73.2904 60.3020   1
  13   5   9 32.2814 31.3456   3
 -14   5  -9-24.0492 37.5667   1
  14   5   9 16.9290 13.9844   3
 -15   5  -9 25.1343 38.9460   1
  15   5   9 49.0365 47.8570   3
 -16   5  -9-22.3974 37.7238   1
  16   5   9 13.5353 35.3844   3
 -17   5  -9 53.2756 46.7113   1
  17   5   9 37.2160 41.5725   3
 -18   5  -9-13.7582 31.6485   1
  18   5   9-14.9961 26.7170   3
 -19   5  -9 151.980 99.7044   1
  19   5   9 154.904 87.8622   3
 -20   5  -9-20.9136 39.6534   1
  20   5   9 138.167 74.1006   3
  21   5   9 82.4321 74.0315   3
 -19   6   9 457.029 175.869   1
 -18   6   9 39.9337 85.5867   1
 -17   6   9-27.2049 42.8947   1
 -16   6   9-78.3670 68.9321   1
 -15   6   9 61.6107 59.9726   1
 -15  -6   9-44.1156 132.759   2
 -14   6   9 224.861 109.841   1
 -14  -6   9 246.559 129.740   2
 -13   6   9-40.8268 47.1405   1
 -13  -6   9 102.994 92.6515   2
 -13   6   9 36.7352 19.4486   3
 -12  -6   9 405.215 150.064   2
 -12   6   9 364.856 147.345   1
 -12   6   9 297.028 65.7742   3
 -11  -6   9-15.0441 45.3773   2
 -11   6   9 34.5827 59.1110   1
 -11   6   9 14.5831 17.7465   3
 -10   6   9 280.550 68.2465   3
 -10  -6   9 306.006 113.393   2
 -10   6   9 306.006 121.910   1
  -9  -6   9 89.2543 53.0483   2
  -9   6   9 67.9563 54.2845   1
  -9   6   9 79.0254 38.7842   3
  -8  -6   9 16.0948 33.9925   2
  -8   6   9-74.9488 55.5370   1
  -8   6   9-19.6240 25.8793   3
  -7   6   9 35.4179 26.1908   3
  -7  -6   9 148.794 97.2334   2
  -7   6   9 6.57753 9.90813   1
  -6  -6   9 382.906 135.625   2
  -6   6   9 254.355 71.2074   3
  -6   6   9 172.073 80.3711   1
  -5  -6   9-39.3457 59.6191   2
  -5   6   9-52.8316 42.8499   1
  -5   6   9 5.45047 15.9965   3
  -4  -6   9 153.193 68.0175   2
  -4   6   9 42.4978 23.3159   1
   4  -6  -9 134.719 80.3552   2
  -4   6   9 86.0478 43.0245   3
  -3  -6   9-44.6713 45.4599   2
   3   6  -9 9.27400 22.1825   1
   3  -6  -9 42.7848 43.0949   2
  -3   6   9 19.6279 30.7929   1
  -3   6   9 53.2668 37.5330   3
  -2  -6   9 577.257 132.270   2
   2   6  -9 499.319 152.651   1
   2  -6  -9 503.315 130.954   2
  -2   6   9 480.271 101.833   3
  -2   6   9 410.330 105.565   1
  -1  -6   9-12.6170 27.7884   2
   1  -6  -9-61.0027 42.1913   2
  -1   6   9 12.4844 18.4987   1
   1   6  -9 30.3499 37.7618   1
  -1   6   9-5.45889 33.0756   3
   0   6  -9 191.448 105.514   1
   0  -6  -9 99.0999 61.0086   2
   0   6   9 89.3000 47.7850   3
  -1  -6  -9 56.2300 39.3510   2
   1   6   9 22.5001 24.3579   3
  -2  -6  -9 59.1795 27.4587   2
   2   6   9 136.165 51.3228   1
  -2   6  -9 56.3251 56.3285   1
   2   6   9 127.106 60.9414   3
  -3   6  -9-14.7835 31.6924   1
   3   6   9 4.42864 8.99388   1
   3   6   9-69.8337 43.3924   3
  -4   6  -9 136.581 80.6293   1
   4   6   9 76.3523 29.1604   1
   4   6   9 101.747 52.0438   3
   5   6   9-0.15827 2.16089   1
   5   6   9 30.5954 34.4942   3
  -6   6  -9 91.5411 68.7045   1
   6   6   9 70.2464 45.3082   3
  -7   6  -9 224.775 109.253   1
   7   6   9 228.836 91.3897   3
  -8   6  -9 47.8922 48.1299   1
   8   6   9 29.2588 24.3524   3
   9   6   9 64.9556 65.7654   3
  -9   6  -9 73.1791 62.6294   1
  10   6   9 91.3188 66.9974   3
 -10   6  -9 27.6157 44.1909   1
  11   6   9 11.6865 34.8618   3
 -11   6  -9-27.7808 40.9287   1
 -12   6  -9 14.3010 38.2926   1
  12   6   9 15.2601 24.1825   3
 -13   6  -9-63.1342 61.5494   1
  13   6   9-51.7946 45.5051   3
 -14   6  -9 103.333 80.1047   1
  14   6   9-7.55905 14.1179   3
 -15   6  -9 15.7544 33.5427   1
  15   6   9-12.8104 59.4303   3
 -16   6  -9 72.4871 69.4740   1
  16   6   9 103.980 67.1493   3
 -17   6  -9 21.8479 40.0583   1
  17   6   9-9.67779 26.7035   3
  18   6   9 67.1900 61.7511   3
 -17   7   9-94.5723 79.6099   1
 -16   7   9-14.7790 31.7461   1
 -15   7   9 119.776 85.2613   1
 -14   7   9 12.6751 29.5442   1
 -13   7   9-31.5317 43.1063   1
 -12   7   9 356.050 136.522   1
 -11   7   9 116.734 72.4250   1
 -10  -7   9 59.6937 73.3044   2
 -10   7   9 128.101 89.0911   1
 -10   7   9 183.632 63.5474   3
  -9  -7   9-62.7891 57.5929   2
  -9   7   9-0.53260 9.10286   1
  -9   7   9 50.5750 43.3616   3
  -8  -7   9 364.005 138.899   2
  -8   7   9 248.107 102.163   1
  -8   7   9 178.809 60.7888   3
  -7  -7   9 104.658 89.7343   2
  -7   7   9-62.7840 51.3247   1
  -7   7   9-5.69481 18.2386   3
  -6   7   9 10.2682 22.9744   3
  -6  -7   9 9.84055 53.6823   2
  -6   7   9-23.9992 31.5423   1
  -5  -7   9 7.68135 45.0136   2
  -5   7   9-35.8330 36.6081   1
  -5   7   9 3.08710 10.8447   3
  -4  -7   9 40.4077 50.3150   2
  -4   7   9-53.6474 43.0163   1
  -4   7   9-18.1279 13.1107   3
  -3  -7   9 15.8216 39.4385   2
   3   7  -9 37.4505 43.8196   1
  -3   7   9 0.97464 17.0861   1
  -3   7   9 8.21921 23.6967   3
  -2  -7   9 9.53434 17.1047   2
   2   7  -9 90.5744 67.3135   1
  -2   7   9-8.80626 24.4019   1
  -2   7   9-41.5153 34.2815   3
  -1  -7   9 146.736 66.2510   2
   1   7  -9 155.418 87.9280   1
  -1   7   9 145.535 61.7682   1
  -1   7   9 102.273 53.7681   3
   0  -7   9 105.108 43.4811   2
   0   7  -9 121.742 78.2765   1
   0   7   9 150.895 58.6821   1
   0   7   9 176.149 70.3568   3
   1   7   9 267.520 95.3816   3
  -1   7  -9 208.403 112.029   1
  -2   7  -9-37.2226 44.7018   1
   2   7   9 15.1188 17.5682   3
  -3   7  -9 30.1243 29.7767   1
   3   7   9 9.88971 33.1340   3
  -4   7  -9 0.20684 54.2646   1
   4   7   9-16.4581 27.6009   3
  -5   7  -9-45.6549 50.7933   1
   5   7   9 18.5414 26.9632   3
  -6   7  -9 70.4644 64.4373   1
   6   7   9 105.626 72.3072   3
  -7   7  -9-136.547 87.9707   1
   7   7   9 14.9809 40.6594   3
  -8   7  -9 2.24637 82.7301   1
   8   7   9 5.04895 17.1804   3
   9   7   9 105.773 74.4468   3
  -9   7  -9 68.9196 64.3961   1
  10   7   9 83.9936 64.5983   3
 -10   7  -9-86.2346 72.8837   1
  11   7   9 0.79610 12.3772   3
 -11   7  -9-84.2355 73.1060   1
  12   7   9 27.2217 46.5651   3
 -12   7  -9-11.2686 28.8790   1
  13   7   9-2.04895 14.6564   3
 -13   7  -9 7.47598 24.4595   1
  14   7   9 79.8362 65.3277   3
 -14   7  -9 14.0621 56.6762   1
 -14   8   9-72.2934 67.9168   1
 -13   8   9 247.539 126.718   1
 -12   8   9 227.765 99.5245   1
 -11   8   9 397.649 143.272   1
 -10   8   9 411.762 146.316   1
  -9   8   9 88.5859 66.0183   1
  -8   8   9 55.2855 65.4108   1
  -7   8   9 278.997 110.666   1
  -7   8   9 236.190 83.1094   3
  -6   8   9 20.8643 30.5254   1
  -6   8   9 66.3788 49.2605   3
  -5  -8   9-0.48842 55.6308   2
  -5   8   9-14.7774 25.1628   1
  -5   8   9 66.9107 43.8515   3
  -4  -8   9 45.8446 44.4925   2
  -4   8   9 45.9229 37.6400   3
  -4   8   9-54.8060 44.7570   1
  -3  -8   9-16.3973 47.5896   2
   3   8  -9-54.4926 55.1596   1
  -3   8   9-21.8935 37.7221   3
  -3   8   9-13.0960 22.0035   1
  -2   8   9 5.30152 36.0568   3
   2   8  -9 35.9872 45.4315   1
  -1  -8   9 210.432 97.5308   2
   1   8  -9 180.019 109.414   1
  -1   8   9 154.924 70.5924   3
   0  -8   9 107.370 71.7660   2
   0   8  -9 60.2097 59.2311   1
   0   8   9-78.9715 51.8599   3
   1  -8   9 90.7956 66.1453   2
  -1   8  -9 20.2832 90.4022   1
   1   8   9 29.6054 33.1105   3
   2   8   9 124.713 70.2675   3
  -2   8  -9 8.83068 51.5672   1
   3   8   9 26.4103 34.9025   3
  -3   8  -9 2010.02 398.571   1
  -4   8  -9 45.1720 53.0420   1
   4   8   9-18.2599 40.5807   3
  -5   8  -9 76.1393 70.6880   1
   5   8   9 54.5650 28.3200   3
  -6   8  -9-1.93841 49.9208   1
   6   8   9 47.2782 51.2848   3
  -7   8  -9 28.6916 44.5984   1
   7   8   9 78.8199 49.9204   3
  -8   8  -9 275.726 145.645   1
   8   8   9 265.923 100.897   3
  -9   8  -9-26.8566 44.0384   1
   9   8   9-33.2350 39.8784   3
 -10   8  -9 96.3766 81.1411   1
  -4   9   9 9.54375 20.6605   3
  -3   9   9 65.6388 58.5381   3
  -2   9   9 36.7665 11.6017   3
  -1   9   9-44.9380 42.1173   3
   1   9  -9-15.0122 32.6788   1
   0   9  -9 29.7100 45.0817   1
   0   9   9 524.132 141.109   3
  -1   9  -9 146.130 96.4207   1
   1   9   9 59.4208 43.6596   3
   2  -9   9-40.2262 42.3337   2
  -2   9  -9 113.343 93.6450   1
   2   9   9 100.250 64.7211   3
  -3   9  -9 347.702 163.785   1
   3   9   9 148.088 66.6927   3
   3  -9   9 162.710 90.9705   2
  -4   9  -9 179.282 109.482   1
  -5   9  -9-79.2218 74.2705   1
  -6   9  -9-5.72592 24.2014   1
 -28   0  10 218.359 146.229   1
 -27   0  10 112.620 90.9365   1
 -26   0  10-120.789 91.8716   1
 -25   0  10 16.8783 33.8998   1
 -25   0  10 244.905 175.453   2
 -24   0  10 128.832 90.7939   1
 -24   0  10 453.161 241.099   2
 -23   0  10 185.036 105.520   1
 -23   0  10 313.203 163.089   2
 -22   0  10-7.74410 57.7728   2
 -22   0  10 19.0982 30.8181   1
 -21   0  10 49.3552 19.4431   1
 -21   0  10-43.1086 140.604   2
 -20   0  10 275.524 190.609   2
 -19   0  10 1333.48 415.847   2
 -18   0  10 161.583 78.9374   2
 -17   0  10 392.308 224.967   2
 -16   0  10 222.133 172.773   2
 -15   0  10 31.7160 32.0661   3
 -15   0  10-68.8404 90.8425   2
 -14   0  10 241.827 74.4008   3
 -14   0  10 281.155 162.279   2
 -13   0  10 245.429 76.6026   3
 -13   0  10 26.0443 39.4079   2
 -12   0  10 25.4713 88.0383   2
 -11   0  10 587.945 211.083   2
  10   0 -10 643.611 156.791   2
   9   0 -10 469.359 121.256   2
   8   0 -10 218.659 87.8372   2
   7   0 -10 727.423 145.427   2
   6   0 -10 6788.50 408.751   2
   5   0 -10 1568.00 190.274   2
   4   0 -10 1283.80 162.277   2
   3   0 -10 431.084 92.7207   2
   2   0 -10 3483.15 242.795   2
   1   0 -10 280.301 68.6447   2
  -1   0  10 317.968 92.7550   1
   0   0  10 329.562 92.4738   1
   1   0  10 610.099 121.685   1
   2   0  10 1445.23 187.527   1
   3   0  10 37.5650 28.6188   1
  -4   0 -10-7.46824 18.2359   1
   4   0  10-0.54685 16.7432   1
  -5   0 -10 464.971 112.109   1
   5   0  10 377.761 96.4106   1
  -6   0 -10 501.023 115.315   1
   6   0  10 421.131 99.1951   1
  -7   0 -10 113.456 61.4899   1
   7   0  10 87.0469 44.0818   1
   8   0  10 4134.60 323.631   1
  -8   0 -10 3768.31 320.049   1
   9   0  10 578.355 121.376   1
  -9   0 -10 175.061 66.7661   1
 -10   0 -10 133.575 56.9064   1
  10   0  10 124.971 50.6045   1
 -11   0 -10 149.710 66.1564   1
  11   0  10 127.730 58.7211   1
 -12   0 -10 535.726 127.822   1
  12   0  10 438.118 111.277   1
  12   0  10 426.525 88.8917   3
 -13   0 -10 24.9512 30.2642   1
  13   0  10 49.6411 39.0885   1
  13   0  10 36.7000 14.6560   3
  14   0  10 91.1288 54.4605   1
  14   0  10 122.556 51.5889   3
 -14   0 -10 63.5509 51.3757   1
  15   0  10 37.4801 32.6536   3
 -15   0 -10 8.91441 19.3841   1
  16   0  10 223.973 67.9547   3
 -16   0 -10 169.764 79.4842   1
  17   0  10 52.1823 39.3990   3
 -17   0 -10 31.7090 32.0145   1
 -18   0 -10 54.0773 57.0971   1
  18   0  10 47.3185 38.5182   3
 -19   0 -10 286.335 113.670   1
  19   0  10 117.628 49.0700   3
  20   0  10 73.1365 46.5662   3
 -20   0 -10-22.5170 32.4166   1
 -21   0 -10 351.860 133.391   1
  21   0  10 503.567 114.920   3
  22   0  10 292.167 85.5584   3
 -22   0 -10 267.281 113.652   1
 -23   0 -10 145.472 92.8362   1
 -24   0 -10 136.986 94.8803   1
 -28  -1  10-22.1070 41.4742   1
 -27  -1  10 7.63616 60.3806   1
 -27   1  10 37.0153 48.3243   1
 -26  -1  10 73.6909 69.8344   1
 -26   1  10-173.334 111.798   1
 -26  -1  10 44.4612 126.919   2
 -25  -1  10-3.40558 34.7505   1
 -25   1  10 60.3504 66.2904   1
 -25  -1  10 52.3578 93.2655   2
 -24  -1  10 151.707 104.468   1
 -24   1  10-12.5933 32.8473   1
 -24  -1  10 313.856 205.344   2
 -24   1  10 89.6494 96.7095   2
 -23  -1  10 103.854 88.3688   1
 -23   1  10 152.075 108.892   1
 -23  -1  10 29.5379 63.1974   2
 -23   1  10 94.6600 119.558   2
 -22  -1  10 91.8442 71.0574   1
 -22   1  10-33.4894 47.1430   1
 -22  -1  10-1.91002 92.9259   2
 -22   1  10 13.6679 96.0928   2
 -21   1  10 64.9462 58.9949   1
 -21  -1  10 126.758 126.785   2
 -21   1  10 98.2010 159.575   2
 -20   1  10 804.241 211.039   1
 -20  -1  10 915.309 333.687   2
 -20   1  10 713.846 304.773   2
 -19   1  10 179.012 101.536   1
 -19  -1  10 32.6960 36.5101   2
 -19   1  10 100.886 125.766   2
 -18   1  10 37.0261 27.8405   3
 -18  -1  10-72.8681 99.1173   2
 -17   1  10 968.086 144.200   3
 -17  -1  10 1372.58 388.185   2
 -17   1  10 1100.54 340.695   2
 -16   1  10 774.163 128.909   3
 -16  -1  10 756.667 280.175   2
 -16   1  10 974.415 324.046   2
 -15   1  10 20.8815 35.8115   3
 -15  -1  10-54.9079 126.185   2
 -15   1  10 29.8226 96.0074   2
 -14  -1  10 275.584 149.709   2
 -14   1  10 380.298 191.526   2
 -13  -1  10 958.078 271.513   2
 -13   1  10 818.045 268.642   2
 -12  -1  10 255.771 146.786   2
 -12  -1  10 219.239 72.5963   3
 -12   1  10 352.499 207.113   2
 -11  -1  10 293.003 128.172   2
 -11  -1  10 415.179 97.7765   3
 -11   1  10 335.873 181.607   2
  10   1 -10 597.927 138.790   2
  10  -1 -10 553.684 158.690   2
 -10  -1  10 699.661 210.234   2
   9   1 -10 306.735 98.7733   2
   9  -1 -10 252.345 101.452   2
  -9  -1  10 417.778 159.738   2
   8   1 -10 238.460 73.7296   2
   8  -1 -10 267.909 97.5094   2
  -8  -1  10 223.720 95.8756   2
   7   1 -10 96.0486 44.4461   2
   7  -1 -10 110.004 53.5701   2
   6  -1 -10 1009.82 174.710   2
   6   1 -10 1090.92 153.174   2
   5   1 -10-8.57088 15.7159   2
   5  -1 -10 25.4467 24.2388   2
  -4  -1  10 636.212 136.279   1
   4   1 -10 747.623 118.799   2
   4  -1 -10 805.341 142.544   2
   3   1 -10 31.2216 8.84209   2
   3  -1 -10 23.5350 22.9710   2
  -3  -1  10 55.2002 42.8087   1
   2  -1 -10 266.121 69.6603   2
  -2  -1  10 239.844 86.4403   1
  -1  -1  10 610.268 126.576   1
  -1   1  10 554.892 120.886   2
   1  -1 -10 729.043 110.908   2
   0  -1 -10 59.0023 29.9623   2
   0   1  10 24.3150 38.8007   2
   0  -1  10 81.9081 45.6016   1
   1   1  10 371.295 89.0060   2
   1  -1  10 440.074 109.134   1
   1   1  10 458.635 104.751   1
   2  -1  10 20.6975 15.4905   1
   2   1  10 9.28747 25.6994   2
   2   1  10-0.85675 26.3888   1
   3   1  10-0.85419 22.5947   2
   3   1  10 57.6793 31.2348   1
   3  -1  10-7.38989 11.5435   1
   4   1  10 115.978 46.4338   2
  -4   1 -10 95.6773 56.4307   1
   4   1  10 80.6631 41.6548   1
   4  -1  10 124.223 57.4389   1
   5   1  10 1.75577 15.1050   2
   5  -1  10 23.4721 41.7480   1
  -5   1 -10 46.5789 46.1582   1
   5   1  10 14.9091 23.8607   1
   6   1  10 2.25800 8.71766   2
   6  -1  10 26.2672 23.3311   1
   6   1  10-2.51399 12.8240   1
  -6   1 -10-6.72530 36.1641   1
  -7  -1 -10 81.4428 49.9987   1
   7  -1  10 87.4707 55.5052   1
   7   1  10 170.791 58.9298   1
  -7   1 -10 60.2514 48.4884   1
   8  -1  10 586.590 130.747   1
  -8  -1 -10 609.474 120.006   1
   8   1  10 508.845 104.522   1
  -8   1 -10 588.352 134.881   1
   9   1  10 216.644 70.4960   1
  -9   1 -10 161.310 66.2543   1
  -9  -1 -10 194.821 69.3581   1
   9  -1  10 200.626 79.2265   1
 -10   1 -10 27.9795 45.5947   1
 -10  -1 -10-10.5375 8.48809   1
  10  -1  10-11.1599 36.0684   1
  10   1  10-4.56925 22.1352   1
  10   1  10 22.5141 26.9842   3
  11  -1  10 953.738 175.738   1
  11   1  10 1056.93 155.668   1
  11   1  10 976.503 139.671   3
 -11  -1 -10 788.214 143.292   1
 -11   1 -10 838.089 164.360   1
  12   1  10 113.141 54.2548   1
 -12  -1 -10 71.1857 43.1827   1
 -12   1 -10 142.660 81.0354   1
  12   1  10 119.851 51.5730   3
  13   1  10 524.665 107.699   3
 -13  -1 -10 386.019 104.086   1
  13   1  10 490.205 110.309   1
 -13   1 -10 506.598 137.995   1
 -14  -1 -10 69.6055 59.2144   1
  14   1  10 135.771 63.6532   1
 -14   1 -10 56.7951 69.7161   1
  14   1  10 109.389 43.1654   3
  14  -1  10 91.8910 44.4728   3
 -15  -1 -10 43.4645 36.2178   1
  15   1  10 16.0273 22.1939   1
 -15   1 -10 15.3990 23.6695   1
  15   1  10 49.0230 34.3169   3
  15  -1  10 67.4424 33.2075   3
 -16  -1 -10 187.635 75.4640   1
  16   1  10 96.5127 49.2907   1
 -16   1 -10 129.889 69.1456   1
  16   1  10 86.5764 38.2202   3
  16  -1  10 147.931 48.5800   3
 -17  -1 -10 17.5658 31.9940   1
  17   1  10-40.6982 36.5207   1
 -17   1 -10 47.9697 49.1247   1
  17   1  10 10.1688 9.20327   3
  17  -1  10 57.6872 32.7146   3
 -18  -1 -10 73.0550 59.9410   1
 -18   1 -10 29.2405 48.9809   1
  18   1  10 16.3611 9.36513   3
  18  -1  10 52.9629 30.5435   3
 -19   1 -10 144.424 84.5992   1
  19  -1  10 16.2241 24.5482   3
 -20  -1 -10 138.800 70.9374   1
 -20   1 -10 125.336 77.9426   1
  20  -1  10 45.1002 28.4512   3
  20   1  10 135.369 56.1672   3
 -21  -1 -10 96.3568 65.5423   1
 -21   1 -10 5.35685 20.0193   1
  21   1  10 37.0150 32.4792   3
 -22  -1 -10 205.729 90.9153   1
 -22   1 -10 242.030 111.325   1
  22   1  10 135.984 59.0255   3
 -23   1 -10 167.930 95.0065   1
  23   1  10 249.073 85.3581   3
 -24   1 -10 150.758 99.9324   1
 -25   1 -10 694.383 227.490   1
 -26   1 -10 23.3224 40.6079   1
 -27  -2  10 38.4097 51.2936   1
 -27  -2  10 50.8663 186.714   2
 -26  -2  10-21.7006 39.5901   1
 -26   2  10-39.0590 56.1794   1
 -25  -2  10 64.0517 98.4782   1
 -25   2  10 222.572 133.896   1
 -25  -2  10 216.102 169.885   2
 -24  -2  10-35.6415 49.4582   1
 -24   2  10-20.0183 40.8355   1
 -24  -2  10-186.921 157.573   2
 -23  -2  10-11.6255 46.2368   1
 -23   2  10 106.791 88.5046   1
 -23  -2  10 13.1577 56.9067   2
 -22   2  10 152.957 101.453   1
 -22  -2  10-20.9665 62.0855   2
 -22   2  10 110.637 126.101   2
 -21   2  10-7.79145 32.8531   1
 -21   2  10-7.11932 40.8519   2
 -21  -2  10 63.3284 61.2559   2
 -20   2  10 49.3013 54.4158   1
 -20  -2  10-1.38801 89.1153   2
 -20   2  10 110.439 118.507   2
 -19   2  10 390.332 148.850   1
 -19   2  10 409.639 226.816   2
 -18   2  10 526.481 167.248   1
 -18   2  10 346.639 78.3134   3
 -18  -2  10 425.593 242.115   2
 -18   2  10 497.897 253.451   2
 -17   2  10 468.304 153.428   1
 -17   2  10 522.344 101.859   3
 -17  -2  10 510.768 236.803   2
 -17   2  10 515.094 237.493   2
 -16  -2  10 910.347 307.598   2
 -16   2  10 1048.66 327.071   2
 -16   2  10 709.341 182.613   1
 -15  -2  10 1069.56 307.513   2
 -15   2  10 964.918 315.559   2
 -14  -2  10 330.503 203.629   2
 -14   2  10 460.432 231.403   2
 -13  -2  10 189.737 119.400   2
 -13   2  10 99.3079 130.493   2
 -12  -2  10-34.5270 54.1537   2
 -12   2  10 62.2625 119.255   2
 -11  -2  10 228.344 130.148   2
 -11   2  10 29.4424 42.0598   2
  10   2 -10 759.656 143.727   2
 -10  -2  10 781.596 200.739   2
 -10   2  10 970.993 282.329   2
   9   2 -10 209.620 77.7860   2
   9  -2 -10 191.716 94.3176   2
  -9  -2  10 248.478 109.443   2
  -9   2  10 280.434 130.953   2
   8   2 -10-0.17035 14.7322   2
  -8  -2  10-25.2837 49.0808   2
   8  -2 -10-2.97427 54.0411   2
  -8  -2  10 3.76859 30.2129   1
  -8   2  10-8.97090 58.2580   2
  -7  -2  10 783.677 155.109   1
  -7  -2  10 803.886 176.976   2
   7  -2 -10 526.972 142.509   2
  -7   2  10 787.746 228.260   2
   7   2 -10 679.591 118.926   2
  -6  -2  10 1290.67 212.670   2
   6  -2 -10 1111.71 196.755   2
  -6  -2  10 1245.94 195.071   1
  -6   2  10 1208.53 265.479   2
   6   2 -10 1300.44 160.485   2
  -5  -2  10 976.163 174.313   2
   5  -2 -10 947.788 169.997   2
  -5  -2  10 1055.10 176.622   1
   5   2 -10 940.036 134.946   2
   4  -2 -10 4765.71 363.267   2
  -4  -2  10 5150.32 390.390   1
  -4  -2  10 5366.82 390.957   2
   3  -2 -10 700.470 131.581   2
  -3  -2  10 625.843 136.455   1
   2  -2 -10 362.864 83.8542   2
  -2   2  10 350.235 122.489   2
  -2  -2  10 299.190 93.6414   1
   1  -2 -10 496.851 94.7117   2
  -1  -2  10 480.730 118.630   1
  -1   2  10 564.590 140.480   2
   0   2  10 2359.76 262.032   2
   0  -2  10 2287.45 256.413   1
   0  -2 -10 2406.03 192.974   2
   1   2  10 1249.12 179.648   2
   1  -2  10 1368.82 199.077   1
  -1  -2 -10 1409.84 138.022   2
   2   2  10 32.3200 37.6672   2
   2   2  10-1.07240 7.55719   1
   2  -2  10 42.3564 39.1757   1
   3   2  10 31.2228 24.4193   2
   3  -2  10 15.0059 13.1275   1
   3   2  10 81.4111 37.6065   1
   4   2  10 386.910 86.7050   2
   4  -2  10 300.431 93.9565   1
   4   2  10 424.288 90.7676   1
   5   2  10 48.4053 38.5351   2
   5   2  10 44.2743 16.1143   1
   5  -2  10 47.7954 48.9453   1
   6   2  10 21.9311 7.43062   2
   6  -2  10 28.8327 30.2784   1
  -6   2 -10 62.4248 37.2297   1
   6   2  10 19.0544 20.6111   1
   7  -2  10 935.748 174.992   1
   7   2  10 702.533 111.562   1
  -7   2 -10 910.726 176.728   1
   7   2  10 949.201 137.572   3
   7   2  10 773.154 102.198   2
  -8   2 -10 744.736 160.112   1
   8   2  10 684.237 109.994   1
   8   2  10 737.181 121.505   3
   8   2  10 841.361 105.952   2
   9   2  10 320.988 67.4261   2
   9   2  10 376.748 82.7220   1
   9   2  10 328.674 86.1944   3
  -9   2 -10 469.997 129.054   1
  10   2  10 479.885 89.8951   1
 -10   2 -10 529.031 136.978   1
  10   2  10 523.897 109.771   3
 -11  -2 -10 129.582 51.1370   1
  11   2  10 213.202 62.0536   1
 -11   2 -10 200.760 89.6858   1
  11   2  10 199.303 64.7005   3
 -12  -2 -10 32.6055 28.1372   1
  12   2  10-3.51972 8.24837   1
  12   2  10-1.03923 20.4303   3
 -12   2 -10-67.9293 51.3858   1
  13   2  10 775.661 134.373   3
 -13   2 -10 572.901 152.085   1
 -13  -2 -10 619.971 117.877   1
  13   2  10 640.604 115.510   1
  14   2  10-31.0237 26.1468   1
 -14  -2 -10 9.08880 15.9060   1
 -14   2 -10-1.59514 14.4042   1
  14   2  10 12.7122 13.8700   3
 -15   2 -10 1122.80 223.521   1
  15   2  10 1002.79 155.449   3
  15  -2  10 1132.46 126.472   3
 -15  -2 -10 971.671 154.497   1
  15   2  10 1030.28 154.570   1
  16   2  10 559.866 115.807   1
 -16   2 -10 538.110 154.900   1
  16  -2  10 524.225 84.1148   3
  16   2  10 527.880 114.536   3
  16   2  10 498.088 168.926   2
 -16  -2 -10 354.568 95.2579   1
  17   2  10 89.5203 39.5344   3
 -17   2 -10 75.3010 52.7147   1
 -17  -2 -10 84.8771 48.5867   1
  17   2  10-100.566 77.9749   2
  17  -2  10 75.3832 31.7023   3
  18   2  10 159.435 68.6890   3
 -18   2 -10 56.5557 52.9526   1
 -18  -2 -10 147.312 58.9768   1
  18  -2  10 96.6202 35.7227   3
 -19   2 -10 494.055 153.656   1
 -19  -2 -10 503.321 116.838   1
  19   2  10 675.010 142.684   3
 -20   2 -10-36.2235 67.6485   1
  20   2  10 16.5652 31.9284   3
 -21   2 -10 117.326 54.6607   1
  21   2  10 229.770 82.7034   3
 -22   2 -10 54.8496 54.0082   1
  22   2  10-10.4665 22.1289   3
 -23   2 -10 16.3651 63.6430   1
  23   2  10 61.7184 62.9484   3
 -24   2 -10 82.1185 72.1455   1
  24   2  10 192.390 77.8093   3
 -25   2 -10 177.238 111.537   1
 -26   2 -10 178.091 103.354   1
 -26  -3  10 155.017 150.100   2
 -25  -3  10 1301.44 409.315   2
 -24  -3  10-14.9219 35.5497   1
 -24   3  10-88.2698 80.7150   1
 -24  -3  10 48.5124 57.0072   2
 -23   3  10 26.5684 43.0308   1
 -23  -3  10 38.6687 75.8242   2
 -23  -3  10-28.0598 22.8222   1
 -22   3  10-10.9701 30.0402   1
 -22  -3  10-167.131 146.710   2
 -21   3  10 240.931 168.586   1
 -21  -3  10-17.0405 65.8917   2
 -20   3  10 41.8555 52.1794   1
 -20  -3  10 36.4757 68.4612   2
 -19   3  10-7.29826 23.8667   1
 -19  -3  10-89.5586 145.541   2
 -19   3  10 91.2477 110.078   2
 -18   3  10 269.027 130.228   1
 -18  -3  10 402.689 206.190   2
 -18   3  10 205.172 110.024   2
 -17   3  10 290.012 125.774   1
 -17  -3  10 216.215 124.050   2
 -17   3  10-19.9257 52.9583   2
 -16   3  10 109.778 61.0344   1
 -16  -3  10 321.605 163.727   2
 -16   3  10 83.5594 95.1111   2
 -15  -3  10 1532.85 375.269   2
 -15   3  10 850.670 293.111   2
 -15   3  10 1390.14 262.909   1
 -14   3  10 54.4070 60.8338   1
 -14  -3  10 100.086 88.5977   2
 -14   3  10-32.3502 82.7846   2
 -13   3  10 29.3793 36.5955   1
 -13  -3  10 31.1154 82.6949   2
 -13   3  10-9.34409 54.4508   2
 -12  -3  10 776.336 220.322   2
 -12   3  10 723.533 247.869   2
 -12   3  10 582.517 158.821   1
 -11  -3  10 208.004 105.132   2
 -11  -3  10 80.6311 51.1515   1
 -11   3  10 304.347 167.968   2
 -10  -3  10 283.153 99.9011   1
 -10  -3  10 61.8109 34.7039   2
 -10   3  10 374.191 180.253   2
   9   3 -10 69.1809 49.3211   2
  -9  -3  10 68.3572 30.4566   2
  -9  -3  10 26.2860 27.9747   1
  -9   3  10-23.2680 45.5675   2
  -8  -3  10 757.166 180.542   2
   8  -3 -10 971.546 214.107   2
  -8   3  10 1001.58 271.684   2
  -8  -3  10 1066.39 185.854   1
   8   3 -10 925.037 141.001   2
  -7  -3  10 312.425 108.876   2
   7  -3 -10 288.743 98.8614   2
  -7   3  10 354.758 175.892   2
  -7  -3  10 423.347 116.191   1
  -6  -3  10 2061.55 266.129   2
   6  -3 -10 1753.03 261.127   2
  -6   3  10 2346.62 397.536   2
  -6  -3  10 2162.74 261.091   1
  -5  -3  10 15.7518 17.3245   2
   5  -3 -10-14.6415 50.1276   2
  -5  -3  10-25.2769 29.8208   1
  -5  -3  10 32.4245 37.4975   3
  -4  -3  10 94.8525 56.2389   2
   4  -3 -10 131.015 68.0052   2
  -4  -3  10 157.971 73.9186   1
  -4  -3  10 107.305 50.4121   3
   3  -3 -10 1044.52 171.789   2
  -3  -3  10 1118.40 151.244   3
  -3  -3  10 1263.88 197.392   1
  -3  -3  10 1176.56 173.704   2
  -2  -3  10 127.805 56.7813   2
   2  -3 -10 159.673 64.6200   2
  -2  -3  10 146.072 65.4750   3
  -2  -3  10 144.730 66.2943   1
  -1  -3  10 226.484 75.4174   2
   1  -3 -10 210.015 68.3821   2
  -1   3  10 126.587 57.6263   2
  -1  -3  10 211.684 87.0364   1
   1   3 -10 132.696 66.6400   1
   0  -3  10 48.3840 34.1690   2
   0  -3 -10 95.3971 41.6082   2
   0   3  10 99.0034 55.8813   2
   0  -3  10 89.6545 56.0750   1
  -1  -3 -10 29.2512 20.3234   2
   1   3  10 7.27267 36.9966   2
   1  -3  10-13.6624 34.2222   1
  -2  -3 -10 3.98411 12.2261   2
   2  -3  10 51.5033 44.2541   1
   2   3  10 28.4652 53.9728   2
   3  -3  10 26.5902 19.8474   1
   3   3  10 69.1348 51.3412   2
   3   3  10 40.6890 20.4691   1
   4   3  10 50.6237 32.6464   2
   4   3  10 41.2366 41.8248   3
   5   3  10 314.483 77.5382   2
   5   3  10 441.666 87.4533   1
   5   3  10 477.021 101.880   3
  -6   3 -10 8.41743 11.2943   1
   6   3  10-8.48967 21.4593   2
   6   3  10 69.7046 49.1234   3
   6   3  10-27.6562 20.7688   1
  -7   3 -10 85.1104 61.4810   1
   7   3  10 25.2125 21.5907   2
   7   3  10 58.8475 30.0467   1
   7   3  10 120.568 55.8287   3
   8   3  10 3.97904 7.65416   1
   8   3  10 18.9344 18.2750   2
   8   3  10-6.22902 24.7274   3
  -8   3 -10-2.64407 37.2429   1
   9   3  10 684.042 91.1207   1
   9   3  10 629.367 123.140   3
  -9   3 -10 872.177 184.125   1
   9   3  10 735.343 99.5521   2
  10   3  10 994.884 109.423   1
  10   3  10 965.698 158.039   3
 -10   3 -10 823.818 180.234   1
  10   3  10 791.553 95.5130   2
  11   3  10 400.493 65.6314   2
 -11   3 -10 356.510 119.591   1
  11   3  10 340.040 94.5210   3
  11   3  10 448.506 74.5408   1
  12   3  10-2.51058 13.9982   2
  12   3  10-3.21748 7.13699   1
 -12   3 -10 71.0970 56.4609   1
  12   3  10 36.0751 34.8592   3
  13   3  10 4066.04 369.843   2
 -13   3 -10 3368.79 389.021   1
  13   3  10 3763.11 310.408   3
  13   3  10 3295.69 209.504   1
  13   3  10 3644.84 203.626   2
  14   3  10 140.403 39.6970   2
  14   3  10 86.7469 37.9552   1
 -14   3 -10 129.125 74.2188   1
  14   3  10-66.5119 48.7708   2
  14   3  10 128.820 60.8789   3
 -15   3 -10 50.8581 55.5685   1
  15   3  10 2.79389 23.5976   3
  15  -3  10 3.70032 10.5975   3
 -16   3 -10 9.60698 28.8413   1
  16   3  10 7.40475 11.4316   3
  16  -3  10 14.0698 11.7763   3
  17   3  10 913.941 173.180   3
 -17   3 -10 997.315 221.481   1
 -18   3 -10 779.833 201.272   1
  18   3  10 827.565 163.089   3
 -19   3 -10-4.53285 29.4511   1
  19   3  10 21.2228 28.2568   3
 -20   3 -10 80.1950 68.5935   1
  20   3  10 14.5790 34.7761   3
 -21   3 -10 131.398 81.7050   1
  21   3  10 47.8352 30.8585   3
 -22   3 -10 102.691 79.8780   1
  22   3  10 189.643 85.1195   3
 -23   3 -10 66.8518 41.7878   1
  23   3  10-89.3901 59.5853   3
 -24   3 -10 107.892 86.6615   1
  24   3  10 97.9834 67.8284   3
  25   3  10 67.2020 53.5801   3
 -23   4  10 32.3522 50.1653   1
 -23  -4  10 27.5909 69.5068   2
 -22   4  10 177.053 110.899   1
 -22  -4  10 65.2058 95.1710   2
 -21   4  10-21.0678 39.7815   1
 -21  -4  10 181.487 140.517   2
 -20   4  10 315.323 154.795   1
 -20  -4  10 510.537 251.504   2
 -19   4  10 209.618 111.365   1
 -19  -4  10 570.367 271.380   2
 -18   4  10 6.73335 23.2255   1
 -18  -4  10-66.8680 104.376   2
 -17   4  10 420.996 163.474   1
 -17  -4  10 726.070 292.779   2
 -16   4  10-1.05717 45.0689   1
 -16  -4  10 55.5782 95.5328   2
 -15   4  10 228.054 104.922   1
 -15  -4  10 178.790 155.829   2
 -14   4  10 50.8460 50.8873   1
 -14   4  10 61.3564 81.1561   2
 -13   4  10-51.4960 49.6885   1
 -13  -4  10 65.9459 61.0047   2
 -13   4  10 96.2545 97.7129   2
 -12  -4  10 1825.50 337.193   2
 -12   4  10 1384.01 353.103   2
 -12   4  10 1627.16 272.532   1
 -11   4  10 41.1184 42.2283   1
 -11  -4  10-108.181 95.0923   2
 -11   4  10-70.0604 78.4005   2
 -10   4  10-42.6943 42.0788   1
 -10  -4  10-53.2049 71.3618   2
 -10   4  10 84.0318 83.2628   2
  -9  -4  10 1006.30 214.487   2
  -9   4  10 966.016 287.519   2
  -9   4  10 1188.76 213.950   1
  -8  -4  10 6054.81 503.055   2
  -8   4  10 5496.31 632.132   2
  -8  -4  10 5743.56 445.739   1
  -8   4  10 5657.86 451.225   1
  -7   4  10 538.247 136.490   1
  -7  -4  10 416.775 120.242   1
  -7  -4  10 483.566 139.507   2
   7  -4 -10 299.829 118.696   2
  -7   4  10 303.725 146.526   2
   6  -4 -10 2215.07 322.388   2
  -6   4  10 2456.94 399.967   2
  -6  -4  10 2087.54 264.684   1
  -6   4  10 2452.91 280.256   1
  -6  -4  10 2364.65 291.694   2
  -5  -4  10 280.372 82.7310   2
   5  -4 -10 339.815 108.584   2
  -5   4  10 238.691 122.302   2
  -5  -4  10 337.348 108.242   1
  -4  -4  10 135.645 82.0295   2
   4  -4 -10 25.0232 32.1635   2
  -4   4  10 79.3437 49.2297   2
  -4  -4  10 180.892 80.4697   1
  -3  -4  10 31.8031 16.4340   2
   3  -4 -10 34.8163 32.2779   2
  -3  -4  10 90.6184 57.3331   1
  -2  -4  10 322.831 89.5123   2
   2  -4 -10 126.490 57.2524   2
   2   4 -10 194.655 92.8744   1
  -2   4  10 208.090 67.8687   3
  -1  -4  10 41.3513 48.0622   2
   1   4 -10-17.3974 30.4596   1
   1  -4 -10 1.80216 24.8149   2
  -1  -4  10-4.26908 26.8417   3
  -1   4  10-4.26370 43.0016   2
  -1   4  10 25.0153 29.8306   3
   0  -4 -10 335.228 79.4847   2
   0   4 -10 371.576 121.819   1
   0  -4  10 400.489 95.2866   3
   0   4  10 386.506 131.115   2
   0   4  10 329.527 84.4676   3
   0  -4  10 343.545 94.2945   2
  -1   4 -10 55.0538 37.8861   1
  -1  -4 -10 89.3379 40.7458   2
   1  -4  10 103.359 47.2891   3
   1   4  10 164.431 69.8842   2
   1   4  10 67.4330 43.1608   3
  -2  -4 -10 100.906 37.0317   2
   2  -4  10 104.063 47.9710   3
   2   4  10 82.9116 61.0833   2
  -2   4 -10 94.3936 50.3906   1
   2   4  10 93.2712 52.6903   3
   3  -4  10 5.81694 15.6407   3
  -3   4 -10 32.0712 44.1722   1
   3   4  10 62.7766 44.5767   2
   3   4  10 54.7411 38.8602   3
  -4   4 -10 93.2854 65.4435   1
   4   4  10 95.5023 43.0086   1
   4  -4  10 125.451 48.6797   3
   4   4  10 137.275 66.9904   2
   4   4  10 69.8773 42.8395   3
  -5   4 -10 84.4652 63.9071   1
   5  -4  10 147.330 53.4243   3
   5   4  10 106.167 50.5656   2
   5   4  10 104.082 36.4012   1
   5   4  10 125.239 60.3385   3
   6   4  10 550.955 103.201   2
  -6   4 -10 682.897 167.377   1
   6  -4  10 667.058 107.745   3
   6   4  10 697.029 92.6611   1
   6   4  10 695.158 128.003   3
  -7   4 -10 596.941 159.006   1
   7   4  10 535.292 72.6677   1
   7  -4  10 471.821 89.0482   3
   7   4  10 316.426 70.3625   2
   7   4  10 436.774 107.347   3
   8  -4  10 201.516 55.8620   3
   8   4  10 118.219 58.0394   3
  -8   4 -10 191.058 87.3038   1
   8   4  10 173.234 35.1860   1
   9   4  10 21.2695 9.71161   1
   9  -4  10 44.0014 37.1366   3
   9   4  10 30.6697 17.0698   3
  -9   4 -10-0.16989 31.0392   1
  10   4  10 356.457 95.3912   3
  10  -4  10 330.099 71.4096   3
 -10   4 -10 331.940 122.203   1
 -11   4 -10 1399.48 259.091   1
  11  -4  10 1315.54 135.631   3
  11   4  10 1283.12 187.615   3
  12  -4  10 13.0817 23.6497   3
 -12   4 -10 60.6128 54.2202   1
  12   4  10-27.6768 45.8193   3
 -13   4 -10 666.709 184.817   1
  13   4  10 578.203 130.805   3
  14   4  10 181.780 74.7253   3
 -14   4 -10 168.460 94.8831   1
 -15   4 -10 174.766 88.8136   1
  15   4  10 126.991 60.9360   3
  16   4  10 80.6277 52.7523   3
 -16   4 -10 93.0647 63.8621   1
 -17   4 -10 8.85883 24.8122   1
  17   4  10 18.6256 14.3926   3
 -18   4 -10 48.0502 54.5135   1
  18   4  10 76.4437 53.1545   3
 -19   4 -10 551.463 180.850   1
  19   4  10 786.324 180.452   3
 -20   4 -10-72.8116 68.9627   1
  20   4  10 10.6036 20.0109   3
 -21   4 -10-43.4822 55.9199   1
  21   4  10 17.4610 34.9230   3
 -22   4 -10-68.4288 70.4279   1
  22   4  10 94.6781 66.4986   3
  23   4  10 61.8577 37.3089   3
  24   4  10 19.2379 30.4656   3
 -21   5  10 74.6019 73.9490   1
 -20   5  10 225.392 118.665   1
 -19   5  10 19.7438 38.3308   1
 -19  -5  10-333.867 193.500   2
 -18   5  10 79.7108 51.9225   1
 -18  -5  10 142.417 75.4104   2
 -17   5  10 19.4625 36.2246   1
 -17  -5  10 284.186 184.890   2
 -16   5  10 64.1877 61.8104   1
 -16  -5  10-40.0488 30.7202   2
 -15   5  10 32.4354 43.6827   1
 -15  -5  10-32.6409 107.674   2
 -15   5  10 31.3457 23.1180   3
 -14   5  10 154.908 85.1862   1
 -14  -5  10 127.920 167.519   2
 -14   5  10 115.623 38.8176   3
 -13   5  10 4.12626 50.3589   1
 -13  -5  10 97.8024 62.2818   2
 -13   5  10 36.8870 35.2644   3
 -12   5  10 465.768 153.562   1
 -12  -5  10 156.753 68.1273   2
 -12   5  10 234.183 63.4417   3
 -11   5  10-31.0714 38.9662   1
 -11  -5  10-43.4827 38.9320   2
 -11   5  10 19.5493 20.5998   3
 -10   5  10 18.9657 36.9031   1
 -10  -5  10-0.39932 25.7278   2
 -10   5  10 7.08884 25.9292   3
  -9   5  10 81.5712 58.2743   1
  -9  -5  10 104.601 69.6266   2
  -9   5  10 51.8740 34.1727   3
  -8   5  10 473.810 137.822   1
  -8  -5  10 641.757 166.569   2
  -8   5  10 444.556 91.8449   3
  -7   5  10 600.602 151.200   1
  -7  -5  10 518.674 145.142   2
  -7   5  10 629.043 112.035   3
  -6   5  10 334.084 109.039   1
  -6  -5  10 490.421 137.515   2
  -6   5  10 327.532 81.5758   3
  -5   5  10 140.475 71.5523   1
  -5  -5  10 213.380 87.0272   2
   5  -5 -10-60.5353 54.5655   2
  -5   5  10 219.509 70.1525   3
  -4  -5  10 149.631 73.0921   2
  -4   5  10 127.569 62.7403   1
   4  -5 -10 1.40912 19.8910   2
  -4   5  10 121.653 49.5793   3
   3   5 -10 28.2019 44.7350   1
  -3  -5  10 80.1964 49.3353   2
  -3   5  10 13.0784 28.6473   1
   3  -5 -10-29.1098 48.7559   2
  -3   5  10-16.0343 21.6220   3
  -2  -5  10 93.4973 54.7538   2
  -2   5  10 51.1296 45.9429   1
   2  -5 -10 134.276 63.4230   2
   2   5 -10 29.3203 36.0959   1
  -2   5  10 46.6490 33.2133   3
   1   5 -10 1045.96 212.819   1
   1  -5 -10 752.131 139.771   2
  -1   5  10 956.564 147.507   3
  -1  -5  10 965.186 163.914   2
   0  -5 -10 56.9628 34.1726   2
   0   5 -10-5.63461 14.4717   1
   0   5  10 39.1673 28.9390   3
   0  -5  10 33.1427 28.9918   2
  -1   5 -10 700.227 178.949   1
  -1  -5 -10 458.385 86.5196   2
   1   5  10 486.640 111.506   3
  -2  -5 -10 180.533 45.6053   2
   2   5  10 249.104 70.7370   1
  -2   5 -10 154.529 83.1053   1
   2   5  10 217.368 75.1247   3
   3  -5  10 1472.65 179.988   3
   3   5  10 1564.95 196.280   3
  -3   5 -10 1646.10 269.144   1
   3   5  10 1603.32 164.423   1
   4   5  10-13.5570 15.9355   1
  -4   5 -10-81.8636 60.4686   1
   4  -5  10 42.4220 44.6517   3
   4   5  10 6.37643 8.97705   3
   5   5  10 35.7167 21.6111   1
   5   5  10 33.4390 21.8877   1
  -5   5 -10 6.28368 19.7242   1
   5  -5  10 66.2222 32.4726   3
   5   5  10 79.0801 54.9710   3
   6   5  10-2.84870 5.41875   1
  -6   5 -10 17.5763 12.8430   1
   6   5  10 9.18007 8.45592   1
   6  -5  10-18.2350 30.0817   3
   6   5  10 24.5718 31.0935   3
  -7   5 -10-28.7087 63.8278   1
   7  -5  10 32.4247 19.9132   3
   7   5  10 5.72573 10.8038   3
  -8   5 -10 495.051 154.108   1
   8  -5  10 377.219 80.1902   3
   8   5  10 391.731 108.537   3
   9  -5  10 364.616 80.1525   3
   9   5  10 279.691 92.8961   3
  -9   5 -10 264.000 112.069   1
  10   5  10 74.2641 61.8062   3
 -10   5 -10 112.702 64.0306   1
 -11   5 -10 147.108 85.5348   1
  11   5  10 143.408 71.3090   3
 -12   5 -10 427.062 153.633   1
  12   5  10 261.635 91.4141   3
 -13   5 -10 92.9116 74.1862   1
  13   5  10-0.93411 27.1724   3
 -14   5 -10-86.1578 70.5508   1
  14   5  10 1.53028 37.2662   3
  15   5  10-7.79752 19.7687   3
 -15   5 -10-7.10161 23.0855   1
 -16   5 -10 16.5985 33.2976   1
  16   5  10 1.64854 21.0149   3
 -17   5 -10 28.7302 47.9691   1
  17   5  10 24.8121 28.7395   3
 -18   5 -10 75.8145 40.6487   1
  18   5  10 21.8981 15.1630   3
 -19   5 -10-51.0923 59.6031   1
  19   5  10 94.9774 64.4696   3
 -20   5 -10 99.3792 84.1852   1
  20   5  10 30.8678 38.7816   3
  21   5  10 91.6814 76.9278   3
 -19   6  10-73.9478 72.5554   1
 -18   6  10 365.677 162.959   1
 -17   6  10 47.8773 16.0810   1
 -16   6  10 42.3961 57.7037   1
 -15   6  10-59.3833 59.7549   1
 -15  -6  10 32.1192 92.8505   2
 -14   6  10 324.979 128.125   1
 -14  -6  10 275.620 122.366   2
 -13   6  10 242.634 105.512   1
 -13  -6  10 271.021 139.044   2
 -13   6  10 183.634 53.4892   3
 -12   6  10 281.313 122.547   1
 -12  -6  10 220.859 123.221   2
 -12   6  10 213.641 60.2591   3
 -11  -6  10-14.2416 77.5610   2
 -11   6  10 82.9422 72.8402   1
 -11   6  10 21.5987 12.7197   3
 -10  -6  10 384.610 143.281   2
 -10   6  10 273.954 109.952   1
 -10   6  10 430.552 88.7440   3
  -9  -6  10 39.6816 61.4676   2
  -9   6  10 44.3345 46.6478   1
  -9   6  10-6.23629 16.1057   3
  -8  -6  10 284.083 109.949   2
  -8   6  10 307.835 113.048   1
  -8   6  10 360.481 86.5798   3
  -7  -6  10 35.5462 45.7067   2
  -7   6  10 28.3055 30.1845   1
  -7   6  10 28.6247 25.0166   3
  -6  -6  10 29.4751 43.0180   2
  -6   6  10-47.4679 42.8576   1
  -6   6  10-22.8101 14.1659   3
  -5  -6  10 138.384 64.2519   2
  -5   6  10 117.358 60.2447   1
  -5   6  10 30.8079 30.2170   3
  -4  -6  10-3.57571 21.8823   2
  -4   6  10 32.3033 24.9334   1
  -4   6  10 10.1601 30.9306   3
  -3  -6  10 276.471 98.1182   2
   3   6 -10 245.719 115.438   1
   3  -6 -10 144.387 80.7882   2
  -3   6  10 306.351 97.8107   1
  -3   6  10 248.633 77.2070   3
  -2  -6  10 13.1305 20.1209   2
   2  -6 -10 52.5528 42.2121   2
  -2   6  10 44.4195 36.1740   1
   2   6 -10-12.0167 39.3986   1
  -2   6  10 7.16465 25.3857   3
  -1  -6  10 17.1961 45.2719   2
   1  -6 -10 29.1600 13.6204   2
  -1   6  10 42.4150 34.1551   1
   1   6 -10 24.6126 35.4213   1
  -1   6  10 102.381 40.9728   3
   0  -6  10 98.4793 60.7371   2
   0   6  10 51.1447 35.3506   1
   0   6 -10 118.067 81.2843   1
   0   6  10 58.4456 45.7602   3
  -1   6 -10 243.204 107.684   1
   1   6  10 189.223 71.8476   3
  -2   6 -10-77.9561 61.9188   1
   2   6  10-31.5502 37.0995   3
   3   6  10 44.6119 25.9355   1
  -3   6 -10 70.6166 33.4221   1
   3   6  10 32.5941 27.0558   3
  -4   6 -10 188.182 102.069   1
   4   6  10 111.517 38.8835   1
   4   6  10 55.0744 32.7122   3
  -5   6 -10-7.29356 22.3445   1
   5   6  10 7.29018 15.7975   3
   5   6  10 10.5261 9.34188   1
  -6   6 -10 164.678 100.736   1
   6   6  10 115.379 60.1421   3
  -7   6 -10 29.8505 39.6665   1
   7   6  10-6.42837 30.8570   3
  -8   6 -10 127.609 85.8717   1
   8   6  10 174.724 81.5592   3
   9   6  10 100.784 61.1636   3
  -9   6 -10 28.0599 47.2108   1
  10   6  10 10.8833 18.6447   3
 -10   6 -10-29.2721 41.9390   1
  11   6  10 65.8324 57.9136   3
 -11   6 -10 126.194 63.5770   1
  12   6  10-11.8287 22.6601   3
 -12   6 -10 33.2673 45.5263   1
  13   6  10 60.9357 55.5992   3
 -13   6 -10-61.0869 62.2416   1
  14   6  10 6.64292 10.7915   3
 -14   6 -10 15.3245 43.5862   1
 -15   6 -10 5.85721 22.0866   1
  15   6  10 16.1899 34.8549   3
 -16   6 -10 43.1448 55.1522   1
  16   6  10-71.8695 56.6295   3
 -17   6 -10 14.1208 34.6779   1
  17   6  10 26.9833 36.2009   3
 -16   7  10 71.0205 69.2454   1
 -15   7  10 68.1099 65.8058   1
 -14   7  10 70.8824 65.7113   1
 -13   7  10 170.685 98.8899   1
 -12   7  10 386.905 178.941   1
 -11  -7  10-107.823 83.4481   2
 -11   7  10 99.9069 66.1469   1
 -10  -7  10 56.0260 59.4710   2
 -10   7  10 60.2609 73.3704   1
 -10   7  10 59.2199 40.0877   3
  -9  -7  10 14.2364 64.7778   2
  -9   7  10 6.04116 19.6808   1
  -9   7  10 50.9841 38.0858   3
  -8  -7  10 7.85642 30.2702   2
  -8   7  10-58.2310 51.2780   1
  -8   7  10-14.8053 28.5253   3
  -7  -7  10 169.054 101.058   2
  -7   7  10 176.136 93.0835   1
  -7   7  10 60.3486 42.2084   3
  -6  -7  10 94.0509 73.7507   2
  -6   7  10-0.15585 12.0866   1
  -6   7  10 67.1827 42.7290   3
  -5   7  10 10.8222 18.0061   3
  -5  -7  10 20.4916 22.9116   2
  -5   7  10 15.7651 25.4636   1
  -4  -7  10 4.15200 28.9926   2
  -4   7  10 0.13602 6.79908   1
  -4   7  10-37.2317 38.9260   3
   3   7 -10 9.14562 23.7175   1
  -3  -7  10 83.8363 51.4751   2
  -3   7  10 72.1817 48.7461   1
  -3   7  10 61.1615 48.8457   3
  -2  -7  10 1.87183 22.1015   2
  -2   7  10 100.847 53.1185   1
  -2   7  10 180.826 70.7076   3
   2   7 -10 158.679 91.5779   1
   1   7 -10 96.1069 74.9991   1
  -1  -7  10-5.59999 40.2318   2
  -1   7  10 30.1838 30.7306   1
  -1   7  10 52.3777 49.4406   3
   0  -7  10 114.656 67.8935   2
   0   7 -10 60.1532 69.4605   1
   0   7  10 121.637 55.8470   1
   0   7  10 151.920 70.9603   3
  -1   7 -10 28.5987 49.8536   1
   1   7  10 77.0579 49.8783   3
   1  -7  10 85.9112 62.2109   2
   2   7  10 211.959 87.3418   3
  -2   7 -10 89.4328 70.3302   1
  -3   7 -10-20.4980 35.3903   1
   3   7  10-7.24068 33.3554   3
  -4   7 -10-36.3584 46.2056   1
   4   7  10 136.662 61.1810   3
  -5   7 -10-15.7804 31.5079   1
   5   7  10 23.2923 26.8608   3
  -6   7 -10 28.7037 59.3843   1
   6   7  10 27.3373 36.0371   3
  -7   7 -10 8.98790 14.7713   1
   7   7  10 12.6654 47.3686   3
  -8   7 -10-59.5977 60.8699   1
   8   7  10 28.0752 33.8796   3
  -9   7 -10-25.2271 40.9530   1
   9   7  10 39.0521 48.3892   3
 -10   7 -10 64.0295 64.0355   1
  10   7  10 41.8040 42.0961   3
  11   7  10 217.785 100.657   3
 -11   7 -10 233.014 121.844   1
  12   7  10 69.2725 48.5976   3
 -12   7 -10 198.992 147.354   1
  13   7  10-29.2266 37.7264   3
 -13   7 -10-60.6029 65.5783   1
 -13   8  10 155.952 97.0395   1
 -12   8  10-2.23781 16.1541   1
 -11   8  10-51.2781 48.8393   1
 -10   8  10 42.3842 48.1001   1
  -9   8  10 240.471 108.743   1
  -8   8  10 86.3754 64.1816   1
  -7   8  10-6.61397 19.6766   1
  -7   8  10-26.7561 28.3696   3
  -6   8  10-2.45308 21.9947   1
  -6   8  10-37.9974 47.0922   3
  -5  -8  10-4.17972 20.6493   2
  -5   8  10-2.76372 13.5188   1
  -5   8  10 7.83448 17.1466   3
  -4  -8  10 78.0540 59.9651   2
  -4   8  10 73.3097 48.0287   3
  -4   8  10-12.1953 21.8217   1
  -3  -8  10 22.4650 24.0952   2
  -3   8  10-20.3675 26.8367   3
  -2  -8  10 42.5291 57.1950   2
   2   8 -10 45.5403 52.8309   1
  -2   8  10 29.6535 58.2943   3
  -1  -8  10 33.1544 61.8787   2
   1   8 -10 53.5022 57.4655   1
  -1   8  10 18.6698 47.7862   3
   0  -8  10 40.2719 21.6119   2
   0   8  10-33.9345 35.6918   3
   0   8 -10-7.45273 24.8772   1
   1  -8  10 120.303 81.8256   2
  -1   8 -10-7.53849 24.2006   1
   1   8  10 65.1901 41.9817   3
  -2   8 -10 416.048 202.042   1
   2   8  10 315.553 108.880   3
   2  -8  10 473.756 149.510   2
   3   8  10-32.4202 36.1485   3
  -3   8 -10 60.7562 61.7874   1
   4   8  10 189.949 84.4492   3
  -4   8 -10 204.812 113.294   1
  -5   8 -10 32.4396 55.0148   1
   5   8  10 235.981 96.8200   3
  -6   8 -10 218.355 141.717   1
   6   8  10 321.117 115.867   3
  -7   8 -10 44.2334 55.3126   1
   7   8  10 32.0500 41.8724   3
  -8   8 -10 76.4112 72.5862   1
   8   8  10 18.9899 37.7318   3
  -9   8 -10-12.4116 32.6482   1
 -10   8 -10-115.719 90.6884   1
  -4   9  10 171.216 81.6415   3
  -3   9  10 352.446 115.240   3
  -2   9  10 11.7596 57.1813   3
   1   9 -10 365.947 154.437   1
  -1   9  10 254.684 99.1731   3
   0   9 -10 211.212 118.160   1
   0   9  10 90.3495 61.7320   3
   1   9  10 81.5130 73.6837   3
  -1   9 -10 35.3210 50.1628   1
   2  -9  10 65.2261 72.4981   2
  -2   9 -10-104.368 85.0055   1
   2   9  10 122.514 82.0582   3
   3  -9  10-23.2544 35.2155   2
  -3   9 -10 141.503 102.903   1
  -4   9 -10 104.426 86.3736   1
  -5   9 -10-19.7860 44.2010   1
 -27   0  11-88.7578 82.3022   1
 -26   0  11-19.8882 40.4125   1
 -26   0  11 70.6403 257.528   2
 -25   0  11-22.2936 66.0564   1
 -25   0  11 325.094 134.464   2
 -24   0  11 78.8937 81.5502   1
 -24   0  11 111.705 207.361   2
 -23   0  11 16.9688 49.4666   1
 -23   0  11 8.93657 49.4551   2
 -22   0  11-26.7309 28.3709   1
 -22   0  11-171.503 152.059   2
 -21   0  11 283.712 190.930   2
 -21   0  11 0.65990 56.0611   1
 -20   0  11 44.0986 60.5506   2
 -19   0  11 105.211 170.321   2
 -18   0  11 42.7091 70.7067   2
 -17   0  11-55.5992 83.1881   2
 -16   0  11-193.017 145.440   2
 -15   0  11-110.123 108.847   2
 -14   0  11 91.0680 84.8110   2
 -13   0  11 39.7281 33.8978   2
 -12   0  11-13.7500 48.2098   2
 -11   0  11-17.0405 76.7725   2
 -10   0  11 71.8506 84.3782   2
   9   0 -11 6.53709 14.1491   2
   8   0 -11 41.8075 58.8718   2
   7   0 -11-19.6654 39.3277   2
   6   0 -11-3.29117 14.3611   2
   5   0 -11 15.9360 34.5062   2
   4   0 -11 3.48785 31.3011   2
   3   0 -11 5.53006 22.3725   2
   2   0 -11-3.55974 20.1201   2
  -2   0  11 23.0015 29.3422   1
   1   0 -11 17.6114 25.4015   2
  -1   0  11 16.0424 31.7387   1
   0   0  11 70.7516 48.6885   1
   1   0  11 15.1992 15.3803   1
   2   0  11-9.52995 25.7484   1
   3   0  11 9.94274 32.0419   1
  -4   0 -11 28.4922 18.7231   1
   4   0  11 27.1055 26.8721   1
   5   0  11-40.7250 32.8298   1
  -5   0 -11-0.33350 11.0183   1
   6   0  11-37.2026 31.4962   1
  -6   0 -11 2.35218 27.2992   1
   7   0  11-52.4738 37.5699   1
  -7   0 -11-14.6344 35.3845   1
  -8   0 -11 20.6171 36.8178   1
   8   0  11 22.0114 32.1640   1
   9   0  11-50.2901 37.4936   1
  -9   0 -11-20.6218 21.7768   1
 -10   0 -11 79.6232 70.6245   1
  10   0  11 12.9454 32.9089   1
 -11   0 -11 28.1866 48.8852   1
  11   0  11 22.3493 34.9046   1
 -12   0 -11-13.4876 25.1885   1
  12   0  11 88.5956 50.4125   1
 -13   0 -11-17.7839 20.7030   1
  13   0  11-27.1963 30.0586   1
  13   0  11 22.0203 34.3798   3
 -14   0 -11 28.3708 32.4828   1
  14   0  11 6.08934 19.0016   3
 -15   0 -11 15.2003 14.9076   1
  15   0  11 19.1959 38.3246   3
 -16   0 -11 11.4461 11.4975   1
  16   0  11-18.4669 26.6221   3
 -17   0 -11 61.1673 49.3283   1
  17   0  11-11.3919 38.8629   3
 -18   0 -11-75.2340 55.8139   1
  18   0  11 33.9226 33.5023   3
  19   0  11 31.5117 16.4048   3
 -19   0 -11 62.2823 67.2379   1
  20   0  11 0.72428 8.88213   3
 -20   0 -11 23.5198 30.6056   1
  21   0  11 84.9658 40.9716   3
 -21   0 -11-14.9225 29.6551   1
 -22   0 -11 18.8789 31.7553   1
 -23   0 -11 99.4405 70.4309   1
 -24   0 -11 127.106 88.5551   1
 -28  -1  11 86.7935 80.5255   1
 -27  -1  11 169.565 109.449   1
 -27  -1  11-64.3739 109.535   2
 -26  -1  11-27.4841 45.4549   1
 -26   1  11 12.1607 35.1792   1
 -26  -1  11-88.7538 121.720   2
 -25  -1  11 619.647 203.084   1
 -25   1  11 478.163 190.475   1
 -25  -1  11 482.477 251.195   2
 -25   1  11 370.091 243.494   2
 -24  -1  11 37.0516 25.9384   1
 -24   1  11-10.3735 50.9491   1
 -24  -1  11 97.1007 116.634   2
 -24   1  11-6.41229 47.6879   2
 -23  -1  11 155.012 100.622   1
 -23   1  11 146.759 102.262   1
 -23  -1  11 26.5955 113.065   2
 -23   1  11 128.094 131.039   2
 -22   1  11 27.2033 101.392   1
 -22  -1  11 185.773 187.988   2
 -22   1  11-62.2509 95.1536   2
 -21   1  11 45.5645 52.9426   1
 -21  -1  11 54.0615 143.828   2
 -21   1  11 13.3616 87.3609   2
 -20   1  11 1065.67 251.950   1
 -20  -1  11 1471.53 444.902   2
 -20   1  11 1514.77 423.631   2
 -19   1  11 54.5253 85.1190   2
 -19  -1  11-21.7767 157.043   2
 -18  -1  11 114.991 133.791   2
 -18   1  11 147.831 133.508   2
 -17  -1  11 200.845 133.149   2
 -17   1  11 57.2642 95.7793   2
 -16  -1  11 73.5590 99.9468   2
 -16   1  11-26.9269 60.1395   2
 -15  -1  11 25.4771 84.9332   2
 -15   1  11 86.2025 126.688   2
 -14  -1  11 482.555 205.281   2
 -14   1  11 1025.58 328.223   2
 -13  -1  11 361.553 187.537   2
 -13   1  11 290.368 178.225   2
 -12  -1  11 720.324 238.411   2
 -12   1  11 781.322 261.614   2
 -11  -1  11 172.779 100.274   2
 -11   1  11 7.55993 61.6362   2
 -10  -1  11 328.033 169.174   2
 -10   1  11 182.368 100.144   2
   9   1 -11 48.0807 49.4205   2
  -9  -1  11 211.221 130.037   2
   8   1 -11 764.924 140.601   2
   8  -1 -11 907.608 176.229   2
  -8  -1  11 928.518 210.390   2
   7   1 -11 11.8898 38.7268   2
   7  -1 -11 0.36623 30.9000   2
   6  -1 -11 855.478 160.073   2
   6   1 -11 874.584 143.430   2
   5   1 -11 214.479 68.4290   2
   5  -1 -11 237.082 83.2164   2
  -5  -1  11 234.034 87.4706   1
   4   1 -11 229.015 65.1070   2
  -4  -1  11 279.084 95.8077   1
   4  -1 -11 169.581 62.4166   2
   3   1 -11 221.864 67.9090   2
  -3  -1  11 192.684 76.5081   1
   3  -1 -11 156.766 56.8077   2
   2  -1 -11 818.423 128.428   2
  -2  -1  11 855.122 161.827   1
  -1  -1  11 2754.99 283.150   1
   1  -1 -11 2745.30 217.406   2
   0   1  11 1266.69 185.127   1
   0  -1  11 1486.19 208.795   1
   0  -1 -11 1509.04 156.495   2
   1   1  11 311.196 90.4349   1
   1  -1  11 235.576 79.8542   1
   2  -1  11 151.651 63.3637   1
   2   1  11 228.749 75.2411   1
  -3   1 -11 46.1658 30.4013   1
   3   1  11-9.69626 15.9003   1
   3  -1  11 42.6797 38.5170   1
  -4   1 -11 1053.10 183.065   1
   4  -1  11 1005.46 172.253   1
   4   1  11 1081.26 161.082   1
  -5   1 -11 308.733 98.5440   1
   5  -1  11 307.736 97.2808   1
   5   1  11 363.181 95.0265   1
   6  -1  11 119.406 57.8824   1
   6   1  11 135.660 57.3477   1
  -6   1 -11 233.627 90.2820   1
   7  -1  11 316.234 97.9768   1
   7   1  11 460.951 108.241   1
  -7   1 -11 414.367 113.098   1
  -8  -1 -11 518.501 118.855   1
   8  -1  11 532.743 131.351   1
   8   1  11 452.922 104.430   1
  -8   1 -11 498.011 126.592   1
   9  -1  11 47.2716 33.3222   1
   9   1  11 93.4796 44.9126   1
  -9  -1 -11 114.193 64.0558   1
  -9   1 -11 44.8760 50.8168   1
 -10   1 -11 39.0329 34.0774   1
 -10  -1 -11 58.2018 39.6382   1
  10   1  11 80.0470 43.7101   1
 -11   1 -11 21.4720 37.7858   1
 -11  -1 -11 7.57894 30.5164   1
  11   1  11 13.6906 11.5152   1
  11   1  11 85.8532 51.3805   3
 -12  -1 -11 384.185 112.808   1
 -12   1 -11 424.313 124.817   1
  12   1  11 404.047 102.579   1
  12   1  11 427.691 101.526   3
 -13   1 -11 469.653 133.697   1
  13   1  11 423.916 106.340   1
 -13  -1 -11 523.308 124.819   1
  13   1  11 504.173 105.609   3
  14   1  11-37.4259 32.5666   1
 -14  -1 -11 30.8970 31.6852   1
  14   1  11 4.16176 18.7602   3
  14  -1  11 28.3719 28.3535   3
 -14   1 -11 21.5901 45.7465   1
  15   1  11 387.027 111.238   1
 -15  -1 -11 408.593 115.050   1
  15   1  11 351.320 85.6182   3
 -15   1 -11 351.960 125.134   1
  15  -1  11 343.133 80.6504   3
  16   1  11-16.9184 23.4087   1
 -16  -1 -11 5.84718 34.7258   1
  16   1  11 11.3544 20.4824   3
 -16   1 -11 4.72058 21.6355   1
  16  -1  11 48.8486 25.8309   3
 -17  -1 -11 58.1296 35.8286   1
  17   1  11 87.8644 48.0642   3
 -17   1 -11 119.602 74.3321   1
  17  -1  11 113.329 45.2817   3
 -18  -1 -11 40.8143 38.7526   1
  18   1  11-17.8326 17.6901   3
 -18   1 -11 73.4436 64.0010   1
  18  -1  11-4.51443 18.3438   3
 -19   1 -11-39.9880 40.1758   1
 -19  -1 -11 22.0869 29.5240   1
  19   1  11 5.17602 14.3527   3
  19  -1  11 29.7621 24.6624   3
 -20  -1 -11-31.6964 35.7554   1
  20   1  11 0.53144 26.6180   3
  20  -1  11 50.4877 31.3965   3
 -20   1 -11-0.19107 12.5485   1
 -21  -1 -11 2.01661 13.3938   1
  21   1  11 6.74672 20.3680   3
 -21   1 -11 38.5603 14.0861   1
  22   1  11 183.889 84.1306   3
 -22   1 -11 130.817 91.9216   1
  23   1  11 85.1722 53.8095   3
 -23   1 -11 168.064 115.083   1
 -24   1 -11 127.270 85.0459   1
 -25   1 -11 67.9060 64.9706   1
 -26   1 -11 124.574 85.2670   1
 -27  -2  11 73.1247 70.9877   1
 -27  -2  11 81.2449 115.221   2
 -26  -2  11-4.02884 22.1842   1
 -26  -2  11 78.6432 113.602   2
 -25  -2  11 1.45192 17.3762   1
 -25   2  11 131.471 107.254   1
 -25  -2  11 168.179 187.475   2
 -24  -2  11-2.54435 19.0980   1
 -24   2  11 69.2304 81.8828   1
 -24  -2  11-118.117 132.214   2
 -23   2  11 103.062 78.5618   1
 -23  -2  11 133.341 51.1005   2
 -23   2  11-70.9024 106.764   2
 -22   2  11 62.8526 58.4769   1
 -22  -2  11 165.309 145.037   2
 -22   2  11 366.624 298.416   2
 -21   2  11 46.6794 65.8452   1
 -21   2  11-69.5897 99.1539   2
 -21  -2  11-2.53153 172.298   2
 -20   2  11 7.69411 52.0354   1
 -20  -2  11 165.075 143.941   2
 -20   2  11-36.2975 80.0243   2
 -19   2  11 706.694 204.346   1
 -19  -2  11 936.985 334.232   2
 -19   2  11 819.278 320.392   2
 -18   2  11 370.395 139.542   1
 -18  -2  11 232.714 118.967   2
 -18   2  11 257.013 208.307   2
 -17   2  11 99.4343 48.9110   3
 -17  -2  11 146.722 66.9539   2
 -17   2  11-130.390 122.757   2
 -17   2  11 43.6972 58.0380   1
 -16  -2  11 1041.99 317.467   2
 -16   2  11 829.815 314.147   2
 -15  -2  11 706.150 267.340   2
 -15   2  11 289.523 174.194   2
 -14  -2  11 1307.02 343.432   2
 -14   2  11 1037.80 334.836   2
 -13  -2  11 144.598 98.5667   2
 -13   2  11 18.2052 100.542   2
 -12  -2  11 579.570 216.577   2
 -12   2  11 614.100 234.922   2
 -11  -2  11 80.9483 103.715   2
 -11   2  11 111.046 100.394   2
 -10  -2  11 205.555 82.5492   2
 -10   2  11 235.123 123.591   2
  -9  -2  11-13.2682 41.8449   2
  -9   2  11-81.4425 62.4839   2
   8  -2 -11 1510.42 252.858   2
  -8   2  11 2225.74 412.041   2
  -8  -2  11 1393.74 221.673   1
  -8  -2  11 1304.80 247.282   2
   8   2 -11 1612.96 196.308   2
   7  -2 -11 2177.21 289.190   2
  -7  -2  11 2585.99 331.725   2
  -7   2  11 2837.28 445.537   2
  -7  -2  11 2477.28 290.818   1
   7   2 -11 2372.18 231.493   2
  -6  -2  11 65.7282 40.6643   1
   6   2 -11 74.4047 38.2214   2
  -6  -2  11 159.234 78.0348   2
   6  -2 -11 46.6228 34.9534   2
  -6   2  11-32.9929 64.7651   2
  -5  -2  11 813.890 169.001   2
   5  -2 -11 748.727 154.050   2
  -5   2  11 552.164 181.218   2
   5   2 -11 844.494 129.731   2
  -5  -2  11 729.729 154.127   1
  -4  -2  11 63.9917 42.7917   1
  -4  -2  11 127.456 67.9879   2
   4  -2 -11 74.1190 62.4789   2
  -3  -2  11 3879.47 349.714   1
   3  -2 -11 3473.41 290.761   2
  -2  -2  11 703.887 148.301   1
   2  -2 -11 633.574 117.762   2
  -1  -2  11 1241.66 196.822   1
   1  -2 -11 1137.69 147.053   2
   0  -2 -11 211.128 59.8075   2
   0  -2  11 150.179 71.5296   1
   1   2  11 2154.36 248.689   2
   1  -2  11 2510.03 281.028   1
  -1  -2 -11 2221.51 181.550   2
   2   2  11 343.992 93.0916   2
   2   2  11 316.485 89.1384   1
   2  -2  11 272.945 94.7629   1
   3   2  11 757.020 132.707   2
   3  -2  11 858.585 166.989   1
   3   2  11 766.380 134.921   1
   4   2  11 448.520 100.443   2
   4  -2  11 555.214 137.923   1
   4   2  11 419.986 95.8625   1
   5  -2  11 1261.98 206.019   1
   5   2  11 1198.98 160.709   1
  -5   2 -11 1059.09 191.514   1
   5   2  11 993.928 138.550   2
   6   2  11 145.743 46.8487   2
   6  -2  11 465.776 126.816   1
  -6   2 -11 203.706 83.3819   1
   6   2  11 200.168 65.0030   1
   7   2  11-0.57068 27.9446   2
  -7   2 -11 7.59962 19.1965   1
   7   2  11-6.11384 12.0482   1
   8   2  11 78.7803 32.1386   2
  -8   2 -11 32.3849 37.7738   1
   8   2  11 72.2383 40.0273   1
   8   2  11 97.2777 60.4567   3
  -9   2 -11 534.583 137.895   1
   9   2  11 636.433 113.051   1
   9   2  11 689.615 124.061   3
   9   2  11 595.899 98.1631   2
  10   2  11 8.97238 22.5398   2
 -10   2 -11-19.2411 45.8716   1
  10   2  11 27.8496 34.5381   3
  10   2  11 18.9281 19.2251   1
 -11   2 -11 125.072 52.4573   1
  11   2  11 98.8225 44.1686   1
  11   2  11 208.522 73.1223   3
 -12  -2 -11 188.523 70.3681   1
  12   2  11 215.339 67.3946   1
  12   2  11 191.777 65.3890   3
 -12   2 -11 216.656 102.856   1
  13   2  11 216.699 68.3134   1
 -13  -2 -11 288.037 87.9105   1
  13   2  11 330.291 91.3586   3
 -13   2 -11 219.257 98.8838   1
 -14  -2 -11 412.307 102.344   1
  14   2  11 324.816 88.4117   1
 -14   2 -11 311.148 117.285   1
  14   2  11 396.732 100.315   3
  15   2  11 100.990 49.4953   1
 -15  -2 -11 109.242 54.4756   1
 -15   2 -11 125.966 83.5386   1
  15   2  11 115.200 64.8072   3
  15  -2  11 55.8316 34.7748   3
  16   2  11 49.8765 35.9434   1
 -16  -2 -11 35.7815 19.5169   1
 -16   2 -11 29.7180 49.5603   1
  16   2  11 58.1772 33.2269   3
  16  -2  11 92.5696 39.8871   3
 -17  -2 -11 309.656 97.0739   1
 -17   2 -11 411.717 137.032   1
  17   2  11 405.612 109.615   3
  17  -2  11 406.794 80.1340   3
 -18  -2 -11 195.392 82.0007   1
 -18   2 -11 30.4782 48.6963   1
  18   2  11 90.5870 51.2107   3
  18  -2  11 37.1939 20.4604   3
 -19  -2 -11 290.010 94.9407   1
  19   2  11 246.724 88.6213   3
 -19   2 -11 269.857 120.245   1
 -20   2 -11 598.055 179.112   1
  20   2  11 80.7648 54.8461   3
 -21   2 -11 78.7413 74.9135   1
  21   2  11 101.351 60.5747   3
 -22   2 -11 60.8675 68.1777   1
  22   2  11 204.443 81.3171   3
 -23   2 -11 97.1073 77.6733   1
  23   2  11 38.9133 37.9741   3
  24   2  11 116.849 65.3964   3
 -24   2 -11 198.712 106.882   1
 -25   2 -11-25.9714 43.4263   1
 -26   2 -11 105.146 117.234   1
 -26  -3  11 50.1465 169.843   2
 -25  -3  11 238.412 183.279   2
 -24  -3  11 15.7956 59.4403   2
 -24  -3  11-21.0292 36.6634   1
 -23   3  11-0.28124 65.1409   1
 -23  -3  11 7.36704 43.4183   2
 -22   3  11 150.549 108.052   1
 -22  -3  11 253.637 159.626   2
 -21   3  11 147.025 98.8048   1
 -21  -3  11 337.392 210.705   2
 -20   3  11 305.384 129.855   1
 -20  -3  11 771.371 343.742   2
 -20   3  11 434.363 241.456   2
 -19   3  11 121.958 94.0441   1
 -19  -3  11-84.3044 172.831   2
 -19   3  11 269.556 186.164   2
 -18   3  11-60.5245 60.1517   1
 -18  -3  11-11.1322 49.6493   2
 -18   3  11-99.3796 111.808   2
 -17   3  11 69.2814 42.2400   1
 -17  -3  11 177.816 129.233   2
 -17   3  11 128.675 121.968   2
 -16   3  11 504.040 161.794   1
 -16  -3  11 442.841 204.656   2
 -16   3  11 543.717 233.297   2
 -15   3  11-47.8505 49.3602   1
 -15  -3  11 120.593 146.059   2
 -15   3  11-4.77845 26.3871   2
 -14   3  11 268.876 112.086   1
 -14   3  11 153.002 123.937   2
 -14  -3  11 238.146 180.389   2
 -13  -3  11 1013.02 274.253   2
 -13   3  11 763.356 265.124   2
 -12  -3  11-28.1093 56.0064   2
 -12   3  11 53.8623 88.3816   2
 -11  -3  11 961.350 244.672   2
 -11   3  11 1072.62 311.008   2
 -10  -3  11 77.5328 39.5700   2
 -10   3  11 85.4589 94.3465   2
  -9  -3  11 0.94391 61.1825   2
  -9   3  11 133.650 117.983   2
  -8  -3  11 1476.23 258.974   2
  -8   3  11 1259.66 322.691   2
  -7  -3  11 242.411 102.988   2
   7  -3 -11 205.217 91.6221   2
  -7   3  11 286.747 150.027   2
  -7  -3  11 157.138 77.7992   1
  -6  -3  11 953.852 192.027   2
   6  -3 -11 806.902 177.963   2
  -6   3  11 1044.27 267.427   2
  -6  -3  11 790.137 163.020   1
  -5  -3  11 378.840 121.818   2
   5  -3 -11 251.389 92.6553   2
  -5  -3  11 251.066 86.5007   1
  -5   3  11 298.179 148.617   2
  -4  -3  11 121.773 67.7134   2
   4  -3 -11 0.34869 32.6013   2
  -4  -3  11 56.0275 43.4305   1
  -4   3  11-37.9008 50.6854   2
  -3  -3  11 55.8874 43.3286   2
  -3  -3  11 59.5348 51.9654   1
   3  -3 -11 6.37797 37.2038   2
  -3  -3  11 89.1359 50.7624   3
  -2  -3  11 743.196 142.002   2
   2  -3 -11 571.999 117.880   2
  -2  -3  11 580.179 139.922   1
   1   3 -11 1165.33 211.328   1
  -1  -3  11 1382.90 216.769   1
  -1  -3  11 1448.67 191.119   2
   1  -3 -11 1072.76 147.120   2
   0  -3  11 508.030 113.893   2
   0  -3 -11 578.205 100.015   2
   0   3  11 653.793 165.408   2
   0   3 -11 643.784 160.121   1
   0  -3  11 475.205 125.312   1
   1  -3  11 125.437 54.2349   2
  -1  -3 -11 135.740 46.6130   2
   1   3  11 106.574 81.1550   2
  -1   3 -11 148.837 71.3786   1
  -2  -3 -11-10.4088 9.49028   2
  -2   3 -11 16.4671 35.7927   1
   2   3  11 3.86940 30.0673   2
  -3   3 -11-38.5752 38.7162   1
   3   3  11 4.67273 32.8946   2
   3   3  11 22.6200 32.8402   1
   4   3  11 4.46458 10.5648   1
   4   3  11-70.9225 43.5102   2
  -4   3 -11-19.6443 29.8491   1
   5   3  11 457.436 97.9767   2
  -5   3 -11 579.298 151.725   1
   5   3  11 742.803 135.307   3
   5   3  11 560.657 104.323   1
   6   3  11 4.98749 23.7411   1
   6   3  11-0.07816 14.7436   2
  -6   3 -11 35.1098 43.9746   1
   6   3  11 23.5026 29.3984   3
   7   3  11 115.277 40.8746   2
  -7   3 -11 291.555 111.018   1
   7   3  11 102.545 40.0828   1
   7   3  11 218.960 72.2477   3
  -8   3 -11 210.621 91.5166   1
   8   3  11 197.290 62.4898   2
   8   3  11 277.554 68.2900   1
   8   3  11 214.162 87.8171   3
   9   3  11 26.0003 22.2737   1
  -9   3 -11-3.70090 26.5364   1
   9   3  11 40.3872 38.0201   2
   9   3  11 52.7599 44.5190   3
 -10   3 -11 26.2488 15.2273   1
  10   3  11 69.8112 35.5748   2
  10   3  11 31.3275 19.3421   1
  10   3  11 90.2557 64.0827   3
  11   3  11 78.2992 28.4854   2
  11   3  11 122.706 39.2551   1
  11   3  11 100.288 49.4876   3
 -11   3 -11 160.622 88.1184   1
  12   3  11 211.841 53.8291   2
  12   3  11 203.841 55.6238   1
  12   3  11 127.305 60.6405   3
 -12   3 -11 115.437 59.9420   1
  13   3  11 321.667 64.7297   2
  13   3  11 279.638 65.7023   1
 -13   3 -11 251.235 106.930   1
  13   3  11 362.036 101.195   3
 -14   3 -11 1319.03 249.825   1
  14   3  11 1142.22 176.371   3
  14   3  11 1056.68 205.114   2
  14   3  11 1125.17 131.799   1
  14   3  11 1088.56 123.004   2
 -15   3 -11 1412.32 269.177   1
  15   3  11 1248.12 189.801   3
  15   3  11 1306.03 134.294   2
 -16   3 -11 1875.59 312.357   1
  16   3  11 1686.39 229.472   3
  16  -3  11 1755.05 147.247   3
 -17   3 -11 536.055 167.704   1
  17   3  11 367.871 108.975   3
 -18   3 -11 66.9317 69.5566   1
  18   3  11 79.0121 59.4469   3
 -19   3 -11 183.415 107.888   1
  19   3  11 180.961 84.9991   3
 -20   3 -11 150.004 95.4368   1
  20   3  11 142.352 71.2173   3
 -21   3 -11 11.3740 74.1873   1
  21   3  11 19.0807 40.0790   3
 -22   3 -11-16.8459 21.9055   1
  22   3  11-19.5420 15.5797   3
 -23   3 -11 370.629 176.746   1
  23   3  11 40.3348 48.9794   3
 -24   3 -11 283.992 130.960   1
  24   3  11 253.298 94.9036   3
  25   3  11 75.5567 57.7285   3
 -23  -4  11-155.361 146.759   2
 -22   4  11 60.7689 47.6610   1
 -22  -4  11 431.413 238.588   2
 -21   4  11-54.2537 62.5663   1
 -21  -4  11 65.8610 97.9622   2
 -20   4  11 93.8908 93.2415   1
 -20  -4  11 60.0171 79.5450   2
 -19   4  11 78.3483 71.5279   1
 -19  -4  11 52.7778 177.782   2
 -18   4  11 284.866 130.746   1
 -18  -4  11 361.295 186.933   2
 -17   4  11 112.576 76.5575   1
 -17  -4  11-92.7341 103.533   2
 -16   4  11 43.9931 50.3603   1
 -16   4  11-12.7199 48.0444   2
 -15   4  11 340.672 142.584   1
 -15  -4  11 468.637 223.170   2
 -15   4  11 461.471 228.466   2
 -14   4  11 25.4287 37.3680   1
 -14  -4  11 41.5299 45.2722   2
 -14   4  11 34.0626 62.3866   2
 -13   4  11 568.307 166.202   1
 -13  -4  11 834.481 259.977   2
 -13   4  11 506.860 215.804   2
 -12   4  11 12.0490 54.0470   1
 -12  -4  11 104.064 63.8642   2
 -12   4  11-92.5001 94.2219   2
 -11   4  11 103.381 62.9541   1
 -11  -4  11 113.579 76.0708   2
 -11   4  11 150.451 114.746   2
 -10   4  11 0.32343 13.5853   1
 -10  -4  11 12.2777 37.1784   2
 -10   4  11 29.8517 94.5397   2
  -9   4  11 403.695 125.499   1
  -9  -4  11 429.915 150.751   2
  -9   4  11 363.782 177.711   2
  -8  -4  11 368.992 128.911   2
  -8   4  11 459.834 182.668   2
  -8   4  11 404.339 122.261   1
  -7  -4  11 441.229 135.964   2
  -7   4  11 497.308 186.557   2
  -6  -4  11 1714.66 259.138   2
   6  -4 -11 1118.79 217.764   2
  -6   4  11 1303.05 310.939   2
  -5  -4  11 43.7431 71.4597   2
   5  -4 -11-53.6413 68.2224   2
  -5   4  11-164.801 104.443   2
  -4  -4  11 115.300 54.1807   2
   4  -4 -11 212.266 82.5544   2
  -4   4  11 296.699 130.944   2
  -3  -4  11 245.724 87.6247   2
   3  -4 -11 161.937 74.4587   2
  -2  -4  11 54.4478 52.3757   2
   2  -4 -11 36.8737 48.8482   2
   2   4 -11 79.8102 56.3920   1
  -1  -4  11 174.399 71.8449   2
   1  -4 -11 209.428 74.9080   2
   1   4 -11 198.952 82.6913   1
  -1   4  11 112.002 57.1571   3
   0  -4  11 241.172 83.2432   2
   0  -4 -11 229.190 64.5397   2
   0   4  11 451.131 156.425   2
   0   4 -11 275.504 110.396   1
   0   4  11 365.701 92.7910   3
  -1  -4 -11 459.808 82.8918   2
  -1   4 -11 402.445 132.735   1
   1  -4  11 412.245 99.3109   3
   1   4  11 400.731 130.120   2
   1   4  11 462.482 106.581   3
   1  -4  11 534.097 117.939   2
  -2  -4 -11 462.995 75.6455   2
  -2   4 -11 354.359 123.783   1
   2  -4  11 599.786 117.675   3
   2   4  11 503.146 144.214   2
   2   4  11 354.665 92.7260   3
   3  -4  11 39.1435 51.8280   3
   3   4  11 20.7333 39.4959   2
  -3   4 -11-0.32455 26.4404   1
   3   4  11-1.89625 26.1520   3
   4  -4  11 220.031 64.2724   3
   4   4  11 106.274 57.8468   2
  -4   4 -11 199.463 92.3458   1
   4   4  11 159.366 69.3296   3
   4   4  11 137.267 54.7088   1
  -5   4 -11 23.6345 30.9679   1
   5  -4  11 1.65060 23.0041   3
   5   4  11 8.99838 31.9326   2
   5   4  11 11.1121 12.3357   1
   5   4  11 73.3808 48.9809   3
   6   4  11 1.87169 14.3601   1
  -6   4 -11 41.4274 38.6219   1
   6  -4  11 0.87122 10.5551   3
   6   4  11-109.555 51.4918   2
   6   4  11 37.0196 47.7660   3
  -7   4 -11-8.06993 21.1099   1
   7  -4  11 21.7062 30.7770   3
   7   4  11 30.6790 24.0237   2
   7   4  11 35.2537 25.2669   1
   7   4  11 52.4614 36.0298   3
  -8   4 -11 23.5280 48.3614   1
   8   4  11 22.1000 15.2529   1
   8   4  11 21.6668 27.4519   2
   8  -4  11 31.2112 25.4142   3
   8   4  11 25.4617 31.4289   3
  -9   4 -11-0.89787 25.8705   1
   9   4  11-3.63615 5.17374   2
   9  -4  11 45.8908 30.5909   3
   9   4  11 36.8916 14.9316   1
   9   4  11-8.05643 26.8766   3
  10  -4  11 246.507 64.3854   3
  10   4  11 124.884 34.4962   2
  10   4  11 343.496 95.9643   3
 -10   4 -11 225.399 106.167   1
  10   4  11 218.726 37.7246   1
  11  -4  11 81.9297 44.2078   3
  11   4  11 34.0129 42.5304   3
 -11   4 -11 149.808 75.8548   1
  12   4  11 13.1456 12.6043   3
 -12   4 -11 104.593 78.2305   1
  13   4  11 112.331 52.2497   3
 -13   4 -11 140.485 88.0196   1
 -14   4 -11 11.6506 43.6214   1
  14   4  11-5.87695 29.5653   3
 -15   4 -11 352.278 137.259   1
  15   4  11 572.636 143.657   3
 -16   4 -11 206.959 109.263   1
  16   4  11 157.765 77.9904   3
 -17   4 -11 48.3541 55.0176   1
  17   4  11 5.36774 31.0618   3
 -18   4 -11 214.489 118.130   1
  18   4  11 161.041 77.7245   3
 -19   4 -11 30.8859 49.7830   1
  19   4  11 52.5176 46.0866   3
 -20   4 -11 517.370 186.696   1
  20   4  11 543.576 152.717   3
 -21   4 -11-43.0590 58.1672   1
  21   4  11 9.17215 19.9927   3
  22   4  11-67.6578 55.4680   3
  23   4  11 9.18580 41.1818   3
 -20   5  11 109.366 87.9463   1
 -20  -5  11-3.79799 45.3331   2
 -19   5  11 93.1356 94.4531   1
 -19  -5  11 118.868 132.162   2
 -18   5  11 96.6392 79.3537   1
 -18  -5  11-21.0840 57.8051   2
 -17   5  11 35.9026 48.4233   1
 -17  -5  11-14.5035 67.0170   2
 -16   5  11 64.3984 55.6229   1
 -16  -5  11 155.257 173.406   2
 -15   5  11 79.3276 63.7043   1
 -15  -5  11 213.631 127.618   2
 -15   5  11 116.951 46.2678   3
 -14   5  11-74.3604 64.1745   1
 -14  -5  11-83.2630 42.2410   2
 -14   5  11 8.39516 25.6975   3
 -13   5  11 38.0607 62.3628   1
 -13  -5  11 35.0978 22.9160   2
 -13   5  11 41.0169 27.6813   3
 -12   5  11-48.9311 50.4035   1
 -12  -5  11 5.13538 78.5839   2
 -12   5  11 10.7376 10.0747   3
 -11   5  11 44.5906 45.1396   1
 -11  -5  11-54.1901 32.0474   2
 -11   5  11 26.4145 22.8843   3
 -10   5  11 535.905 153.841   1
 -10  -5  11 266.025 142.542   2
 -10   5  11 360.759 85.3363   3
  -9   5  11-48.6380 46.5737   1
  -9  -5  11 111.884 80.4967   2
  -9   5  11 105.301 101.543   2
  -9   5  11-2.75325 25.3094   3
  -8   5  11 43.8358 53.6198   1
  -8  -5  11 46.7128 66.9397   2
  -8   5  11-100.950 91.3381   2
  -8   5  11-2.27190 15.1277   3
  -7   5  11 395.673 123.424   1
  -7  -5  11 320.588 124.370   2
  -7   5  11 329.057 152.746   2
  -7   5  11 418.111 93.7693   3
  -6   5  11 187.703 80.5358   1
  -6  -5  11 170.308 89.9008   2
  -6   5  11 93.6933 63.1867   2
  -6   5  11 231.072 71.7962   3
  -5   5  11 395.065 120.540   1
  -5  -5  11 388.569 124.910   2
   5  -5 -11 276.472 110.320   2
  -5   5  11 429.302 166.675   2
  -5   5  11 294.847 79.7177   3
  -4   5  11 628.358 142.965   1
  -4  -5  11 523.780 132.201   2
   4  -5 -11 350.437 127.230   2
  -4   5  11 427.238 160.498   2
  -4   5  11 481.791 103.685   3
  -3   5  11 68.1618 52.3957   1
  -3  -5  11 12.7165 21.3281   2
   3  -5 -11 5.92891 53.1703   2
  -3   5  11 87.3616 63.7282   2
  -3   5  11 49.4117 38.9640   3
  -2  -5  11 823.773 161.992   2
  -2   5  11 663.468 139.761   1
   2  -5 -11 738.083 150.023   2
   2   5 -11 761.956 192.272   1
  -2   5  11 763.172 133.817   3
  -1  -5  11 830.928 159.827   2
   1  -5 -11 708.409 134.283   2
   1   5 -11 891.590 205.666   1
  -1   5  11 824.751 141.276   3
  -1   5  11 864.769 154.948   1
   0  -5  11 539.208 125.434   2
   0  -5 -11 373.028 84.0078   2
   0   5 -11 388.033 138.542   1
   0   5  11 495.783 112.022   3
  -1  -5 -11 321.932 71.6653   2
  -1   5 -11 478.232 153.759   1
   1   5  11 353.340 115.409   2
   1   5  11 420.763 102.820   3
  -2   5 -11 46.0202 48.0732   1
  -2  -5 -11 101.127 33.6283   2
   2   5  11 61.5471 43.8734   3
   3   5  11 152.405 54.6909   1
  -3   5 -11 289.332 120.340   1
   3   5  11 122.244 56.1101   3
   4   5  11 217.375 59.0799   1
  -4   5 -11 117.360 65.1181   1
   4   5  11 182.132 55.9559   1
   4   5  11 131.381 53.8928   3
   5   5  11 23.2853 7.10689   1
  -5   5 -11 56.2764 52.4613   1
   5   5  11 69.2156 49.8195   3
   5   5  11 11.5899 7.15586   1
   6   5  11 16.6694 13.9357   1
   6   5  11 4.42530 5.38872   1
  -6   5 -11 66.8122 57.2917   1
   6  -5  11 11.7823 21.7886   3
   6   5  11 101.350 61.6259   3
  -7   5 -11 141.001 85.1598   1
   7   5  11 77.4502 23.1233   1
   7  -5  11 29.9167 15.9233   3
   7   5  11 41.6010 44.9508   3
  -8   5 -11-24.9312 36.4607   1
   8  -5  11 28.6169 22.6561   3
   8   5  11-0.89043 35.7954   3
  -9   5 -11 160.438 92.3746   1
   9   5  11 158.503 64.7595   3
 -10   5 -11 75.9507 64.0274   1
  10   5  11 52.0115 45.6235   3
  11   5  11 107.484 57.3171   3
 -11   5 -11 259.662 128.622   1
  12   5  11 226.046 91.7929   3
 -12   5 -11 228.057 111.688   1
  13   5  11 30.3967 33.8773   3
 -13   5 -11 26.9239 40.6637   1
  14   5  11-37.9754 56.5291   3
 -14   5 -11-42.7693 44.4560   1
  15   5  11 6.09633 46.0083   3
 -15   5 -11 71.2974 66.6604   1
 -16   5 -11-6.40703 24.3970   1
  16   5  11 5.70464 30.0629   3
 -17   5 -11-50.3479 58.9860   1
  17   5  11-34.5267 39.0257   3
 -18   5 -11-27.8848 44.2983   1
  18   5  11 70.7109 49.6221   3
 -19   5 -11 127.957 112.221   1
  19   5  11 136.718 78.0303   3
  20   5  11 56.1662 46.3180   3
 -18   6  11-56.7887 63.8751   1
 -17   6  11 143.275 82.9129   1
 -16   6  11 2.70855 34.3310   1
 -16  -6  11 69.0946 87.0598   2
 -15   6  11-36.2379 48.0354   1
 -15  -6  11-250.292 152.722   2
 -14   6  11-19.9473 60.0485   1
 -14  -6  11 319.621 138.799   2
 -13   6  11-51.8489 54.4952   1
 -13  -6  11 1.15613 22.5528   2
 -13   6  11-39.1973 26.9899   3
 -12   6  11-55.5455 54.7864   1
 -12   6  11-14.9975 13.2321   3
 -11   6  11 58.9537 55.2325   1
 -11   6  11 8.20190 20.0076   3
 -10   6  11 150.997 83.2135   1
 -10  -6  11 171.468 86.2076   2
 -10   6  11 199.438 60.3009   3
  -9  -6  11 5.74626 47.2241   2
  -9   6  11 40.6701 48.8398   1
  -9   6  11 91.4333 50.0385   3
  -8  -6  11 288.692 122.330   2
  -8   6  11 167.263 83.5957   1
  -8   6  11 232.646 73.8530   3
  -7  -6  11 4.84555 51.8470   2
  -7   6  11 107.007 68.3232   1
  -7   6  11-9.79228 30.4188   3
  -6  -6  11 194.194 103.123   2
  -6   6  11 39.3051 43.4397   1
  -6   6  11 81.3904 45.8580   3
  -5  -6  11 34.2155 32.7246   2
  -5   6  11 25.5763 31.2763   1
  -5   6  11 15.1310 34.4873   3
  -4  -6  11 24.7801 46.0392   2
  -4   6  11 20.2704 27.0521   1
  -4   6  11 22.2819 21.2860   3
  -3  -6  11 258.848 92.6920   2
  -3   6  11 248.718 89.5627   1
  -3   6  11 184.934 72.4242   3
  -2  -6  11 454.528 126.542   2
  -2   6  11 413.066 113.631   1
   2   6 -11 413.190 151.691   1
  -2   6  11 428.669 104.692   3
  -1  -6  11 22.1625 41.2209   2
  -1   6  11 47.1507 30.1027   1
   1   6 -11 57.8869 68.1464   1
  -1   6  11 4.80277 24.0257   3
   0  -6  11 46.2922 46.3679   2
   0   6  11 21.5634 24.2158   1
   0   6 -11-0.19798 55.5691   1
   0   6  11 26.3082 33.4416   3
  -1   6 -11 25.3879 22.1779   1
   1   6  11-5.43996 28.8246   3
   1  -6  11 19.1596 38.3061   2
  -2   6 -11 41.8923 47.2977   1
   2   6  11 0.21298 12.8711   3
   3   6  11 62.0246 32.9594   1
   3   6  11 29.4374 31.7412   3
  -3   6 -11 42.1998 43.4281   1
   4   6  11-2.46205 6.64260   1
  -4   6 -11-12.7443 28.1506   1
   4   6  11 1.85652 10.4016   3
  -5   6 -11-1.88227 54.6055   1
   5   6  11-5.51655 15.4489   3
  -6   6 -11 74.4753 71.3435   1
   6   6  11-0.96248 30.6789   3
  -7   6 -11 435.153 154.418   1
   7   6  11 301.596 103.564   3
  -8   6 -11 226.098 112.531   1
   8   6  11 332.454 111.116   3
  -9   6 -11 128.385 85.8295   1
   9   6  11 93.3251 66.9284   3
 -10   6 -11-110.088 81.2683   1
  10   6  11-71.7107 51.6878   3
 -11   6 -11 196.751 105.161   1
  11   6  11 82.5490 68.2739   3
  12   6  11 49.6020 46.2037   3
 -12   6 -11 45.8430 45.9474   1
  13   6  11 108.308 66.5664   3
 -13   6 -11 1.24762 41.0691   1
  14   6  11 12.7060 15.7605   3
 -14   6 -11 55.9520 84.4697   1
  15   6  11 22.8663 32.8760   3
 -15   6 -11-111.146 86.8802   1
  16   6  11-2.95281 42.6630   3
 -16   6 -11 107.681 84.3891   1
 -16   7  11 93.1333 116.079   1
 -15   7  11 132.951 92.3378   1
 -14   7  11 71.3901 66.8057   1
 -13   7  11 88.1824 72.7651   1
 -12   7  11 85.2272 80.5802   1
 -11  -7  11 141.664 38.9436   2
 -11   7  11 186.295 103.142   1
 -10   7  11 22.5465 26.9023   3
 -10   7  11-0.39778 10.5521   1
  -9   7  11-38.0252 43.3628   1
  -9   7  11-20.0251 22.6113   3
  -8  -7  11 43.5581 35.8563   2
  -8   7  11 19.4066 31.5011   1
  -8   7  11 42.3592 27.5317   3
  -7  -7  11 41.8239 45.7607   2
  -7   7  11 27.4317 35.4977   1
  -7   7  11 18.2133 22.1087   3
  -6  -7  11 91.3309 68.6390   2
  -6   7  11 31.9208 37.4540   1
  -6   7  11 33.2701 26.9982   3
  -5  -7  11 20.3411 24.7061   2
  -5   7  11-81.7071 56.6076   1
  -5   7  11 14.1200 19.9780   3
  -4  -7  11 63.0137 30.9827   2
  -4   7  11 18.1829 20.1634   1
  -4   7  11-39.0682 32.9370   3
  -3  -7  11 67.3778 58.8047   2
  -3   7  11 51.6222 42.3451   1
  -3   7  11-0.10734 28.3546   3
  -2  -7  11 72.7519 19.8767   2
  -2   7  11 79.9508 50.1286   1
   2   7 -11 142.877 89.8423   1
  -2   7  11 106.137 59.2907   3
  -1  -7  11 37.0442 58.9334   2
   1   7 -11-8.39998 25.1960   1
  -1   7  11-25.4109 27.4338   1
  -1   7  11 19.6228 18.5643   3
   0  -7  11 102.742 96.9540   2
   0   7  11 45.4227 45.2595   1
   0   7  11 46.2616 47.2187   3
   0   7 -11 38.5162 49.7440   1
   1  -7  11 460.914 142.410   2
  -1   7 -11 190.981 115.312   1
   1   7  11 180.661 78.4135   3
  -2   7 -11 160.018 96.1532   1
   2   7  11 135.532 60.6324   3
   3   7  11 63.9095 55.3138   3
  -3   7 -11 70.4410 72.4273   1
  -4   7 -11 119.316 94.4556   1
   4   7  11-17.8083 38.9286   3
  -5   7 -11 15.2158 32.3154   1
   5   7  11 77.3678 53.1975   3
  -6   7 -11-33.9461 46.8463   1
   6   7  11 13.7862 29.0844   3
  -7   7 -11 159.018 99.4096   1
   7   7  11 244.293 104.238   3
  -8   7 -11 10.1340 71.3785   1
   8   7  11 31.5961 26.8456   3
  -9   7 -11-136.592 94.1230   1
   9   7  11 34.0134 55.8195   3
 -10   7 -11-85.7393 75.8274   1
  10   7  11-0.64996 25.0252   3
 -11   7 -11 186.930 136.130   1
  11   7  11 110.368 64.5197   3
 -12   7 -11 291.369 152.341   1
  12   7  11 245.415 108.136   3
 -13   7 -11-87.0209 79.6033   1
 -13   8  11 51.1529 56.6791   1
 -12   8  11 142.536 91.5465   1
 -11   8  11 15.5598 31.6762   1
 -10   8  11 63.1198 59.0939   1
  -9   8  11 183.111 96.3171   1
  -8   8  11 409.375 146.186   1
  -7   8  11 181.052 90.9860   1
  -7   8  11-44.3943 36.8903   3
  -6   8  11 661.781 167.730   1
  -6   8  11 83.6433 55.3911   3
  -5  -8  11 348.685 154.770   2
  -5   8  11 231.256 96.3110   1
  -5   8  11 153.949 67.3390   3
  -4  -8  11 14.5556 30.4436   2
  -4   8  11 41.8088 34.6082   3
  -3  -8  11-24.3748 69.0612   2
  -3   8  11-0.12874 10.1091   3
  -2  -8  11 99.4022 74.2365   2
   2   8 -11 178.974 116.784   1
  -2   8  11 39.4293 45.7482   3
  -1  -8  11-17.3075 33.3298   2
  -1   8  11 100.183 59.6207   3
   0  -8  11 96.5318 86.3383   2
   0   8 -11 17.8336 35.5624   1
   0   8  11 27.6439 46.2984   3
   1  -8  11 124.081 94.1699   2
   1   8  11 123.343 67.6116   3
  -1   8 -11 63.0984 64.2277   1
   2  -8  11 44.0968 47.5498   2
  -2   8 -11-15.3611 32.5058   1
   2   8  11 59.7251 48.2261   3
  -3   8 -11 212.484 117.348   1
   3   8  11 166.620 85.4990   3
   4   8  11 74.8418 65.7366   3
  -4   8 -11-31.2231 47.3212   1
   5   8  11 626.251 160.072   3
  -5   8 -11 871.394 240.495   1
  -6   8 -11 137.020 96.4230   1
   6   8  11-31.3399 38.1517   3
  -7   8 -11 140.694 99.0619   1
   7   8  11 258.443 109.805   3
  -8   8 -11 195.371 122.413   1
  -4   9  11 52.2308 44.0019   3
  -3   9  11-171.942 80.6613   3
  -2   9  11 49.5791 49.4857   3
  -1   9  11 26.2551 40.4942   3
   1   9 -11 21.1251 40.7603   1
   0   9 -11 180.056 112.460   1
   0   9  11 86.8159 60.2923   3
  -1   9 -11 155.209 104.799   1
   1   9  11-2.94981 81.1958   3
   2  -9  11-18.3329 54.1293   2
  -2   9 -11 13.1186 33.8269   1
   3  -9  11 197.421 93.9879   2
  -3   9 -11 318.714 166.278   1
   4  -9  11 231.656 111.657   2
 -26   0  12 330.510 143.829   1
 -26   0  12 666.938 342.297   2
 -25   0  12 203.170 116.363   1
 -25   0  12-17.3947 215.113   2
 -24   0  12 16.0809 28.2159   1
 -24   0  12 317.669 217.698   2
 -23   0  12 382.294 151.445   1
 -23   0  12 380.711 232.968   2
 -22   0  12 55.5532 53.5817   2
 -22   0  12 38.1769 44.0157   1
 -21   0  12-122.855 133.685   2
 -20   0  12 230.833 186.347   2
 -19   0  12 50.7118 83.3366   2
 -18   0  12 699.725 299.426   2
 -17   0  12-48.4815 102.397   2
 -16   0  12 287.367 178.947   2
 -15   0  12-61.1713 94.6482   2
 -14   0  12 94.0066 122.651   2
 -13   0  12-22.4930 83.5603   2
 -12   0  12 379.282 187.219   2
 -11   0  12 53.0759 65.5689   2
 -10   0  12 153.196 85.3848   2
  -9   0  12 396.664 162.811   2
   7   0 -12 14.0790 27.0038   2
   6   0 -12 128.853 70.2553   2
   5   0 -12 76.6096 48.0846   2
   4   0 -12 1372.07 175.161   2
   3   0 -12 1561.09 180.169   2
   2   0 -12 31.6838 18.0147   2
  -2   0  12 19.8659 49.2968   1
  -1   0  12 1911.86 242.470   1
   0   0  12 309.938 111.114   1
   1   0  12 198.997 69.2378   1
   2   0  12 304.941 94.4110   1
   3   0  12 110.526 53.2263   1
   4   0  12 68.5213 37.8022   2
   4   0  12 67.4671 40.1106   1
   5   0  12 154.682 56.6807   2
  -5   0 -12 184.220 85.1678   1
   5   0  12 274.864 91.4141   1
  -6   0 -12 1157.87 196.915   1
   6   0  12 918.482 164.267   1
   6   0  12 947.383 141.476   2
  -7   0 -12 64.9233 56.1858   1
   7   0  12-13.4132 19.0407   1
   8   0  12 229.295 82.6489   1
  -8   0 -12 218.592 88.7289   1
   9   0  12 2390.08 269.910   1
  -9   0 -12 2408.27 283.000   1
  10   0  12 102.469 53.4081   1
 -10   0 -12 73.5078 52.9198   1
  11   0  12 4878.91 392.415   1
 -11   0 -12 4850.31 410.079   1
 -12   0 -12 3020.09 327.433   1
 -13   0 -12-21.7477 29.2131   1
  13   0  12 9.85120 32.9473   3
 -14   0 -12 33.0139 43.2436   1
  14   0  12 36.5566 32.1551   3
 -15   0 -12 26.1811 27.5520   1
  15   0  12 17.3057 19.4055   3
 -16   0 -12 33.2890 24.3237   1
  16   0  12 7.19135 21.4243   3
 -17   0 -12 49.9225 46.1488   1
  17   0  12-1.30877 17.7741   3
 -18   0 -12 100.221 75.7372   1
  18   0  12 224.148 70.5312   3
 -19   0 -12-4.47756 39.6818   1
  19   0  12 2.11477 27.9593   3
 -20   0 -12 233.873 105.630   1
  20   0  12 185.287 67.3653   3
 -21   0 -12 111.443 73.5520   1
  21   0  12 45.2729 37.5793   3
 -22   0 -12 30.0566 40.2862   1
 -23   0 -12 183.868 97.3096   1
 -27  -1  12 251.561 135.772   1
 -26  -1  12 64.0364 56.8551   1
 -26   1  12-84.7308 82.3726   1
 -26  -1  12 70.6396 179.851   2
 -25  -1  12 482.249 174.243   1
 -25   1  12 433.117 180.943   1
 -25  -1  12 180.190 158.986   2
 -25   1  12 140.021 209.499   2
 -24  -1  12 55.4141 59.7237   1
 -24   1  12-20.6804 47.2634   1
 -24  -1  12-41.5619 86.3702   2
 -24   1  12-188.334 172.861   2
 -23   1  12 89.7004 78.5064   1
 -23   1  12 216.373 183.596   2
 -23  -1  12-84.0327 35.4749   1
 -22   1  12-78.7875 72.2772   1
 -22  -1  12-49.3522 174.366   2
 -22   1  12 85.0949 112.367   2
 -21   1  12 57.5268 54.4506   1
 -21  -1  12-33.7041 123.627   2
 -21   1  12-108.564 124.361   2
 -20  -1  12 1387.41 437.104   2
 -20   1  12 1009.57 385.437   2
 -20   1  12 1242.27 278.131   1
 -19  -1  12 70.6278 114.598   2
 -19   1  12-140.785 136.025   2
 -18  -1  12 289.420 229.417   2
 -18   1  12 318.064 232.707   2
 -17  -1  12 48.7283 139.553   2
 -17   1  12 190.056 151.277   2
 -16  -1  12 43.7145 96.8246   2
 -16   1  12 152.333 157.151   2
 -15  -1  12 27.1728 104.932   2
 -15   1  12 95.2154 55.7725   2
 -14  -1  12 429.194 227.815   2
 -14   1  12 480.387 222.826   2
 -13  -1  12 658.918 251.697   2
 -13   1  12 341.317 153.006   2
 -12  -1  12 240.603 156.264   2
 -12   1  12 347.603 180.025   2
 -11  -1  12 72.7349 62.2305   2
 -11   1  12 189.205 125.001   2
 -10  -1  12 22.7981 58.1934   2
 -10   1  12 35.9129 88.1238   2
  -9  -1  12 55.6839 70.2542   2
  -9   1  12 86.1161 105.295   2
  -8  -1  12 52.3842 22.5765   2
  -8   1  12 101.797 57.6173   2
   7   1 -12 317.886 90.2386   2
   7  -1 -12 409.844 121.096   2
  -7  -1  12 362.995 131.689   2
   6   1 -12 9.77054 26.6185   2
   6  -1 -12 59.6370 64.9628   2
  -5  -1  12 95.1592 61.3417   1
   5   1 -12 106.410 50.6047   2
   5  -1 -12 57.1440 28.0530   2
  -5   1  12 128.776 97.4656   2
   4   1 -12-2.40271 24.0263   2
   4  -1 -12 20.7966 28.7006   2
  -4   1  12-7.54403 64.1875   2
  -4  -1  12-2.56355 32.8056   1
  -3  -1  12 974.383 179.831   1
  -3   1  12 692.628 166.794   2
   3   1 -12 1130.95 153.344   2
   3  -1 -12 757.542 129.107   2
  -2  -1  12 2140.02 263.313   1
   2  -1 -12 2215.03 210.303   2
  -1  -1  12 3961.38 356.173   1
   1  -1 -12 3753.49 262.251   2
   0  -1 -12 265.796 67.4111   2
   0   1  12 308.619 97.6391   1
   0  -1  12 271.114 92.0646   1
   1  -1  12 14.1704 34.7620   1
   1   1  12-7.35403 19.7722   1
   2  -1  12 212.142 88.4623   1
   2   1  12 270.537 85.8928   1
  -3   1 -12 312.813 111.675   1
   3   1  12 309.093 92.0753   1
   3  -1  12 262.167 88.5491   1
  -4   1 -12 1137.47 200.572   1
   4  -1  12 1033.72 179.882   1
   4   1  12 1024.48 166.238   1
   4  -1  12 1146.80 157.977   2
   5   1  12 111.959 55.1405   1
   5  -1  12 189.322 77.7976   1
  -5   1 -12 212.484 87.0179   1
  -6   1 -12 71.7515 62.9594   1
   6  -1  12 33.9728 26.5871   1
   6   1  12 38.6114 31.7648   1
  -7   1 -12-7.62439 33.2523   1
   7  -1  12-6.91086 47.9236   1
   7   1  12 7.56468 34.0962   1
   8   1  12 1272.66 183.054   1
  -8   1 -12 1301.71 215.525   1
   9   1  12 884.643 152.633   1
  -9  -1 -12 737.424 152.306   1
  -9   1 -12 831.848 175.350   1
  10   1  12 375.302 101.821   1
 -10  -1 -12 539.299 129.050   1
 -10   1 -12 479.725 133.892   1
  11   1  12 2202.40 244.031   1
 -11  -1 -12 2073.03 254.351   1
 -11   1 -12 1877.56 270.038   1
  11   1  12 1993.49 215.999   3
 -12   1 -12 843.426 181.056   1
 -12  -1 -12 690.284 149.291   1
  12   1  12 741.033 133.030   3
  12   1  12 808.237 148.795   1
 -13   1 -12-64.9601 51.8286   1
 -13  -1 -12 35.6740 40.2250   1
  13   1  12 1.35532 7.16203   1
  13   1  12-15.0276 20.4102   3
 -14   1 -12 84.4930 66.7217   1
  14   1  12 58.7040 42.4727   1
  14   1  12 100.133 34.6185   3
 -14  -1 -12 271.905 187.764   1
 -15   1 -12-67.7898 54.5996   1
  15   1  12 81.8513 51.4150   1
  15   1  12 48.5306 38.5808   3
 -15  -1 -12 46.3135 41.8945   1
  15  -1  12 75.6169 41.8045   3
 -16   1 -12 233.997 101.129   1
 -16  -1 -12 65.2185 31.9792   1
  16   1  12 108.840 56.5857   3
  16  -1  12 150.761 54.3017   3
 -17   1 -12-25.4631 35.6171   1
 -17  -1 -12 37.2975 40.8956   1
  17   1  12-21.4094 19.3394   3
  17  -1  12 1.23176 17.8107   3
 -18   1 -12 61.6557 70.9509   1
 -18  -1 -12 80.0242 61.0339   1
  18   1  12 76.3622 42.0282   3
  18  -1  12 21.0320 7.64877   3
 -19  -1 -12 32.8541 37.1320   1
  19   1  12 1.25456 9.64303   3
  19  -1  12 8.86182 19.0567   3
 -19   1 -12 41.0419 43.4592   1
 -20  -1 -12 43.1204 42.7985   1
  20   1  12 18.3881 28.3654   3
 -20   1 -12 87.0893 65.5836   1
 -21  -1 -12 76.8372 48.5709   1
  21   1  12 254.281 90.7055   3
 -21   1 -12 181.205 109.179   1
  22   1  12-18.7148 38.8042   3
 -22   1 -12-86.2817 69.8145   1
 -23   1 -12 38.2151 48.3510   1
 -24   1 -12 9.74358 28.3107   1
 -25   1 -12-55.8291 60.0258   1
 -27  -2  12 72.8730 72.0075   1
 -26  -2  12-13.4223 34.6408   1
 -26  -2  12-99.2807 128.633   2
 -25  -2  12 180.824 108.323   1
 -25  -2  12 395.670 242.659   2
 -24   2  12 9.83148 20.1674   1
 -24  -2  12 73.7311 68.5515   1
 -23   2  12 62.5695 79.6215   1
 -23  -2  12 21.3578 68.2801   2
 -23   2  12 179.072 192.963   2
 -22   2  12 30.9994 45.3773   1
 -22  -2  12-114.907 131.973   2
 -22   2  12-103.087 124.822   2
 -21   2  12 69.1311 55.9270   1
 -21  -2  12 44.9726 53.6189   2
 -21   2  12-99.6818 119.309   2
 -20   2  12 663.972 205.883   1
 -20  -2  12 413.723 231.234   2
 -20   2  12 467.809 252.284   2
 -19   2  12 168.327 106.854   1
 -19  -2  12 190.718 151.970   2
 -19   2  12 30.1835 137.387   2
 -18  -2  12 411.813 214.512   2
 -18   2  12 464.280 253.046   2
 -18   2  12 282.458 130.949   1
 -17  -2  12 1672.09 436.492   2
 -17   2  12 924.018 326.243   2
 -16  -2  12 54.0833 36.3868   2
 -16   2  12-57.3310 84.1701   2
 -15  -2  12 218.114 185.090   2
 -15   2  12 87.3710 61.0408   2
 -14  -2  12 210.654 138.187   2
 -14   2  12 349.664 214.035   2
 -13  -2  12 741.310 252.027   2
 -13   2  12 815.489 293.285   2
 -12  -2  12 1928.03 384.817   2
 -12   2  12 1819.15 430.680   2
 -11  -2  12 1849.12 354.725   2
 -11   2  12 2278.47 475.475   2
 -10  -2  12 1916.37 345.530   2
 -10   2  12 2299.98 456.049   2
  -9  -2  12-52.3759 89.6856   2
  -9   2  12-11.3539 94.4159   2
  -8  -2  12 297.458 114.952   2
  -8   2  12 355.016 160.095   2
   7  -2 -12 295.473 107.570   2
  -7  -2  12 218.813 107.550   2
  -7   2  12 174.076 106.335   2
   6  -2 -12 388.662 119.938   2
  -6  -2  12 455.840 135.164   2
  -6   2  12 564.666 191.770   2
   5  -2 -12 718.640 153.059   2
  -5  -2  12 746.701 176.036   2
  -5  -2  12 696.428 154.449   1
  -5   2  12 785.870 221.315   2
  -4  -2  12 1100.97 196.359   2
  -4   2  12 1160.42 265.491   2
  -4  -2  12 1098.65 194.663   1
   4  -2 -12 1180.20 180.830   2
   3  -2 -12 76.0851 46.3691   2
  -3  -2  12 105.382 49.0051   2
  -3   2  12 121.786 97.1580   2
  -3  -2  12 70.4539 41.3107   1
  -2  -2  12 2529.84 292.698   1
   2  -2 -12 2339.85 224.731   2
  -1  -2  12 1659.89 238.050   1
   1  -2 -12 1581.44 174.695   2
   0  -2 -12 5.69106 15.3102   2
   0  -2  12-53.4068 42.2507   1
  -1  -2 -12 13.2161 13.6755   2
   1   2  12 6.54244 12.5477   1
   1  -2  12 9.75350 12.5296   1
   2   2  12 81.7960 49.1127   1
   2  -2  12 58.6249 49.5639   1
  -3   2 -12 798.254 178.060   1
   3   2  12 851.133 147.163   1
  -4   2 -12 279.162 103.343   1
   4   2  12 294.057 85.4859   1
  -5   2 -12 769.580 172.482   1
   5   2  12 673.017 126.835   1
  -6   2 -12 567.792 156.996   1
   6   2  12 439.521 102.134   1
   7   2  12 82.1944 46.1808   1
  -7   2 -12 100.593 62.8974   1
   8   2  12 995.836 152.037   1
  -8   2 -12 960.592 195.830   1
   9   2  12 218.807 71.4711   1
  -9   2 -12 233.241 112.212   1
   9   2  12 242.923 83.9973   3
  10   2  12 81.5335 44.3103   1
 -10   2 -12 120.390 78.4578   1
  10   2  12 111.738 56.9997   3
 -11   2 -12 153.843 80.6936   1
  11   2  12 136.655 55.9516   1
  11   2  12 193.712 74.5850   3
 -12   2 -12 102.431 67.4471   1
  12   2  12 4.74957 11.2830   1
  12   2  12 14.0999 25.9667   3
 -13   2 -12 243.008 104.663   1
  13   2  12 260.745 78.6068   1
  13   2  12 382.268 101.331   3
 -14   2 -12 30.4332 23.4643   1
  14   2  12 167.306 64.0009   1
 -14  -2 -12 72.0711 51.5451   1
  14   2  12 47.4417 38.0029   3
  15   2  12 217.481 74.7487   1
 -15  -2 -12 142.902 60.2599   1
  15   2  12 218.052 73.3757   3
 -15   2 -12 237.438 104.640   1
 -16  -2 -12 236.047 87.0612   1
  16   2  12 158.571 65.7299   3
  16  -2  12 240.255 63.0690   3
 -16   2 -12 214.393 104.538   1
  17   2  12 168.811 68.8264   3
  17  -2  12 116.637 47.6622   3
 -17   2 -12 176.101 100.876   1
 -17  -2 -12 138.471 65.1076   1
 -18  -2 -12 7.85116 20.7494   1
  18   2  12 35.1712 28.7245   3
  19   2  12 25.9724 23.8356   3
 -19   2 -12-1.27329 28.6067   1
  20   2  12 476.138 126.940   3
 -20   2 -12 441.302 162.717   1
  21   2  12 48.4840 37.1866   3
 -21   2 -12-35.0008 47.5697   1
  22   2  12-37.2628 37.1941   3
 -22   2 -12 31.1155 67.3029   1
  23   2  12 226.848 90.5675   3
 -23   2 -12 224.623 119.243   1
  24   2  12 146.317 81.3294   3
 -24   2 -12 105.158 71.1797   1
 -25   2 -12 68.7247 69.7183   1
 -26  -3  12 26.5303 68.8511   2
 -25  -3  12-108.541 130.758   2
 -24  -3  12-75.2474 175.139   2
 -23   3  12 90.0049 83.4053   1
 -23  -3  12-266.155 197.329   2
 -22   3  12-5.85737 23.5542   1
 -22  -3  12-134.583 141.666   2
 -21   3  12 145.298 99.7385   1
 -21  -3  12 336.802 216.282   2
 -21   3  12-46.6734 88.5056   2
 -20   3  12-82.6845 74.0441   1
 -20   3  12-4.32225 39.2556   2
 -19   3  12 106.287 71.7523   1
 -19  -3  12-89.5084 185.756   2
 -19   3  12 30.0469 67.0854   2
 -18   3  12 165.763 104.392   1
 -18   3  12 273.880 194.619   2
 -17   3  12-40.8569 70.1930   1
 -17  -3  12-32.4615 48.5225   2
 -17   3  12-91.7739 105.898   2
 -16   3  12 63.4190 70.9008   1
 -16  -3  12-63.7614 85.3495   2
 -16   3  12 65.3277 119.873   2
 -15  -3  12 123.322 129.172   2
 -15   3  12-115.440 113.465   2
 -15   3  12 15.2849 18.1844   1
 -14  -3  12 183.860 138.258   2
 -14   3  12 181.991 139.784   2
 -13  -3  12 1872.48 392.459   2
 -13   3  12 1806.58 431.653   2
 -12  -3  12 194.697 137.242   2
 -12   3  12 330.500 213.077   2
 -11  -3  12 1225.63 278.208   2
 -11   3  12 1968.83 419.305   2
 -10  -3  12-186.277 104.572   2
 -10   3  12 110.189 101.517   2
  -9  -3  12-100.845 88.9489   2
  -9   3  12 112.598 126.903   2
  -8  -3  12 352.558 131.601   2
  -8   3  12 304.121 178.170   2
  -7  -3  12 108.048 72.8560   2
  -7   3  12 72.7489 83.3549   2
  -6  -3  12 83.7626 55.6474   2
   6  -3 -12 68.7427 63.1285   2
  -6   3  12 54.9545 73.6820   2
  -5  -3  12 400.528 131.956   2
   5  -3 -12 513.351 129.722   2
  -5   3  12 622.695 213.025   2
  -4  -3  12-12.7876 39.1741   2
   4  -3 -12 2.63397 25.7897   2
  -4   3  12-6.52907 57.6196   2
   3  -3 -12 1407.38 196.995   2
  -3   3  12 1738.30 331.195   2
  -3  -3  12 1542.81 224.510   2
  -2  -3  12 367.539 105.937   2
   2  -3 -12 241.508 69.6793   2
  -1  -3  12 180.381 67.6568   2
   1  -3 -12 267.959 77.4104   2
   0   3 -12 1586.99 259.937   1
   0  -3  12 1378.84 191.116   2
   0  -3 -12 1446.62 159.678   2
  -1   3 -12 1107.27 214.440   1
   1  -3  12 1375.21 188.583   2
  -1  -3 -12 1214.48 140.571   2
   2   3  12 99.1127 65.6385   2
   2   3  12-35.1544 30.3531   1
  -2   3 -12 23.9465 45.7608   1
   2  -3  12 47.5862 46.2070   2
   3   3  12 61.5561 38.4043   1
  -3   3 -12 95.7116 68.7881   1
   3   3  12 90.6394 63.2305   2
  -4   3 -12 141.010 75.9919   1
   4   3  12 83.1525 44.1020   1
   4   3  12 25.3711 29.5466   2
   5   3  12 203.042 66.3720   2
   5   3  12 235.498 72.7365   1
  -5   3 -12 244.198 99.0984   1
   5   3  12 354.568 97.7789   3
   6   3  12 238.324 71.4534   1
   6   3  12 256.737 86.4452   2
  -6   3 -12 209.885 101.282   1
   6   3  12 439.763 112.993   3
   7   3  12 295.675 81.4433   2
  -7   3 -12 340.312 117.918   1
   7   3  12 267.012 70.3453   1
   7   3  12 331.517 96.9070   3
   8   3  12 94.9913 43.1534   2
  -8   3 -12 89.7263 67.0110   1
   8   3  12 49.8050 30.9508   1
   8   3  12 44.0142 51.1209   3
   9   3  12 487.683 93.0064   1
   9   3  12 427.423 90.6510   2
  -9   3 -12 731.613 183.768   1
   9   3  12 713.859 138.803   3
  10   3  12 1185.37 140.863   1
 -10   3 -12 1316.53 245.974   1
  10   3  12 1277.57 187.839   3
  10   3  12 1189.61 143.559   2
 -11   3 -12 54.3903 60.9983   1
  11   3  12 27.1908 19.3444   1
  11   3  12 180.246 75.8599   3
 -12   3 -12 86.6818 119.084   1
  12   3  12 84.2401 34.2309   2
  12   3  12 164.542 52.2963   1
  12   3  12 236.128 93.6552   3
  13   3  12 113.779 36.5287   2
  13   3  12 177.619 56.2785   1
  13   3  12 221.904 82.2344   3
 -13   3 -12 126.875 72.0664   1
  14   3  12 36.5078 38.8889   3
 -14   3 -12 1.96921 35.9049   1
  15   3  12 26.3647 41.5671   3
 -15   3 -12 38.4828 41.5267   1
  16   3  12 11.7503 26.4426   3
 -16   3 -12 16.6170 57.0716   1
  17   3  12 183.739 76.7532   3
 -17   3 -12 181.662 101.024   1
  18   3  12 340.815 110.279   3
 -18   3 -12 443.732 161.880   1
  19   3  12 7.35700 18.6620   3
 -19   3 -12 7.00829 25.1237   1
  20   3  12 355.009 116.060   3
 -20   3 -12 412.532 158.145   1
  21   3  12-14.5163 56.9430   3
 -21   3 -12-10.3004 62.4367   1
  22   3  12 56.6980 35.4931   3
 -22   3 -12-19.2813 47.5346   1
  23   3  12 41.3268 24.4265   3
 -23   3 -12 63.4964 43.2864   1
  24   3  12 247.017 102.507   3
 -23  -4  12 470.726 259.871   2
 -22   4  12 231.994 132.046   1
 -22  -4  12 185.410 164.244   2
 -21   4  12-7.03554 26.2728   1
 -21  -4  12 191.727 139.797   2
 -20   4  12 12.4088 29.8245   1
 -20  -4  12 88.1369 135.672   2
 -19   4  12 40.1698 53.2517   1
 -19  -4  12-11.7152 41.7197   2
 -18   4  12 280.333 140.238   1
 -18  -4  12-116.995 122.171   2
 -17   4  12 53.8005 58.0882   1
 -17  -4  12-23.7522 83.3717   2
 -17   4  12-66.5467 94.1754   2
 -16   4  12 188.249 109.925   1
 -16  -4  12 538.285 267.879   2
 -16   4  12 176.772 147.146   2
 -15   4  12-65.4804 60.8704   1
 -15  -4  12 128.862 178.558   2
 -15   4  12 35.6102 68.9733   2
 -14   4  12-51.3016 65.7112   1
 -14  -4  12-0.99881 63.3775   2
 -14   4  12 39.8139 124.704   2
 -13   4  12 336.436 132.716   1
 -13  -4  12 499.493 205.110   2
 -13   4  12 105.629 105.152   2
 -12   4  12 729.756 187.820   1
 -12  -4  12 763.877 226.822   2
 -12   4  12 685.437 249.124   2
 -11  -4  12 964.376 245.103   2
 -11   4  12 893.477 294.603   2
 -11   4  12 1308.83 250.347   1
 -10  -4  12-10.5580 31.5278   2
 -10   4  12 11.1178 46.6622   1
  -9  -4  12 78.6652 57.8122   2
  -9   4  12 174.383 121.770   2
  -8  -4  12 334.174 134.026   2
  -8   4  12 365.644 172.923   2
  -7  -4  12 473.913 152.470   2
  -7   4  12 367.343 163.258   2
  -6  -4  12 192.760 104.650   2
  -6   4  12 247.600 134.456   2
  -5  -4  12 74.5398 55.2784   2
   5  -4 -12 81.1201 57.6445   2
  -5   4  12 86.0815 103.828   2
   4  -4 -12 2220.45 278.968   2
  -4   4  12 2436.14 406.062   2
  -4  -4  12 2218.51 283.016   2
  -3  -4  12 397.139 104.886   2
   3  -4 -12 512.206 126.084   2
  -3   4  12 386.012 170.619   2
  -2  -4  12 83.1393 57.9662   2
   2  -4 -12 78.6173 48.0739   2
  -1  -4  12 107.109 67.2961   2
   1  -4 -12 64.9946 46.9036   2
   1   4 -12 42.7468 42.1951   1
   0  -4  12 54.1920 34.3585   2
   0  -4 -12 47.9983 35.8782   2
   0   4 -12 68.4317 55.9463   1
   1  -4  12 148.990 73.5081   2
  -1  -4 -12 152.420 71.9146   2
  -1   4 -12 133.014 71.1728   1
   1   4  12 149.717 61.8045   3
  -2  -4 -12 353.034 69.6055   2
  -2   4 -12 125.782 77.6460   1
   2   4  12 191.628 59.4246   2
   2   4  12 321.008 92.5162   3
  -3   4 -12 264.640 111.457   1
   3  -4  12 355.323 90.8205   3
   3   4  12 287.151 112.724   2
   3   4  12 360.084 95.2913   1
   3   4  12 525.419 117.413   3
   4  -4  12 245.589 75.3103   3
   4   4  12 363.609 114.122   2
   4   4  12 230.172 72.1117   1
  -4   4 -12 381.697 133.281   1
   4   4  12 446.458 109.867   3
   5  -4  12 132.506 60.8905   3
   5   4  12 226.238 91.0389   2
  -5   4 -12 103.230 56.4586   1
   5   4  12 191.827 61.4139   1
   5   4  12 176.086 70.9207   3
   6   4  12-6.75425 11.9366   1
   6  -4  12 28.7387 23.0520   3
   6   4  12 6.70476 27.3533   2
  -6   4 -12 40.7076 18.2015   1
   6   4  12 5.87986 42.6011   3
  -7   4 -12 592.579 173.886   1
   7   4  12 630.228 99.2150   1
   7   4  12 439.226 107.327   2
   7  -4  12 609.993 109.743   3
   7   4  12 667.693 136.354   3
  -8   4 -12 182.412 93.4675   1
   8   4  12 221.338 52.6635   1
   8   4  12 148.894 60.1915   2
   8  -4  12 246.443 70.7566   3
   8   4  12 122.110 63.2527   3
  -9   4 -12 24.9634 38.6194   1
   9   4  12-39.4618 27.6104   2
   9  -4  12 26.4138 29.3621   3
   9   4  12 86.9605 59.6276   3
   9   4  12-7.57826 17.6350   1
 -10   4 -12 86.5993 71.5590   1
  10   4  12 86.9271 44.3592   2
  10  -4  12 104.692 42.4474   3
  10   4  12 94.8475 30.5441   1
  10   4  12 40.1818 38.0441   3
 -11   4 -12 192.480 88.2068   1
  11   4  12 240.664 92.4928   3
 -12   4 -12 135.866 78.0053   1
  12   4  12 220.309 82.2746   3
  13   4  12-0.47647 10.4434   3
 -13   4 -12 18.8219 41.5701   1
  14   4  12 22.4925 24.0437   3
 -14   4 -12 81.3156 64.1166   1
  15   4  12 284.368 108.339   3
 -15   4 -12 399.792 155.209   1
  16   4  12 209.589 92.4683   3
 -16   4 -12 110.777 67.9131   1
  17   4  12-31.3885 41.5983   3
 -17   4 -12-24.4597 42.3556   1
  18   4  12 317.725 109.529   3
 -18   4 -12 329.496 145.158   1
  19   4  12 26.2448 25.6253   3
 -19   4 -12 47.2561 57.5540   1
  20   4  12 295.107 113.085   3
 -20   4 -12 441.701 180.415   1
  21   4  12 75.0235 48.0173   3
 -21   4 -12-41.0334 56.5002   1
  22   4  12 1.57409 13.8362   3
 -20   5  12 123.314 95.1137   1
 -20  -5  12 173.767 266.003   2
 -19   5  12 24.3046 43.9047   1
 -19  -5  12 174.424 151.697   2
 -18   5  12 226.796 134.804   1
 -18  -5  12 341.069 242.449   2
 -17   5  12 114.055 86.2121   1
 -17  -5  12 12.0633 48.5289   2
 -16   5  12 14.4735 23.1373   1
 -16  -5  12 184.195 140.213   2
 -15   5  12 112.922 86.6195   1
 -15   5  12 167.445 55.3600   3
 -14   5  12-75.2986 65.8929   1
 -14   5  12-1.98777 22.4393   3
 -13   5  12 56.7473 37.1188   1
 -13   5  12 44.5392 31.1942   3
 -12   5  12 104.953 67.2967   1
 -12  -5  12 116.298 36.8563   2
 -12   5  12 147.234 55.0646   3
 -11   5  12 82.0630 75.5110   1
 -11  -5  12 10.2876 34.8888   2
 -11   5  12 35.7246 64.0707   2
 -11   5  12 9.52958 22.2385   3
 -10   5  12 44.0711 57.8134   1
 -10  -5  12 16.1771 56.1940   2
 -10   5  12 53.2590 73.1582   2
 -10   5  12 65.2705 33.0165   3
  -9   5  12 2.60627 14.6104   1
  -9  -5  12-51.0716 71.2130   2
  -9   5  12 78.0245 83.7375   2
  -9   5  12 95.6029 45.1066   3
  -8   5  12 22.2902 31.4906   1
  -8  -5  12 139.025 75.6392   2
  -8   5  12 198.545 139.070   2
  -8   5  12 97.0044 48.9405   3
  -7   5  12 21.4639 36.9852   1
  -7   5  12-61.3652 71.0056   2
  -7   5  12 64.7408 36.1802   3
  -6   5  12 186.243 88.6587   1
  -6  -5  12 179.510 104.474   2
  -6   5  12 43.7814 81.2672   2
  -6   5  12 201.962 71.6393   3
  -5   5  12 155.599 73.2172   1
  -5  -5  12 165.103 79.4926   2
  -5   5  12 142.433 98.8685   2
  -5   5  12 138.723 61.7007   3
  -4   5  12 17.1878 26.1577   1
  -4  -5  12-38.2129 51.4119   2
   4  -5 -12 11.3049 28.0174   2
  -4   5  12-1.95783 20.5607   2
  -4   5  12 58.9126 47.4741   3
  -3   5  12 170.743 73.9640   1
  -3  -5  12 125.300 70.2331   2
   3  -5 -12 235.744 100.126   2
  -3   5  12 47.7654 54.2251   2
  -3   5  12 233.322 79.8161   3
  -2   5  12-87.2381 51.2611   1
  -2  -5  12 18.1438 16.2349   2
   2  -5 -12 69.3051 57.1864   2
   2   5 -12 137.345 81.4821   1
  -2   5  12-13.6660 30.2649   2
  -2   5  12 31.2131 25.5125   3
  -1   5  12 0.76329 7.98151   1
  -1  -5  12 19.7705 29.5703   2
   1  -5 -12-0.89871 9.44757   2
  -1   5  12 29.0856 46.8025   3
   1   5 -12 24.7139 36.3632   1
   0   5  12 71.8383 45.6236   1
   0  -5  12 67.6999 43.9176   2
   0  -5 -12-20.1209 16.4049   2
   0   5 -12-1.73735 13.8284   1
   0   5  12 63.8182 42.5248   3
   1  -5  12 75.2785 51.7158   2
  -1  -5 -12 88.3671 37.2468   2
  -1   5 -12 15.1440 28.7497   1
   1   5  12 263.921 145.038   3
  -2  -5 -12 189.101 47.6047   2
  -2   5 -12 325.760 126.793   1
   2   5  12 179.093 80.3182   2
   2   5  12 164.833 61.8561   3
  -3   5 -12 222.170 109.396   1
   3   5  12 119.488 60.4181   2
   3   5  12 150.052 69.2880   3
   4   5  12 16.6883 12.5194   1
  -4   5 -12-16.2377 48.1374   1
   4   5  12 51.1948 36.9270   2
   4   5  12 18.7920 16.0732   3
   4   5  12-16.8730 19.0855   1
   5   5  12 38.0392 18.0357   1
  -5   5 -12 70.1195 60.2450   1
   5   5  12 31.3696 23.2977   1
   5   5  12 21.6546 31.7925   3
   6   5  12-10.5808 12.7014   1
   6   5  12 3.34275 7.56850   1
  -6   5 -12-18.5340 32.4978   1
   6   5  12 15.0841 31.5583   3
  -7   5 -12 562.385 178.094   1
   7   5  12 667.463 142.212   3
   7   5  12 591.079 77.4291   1
  -8   5 -12-22.7372 39.1862   1
   8   5  12 10.5494 21.2817   3
  -9   5 -12 180.111 93.7203   1
   9   5  12 98.0305 57.4774   3
 -10   5 -12 185.499 98.9994   1
  10   5  12 110.821 59.8922   3
 -11   5 -12-10.2162 23.5831   1
  11   5  12-1.38957 30.5862   3
 -12   5 -12 32.1353 44.2176   1
  12   5  12 37.7568 31.5260   3
 -13   5 -12-54.1029 58.1480   1
  13   5  12 11.3745 46.2666   3
  14   5  12-30.0406 31.9432   3
 -14   5 -12-7.95707 25.3881   1
  15   5  12 91.4689 55.5665   3
 -15   5 -12 172.312 104.968   1
  16   5  12 14.7761 47.9611   3
 -16   5 -12 103.480 89.0605   1
  17   5  12 27.0268 49.6022   3
 -17   5 -12-11.9012 30.7217   1
  18   5  12 26.9248 14.8439   3
 -18   5 -12-121.304 92.5556   1
  19   5  12 53.4760 34.8771   3
 -18   6  12 249.442 132.477   1
 -17   6  12-9.29536 28.6533   1
 -16   6  12 0.25463 15.5185   1
 -16  -6  12 92.5555 113.789   2
 -15   6  12-85.8914 74.3355   1
 -15  -6  12 50.5657 74.0044   2
 -14   6  12 57.9888 77.1474   1
 -14  -6  12 39.9082 63.5122   2
 -13   6  12 158.533 95.0788   1
 -13  -6  12 114.626 92.4660   2
 -13   6  12 35.9895 25.8450   3
 -12   6  12 60.1477 57.4134   1
 -12  -6  12-95.4606 146.219   2
 -12   6  12 15.6165 26.6576   3
 -11   6  12 188.604 92.5837   1
 -11  -6  12 271.885 129.911   2
 -11   6  12 196.123 68.3940   3
 -10  -6  12-28.5623 52.0820   2
 -10   6  12 61.8087 39.1237   3
  -9   6  12 103.152 70.2250   1
  -9  -6  12 102.660 78.6949   2
  -9   6  12 52.1772 36.1044   3
  -8  -6  12 250.793 116.339   2
  -8   6  12 70.0156 59.6035   1
  -8   6  12 121.363 53.1680   3
  -7  -6  12 113.804 105.784   2
  -7   6  12 71.9415 54.8542   1
  -7   6  12 56.9992 49.3502   3
  -6  -6  12 744.964 189.999   2
  -6   6  12 419.906 138.227   1
  -6   6  12 558.167 118.328   3
  -5  -6  12-43.8648 63.2411   2
  -5   6  12 34.8697 28.0804   1
  -5   6  12 18.1990 25.4693   3
  -4  -6  12 175.090 103.136   2
  -4   6  12 35.5412 36.7265   1
  -4   6  12 116.430 63.3968   3
  -3  -6  12 169.004 77.4706   2
  -3   6  12 190.398 82.5872   1
  -3   6  12 141.752 65.6364   3
  -2  -6  12 62.7436 43.2441   2
   2   6 -12 119.458 91.6684   1
  -2   6  12 0.21021 32.1739   3
  -1  -6  12 41.3149 86.8966   2
  -1   6  12 1.14922 10.7082   1
  -1   6  12 40.7327 30.1087   3
   1   6 -12-4.02673 18.4228   1
   0  -6  12 75.1521 48.8848   2
   0   6 -12 53.7210 34.6163   1
   0   6  12 69.7513 40.6898   1
   0   6  12 12.1726 18.0681   3
   1  -6  12 78.2028 66.9878   2
   1   6  12 42.4938 39.5444   1
  -1   6 -12 16.1639 31.6723   1
   1   6  12 50.8468 49.5628   3
  -2   6 -12 73.3873 63.8408   1
   2   6  12 10.6666 30.1515   3
   2  -6  12 53.5023 48.9886   2
  -3   6 -12 29.6000 41.7439   1
   3   6  12-5.07978 20.5307   3
   4   6  12 46.2251 27.2779   1
   4   6  12 62.4921 46.1562   3
  -4   6 -12 64.2576 60.5370   1
  -5   6 -12 102.632 83.4226   1
   5   6  12 136.404 73.3944   3
  -6   6 -12 1.56839 23.4789   1
   6   6  12 28.2889 37.1643   3
  -7   6 -12 70.0467 64.5742   1
   7   6  12 72.8291 41.2945   3
  -8   6 -12 329.230 142.356   1
   8   6  12 445.830 127.341   3
  -9   6 -12 67.1103 51.8639   1
   9   6  12 5.73897 25.3592   3
 -10   6 -12-64.6954 63.9296   1
  10   6  12 30.9885 19.1148   3
 -11   6 -12-53.8270 58.8191   1
  11   6  12 56.4503 60.5897   3
 -12   6 -12 45.5459 55.2008   1
  12   6  12 6.40298 30.8582   3
 -13   6 -12 57.8891 56.4421   1
  13   6  12 136.195 85.7358   3
 -14   6 -12 989.967 304.539   1
  14   6  12 26.8198 34.0375   3
  15   6  12-17.3308 29.7456   3
 -15   6 -12-47.7747 59.0932   1
 -15   7  12 256.576 129.392   1
 -14   7  12 20.6634 38.9840   1
 -13   7  12-16.6840 33.6547   1
 -12   7  12 165.383 97.5757   1
 -11  -7  12-181.261 115.230   2
 -11   7  12 98.3402 74.1284   1
 -10  -7  12 127.104 107.662   2
 -10   7  12 143.314 86.7307   1
 -10   7  12-2.99388 27.3492   3
  -9  -7  12 36.5127 57.1865   2
  -9   7  12 130.145 82.0392   1
  -9   7  12 132.961 58.5417   3
  -8  -7  12 175.335 120.082   2
  -8   7  12 44.5033 56.5084   1
  -8   7  12 63.7201 43.4026   3
  -7  -7  12 43.8932 51.3644   2
  -7   7  12 33.6010 39.6766   1
  -7   7  12-11.5837 18.4386   3
  -6  -7  12 445.952 150.289   2
  -6   7  12 356.753 122.900   1
  -6   7  12 380.139 99.6732   3
  -5  -7  12 4.42144 48.6289   2
  -5   7  12 77.2198 62.6570   1
  -5   7  12-50.5343 37.1133   3
  -4  -7  12 32.0882 39.4999   2
  -4   7  12 89.4693 72.7798   1
  -4   7  12 38.4534 24.1230   3
  -3  -7  12-5.82445 32.8693   2
  -3   7  12-65.9355 48.6470   1
  -3   7  12-35.8789 39.4076   3
  -2  -7  12 28.0488 23.1601   2
  -2   7  12 9.91343 19.6629   1
  -2   7  12 8.61345 21.7645   3
   2   7 -12 43.7235 77.9547   1
  -1  -7  12 61.7388 48.8191   2
   1   7 -12-5.63321 22.1639   1
  -1   7  12-32.9035 32.0248   1
  -1   7  12-79.1533 49.0177   3
   0  -7  12 12.4620 39.1726   2
   0   7 -12 88.3476 73.2775   1
   0   7  12 13.3302 28.4667   3
   1  -7  12 118.931 74.1518   2
  -1   7 -12 160.018 97.5033   1
   1   7  12 45.5084 35.6414   3
   2  -7  12-45.4499 59.0930   2
  -2   7 -12-27.2094 41.1631   1
   2   7  12 48.9992 31.5674   3
  -3   7 -12-25.2934 41.3281   1
   3   7  12-22.9570 37.1112   3
   4   7  12 84.9246 53.9514   3
  -4   7 -12-43.8252 52.9729   1
   5   7  12 39.2775 50.8924   3
  -5   7 -12-9.36059 27.2584   1
  -6   7 -12-109.320 84.3760   1
   6   7  12 4.13535 34.1074   3
  -7   7 -12 154.296 100.379   1
   7   7  12 13.7070 16.8103   3
  -8   7 -12 73.8204 86.0812   1
   8   7  12 99.6262 59.1831   3
  -9   7 -12-25.3605 43.3462   1
   9   7  12 40.3840 47.8085   3
 -10   7 -12-50.1938 60.3719   1
  10   7  12 17.0567 42.8158   3
 -11   7 -12-37.1652 52.9560   1
  11   7  12 31.0412 10.8053   3
 -12   7 -12 377.397 178.114   1
 -12   8  12 141.328 92.3073   1
 -11   8  12-135.186 88.3698   1
 -10   8  12 87.5280 69.5981   1
  -9   8  12 258.645 115.625   1
  -8   8  12 487.805 155.934   1
  -7   8  12 71.2554 58.3370   1
  -7   8  12 123.761 68.7308   3
  -6  -8  12 248.172 134.123   2
  -6   8  12 238.006 108.645   1
  -6   8  12 214.380 82.0311   3
  -5  -8  12 45.5910 52.4458   2
  -5   8  12-22.8640 19.4727   3
  -4  -8  12 44.3714 36.5401   2
  -4   8  12 49.5902 41.1859   3
  -3  -8  12-31.6442 68.1081   2
  -3   8  12 76.2533 41.8526   3
  -2  -8  12-30.2884 41.0781   2
  -2   8  12 120.819 68.9522   3
   1   8 -12 73.8338 70.5897   1
  -1  -8  12 37.2932 38.8129   2
  -1   8  12 1.54375 29.7121   3
   0  -8  12 97.0339 76.2490   2
   0   8  12 2.16632 12.9964   3
   0   8 -12-49.3766 58.3172   1
   1  -8  12-46.8835 70.0889   2
  -1   8 -12 18.7937 37.8467   1
   1   8  12 13.3348 50.8417   3
   2  -8  12 349.686 139.907   2
  -2   8 -12 247.502 129.850   1
   2   8  12 648.487 161.636   3
   3  -8  12 163.438 101.627   2
  -3   8 -12 116.476 89.8648   1
   3   8  12 24.9964 22.2748   3
  -4   8 -12 333.082 171.788   1
   4   8  12 509.406 146.994   3
  -5   8 -12 479.776 182.893   1
   5   8  12 373.524 121.502   3
   6   8  12-50.2703 47.8374   3
  -6   8 -12-29.6034 47.6543   1
  -7   8 -12-3.96391 22.9023   1
  -3   9  12 91.5998 62.3581   3
  -2   9  12 82.7719 57.9578   3
  -1   9  12 60.1103 69.2278   3
   0   9 -12 113.076 91.1426   1
  -1   9 -12 88.8483 81.6458   1
 -26   0  13 15.4823 32.8841   1
 -25   0  13-32.8855 42.9366   1
 -25   0  13 102.872 133.658   2
 -24   0  13 2.18692 40.4255   1
 -24   0  13 68.9438 108.822   2
 -23   0  13 183.554 135.442   1
 -23   0  13-171.324 162.917   2
 -22   0  13-31.3858 78.4325   2
 -21   0  13 133.543 142.917   2
 -20   0  13 41.7614 85.1600   2
 -19   0  13-237.679 182.381   2
 -18   0  13 50.1629 80.4132   2
 -17   0  13-105.873 118.407   2
 -16   0  13 70.4891 74.3245   2
 -15   0  13-53.3097 74.2561   2
 -14   0  13-226.166 157.226   2
 -13   0  13-51.0818 119.618   2
 -12   0  13-30.5366 75.1608   2
 -11   0  13 74.2956 121.459   2
 -10   0  13-11.5482 25.2035   2
  -9   0  13 6.40285 22.8561   2
  -8   0  13-11.9900 28.8418   2
  -7   0  13-4.12567 68.0366   2
   5   0 -13 6.23768 26.4990   2
   4   0 -13-16.7437 15.3557   2
   3   0 -13 20.1296 11.6492   2
  -3   0  13-41.3123 37.6823   1
   2   0 -13 8.31279 37.1505   2
  -2   0  13 41.8659 40.1665   1
  -1   0  13 92.0194 59.0286   2
  -1   0  13 0.38211 14.4840   1
   0   0  13 247.479 99.5226   2
   0   0  13 166.919 79.3130   1
   1   0  13-20.7852 12.8247   2
   1   0  13-17.3237 23.9257   1
   2   0  13-7.84624 24.3463   2
   2   0  13-19.8289 25.4695   1
   3   0  13 44.3787 48.2061   2
   3   0  13 4.10420 26.5318   1
   4   0  13-9.45126 12.5328   2
   4   0  13-1.32829 13.6669   1
   5   0  13 25.1712 15.3591   2
   5   0  13-13.4935 14.2308   1
   6   0  13 3.00750 36.8737   2
  -6   0 -13 68.2622 61.5960   1
   6   0  13-4.04666 12.7215   1
   7   0  13 5.93234 14.9327   1
  -7   0 -13 3.82651 29.8938   1
   7   0  13 36.4202 41.1013   2
  -8   0 -13 24.2699 32.7132   1
   8   0  13 33.0015 33.1192   1
   9   0  13 22.9904 32.8308   1
  -9   0 -13 34.3050 38.6136   1
 -10   0 -13 41.4069 52.1557   1
 -11   0 -13-3.32391 16.1588   1
 -12   0 -13-12.6850 10.6215   1
 -13   0 -13 48.7937 41.4757   1
 -14   0 -13-14.2814 26.2542   1
  14   0  13 58.0453 44.1669   3
 -15   0 -13-128.733 72.8528   1
  15   0  13-45.8726 33.5352   3
 -16   0 -13 5.76794 18.2298   1
  16   0  13-4.29069 12.3801   3
 -17   0 -13 176.964 85.4912   1
  17   0  13-9.25430 30.8724   3
 -18   0 -13-28.0132 20.4723   1
  18   0  13-1.79890 10.2148   3
 -19   0 -13-18.3719 31.1785   1
  19   0  13 2.36283 11.2760   3
 -20   0 -13 47.7127 49.4344   1
  20   0  13 3.41440 11.0664   3
 -21   0 -13 40.8586 46.5538   1
  21   0  13 32.8965 30.1750   3
 -22   0 -13-53.3090 53.8640   1
 -23   0 -13-56.6743 56.7647   1
 -26  -1  13-8.29771 31.6289   1
 -25  -1  13 397.049 169.500   1
 -25   1  13 488.955 206.514   1
 -25  -1  13 586.713 276.552   2
 -24   1  13-3.43182 24.6965   1
 -24  -1  13-46.5344 57.8725   1
 -23   1  13 75.5489 74.2389   1
 -23  -1  13-6.52727 159.872   2
 -23   1  13 0.58318 76.2243   2
 -22   1  13 33.4340 53.8919   1
 -22  -1  13 64.6388 117.983   2
 -22   1  13 271.691 124.723   2
 -21  -1  13-192.185 205.335   2
 -21   1  13-91.4350 117.213   2
 -21   1  13 91.2899 77.6011   1
 -20  -1  13 715.541 357.293   2
 -20   1  13 527.004 268.820   2
 -19  -1  13 45.5423 118.703   2
 -19   1  13-13.6892 53.6889   2
 -18  -1  13 406.446 241.263   2
 -18   1  13 367.445 209.825   2
 -17  -1  13 79.0587 105.481   2
 -17   1  13 22.2117 58.9185   2
 -16  -1  13-1.35586 71.2818   2
 -16   1  13 186.314 122.364   2
 -15  -1  13 234.084 147.183   2
 -15   1  13 671.531 286.956   2
 -14  -1  13 44.7134 86.1359   2
 -14   1  13 59.0784 81.3393   2
 -13  -1  13 196.937 103.648   2
 -13   1  13 226.329 146.827   2
 -12  -1  13 49.4401 104.453   2
 -12   1  13-32.7583 84.3720   2
 -11  -1  13 313.858 180.659   2
 -11   1  13 90.3517 167.858   2
 -10  -1  13 312.304 154.035   2
 -10   1  13 332.260 160.162   2
  -9  -1  13-2.14418 76.1460   2
  -9   1  13 95.8050 77.8034   2
  -8  -1  13 649.216 197.455   2
  -8   1  13 936.769 266.845   2
  -7  -1  13-29.7896 78.4022   2
  -7   1  13 47.6253 47.1884   2
  -6  -1  13 708.722 180.399   2
  -6   1  13 877.855 226.867   2
   5  -1 -13 526.903 123.697   2
  -5   1  13 732.716 200.089   2
   4  -1 -13 95.8553 53.7246   2
  -4  -1  13 96.1572 60.9878   1
  -4   1  13 17.1724 65.2085   2
   3  -1 -13 291.515 85.2918   2
  -3   1  13 316.569 112.135   2
  -3  -1  13 260.153 98.5525   1
   2  -1 -13 40.4004 44.1759   2
  -2  -1  13-0.26737 7.44046   1
  -2   1  13 15.5528 25.1421   2
   1  -1 -13 347.761 81.7244   2
  -1   1  13 395.068 121.802   2
  -1   1  13 338.130 106.547   1
  -1  -1  13 339.192 106.570   1
   0   1  13 881.018 168.504   1
   0   1  13 743.879 161.086   2
   0  -1  13 762.521 163.251   1
   1   1  13 83.8958 62.5960   2
   1  -1  13 20.4930 26.7999   1
   1   1  13-25.4501 30.9353   1
   2   1  13 18.9380 24.3987   1
   2  -1  13 29.1105 46.2742   1
   2   1  13 34.8796 41.9314   2
   3  -1  13 23.0129 29.4592   2
  -3   1 -13-21.2320 35.0959   1
   3   1  13 59.1582 49.3751   1
   3  -1  13 93.2425 55.9311   1
   4  -1  13 639.015 126.370   2
  -4   1 -13 778.754 174.986   1
   4  -1  13 896.888 174.952   1
   4   1  13 696.081 142.291   1
   5   1  13 25.0815 17.9562   1
   5   1  13 50.7401 38.5597   2
  -5   1 -13 25.5168 30.9810   1
   5  -1  13 3.67609 28.6707   2
   6   1  13 70.4195 43.9893   2
   6   1  13-37.4734 32.9776   1
  -6   1 -13 44.1579 35.3994   1
   7   1  13-18.9900 22.5924   2
  -7   1 -13 46.0271 37.1117   1
   7   1  13-53.7154 39.4150   1
   8   1  13 50.3952 39.2471   2
  -8   1 -13 23.7564 57.0821   1
   8   1  13-0.66730 24.4322   1
   9   1  13 1117.80 180.150   1
  -9   1 -13 1045.88 204.133   1
   9   1  13 946.650 139.185   2
  10   1  13 28.8980 28.9309   1
 -10  -1 -13 27.2247 25.4912   1
 -10   1 -13 45.2131 37.1720   1
  10   1  13 98.8643 48.5349   2
 -11   1 -13 109.572 62.6268   1
 -11  -1 -13 186.127 84.0097   1
  11   1  13 206.722 74.9417   1
 -12  -1 -13 150.515 68.5753   1
 -12   1 -13 179.204 86.2127   1
  12   1  13 211.905 87.1932   1
  12   1  13 231.539 76.4377   3
  13   1  13 1824.08 239.987   1
 -13  -1 -13 1794.73 253.751   1
  13   1  13 1752.18 211.310   3
 -13   1 -13 1735.21 273.369   1
 -14   1 -13 109.444 82.2335   1
 -14  -1 -13 11.3598 19.1405   1
  14   1  13 74.3347 49.0144   1
  14   1  13 34.4354 24.1698   3
 -15  -1 -13 255.159 102.947   1
 -15   1 -13 198.297 98.7897   1
  15   1  13 245.345 78.3956   3
  15  -1  13 325.921 87.9811   3
 -16  -1 -13-9.09782 31.7920   1
 -16   1 -13 30.0683 40.4274   1
  16   1  13 28.2298 42.4506   3
  16  -1  13 22.2453 7.61723   3
 -17  -1 -13 167.079 80.4516   1
 -17   1 -13 168.787 90.6696   1
  17   1  13 244.324 81.3453   3
  17  -1  13 188.989 66.8924   3
 -18   1 -13 90.3590 53.6071   1
  18   1  13 64.1889 41.2877   3
  18  -1  13 95.5187 46.8515   3
 -18  -1 -13 44.1287 42.8968   1
 -19   1 -13-5.02791 22.8528   1
  19   1  13 48.4879 36.2142   3
  19  -1  13 43.8056 42.4503   3
 -19  -1 -13-1.28659 12.2767   1
 -20   1 -13 61.9247 58.6130   1
  20   1  13-24.7568 43.3605   3
 -20  -1 -13 76.6276 57.9981   1
 -21   1 -13 174.663 95.7208   1
  21   1  13 219.217 82.6852   3
 -22   1 -13 132.211 76.0588   1
  22   1  13 253.540 91.3945   3
 -23   1 -13 237.095 118.772   1
 -24   1 -13 102.460 80.1751   1
 -25   1 -13 300.447 145.864   1
 -26  -2  13 332.322 154.981   1
 -26  -2  13 476.047 275.694   2
 -25  -2  13 188.516 177.257   2
 -25  -2  13 194.485 120.862   1
 -24   2  13 5.08535 34.9500   1
 -24  -2  13-200.494 179.170   2
 -23   2  13 49.3275 101.707   1
 -23  -2  13 220.999 186.662   2
 -23   2  13-61.3180 104.493   2
 -22   2  13 57.1126 75.9236   1
 -22  -2  13-137.716 149.037   2
 -22   2  13 142.270 146.626   2
 -21   2  13 277.997 126.746   1
 -21  -2  13 359.146 218.916   2
 -21   2  13 50.0762 90.3372   2
 -20   2  13 341.557 147.460   1
 -20  -2  13 381.748 227.089   2
 -20   2  13 682.263 303.729   2
 -19  -2  13 178.615 142.443   2
 -19   2  13-48.0486 83.5048   2
 -19   2  13 183.789 103.105   1
 -18  -2  13-82.2961 107.390   2
 -18   2  13 176.888 133.772   2
 -17  -2  13 84.9101 104.189   2
 -17   2  13 486.194 246.944   2
 -16  -2  13 278.805 219.297   2
 -16   2  13 334.960 192.059   2
 -15  -2  13 166.701 118.373   2
 -15   2  13 23.4960 59.7990   2
 -14  -2  13 60.8470 69.3928   2
 -14   2  13 11.0172 104.112   2
 -13  -2  13 399.320 168.640   2
 -13   2  13 296.853 199.980   2
 -12  -2  13 246.379 148.762   2
 -12   2  13 106.832 107.504   2
 -11  -2  13 167.264 140.147   2
 -11   2  13 704.544 318.387   2
 -10  -2  13 814.381 226.855   2
 -10   2  13 1263.52 342.330   2
  -9  -2  13-22.6958 72.1021   2
  -9   2  13 53.8650 28.6672   2
  -8  -2  13 477.512 158.780   2
  -8   2  13 558.814 212.369   2
  -7  -2  13 76.9902 80.8520   2
  -7   2  13 44.9570 61.8848   2
  -6  -2  13 535.634 164.989   2
  -6   2  13 621.623 209.130   2
   5  -2 -13 248.014 96.8109   2
  -5  -2  13 366.662 135.126   2
  -5   2  13 167.341 100.684   2
   4  -2 -13-30.5112 39.5184   2
  -4  -2  13 10.9256 53.1999   2
  -4   2  13 53.5464 81.4099   2
   3  -2 -13 735.966 135.873   2
  -3  -2  13 760.184 161.446   2
  -3   2  13 771.021 201.369   2
   2  -2 -13 487.416 108.711   2
  -2  -2  13 346.462 99.6547   2
  -2   2  13 620.910 183.987   2
   1  -2 -13 111.673 51.2025   2
  -1  -2  13 79.6181 51.6770   2
  -1   2  13 0.16243 77.4588   2
   0  -2 -13 327.045 83.6301   2
   0  -2  13 549.150 126.564   2
   1  -2  13 170.416 75.2096   2
   1   2  13 161.678 71.2122   1
   2  -2  13 656.099 130.850   2
  -2   2 -13 707.904 169.656   1
   2   2  13 648.960 139.632   1
   3  -2  13 48.8387 44.6376   2
   3   2  13 49.7082 65.3394   1
  -3   2 -13 55.7579 63.3874   1
   4   2  13 471.902 112.885   1
  -4   2 -13 511.952 142.778   1
   5   2  13 266.147 85.5609   1
  -5   2 -13 259.196 102.102   1
  -6   2 -13 10.5792 28.3935   1
   6   2  13-15.5142 34.6075   1
   7   2  13 155.904 64.1794   1
  -7   2 -13 225.465 95.6757   1
   8   2  13 110.827 52.7743   1
  -8   2 -13 144.088 84.3161   1
   9   2  13 196.111 69.4721   1
  -9   2 -13 227.345 101.891   1
   9   2  13 301.129 90.1113   3
  10   2  13 453.895 107.534   1
 -10   2 -13 676.576 175.720   1
  10   2  13 601.551 126.961   3
 -11   2 -13 293.235 115.070   1
  11   2  13 142.748 59.0968   1
  11   2  13 159.827 68.6994   3
  12   2  13 13.2591 18.6205   2
 -12   2 -13 0.71566 12.3675   1
  12   2  13 1.93259 9.41151   1
  12   2  13 5.72833 22.6988   3
  13   2  13 26.4284 34.7147   2
 -13   2 -13-11.5581 33.7988   1
  13   2  13 30.2468 28.2673   1
  13   2  13 108.315 60.0436   3
 -14   2 -13 5.46924 36.1847   1
  14   2  13 44.2161 36.9545   1
  14   2  13 46.3461 39.8041   3
  14   2  13 33.9957 27.0398   2
 -15   2 -13 45.8140 51.1830   1
  15   2  13 11.9432 16.2693   3
 -16   2 -13 107.109 80.7875   1
  16   2  13 98.8437 58.4783   3
  16  -2  13 85.5268 43.9459   3
 -17   2 -13 82.2398 84.3448   1
  17   2  13 53.4826 41.5757   3
  17  -2  13 6.81239 26.3884   3
 -17  -2 -13-49.4270 41.1621   1
 -18   2 -13 41.2990 37.1887   1
  18   2  13-3.97043 22.3518   3
 -19   2 -13 66.4928 57.5391   1
  19   2  13 20.2534 36.2148   3
 -20   2 -13 55.1146 58.2285   1
  20   2  13 112.878 73.8758   3
 -21   2 -13 565.414 187.200   1
  21   2  13 683.121 156.969   3
 -22   2 -13 141.543 75.4124   1
  22   2  13 149.791 75.2436   3
 -23   2 -13 318.575 135.107   1
  23   2  13 262.561 102.725   3
 -24   2 -13 560.102 193.102   1
 -25  -3  13 428.624 260.327   2
 -24  -3  13 297.963 216.202   2
 -23  -3  13 71.0217 110.302   2
 -22   3  13 192.763 119.649   1
 -22  -3  13 170.426 179.845   2
 -22   3  13 369.200 241.070   2
 -21   3  13 34.8937 57.9244   1
 -21  -3  13 66.6357 142.991   2
 -21   3  13-148.032 152.091   2
 -20   3  13 196.722 122.860   1
 -20  -3  13 481.689 225.492   2
 -20   3  13 224.868 115.304   2
 -19   3  13 34.9224 48.7294   1
 -19  -3  13 34.2426 75.7035   2
 -19   3  13-15.1715 52.9623   2
 -18   3  13 183.253 102.290   1
 -18  -3  13 349.665 224.075   2
 -18   3  13 255.561 181.007   2
 -17   3  13 52.2722 41.5143   1
 -17  -3  13-25.7912 91.9596   2
 -17   3  13-4.75030 67.6837   2
 -16  -3  13 393.835 201.023   2
 -16   3  13 240.018 177.555   2
 -16   3  13 334.068 142.149   1
 -15  -3  13-10.4994 144.488   2
 -15   3  13-169.599 141.618   2
 -14  -3  13 283.352 185.993   2
 -14   3  13 201.313 158.862   2
 -13  -3  13-20.1995 34.0395   2
 -13   3  13 34.6695 65.0917   2
 -12  -3  13 1150.12 301.032   2
 -12   3  13 1606.27 418.808   2
 -11  -3  13 60.7750 48.4538   2
 -11   3  13 130.717 172.667   2
 -10  -3  13 677.255 218.571   2
 -10   3  13 509.604 233.248   2
  -9   3  13 2582.71 569.332   2
  -9  -3  13 1213.47 264.412   2
  -8  -3  13 171.769 90.1409   2
  -8   3  13 102.166 105.326   2
  -7  -3  13 48.4022 32.6533   2
  -7   3  13-145.780 111.997   2
  -6  -3  13 2001.00 301.361   2
  -6   3  13 2097.24 409.311   2
  -5  -3  13 1510.79 254.019   2
   5  -3 -13 1594.59 234.417   2
  -5   3  13 1377.20 317.507   2
  -4  -3  13 302.339 106.467   2
   4  -3 -13 233.220 99.6283   2
  -4   3  13 161.041 133.036   2
  -3  -3  13-6.13274 40.1299   2
   3  -3 -13 24.2378 16.6962   2
  -3   3  13 12.0393 45.3654   2
  -2  -3  13 30.2751 43.3712   2
   2  -3 -13 56.5161 41.9857   2
  -2   3  13 6.13297 86.1822   2
  -1  -3  13 40.4663 31.2245   2
   1  -3 -13 53.0243 45.5746   2
  -1   3  13 42.3147 60.4499   2
   0  -3 -13 0.07261 15.8938   2
   0   3 -13-22.5278 31.5959   1
  -1  -3 -13 4.91862 12.1272   2
   1  -3  13 33.5296 43.1444   2
  -1   3 -13 49.3210 53.9532   1
   2  -3  13 617.076 136.516   2
   2   3  13 539.371 128.974   1
  -2   3 -13 717.610 180.552   1
  -3   3 -13 71.1163 50.1723   1
   3   3  13 90.7394 61.5053   1
   3  -3  13 91.9438 50.5796   2
  -4   3 -13 244.273 107.317   1
   4   3  13 174.177 70.1488   1
  -5   3 -13 62.5891 66.1968   1
   5   3  13 15.6970 20.1823   1
   6   3  13 71.2122 39.2439   1
   6   3  13 75.3232 33.6831   2
  -6   3 -13 76.4924 73.4418   1
   6   3  13 118.863 62.0879   3
   7   3  13 58.5697 41.3391   2
  -7   3 -13 6.93111 26.2631   1
   7   3  13 31.1928 18.7920   1
   7   3  13 82.5580 63.6899   3
   8   3  13 121.793 65.2441   2
   8   3  13 182.662 60.9571   1
  -8   3 -13 157.223 87.4780   1
   8   3  13 100.700 52.8185   3
   9   3  13 50.0362 33.0707   2
   9   3  13 73.9859 41.6037   1
  -9   3 -13 78.1934 80.4053   1
   9   3  13 63.0239 36.6498   3
  10   3  13 234.514 68.6542   1
  10   3  13 280.195 75.7068   2
 -10   3 -13 280.946 116.515   1
  10   3  13 277.372 107.267   3
  11   3  13 688.784 114.307   1
 -11   3 -13 740.790 193.946   1
  11   3  13 707.033 149.353   3
 -12   3 -13 124.269 78.5920   1
  12   3  13 91.4200 41.5259   1
  12   3  13 59.7795 35.1974   3
 -13   3 -13 270.189 121.626   1
  13   3  13 202.517 81.6034   3
 -14   3 -13 18.2352 51.5150   1
  14   3  13-11.6631 37.5625   3
 -15   3 -13 271.182 125.124   1
  15   3  13 309.637 104.689   3
 -16   3 -13 283.446 128.954   1
  16   3  13 397.212 111.081   3
 -17   3 -13-73.2299 66.7203   1
  17   3  13-1.80465 36.2885   3
  18   3  13 9.15234 47.4959   3
 -18   3 -13 44.6916 66.3717   1
  19   3  13 22.0747 16.8455   3
 -19   3 -13 46.7319 55.3983   1
  20   3  13 903.445 188.156   3
 -20   3 -13 867.924 236.725   1
  21   3  13-12.8618 24.6297   3
 -21   3 -13-32.0541 49.6007   1
  22   3  13 111.042 67.8718   3
 -22   3 -13 96.3195 82.6306   1
  23   3  13-37.3023 40.8709   3
 -23  -4  13-46.1220 94.3491   2
 -22  -4  13 42.9930 86.3098   2
 -21   4  13-78.7261 77.9199   1
 -21  -4  13 29.5554 137.817   2
 -20   4  13 16.7711 38.1962   1
 -20  -4  13 417.438 304.450   2
 -19   4  13-93.7116 80.3057   1
 -19  -4  13-22.1843 165.902   2
 -19   4  13 42.6791 81.9164   2
 -18   4  13 74.6200 70.9988   1
 -18  -4  13-27.7504 124.995   2
 -18   4  13 26.6426 67.0211   2
 -17   4  13 155.400 101.048   1
 -17  -4  13 68.9127 119.396   2
 -17   4  13 56.0758 89.0847   2
 -16   4  13 79.0616 65.7201   1
 -16  -4  13-93.7005 98.9547   2
 -16   4  13-192.789 154.409   2
 -15   4  13 22.6316 35.7667   1
 -15  -4  13 120.959 89.8532   2
 -15   4  13-57.8884 85.2212   2
 -14   4  13-5.34048 20.8385   1
 -14  -4  13 41.0854 115.911   2
 -14   4  13-0.42905 26.1746   2
 -13   4  13 469.801 158.655   1
 -13  -4  13 527.106 200.808   2
 -13   4  13 57.2726 79.9255   2
 -12   4  13 28.4999 38.9927   1
 -12  -4  13 75.9920 60.9861   2
 -12   4  13 59.8930 70.9370   2
 -11  -4  13 47.8155 29.0586   2
 -11   4  13 136.103 143.539   2
 -11   4  13 106.871 67.5065   1
 -10  -4  13-84.6735 94.7275   2
 -10   4  13-134.239 113.631   2
  -9  -4  13 11.3371 69.1750   2
  -9   4  13 14.8893 52.3363   2
  -8  -4  13 270.607 129.968   2
  -8   4  13 417.658 212.984   2
  -7  -4  13 62.7783 72.9374   2
  -7   4  13-6.53636 31.0302   2
  -6  -4  13 791.193 196.395   2
  -6   4  13 992.742 287.299   2
  -5  -4  13-22.2810 18.9600   2
  -5   4  13 38.8441 57.1491   2
  -4  -4  13 61.0071 42.9695   2
   4  -4 -13 156.659 79.3793   2
  -4   4  13 71.4718 70.6351   2
  -3  -4  13 351.963 116.829   2
   3  -4 -13 412.761 116.056   2
  -3   4  13 251.356 124.084   2
  -2   4  13 1502.95 311.307   2
  -2  -4  13 1161.79 200.149   2
   2  -4 -13 1126.43 171.683   2
  -1  -4  13 168.755 83.6880   2
   1  -4 -13 145.432 58.5568   2
  -1   4  13 159.031 98.0611   2
   1   4 -13 190.352 96.4811   1
   0  -4  13 109.748 59.3004   2
   0  -4 -13 229.975 68.8847   2
   0   4 -13 136.022 82.2673   1
   1  -4  13 181.592 80.5269   2
  -1  -4 -13 96.4014 37.6638   2
  -1   4 -13 202.325 93.6320   1
   1   4  13 238.079 87.1888   3
   2  -4  13 126.330 64.7448   2
  -2   4 -13 196.959 101.659   1
   2   4  13 124.008 59.0454   3
  -3   4 -13-18.5726 11.3740   1
   3   4  13 69.4554 42.9040   1
   3   4  13-7.74678 36.2568   2
   3   4  13 59.9512 56.6511   3
  -4   4 -13 241.062 107.831   1
   4   4  13 109.933 51.7628   1
   4   4  13 185.714 83.6797   2
   4   4  13 139.929 65.7088   3
   5   4  13 825.522 179.731   2
   5   4  13 818.669 156.473   3
   5   4  13 711.456 127.576   1
  -5   4 -13 928.971 214.829   1
   6   4  13 300.452 77.0192   1
   6   4  13 221.735 86.0160   2
  -6   4 -13 249.726 110.895   1
   6   4  13 305.048 96.9059   3
   7   4  13-20.9352 34.7567   2
  -7   4 -13 129.702 84.8692   1
   7   4  13 31.2211 24.2729   1
   7   4  13 30.8248 38.1578   3
   8   4  13 303.231 72.1033   1
   8   4  13 164.709 67.0533   2
  -8   4 -13 370.493 151.533   1
   8   4  13 312.855 99.2961   3
   9   4  13 11.9563 13.5491   1
  -9   4 -13 10.5551 27.2618   1
   9   4  13 81.5468 46.4647   2
   9   4  13 14.0771 17.2820   3
 -10   4 -13 224.936 109.406   1
  10   4  13 52.0850 37.1625   2
  10   4  13 186.803 77.9780   3
 -11   4 -13 295.975 121.273   1
  11   4  13 224.489 68.5207   2
  11   4  13 374.400 112.857   3
 -12   4 -13 52.7617 55.2937   1
  12   4  13-31.2655 42.7149   3
 -13   4 -13 625.066 186.111   1
  13   4  13 627.788 143.273   3
 -14   4 -13 132.831 85.7286   1
  14   4  13 35.9873 23.4768   3
 -15   4 -13 91.7160 89.4917   1
  15   4  13 18.1136 32.4325   3
 -16   4 -13-79.4423 71.7244   1
  16   4  13 25.4882 29.4750   3
  17   4  13-10.3005 24.4338   3
 -17   4 -13-33.0081 47.2398   1
  18   4  13 56.6910 45.7499   3
 -18   4 -13 161.707 107.383   1
  19   4  13 15.3913 19.0130   3
 -19   4 -13 16.8043 51.5429   1
  20   4  13 199.331 95.7070   3
 -20   4 -13 259.476 145.068   1
  21   4  13 13.6893 26.9751   3
 -20  -5  13 119.622 136.094   2
 -19   5  13 99.1751 92.1228   1
 -19  -5  13-49.3740 157.960   2
 -18   5  13-19.7786 38.1825   1
 -18  -5  13-144.771 137.436   2
 -17   5  13 29.1160 45.6767   1
 -17  -5  13-90.8248 62.4455   2
 -16   5  13 20.4379 59.3891   1
 -16  -5  13-73.6537 94.5234   2
 -15   5  13 74.0025 47.8888   1
 -15  -5  13 9.21676 80.5421   2
 -14   5  13-19.4183 35.8682   1
 -14  -5  13 78.5221 117.586   2
 -13   5  13 43.4926 50.2002   1
 -13  -5  13 124.122 142.493   2
 -13   5  13 85.2636 149.675   2
 -12   5  13 137.742 98.4968   1
 -12  -5  13 47.9576 28.0304   2
 -12   5  13 162.695 133.113   2
 -11   5  13 117.132 77.4150   1
 -11  -5  13-40.0263 105.113   2
 -11   5  13 106.647 115.722   2
 -10   5  13 138.287 63.7631   1
 -10  -5  13 201.642 118.822   2
 -10   5  13 175.746 131.594   2
  -9   5  13 93.5513 72.5809   1
  -9  -5  13 356.178 138.642   2
  -9   5  13 92.7849 92.7661   2
  -8   5  13-23.4152 33.3619   1
  -8  -5  13-9.53746 67.0033   2
  -8   5  13-58.8984 73.0253   2
  -8   5  13 31.8278 35.6546   3
  -7   5  13-0.16341 8.75479   1
  -7  -5  13 40.0658 71.1480   2
  -7   5  13-76.6361 80.3509   2
  -7   5  13-0.55705 31.4261   3
  -6   5  13 163.587 78.7138   1
  -6  -5  13 320.773 126.505   2
  -6   5  13 252.492 121.902   2
  -6   5  13 189.212 68.1969   3
  -5   5  13 165.061 79.0115   1
  -5  -5  13 118.400 74.2742   2
  -5   5  13 140.927 113.373   2
  -5   5  13 206.540 76.5330   3
  -4   5  13 99.0749 68.7845   1
  -4  -5  13 88.2208 50.6171   2
  -4   5  13 52.8098 76.3314   2
  -4   5  13 38.9834 38.2587   3
  -3  -5  13 1027.56 195.076   2
   3  -5 -13 958.977 174.484   2
  -3   5  13 927.460 157.717   3
  -3   5  13 1136.20 264.751   2
  -3   5  13 1159.29 198.580   1
  -2  -5  13 460.153 130.679   2
   2  -5 -13 477.059 114.087   2
  -2   5  13 241.901 114.509   2
  -2   5  13 437.423 118.463   1
  -2   5  13 427.756 110.402   3
  -1  -5  13 130.541 74.8468   2
   1   5 -13 78.5619 80.5362   1
   1  -5 -13 121.366 44.3924   2
  -1   5  13 102.620 80.8547   2
  -1   5  13 44.4140 37.1878   1
  -1   5  13 188.309 70.0862   3
   0  -5  13 307.498 105.809   2
   0  -5 -13 402.852 94.3677   2
   0   5 -13 450.820 159.000   1
   0   5  13 572.887 131.581   3
   1  -5  13 45.0098 54.6556   2
  -1  -5 -13 26.0079 18.7920   2
  -1   5 -13-10.0997 43.0656   1
   1   5  13-8.01087 11.5980   3
   2  -5  13 28.1305 36.7393   2
  -2   5 -13 46.1718 58.7972   1
   2   5  13 92.4073 61.8910   2
   2   5  13 113.053 58.1650   3
  -3   5 -13 42.1650 84.6204   1
   3   5  13 65.6847 41.3894   1
   3   5  13 18.5432 27.6877   2
   3   5  13 28.3815 30.3622   3
  -4   5 -13 2.71632 38.1575   1
   4   5  13-38.6965 29.9894   1
   4   5  13-68.7468 46.6338   2
   4   5  13-24.0719 23.1850   3
   5   5  13-51.6009 35.9363   2
  -5   5 -13 100.760 194.825   1
   5   5  13 3.89050 18.3625   3
   5   5  13 2.07325 7.29207   1
  -6   5 -13-39.3200 47.6508   1
   6   5  13-23.1086 29.2206   3
   6   5  13 126.108 45.9159   1
   7   5  13 126.056 38.0777   1
  -7   5 -13 154.150 92.5936   1
   7   5  13 86.0192 59.2509   3
  -8   5 -13 910.277 233.791   1
   8   5  13 872.038 169.810   3
  -9   5 -13 80.2323 48.1019   1
   9   5  13 168.062 74.1060   3
 -10   5 -13-74.6222 67.2218   1
  10   5  13-0.90052 33.1849   3
 -11   5 -13 4.92112 30.5215   1
  11   5  13-30.4592 32.8491   3
 -12   5 -13 68.8050 66.0659   1
  12   5  13 55.1700 36.6707   3
 -13   5 -13-15.4711 32.9202   1
  13   5  13-18.7272 25.2556   3
 -14   5 -13 9.82917 27.6152   1
  14   5  13 46.1789 55.8540   3
 -15   5 -13-85.1898 19.1032   1
  15   5  13 34.5111 21.5334   3
 -16   5 -13-105.393 85.1037   1
  16   5  13 17.3551 44.0319   3
 -17   5 -13-47.7820 59.3165   1
  17   5  13-7.46520 46.2449   3
  18   5  13 15.8191 23.4580   3
 -17   6  13-79.6586 75.2378   1
 -16   6  13 15.1828 34.8079   1
 -16  -6  13 58.8770 58.8624   2
 -15   6  13-29.4223 44.6106   1
 -15  -6  13-51.9725 111.681   2
 -14   6  13-43.9673 53.0175   1
 -14  -6  13 107.787 108.888   2
 -13   6  13 81.1727 70.4011   1
 -13  -6  13 158.075 102.122   2
 -12   6  13-9.07342 25.5574   1
 -12   6  13-16.2098 27.3107   3
 -11   6  13 46.0709 51.1032   1
 -11  -6  13 63.8499 98.8235   2
 -11   6  13 46.0032 33.3843   3
 -10   6  13 128.252 87.9989   1
 -10  -6  13-68.8891 83.3442   2
 -10   6  13 93.0224 48.7477   3
  -9   6  13-37.5136 44.3284   1
  -9  -6  13 11.5915 75.7184   2
  -9   6  13-23.7097 34.0015   3
  -8   6  13 104.990 70.5039   1
  -8  -6  13-16.2137 35.7860   2
  -8   6  13 66.6888 41.1083   3
  -7   6  13-5.78353 18.7958   1
  -7  -6  13 91.3794 74.8398   2
  -7   6  13 21.1897 30.5406   3
  -6   6  13-14.6221 26.4264   1
  -6  -6  13 21.5878 43.8505   2
  -6   6  13-9.07769 13.6496   3
  -5  -6  13 157.385 77.1617   2
  -5   6  13 140.400 75.1138   1
  -5   6  13 41.6341 38.1435   3
  -4  -6  13 52.6983 42.9263   2
  -4   6  13 265.648 98.3642   1
  -4   6  13 199.064 73.6159   3
  -3  -6  13 3.72882 45.8107   2
  -3   6  13-8.23999 19.0884   1
  -3   6  13 73.0881 44.8158   3
  -2  -6  13 17.6766 37.4540   2
  -2   6  13 67.5588 47.7998   1
  -2   6  13 6.49980 27.1098   3
  -1  -6  13 114.000 78.0221   2
  -1   6  13 68.7636 46.6946   1
  -1   6  13 114.540 57.3121   3
   1   6 -13 107.499 77.7468   1
   0  -6  13-8.81846 27.7619   2
   0   6  13 38.7963 36.3909   1
   0   6 -13 48.9001 52.5012   1
   0   6  13-10.5572 20.8025   3
  -1   6 -13 302.016 129.156   1
   1  -6  13 290.610 110.686   2
   1   6  13 223.080 74.2909   1
   1   6  13 248.707 88.0810   3
   2  -6  13 25.0628 33.8101   2
   2   6  13 30.0572 28.1259   1
  -2   6 -13 31.8971 58.2005   1
   2   6  13 33.6739 33.9676   3
  -3   6 -13 78.1212 59.5018   1
   3   6  13 32.7760 33.5591   3
  -4   6 -13 49.0278 54.3815   1
   4   6  13 32.3282 37.9197   3
   5   6  13 29.8460 24.0213   3
  -5   6 -13 59.1697 51.2975   1
  -6   6 -13 31.3549 44.9075   1
   6   6  13-25.6976 37.0177   3
  -7   6 -13 279.957 146.424   1
   7   6  13 301.688 101.123   3
  -8   6 -13-8.57491 26.6688   1
   8   6  13 72.9053 59.5174   3
  -9   6 -13-79.6428 71.9506   1
   9   6  13-64.9167 49.4110   3
 -10   6 -13-136.326 94.6127   1
  10   6  13 42.4345 45.8655   3
 -11   6 -13 53.0737 60.6828   1
  11   6  13 35.8845 40.5937   3
 -12   6 -13-52.1294 60.9993   1
  12   6  13-6.60313 22.8099   3
 -13   6 -13 10.3264 30.4690   1
  13   6  13 61.7767 66.9663   3
 -14   6 -13-12.5222 58.7011   1
  14   6  13-18.4837 16.1932   3
 -15   7  13 141.041 98.3527   1
 -14   7  13-40.9255 52.9976   1
 -13   7  13 33.0646 47.0255   1
 -12   7  13-5.80539 21.7518   1
 -11  -7  13-212.340 127.202   2
 -11   7  13 49.4197 54.1023   1
 -10  -7  13 112.023 91.8227   2
 -10   7  13 59.0026 56.9801   1
 -10   7  13 38.1402 31.2784   3
  -9  -7  13 215.315 150.761   2
  -9   7  13 234.290 102.768   1
  -9   7  13 291.056 109.284   3
  -8  -7  13 82.7769 73.1509   2
  -8   7  13 159.536 85.7411   1
  -8   7  13 187.869 70.6548   3
  -7  -7  13 46.5721 20.0269   2
  -7   7  13-32.7839 40.3620   1
  -7   7  13 17.7004 23.3905   3
  -6  -7  13 167.496 135.574   2
  -6   7  13 198.518 92.8701   1
  -6   7  13 225.653 81.5894   3
  -5  -7  13 183.023 108.612   2
  -5   7  13 192.205 88.0996   1
  -5   7  13 213.845 82.9656   3
  -4  -7  13 20.1402 89.5317   2
  -4   7  13 106.507 65.0115   1
  -4   7  13 28.4088 18.2385   3
  -3  -7  13 101.524 43.8509   2
  -3   7  13 90.5798 63.6577   1
  -3   7  13 68.3654 35.7510   3
  -2  -7  13 44.9444 61.9101   2
  -2   7  13 11.5938 21.5563   1
  -2   7  13 93.1911 51.9253   3
  -1  -7  13 145.761 81.8667   2
   1   7 -13 3.22282 19.6379   1
  -1   7  13 105.316 57.4782   1
  -1   7  13 13.4259 28.1893   3
   0  -7  13 185.793 92.7944   2
   0   7  13 88.4778 59.9225   3
   0   7 -13 40.9959 52.5721   1
   1  -7  13 82.3794 69.6684   2
  -1   7 -13 60.0906 63.2669   1
   1   7  13 50.9893 41.5647   3
   2  -7  13 121.353 67.3222   2
  -2   7 -13 175.439 111.581   1
   2   7  13 23.3866 34.9723   3
  -3   7 -13 89.4004 77.0419   1
   3   7  13-82.5204 54.2383   3
   3  -7  13 35.6655 59.4716   2
  -4   7 -13 327.300 146.386   1
   4   7  13 271.337 98.8356   3
  -5   7 -13 378.139 158.075   1
   5   7  13 259.780 98.6668   3
   6   7  13-25.5569 25.4007   3
  -6   7 -13 127.372 92.9658   1
  -7   7 -13 204.828 136.936   1
   7   7  13 349.081 127.707   3
  -8   7 -13-72.0462 71.6237   1
   8   7  13-38.6089 38.1945   3
  -9   7 -13 191.023 116.321   1
   9   7  13 208.397 104.312   3
 -10   7 -13 157.470 115.155   1
  10   7  13 115.817 72.0253   3
 -12   8  13 404.618 159.499   1
 -11   8  13-60.2615 59.8334   1
 -10   8  13-81.9446 68.2776   1
  -9   8  13-33.1577 43.8459   1
  -8   8  13 444.466 149.032   1
  -7   8  13 40.6098 45.0495   1
  -7   8  13 45.4325 38.5688   3
  -6  -8  13-27.8707 38.4669   2
  -6   8  13 44.7961 39.0075   3
  -5  -8  13 43.9600 69.4191   2
  -5   8  13 18.0894 26.3434   3
  -4  -8  13 12.1347 31.2919   2
  -4   8  13 113.125 61.7147   3
  -3  -8  13 18.6830 72.0465   2
  -3   8  13-63.3173 47.9280   3
  -2  -8  13-51.7478 54.1852   2
  -2   8  13 75.9377 52.7539   3
  -1  -8  13 56.5362 70.4306   2
  -1   8  13 12.9375 24.3372   3
   0  -8  13-101.697 70.7020   2
   0   8 -13 119.721 91.8199   1
   0   8  13-6.55471 43.2997   3
   1  -8  13-63.9706 67.7761   2
  -1   8 -13 76.3168 74.3738   1
   1   8  13 52.0716 46.0867   3
   2  -8  13 318.387 122.367   2
  -2   8 -13 388.534 175.953   1
   2   8  13 279.414 104.939   3
   3  -8  13-39.8912 41.7354   2
  -3   8 -13 67.7251 71.0326   1
   3   8  13 45.5282 44.2446   3
   4  -8  13 137.968 85.5334   2
  -4   8 -13 198.594 127.567   1
   4   8  13 102.424 83.6079   3
  -5   8 -13 221.018 127.772   1
  -6   8 -13 52.9350 64.1869   1
 -25   0  14-36.4976 39.5518   1
 -24   0  14 142.321 121.896   1
 -24   0  14 308.535 225.839   2
 -23   0  14 348.180 157.492   2
 -22   0  14 1227.85 469.217   2
 -21   0  14 1170.07 421.738   2
 -20   0  14 484.231 327.509   2
 -19   0  14 149.983 148.717   2
 -18   0  14-173.665 156.318   2
 -17   0  14-36.3037 76.7245   2
 -16   0  14-85.7623 118.107   2
 -15   0  14 228.818 183.733   2
 -14   0  14 198.449 155.536   2
 -13   0  14 277.698 200.943   2
 -12   0  14 76.0890 85.5591   2
 -11   0  14 48.0463 70.2852   2
 -10   0  14 125.787 66.0642   2
  -9   0  14 62.8493 99.1220   2
  -8   0  14 150.982 76.5375   2
  -7   0  14 620.588 199.868   2
  -6   0  14-86.8370 104.415   2
  -5   0  14 297.716 132.612   2
  -4   0  14 180.462 106.701   2
  -3   0  14 139.295 81.4693   2
  -2   0  14 50.1480 60.3648   2
   2   0 -14-23.6085 19.3604   2
  -1   0  14 373.741 118.302   2
  -1   0  14 314.618 105.244   1
   0   0  14 1811.18 248.200   2
   0   0  14 1827.49 255.542   1
   1   0  14-54.4121 44.0414   2
   1   0  14-7.60395 32.4045   1
   2   0  14-7.90863 23.6345   2
   2   0  14-21.9940 28.1279   1
   3   0  14 63.7695 50.7838   2
   3   0  14 34.9374 24.0106   1
   4   0  14 348.941 94.7475   2
   4   0  14 316.290 103.381   1
   5   0  14 156.422 70.2022   2
   5   0  14 178.934 72.6461   1
   6   0  14 82.2134 51.0734   2
   6   0  14 79.8936 53.1464   1
   7   0  14 506.368 121.073   2
  -7   0 -14 632.796 165.383   1
  -8   0 -14 1227.79 219.917   1
   8   0  14 1139.65 168.599   2
  -9   0 -14 293.520 110.286   1
 -10   0 -14 112.132 67.3394   1
 -11   0 -14 23.4649 23.6859   1
 -12   0 -14 741.537 180.034   1
 -13   0 -14-0.81480 13.0988   1
 -14   0 -14 278.925 112.366   1
  14   0  14 520.574 118.523   3
  15   0  14 1617.08 204.329   3
 -15   0 -14 1589.85 264.231   1
 -16   0 -14 15.5162 35.9665   1
  16   0  14 121.273 59.2134   3
 -17   0 -14-4.35118 49.9770   1
  17   0  14 26.4146 25.1170   3
 -18   0 -14-29.1205 24.8976   1
  18   0  14-42.4673 36.5036   3
 -19   0 -14 85.3069 80.1654   1
  19   0  14 0.91244 17.7357   3
 -20   0 -14 1.59010 15.0828   1
  20   0  14 29.0409 18.5143   3
 -21   0 -14 333.112 124.867   1
 -22   0 -14-4.67254 22.0770   1
 -26  -1  14-212.703 127.675   1
 -25  -1  14 360.046 162.076   1
 -25  -1  14 32.0558 83.3537   2
 -24   1  14 59.9164 83.4284   1
 -24  -1  14 108.512 139.374   2
 -24   1  14 166.849 142.517   2
 -23   1  14 242.438 129.286   1
 -23  -1  14 93.5591 127.834   2
 -23   1  14 135.227 147.368   2
 -22   1  14 329.013 145.596   1
 -22  -1  14 571.994 330.311   2
 -22   1  14 676.863 319.222   2
 -21  -1  14 66.0874 107.347   2
 -21   1  14-61.7368 100.097   2
 -20  -1  14 212.237 174.488   2
 -20   1  14 140.315 145.402   2
 -19  -1  14 34.1259 78.4965   2
 -19   1  14 198.682 191.335   2
 -18  -1  14 243.249 129.199   2
 -18   1  14 166.604 206.312   2
 -17  -1  14-23.6551 142.001   2
 -17   1  14-175.006 153.711   2
 -16  -1  14 90.8699 109.834   2
 -16   1  14 215.322 232.674   2
 -15  -1  14-68.1964 137.751   2
 -15   1  14 234.387 163.964   2
 -14  -1  14 78.8543 56.7913   2
 -14   1  14 168.985 168.944   2
 -13  -1  14 322.255 155.371   2
 -13   1  14 246.336 145.909   2
 -12  -1  14-45.1910 76.3511   2
 -12   1  14-126.650 116.572   2
 -11  -1  14 163.099 128.920   2
 -11   1  14-76.6966 92.3867   2
 -10  -1  14 435.316 185.985   2
 -10   1  14 297.296 187.605   2
  -9  -1  14-80.1976 137.424   2
  -9   1  14-0.96837 41.6603   2
  -8  -1  14 939.876 236.168   2
  -8   1  14 1186.55 313.900   2
  -7  -1  14 3.14169 34.6096   2
  -7   1  14 77.8334 81.3963   2
  -6  -1  14 207.973 98.6687   2
  -6   1  14 401.085 166.992   2
  -5  -1  14 77.2335 71.2954   2
  -5   1  14 69.9434 22.0753   2
  -4  -1  14 256.165 109.286   2
  -4   1  14 363.371 130.998   2
  -3  -1  14 1186.60 222.901   2
  -3   1  14 982.225 211.666   2
   3  -1 -14 964.120 153.560   2
   2  -1 -14 84.6430 51.3334   2
  -2  -1  14 191.110 101.151   2
  -2   1  14-15.9792 58.3721   2
  -2   1  14 118.172 69.9177   1
   1  -1 -14 539.209 106.235   2
  -1   1  14 505.624 135.414   1
  -1  -1  14 429.430 115.808   2
  -1   1  14 424.220 133.301   2
   0   1  14 173.252 79.0993   1
   0  -1  14 150.405 59.8610   2
   0   1  14 208.166 93.4194   2
   1  -1  14 297.426 99.3205   2
   1   1  14 201.260 92.0440   2
   1   1  14 135.152 73.3826   1
   2  -1  14 87.5262 48.2234   2
   2   1  14 126.927 69.6071   2
   2   1  14 99.3121 57.8194   1
   3  -1  14 43.0229 43.5522   2
   3   1  14 48.8145 55.8212   2
   3   1  14 34.1324 16.4364   1
   4  -1  14 40.8851 42.1021   2
   4   1  14 63.6915 33.9906   2
   4   1  14 26.0819 7.95005   1
  -4   1 -14 8.51341 31.2327   1
   5   1  14 18.9185 25.2499   1
   5  -1  14 28.6608 36.4609   2
   5   1  14 15.5944 29.6848   2
  -5   1 -14-7.97177 24.5365   1
   6   1  14-7.28412 28.0157   2
  -6   1 -14-15.1152 30.6718   1
   6   1  14 31.5321 31.5196   1
   6  -1  14-0.49040 28.9427   2
   7   1  14-24.4436 11.0066   2
   7   1  14 55.4328 47.1602   1
  -7   1 -14 32.9187 19.9299   1
   8   1  14 15.3339 17.8055   2
   8   1  14 6.19258 15.5517   1
  -8   1 -14 18.0963 28.3333   1
   9   1  14 289.309 83.8149   2
   9   1  14 172.401 73.3144   1
  -9   1 -14 250.397 97.4637   1
  10   1  14 70.4315 44.0019   2
 -10   1 -14 37.6576 31.8082   1
  10   1  14 5.88909 21.5217   1
 -11  -1 -14 64.1544 56.7970   1
 -11   1 -14 165.175 85.0787   1
  11   1  14 136.896 56.6417   2
  11   1  14 56.0632 42.1764   1
 -12  -1 -14 100.609 55.2336   1
 -12   1 -14 187.224 90.1743   1
  12   1  14 42.2813 29.7157   3
 -13  -1 -14 55.0223 59.3271   1
 -13   1 -14 63.4476 52.8603   1
  13   1  14 130.368 67.9569   3
 -14  -1 -14 150.411 74.0194   1
 -14   1 -14 108.035 66.5906   1
  14   1  14 130.123 48.2384   3
 -15   1 -14 325.816 111.105   1
 -15  -1 -14 430.157 135.316   1
  15   1  14 396.089 102.244   3
  15  -1  14 406.184 98.3751   3
 -16   1 -14 64.8582 57.7163   1
 -16  -1 -14-83.1489 58.6360   1
  16   1  14-19.0484 30.5760   3
  16  -1  14 5.60997 9.96239   3
 -17   1 -14 95.2182 77.4351   1
 -17  -1 -14 42.9497 53.2910   1
  17   1  14-19.1585 39.5397   3
  17  -1  14 40.6038 26.3561   3
 -18  -1 -14 93.9336 61.9492   1
 -18   1 -14 69.6003 62.7070   1
  18   1  14 59.6777 35.1627   3
  18  -1  14 160.523 60.2153   3
 -19  -1 -14-40.4412 43.4257   1
  19   1  14-64.0415 43.4548   3
  19  -1  14 28.6531 23.1661   3
 -20  -1 -14 73.6788 47.7896   1
 -20   1 -14 194.525 96.4346   1
  20   1  14 96.0300 63.8975   3
 -21   1 -14 169.201 113.310   1
  21   1  14 338.143 101.362   3
 -22   1 -14 171.951 109.877   1
  22   1  14 231.437 81.6135   3
 -23   1 -14 94.7238 77.3635   1
 -24   1 -14 10.2905 29.2448   1
 -26  -2  14 205.512 129.899   1
 -25  -2  14 240.694 203.664   2
 -24  -2  14-44.1206 93.7041   2
 -23   2  14 40.9898 67.0353   1
 -23  -2  14 17.0882 67.5835   2
 -23   2  14-129.019 146.200   2
 -22   2  14-53.5085 63.4389   1
 -22  -2  14-20.2493 69.0183   2
 -22   2  14-59.1214 99.2526   2
 -21   2  14 16.5772 16.2923   1
 -21  -2  14 177.933 191.421   2
 -21   2  14 106.403 126.681   2
 -20   2  14 186.242 127.672   1
 -20  -2  14 152.835 156.065   2
 -20   2  14-189.203 165.718   2
 -19  -2  14 369.474 233.092   2
 -19   2  14 309.648 209.630   2
 -18  -2  14 1093.79 404.897   2
 -18   2  14 1344.70 434.504   2
 -17  -2  14 24.4288 82.9718   2
 -17   2  14 80.4920 125.705   2
 -16  -2  14 20.2199 40.2266   2
 -16   2  14 79.0043 87.6039   2
 -15  -2  14 432.639 219.277   2
 -15   2  14 224.212 168.326   2
 -14  -2  14 320.835 185.450   2
 -14   2  14 838.941 330.742   2
 -13  -2  14 180.418 115.635   2
 -13   2  14-54.0671 81.9466   2
 -12  -2  14 135.709 109.110   2
 -12   2  14 309.234 198.092   2
 -11  -2  14 150.125 122.542   2
 -11   2  14 254.727 220.240   2
 -10  -2  14-57.1183 79.8161   2
 -10   2  14 123.707 93.4176   2
  -9  -2  14 46.1701 69.0841   2
  -9   2  14 115.361 75.2567   2
  -8  -2  14 5878.19 588.421   2
  -8   2  14 6738.65 772.430   2
  -7  -2  14 2217.27 347.179   2
  -7   2  14 2526.78 458.188   2
  -6  -2  14 194.378 105.946   2
  -6   2  14 100.633 98.4620   2
  -5  -2  14-4.87806 40.8539   2
  -5   2  14 94.0787 62.0401   2
  -4  -2  14 179.610 100.066   2
  -4   2  14 177.557 115.429   2
   3  -2 -14 45.0898 24.7569   2
  -3  -2  14 7.31086 14.4804   2
  -3   2  14 47.7749 28.2436   2
   2  -2 -14 212.134 76.1768   2
  -2  -2  14 180.739 74.5058   2
  -2   2  14 190.528 109.899   2
   1  -2 -14 111.430 53.3206   2
  -1  -2  14 121.001 64.8633   2
  -1   2  14 21.7373 40.0953   2
   0  -2 -14 22.9710 23.3058   2
   0  -2  14 125.280 68.5397   2
   0   2  14-15.9401 76.9517   2
   0   2  14 21.9654 25.5033   1
   1  -2  14 91.9009 54.3142   2
   1   2  14 5.22246 18.7211   2
   1   2  14 10.5372 18.6851   1
   2  -2  14 271.520 92.2905   2
   2   2  14 213.398 83.1107   2
  -2   2 -14 224.926 98.9614   1
   2   2  14 222.262 89.6784   1
   3  -2  14 275.474 91.4110   2
   3   2  14 163.553 66.9739   2
  -3   2 -14 187.728 92.3049   1
   3   2  14 212.750 82.5080   1
   4  -2  14 54.6575 41.5277   2
   4   2  14 18.2827 48.1495   2
  -4   2 -14 62.1414 51.2389   1
   4   2  14 49.3082 24.8771   1
   5   2  14-0.22493 31.1212   1
  -5   2 -14 4.80823 21.7016   1
  -6   2 -14 136.261 76.6351   1
   6   2  14 137.262 68.1742   1
   7   2  14 107.330 58.2133   2
  -7   2 -14 195.586 98.8809   1
   7   2  14 133.446 62.1023   1
  -8   2 -14 327.876 120.191   1
   8   2  14 353.790 95.9560   2
   8   2  14 453.333 113.559   1
   9   2  14 976.108 165.250   1
  -9   2 -14 1202.15 244.373   1
   9   2  14 960.163 146.986   2
  10   2  14 802.827 149.133   1
 -10   2 -14 971.118 214.167   1
  10   2  14 894.276 155.438   3
  10   2  14 875.347 140.928   2
  11   2  14 196.142 59.8173   2
 -11   2 -14 316.684 126.082   1
  11   2  14 292.417 95.2713   3
  11   2  14 194.630 71.2027   1
  12   2  14 38.5652 27.0304   2
 -12   2 -14 24.4344 19.2954   1
  12   2  14 81.1496 46.7964   1
  12   2  14-15.1518 15.2829   3
  13   2  14 33.2096 20.8715   2
 -13   2 -14 10.7563 19.5464   1
  13   2  14 34.9795 31.5657   1
  13   2  14 35.8709 39.1094   3
  14   2  14 30.7526 33.7747   2
 -14   2 -14 120.968 88.2898   1
  14   2  14-1.73596 27.9101   3
  15   2  14 43.8472 44.4730   2
 -15   2 -14 201.007 102.334   1
  15   2  14 20.1153 17.4945   3
 -16   2 -14 131.198 97.9079   1
  16   2  14 121.125 61.2755   3
  16  -2  14 95.6580 45.4361   3
  16   2  14 127.678 62.8257   2
 -17   2 -14 38.0226 61.9788   1
  17   2  14 78.5379 49.8742   3
  17  -2  14 136.198 55.8825   3
 -18   2 -14 58.2503 59.5615   1
  18   2  14 90.0029 56.0158   3
 -19   2 -14 83.4657 71.1197   1
  19   2  14 126.076 60.1750   3
 -20   2 -14 265.658 128.581   1
  20   2  14 132.117 63.0088   3
 -21   2 -14 324.544 143.693   1
  21   2  14 688.465 156.356   3
 -22   2 -14 199.589 119.131   1
  22   2  14 126.326 69.4010   3
 -23   2 -14 98.8128 90.9810   1
  23   2  14 256.135 108.546   3
 -24   2 -14 572.785 189.529   1
 -25  -3  14-256.719 209.867   2
 -24  -3  14-28.3100 77.7632   2
 -23  -3  14 267.480 211.867   2
 -22   3  14 116.379 94.2847   1
 -22  -3  14-151.841 159.082   2
 -22   3  14-36.6970 85.1197   2
 -21   3  14 56.6751 66.0092   1
 -21  -3  14-200.656 177.764   2
 -21   3  14 213.658 182.947   2
 -20   3  14 182.940 125.290   1
 -20  -3  14-241.852 190.967   2
 -20   3  14 135.675 180.596   2
 -19   3  14 180.825 117.941   1
 -19  -3  14 36.8998 163.727   2
 -19   3  14-205.918 170.264   2
 -18   3  14 23.2869 40.0769   1
 -18  -3  14 32.5413 42.4711   2
 -18   3  14-54.8346 88.7674   2
 -17   3  14 523.106 177.461   1
 -17  -3  14 494.547 249.095   2
 -17   3  14 217.641 115.847   2
 -16  -3  14-18.6898 140.981   2
 -16   3  14 155.171 141.179   2
 -15  -3  14 114.667 75.3110   2
 -15   3  14 288.137 320.818   2
 -14  -3  14-23.5811 106.185   2
 -14   3  14 149.936 135.057   2
 -13  -3  14 0.33415 104.964   2
 -13   3  14 262.740 174.454   2
 -12  -3  14 2172.24 467.145   2
 -12   3  14 293.622 141.670   2
 -11  -3  14 100.535 73.1021   2
 -11   3  14 375.671 207.901   2
 -10  -3  14 291.790 111.131   2
 -10   3  14 399.754 223.164   2
  -9  -3  14 122.551 81.2143   2
  -9   3  14 353.497 184.692   2
  -8  -3  14 2631.61 388.400   2
  -8   3  14 3236.48 554.226   2
  -7  -3  14 82.7145 92.2589   2
  -7   3  14-165.401 121.689   2
  -6  -3  14 1231.22 249.084   2
  -6   3  14 1354.39 349.836   2
  -5  -3  14 92.6817 96.1211   2
  -5   3  14-3.93695 91.5834   2
  -4  -3  14 763.602 174.283   2
  -4   3  14 810.148 249.588   2
  -3   3  14 2428.89 410.378   2
   3  -3 -14 2105.06 243.377   2
  -3  -3  14 2241.06 295.176   2
   2  -3 -14 226.739 72.3213   2
  -2  -3  14 215.989 93.5304   2
  -2   3  14 65.3385 70.0354   2
   1  -3 -14 38.4819 14.9769   2
  -1  -3  14 79.1883 53.0401   2
  -1   3  14 172.467 100.430   2
   0  -3 -14 271.791 72.0783   2
   0  -3  14 239.710 89.0909   2
   0   3  14 338.838 139.074   2
   1  -3  14 80.1959 48.1993   2
   1   3  14 129.699 91.6890   2
   1   3  14 92.5789 50.2823   1
  -1   3 -14 103.282 70.1462   1
  -1  -3 -14 110.522 55.4011   2
   2  -3  14-0.80876 43.2922   2
   2   3  14-39.0531 35.1454   1
  -2   3 -14 29.8083 160.181   1
   3  -3  14 37.7005 36.1495   2
  -3   3 -14 10.9939 53.6454   1
   3   3  14 7.23949 14.9274   1
  -4   3 -14 20.5014 61.0095   1
   4   3  14 35.7170 45.1253   1
   4  -3  14-4.59620 14.9653   2
   5   3  14-5.66203 13.9598   1
  -5   3 -14 43.2450 41.9188   1
   6   3  14 268.827 83.0077   1
  -6   3 -14 121.746 67.1791   1
   7   3  14 333.585 92.0309   1
   7   3  14 373.598 106.583   3
  -7   3 -14 408.742 142.543   1
   8   3  14 98.8019 49.6167   1
  -8   3 -14 42.2857 67.1881   1
   8   3  14 29.2050 17.5600   3
   9   3  14 171.321 62.6423   1
  -9   3 -14 152.908 89.7719   1
   9   3  14 139.565 62.1798   3
  10   3  14 101.641 49.7687   1
 -10   3 -14 120.337 79.8502   1
  10   3  14 124.232 79.4509   3
 -11   3 -14 198.069 103.760   1
  11   3  14 230.360 69.9374   1
  11   3  14 127.091 67.4100   3
 -12   3 -14-31.7483 24.1904   1
  12   3  14-8.47686 13.0827   3
 -13   3 -14 387.480 141.535   1
  13   3  14 380.102 111.719   3
 -14   3 -14-8.98663 25.8610   1
  14   3  14 22.2908 26.6961   3
  15   3  14 461.480 100.300   2
 -15   3 -14 1128.96 255.833   1
  15   3  14 1066.35 191.488   3
 -16   3 -14 340.492 156.813   1
  16   3  14 348.668 111.571   3
 -17   3 -14 24.5628 66.7600   1
  17   3  14 65.7310 45.9625   3
 -18   3 -14 27.0842 83.4394   1
  18   3  14 26.5886 35.6608   3
 -19   3 -14-67.4796 68.0878   1
  19   3  14 2.81467 37.7981   3
 -20   3 -14-24.9020 44.1615   1
  20   3  14-115.124 67.7561   3
 -21   3 -14 100.232 86.5470   1
  21   3  14 110.524 76.2528   3
 -22   3 -14-64.6713 70.1803   1
  22   3  14 71.3704 55.6954   3
  23   3  14-14.6438 28.0870   3
 -23  -4  14 318.028 184.536   2
 -22  -4  14 327.283 228.289   2
 -21  -4  14-60.0794 103.533   2
 -20   4  14-33.5162 50.8848   1
 -20  -4  14-45.5331 179.629   2
 -19   4  14-36.3055 60.5800   1
 -19  -4  14-265.133 195.017   2
 -19   4  14-261.894 197.485   2
 -18   4  14-5.31492 23.8752   1
 -18  -4  14 53.1306 96.9814   2
 -18   4  14 54.7873 91.9688   2
 -17   4  14 76.5627 71.0719   1
 -17  -4  14 19.4882 90.9313   2
 -17   4  14-33.7843 72.8704   2
 -16   4  14-9.00401 29.9518   1
 -16  -4  14 201.387 163.871   2
 -16   4  14 148.363 139.047   2
 -15   4  14 323.273 138.333   1
 -15  -4  14 383.285 225.792   2
 -15   4  14 637.444 270.289   2
 -14   4  14 128.016 85.3520   1
 -14  -4  14 99.0737 112.151   2
 -14   4  14-115.832 117.671   2
 -13   4  14 57.1692 56.7187   1
 -13  -4  14 232.111 103.215   2
 -12  -4  14-13.0603 122.072   2
 -12   4  14-25.9691 112.759   2
 -12   4  14 36.2230 37.7892   1
 -11  -4  14-8.40010 64.2955   2
 -11   4  14-21.0708 87.0973   2
 -10  -4  14 399.940 173.745   2
 -10   4  14 129.846 115.393   2
  -9  -4  14 61.4573 90.1493   2
  -9   4  14 106.245 108.610   2
  -8  -4  14 37.2753 54.0342   2
  -8   4  14-68.0301 81.3815   2
  -7  -4  14 380.566 134.059   2
  -7   4  14 764.022 280.326   2
  -6  -4  14 649.401 187.383   2
  -6   4  14 426.892 216.994   2
  -5  -4  14 248.080 121.989   2
  -5   4  14 112.446 76.4724   2
  -4  -4  14 456.437 145.016   2
  -4   4  14 630.670 229.198   2
  -3  -4  14 913.399 194.874   2
   3  -4 -14 685.072 140.631   2
  -3   4  14 1081.02 287.965   2
  -2  -4  14 649.156 156.082   2
   2  -4 -14 469.607 113.230   2
  -2   4  14 883.914 252.297   2
  -1  -4  14 391.403 124.211   2
   1  -4 -14 352.506 92.1936   2
  -1   4  14 318.153 143.490   2
   0  -4 -14 533.278 103.603   2
   0  -4  14 581.970 146.409   2
   0   4  14 572.783 186.083   2
   0   4 -14 464.743 157.961   1
  -1   4 -14 84.2506 53.2904   1
  -1  -4 -14 84.5408 36.1244   2
   1  -4  14 88.9759 69.0970   2
   2  -4  14 7.15065 20.7540   2
  -2   4 -14 9.30554 11.0588   1
   2   4  14-32.4315 31.9809   1
   3  -4  14 5.35072 28.5177   2
  -3   4 -14 38.0156 66.6988   1
   3   4  14 13.0281 47.3987   3
   3   4  14 44.0575 35.9365   1
   4   4  14 84.3647 47.3948   1
  -4   4 -14 79.9704 73.2177   1
   4   4  14 93.8162 54.8393   3
  -5   4 -14 138.173 85.2419   1
   5   4  14 14.8983 26.7661   2
   5   4  14 116.546 53.8141   1
   5   4  14 117.302 65.3254   3
   6   4  14 131.881 54.8074   1
   6   4  14 99.2959 61.5850   2
   6   4  14 111.738 57.1641   3
  -6   4 -14 68.0751 60.9735   1
   7   4  14 61.6314 63.7754   2
   7   4  14 105.695 44.1200   1
  -7   4 -14 88.2139 73.3512   1
   7   4  14 78.1685 58.3236   3
   8   4  14 3.39163 20.5235   2
  -8   4 -14 0.21223 31.4199   1
   8   4  14-61.1934 44.3887   3
   9   4  14 86.8677 48.8227   2
  -9   4 -14 12.0528 33.9750   1
   9   4  14 17.8033 41.4399   3
  10   4  14 157.204 62.0647   2
 -10   4 -14 37.7520 47.4370   1
  10   4  14 18.2636 11.6477   3
 -11   4 -14-71.9445 64.7871   1
  11   4  14-87.4078 54.2322   3
 -12   4 -14-42.6517 51.3292   1
  12   4  14-23.6860 42.0872   3
 -13   4 -14 55.7801 19.8912   1
  13   4  14 82.8449 64.8521   3
 -14   4 -14 25.6908 42.5583   1
  14   4  14 142.268 74.6559   3
 -15   4 -14 1326.48 292.540   1
  15   4  14 891.599 177.609   3
 -16   4 -14 133.697 100.243   1
  16   4  14 97.4801 67.4534   3
 -17   4 -14 436.478 162.398   1
  17   4  14 408.871 128.304   3
 -18   4 -14 431.547 168.776   1
  18   4  14 269.838 103.107   3
 -19   4 -14 416.972 169.859   1
  19   4  14 417.650 132.842   3
  20   4  14 134.207 77.0311   3
 -20  -5  14 141.810 104.183   2
 -19  -5  14 260.035 192.281   2
 -18   5  14 24.0781 35.9970   1
 -18  -5  14 89.7308 113.981   2
 -17   5  14 106.241 88.1331   1
 -17  -5  14 71.3349 83.3881   2
 -16   5  14 0.25854 34.0236   1
 -16  -5  14 69.0546 94.1728   2
 -15   5  14 96.4069 91.9013   1
 -15  -5  14 148.406 126.422   2
 -15   5  14 145.987 132.005   2
 -14   5  14 180.042 104.777   1
 -14  -5  14 211.418 116.255   2
 -14   5  14-86.4713 106.952   2
 -13   5  14 191.276 105.252   1
 -13  -5  14-0.67467 77.0617   2
 -13   5  14-83.4168 102.064   2
 -12   5  14 111.278 79.1500   1
 -12  -5  14-58.6654 120.391   2
 -12   5  14 307.275 195.566   2
 -11   5  14 40.6155 42.0153   1
 -11  -5  14-21.9934 95.1632   2
 -11   5  14-70.9831 60.5205   2
 -10   5  14 6.13167 41.4222   1
 -10  -5  14-70.7217 113.827   2
 -10   5  14-126.214 112.933   2
  -9   5  14-31.6530 58.4760   1
  -9  -5  14-26.2602 64.1867   2
  -9   5  14 11.6526 38.8487   2
  -8   5  14-71.9167 58.1255   1
  -8  -5  14 36.7421 44.1211   2
  -8   5  14-91.7203 91.9507   2
  -7   5  14 132.209 72.5209   1
  -7  -5  14 130.837 106.214   2
  -7   5  14 48.0903 65.9448   2
  -6   5  14-26.2893 34.0145   1
  -6  -5  14 45.1356 67.4752   2
  -6   5  14-68.4512 75.1056   2
  -6   5  14 97.4254 54.4028   3
  -5  -5  14-48.1920 37.0334   2
  -5   5  14 3.85486 24.0456   2
  -5   5  14 122.425 75.9230   1
  -5   5  14 128.533 61.2662   3
  -4  -5  14 107.883 87.1789   2
  -4   5  14 148.483 116.067   2
  -4   5  14 112.836 55.4338   3
  -3  -5  14 401.052 133.603   2
  -3   5  14 308.711 151.102   2
  -3   5  14 365.788 101.699   3
  -2  -5  14 641.978 160.636   2
  -2   5  14 608.645 197.780   2
  -2   5  14 676.581 136.502   3
  -1  -5  14-48.8395 73.3126   2
   1  -5 -14-6.34642 10.6419   2
  -1   5  14 15.7066 40.9488   2
  -1   5  14 52.6740 32.7304   3
   0  -5  14 131.603 86.3053   2
   0  -5 -14 1.23216 38.1052   2
   0   5 -14-88.1151 70.9527   1
   0   5  14 78.2819 21.4500   2
   0   5  14 9.22482 21.6452   3
   1  -5  14 217.471 92.1195   2
  -1   5 -14 206.616 118.245   1
   1   5  14 158.525 71.4442   3
  -2   5 -14-20.5647 35.4114   1
   2  -5  14 86.5875 55.8576   2
   2   5  14 27.0276 23.6266   3
  -3   5 -14 230.844 113.888   1
   3   5  14 237.638 94.2818   3
   3  -5  14 333.801 116.381   2
  -4   5 -14 277.835 125.497   1
   4   5  14 171.582 74.0626   2
   4   5  14 242.620 92.9175   3
  -5   5 -14 65.8916 59.9122   1
   5   5  14-31.7619 32.9366   2
   5   5  14 26.7077 46.0132   3
   6   5  14 197.078 81.0686   3
  -6   5 -14 60.0833 59.8436   1
  -7   5 -14 232.609 113.294   1
   7   5  14 221.817 88.8548   3
  -8   5 -14 75.3821 68.2076   1
   8   5  14-8.41706 30.3812   3
  -9   5 -14-69.0660 65.5622   1
   9   5  14-8.84725 35.4237   3
 -10   5 -14-38.2243 49.9206   1
  10   5  14 19.7845 29.2612   3
 -11   5 -14-103.941 81.3805   1
  11   5  14 71.1576 47.6627   3
 -12   5 -14 7.06774 25.3911   1
  12   5  14-17.3785 46.1063   3
 -13   5 -14-12.6309 71.3693   1
  13   5  14 16.2800 26.7762   3
 -14   5 -14 94.0292 80.1261   1
  14   5  14 926.031 190.294   3
 -15   5 -14 62.6703 55.0740   1
  15   5  14-51.4677 71.3438   3
 -16   5 -14 210.849 122.879   1
  16   5  14-31.6815 42.5086   3
  17   5  14 166.127 92.5445   3
 -16   6  14 85.2814 78.2574   1
 -16  -6  14-147.401 133.834   2
 -15   6  14 92.4976 79.3775   1
 -15  -6  14 30.9466 65.4699   2
 -14   6  14 152.639 93.8736   1
 -14  -6  14 417.664 199.384   2
 -13   6  14 100.650 78.7348   1
 -13  -6  14 197.866 142.177   2
 -12   6  14 168.437 112.830   1
 -12  -6  14-85.9882 135.172   2
 -12   6  14 27.2547 27.1336   3
 -11   6  14 65.3317 27.0027   1
 -11  -6  14-57.0364 70.0425   2
 -11   6  14 38.9312 34.5623   3
 -10   6  14 22.7481 36.1796   1
 -10  -6  14 123.740 106.932   2
 -10   6  14 40.8464 37.7022   3
  -9   6  14-34.8382 43.7007   1
  -9   6  14 49.7149 37.1726   3
  -8   6  14 38.5422 44.1066   1
  -8  -6  14 37.4306 61.5631   2
  -8   6  14 50.5482 43.4439   3
  -7   6  14-1.46270 13.5222   1
  -7  -6  14-34.2221 71.4304   2
  -7   6  14 31.2965 36.6217   3
  -6   6  14 29.3440 19.0849   1
  -6  -6  14-28.8811 81.2888   2
  -6   6  14 48.7978 47.5039   3
  -5   6  14 92.5032 55.8281   1
  -5  -6  14 148.979 111.386   2
  -5   6  14 12.6663 20.2561   3
  -4   6  14-0.31137 20.4490   1
  -4  -6  14-37.0546 47.6951   2
  -4   6  14 21.5602 27.6467   3
  -3  -6  14 259.351 128.380   2
  -3   6  14 181.407 85.8616   1
  -3   6  14 257.888 86.6028   3
  -2  -6  14 209.879 106.557   2
  -2   6  14 161.806 75.6592   1
  -2   6  14 107.270 69.7345   3
  -1  -6  14 27.1335 38.5788   2
  -1   6  14 19.1207 25.7079   1
   1   6 -14-96.9442 77.5460   1
  -1   6  14 56.3863 42.3114   3
   0  -6  14 245.235 105.313   2
   0   6  14 146.900 66.6081   1
   0   6 -14 193.484 109.379   1
   0   6  14 163.884 75.9226   3
   1  -6  14 286.998 110.481   2
   1   6  14 322.938 93.8259   1
  -1   6 -14 227.139 141.392   1
   1   6  14 234.040 88.4943   3
   2  -6  14 63.8027 63.8449   2
   2   6  14 49.4022 34.4784   1
   2   6  14 16.7233 28.8884   3
  -2   6 -14 24.3344 68.7053   1
   3  -6  14 184.560 86.6995   2
  -3   6 -14 56.2554 68.1632   1
   3   6  14 98.7634 56.6412   3
  -4   6 -14 97.7227 78.9653   1
   4   6  14 6.98647 45.1025   3
  -5   6 -14 174.193 117.742   1
   5   6  14 45.7026 35.3182   3
   6   6  14 916.893 181.231   3
  -6   6 -14 718.980 220.511   1
  -7   6 -14 80.1688 91.3231   1
   7   6  14 252.445 94.2140   3
  -8   6 -14 153.050 99.3844   1
   8   6  14 97.3632 66.2902   3
  -9   6 -14 19.4446 47.1769   1
   9   6  14 21.0148 30.8707   3
 -10   6 -14 38.0027 57.7710   1
  10   6  14 70.1421 48.6211   3
 -11   6 -14-2.45607 60.0411   1
  11   6  14 18.7936 28.6936   3
 -12   6 -14-10.0277 29.4374   1
  12   6  14 10.1147 55.0415   3
 -13   6 -14-34.4582 51.4665   1
  13   6  14 51.0189 48.5103   3
 -14   7  14-43.0211 54.9414   1
 -13   7  14 31.3650 46.1361   1
 -12   7  14 71.3253 67.0777   1
 -12  -7  14-133.132 139.634   2
 -11  -7  14 73.3557 107.904   2
 -11   7  14 12.0075 60.6754   1
 -10  -7  14-37.3655 59.5733   2
 -10   7  14-87.2481 70.7365   1
 -10   7  14-29.4271 29.0493   3
  -9  -7  14-20.8043 84.2017   2
  -9   7  14-59.4258 57.6025   1
  -9   7  14 18.1824 17.7052   3
  -8  -7  14-106.438 86.0087   2
  -8   7  14 50.5440 52.3886   1
  -8   7  14 83.5259 49.2310   3
  -7  -7  14-1.44885 56.0648   2
  -7   7  14 216.704 102.684   1
  -7   7  14 120.588 58.4597   3
  -6   7  14 25.8475 35.7541   1
  -6   7  14 46.3585 37.3184   3
  -5  -7  14 1149.67 261.545   2
  -5   7  14 909.385 197.985   1
  -5   7  14 774.797 154.797   3
  -4  -7  14-27.7508 60.9493   2
  -4   7  14 29.0869 35.7857   1
  -4   7  14 142.715 62.2030   3
  -3  -7  14 142.094 118.439   2
  -3   7  14 93.4476 61.6273   1
  -3   7  14 81.9371 53.1805   3
  -2  -7  14 147.025 85.0372   2
  -2   7  14 154.518 74.3595   1
  -2   7  14 271.520 92.9759   3
  -1  -7  14 2.86472 30.4538   2
  -1   7  14 10.6416 18.7554   3
   0  -7  14 53.0154 54.3685   2
   0   7  14-64.8132 46.9977   3
   0   7 -14 26.9986 52.4318   1
   1  -7  14 139.142 81.7937   2
  -1   7 -14 90.9370 112.967   1
   2  -7  14 50.1457 68.9664   2
  -2   7 -14 78.8659 75.1339   1
   2   7  14 46.3579 49.6735   3
   3  -7  14 128.341 91.8214   2
  -3   7 -14 186.118 113.498   1
   3   7  14 20.3641 28.6297   3
  -4   7 -14 14.3764 60.2428   1
   4   7  14-19.0306 41.2621   3
   4  -7  14-21.3581 47.7355   2
  -5   7 -14 92.1670 81.3958   1
   5   7  14-42.1488 48.2645   3
  -6   7 -14 90.9207 80.7464   1
   6   7  14 57.7320 48.3460   3
   7   7  14 52.6929 48.7418   3
  -7   7 -14 88.9334 81.1847   1
   8   7  14 116.250 70.7757   3
  -8   7 -14 167.933 111.122   1
  -9   7 -14 52.2397 45.4987   1
 -11   8  14 111.338 82.2885   1
 -10   8  14 23.7902 38.3175   1
  -9   8  14-82.4843 68.0082   1
  -7   8  14 90.7232 60.0110   3
  -6  -8  14-2.22743 63.9484   2
  -6   8  14 35.6058 24.3461   3
  -5  -8  14 50.7866 71.1499   2
  -5   8  14 99.8639 59.2546   3
  -4  -8  14 106.477 106.673   2
  -4   8  14-27.3623 32.6213   3
  -3  -8  14 61.8949 57.4919   2
  -3   8  14 50.0421 69.2193   3
  -2  -8  14 9.77529 61.3231   2
  -2   8  14 31.9126 36.7124   3
  -1  -8  14-37.3439 47.9143   2
  -1   8  14 5.99439 18.7100   3
   0  -8  14 55.9585 55.2732   2
   0   8 -14-58.5126 66.1314   1
   0   8  14-17.7498 47.9309   3
   1  -8  14 272.356 115.206   2
  -1   8 -14 356.945 162.666   1
   1   8  14 346.370 124.577   3
   2  -8  14 421.885 148.264   2
  -2   8 -14 610.059 231.097   1
   2   8  14 346.405 124.541   3
   3  -8  14 100.810 77.2165   2
  -3   8 -14-51.1592 63.8262   1
   3   8  14 59.8228 48.5651   3
   4  -8  14 158.580 99.6333   2
  -4   8 -14-67.3548 73.1799   1
   5  -8  14 110.560 82.9873   2
 -24   0  15 28.6923 84.1138   1
 -23   0  15 220.626 196.571   2
 -22   0  15 72.2675 192.640   2
 -21   0  15 145.352 126.868   2
 -20   0  15 176.856 200.751   2
 -19   0  15 57.0157 85.5105   2
 -18   0  15-91.2165 119.187   2
 -17   0  15-172.674 222.160   2
 -16   0  15-126.794 131.775   2
 -15   0  15 25.2685 136.604   2
 -14   0  15 189.474 192.451   2
 -13   0  15 41.8772 130.255   2
 -12   0  15-98.8181 85.8674   2
 -11   0  15-18.6097 46.8554   2
 -10   0  15-88.0106 88.0137   2
  -9   0  15 184.770 126.973   2
  -8   0  15 162.470 140.539   2
  -7   0  15-320.072 142.686   2
  -6   0  15-69.3199 92.5292   2
  -5   0  15-72.2634 76.7872   2
  -4   0  15-133.665 82.1132   2
  -3   0  15-43.9609 66.8920   2
  -2   0  15-9.37183 31.9182   2
  -1   0  15 112.948 86.9369   2
   0   0  15 303.467 120.403   2
   1   0  15 49.7636 46.4560   2
   2   0  15-29.6037 36.6170   2
   3   0  15 51.4318 34.0353   2
   4   0  15 28.5332 49.9765   2
   5   0  15 3.94131 26.4965   2
   6   0  15-0.93859 22.9110   2
   7   0  15 22.4755 29.9849   2
   8   0  15 5.13443 29.9690   2
  -8   0 -15-8.92432 53.0523   1
   9   0  15 4.75714 12.5564   2
  -9   0 -15-23.9051 32.9513   1
 -10   0 -15 51.4411 60.4752   1
 -11   0 -15-16.1855 15.1418   1
 -12   0 -15 14.1053 29.9703   1
 -13   0 -15-7.53496 31.9272   1
 -14   0 -15 27.2487 33.1871   1
  14   0  15 11.3816 30.2738   3
 -15   0 -15 44.8048 16.0481   1
  15   0  15 77.7968 50.3284   3
 -16   0 -15-66.3505 57.6294   1
  16   0  15 43.0613 39.7846   3
 -17   0 -15 6.73886 21.0490   1
  17   0  15-14.9934 29.7784   3
  18   0  15-101.257 53.6295   3
 -18   0 -15 151.699 90.2293   1
  19   0  15-33.6500 46.4910   3
 -19   0 -15-17.9491 24.1498   1
  20   0  15-11.5417 11.0682   3
 -20   0 -15 916.837 255.705   1
 -21   0 -15-18.1403 34.7119   1
 -25  -1  15 92.3540 85.3806   1
 -24  -1  15-263.465 216.419   2
 -23   1  15-43.2708 59.0711   1
 -23  -1  15 183.277 182.104   2
 -22  -1  15 170.716 113.088   2
 -22   1  15 303.911 221.765   2
 -22   1  15 151.748 105.315   1
 -21  -1  15-80.2800 119.020   2
 -21   1  15 19.7252 103.746   2
 -20  -1  15-124.442 196.243   2
 -20   1  15 68.9381 46.3139   2
 -19  -1  15 324.353 194.247   2
 -19   1  15 296.132 211.303   2
 -18  -1  15 165.052 170.210   2
 -18   1  15 6.22686 40.9246   2
 -17  -1  15 65.5212 108.393   2
 -17   1  15 174.840 157.867   2
 -16  -1  15-221.766 170.467   2
 -16   1  15 75.0984 103.459   2
 -15  -1  15 23.2589 92.6607   2
 -15   1  15-103.560 141.963   2
 -14  -1  15 143.407 124.459   2
 -14   1  15 347.229 224.271   2
 -13  -1  15 4.26915 57.7031   2
 -13   1  15-18.9307 55.1126   2
 -12  -1  15 48.9455 70.7899   2
 -12   1  15 58.9926 62.2383   2
 -11  -1  15 255.255 154.709   2
 -11   1  15 268.353 190.060   2
 -10  -1  15 134.692 138.266   2
 -10   1  15 112.683 129.673   2
  -9  -1  15-4.02380 109.929   2
  -9   1  15 111.645 123.347   2
  -8  -1  15 1249.43 373.826   2
  -8   1  15 784.297 251.146   2
  -7  -1  15 869.574 226.937   2
  -7   1  15 1220.79 306.783   2
  -6  -1  15 403.123 153.121   2
  -6   1  15 503.582 208.625   2
  -5  -1  15 23.9926 26.3045   2
  -5   1  15 61.3103 67.1620   2
  -4  -1  15 527.378 158.661   2
  -4   1  15 434.329 156.831   2
  -3  -1  15 395.333 141.424   2
  -3   1  15 375.747 137.345   2
  -2  -1  15 443.066 140.169   2
  -2   1  15 347.068 130.544   2
  -1   1  15 1836.92 285.946   2
  -1  -1  15 1787.24 257.989   2
   0   1  15 1368.73 238.693   2
   0  -1  15 1222.59 204.132   2
   1  -1  15 44.5094 48.9996   2
   1   1  15-10.2404 33.0132   2
   2  -1  15 8.09738 32.7164   2
   2   1  15 65.8256 72.6014   2
   2   1  15 1.50491 21.3958   1
   3  -1  15 15.7147 18.1991   2
   3   1  15 64.0527 68.0059   2
   3   1  15-30.0508 32.6192   1
   4  -1  15-43.7840 46.5897   2
   4   1  15-50.3352 43.1007   2
   4   1  15 42.8021 38.5074   1
   5  -1  15 27.6108 48.5786   2
   5   1  15 6.57149 28.8457   2
  -5   1 -15-43.8921 69.4406   1
   5   1  15-7.13293 16.8488   1
   6  -1  15 363.135 98.2026   2
   6   1  15 268.559 83.1771   2
  -6   1 -15 345.739 138.817   1
   6   1  15 226.002 90.5923   1
   7  -1  15 2.35139 24.1059   2
   7   1  15 36.4446 11.0815   2
   7   1  15 16.7791 24.5748   1
  -7   1 -15-17.1516 30.1836   1
   8   1  15 109.327 59.2634   2
  -8   1 -15 116.855 77.1874   1
   9   1  15 31.5050 39.8208   2
  -9   1 -15-15.9159 39.0416   1
  10   1  15 138.681 61.0464   2
 -10   1 -15 187.343 92.1829   1
  11   1  15 27.6061 36.8703   2
 -11   1 -15 14.8339 22.0106   1
  12   1  15 107.176 59.0896   2
 -12   1 -15 30.6258 58.1358   1
  12   1  15 131.719 67.5744   3
 -13  -1 -15 9.22670 19.5218   1
  13   1  15 6.07358 13.9922   3
  13   1  15 48.8557 34.1698   2
 -13   1 -15-29.2392 68.9258   1
 -14  -1 -15-14.4666 26.9525   1
 -14   1 -15-40.1029 46.1472   1
  14   1  15 67.9651 48.0802   3
 -15  -1 -15 187.215 89.5034   1
 -15   1 -15 203.207 114.355   1
  15   1  15 254.926 87.5873   3
 -16  -1 -15 41.3827 43.1652   1
 -16   1 -15-41.1298 48.1378   1
  16   1  15 27.9321 13.7624   3
  16  -1  15 103.876 61.0845   3
 -17  -1 -15 3.81067 16.0963   1
 -17   1 -15 42.4409 49.8009   1
  17   1  15 58.4080 57.3018   3
  17  -1  15-16.5501 21.7612   3
 -18   1 -15 32.8871 63.3557   1
 -18  -1 -15-3.92172 17.1279   1
  18   1  15 11.9621 34.1276   3
  18  -1  15-7.42725 26.6774   3
 -19   1 -15 69.7997 49.6925   1
 -19  -1 -15 50.7802 50.1223   1
  19   1  15-47.4496 38.7864   3
 -20   1 -15 12.6996 30.5001   1
  20   1  15 39.8249 41.5379   3
 -21   1 -15 25.5011 41.5808   1
  21   1  15-46.7193 39.9461   3
 -22   1 -15 19.6763 38.7666   1
 -23   1 -15 47.4476 58.1040   1
 -24  -2  15 314.373 236.276   2
 -23  -2  15-7.31872 55.6589   2
 -22   2  15 83.4704 79.9649   1
 -22  -2  15 120.051 146.247   2
 -22   2  15 11.1673 54.0201   2
 -21   2  15 179.064 113.867   1
 -21  -2  15-64.0131 110.122   2
 -20  -2  15 363.918 254.862   2
 -20   2  15 332.669 155.721   2
 -20   2  15 274.989 141.577   1
 -19  -2  15 96.7418 176.319   2
 -19   2  15 230.258 186.621   2
 -18  -2  15 216.344 192.717   2
 -18   2  15 468.119 275.974   2
 -17  -2  15-144.984 142.386   2
 -17   2  15-48.5857 87.1196   2
 -16  -2  15 88.2344 72.1986   2
 -16   2  15 24.3414 64.6669   2
 -15  -2  15-418.174 218.295   2
 -15   2  15 90.7381 171.551   2
 -14  -2  15 41.1327 130.073   2
 -14   2  15 483.989 245.516   2
 -13  -2  15 234.047 187.808   2
 -13   2  15 209.795 159.376   2
 -12  -2  15 50.7912 68.1688   2
 -12   2  15-221.060 160.436   2
 -11  -2  15 91.1579 51.1222   2
 -11   2  15 72.6079 121.384   2
 -10  -2  15 126.544 79.1080   2
 -10   2  15 437.814 212.409   2
  -9  -2  15-39.4985 106.243   2
  -9   2  15-18.1633 111.135   2
  -8  -2  15-73.1445 102.199   2
  -8   2  15-112.564 103.507   2
  -7  -2  15 94.8840 64.6702   2
  -7   2  15 171.843 163.401   2
  -6  -2  15 3106.70 409.550   2
  -6   2  15 3374.96 522.501   2
  -5  -2  15 571.025 172.662   2
  -5   2  15 691.371 222.069   2
  -4  -2  15 901.184 205.118   2
  -4   2  15 894.001 256.936   2
  -3   2  15 992.202 246.349   2
  -3  -2  15 1180.44 231.633   2
  -2  -2  15 939.314 198.136   2
  -2   2  15 673.940 193.882   2
   1  -2 -15 27.1527 26.7207   2
  -1  -2  15 101.424 47.7089   2
  -1   2  15-42.5196 92.6549   2
   0   2  15 583.046 148.568   1
   0  -2  15 541.442 138.164   2
   0   2  15 382.684 142.447   2
   0  -2 -15 553.461 109.343   2
   1  -2  15 4.77191 15.1929   2
   1   2  15 6.53975 53.0903   2
   1   2  15 91.7986 60.0017   1
   2  -2  15 645.750 147.912   2
   2   2  15 415.505 139.260   2
   2   2  15 596.791 146.057   1
   3  -2  15 284.335 91.6055   2
   3   2  15 230.961 95.1846   2
  -3   2 -15 183.930 83.1134   1
   3   2  15 273.563 94.9616   1
   4  -2  15 97.8517 57.5429   2
   4   2  15 59.3419 58.1480   2
  -4   2 -15 69.3013 66.3807   1
   4   2  15 64.5548 45.7116   1
   5  -2  15 207.251 81.2052   2
   5   2  15 89.3241 57.9872   1
   5   2  15 154.762 81.8506   2
  -5   2 -15 114.310 67.0039   1
  -6   2 -15 279.130 116.476   1
   6   2  15 274.201 93.1445   2
   6   2  15 203.947 79.4081   1
   6  -2  15 221.264 80.5632   2
   7   2  15 659.814 142.930   2
  -7   2 -15 487.677 151.016   1
   7   2  15 586.505 139.017   1
   8   2  15 81.8480 40.6213   2
  -8   2 -15 85.7369 63.6667   1
   8   2  15 88.8440 52.0202   1
   9   2  15 90.7825 42.3161   2
  -9   2 -15 68.5338 49.4920   1
   9   2  15 99.2288 56.2617   1
  10   2  15 29.5816 34.2768   2
  10   2  15 15.4161 22.3059   1
  10   2  15 104.077 58.8332   3
  11   2  15 101.364 53.0012   1
 -11   2 -15 172.784 88.7431   1
  11   2  15 186.396 74.4920   3
  12   2  15 133.954 55.1904   2
 -12   2 -15 157.257 79.3206   1
  12   2  15 72.2145 50.3925   3
  13   2  15-9.62201 18.8935   2
 -13   2 -15 0.83358 48.7244   1
  13   2  15 3.00514 23.9174   3
  14   2  15-27.6841 28.6821   2
 -14   2 -15 26.8870 15.9057   1
  14   2  15 19.6645 19.8630   3
  15   2  15 30.8878 27.2456   2
 -15   2 -15-17.7066 37.2556   1
  15   2  15 20.5592 23.1245   3
  16   2  15-10.9663 36.8352   2
 -16   2 -15-46.8573 53.0515   1
  16   2  15 24.3694 33.4300   3
  17   2  15 118.180 60.0646   2
 -17   2 -15 18.0246 63.2200   1
  17   2  15 69.6816 52.6931   3
  17  -2  15 88.5915 47.3764   3
  18   2  15 178.683 66.9248   2
 -18   2 -15 133.388 88.9257   1
  18   2  15 148.706 68.2565   3
 -19   2 -15-71.7520 67.9866   1
  19   2  15 45.0691 39.3793   3
 -20   2 -15 185.918 94.7250   1
  20   2  15 75.0161 52.3941   3
 -21   2 -15 146.659 99.8572   1
  21   2  15-28.8073 25.6811   3
 -22   2 -15 65.4878 68.6626   1
  22   2  15 1.52725 22.3906   3
 -23   2 -15 50.6824 40.2531   1
  23   2  15 81.4249 57.9564   3
 -24  -3  15-255.580 215.088   2
 -23  -3  15 593.554 318.548   2
 -22  -3  15-33.3816 85.0107   2
 -21   3  15-5.04513 75.8997   1
 -21  -3  15-178.489 173.095   2
 -21   3  15-72.5577 112.440   2
 -20   3  15 1056.34 276.225   1
 -20  -3  15 1027.69 387.096   2
 -20   3  15 862.903 380.572   2
 -19   3  15 60.3369 65.8343   1
 -19  -3  15-294.860 210.268   2
 -19   3  15 75.3400 162.942   2
 -18  -3  15-267.660 194.990   2
 -18   3  15 42.6844 122.998   2
 -17  -3  15-114.594 125.648   2
 -17   3  15-186.216 160.733   2
 -17   3  15 72.4980 68.9121   1
 -16  -3  15 275.317 193.415   2
 -16   3  15 360.410 220.433   2
 -15  -3  15-25.2612 71.8553   2
 -15   3  15 369.260 218.369   2
 -14  -3  15 115.091 60.4973   2
 -14   3  15 201.644 194.888   2
 -13  -3  15 145.520 119.850   2
 -13   3  15 14.7570 50.1610   2
 -12  -3  15 174.668 85.5825   2
 -12   3  15 341.438 199.670   2
 -11  -3  15 611.755 230.599   2
 -11   3  15 471.951 259.911   2
 -10  -3  15 1686.93 348.055   2
 -10   3  15 2090.46 479.727   2
  -9  -3  15 434.099 158.852   2
  -9   3  15 746.858 286.376   2
  -8  -3  15 318.277 141.382   2
  -8   3  15 193.591 147.685   2
  -7  -3  15 474.905 168.791   2
  -7   3  15 338.755 140.330   2
  -6  -3  15 2897.23 392.574   2
  -6   3  15 2732.85 496.988   2
  -5  -3  15 1789.89 296.896   2
  -5   3  15 1994.78 417.668   2
  -4   3  15 1423.38 339.033   2
  -4  -3  15 1594.84 272.029   2
  -3   3  15 1422.81 326.482   2
  -3  -3  15 1370.50 243.512   2
  -2   3  15 2608.08 421.787   2
  -2  -3  15 2286.50 302.467   2
  -1   3  15 1242.23 277.387   2
   1  -3 -15 1132.31 159.214   2
  -1  -3  15 1483.54 237.620   2
   0  -3 -15 21.0632 19.9008   2
   0  -3  15 65.7660 55.0558   2
   0   3  15-27.4287 50.0220   2
   1  -3  15 297.799 97.3204   2
   1   3  15 428.687 121.981   1
   1   3  15 593.409 185.592   2
   2  -3  15 709.963 156.309   2
  -2   3 -15 771.496 199.856   1
   2   3  15 881.522 205.233   2
   2   3  15 720.123 159.469   1
   3  -3  15 214.182 79.4181   2
   3   3  15 219.898 80.5320   1
   3   3  15 125.402 79.2717   2
  -3   3 -15 243.754 114.692   1
   4  -3  15 216.271 92.5875   2
  -4   3 -15 257.878 112.354   1
   4   3  15 123.907 49.4715   2
   4   3  15 210.288 80.1671   1
  -5   3 -15 62.9449 48.3816   1
   5  -3  15 41.0614 41.9319   2
   6   3  15 94.6138 51.7589   1
  -6   3 -15 208.949 110.369   1
  -7   3 -15 485.938 163.260   1
   7   3  15 578.135 127.820   1
   7   3  15 575.863 133.488   3
  -8   3 -15 28.1044 39.9097   1
   8   3  15 93.0893 49.8981   1
   8   3  15 174.458 71.5383   3
   9   3  15 29.2658 27.6891   1
  -9   3 -15 32.6701 31.7029   1
   9   3  15 71.0521 47.9789   3
 -10   3 -15 350.131 136.713   1
  10   3  15 307.102 101.058   3
 -11   3 -15 62.2259 60.0229   1
  11   3  15 209.635 83.0909   3
  12   3  15-11.4055 18.4254   2
 -12   3 -15 63.7780 26.2921   1
  12   3  15 20.9752 41.7497   3
  13   3  15 44.4995 37.8366   2
 -13   3 -15-8.40283 41.2705   1
  13   3  15 7.58753 37.0753   3
 -14   3 -15 143.854 103.199   1
  14   3  15 129.840 79.0900   3
 -15   3 -15 114.271 98.5995   1
  15   3  15-3.10314 41.9843   3
 -16   3 -15 1163.25 267.521   1
  16   3  15 824.093 175.033   3
 -17   3 -15 99.3991 70.0618   1
  17   3  15 81.9797 55.8403   3
 -18   3 -15 68.2166 82.3166   1
  18   3  15 18.2346 12.8673   3
 -19   3 -15 220.821 135.180   1
  19   3  15 187.510 87.1823   3
 -20   3 -15 38.9691 54.2470   1
  20   3  15 153.502 82.3110   3
 -21   3 -15 93.1448 83.2852   1
  21   3  15 35.6184 40.2275   3
  22   3  15 52.9513 49.2651   3
 -23  -4  15 343.212 241.980   2
 -22  -4  15 17.9266 129.462   2
 -21  -4  15 353.858 256.929   2
 -20  -4  15 28.7466 74.6182   2
 -20   4  15 28.1385 73.4690   2
 -19   4  15 46.8266 60.0788   1
 -19  -4  15 27.9070 159.021   2
 -19   4  15-278.829 207.208   2
 -18   4  15 460.735 179.816   1
 -18  -4  15 330.336 207.852   2
 -18   4  15 247.500 190.838   2
 -17   4  15 27.9718 44.8561   1
 -17  -4  15 235.399 175.833   2
 -17   4  15 277.112 196.338   2
 -16   4  15 312.997 146.129   1
 -16  -4  15 298.768 225.700   2
 -16   4  15 366.846 207.865   2
 -15   4  15 41.7574 51.7741   1
 -15  -4  15-51.3511 51.6095   2
 -14   4  15 194.529 103.301   1
 -14  -4  15 303.985 203.106   2
 -14   4  15 160.242 141.031   2
 -13  -4  15 341.147 196.150   2
 -13   4  15 141.781 92.7842   2
 -13   4  15 281.710 130.971   1
 -12  -4  15-24.0707 125.750   2
 -12   4  15 157.956 134.522   2
 -11  -4  15-104.645 92.1701   2
 -11   4  15 97.7597 125.968   2
 -10  -4  15 153.205 91.4869   2
 -10   4  15 4.17408 31.5499   2
  -9  -4  15 124.876 98.0819   2
  -9   4  15-42.2988 69.4901   2
  -8  -4  15-59.5144 84.2525   2
  -8   4  15 33.4250 61.2875   2
  -7  -4  15 34.8061 65.0332   2
  -7   4  15 196.417 137.436   2
  -6  -4  15 198.740 114.849   2
  -6   4  15 287.123 161.607   2
  -5  -4  15 161.882 96.0678   2
  -5   4  15 246.367 239.998   2
  -4  -4  15 87.7439 65.0194   2
  -4   4  15 449.961 205.423   2
  -3  -4  15 56.9461 50.5564   2
  -3   4  15 35.9597 27.2706   2
  -2  -4  15-47.1965 31.1590   2
  -2   4  15-63.9232 70.6015   2
   1  -4 -15-28.0363 26.6303   2
  -1  -4  15-15.7431 22.1043   2
  -1   4  15 42.4713 28.9963   2
   0  -4 -15 29.8402 17.8017   2
   0  -4  15 115.534 69.9692   2
   0   4  15 201.324 106.501   2
   1  -4  15 83.6009 64.0332   2
  -1   4 -15 84.5664 56.1004   1
   1   4  15 29.2609 45.2006   2
  -1  -4 -15 104.688 44.9411   2
   2  -4  15 57.4826 38.4072   2
   2   4  15 17.0220 25.0168   1
  -2   4 -15-6.47930 22.1219   1
   3  -4  15 111.346 66.7112   2
  -3   4 -15 48.0310 64.8882   1
   3   4  15 45.8647 38.3374   1
   3   4  15 94.9226 71.9327   3
   4  -4  15 102.473 58.2290   2
  -4   4 -15 109.731 78.5130   1
   4   4  15 125.030 60.6807   1
   4   4  15 138.760 71.2061   3
   5   4  15 48.6536 36.6299   1
  -5   4 -15 74.3878 74.8774   1
   5   4  15 159.711 76.9629   3
   6   4  15 94.1926 49.2170   1
  -6   4 -15-12.3039 38.3678   1
   6   4  15 11.6299 17.0688   3
  -7   4 -15 49.8563 53.9672   1
   7   4  15 32.4290 53.9357   3
   8   4  15 157.323 83.3909   2
   8   4  15 52.9606 35.7773   3
  -8   4 -15 102.719 77.3562   1
   9   4  15 85.6245 52.3589   2
  -9   4 -15 26.5684 41.0349   1
   9   4  15-20.2140 22.1785   3
 -10   4 -15 348.860 145.652   1
  10   4  15 373.613 116.404   3
 -11   4 -15 65.6810 76.3353   1
  11   4  15 33.9249 26.4936   3
 -12   4 -15 70.9044 67.2303   1
  12   4  15 70.0905 15.1877   3
 -13   4 -15-3.72143 19.6536   1
  13   4  15 66.7175 58.8967   3
 -14   4 -15 189.808 110.622   1
  14   4  15 337.007 115.852   3
 -15   4 -15 788.782 235.377   1
  15   4  15 655.790 157.253   3
 -16   4 -15 215.011 119.912   1
  16   4  15 108.021 77.1596   3
 -17   4 -15 298.442 150.882   1
  17   4  15 217.840 101.780   3
 -18   4 -15 29.6066 47.9654   1
  18   4  15-22.5922 32.7847   3
  19   4  15 81.0589 58.2729   3
 -20  -5  15-173.524 168.068   2
 -19  -5  15-108.656 132.487   2
 -18   5  15 140.047 102.718   1
 -18  -5  15-97.0975 121.377   2
 -17   5  15-90.9528 81.5699   1
 -17  -5  15 124.864 129.615   2
 -16   5  15 76.6059 73.4830   1
 -16  -5  15-193.723 152.208   2
 -16   5  15-96.7806 119.981   2
 -15   5  15 782.919 232.440   1
 -15  -5  15 821.601 274.811   2
 -15   5  15 718.294 308.632   2
 -14   5  15 28.5389 35.4410   1
 -14   5  15-100.730 115.728   2
 -13   5  15 321.617 138.887   1
 -13  -5  15 403.490 213.554   2
 -13   5  15 289.779 187.435   2
 -12   5  15 113.434 73.3661   1
 -12  -5  15 54.1987 65.0725   2
 -12   5  15 147.969 53.8290   2
 -11   5  15 48.3170 52.6355   1
 -11  -5  15 8.12754 53.8192   2
 -11   5  15-111.926 111.780   2
 -10   5  15 167.832 102.355   1
 -10  -5  15 67.0911 96.1602   2
 -10   5  15 6.00109 34.3435   2
  -9   5  15 52.6634 37.9891   1
  -9  -5  15 126.317 87.0439   2
  -9   5  15 46.9051 32.7356   2
  -8   5  15 103.995 70.9660   1
  -8  -5  15 50.2918 93.5897   2
  -8   5  15 13.1263 52.4853   2
  -7  -5  15-33.4461 35.6174   2
  -7   5  15 43.9809 45.6662   1
  -6  -5  15 172.273 121.728   2
  -6   5  15 120.904 151.128   2
  -5  -5  15-12.0382 60.5010   2
  -5   5  15 85.5378 85.7112   2
  -4  -5  15 95.3935 77.2323   2
  -4   5  15 191.924 122.895   2
  -4   5  15 89.3758 59.7300   3
  -3  -5  15 183.333 85.5413   2
  -3   5  15 153.932 132.454   2
  -3   5  15 211.521 82.1260   3
  -2  -5  15 130.066 82.6485   2
  -2   5  15 143.954 120.686   2
  -2   5  15 177.709 75.1924   3
  -1  -5  15 14.0645 54.2906   2
  -1   5  15-101.396 83.5702   2
  -1   5  15 34.8411 30.0800   3
   0  -5  15 86.4477 68.0077   2
   0   5 -15 368.495 157.056   1
   0   5  15 47.0041 56.0045   2
   0   5  15 137.022 67.6612   3
   1  -5  15 833.996 185.228   2
  -1   5 -15 1059.49 258.595   1
   1   5  15 965.945 232.805   2
   1   5  15 864.238 164.255   3
   2  -5  15-31.5943 23.4946   2
  -2   5 -15 22.6384 32.7458   1
   2   5  15 14.8598 47.1139   3
   3  -5  15 212.037 92.0980   2
  -3   5 -15 247.862 127.088   1
   3   5  15 229.001 84.7713   3
  -4   5 -15 66.0484 56.7937   1
   4   5  15 29.7020 15.5960   3
   4  -5  15 112.570 76.4268   2
  -5   5 -15 110.210 82.2507   1
   5   5  15 64.1856 51.0422   2
   5   5  15-2.75121 22.0186   3
  -6   5 -15 155.948 98.1472   1
   6   5  15 38.6719 18.1725   3
  -7   5 -15 262.451 138.461   1
   7   5  15 251.571 99.6589   3
   8   5  15-16.5128 14.9743   3
  -8   5 -15-71.0370 67.6042   1
  -9   5 -15-37.4905 50.2725   1
   9   5  15 18.8091 27.8233   3
 -10   5 -15-17.6824 36.4021   1
  10   5  15 85.8505 63.9353   3
 -11   5 -15-95.6925 80.4177   1
  11   5  15 61.7020 64.6518   3
 -12   5 -15 30.6347 64.8882   1
  12   5  15 70.0475 49.1674   3
 -13   5 -15-39.7094 53.9041   1
  13   5  15 6.95147 15.0453   3
 -14   5 -15-17.5116 37.1694   1
  14   5  15 35.6161 66.0486   3
 -15   5 -15-16.2180 37.2365   1
  15   5  15 9.19024 66.4176   3
  16   5  15 148.600 94.8052   3
 -16   6  15 10.1089 45.1505   1
 -16  -6  15 60.0538 90.3559   2
 -15   6  15 149.068 101.982   1
 -15  -6  15-35.6695 68.9912   2
 -14   6  15-49.1495 58.6311   1
 -14  -6  15-458.707 216.272   2
 -13   6  15 33.0930 25.0884   1
 -13  -6  15 60.4139 71.8665   2
 -12   6  15 52.3072 55.8543   1
 -12  -6  15 187.284 131.691   2
 -12   6  15 100.708 55.1522   3
 -11   6  15-17.6319 35.9446   1
 -11   6  15-22.6817 26.4104   3
 -10   6  15-89.8959 71.5937   1
 -10  -6  15 24.2430 66.5773   2
 -10   6  15 17.7967 23.6414   3
  -9   6  15-135.629 85.5379   1
  -9  -6  15 11.5721 81.9117   2
  -9   6  15 31.1016 30.5669   3
  -8   6  15-72.4444 61.7619   1
  -8  -6  15 70.1457 78.1828   2
  -8   6  15 46.0609 33.2541   3
  -7   6  15-7.43447 21.6922   1
  -7  -6  15-19.2249 63.5862   2
  -7   6  15 32.3899 52.5233   3
  -6   6  15 142.018 82.2183   1
  -6  -6  15 142.402 88.2826   2
  -6   6  15 44.6056 30.9060   3
  -5   6  15-15.8888 38.7200   1
  -5  -6  15 88.2442 95.0970   2
  -5   6  15 30.7214 45.7887   3
  -4   6  15 127.523 73.3598   1
  -4  -6  15 122.224 86.0653   2
  -4   6  15 168.130 75.9277   3
  -3   6  15-0.15478 8.87630   1
  -3  -6  15 31.4304 47.4833   2
  -3   6  15-31.3427 32.6831   3
  -2   6  15-36.7588 45.5943   1
  -2  -6  15 55.2529 57.6170   2
  -2   6  15 17.0604 31.4849   3
  -1  -6  15 13.7284 26.9814   2
  -1   6  15 136.571 59.3890   1
  -1   6  15 41.9742 36.9830   3
   0  -6  15 358.287 129.244   2
   0   6  15 430.692 118.285   1
   0   6 -15 422.756 177.807   1
   0   6  15 480.805 127.584   3
   1  -6  15 32.1235 52.9445   2
   1   6  15 28.1351 29.5715   1
  -1   6 -15 31.8566 46.3687   1
   1   6  15 47.3442 42.3295   3
   2  -6  15 223.956 106.132   2
   2   6  15 205.571 76.1805   1
  -2   6 -15 174.709 112.154   1
   2   6  15 197.423 83.4022   3
  -3   6 -15-26.7458 43.6667   1
   3  -6  15 48.9714 42.3424   2
   3   6  15 4.24738 37.9563   3
   4  -6  15 278.517 118.883   2
  -4   6 -15 196.690 114.486   1
   4   6  15 151.969 68.2388   3
  -5   6 -15 513.068 186.172   1
   5   6  15 491.738 136.715   3
  -6   6 -15 20.6808 70.3192   1
   6   6  15 22.8305 28.2075   3
  -7   6 -15 120.887 100.015   1
   7   6  15 176.954 126.726   3
   8   6  15 11.8673 18.9806   3
  -8   6 -15 72.3104 71.8997   1
  -9   6 -15 450.603 180.453   1
   9   6  15 468.459 133.873   3
 -10   6 -15 41.9089 58.3155   1
  10   6  15 19.0554 34.9997   3
 -11   6 -15-79.3734 76.9864   1
  11   6  15 6.63532 30.5650   3
 -12   6 -15-75.6304 75.7875   1
  12   6  15 51.5024 49.6459   3
 -13   7  15 76.5365 72.0061   1
 -12   7  15 92.1566 77.8387   1
 -12  -7  15-127.961 157.794   2
 -11   7  15 46.1866 54.0061   1
 -11  -7  15-64.9521 78.5575   2
 -10  -7  15 205.772 129.987   2
 -10   7  15 60.6902 66.1343   1
 -10   7  15 101.968 54.6867   3
  -9   7  15 152.570 92.2548   1
  -9   7  15 95.3344 40.7383   3
  -8  -7  15 12.8622 98.4403   2
  -8   7  15 85.4279 67.9559   1
  -8   7  15 43.8542 37.4428   3
  -7  -7  15 40.7114 56.6712   2
  -7   7  15 190.130 93.3656   1
  -7   7  15 72.9097 50.7522   3
  -6   7  15-76.7710 61.2740   1
  -6   7  15 0.37249 16.2421   3
  -5  -7  15 83.2365 72.3707   2
  -5   7  15-48.9481 48.1677   1
  -5   7  15-2.15594 11.9464   3
  -4  -7  15-9.75102 67.7860   2
  -4   7  15 7.70395 19.7756   1
  -4   7  15 95.8349 58.6634   3
  -3  -7  15 110.687 77.0830   2
  -3   7  15 50.5773 42.1726   1
  -3   7  15 27.1461 51.4173   3
  -2  -7  15 43.7250 88.9113   2
  -2   7  15 33.6174 12.9490   3
  -1  -7  15-74.4297 76.9043   2
  -1   7  15-28.3317 32.3954   3
   0  -7  15 21.7295 24.1791   2
   0   7 -15 68.5437 68.3207   1
   0   7  15 39.3363 36.2224   3
   1  -7  15 147.643 89.1407   2
  -1   7 -15 175.139 112.460   1
   1   7  15 94.9300 57.2284   3
   2  -7  15-12.4163 24.5578   2
   2   7  15 29.6180 33.9544   3
   3  -7  15 38.1555 55.4780   2
  -3   7 -15 39.5175 55.1545   1
   3   7  15 40.5287 39.4805   3
   4  -7  15 348.571 127.881   2
  -4   7 -15 443.198 199.761   1
   4   7  15 280.296 105.318   3
  -5   7 -15 294.149 173.427   1
   5   7  15 469.979 136.462   3
   5  -7  15 544.308 164.462   2
  -6   7 -15 236.580 159.784   1
   6   7  15 0.95228 27.3076   3
  -7   7 -15 19.2598 40.7807   1
   7   7  15-64.4584 52.9930   3
  -6  -8  15 29.1637 50.7794   2
  -6   8  15 40.6583 38.5233   3
  -5  -8  15 102.964 80.3274   2
  -5   8  15 49.4580 43.1064   3
  -4  -8  15 36.6953 45.8166   2
  -4   8  15 17.2999 26.6217   3
  -3  -8  15-11.0572 92.4477   2
  -3   8  15 0.73130 25.4530   3
  -2  -8  15 23.6952 42.7434   2
  -2   8  15 179.142 78.5839   3
  -1  -8  15-40.2842 67.7509   2
  -1   8  15-36.2051 39.1693   3
   0  -8  15-57.6482 30.5535   2
   0   8  15 26.7393 41.3192   3
   1  -8  15 11.7096 32.3515   2
  -1   8 -15 105.375 91.4085   1
   2  -8  15 276.429 117.805   2
   3  -8  15-107.406 97.5608   2
 -23   0  16-80.6132 127.423   2
 -22   0  16 1390.24 509.564   2
 -21   0  16 220.952 195.601   2
 -20   0  16-5.69376 92.0846   2
 -19   0  16-191.217 175.495   2
 -18   0  16-17.0594 60.2376   2
 -17   0  16-25.4163 69.9758   2
 -16   0  16-57.9124 167.744   2
 -15   0  16-30.4857 108.356   2
 -14   0  16 306.173 222.325   2
 -13   0  16 98.5662 84.4085   2
 -12   0  16 72.8085 88.6931   2
 -11   0  16 6.32985 37.5452   2
 -10   0  16 172.100 137.929   2
  -9   0  16 1224.29 311.467   2
  -8   0  16 593.549 248.544   2
  -7   0  16-52.8651 100.933   2
  -6   0  16-252.614 126.224   2
  -5   0  16-44.3352 55.0926   2
  -4   0  16 29.0895 38.5249   2
  -3   0  16 1258.94 258.821   2
  -2   0  16 1897.02 303.290   2
  -1   0  16 3000.99 362.590   2
   0   0  16 1525.03 258.317   2
   1   0  16 1462.57 241.324   2
   2   0  16 107.536 70.4411   2
   3   0  16 148.939 71.9577   2
   4   0  16-3.90872 28.9797   2
   5   0  16 233.965 93.2826   2
   6   0  16 16.2402 19.7349   2
   7   0  16 210.588 83.9862   2
   8   0  16 234.321 86.9316   2
   9   0  16 618.878 134.867   2
  -9   0 -16 373.324 135.398   1
 -10   0 -16 1306.71 248.691   1
  10   0  16 1496.62 209.384   2
 -11   0 -16 1257.67 245.133   1
  11   0  16 1243.59 190.625   2
 -12   0 -16 56.6789 62.5275   1
 -13   0 -16 648.923 179.341   1
 -14   0 -16 897.361 207.900   1
 -15   0 -16 338.814 137.763   1
  15   0  16 509.873 123.939   3
 -16   0 -16 32.6747 37.8964   1
  16   0  16 117.162 61.8421   3
 -17   0 -16 108.910 74.8004   1
  17   0  16 118.408 61.5050   3
 -18   0 -16 301.560 129.509   1
  18   0  16 464.889 122.027   3
 -19   0 -16 583.071 178.829   1
  19   0  16 710.674 149.319   3
 -20   0 -16 159.943 95.5470   1
  20   0  16 135.430 63.8148   3
 -21   0 -16-44.5377 52.4594   1
 -23  -1  16 22.3725 81.1175   2
 -22  -1  16 419.856 278.035   2
 -22   1  16 570.363 339.656   2
 -21  -1  16 96.7616 181.433   2
 -21   1  16-66.6576 141.872   2
 -20  -1  16-285.844 217.724   2
 -20   1  16 244.551 199.567   2
 -19  -1  16 160.168 207.456   2
 -19   1  16 105.311 125.113   2
 -18  -1  16-48.7494 44.7295   2
 -18   1  16 133.715 143.849   2
 -17  -1  16-18.2626 161.472   2
 -17   1  16 18.2580 150.303   2
 -16  -1  16 34.1015 118.932   2
 -16   1  16 170.629 156.441   2
 -15  -1  16 277.358 162.385   2
 -15   1  16-188.852 162.079   2
 -14  -1  16 262.341 139.158   2
 -14   1  16 70.2538 41.8394   2
 -13  -1  16 36.7423 114.735   2
 -13   1  16-193.936 155.295   2
 -12  -1  16 34.4429 72.3702   2
 -12   1  16-4.44302 104.774   2
 -11  -1  16 210.571 134.228   2
 -11   1  16 94.3866 112.728   2
 -10  -1  16 120.024 94.0578   2
 -10   1  16 28.7637 41.3548   2
  -9  -1  16 1034.75 279.138   2
  -9   1  16 1644.05 397.151   2
  -8  -1  16-11.0454 78.9938   2
  -8   1  16 227.304 149.318   2
  -7  -1  16 420.755 168.309   2
  -7   1  16 340.989 193.746   2
  -6  -1  16 279.483 123.253   2
  -6   1  16 232.925 143.495   2
  -5  -1  16 110.401 82.2357   2
  -5   1  16 76.4828 49.0024   2
  -4  -1  16 381.171 145.943   2
  -4   1  16 292.387 115.035   2
  -3  -1  16 1448.06 263.348   2
  -3   1  16 1564.94 302.664   2
  -2  -1  16 273.070 114.621   2
  -2   1  16 153.253 81.6298   2
  -1  -1  16 165.196 89.1374   2
  -1   1  16-52.9898 74.4866   2
   0  -1  16 102.993 81.2653   2
   0   1  16-9.71353 44.3106   2
   1  -1  16 928.385 193.308   2
   1   1  16 1006.05 210.928   2
   2  -1  16 35.1736 49.2032   2
   2   1  16 182.864 96.5441   2
   3  -1  16-8.82546 21.7572   2
   3   1  16 2.66704 19.6829   2
   4  -1  16 74.6781 44.9504   2
   4   1  16 178.059 90.9852   2
   5  -1  16 125.961 77.2568   2
   5   1  16-0.38351 20.9522   2
   6  -1  16 63.4443 60.3750   2
   6   1  16 39.2300 37.8128   2
  -6   1 -16 88.8374 73.2690   1
   7  -1  16 2.56229 41.3308   2
   7   1  16 28.7681 36.8651   2
  -7   1 -16 58.9439 52.3271   1
   8  -1  16 76.7857 57.5478   2
   8   1  16 72.3218 47.9168   2
  -8   1 -16 46.6980 42.3734   1
   9   1  16 531.840 123.383   2
  -9   1 -16 563.551 165.857   1
   9  -1  16 571.445 130.708   2
  10   1  16 91.1112 51.9727   2
 -10   1 -16 55.5219 30.6356   1
  11   1  16 419.284 102.699   2
 -11   1 -16 477.990 160.474   1
  12   1  16 74.1532 50.1718   2
 -12   1 -16 89.6429 75.7737   1
  13   1  16 215.193 87.1029   2
 -13   1 -16 230.863 108.472   1
  13   1  16 159.570 74.4257   3
  14   1  16 34.8336 36.8330   2
 -14   1 -16-3.54924 18.8889   1
 -14  -1 -16 44.9693 40.4537   1
  14   1  16 97.1053 62.8967   3
 -15  -1 -16 109.875 66.8128   1
 -15   1 -16 76.9617 50.8494   1
  15   1  16-7.35378 27.3470   3
  15   1  16 60.3314 45.3326   2
 -16  -1 -16 70.1878 57.6956   1
  16   1  16 90.6188 50.5288   3
  16  -1  16 54.0911 39.1335   3
 -16   1 -16 60.4919 77.3809   1
  17   1  16 47.8832 33.1783   3
 -17   1 -16 15.8799 22.8985   1
  17  -1  16 83.4154 47.9765   3
 -17  -1 -16-6.27944 32.5137   1
 -18  -1 -16 33.3511 41.8737   1
 -18   1 -16 67.6852 75.2137   1
  18   1  16 51.4943 47.7393   3
  18  -1  16 49.3174 49.0779   3
 -19   1 -16 6.84235 24.3451   1
  19   1  16 54.7862 42.3722   3
 -20   1 -16 29.4030 60.9943   1
  20   1  16-5.35152 16.2926   3
 -21   1 -16 29.0313 46.9861   1
  21   1  16-15.0290 24.5144   3
 -22   1 -16 188.126 111.873   1
 -23   1 -16 151.725 103.286   1
 -23  -2  16 393.170 267.389   2
 -22  -2  16-399.533 265.113   2
 -21  -2  16-70.5265 116.536   2
 -21   2  16-19.0618 39.8588   1
 -20  -2  16 108.897 92.2154   2
 -20   2  16 356.822 238.815   2
 -19  -2  16 88.7372 124.635   2
 -19   2  16 345.908 251.551   2
 -18  -2  16 187.174 255.109   2
 -18   2  16-91.1006 121.557   2
 -17  -2  16-270.641 196.157   2
 -17   2  16-297.062 210.457   2
 -16  -2  16 29.5139 106.114   2
 -16   2  16-40.0342 81.2956   2
 -15  -2  16 277.124 182.024   2
 -15   2  16 40.5538 79.3516   2
 -14  -2  16 82.8019 136.236   2
 -14   2  16 192.275 203.732   2
 -13  -2  16 157.783 143.335   2
 -13   2  16 48.7127 83.4372   2
 -12  -2  16 253.712 166.368   2
 -12   2  16 121.281 78.3271   2
 -11  -2  16 59.1054 81.4650   2
 -11   2  16-25.9361 96.6943   2
 -10  -2  16 434.335 181.367   2
 -10   2  16 599.370 264.242   2
  -9  -2  16 27.1572 75.7011   2
  -9   2  16 39.3624 88.1578   2
  -8  -2  16-33.8382 105.438   2
  -8   2  16 58.7304 113.468   2
  -7  -2  16 978.781 244.233   2
  -7   2  16 1011.51 305.415   2
  -6  -2  16 218.210 125.485   2
  -6   2  16 50.2500 72.4865   2
  -5  -2  16 350.265 152.688   2
  -5   2  16 185.139 156.231   2
  -4  -2  16 1609.73 286.096   2
  -4   2  16 1865.08 360.577   2
  -3  -2  16 539.107 171.820   2
  -3   2  16 502.403 194.093   2
  -2  -2  16-15.3344 30.7833   2
  -2   2  16 73.5256 60.4562   2
  -1  -2  16-33.2073 36.1808   2
  -1   2  16-208.301 105.696   2
   0  -2  16 1170.32 211.446   2
   0   2  16 915.696 218.116   2
   1  -2  16 583.391 141.092   2
   1   2  16 531.341 163.459   2
   2  -2  16 280.423 106.238   2
   2   2  16 238.892 116.927   2
   3   2  16 1929.97 292.078   2
   3  -2  16 1931.34 258.086   2
   4  -2  16 26.4705 44.3949   2
   4   2  16-5.91291 17.6208   2
  -4   2 -16 25.7562 26.8236   1
   5  -2  16-0.49873 22.7494   2
   5   2  16-3.62135 12.7685   1
   5   2  16 37.7034 38.4311   2
  -5   2 -16-25.2129 53.2255   1
   6  -2  16 668.618 144.690   2
   6   2  16 694.986 153.583   2
  -6   2 -16 788.107 204.848   1
   6   2  16 619.398 145.662   1
   7   2  16 1118.23 194.373   2
  -7   2 -16 1283.84 259.975   1
   7   2  16 1244.77 205.101   1
   7  -2  16 1085.99 189.121   2
   8   2  16 57.7056 39.9684   2
   8   2  16 50.8275 40.9085   1
  -8   2 -16 198.714 94.0361   1
   9   2  16 8.59032 27.2571   2
   9   2  16 141.773 68.1361   1
  -9   2 -16 47.6792 42.1978   1
  10   2  16 141.591 69.0952   2
 -10   2 -16 77.4569 67.9363   1
  10   2  16 125.983 60.6746   3
  11   2  16 366.474 98.6091   2
 -11   2 -16 359.624 139.975   1
  11   2  16 314.576 100.331   3
 -12   2 -16-85.3905 66.9236   1
  12   2  16 7.96675 28.4153   2
  12   2  16-25.9301 27.7519   3
  13   2  16 53.4079 56.0448   2
  13   2  16 150.244 76.5088   3
 -13   2 -16 120.650 85.9963   1
  14   2  16-8.97169 22.8869   2
 -14   2 -16 41.0500 47.6351   1
  14   2  16-5.33079 14.4521   3
  15   2  16 90.7151 54.4575   2
 -15   2 -16 66.0889 57.7372   1
  15   2  16 100.502 53.5378   3
  16   2  16 89.1046 51.2169   2
 -16   2 -16 148.673 106.435   1
  16   2  16 181.361 79.5199   3
  17   2  16-1.26368 11.4545   2
 -17   2 -16 24.0933 43.2525   1
  17   2  16 76.2701 57.4199   3
 -18   2 -16 139.795 95.0746   1
  18   2  16 423.026 120.655   3
 -19   2 -16 111.202 89.5020   1
  19   2  16 42.7356 47.0831   3
 -20   2 -16 105.829 85.6524   1
  20   2  16 90.8425 58.5423   3
 -21   2 -16 151.819 103.457   1
  21   2  16 24.7688 32.5534   3
 -22   2 -16 35.3775 53.1162   1
  22   2  16-9.99709 35.4576   3
 -23  -3  16-147.001 168.589   2
 -22  -3  16-1.34915 52.3904   2
 -21  -3  16 667.619 334.036   2
 -20   3  16-56.9059 66.2389   1
 -20  -3  16-32.6201 83.4688   2
 -20   3  16-234.688 192.419   2
 -19   3  16 171.801 111.854   1
 -19  -3  16-3.00725 96.3894   2
 -19   3  16-47.6270 89.5978   2
 -18  -3  16 77.9125 115.078   2
 -18   3  16 163.380 134.612   2
 -18   3  16 177.800 94.3885   1
 -17  -3  16-106.427 124.715   2
 -17   3  16-294.403 207.006   2
 -16  -3  16 110.995 195.589   2
 -16   3  16 46.8157 87.2805   2
 -15  -3  16-20.5833 58.9887   2
 -15   3  16 30.8210 69.3488   2
 -14  -3  16 371.332 234.022   2
 -14   3  16 679.973 300.326   2
 -13  -3  16-7.40405 65.0237   2
 -13   3  16 154.826 188.806   2
 -12  -3  16 13.8719 72.6056   2
 -12   3  16 224.678 168.990   2
 -11  -3  16 32.4145 79.5438   2
 -11   3  16 346.086 185.252   2
 -10  -3  16 326.067 166.100   2
 -10   3  16 342.506 227.539   2
  -9  -3  16 524.385 192.766   2
  -9   3  16 801.060 298.717   2
  -8  -3  16 802.057 242.455   2
  -8   3  16 892.699 315.803   2
  -7  -3  16 56.0131 70.2501   2
  -7   3  16 44.5256 102.769   2
  -6  -3  16 501.850 163.805   2
  -6   3  16 509.640 232.435   2
  -5  -3  16 440.963 164.886   2
  -5   3  16 426.153 204.418   2
  -4  -3  16 802.933 201.964   2
  -4   3  16 724.192 250.611   2
  -3  -3  16 359.418 130.731   2
  -3   3  16 220.929 132.525   2
  -2  -3  16 7.36361 27.8839   2
  -2   3  16-43.7310 65.1030   2
  -1  -3  16 635.390 167.522   2
  -1   3  16 715.941 217.033   2
   0  -3  16 929.975 195.043   2
   0   3  16 946.476 244.879   2
   1  -3  16 74.7085 54.6823   2
   1   3  16 75.8395 65.9054   2
   2  -3  16 114.236 84.0317   2
   2   3  16 127.880 80.6408   2
   3   3  16 310.036 111.784   1
   3  -3  16 583.019 142.629   2
  -3   3 -16 623.502 194.282   1
   3   3  16 597.869 166.474   2
   4  -3  16 75.0882 60.6625   2
   4   3  16-17.5674 55.1219   2
   4   3  16 40.8488 37.6568   1
  -4   3 -16 122.635 79.3981   1
   5  -3  16 15.3115 37.5151   2
   5   3  16 99.9075 57.0326   1
   5   3  16-135.624 74.2128   2
  -5   3 -16 3.02846 26.7297   1
   6   3  16 193.302 92.7219   2
  -6   3 -16 160.858 109.163   1
   6  -3  16 165.076 80.8915   2
   6   3  16 176.042 74.5702   1
   7   3  16-44.3493 44.1391   2
  -7   3 -16 83.7330 69.3913   1
   7   3  16 48.3153 29.0896   1
   8   3  16 549.061 135.875   2
  -8   3 -16 591.835 181.914   1
   8   3  16 496.477 123.237   1
   8   3  16 696.313 156.558   3
  -9   3 -16-37.8385 41.4374   1
   9   3  16-3.73136 24.5886   2
   9   3  16 20.6679 44.4360   3
 -10   3 -16 63.2123 65.1751   1
  10   3  16 75.8837 58.4583   2
  10   3  16 55.1752 58.8743   3
  11   3  16 114.350 66.8857   2
  11   3  16 136.726 68.8656   3
 -11   3 -16-2.07629 54.0435   1
  12   3  16 24.0152 27.6675   2
 -12   3 -16 9.64017 57.6130   1
  12   3  16 41.7388 48.3958   3
  13   3  16 16.4419 22.8761   2
 -13   3 -16-17.5272 18.2378   1
  13   3  16-26.4994 36.3970   3
 -14   3 -16 52.4762 67.6579   1
  14   3  16-5.91123 22.5174   3
 -15   3 -16 45.6121 56.0446   1
  15   3  16 33.6949 52.2590   3
 -16   3 -16 78.1223 82.0930   1
  16   3  16 133.805 77.2918   3
 -17   3 -16 47.7314 56.4891   1
  17   3  16 33.5283 36.6321   3
 -18   3 -16 277.696 123.877   1
  18   3  16 231.907 93.0172   3
 -19   3 -16 88.3927 126.491   1
  19   3  16 32.0345 50.4888   3
 -20   3 -16-148.053 105.618   1
  20   3  16-10.9128 24.5852   3
  21   3  16 35.5241 47.5905   3
 -22  -4  16-572.077 315.453   2
 -21  -4  16 82.1982 87.8626   2
 -20  -4  16 231.516 299.481   2
 -19   4  16-4.16776 23.4142   1
 -19  -4  16 126.877 281.460   2
 -19   4  16 96.4496 127.484   2
 -18   4  16-53.1372 63.3021   1
 -18  -4  16 92.9027 184.193   2
 -18   4  16 176.386 232.481   2
 -17   4  16 243.849 136.407   1
 -17  -4  16 361.851 237.235   2
 -16   4  16 79.6802 74.0508   1
 -16  -4  16 190.268 170.709   2
 -15   4  16 84.3273 74.5388   1
 -15  -4  16 19.8193 139.729   2
 -15   4  16 10.2252 45.7290   2
 -14   4  16 44.1126 58.0889   2
 -14   4  16-8.90583 26.9215   1
 -13  -4  16 165.700 135.345   2
 -13   4  16-31.1740 67.8951   2
 -12  -4  16-61.4275 126.068   2
 -12   4  16 30.7590 74.4553   2
 -11  -4  16 266.102 219.381   2
 -11   4  16 9.63916 43.2975   2
 -10  -4  16-40.7172 36.6096   2
 -10   4  16 141.223 128.479   2
  -9  -4  16 55.9499 86.1161   2
  -9   4  16-36.5172 113.975   2
  -8  -4  16 135.431 108.846   2
  -8   4  16 281.953 230.250   2
  -7  -4  16 269.517 126.075   2
  -7   4  16 487.980 221.393   2
  -6  -4  16 54.6271 99.2372   2
  -6   4  16 85.3638 101.817   2
  -5  -4  16 796.335 212.785   2
  -5   4  16 842.953 294.636   2
  -4  -4  16 247.894 125.009   2
  -4   4  16 377.218 188.481   2
  -3  -4  16 1399.68 258.550   2
  -3   4  16 1839.54 399.250   2
  -2  -4  16 18.8990 72.1587   2
  -2   4  16-192.681 124.761   2
  -1  -4  16 165.838 78.6206   2
  -1   4  16 271.807 125.218   2
   0  -4  16 235.894 100.982   2
   0   4  16 349.511 166.739   2
   1  -4  16 404.470 130.217   2
   1   4  16 686.548 214.473   2
   2  -4  16-45.3164 38.9298   2
  -2   4 -16 38.2784 60.3283   1
   2   4  16-35.3896 69.8311   2
   3  -4  16 329.895 114.310   2
   3   4  16 470.914 128.379   1
   3   4  16 355.607 142.533   2
   3   4  16 586.243 142.025   3
  -3   4 -16 474.143 172.331   1
   4  -4  16-19.4531 37.6220   2
  -4   4 -16 40.3153 50.4202   1
   4   4  16 28.8452 63.5950   2
   4   4  16 56.3841 50.4002   3
   5  -4  16 26.8449 50.1394   2
  -5   4 -16 40.0839 50.5305   1
   5   4  16 57.9921 43.1966   3
  -6   4 -16 142.949 81.3106   1
   6   4  16 105.623 72.1941   3
  -7   4 -16 241.658 122.348   1
   7   4  16 125.076 63.5834   3
  -8   4 -16 561.948 190.327   1
   8   4  16 495.958 136.348   3
  -9   4 -16 45.0825 54.2582   1
   9   4  16 46.7816 46.0805   3
  10   4  16 91.3714 62.4609   3
 -10   4 -16 39.5072 51.4766   1
 -11   4 -16 178.437 111.172   1
  11   4  16 135.931 73.8589   3
 -12   4 -16 135.830 86.4132   1
  12   4  16 152.665 79.0467   3
 -13   4 -16 81.8655 83.8308   1
  13   4  16-32.9131 38.0109   3
 -14   4 -16 173.288 107.472   1
  14   4  16 291.725 107.366   3
 -15   4 -16 217.898 130.479   1
  15   4  16 214.627 89.5974   3
 -16   4 -16 132.318 94.5272   1
  16   4  16 70.9438 67.9874   3
 -17   4 -16 26.7953 47.4158   1
  17   4  16-16.0615 25.1833   3
  18   4  16-7.18866 21.1501   3
 -20  -5  16-359.573 241.922   2
 -19  -5  16-230.943 191.159   2
 -18  -5  16 203.453 166.410   2
 -17   5  16 150.339 91.0950   1
 -17  -5  16 340.646 215.785   2
 -17   5  16 328.312 222.140   2
 -16   5  16 309.629 145.354   1
 -16  -5  16 553.215 269.580   2
 -16   5  16 445.341 253.983   2
 -15   5  16 198.709 116.309   1
 -15  -5  16 236.203 132.579   2
 -15   5  16 447.699 247.940   2
 -14   5  16 142.575 86.2300   1
 -14  -5  16 267.372 188.332   2
 -14   5  16-3.05603 32.3113   2
 -13   5  16 232.968 120.830   1
 -13  -5  16-80.0877 131.997   2
 -13   5  16 55.5487 88.0802   2
 -12   5  16-6.33787 23.0734   1
 -12   5  16-65.2955 90.5264   2
 -11   5  16 183.897 110.306   1
 -11  -5  16 80.7712 91.9133   2
 -11   5  16-155.596 133.111   2
 -10   5  16 35.8576 45.6543   1
 -10  -5  16-37.4954 109.377   2
  -9   5  16 19.4956 33.7250   1
  -9  -5  16 73.9690 96.1098   2
  -9   5  16 75.9354 54.4311   2
  -8   5  16-178.205 133.804   2
  -8   5  16-19.8265 29.0424   1
  -7  -5  16 38.1905 69.8587   2
  -7   5  16-46.9658 68.9815   2
  -6  -5  16 28.0682 94.6614   2
  -6   5  16-11.8734 39.7208   2
  -5  -5  16 69.5656 104.853   2
  -5   5  16-144.275 114.538   2
  -4  -5  16 58.4168 27.4865   2
  -4   5  16 166.746 119.725   2
  -3  -5  16 113.726 102.591   2
  -3   5  16-48.5178 65.8076   2
  -3   5  16 33.7708 44.3581   3
  -2  -5  16 139.590 92.1316   2
  -2   5  16-40.6071 58.6757   2
  -2   5  16 47.8604 55.0524   3
  -1  -5  16 205.987 89.3843   2
  -1   5  16 7.07353 50.8258   2
  -1   5  16 172.688 70.1414   3
   0  -5  16 131.277 82.7955   2
   0   5  16 11.7656 34.1421   2
   0   5  16 170.404 83.4540   3
   1  -5  16-54.1602 56.9056   2
  -1   5 -16 21.8715 38.9544   1
   1   5  16 62.4137 75.2879   2
   1   5  16 31.0289 37.8366   3
   2  -5  16 40.2527 34.2055   2
  -2   5 -16 11.7841 29.8082   1
   2   5  16 175.969 125.362   2
   2   5  16 53.3275 52.7372   3
   3  -5  16 91.8987 76.6310   2
  -3   5 -16 10.3316 63.7640   1
   3   5  16 71.6654 55.6491   3
   4  -5  16-20.8954 27.8221   2
  -4   5 -16 57.1782 75.4271   1
   4   5  16 75.4839 56.7107   3
  -5   5 -16 226.945 121.587   1
   5   5  16 46.9936 57.8645   3
   5  -5  16 121.027 66.4516   2
  -6   5 -16-39.7013 52.3231   1
   6   5  16-81.6536 54.9954   3
  -7   5 -16 189.782 112.487   1
   7   5  16 77.8091 60.7625   3
  -8   5 -16 12.2885 31.6453   1
   8   5  16-13.1737 44.1899   3
  -9   5 -16 19.9342 34.5066   1
   9   5  16-0.74576 27.2040   3
  10   5  16-10.8428 28.2631   3
 -10   5 -16 88.9057 78.9084   1
 -11   5 -16 8.24839 26.4834   1
  11   5  16-9.20088 40.8639   3
 -12   5 -16 49.0423 60.2599   1
  12   5  16 25.9755 37.0434   3
 -13   5 -16-8.28922 27.4029   1
  13   5  16 37.0692 39.8102   3
 -14   5 -16 287.827 149.931   1
  14   5  16 204.748 82.9348   3
 -16  -6  16-169.482 102.039   2
 -15   6  16 89.6203 81.0416   1
 -15  -6  16 315.711 182.237   2
 -14   6  16 65.7309 68.1876   1
 -14  -6  16 353.231 196.874   2
 -13   6  16 231.400 131.886   1
 -13  -6  16-155.904 128.007   2
 -12  -6  16-15.5529 43.9054   2
 -12   6  16-0.11263 6.74070   3
 -11   6  16-27.3460 42.2735   1
 -11   6  16-0.57421 23.6057   3
 -10   6  16-140.473 90.8215   1
 -10  -6  16-47.7667 101.828   2
 -10   6  16-20.1108 37.1041   3
  -9   6  16 293.375 127.579   1
  -9   6  16 97.0776 51.8910   3
  -8   6  16-21.9165 35.2289   1
  -8  -6  16-18.3370 101.322   2
  -8   6  16 153.677 127.272   2
  -8   6  16 15.6079 17.3928   3
  -7   6  16-11.7471 27.3590   1
  -7  -6  16 179.635 119.274   2
  -7   6  16 227.597 149.311   2
  -7   6  16-31.1964 36.0765   3
  -6   6  16-10.4354 25.0238   1
  -6  -6  16 92.1649 76.1725   2
  -6   6  16-38.6234 62.5329   2
  -6   6  16 10.4877 27.5056   3
  -5   6  16-5.78268 40.4365   1
  -5  -6  16 81.4065 102.702   2
  -5   6  16-31.3252 56.2833   2
  -5   6  16-27.8752 32.1221   3
  -4   6  16 149.334 90.0534   1
  -4  -6  16 139.338 66.0990   2
  -4   6  16 68.9527 76.9577   2
  -4   6  16 153.893 82.9109   3
  -3   6  16 22.4501 31.5866   1
  -3  -6  16 0.63067 24.6468   2
  -3   6  16-99.7877 87.9509   2
  -3   6  16 63.1000 48.8251   3
  -2   6  16 26.7535 25.7798   1
  -2  -6  16 101.389 66.0381   2
  -2   6  16-150.564 103.485   2
  -2   6  16 75.8154 66.4049   3
  -1   6  16 105.565 62.7842   1
  -1  -6  16 6.69412 32.0451   2
  -1   6  16 12.5769 29.1284   3
   0   6  16 120.695 65.0448   1
   0  -6  16 90.5898 39.3909   2
   0   6  16 175.712 75.1669   3
   1  -6  16 54.9504 47.3714   2
   1   6  16 16.0694 23.8703   1
   1   6  16 7.13149 32.5667   3
   2  -6  16 169.058 98.0871   2
  -2   6 -16 244.708 129.133   1
   2   6  16 165.384 81.0362   3
   3  -6  16 44.1240 51.1453   2
  -3   6 -16 9.63669 29.3817   1
   3   6  16 1.59113 13.2835   3
   4  -6  16 126.232 83.6696   2
  -4   6 -16 116.733 103.916   1
   4   6  16 165.257 96.0445   3
   5  -6  16 287.690 119.072   2
  -5   6 -16 309.611 148.445   1
   5   6  16 219.969 94.2396   3
  -6   6 -16 66.4221 69.6727   1
   6   6  16 113.054 66.6531   3
   6  -6  16 80.9801 55.1296   2
  -7   6 -16-105.688 88.3016   1
   7   6  16-5.84117 18.7320   3
  -8   6 -16-0.28611 42.6692   1
   8   6  16-29.2178 34.5229   3
  -9   6 -16 307.953 151.296   1
   9   6  16 211.207 82.6759   3
  10   6  16 141.567 78.6200   3
 -10   6 -16 299.398 150.475   1
 -12   7  16 17.7341 34.8930   1
 -12  -7  16-44.3707 54.6340   2
 -11   7  16 28.1756 43.6481   1
 -11  -7  16-157.428 122.665   2
 -10   7  16 102.294 48.7617   1
 -10  -7  16-15.5100 33.3614   2
  -9  -7  16 210.527 151.656   2
  -9   7  16 63.3878 61.3705   1
  -9   7  16 123.413 62.7605   3
  -8  -7  16 291.189 140.159   2
  -8   7  16 284.699 126.206   1
  -8   7  16 178.044 81.5124   3
  -7  -7  16 202.908 127.036   2
  -7   7  16 176.708 77.1629   3
  -6  -7  16 30.2522 101.665   2
  -6   7  16 51.4953 51.6874   1
  -6   7  16 20.3260 20.5038   3
  -5  -7  16 219.010 116.747   2
  -5   7  16 63.5035 55.6683   1
  -5   7  16 36.2143 24.6833   3
  -4  -7  16 232.661 135.732   2
  -4   7  16 163.827 85.6490   1
  -4   7  16 192.750 83.8923   3
  -3  -7  16 109.001 91.1584   2
  -3   7  16 38.1964 40.1459   3
  -2  -7  16 103.779 109.915   2
  -2   7  16 62.3390 44.2824   3
  -1  -7  16 43.7572 69.0127   2
  -1   7  16 82.1382 46.8893   3
   0  -7  16-28.2491 25.7037   2
   0   7  16 18.7280 49.4698   3
   1  -7  16 81.1696 73.9098   2
   1   7  16-88.3711 58.2398   3
  -1   7 -16 46.3166 60.4481   1
   2  -7  16 220.422 113.873   2
  -2   7 -16 188.497 120.254   1
   2   7  16 159.936 83.1002   3
   3  -7  16 126.527 76.2883   2
  -3   7 -16 207.140 126.752   1
   3   7  16 104.070 73.7433   3
   4  -7  16 340.763 166.078   2
  -4   7 -16 310.191 182.187   1
   4   7  16 120.355 73.5477   3
   5  -7  16 135.337 82.9208   2
   5   7  16 27.9302 35.3168   3
  -5   7 -16 194.313 130.906   1
   6  -7  16 96.8585 83.8626   2
  -6   7 -16-2.46043 19.4129   1
  -6  -8  16-267.182 139.602   2
  -6   8  16 12.4145 23.5250   3
  -5  -8  16 257.408 176.708   2
  -5   8  16-31.5962 35.4145   3
  -4  -8  16 115.274 94.2193   2
  -4   8  16-48.2224 43.7346   3
  -3  -8  16-52.4654 68.4278   2
  -3   8  16 1030.67 200.813   3
  -2  -8  16 43.3581 31.8855   2
  -2   8  16-110.855 66.5229   3
  -1  -8  16 62.9791 102.624   2
   0  -8  16-117.928 84.7080   2
 -22   0  17 88.1486 101.366   2
 -21   0  17 17.2343 71.0583   2
 -20   0  17 35.8674 86.6068   2
 -19   0  17-12.8157 46.0494   2
 -18   0  17-41.3665 86.8821   2
 -17   0  17 10.0684 115.951   2
 -16   0  17 44.6944 66.2026   2
 -15   0  17-3.18385 40.3806   2
 -14   0  17 78.8726 102.902   2
 -13   0  17-16.8801 45.1833   2
 -12   0  17-32.4523 80.7330   2
 -11   0  17-17.0448 84.7356   2
 -10   0  17-51.5925 107.132   2
  -9   0  17 136.030 113.028   2
  -8   0  17 55.2615 89.6766   2
  -7   0  17-137.027 101.232   2
  -6   0  17-187.857 113.266   2
  -5   0  17-19.0359 75.7869   2
  -4   0  17-22.9312 43.3768   2
  -3   0  17-4.87825 44.6344   2
  -2   0  17 2.74639 34.9793   2
  -1   0  17 50.3223 50.4075   2
   0   0  17 85.4234 74.5070   2
   1   0  17 48.8919 64.3151   2
   2   0  17 20.9216 54.6910   2
   3   0  17 21.5551 26.5350   2
   4   0  17 49.0559 45.7595   2
   5   0  17 7.06779 40.8994   2
   6   0  17 39.1262 54.3834   2
   7   0  17 12.2121 35.3234   2
   8   0  17 73.5467 54.0976   2
   9   0  17 29.1958 43.2192   2
  10   0  17 41.4595 35.8232   2
  11   0  17-29.0120 25.0953   2
 -11   0 -17-167.069 91.6550   1
  12   0  17-6.99382 38.8292   2
 -12   0 -17 15.7465 23.1437   1
 -13   0 -17-1.82589 27.9008   1
  13   0  17 26.5318 34.2262   2
 -14   0 -17 34.3685 45.3767   1
 -15   0 -17 25.2068 30.2805   1
  15   0  17 61.5227 43.2178   3
 -16   0 -17-49.3070 53.4052   1
  16   0  17 40.0573 40.9543   3
  17   0  17 11.4994 35.0275   3
 -17   0 -17 28.0609 41.8728   1
 -18   0 -17 24.7690 28.8186   1
  18   0  17-38.7690 45.7079   3
 -19   0 -17-11.2212 29.7622   1
  19   0  17-0.87859 30.9858   3
 -20   0 -17-58.0679 59.9683   1
 -22  -1  17 368.103 261.116   2
 -21  -1  17 880.642 431.302   2
 -21   1  17 592.181 343.186   2
 -20  -1  17 152.386 251.069   2
 -20   1  17 222.172 208.692   2
 -19  -1  17 15.9536 212.360   2
 -19   1  17 275.880 236.217   2
 -18  -1  17 150.713 149.412   2
 -18   1  17 141.120 152.412   2
 -17  -1  17-32.3440 43.4044   2
 -17   1  17-177.892 167.278   2
 -16  -1  17 21.8509 63.8918   2
 -16   1  17-210.375 178.327   2
 -15  -1  17 575.124 264.090   2
 -15   1  17 119.271 132.250   2
 -14  -1  17 44.8069 117.829   2
 -14   1  17 13.6963 78.4130   2
 -13  -1  17 24.8288 85.0972   2
 -13   1  17-99.8799 116.287   2
 -12  -1  17 185.225 203.548   2
 -12   1  17 145.120 121.654   2
 -11  -1  17 67.0849 90.6686   2
 -11   1  17-52.1803 80.6197   2
 -10  -1  17 59.1503 129.787   2
 -10   1  17 256.261 163.938   2
  -9  -1  17-88.9308 134.444   2
  -9   1  17 159.994 125.655   2
  -8  -1  17 174.870 115.131   2
  -8   1  17 135.785 30.7383   2
  -7  -1  17 291.512 118.003   2
  -7   1  17 399.245 187.073   2
  -6  -1  17 89.9241 54.3098   2
  -6   1  17 242.550 156.563   2
  -5  -1  17 145.510 109.742   2
  -5   1  17 138.212 134.601   2
  -4  -1  17 104.350 107.005   2
  -4   1  17-89.3919 109.847   2
  -3  -1  17 131.776 104.215   2
  -3   1  17 1.37596 43.3159   2
  -2  -1  17 721.417 192.567   2
  -2   1  17 809.821 213.198   2
  -1  -1  17 75.4756 83.5612   2
  -1   1  17-21.7184 18.6657   2
   0  -1  17 442.259 147.516   2
   0   1  17 602.428 173.831   2
   1  -1  17 97.8815 68.5203   2
   1   1  17 13.4724 33.3253   2
   2  -1  17 47.5647 47.1596   2
   2   1  17 66.9907 55.4766   2
   3  -1  17-11.1503 30.2211   2
   3   1  17 27.4098 47.3613   2
   4  -1  17 9.11316 35.4431   2
   4   1  17 114.900 81.7078   2
   5  -1  17 31.2266 38.4331   2
   5   1  17 43.6712 25.3282   2
   6  -1  17 106.544 71.2554   2
   6   1  17 87.8023 37.7263   2
   7  -1  17 15.8906 35.2915   2
   7   1  17-21.3499 18.8121   2
   8  -1  17 69.3393 65.0296   2
   8   1  17 29.4159 44.2670   2
  -8   1 -17 72.7095 57.3731   1
   9  -1  17 364.130 111.953   2
   9   1  17 219.033 79.1672   2
  -9   1 -17 272.871 116.963   1
  10   1  17 7.15102 19.8461   2
 -10   1 -17 17.3666 38.6955   1
  10  -1  17 27.5936 14.1847   2
  11   1  17 371.899 98.1101   2
 -11   1 -17 84.9308 68.8689   1
  12   1  17 336.424 108.054   2
 -12   1 -17 503.252 168.129   1
  13   1  17 56.4929 35.6984   2
 -13   1 -17 74.3300 79.8577   1
  13   1  17-1.12592 24.0227   3
  14   1  17 30.2554 22.4484   2
 -14   1 -17 172.728 100.101   1
  14   1  17 104.082 57.3360   3
  15   1  17 111.081 68.3126   2
 -15   1 -17 57.7711 64.0581   1
  15   1  17 56.1467 48.6436   3
  16   1  17 18.5625 17.5783   2
 -16   1 -17-21.1432 46.0233   1
  16   1  17-14.9362 24.1654   3
  16  -1  17 63.8222 47.5023   3
  17   1  17 16.6068 35.1805   2
 -17   1 -17-71.8509 67.4002   1
 -17  -1 -17 40.4808 45.6529   1
  17   1  17 36.5335 39.8651   3
  17  -1  17 69.1636 53.0389   3
 -18   1 -17 184.891 70.9664   1
  18   1  17 71.9529 51.4155   3
  18  -1  17 124.582 69.6298   3
  18   1  17 87.0655 33.7208   2
 -19   1 -17 19.4090 38.8703   1
  19   1  17 80.0115 59.5903   3
 -20   1 -17 62.6559 65.2494   1
  20   1  17-14.5123 24.5147   3
 -21   1 -17-92.5134 80.2883   1
  21   1  17 151.055 73.1861   3
 -22   1 -17 60.5371 70.7163   1
 -22  -2  17 1193.41 464.758   2
 -21  -2  17 137.867 162.533   2
 -20  -2  17-40.2247 94.5641   2
 -20   2  17 206.232 186.981   2
 -19  -2  17 165.017 196.986   2
 -19   2  17-63.3563 61.7188   2
 -18  -2  17 334.912 243.487   2
 -18   2  17-3.76329 49.0648   2
 -17  -2  17-157.895 154.556   2
 -17   2  17 255.352 199.838   2
 -16  -2  17 3.70763 47.5851   2
 -16   2  17-37.2227 78.3480   2
 -15  -2  17 26.1375 57.5520   2
 -15   2  17 40.4007 83.0909   2
 -14  -2  17 192.971 155.005   2
 -14   2  17 97.1620 135.759   2
 -13  -2  17 131.654 159.022   2
 -13   2  17 265.081 232.710   2
 -12  -2  17 25.6653 101.392   2
 -12   2  17-195.631 159.804   2
 -11  -2  17 75.4996 48.8685   2
 -11   2  17-11.2769 116.978   2
 -10  -2  17 488.641 199.891   2
 -10   2  17 500.638 239.290   2
  -9  -2  17 178.573 101.529   2
  -9   2  17 96.1624 92.2456   2
  -8  -2  17 48.0533 43.7186   2
  -8   2  17-121.739 112.389   2
  -7  -2  17-24.9468 73.9644   2
  -7   2  17 14.8831 33.0445   2
  -6  -2  17 196.137 130.084   2
  -6   2  17 272.917 177.832   2
  -5  -2  17 62.3432 41.6142   2
  -5   2  17 96.1343 107.245   2
  -4  -2  17-24.5231 33.4980   2
  -4   2  17 158.722 119.390   2
  -3  -2  17 107.725 109.596   2
  -3   2  17 63.4035 113.216   2
  -2  -2  17 47.0768 66.4843   2
  -2   2  17 17.1105 43.2642   2
  -1  -2  17 430.895 144.345   2
  -1   2  17 397.619 152.453   2
   0  -2  17 252.971 107.419   2
   0   2  17 87.9250 45.8833   2
   1  -2  17 426.477 127.808   2
   1   2  17 584.555 172.339   2
   2  -2  17 52.9996 61.3387   2
   2   2  17 84.7377 54.4951   2
   3  -2  17 18.7062 17.5561   2
   3   2  17 17.1107 40.8564   2
   4  -2  17 308.614 110.103   2
   4   2  17 291.548 123.484   2
  -5   2 -17 42.2424 27.9975   1
   5  -2  17 11.5989 36.6473   2
   5   2  17 135.237 80.3197   2
   6  -2  17 597.626 149.276   2
   6   2  17 503.780 147.147   2
  -6   2 -17 524.136 172.533   1
   7  -2  17 16.9803 24.7753   2
   7   2  17 64.2327 50.1710   2
  -7   2 -17 44.4716 45.7656   1
   8  -2  17 821.825 174.090   2
   8   2  17 742.907 163.204   2
  -8   2 -17 942.318 233.679   1
  -9   2 -17 226.849 113.481   1
   9   2  17 253.555 92.0588   2
  10   2  17 115.469 56.8691   2
 -10   2 -17 88.0882 64.9756   1
  11   2  17-27.1762 40.4568   2
 -11   2 -17 88.8607 72.7523   1
  11   2  17-14.6503 32.8709   3
  12   2  17 26.2634 19.4817   2
 -12   2 -17 43.9587 45.5097   1
  12   2  17 16.4033 36.6824   3
  13   2  17 18.9672 26.5459   2
 -13   2 -17 32.2532 41.4282   1
  13   2  17 74.8127 59.8307   3
  14   2  17 60.8914 36.7294   2
 -14   2 -17 71.9426 48.0714   1
  14   2  17 72.6507 54.8531   3
 -15   2 -17-30.6325 54.6337   1
  15   2  17-17.3421 34.6690   2
  15   2  17-2.24372 39.1303   3
  16   2  17 214.560 82.8822   2
  16   2  17 133.421 69.5522   3
 -16   2 -17 156.453 89.8497   1
  17   2  17 46.5163 54.4685   3
 -17   2 -17-16.4597 36.3572   1
 -18   2 -17 4.49278 23.2574   1
  18   2  17-8.71109 20.2350   3
 -19   2 -17-78.4142 74.7414   1
  19   2  17 10.5258 33.7031   3
 -20   2 -17 80.9032 54.5726   1
  20   2  17 55.7168 46.8975   3
 -21   2 -17-110.345 90.8157   1
  21   2  17-22.7389 31.7139   3
 -22  -3  17-233.159 210.279   2
 -21  -3  17 339.723 221.177   2
 -20  -3  17 1553.97 544.527   2
 -19   3  17 339.809 174.380   1
 -19  -3  17 468.929 291.918   2
 -19   3  17 416.515 257.604   2
 -18  -3  17 162.648 67.9041   2
 -18   3  17 9.16398 51.8698   2
 -17  -3  17 119.869 205.302   2
 -17   3  17 342.988 229.164   2
 -16  -3  17 208.464 118.299   2
 -16   3  17 268.365 244.280   2
 -15  -3  17 280.033 214.856   2
 -15   3  17 547.185 280.624   2
 -14  -3  17-139.853 127.432   2
 -14   3  17-56.8759 93.9309   2
 -13  -3  17 94.8607 109.057   2
 -13   3  17-320.795 208.699   2
 -12  -3  17 183.310 153.683   2
 -12   3  17 53.0757 88.1162   2
 -11  -3  17-74.1038 117.158   2
 -11   3  17 17.9811 55.7442   2
 -10  -3  17 822.562 259.705   2
 -10   3  17 1026.94 351.724   2
  -9  -3  17 232.217 148.481   2
  -9   3  17 316.140 225.957   2
  -8  -3  17 24.1598 36.7259   2
  -8   3  17-137.456 125.189   2
  -7  -3  17 420.251 150.441   2
  -7   3  17 734.885 284.591   2
  -6  -3  17 43.7022 35.2690   2
  -6   3  17-27.5246 39.7057   2
  -5  -3  17 2672.18 396.372   2
  -5   3  17 2900.28 527.156   2
  -4  -3  17 13.4080 60.5031   2
  -4   3  17 66.7593 82.8830   2
  -3  -3  17 1157.30 248.731   2
  -3   3  17 1258.70 318.567   2
  -2  -3  17 55.1985 68.7277   2
  -2   3  17 75.2869 90.5962   2
  -1  -3  17 31.1426 55.0805   2
  -1   3  17 35.5276 46.9892   2
   0  -3  17-75.5657 71.8430   2
   0   3  17 146.089 103.489   2
   1  -3  17 71.0598 72.5978   2
   1   3  17 85.5674 74.6576   2
   2  -3  17 105.401 68.9683   2
   2   3  17 59.9688 39.6717   2
   3  -3  17 134.657 85.3603   2
   3   3  17 97.0726 73.7396   2
   4  -3  17 491.517 139.739   2
   4   3  17 225.459 83.0496   2
  -4   3 -17 547.765 180.671   1
   5  -3  17 183.784 89.3292   2
  -5   3 -17 243.510 121.070   1
   5   3  17 212.552 95.3363   2
   6  -3  17 630.611 157.680   2
   6   3  17 392.541 127.869   2
  -6   3 -17 714.368 204.842   1
  -7   3 -17 377.488 154.624   1
   7   3  17 251.429 101.309   2
   7  -3  17 262.351 109.842   2
   8   3  17 957.432 193.757   2
  -8   3 -17 1160.08 261.245   1
   9   3  17 67.6524 50.5093   2
  -9   3 -17 51.7104 61.1963   1
   9   3  17 81.0382 64.4364   3
  10   3  17 28.8102 26.5711   2
 -10   3 -17 58.5792 29.0472   1
  10   3  17 40.9986 39.4260   3
 -11   3 -17-58.2528 61.7866   1
  11   3  17 32.6907 34.6018   2
  11   3  17 18.7552 11.2869   3
 -12   3 -17 71.2110 45.0584   1
  12   3  17 24.6474 29.6940   2
  12   3  17 4.56334 37.1715   3
  13   3  17 66.4192 44.8141   3
 -13   3 -17 146.539 91.6436   1
  14   3  17 256.076 104.523   3
 -14   3 -17 575.539 190.968   1
 -15   3 -17 33.6957 32.9868   1
  15   3  17 32.4448 49.1557   3
 -16   3 -17 205.572 128.162   1
  16   3  17 120.911 68.5152   3
 -17   3 -17 109.179 89.4990   1
  17   3  17 4.77198 16.7685   3
 -18   3 -17 382.002 178.517   1
  18   3  17 123.522 70.2079   3
 -19   3 -17-20.2101 43.1639   1
  19   3  17 218.873 100.484   3
  20   3  17 93.5292 78.7170   3
 -21  -4  17 209.729 225.878   2
 -20  -4  17-347.105 245.879   2
 -19  -4  17-152.187 153.825   2
 -18   4  17 157.777 109.787   1
 -18  -4  17 52.3957 97.9025   2
 -18   4  17-166.298 162.158   2
 -17   4  17 106.244 88.8640   1
 -17  -4  17 36.5198 189.931   2
 -17   4  17 206.417 176.294   2
 -16   4  17 17.1617 71.5984   1
 -16  -4  17 164.040 154.160   2
 -16   4  17 220.792 178.473   2
 -15  -4  17-9.81743 48.8911   2
 -15   4  17-42.5462 83.0810   2
 -15   4  17 41.5874 54.3979   1
 -14  -4  17 611.505 250.180   2
 -14   4  17 529.612 282.904   2
 -13  -4  17 44.9081 138.118   2
 -13   4  17 144.916 140.713   2
 -12  -4  17-194.879 136.346   2
 -12   4  17 46.7799 83.8056   2
 -11  -4  17 63.7830 94.2350   2
 -11   4  17 123.385 126.031   2
 -10  -4  17-8.47465 78.3855   2
 -10   4  17 325.398 198.640   2
  -9  -4  17 59.2288 38.1526   2
  -9   4  17 4.08666 65.8332   2
  -8  -4  17 32.2502 32.5660   2
  -8   4  17-255.122 169.407   2
  -7  -4  17 365.453 148.270   2
  -7   4  17 188.482 126.408   2
  -6  -4  17 181.042 133.105   2
  -6   4  17 353.469 200.728   2
  -5  -4  17 205.507 115.898   2
  -5   4  17 131.672 114.994   2
  -4  -4  17 203.570 108.556   2
  -4   4  17 12.7877 39.7709   2
  -3  -4  17 415.641 145.845   2
  -3   4  17 597.082 227.321   2
  -2  -4  17 54.5729 63.7917   2
  -2   4  17 32.0504 55.7897   2
  -1  -4  17 41.4002 47.3020   2
  -1   4  17 146.164 136.859   2
   0  -4  17 107.231 78.5825   2
   0   4  17 79.8514 59.8078   2
   1  -4  17 34.9332 48.8979   2
   1   4  17 47.2192 66.5197   2
   2  -4  17 166.007 75.2040   2
   2   4  17 253.811 121.969   2
   3  -4  17 50.2334 51.3324   2
  -3   4 -17 96.2013 73.5474   1
   3   4  17 55.0485 78.5659   2
   4  -4  17 159.123 80.3992   2
  -4   4 -17 220.736 118.376   1
   4   4  17 141.510 91.3724   2
   4   4  17 191.214 91.3210   3
   5  -4  17 16.8802 49.5907   2
  -5   4 -17 55.8192 48.8124   1
   5   4  17 118.083 74.3811   2
   5   4  17-11.1713 12.8970   3
   6  -4  17-49.3217 39.1102   2
  -6   4 -17 106.896 83.4340   1
   6   4  17 56.7478 56.8894   2
   6   4  17 70.0962 48.3722   3
   7   4  17 115.538 73.5616   2
  -7   4 -17-84.7481 75.0197   1
   7   4  17 96.3983 58.1455   3
   7  -4  17 69.3773 54.7015   2
  -8   4 -17 11.2260 29.9543   1
   8   4  17-12.1243 38.8205   3
  -9   4 -17-30.8073 46.5962   1
   9   4  17 147.579 65.1166   3
 -10   4 -17 215.572 111.741   1
  10   4  17 148.900 77.9142   3
 -11   4 -17 75.7154 82.2456   1
  11   4  17 56.5863 51.5782   3
  12   4  17 280.132 110.500   3
 -12   4 -17 434.825 179.100   1
  13   4  17-31.6539 18.1475   3
 -13   4 -17 6.08737 43.7105   1
 -14   4 -17-3.38485 20.2281   1
  14   4  17 151.419 78.4765   3
 -15   4 -17-43.7781 40.2397   1
  15   4  17 66.3435 66.0893   3
 -16   4 -17 485.080 191.060   1
  16   4  17 1.45073 13.3457   3
 -19  -5  17-428.355 264.038   2
 -18  -5  17-22.4387 118.840   2
 -17  -5  17 496.734 264.384   2
 -16   5  17-27.6401 46.6075   1
 -16  -5  17 42.0834 128.879   2
 -15   5  17 16.8727 36.3996   1
 -15  -5  17 65.0439 95.1491   2
 -15   5  17-5.52970 38.0886   2
 -14   5  17 67.1990 68.8915   1
 -14  -5  17 130.324 193.407   2
 -14   5  17-265.860 190.329   2
 -13   5  17 634.766 201.620   1
 -13  -5  17 160.608 131.452   2
 -13   5  17 340.307 209.650   2
 -12   5  17-52.0297 58.4511   1
 -12   5  17 14.3628 49.9705   2
 -11   5  17 92.7576 74.9973   1
 -11  -5  17 120.875 64.7738   2
 -11   5  17 218.787 176.568   2
 -10   5  17 36.0674 46.9841   1
 -10  -5  17-53.0682 78.8752   2
 -10   5  17-1.76407 30.1254   2
  -9  -5  17 4.20243 47.2035   2
  -9   5  17-98.7182 105.671   2
  -9   5  17 54.7977 55.6159   1
  -8  -5  17-1.39591 79.9798   2
  -8   5  17 470.017 222.369   2
  -7  -5  17 55.5732 64.6286   2
  -7   5  17 99.2648 114.649   2
  -6  -5  17 105.920 99.0844   2
  -6   5  17 93.3533 97.7432   2
  -5  -5  17 93.9000 106.401   2
  -5   5  17 146.734 119.144   2
  -4  -5  17 811.573 225.796   2
  -4   5  17 232.395 154.733   2
  -3  -5  17-51.6299 82.0289   2
  -3   5  17-100.199 94.1162   2
  -3   5  17 33.9526 46.5358   3
  -2  -5  17 162.665 91.6232   2
  -2   5  17 151.091 113.312   2
  -2   5  17 111.712 79.3482   3
  -1  -5  17 172.846 92.8819   2
  -1   5  17 334.987 162.277   2
  -1   5  17 164.948 81.6417   3
   0   5  17 43.8826 59.6992   2
   0   5  17 145.799 73.2649   3
   1  -5  17 273.348 115.922   2
   1   5  17 331.651 154.471   2
   1   5  17 221.470 88.5168   3
  -2   5 -17 19.3498 48.0349   1
   2   5  17 31.0669 47.7695   2
   2   5  17 148.215 85.3788   3
   3  -5  17 15.6802 33.3969   2
  -3   5 -17 75.6871 72.9809   1
   3   5  17 9.02255 29.5145   2
   3   5  17 63.0511 51.0946   3
   4  -5  17 115.191 71.8609   2
  -4   5 -17 14.2486 34.8404   1
   4   5  17 107.497 69.0703   3
   5  -5  17 123.368 80.9691   2
  -5   5 -17 25.8346 49.5271   1
   5   5  17-11.3680 18.7759   3
   6  -5  17 112.119 84.4479   2
  -6   5 -17 102.864 77.4566   1
   6   5  17 8.32435 34.1698   3
  -7   5 -17-0.27466 12.7625   1
   7   5  17-107.938 65.2511   3
  -8   5 -17-48.9901 60.7643   1
   8   5  17 72.9745 63.8964   3
  -9   5 -17 56.9906 65.0136   1
   9   5  17 90.0953 65.9321   3
 -10   5 -17-107.905 89.1876   1
  10   5  17-13.5097 22.7784   3
 -11   5 -17 6.95223 26.8444   1
  11   5  17 104.867 76.7926   3
  12   5  17-7.98299 35.3493   3
 -12   5 -17-43.3257 57.7824   1
  13   5  17 93.4365 67.3712   3
 -13   5 -17-101.117 89.0361   1
 -16  -6  17 415.043 234.038   2
 -15  -6  17 176.604 106.740   2
 -14   6  17 119.238 74.1697   1
 -14  -6  17 7.41719 109.674   2
 -13   6  17-40.5442 54.4939   1
 -13  -6  17-129.101 121.245   2
 -12   6  17-38.6108 52.4991   1
 -12  -6  17 8.44559 126.571   2
 -12   6  17 31.1839 47.1200   3
 -11   6  17-61.3330 63.2636   1
 -11  -6  17 91.5324 105.017   2
 -11   6  17 75.8747 52.1479   3
 -10   6  17 26.1259 41.5060   1
 -10  -6  17-112.967 128.366   2
 -10   6  17-134.625 128.633   2
 -10   6  17 32.3736 35.9004   3
  -9   6  17 40.9109 49.9972   1
  -9  -6  17 91.1806 58.5641   2
  -9   6  17 224.216 159.234   2
  -9   6  17 147.284 70.6209   3
  -8   6  17 34.9989 45.0687   1
  -8  -6  17 26.0911 50.6173   2
  -8   6  17 142.107 124.696   2
  -8   6  17 84.3075 56.8377   3
  -7   6  17 38.8816 46.3094   1
  -7  -6  17 116.755 105.709   2
  -7   6  17-39.7402 68.1233   2
  -7   6  17 66.5190 45.7881   3
  -6   6  17 15.0846 29.5144   1
  -6   6  17-94.5796 98.2888   2
  -6   6  17 21.6276 33.4313   3
  -5   6  17 97.1272 68.9909   1
  -5  -6  17 209.645 152.261   2
  -5   6  17-32.8767 59.0138   2
  -5   6  17 127.404 77.5814   3
  -4   6  17 295.364 116.738   1
  -4  -6  17 419.056 170.525   2
  -4   6  17 201.487 131.396   2
  -4   6  17 239.968 95.4107   3
  -3   6  17-21.5739 25.8828   1
  -3  -6  17-47.6265 101.069   2
  -3   6  17 20.3786 45.3835   2
  -3   6  17 42.8300 68.7487   3
  -2   6  17 123.791 70.8425   1
  -2  -6  17 108.253 86.2662   2
  -2   6  17 105.012 53.7366   3
  -1   6  17 94.2501 60.9766   1
  -1  -6  17-57.2813 67.1807   2
  -1   6  17-22.2854 30.2018   3
   0   6  17 56.2291 45.8401   1
   0  -6  17 142.704 97.4312   2
   0   6  17 32.3711 17.8246   3
   1  -6  17-7.73386 75.5755   2
   1   6  17 58.1187 44.1242   3
   2  -6  17 137.510 82.7425   2
  -2   6 -17 48.1487 68.0080   1
   2   6  17-76.1808 54.9114   3
   3  -6  17-8.32114 31.7440   2
  -3   6 -17-17.1779 39.0452   1
   3   6  17 31.7331 36.4108   3
   4  -6  17 505.326 161.125   2
  -4   6 -17 483.224 189.856   1
   4   6  17 339.398 114.084   3
   5  -6  17 205.491 103.237   2
  -5   6 -17 154.419 108.346   1
   5   6  17 188.480 95.4225   3
   6  -6  17 36.5265 57.8153   2
  -6   6 -17 52.5136 94.5604   1
   6   6  17 235.852 118.627   3
  -7   6 -17 132.380 100.814   1
   7   6  17 0.16195 27.2226   3
   7  -6  17 107.555 80.2634   2
  -8   6 -17 127.482 99.8499   1
   8   6  17-58.9711 50.7674   3
  -9   6 -17-62.4430 71.2073   1
 -11   7  17 18.4447 37.3720   1
 -11  -7  17 70.5426 67.7679   2
 -10   7  17 68.3861 66.4389   1
 -10  -7  17 72.2651 85.6555   2
  -9   7  17-161.133 98.9256   1
  -9  -7  17 105.368 37.7047   2
  -9   7  17-29.1768 32.8401   3
  -8   7  17 101.880 76.8250   1
  -8  -7  17 276.100 177.754   2
  -8   7  17 127.334 73.8915   3
  -7  -7  17 138.370 105.913   2
  -7   7  17 19.5103 34.1111   1
  -7   7  17 51.8069 45.9772   3
  -6  -7  17 188.532 115.617   2
  -6   7  17 57.7399 55.7716   1
  -6   7  17 68.0127 33.4075   3
  -5  -7  17 148.452 117.760   2
  -5   7  17 142.851 80.5600   3
  -4  -7  17 313.935 190.592   2
  -4   7  17 121.781 76.4895   3
  -3  -7  17 44.4571 32.8010   2
  -3   7  17 176.100 81.6323   3
  -2  -7  17 16.4532 41.5888   2
  -2   7  17 4.79698 37.8205   3
  -1  -7  17 43.8644 57.9799   2
  -1   7  17-3.18218 15.3406   3
   0  -7  17 23.2622 73.4077   2
   0   7  17-105.060 64.9390   3
   1  -7  17-94.0913 56.2198   2
   1   7  17-57.1966 48.8131   3
   2  -7  17 34.4746 44.2825   2
  -2   7 -17 70.7379 51.1914   1
   2   7  17-18.9621 29.3501   3
   3  -7  17 112.024 89.0471   2
  -3   7 -17 117.053 136.721   1
   3   7  17 56.2423 54.7119   3
   4  -7  17 150.922 103.349   2
 -21   0  18 730.600 367.043   2
 -20   0  18 188.025 186.712   2
 -19   0  18-36.3096 85.5925   2
 -18   0  18 491.304 310.577   2
 -17   0  18-148.781 156.585   2
 -16   0  18 133.747 145.143   2
 -15   0  18 267.399 197.100   2
 -14   0  18 6.86707 105.579   2
 -13   0  18 84.3116 160.390   2
 -12   0  18 87.0340 107.234   2
 -11   0  18 548.728 276.100   2
 -10   0  18 179.466 104.225   2
  -9   0  18 127.977 126.355   2
  -8   0  18 182.955 117.254   2
  -7   0  18 196.383 118.982   2
  -6   0  18 338.480 155.607   2
  -5   0  18 157.051 112.447   2
  -4   0  18-44.1430 87.0540   2
  -3   0  18 1227.70 271.624   2
  -2   0  18 397.433 153.322   2
  -1   0  18 295.534 145.486   2
   0   0  18 730.521 198.994   2
   1   0  18 361.684 143.600   2
   2   0  18 312.278 128.592   2
   3   0  18 957.760 198.930   2
   4   0  18 644.242 165.890   2
   5   0  18-17.7712 51.6937   2
   6   0  18-54.3232 55.8707   2
   7   0  18 143.959 78.4738   2
   8   0  18 461.051 126.844   2
   9   0  18 995.136 188.272   2
  10   0  18 480.445 128.301   2
  11   0  18 216.490 88.7690   2
  12   0  18 360.301 117.352   2
  13   0  18 9.98606 37.5738   2
 -13   0 -18-83.3969 68.7423   1
  14   0  18 787.891 173.350   2
 -14   0 -18 754.904 208.280   1
 -15   0 -18 354.884 141.022   1
  15   0  18 388.836 114.195   3
  15   0  18 254.033 95.0716   2
  16   0  18 27.6421 40.3739   3
 -16   0 -18-2.73033 41.4859   1
 -17   0 -18 272.664 132.676   1
  17   0  18 144.733 75.8852   3
 -18   0 -18-44.6308 51.7505   1
  18   0  18-14.5063 23.5045   3
 -19   0 -18 68.0637 66.6101   1
  19   0  18 52.3085 43.2206   3
 -21  -1  18-293.855 236.253   2
 -20  -1  18 1483.24 517.862   2
 -20   1  18 1138.28 450.005   2
 -19  -1  18 299.975 194.146   2
 -19   1  18 434.404 274.268   2
 -18  -1  18-95.3638 210.832   2
 -18   1  18 250.515 205.975   2
 -17  -1  18 138.908 180.129   2
 -17   1  18 98.1421 129.133   2
 -16  -1  18-154.447 154.164   2
 -16   1  18 131.867 43.5494   2
 -15  -1  18-5.34731 40.9373   2
 -15   1  18-48.0248 113.774   2
 -14  -1  18 121.944 156.408   2
 -14   1  18-4.96535 160.133   2
 -13  -1  18 458.326 255.730   2
 -13   1  18 778.274 350.416   2
 -12  -1  18 48.2479 76.2041   2
 -12   1  18 12.2817 103.094   2
 -11  -1  18 56.7848 94.2447   2
 -11   1  18-189.735 151.104   2
 -10  -1  18 445.255 217.533   2
 -10   1  18 319.041 218.627   2
  -9  -1  18 37.2679 84.5247   2
  -9   1  18 128.485 115.150   2
  -8  -1  18 340.323 166.398   2
  -8   1  18 212.452 135.829   2
  -7  -1  18-3.67178 46.5201   2
  -7   1  18 265.485 142.308   2
  -6  -1  18 19.4575 29.0634   2
  -6   1  18 121.978 100.514   2
  -5  -1  18 148.879 95.6667   2
  -5   1  18 181.037 116.819   2
  -4  -1  18 783.444 217.569   2
  -4   1  18 564.873 186.766   2
  -3  -1  18 1046.43 242.195   2
  -3   1  18 900.788 241.519   2
  -2  -1  18 57.4274 60.0199   2
  -2   1  18 62.7520 48.6679   2
  -1  -1  18 155.735 112.409   2
  -1   1  18 107.811 57.4731   2
   0  -1  18 439.225 155.639   2
   0   1  18 253.443 115.598   2
   1  -1  18 771.004 185.327   2
   1   1  18 861.625 211.819   2
   2  -1  18-25.1877 84.3483   2
   2   1  18 115.906 82.1957   2
   3  -1  18 424.561 128.217   2
   3   1  18 367.723 130.331   2
   4  -1  18 91.2303 79.3449   2
   4   1  18 120.758 84.4377   2
   5  -1  18-13.1082 29.7570   2
   5   1  18 14.9299 57.3454   2
   6  -1  18 1.15794 19.3172   2
   6   1  18-6.99207 29.8141   2
   7  -1  18 602.355 150.795   2
   7   1  18 502.998 141.548   2
   8  -1  18 98.8468 75.7710   2
   8   1  18 58.5914 52.0825   2
   9  -1  18 21.7368 32.2112   2
   9   1  18 10.6825 34.5444   2
  -9   1 -18-82.5373 69.1350   1
  10  -1  18 150.010 73.0580   2
  10   1  18 139.912 75.0319   2
 -10   1 -18 6.49981 40.5601   1
  11  -1  18 518.711 139.814   2
 -11   1 -18 441.545 164.402   1
  11   1  18 467.820 126.924   2
  12   1  18 1.57941 14.5276   2
 -12   1 -18 34.2899 45.0950   1
  12  -1  18 20.4000 45.1639   2
  13   1  18-23.2096 24.9797   2
  13   1  18 32.3197 46.1286   3
  14   1  18-18.2615 53.0633   2
 -14   1 -18 4.99474 23.3771   1
  14   1  18 28.5100 29.9515   3
  15   1  18 59.0671 34.2289   2
 -15   1 -18 78.2428 62.5566   1
  15   1  18 5.65728 13.2629   3
  16   1  18 151.150 68.3871   2
 -16   1 -18 284.442 134.157   1
  16   1  18 111.350 77.8741   3
  16  -1  18 124.239 60.0884   3
  17   1  18 473.220 129.138   2
 -17   1 -18 523.423 183.028   1
  17   1  18 457.465 130.754   3
  17  -1  18 436.774 117.690   3
  18   1  18 63.1764 48.3462   2
 -18   1 -18 123.715 91.2172   1
  18   1  18 7.91012 11.3613   3
 -19   1 -18 60.2783 65.0418   1
  19   1  18 24.1807 31.1804   3
 -20   1 -18 107.447 87.2307   1
  20   1  18 55.8507 46.3891   3
 -21   1 -18 86.8186 79.6138   1
 -21  -2  18-196.993 195.919   2
 -20  -2  18 927.068 405.914   2
 -19  -2  18-421.336 269.996   2
 -19   2  18-60.1745 107.353   2
 -18  -2  18 191.459 170.126   2
 -18   2  18 72.7860 116.090   2
 -17  -2  18-44.5127 182.853   2
 -17   2  18-53.3632 99.1055   2
 -16  -2  18-312.038 212.381   2
 -16   2  18-61.7650 102.684   2
 -15  -2  18-71.2537 56.2670   2
 -15   2  18-28.2933 136.285   2
 -14  -2  18 81.2271 93.1048   2
 -14   2  18-41.4221 84.4770   2
 -13  -2  18 71.8378 92.0942   2
 -13   2  18 172.581 122.323   2
 -12  -2  18 91.3037 163.104   2
 -12   2  18-142.540 165.431   2
 -11  -2  18 370.044 196.695   2
 -11   2  18 617.490 297.706   2
 -10  -2  18 294.444 170.214   2
 -10   2  18 282.310 255.074   2
  -9  -2  18 25.8527 43.1024   2
  -9   2  18 169.515 178.456   2
  -8  -2  18 347.252 135.776   2
  -8   2  18 361.649 209.745   2
  -7  -2  18 25.5067 58.3369   2
  -7   2  18 53.8622 68.3379   2
  -6  -2  18 685.895 226.872   2
  -6   2  18 836.131 297.296   2
  -5  -2  18 127.484 121.877   2
  -5   2  18-24.1643 30.7229   2
  -4  -2  18-24.7984 32.5297   2
  -4   2  18-56.3959 69.0761   2
  -3  -2  18 397.499 151.640   2
  -3   2  18 503.775 193.530   2
  -2  -2  18 273.476 118.333   2
  -2   2  18 413.859 173.426   2
  -1  -2  18 632.072 180.937   2
  -1   2  18 511.186 164.899   2
   0  -2  18 3.80402 64.6096   2
   0   2  18 0.69525 22.6439   2
   1  -2  18 479.993 156.929   2
   1   2  18 509.823 167.089   2
   2  -2  18 420.975 139.359   2
   2   2  18 314.699 117.483   2
   3  -2  18 44.3819 49.2698   2
   3   2  18-1.14920 34.8957   2
   4  -2  18 359.095 125.687   2
   4   2  18 398.042 144.802   2
   5  -2  18 110.842 68.9844   2
   5   2  18 88.3035 68.1355   2
   6  -2  18-46.2195 42.9523   2
   6   2  18-52.6922 48.4070   2
   7  -2  18 54.8083 66.2733   2
   7   2  18 99.2491 63.7325   2
  -7   2 -18-48.1724 57.8679   1
   8  -2  18 249.942 98.7840   2
   8   2  18 291.791 111.549   2
  -8   2 -18 252.669 121.095   1
   9  -2  18 218.033 101.649   2
   9   2  18 338.509 121.372   2
  -9   2 -18 270.543 121.938   1
  10   2  18 72.0981 54.8629   2
 -10   2 -18 3.37613 41.5640   1
  10  -2  18 56.4424 39.6000   2
  11   2  18-57.5853 41.0220   2
  11   2  18 109.272 63.5429   3
 -11   2 -18 3.17442 20.8007   1
  12   2  18-96.1068 58.5692   2
 -12   2 -18 19.5415 47.0661   1
  12   2  18 53.4567 29.3013   3
  13   2  18 74.3031 51.2513   2
 -13   2 -18 61.7213 96.3492   1
  13   2  18 8.14060 20.5762   3
  14   2  18 22.8905 37.0051   2
 -14   2 -18-27.8499 49.9270   1
  14   2  18 40.0445 56.9228   3
  15   2  18 56.5371 50.1999   2
 -15   2 -18-18.2327 72.0380   1
  15   2  18 29.7909 29.9932   3
 -16   2 -18-4.24494 25.3233   1
  16   2  18-20.2325 25.5719   3
 -17   2 -18-26.3871 69.9549   1
  17   2  18-10.6754 14.4168   3
 -18   2 -18 49.3764 60.7934   1
  18   2  18 37.0282 40.1816   3
 -19   2 -18 95.0713 101.395   1
  19   2  18 113.346 82.6926   3
 -20   2 -18 41.4820 57.8806   1
  20   2  18 71.2457 80.8931   3
 -20  -3  18 398.507 329.121   2
 -19  -3  18 818.169 370.100   2
 -18  -3  18-163.049 235.307   2
 -18   3  18-309.982 226.991   2
 -17  -3  18 496.484 321.710   2
 -17   3  18 210.950 201.429   2
 -16  -3  18 53.8133 133.715   2
 -16   3  18-9.81308 52.1379   2
 -15  -3  18-34.8766 146.348   2
 -15   3  18 5.94246 89.1950   2
 -14  -3  18 47.2959 121.795   2
 -14   3  18 151.261 151.341   2
 -13  -3  18 111.965 102.486   2
 -13   3  18 86.6332 115.080   2
 -12  -3  18 105.575 98.2475   2
 -12   3  18 60.7295 171.027   2
 -11  -3  18 167.218 150.296   2
 -11   3  18 131.780 134.386   2
 -10  -3  18 412.751 161.959   2
 -10   3  18 592.440 263.601   2
  -9  -3  18-266.117 147.947   2
  -9   3  18 2.83486 81.1072   2
  -8  -3  18 375.156 185.477   2
  -8   3  18 357.729 212.109   2
  -7  -3  18 21.6703 75.4062   2
  -7   3  18-46.1007 119.037   2
  -6  -3  18 156.447 119.811   2
  -6   3  18 370.213 203.092   2
  -5  -3  18 217.345 124.668   2
  -5   3  18 359.926 204.837   2
  -4  -3  18 450.568 181.719   2
  -4   3  18 305.695 130.318   2
  -3  -3  18 169.915 110.527   2
  -3   3  18 89.7509 105.288   2
  -2  -3  18 75.8094 51.1962   2
  -2   3  18-47.2293 64.7010   2
  -1  -3  18 387.674 138.057   2
  -1   3  18 553.451 217.510   2
   0  -3  18 87.9193 62.5886   2
   0   3  18-83.0552 77.5038   2
   1  -3  18 83.2154 43.3931   2
   1   3  18 134.309 118.926   2
   2  -3  18 421.810 126.357   2
   2   3  18 365.773 153.426   2
   3  -3  18 120.534 73.9219   2
   3   3  18 22.9829 21.3524   2
   4  -3  18 221.550 89.8342   2
   4   3  18 218.262 96.1630   2
   5  -3  18 37.4934 51.2911   2
   5   3  18 39.6907 43.0866   2
  -5   3 -18 123.621 96.3237   1
   6  -3  18 276.468 112.039   2
   6   3  18 112.307 32.7570   2
  -6   3 -18 216.005 105.076   1
   7  -3  18 280.318 112.029   2
   7   3  18 250.954 106.167   2
  -7   3 -18 234.155 119.756   1
   8  -3  18-43.9170 61.9049   2
   8   3  18-65.3455 35.0427   2
  -8   3 -18-24.0592 42.0376   1
   8   3  18 32.3069 54.9745   3
   9   3  18 5.07984 19.2371   2
   9   3  18 33.2774 54.3100   3
   9  -3  18-19.7907 17.4775   2
  -9   3 -18-27.8966 44.8262   1
  10   3  18 518.568 146.845   2
 -10   3 -18 433.416 168.262   1
  10   3  18 576.522 150.661   3
  11   3  18 33.2562 91.6140   2
 -11   3 -18 103.252 108.039   1
  11   3  18-1.77543 20.3019   3
 -12   3 -18 89.3419 79.6489   1
  12   3  18-24.2934 33.0007   3
 -13   3 -18 25.0541 51.5799   1
  13   3  18 71.9275 55.9580   3
 -14   3 -18 37.2127 25.2179   1
  14   3  18-48.0879 45.3867   3
 -15   3 -18-66.4998 70.2759   1
  15   3  18-75.2250 56.0800   3
 -16   3 -18-108.862 90.9125   1
  16   3  18 148.913 74.3767   3
  17   3  18-45.9969 44.6406   3
 -17   3 -18-93.6983 84.7965   1
  18   3  18 140.079 76.5514   3
 -19  -4  18 591.343 317.406   2
 -18  -4  18 3.67322 65.6046   2
 -17   4  18 157.216 109.320   1
 -17  -4  18 206.398 179.039   2
 -17   4  18-11.9860 52.6474   2
 -16  -4  18 136.717 176.084   2
 -16   4  18 7.61016 44.1917   2
 -16   4  18 103.550 87.8138   1
 -15  -4  18 196.117 70.9604   2
 -15   4  18 198.779 218.572   2
 -14  -4  18 53.3509 126.250   2
 -14   4  18-256.813 194.950   2
 -13  -4  18 514.921 259.216   2
 -13   4  18 290.740 226.736   2
 -12  -4  18 360.519 189.922   2
 -12   4  18 284.719 196.991   2
 -11  -4  18 411.289 196.556   2
 -11   4  18 899.933 343.239   2
 -10  -4  18 307.910 173.460   2
 -10   4  18 500.563 275.841   2
  -9  -4  18 137.370 96.2553   2
  -9   4  18 10.0300 46.4259   2
  -8  -4  18 7.01316 33.6851   2
  -8   4  18-27.5788 63.1570   2
  -7  -4  18 86.3760 79.6049   2
  -7   4  18 400.279 248.508   2
  -6  -4  18 302.620 136.975   2
  -6   4  18 342.349 193.295   2
  -5  -4  18 213.544 134.914   2
  -5   4  18 86.2833 98.4284   2
  -4  -4  18 895.216 231.488   2
  -4   4  18 1091.37 330.649   2
  -3  -4  18 46.6447 58.0338   2
  -3   4  18 131.472 81.4214   2
  -2  -4  18 6.24454 49.1725   2
  -2   4  18-162.334 122.675   2
  -1  -4  18 392.655 145.363   2
  -1   4  18 735.140 261.745   2
   0  -4  18 30.8452 22.2898   2
   0   4  18 41.5096 39.9462   2
   1  -4  18 48.2218 58.2183   2
   1   4  18 201.459 147.130   2
   2  -4  18-56.6062 70.3014   2
   2   4  18-30.0232 60.3090   2
   3  -4  18 115.430 76.5328   2
   3   4  18 80.7048 65.9728   2
   4  -4  18 21.4662 24.5848   2
   4   4  18 43.1433 103.533   2
  -4   4 -18-12.1188 31.9694   1
   4   4  18 73.9526 59.8666   3
   5  -4  18 64.3154 74.9061   2
  -5   4 -18 5.84999 30.2479   1
   5   4  18-4.80174 80.7411   2
   5   4  18-33.9392 36.8036   3
   6  -4  18 16.8908 23.3043   2
   6   4  18-24.8471 39.2216   2
  -6   4 -18 29.6929 64.5717   1
   6   4  18 48.0524 38.8511   3
   7  -4  18 24.3120 40.5500   2
  -7   4 -18 59.0405 64.5856   1
   7   4  18 47.3079 32.6565   2
   7   4  18 18.6123 31.3184   3
  -8   4 -18 50.1848 60.1205   1
   8   4  18-28.2699 23.8438   3
   8  -4  18 57.0694 51.6111   2
  -9   4 -18 0.54814 68.9267   1
   9   4  18 29.4541 21.1599   3
 -10   4 -18-6.67292 25.6318   1
  10   4  18 27.7761 67.9075   3
 -11   4 -18 131.884 105.957   1
  11   4  18 30.1921 35.4788   3
 -12   4 -18 36.4072 61.3774   1
  12   4  18 39.2872 41.9944   3
 -13   4 -18 21.5540 59.4583   1
  13   4  18 188.749 81.8088   3
 -14   4 -18-107.467 92.0506   1
  14   4  18 70.2349 36.5105   3
  15   4  18 215.945 98.7938   3
 -15   4 -18 79.3168 79.4794   1
 -18  -5  18-22.6513 153.426   2
 -17  -5  18-127.501 141.193   2
 -16  -5  18-84.8695 142.252   2
 -16   5  18-110.814 133.173   2
 -15   5  18 196.309 120.535   1
 -15  -5  18 452.558 221.937   2
 -15   5  18 564.457 286.333   2
 -14   5  18 103.604 85.5812   1
 -14  -5  18 280.788 183.108   2
 -14   5  18 29.4230 72.0874   2
 -13   5  18 497.674 194.363   1
 -13  -5  18 153.386 101.280   2
 -12  -5  18 345.235 183.972   2
 -12   5  18 230.292 172.120   2
 -11   5  18 245.771 123.904   1
 -11  -5  18 301.554 169.474   2
 -11   5  18 280.767 161.765   2
 -10   5  18-119.904 120.909   2
 -10   5  18 111.135 85.4508   1
  -9  -5  18-72.8413 135.419   2
  -9   5  18 72.3888 93.6372   2
  -8  -5  18-49.3429 71.0122   2
  -8   5  18-140.239 129.268   2
  -7  -5  18 101.683 89.4388   2
  -7   5  18 101.407 107.813   2
  -6  -5  18-102.749 111.715   2
  -6   5  18 62.3846 62.1419   2
  -5  -5  18 8.28149 49.4440   2
  -5   5  18 122.442 114.415   2
  -4  -5  18 222.438 117.867   2
  -4   5  18 156.287 120.965   2
  -3  -5  18 2.72778 54.0446   2
  -3   5  18 297.095 167.140   2
  -2  -5  18-22.1146 56.6049   2
  -2   5  18 11.9974 10.8717   3
  -1  -5  18 51.2839 38.4184   2
  -1   5  18 110.481 98.2650   2
  -1   5  18 18.1926 37.7215   3
   0  -5  18 88.8932 85.1079   2
   0   5  18 131.166 104.014   2
   0   5  18 52.9399 54.3429   3
   1  -5  18 37.9935 58.3876   2
   1   5  18-70.0345 75.4750   2
   1   5  18-9.51803 32.3900   3
   2  -5  18 87.4437 22.3577   2
   2   5  18 167.103 110.003   2
   2   5  18 43.7904 39.1995   3
   3  -5  18 33.3607 63.8507   2
  -3   5 -18 9.87908 54.3409   1
   3   5  18-21.8786 24.7665   3
   4  -5  18-20.8842 18.5078   2
  -4   5 -18 9.96995 31.0541   1
   4   5  18-2.57360 45.4858   3
   5  -5  18-33.0623 54.5942   2
  -5   5 -18 0.28757 23.8274   1
   5   5  18 44.3663 51.7485   3
   6  -5  18 53.1190 67.6228   2
  -6   5 -18 92.1409 83.3390   1
   6   5  18 167.261 107.155   3
   7  -5  18-1.61335 46.8873   2
  -7   5 -18 42.9703 58.2041   1
   7   5  18 2.22958 22.2118   3
  -8   5 -18 114.159 93.2352   1
   8   5  18 27.5961 49.0375   3
   8  -5  18 10.5213 46.2499   2
  -9   5 -18 223.233 130.297   1
   9   5  18 358.688 121.182   3
 -10   5 -18-30.6997 50.9701   1
  10   5  18 9.55344 21.0727   3
 -11   5 -18 56.7622 68.0703   1
  11   5  18-30.0673 37.5647   3
 -15  -6  18 1113.17 376.638   2
 -14  -6  18 456.557 205.754   2
 -13   6  18 181.818 114.438   1
 -13  -6  18 50.3957 120.393   2
 -12   6  18 267.401 135.570   1
 -12  -6  18-35.7710 92.7010   2
 -12   6  18 154.978 73.5556   3
 -11   6  18-23.4348 41.7126   1
 -11   6  18-201.164 162.402   2
 -11   6  18-43.0995 38.7638   3
 -10   6  18-18.2720 36.0631   1
 -10  -6  18 115.518 107.018   2
 -10   6  18-81.0286 103.654   2
 -10   6  18 20.2707 28.3200   3
  -9   6  18-19.1877 35.8680   1
  -9  -6  18 20.8301 91.8710   2
  -9   6  18-164.175 139.723   2
  -9   6  18-33.6845 35.3218   3
  -8   6  18 252.090 120.937   1
  -8  -6  18 194.299 160.181   2
  -8   6  18 277.227 175.163   2
  -8   6  18 173.571 78.3028   3
  -7   6  18-83.8773 68.8595   1
  -7  -6  18 144.098 116.914   2
  -7   6  18-104.284 107.128   2
  -7   6  18-6.11253 17.9308   3
  -6   6  18 62.9706 58.5336   1
  -6  -6  18 124.495 74.1573   2
  -6   6  18 134.103 116.882   2
  -6   6  18 69.3433 53.6620   3
  -5   6  18-6.94707 21.0218   1
  -5  -6  18-4.02192 42.3801   2
  -5   6  18-86.4215 90.7965   2
  -5   6  18-13.4126 50.0552   3
  -4   6  18 118.346 84.9163   1
  -4  -6  18 143.278 121.320   2
  -4   6  18-81.9051 86.9110   2
  -4   6  18 97.7178 60.6168   3
  -3   6  18 1.25982 12.9524   1
  -3  -6  18 12.9273 34.2012   2
  -3   6  18 29.7881 34.9851   3
  -2   6  18 56.2422 50.0698   1
  -2  -6  18-68.9619 70.0080   2
  -2   6  18 125.398 70.4821   3
  -1   6  18 21.3731 31.0987   1
  -1  -6  18 75.2098 43.2338   2
  -1   6  18 129.811 66.2372   3
   0  -6  18 189.926 107.653   2
   0   6  18 229.186 95.5819   3
   1  -6  18 116.900 91.7485   2
   1   6  18-12.5693 59.6831   3
   2  -6  18 233.326 130.138   2
   2   6  18 308.981 115.641   3
  -3   6 -18 15.3098 82.7545   1
   3  -6  18 10.8224 46.4307   2
   3   6  18 112.432 86.0853   3
   4  -6  18-20.4361 39.4647   2
  -4   6 -18 69.2653 74.3563   1
   4   6  18-92.6172 63.1171   3
   5  -6  18 120.411 79.7618   2
  -5   6 -18-6.87120 27.1607   1
   5   6  18 56.0659 54.0772   3
   6  -6  18 297.325 137.687   2
  -6   6 -18 284.267 151.462   1
   6   6  18 199.988 100.203   3
  -7   6 -18 367.839 188.171   1
   7  -6  18 471.019 154.502   2
 -10   7  18 223.274 120.548   1
 -10  -7  18 65.0012 83.6207   2
  -9  -7  18-41.3117 65.3311   2
  -9   7  18-28.3443 33.1027   3
  -8   7  18 34.1984 46.4065   1
  -8  -7  18 4.06013 32.3914   2
  -8   7  18 76.3650 44.6434   3
  -7   7  18 92.1056 73.3539   1
  -7  -7  18 31.4514 82.4871   2
  -7   7  18 41.7357 40.7156   3
  -6  -7  18 12.1394 99.0146   2
  -6   7  18 150.735 78.7420   3
  -5  -7  18 587.319 199.536   2
  -5   7  18 147.015 86.4025   3
  -4  -7  18 25.8554 47.6409   2
  -4   7  18 149.253 79.0102   3
  -3  -7  18 450.583 184.277   2
  -3   7  18 344.346 120.979   3
  -2  -7  18-54.6872 67.9109   2
  -2   7  18-56.9077 49.0045   3
  -1  -7  18 30.4860 59.5225   2
  -1   7  18 20.3458 30.7069   3
   0  -7  18-160.653 100.130   2
   0   7  18-30.3650 38.3662   3
   1  -7  18-11.6047 37.3530   2
 -19   0  19 117.812 150.219   2
 -18   0  19-123.799 150.967   2
 -17   0  19-26.0987 72.7190   2
 -16   0  19-157.208 161.896   2
 -15   0  19 321.743 220.681   2
 -14   0  19-309.804 210.515   2
 -13   0  19 98.5682 117.540   2
 -12   0  19 27.3995 65.6850   2
 -11   0  19 4.92278 36.7565   2
 -10   0  19 0.40686 112.680   2
  -9   0  19-8.32535 134.568   2
  -8   0  19 85.4767 125.103   2
  -7   0  19-197.219 129.654   2
  -6   0  19-45.4740 135.767   2
  -5   0  19-110.903 92.6179   2
  -4   0  19-56.4118 23.9179   2
  -3   0  19-89.9571 77.1285   2
  -2   0  19 38.9133 22.9292   2
  -1   0  19 55.4053 75.0424   2
   0   0  19-7.06936 58.7452   2
   1   0  19 57.7795 47.0684   2
   2   0  19-15.7368 31.3148   2
   3   0  19 57.7145 65.7236   2
   4   0  19-46.4931 67.1557   2
   5   0  19 15.9642 53.0318   2
   6   0  19-21.0681 41.7607   2
   7   0  19-21.4299 34.9276   2
   8   0  19-7.38849 24.5788   2
   9   0  19-25.7603 43.7311   2
  10   0  19-3.66705 14.2767   2
  11   0  19 1.02744 37.8131   2
  12   0  19 36.9449 35.6537   2
  13   0  19 10.5009 53.2435   2
  14   0  19 50.3891 50.1706   2
  15   0  19 18.7437 43.6764   2
  15   0  19 67.5787 55.4806   3
  16   0  19-39.9474 41.2562   2
  16   0  19 88.5447 56.6588   3
 -16   0 -19-73.5791 68.3817   1
  17   0  19-6.14296 43.5796   2
 -17   0 -19 2.45629 20.2688   1
  17   0  19 22.8660 32.9561   3
 -18   0 -19-37.3844 50.9020   1
  18   0  19 40.1416 39.0745   3
  18   0  19 15.5113 57.1487   2
  19   0  19-64.1372 52.8968   2
 -20  -1  19 123.146 157.883   2
 -19  -1  19-58.9810 116.262   2
 -19   1  19-134.169 160.300   2
 -18  -1  19 329.404 250.343   2
 -18   1  19 409.756 268.444   2
 -17  -1  19-233.516 197.555   2
 -17   1  19 344.912 242.485   2
 -16  -1  19-2.39763 101.892   2
 -16   1  19 316.269 213.976   2
 -15  -1  19 64.4396 100.934   2
 -15   1  19-117.674 138.689   2
 -14  -1  19 157.600 182.065   2
 -14   1  19-277.763 204.609   2
 -13  -1  19 123.722 134.671   2
 -13   1  19 151.205 108.005   2
 -12  -1  19-69.6060 92.7325   2
 -12   1  19-188.841 161.270   2
 -11  -1  19 293.844 169.970   2
 -11   1  19 4.40670 40.2131   2
 -10  -1  19 120.638 62.6141   2
 -10   1  19 89.7988 164.671   2
  -9  -1  19 49.5484 72.7480   2
  -9   1  19 113.430 141.946   2
  -8  -1  19 137.914 115.148   2
  -8   1  19 63.8454 80.2173   2
  -7  -1  19 118.022 112.605   2
  -7   1  19 373.592 184.963   2
  -6  -1  19-27.8481 50.0569   2
  -6   1  19-15.4090 41.5055   2
  -5  -1  19 179.126 124.198   2
  -5   1  19 41.6850 62.0894   2
  -4  -1  19 13.1465 32.0739   2
  -4   1  19-71.4319 124.482   2
  -3  -1  19 527.875 185.222   2
  -3   1  19 640.369 203.869   2
  -2  -1  19 326.994 148.068   2
  -2   1  19 106.301 91.3995   2
  -1  -1  19 214.931 119.574   2
  -1   1  19 228.581 121.713   2
   0  -1  19 851.536 218.987   2
   0   1  19 601.790 191.166   2
   1  -1  19 87.6330 33.6757   2
   1   1  19 77.1893 52.6878   2
   2  -1  19 42.7507 54.4059   2
   2   1  19-43.3443 63.9672   2
   3  -1  19 154.374 93.3964   2
   3   1  19 334.279 142.071   2
   4  -1  19 348.651 124.468   2
   4   1  19 131.659 94.2154   2
   5  -1  19 777.834 185.413   2
   5   1  19 938.843 213.012   2
   6  -1  19 301.071 116.364   2
   6   1  19 294.634 122.885   2
   7  -1  19 953.273 199.685   2
   7   1  19 982.141 207.114   2
   8  -1  19 362.411 116.449   2
   8   1  19 376.749 128.876   2
   9  -1  19 235.534 96.4367   2
   9   1  19 45.3909 38.8650   2
  10  -1  19 52.0305 66.1323   2
  10   1  19 46.0179 55.4715   2
  11  -1  19 223.667 100.916   2
 -11   1 -19 210.726 93.4024   1
  11   1  19 197.505 97.0234   2
  12  -1  19-28.5136 34.9979   2
  12   1  19-12.8992 39.0566   2
 -12   1 -19-15.7104 58.7151   1
  13  -1  19-52.5626 58.8360   2
  13   1  19-14.9109 16.9018   2
 -13   1 -19 29.4197 50.3622   1
  13   1  19 23.4492 43.2077   3
  14   1  19 140.024 84.7935   2
 -14   1 -19 275.912 133.854   1
  14   1  19 60.9092 23.7581   3
  14  -1  19 123.372 70.7388   2
  15   1  19-78.2794 54.6958   2
 -15   1 -19 0.25781 26.9267   1
  15   1  19 2.04938 26.8401   3
  16   1  19 44.8113 37.5056   2
 -16   1 -19 7.35481 61.4792   1
  16   1  19 140.359 84.9105   3
  16  -1  19 21.3709 49.0578   3
  17   1  19-33.1378 43.1498   2
 -17   1 -19 83.2954 76.6755   1
  17   1  19 21.6408 45.6274   3
  17  -1  19 46.7275 40.4235   3
 -18   1 -19 36.8486 52.8941   1
  18   1  19 79.0842 67.5042   3
  19   1  19-1.52512 13.0522   3
 -19   1 -19-4.74921 24.0241   1
 -20   1 -19-173.311 112.685   1
  20   1  19 110.663 66.1600   3
 -19  -2  19 34.7478 96.9662   2
 -18  -2  19 452.467 270.049   2
 -18   2  19 349.764 249.508   2
 -17  -2  19 46.8088 64.8894   2
 -17   2  19 164.595 170.831   2
 -16  -2  19 374.371 262.689   2
 -16   2  19-21.1908 70.5488   2
 -15  -2  19 155.081 131.304   2
 -15   2  19 165.405 164.604   2
 -14  -2  19 96.3972 223.438   2
 -14   2  19 135.008 145.646   2
 -13  -2  19 72.4578 112.830   2
 -13   2  19 8.60239 128.885   2
 -12  -2  19 288.100 165.126   2
 -12   2  19 99.7753 121.907   2
 -11  -2  19 69.1546 96.9612   2
 -11   2  19-93.7308 115.931   2
 -10  -2  19-59.4041 153.444   2
 -10   2  19 137.814 95.6435   2
  -9  -2  19 254.490 154.646   2
  -9   2  19 170.139 144.084   2
  -8  -2  19 837.262 274.711   2
  -8   2  19 860.112 306.336   2
  -7  -2  19 208.508 121.230   2
  -7   2  19 1963.99 474.883   2
  -6  -2  19 100.717 75.0745   2
  -6   2  19 281.700 164.185   2
  -5  -2  19 7.76725 49.2374   2
  -5   2  19-12.2230 57.6777   2
  -4  -2  19 21.9309 22.3485   2
  -4   2  19 195.184 128.307   2
  -3  -2  19 36.9047 69.3419   2
  -3   2  19-19.0396 42.6549   2
  -2  -2  19 116.270 95.5445   2
  -2   2  19 357.672 164.164   2
  -1  -2  19 26.6820 55.0209   2
  -1   2  19-18.2932 99.7130   2
   0  -2  19 175.713 103.306   2
   0   2  19 161.844 66.4924   2
   1  -2  19-74.3318 62.0310   2
   1   2  19-80.3213 72.3525   2
   2  -2  19 80.1782 70.1257   2
   2   2  19 21.8507 50.9020   2
   3  -2  19 126.874 83.2200   2
   3   2  19 173.732 95.7237   2
   4  -2  19 202.679 96.0254   2
   4   2  19 38.7087 43.8495   2
   5  -2  19 320.671 122.107   2
   5   2  19 317.991 125.045   2
   6  -2  19 596.243 167.358   2
   6   2  19 675.908 183.935   2
   7  -2  19-45.9158 32.9471   2
   7   2  19-4.53639 39.2335   2
   8  -2  19 53.7564 58.9942   2
   8   2  19 95.7282 76.6408   2
  -8   2 -19 129.014 90.7880   1
   9  -2  19 167.186 89.7474   2
   9   2  19 79.4106 57.7632   2
  -9   2 -19 16.9982 40.4927   1
  10  -2  19 60.1383 54.8643   2
 -10   2 -19 49.8949 50.7541   1
  10   2  19 75.3177 66.8441   2
  11  -2  19 43.5610 36.2803   2
  11   2  19 153.282 86.5301   2
 -11   2 -19 15.3159 20.0360   1
  11   2  19 128.487 72.5052   3
  12   2  19 7.21127 37.9877   2
 -12   2 -19 31.6563 22.7921   1
  12   2  19 25.6952 47.3323   3
  12  -2  19 6.15867 49.7012   2
 -13   2 -19 26.7316 46.1102   1
  13   2  19 121.087 57.3717   2
  13   2  19 35.3882 38.1585   3
  14   2  19-7.56071 21.4356   2
 -14   2 -19-67.1892 74.4253   1
  14   2  19-0.46213 35.5741   3
 -15   2 -19-52.6301 73.9965   1
  15   2  19 119.050 78.6667   3
 -16   2 -19 101.237 86.1571   1
  16   2  19-0.79468 11.8415   3
 -17   2 -19 44.6961 59.5298   1
  17   2  19-24.3521 27.2826   3
 -18   2 -19 106.799 118.203   1
  18   2  19 131.563 80.8511   3
 -19   2 -19 195.647 126.796   1
  19   2  19 24.6195 39.1231   3
 -19  -3  19 287.937 276.727   2
 -18  -3  19 308.630 228.054   2
 -17  -3  19 12.1481 146.926   2
 -17   3  19-208.699 189.681   2
 -16  -3  19 187.694 177.987   2
 -16   3  19-162.268 166.796   2
 -15  -3  19 210.995 230.966   2
 -15   3  19 523.750 290.039   2
 -14  -3  19 191.084 203.260   2
 -14   3  19 282.897 209.688   2
 -13  -3  19-67.7351 107.716   2
 -13   3  19-64.5285 102.290   2
 -12  -3  19 23.2743 35.6676   2
 -12   3  19-18.5035 176.827   2
 -11  -3  19 119.413 76.7818   2
 -11   3  19 278.054 201.022   2
 -10  -3  19 84.2832 67.9686   2
 -10   3  19 491.506 256.562   2
  -9  -3  19 227.609 103.038   2
  -9   3  19 79.5920 133.628   2
  -8  -3  19 1128.21 320.330   2
  -8   3  19 1151.84 376.114   2
  -7  -3  19 217.347 135.393   2
  -7   3  19 7.26248 40.3364   2
  -6  -3  19 186.499 123.528   2
  -6   3  19 250.840 167.080   2
  -5  -3  19 151.685 119.655   2
  -5   3  19 150.541 155.921   2
  -4  -3  19 20.2102 74.4073   2
  -4   3  19-124.904 112.134   2
  -3  -3  19 349.056 142.471   2
  -3   3  19 402.149 218.534   2
  -2  -3  19 339.532 148.590   2
  -2   3  19 60.7529 75.5488   2
  -1  -3  19 92.7376 53.3490   2
  -1   3  19-25.1445 44.2005   2
   0  -3  19-33.3885 55.1229   2
   0   3  19 207.133 133.183   2
   1  -3  19 32.3552 72.9018   2
   1   3  19-8.05858 59.7642   2
   2  -3  19 254.175 111.601   2
   2   3  19 195.037 103.918   2
   3  -3  19 20.4293 42.5836   2
   3   3  19 186.187 109.033   2
   4  -3  19 8.24946 62.4796   2
   4   3  19-75.6452 101.977   2
   5  -3  19 82.6926 71.6550   2
   5   3  19 52.9472 56.5412   2
   6  -3  19 44.3182 35.9005   2
  -6   3 -19 61.7697 60.8232   1
   7  -3  19-26.1899 16.3169   2
   7   3  19 44.9676 42.3094   2
   8  -3  19 60.5036 50.4256   2
  -8   3 -19 17.4563 38.6448   1
   8   3  19 24.2464 35.0988   2
   8   3  19-35.5231 31.6257   3
   9  -3  19 36.1335 58.8903   2
   9   3  19 53.8469 62.9392   2
  -9   3 -19-15.7750 35.7934   1
   9   3  19 120.349 81.5154   3
  10  -3  19 218.323 101.539   2
  10   3  19 75.3761 65.7645   2
 -10   3 -19 265.437 139.844   1
  10   3  19 126.630 81.6778   3
  11   3  19 42.9287 64.6534   3
 -11   3 -19 25.9598 35.9897   1
 -12   3 -19 386.419 155.888   1
  12   3  19 397.339 123.352   3
 -13   3 -19 95.5821 63.3558   1
  13   3  19-8.57011 29.6861   3
 -14   3 -19 88.7705 82.4737   1
  14   3  19-1.97541 13.7237   3
 -15   3 -19 62.8139 71.5493   1
  15   3  19 27.2571 38.0173   3
 -16   3 -19 47.5975 48.3073   1
  16   3  19 22.8081 33.3835   3
 -18  -4  19 31.0021 136.264   2
 -17  -4  19 134.402 149.688   2
 -16  -4  19 265.012 245.237   2
 -16   4  19-144.106 154.924   2
 -16   4  19 154.721 122.572   1
 -15  -4  19 135.397 86.2089   2
 -15   4  19 80.3316 115.396   2
 -14  -4  19 320.611 225.305   2
 -14   4  19 33.0306 78.3831   2
 -13  -4  19 119.755 95.8498   2
 -13   4  19-2.30083 158.563   2
 -12  -4  19 417.450 236.582   2
 -12   4  19 55.4064 93.1317   2
 -11  -4  19-0.76322 67.5085   2
 -11   4  19 30.4979 73.5645   2
 -10  -4  19 68.6434 47.8143   2
 -10   4  19 192.159 161.917   2
  -9  -4  19 580.655 236.240   2
  -9   4  19 289.629 238.607   2
  -8  -4  19 206.170 124.155   2
  -8   4  19 534.764 289.515   2
  -7  -4  19 44.4533 53.2277   2
  -7   4  19 181.002 158.869   2
  -6  -4  19 66.5289 33.8121   2
  -6   4  19 262.564 186.770   2
  -5  -4  19 79.7915 92.0283   2
  -5   4  19-91.1391 104.253   2
  -4  -4  19 0.24870 89.3166   2
  -4   4  19 253.626 178.968   2
  -3  -4  19 577.818 201.636   2
  -3   4  19 815.876 298.185   2
  -2  -4  19-17.9801 30.5968   2
  -2   4  19 29.4512 53.2492   2
  -1  -4  19 86.9473 95.4253   2
  -1   4  19 14.5949 81.2193   2
   0  -4  19 397.455 154.525   2
   0   4  19 428.938 201.775   2
   1  -4  19 199.395 96.2964   2
   1   4  19 185.413 115.272   2
   2  -4  19-30.5079 55.5302   2
   2   4  19 90.1501 119.528   2
   3  -4  19 32.2249 41.5488   2
   3   4  19-65.4840 71.4320   2
   4  -4  19 21.7320 30.8954   2
   4   4  19 189.590 114.230   2
   4   4  19 69.0936 59.1601   3
   5  -4  19 51.2600 55.4532   2
  -5   4 -19 133.414 94.3397   1
   5   4  19 193.621 112.298   2
   5   4  19 247.830 99.9777   3
   6  -4  19 31.9989 45.6901   2
   6   4  19 40.8857 51.6359   2
  -6   4 -19-38.5782 54.6443   1
   6   4  19-13.6517 21.0292   3
   7  -4  19-7.60285 46.8927   2
   7   4  19 20.1112 25.1392   3
   8  -4  19-3.02170 40.0774   2
  -8   4 -19-23.7828 45.2530   1
   8   4  19 3.96948 32.4718   3
   9  -4  19 30.9141 40.5226   2
  -9   4 -19 99.5206 87.1466   1
   9   4  19 79.1478 58.1534   3
 -10   4 -19 112.314 92.5770   1
  10   4  19 25.9758 35.3758   3
  10  -4  19 125.534 89.2851   2
 -11   4 -19 101.061 54.4531   1
  11   4  19 26.1145 15.8502   3
 -12   4 -19 80.8124 80.9562   1
  12   4  19 179.499 85.4636   3
 -13   4 -19 40.7868 59.5729   1
  13   4  19 168.660 89.9660   3
 -16  -5  19 107.615 130.121   2
 -15  -5  19 144.563 113.501   2
 -15   5  19 22.4515 66.4930   2
 -14   5  19 90.7393 82.0862   1
 -14  -5  19 6.77114 40.0118   2
 -13   5  19 79.7490 75.8581   1
 -13  -5  19-14.2649 96.3187   2
 -13   5  19-71.3714 104.365   2
 -12   5  19 204.141 125.685   1
 -12  -5  19 82.6504 100.648   2
 -12   5  19-100.467 119.090   2
 -11  -5  19 43.0098 152.976   2
 -11   5  19 165.666 149.312   2
 -11   5  19-11.4756 75.7983   1
 -10  -5  19 40.6394 52.5633   2
 -10   5  19 89.6651 109.510   2
  -9  -5  19-54.8332 74.6219   2
  -9   5  19 38.5852 74.3131   2
  -8  -5  19-245.842 143.777   2
  -8   5  19-98.0944 110.258   2
  -7  -5  19 73.6353 107.066   2
  -7   5  19-133.490 126.685   2
  -6  -5  19 165.209 129.270   2
  -6   5  19-64.4449 88.2392   2
  -5  -5  19 139.588 129.095   2
  -5   5  19-66.3599 87.9020   2
  -4  -5  19 109.379 110.557   2
  -4   5  19-36.9780 117.337   2
  -3  -5  19 210.764 133.915   2
  -3   5  19-211.433 146.214   2
  -2  -5  19 28.1019 34.6358   2
  -2   5  19 274.243 162.387   2
  -1  -5  19 69.3151 70.7723   2
  -1   5  19-66.0638 80.0889   2
  -1   5  19 172.541 86.5438   3
   0  -5  19 48.3875 41.3856   2
   0   5  19 39.3655 62.1800   2
   0   5  19 29.5161 51.8419   3
   1  -5  19 216.415 97.4351   2
   1   5  19 279.355 150.983   2
   1   5  19 36.0286 52.9676   3
   2  -5  19 75.8225 56.4203   2
   2   5  19 118.955 76.2409   3
   3  -5  19-112.663 77.3978   2
   3   5  19 74.2365 69.3482   3
   4  -5  19 22.2771 58.0344   2
  -4   5 -19 27.9134 49.0094   1
   4   5  19 92.6895 71.9975   3
   5  -5  19-79.6134 62.7945   2
   5   5  19 71.3592 55.2263   3
  -5   5 -19 27.6883 52.2811   1
   6  -5  19-10.4293 33.5797   2
  -6   5 -19-22.9436 46.1196   1
   6   5  19 73.9456 76.6014   3
   7  -5  19 9.74405 47.8264   2
  -7   5 -19 32.4816 52.5675   1
   7   5  19 61.3929 56.2217   3
   8  -5  19-58.7776 35.1102   2
  -8   5 -19 31.0173 51.1163   1
   8   5  19-67.2835 54.9001   3
   9   5  19-5.20700 43.8794   3
  -9   5 -19-39.8652 58.5351   1
 -13  -6  19-457.973 234.543   2
 -13   6  19 91.0569 121.620   2
 -12   6  19 104.752 87.3182   1
 -12  -6  19 188.973 241.041   2
 -12   6  19 344.168 219.827   2
 -11   6  19-10.9713 31.0682   1
 -11  -6  19-4.50266 39.9638   2
 -11   6  19 5.22175 41.8699   2
 -11   6  19 21.9721 29.9007   3
 -10   6  19 120.627 96.1790   1
 -10  -6  19-12.9612 108.867   2
 -10   6  19-141.024 135.707   2
 -10   6  19-68.2346 50.2937   3
  -9   6  19 93.6163 77.6800   1
  -9  -6  19-336.975 178.379   2
  -9   6  19-186.189 150.652   2
  -9   6  19-9.77392 21.7918   3
  -8   6  19 20.8511 30.9881   1
  -8  -6  19-32.8299 107.279   2
  -8   6  19 97.3078 107.716   2
  -8   6  19 94.9337 57.9127   3
  -7   6  19 73.1508 65.7450   1
  -7   6  19 219.635 156.812   2
  -7   6  19 23.1569 51.9360   3
  -6   6  19-6.08423 41.1796   1
  -6  -6  19 19.5872 86.2886   2
  -6   6  19 105.134 106.364   2
  -6   6  19 17.6083 38.6876   3
  -5   6  19 134.298 85.0076   1
  -5  -6  19 137.477 102.991   2
  -4   6  19 107.910 84.0188   1
  -4  -6  19 161.745 147.857   2
  -4   6  19 45.9179 57.2829   3
  -3   6  19 73.9866 64.5780   1
  -3  -6  19 188.768 109.851   2
  -3   6  19 76.0968 68.1274   3
  -2   6  19 174.914 106.526   1
  -2  -6  19 62.2606 84.6884   2
  -2   6  19-20.9159 40.7553   3
  -1  -6  19-12.1968 37.5143   2
  -1   6  19 9.56145 27.8268   3
   0  -6  19-42.3579 54.5589   2
   0   6  19 51.1255 44.3430   3
   1  -6  19 68.7030 51.4665   2
   1   6  19 14.2413 50.2261   3
   2  -6  19 0.21953 53.1975   2
   2   6  19 74.4107 68.5093   3
   3  -6  19-29.1945 39.4234   2
   3   6  19 36.0849 38.2741   3
   4  -6  19 199.873 153.020   2
  -4   6 -19 197.747 128.194   1
   4   6  19 103.307 67.9606   3
  -8   7  19 98.9268 62.5498   3
  -7   7  19 27.5902 34.7865   3
  -6   7  19 95.1729 62.2201   3
  -5   7  19 140.137 90.7083   3
  -4   7  19 220.786 89.9979   3
 -18   0  20-382.744 265.787   2
 -17   0  20 38.8823 90.1005   2
 -16   0  20 3290.95 851.071   2
 -15   0  20-57.2925 98.6645   2
 -14   0  20 89.3693 140.806   2
 -13   0  20 13.1026 53.4478   2
 -12   0  20 127.803 157.518   2
 -11   0  20 784.071 304.883   2
 -10   0  20-25.4869 115.123   2
  -9   0  20 87.6836 132.412   2
  -8   0  20 193.525 137.052   2
  -7   0  20 314.481 143.754   2
  -6   0  20 171.208 104.327   2
  -5   0  20-3.35223 95.5027   2
  -4   0  20 765.456 234.734   2
  -3   0  20 1106.14 272.102   2
  -2   0  20 80.4272 77.7903   2
  -1   0  20 872.991 236.181   2
   0   0  20 364.131 158.765   2
   1   0  20 356.242 140.665   2
   2   0  20 870.376 226.479   2
   3   0  20 1172.60 253.562   2
   4   0  20 101.350 83.8207   2
   5   0  20 1302.56 251.145   2
   6   0  20 12.8545 131.571   2
   7   0  20 1947.95 298.844   2
   8   0  20 256.828 114.174   2
   9   0  20 63.5525 63.3915   2
  10   0  20 144.400 85.6868   2
  11   0  20 247.818 95.0805   2
  12   0  20 201.459 102.929   2
  13   0  20-57.7601 55.9311   2
  14   0  20 79.2879 60.2531   2
  15   0  20-89.2672 67.6502   2
  15   0  20-25.4407 54.4917   3
  16   0  20 230.312 98.7605   2
  16   0  20 87.3463 52.3480   3
  17   0  20-13.8453 45.9552   2
  17   0  20-24.6809 32.5182   3
  18   0  20-38.8816 43.3386   2
  18   0  20 27.8231 40.8256   3
  19   0  20 52.5503 49.9363   2
 -18  -1  20-225.604 205.032   2
 -18   1  20 16.4875 69.0305   2
 -17  -1  20-179.796 179.677   2
 -17   1  20-75.5041 121.179   2
 -16  -1  20 15.8052 225.814   2
 -16   1  20-385.814 259.638   2
 -15  -1  20 154.542 132.572   2
 -15   1  20 5.74410 51.3468   2
 -14  -1  20-207.614 172.626   2
 -14   1  20-304.916 219.604   2
 -13  -1  20 9.17270 89.8292   2
 -13   1  20 119.643 136.960   2
 -12  -1  20-133.242 129.514   2
 -12   1  20-3.24788 87.5098   2
 -11  -1  20 157.352 104.523   2
 -11   1  20-121.591 144.528   2
 -10  -1  20 341.792 184.109   2
 -10   1  20 146.478 143.938   2
  -9  -1  20 3.78716 39.7417   2
  -9   1  20 118.311 177.295   2
  -8  -1  20-42.6936 55.4093   2
  -8   1  20 9.87948 78.9323   2
  -7  -1  20 13.1110 96.8078   2
  -7   1  20 15.3340 123.338   2
  -6  -1  20-36.8546 39.4660   2
  -6   1  20 35.3605 81.8238   2
  -5  -1  20 2.04993 44.0073   2
  -5   1  20 188.332 128.423   2
  -4  -1  20 64.6398 70.0542   2
  -4   1  20 252.076 115.288   2
  -3  -1  20 35.1745 40.3708   2
  -3   1  20-10.3403 76.9046   2
  -2  -1  20-83.6397 74.3115   2
  -2   1  20 346.509 152.327   2
  -1  -1  20 206.295 116.929   2
  -1   1  20 34.3080 60.6628   2
   0  -1  20 147.214 94.9077   2
   0   1  20 206.723 124.613   2
   1  -1  20 413.702 153.220   2
   1   1  20 264.187 133.239   2
   2  -1  20-22.3801 44.8649   2
   2   1  20 64.6312 67.5885   2
   3  -1  20 81.6306 46.9813   2
   3   1  20 227.388 112.470   2
   4  -1  20-34.0313 43.4811   2
   4   1  20 64.5258 84.7249   2
   5   1  20 1627.68 289.302   2
   5  -1  20 1894.37 304.884   2
   6  -1  20 571.030 167.582   2
   6   1  20 477.701 150.761   2
   7  -1  20 2236.65 323.128   2
   7   1  20 2177.03 325.139   2
   8  -1  20 235.762 108.279   2
   8   1  20 118.787 87.8361   2
   9  -1  20 370.874 126.716   2
   9   1  20 336.234 119.541   2
  10  -1  20 227.227 107.203   2
  10   1  20 185.631 83.0155   2
  11  -1  20-14.9103 35.7197   2
  11   1  20 38.9666 47.8962   2
  12  -1  20-21.0694 27.1992   2
  12   1  20-62.2789 62.9411   2
  13  -1  20 9.43139 49.5762   2
  13   1  20 39.0230 42.2241   2
 -13   1 -20-125.118 92.6318   1
  13   1  20 118.031 80.5841   3
  14  -1  20 187.611 92.7879   2
  14   1  20 58.7368 67.1337   2
 -14   1 -20 170.725 102.448   1
  14   1  20 148.604 84.4569   3
  15  -1  20-48.3656 63.6834   2
  15   1  20-47.8792 62.6417   2
 -15   1 -20-48.3888 69.4053   1
  15   1  20 4.02722 16.8912   3
  16  -1  20 8.42618 24.5830   2
  16   1  20-23.1718 62.5569   2
 -16   1 -20-128.915 96.9095   1
  16   1  20-56.8109 50.0032   3
  16  -1  20 94.1756 58.2423   3
  17   1  20 176.869 84.9655   3
 -17   1 -20 110.975 90.5607   1
  17  -1  20 107.533 70.7121   2
 -18   1 -20-130.650 99.2786   1
  18   1  20 52.0062 47.5607   3
  18  -1  20 167.748 88.3037   2
 -19   1 -20-15.5501 39.0983   1
  19   1  20-92.1016 62.0539   3
 -18  -2  20 778.496 402.909   2
 -17  -2  20 5.84313 132.135   2
 -17   2  20 385.138 262.330   2
 -16  -2  20 646.854 266.976   2
 -16   2  20 346.281 314.346   2
 -15  -2  20-316.231 215.234   2
 -15   2  20 352.171 243.345   2
 -14  -2  20 166.777 81.2349   2
 -14   2  20-15.0512 114.430   2
 -13  -2  20 317.551 222.853   2
 -13   2  20 227.324 228.216   2
 -12  -2  20 43.9837 32.1114   2
 -12   2  20-131.405 143.026   2
 -11  -2  20 53.7378 96.6283   2
 -11   2  20-18.7252 62.3888   2
 -10  -2  20 264.483 123.254   2
 -10   2  20 315.972 206.924   2
  -9  -2  20 412.000 211.371   2
  -9   2  20 294.336 213.063   2
  -8  -2  20 82.9554 99.0028   2
  -8   2  20 73.2904 97.5606   2
  -7  -2  20 175.584 138.301   2
  -7   2  20 311.751 228.512   2
  -6  -2  20 61.4728 96.9296   2
  -6   2  20 127.544 153.920   2
  -5  -2  20 574.009 215.275   2
  -5   2  20 492.055 207.364   2
  -4  -2  20-55.9793 66.9771   2
  -4   2  20 156.348 136.240   2
  -3  -2  20 83.0164 82.1320   2
  -3   2  20 100.893 104.823   2
  -2  -2  20 17.4942 84.5082   2
  -2   2  20 81.6314 86.2906   2
  -1  -2  20 41.1678 78.7159   2
  -1   2  20-117.661 95.9334   2
   0  -2  20 46.4639 53.9688   2
   0   2  20-160.816 107.856   2
   1  -2  20 14.4526 63.4687   2
   1   2  20-10.6109 47.6210   2
   2  -2  20 59.5243 47.6875   2
   2   2  20 80.0774 60.5281   2
   3  -2  20 168.704 103.150   2
   3   2  20 252.273 128.016   2
   4  -2  20 25.2834 42.5938   2
   4   2  20 40.1549 64.5922   2
   5  -2  20 86.3097 61.2397   2
   5   2  20 49.0968 54.5369   2
   6  -2  20 729.456 190.254   2
   6   2  20 524.093 166.815   2
   7  -2  20 23.0934 18.1234   2
   7   2  20 35.8769 37.6873   2
   8  -2  20 107.966 61.3434   2
   8   2  20 27.4389 38.1240   2
   9  -2  20 23.3128 17.3176   2
   9   2  20 2.15795 16.5245   2
  10  -2  20 137.959 74.9708   2
  10   2  20 118.096 82.9642   2
 -10   2 -20 73.0267 57.8312   1
  11  -2  20 222.429 113.228   2
  11   2  20 357.233 142.614   2
 -11   2 -20 128.755 88.2501   1
  11   2  20 196.971 90.3106   3
  12  -2  20 107.365 80.2247   2
 -12   2 -20 11.4880 32.3369   1
  12   2  20 167.542 87.3254   2
  12   2  20 56.8788 48.6665   3
  13  -2  20-1.39641 48.0973   2
  13   2  20 24.5453 18.3362   2
 -13   2 -20-70.5066 73.4519   1
  13   2  20 87.2389 66.9541   3
 -14   2 -20 176.201 120.111   1
  14   2  20 187.362 83.6037   3
  14  -2  20 178.124 101.283   2
 -15   2 -20 134.297 111.175   1
  15   2  20 166.394 85.4652   3
 -16   2 -20 245.550 137.076   1
  16   2  20 215.338 92.0241   3
  17   2  20 30.4946 46.0467   3
 -17   2 -20-259.471 142.250   1
 -17  -3  20 105.678 110.787   2
 -16  -3  20 3.51911 49.0419   2
 -16   3  20 197.463 297.588   2
 -15  -3  20-12.0787 55.4931   2
 -15   3  20-178.093 176.645   2
 -14  -3  20 280.175 218.249   2
 -14   3  20 178.109 172.187   2
 -13  -3  20-1.40523 85.7589   2
 -13   3  20-61.1514 102.953   2
 -12  -3  20-172.478 142.283   2
 -12   3  20 355.973 232.595   2
 -11  -3  20 134.157 134.077   2
 -11   3  20-254.047 194.105   2
 -10  -3  20 53.0476 99.9084   2
 -10   3  20 200.796 150.864   2
  -9  -3  20 146.123 94.9852   2
  -9   3  20 276.933 195.121   2
  -8  -3  20-3.33771 115.673   2
  -8   3  20 13.5753 62.4052   2
  -7  -3  20 234.733 167.585   2
  -7   3  20-225.806 167.940   2
  -6  -3  20 151.122 124.515   2
  -6   3  20 151.943 135.783   2
  -5  -3  20 5.85798 68.4579   2
  -5   3  20-25.3171 98.1041   2
  -4  -3  20-34.3569 100.826   2
  -4   3  20 42.3147 81.7047   2
  -3  -3  20 142.267 108.129   2
  -3   3  20-46.8635 92.2863   2
  -2  -3  20 204.496 116.231   2
  -2   3  20 145.944 113.037   2
  -1  -3  20 263.233 140.911   2
  -1   3  20 56.3064 26.4055   2
   0  -3  20 44.6717 54.3931   2
   0   3  20-11.4888 37.2197   2
   1  -3  20 64.8670 91.7237   2
   1   3  20-96.4448 87.5251   2
   2  -3  20 169.974 118.230   2
   2   3  20 110.967 90.7419   2
   3  -3  20 8.58886 34.2241   2
   3   3  20 109.205 86.8965   2
   4  -3  20 50.5265 59.6556   2
   4   3  20-80.4005 73.0605   2
   5  -3  20 81.3070 74.1985   2
   5   3  20-24.9108 43.1070   2
   6  -3  20 390.905 148.583   2
   6   3  20 180.378 102.275   2
   7  -3  20 373.002 144.572   2
   7   3  20-62.4543 60.4678   2
   8  -3  20 157.005 77.2650   2
   8   3  20-6.13000 43.5240   2
  -8   3 -20 168.598 114.780   1
   8   3  20 222.946 110.462   3
   9  -3  20 42.0357 43.0550   2
   9   3  20-41.7276 76.7786   2
  -9   3 -20 152.155 106.828   1
   9   3  20 29.1429 46.4286   3
  10  -3  20 118.989 86.7408   2
  10   3  20 35.1314 47.0235   3
 -10   3 -20 25.9610 33.3122   1
  11  -3  20 29.3360 39.2853   2
 -11   3 -20 38.4424 56.8304   1
  11   3  20 22.5573 39.9522   3
 -12   3 -20 211.969 116.620   1
  12   3  20-37.9334 48.7437   3
  12  -3  20 145.670 96.9681   2
 -13   3 -20 93.9134 87.4147   1
  13   3  20 82.6577 70.7193   3
  13  -3  20-46.8308 49.5946   2
  14   3  20 157.683 90.5608   3
 -14   3 -20 155.076 128.374   1
 -16  -4  20 301.433 215.531   2
 -15  -4  20 91.1811 160.879   2
 -15   4  20-149.267 159.612   2
 -14  -4  20 534.432 264.199   2
 -14   4  20 481.328 317.473   2
 -13  -4  20 113.611 120.463   2
 -13   4  20-272.214 206.424   2
 -12  -4  20-65.1259 155.540   2
 -12   4  20-139.045 148.836   2
 -11  -4  20-82.9951 48.7921   2
 -11   4  20 253.458 194.754   2
 -10  -4  20-39.3681 69.0508   2
 -10   4  20 20.3910 63.9700   2
  -9  -4  20 55.8264 94.8243   2
  -9   4  20 341.200 216.473   2
  -8  -4  20 65.4355 57.4756   2
  -8   4  20-135.065 136.244   2
  -7  -4  20 87.3406 83.9237   2
  -7   4  20 126.729 31.0589   2
  -6  -4  20 164.056 106.044   2
  -6   4  20 196.460 157.296   2
  -5  -4  20 142.146 134.806   2
  -5   4  20-151.759 135.844   2
  -4  -4  20 379.291 179.661   2
  -4   4  20 355.012 195.308   2
  -3  -4  20 956.689 272.191   2
  -3   4  20 788.383 291.388   2
  -2  -4  20 163.365 130.283   2
  -2   4  20-182.962 43.4034   2
  -1  -4  20 110.874 89.3577   2
  -1   4  20 287.089 168.825   2
   0  -4  20 701.995 199.451   2
   0   4  20 881.163 283.869   2
   1  -4  20 812.261 222.486   2
   1   4  20 714.467 281.344   2
   2  -4  20 114.723 75.7418   2
   2   4  20 181.715 129.795   2
   3  -4  20-10.4760 54.6964   2
   3   4  20-192.600 123.021   2
   4  -4  20 91.1360 104.152   2
   4   4  20 116.199 109.609   2
   5  -4  20-45.3142 65.8663   2
   5   4  20 19.1047 43.1827   3
   6  -4  20-11.0387 54.8158   2
  -6   4 -20 69.0916 73.7103   1
   6   4  20-0.64805 32.4538   3
   7  -4  20 32.5799 43.5960   2
  -7   4 -20 47.6389 67.8504   1
   7   4  20 75.2788 69.8901   3
   8  -4  20 4.38272 34.2833   2
  -8   4 -20-49.0773 63.3544   1
   8   4  20 35.8115 40.7791   3
   9  -4  20 136.814 75.1158   2
  -9   4 -20-37.2316 55.6503   1
   9   4  20 132.916 88.3283   3
  10  -4  20-33.5595 60.7284   2
 -10   4 -20-17.2863 40.9725   1
  10   4  20-62.9270 53.7588   3
  11  -4  20-12.0409 26.9843   2
  11   4  20-22.3288 58.2083   3
 -14  -5  20 69.9449 46.2079   2
 -13  -5  20 211.342 163.520   2
 -13   5  20-194.398 171.527   2
 -12  -5  20-112.667 117.572   2
 -12   5  20-9.13151 55.2436   1
 -11  -5  20 165.176 136.247   2
 -11   5  20-127.012 134.621   2
 -10  -5  20 145.607 93.2606   2
 -10   5  20-224.615 175.111   2
  -9  -5  20 100.354 118.457   2
  -9   5  20 130.090 140.891   2
  -8  -5  20-187.601 131.717   2
  -8   5  20-331.911 205.806   2
  -7  -5  20-17.4829 54.4369   2
  -7   5  20-107.041 117.527   2
  -6  -5  20-21.1198 50.3236   2
  -6   5  20 198.415 155.960   2
  -5  -5  20 175.156 129.255   2
  -5   5  20 108.414 157.887   2
  -4  -5  20 47.6442 92.1602   2
  -4   5  20-49.3034 79.9407   2
  -3  -5  20 98.4145 113.902   2
  -3   5  20 53.9275 80.2981   2
  -2  -5  20-40.9376 36.7325   2
  -2   5  20 199.322 143.150   2
  -1  -5  20 468.845 165.662   2
  -1   5  20 258.847 159.166   2
  -1   5  20 585.579 156.650   3
   0  -5  20 92.9871 95.3846   2
   0   5  20 119.610 67.5537   3
   1  -5  20 61.0694 104.966   2
   1   5  20 106.789 66.7111   3
   2  -5  20-2.01230 65.9241   2
   2   5  20 63.2795 52.1962   3
   3  -5  20 36.3484 57.2289   2
   3   5  20 80.9500 59.1400   3
   4  -5  20 53.8751 60.0658   2
   4   5  20 60.6194 38.5397   3
   5  -5  20 17.1728 31.9384   2
  -5   5 -20 35.0589 54.6228   1
   5   5  20 168.165 99.5031   3
   6  -5  20 80.4918 69.6202   2
  -6   5 -20 12.2798 35.8708   1
   6   5  20 52.9927 68.8713   3
   7  -5  20 79.4426 66.2286   2
  -7   5 -20 44.7237 63.1047   1
   7   5  20 62.3766 77.0282   3
 -12   6  20 446.690 254.071   2
 -11   6  20-367.931 224.742   2
 -11   6  20 36.8014 55.0387   3
 -10   6  20-25.1882 43.2959   1
 -10   6  20 49.1845 44.8224   3
  -9   6  20-45.8422 55.5346   1
  -9  -6  20-69.3284 40.8342   2
  -9   6  20 53.2097 86.3177   2
  -9   6  20 42.4558 53.9105   3
  -8   6  20 12.6197 31.2412   1
  -8  -6  20 60.6114 114.117   2
  -8   6  20 125.353 124.665   2
  -8   6  20 3.55001 16.0480   3
  -7   6  20 2.37233 18.2525   1
  -7  -6  20 104.713 72.2506   2
  -7   6  20 36.5542 60.5771   3
  -6   6  20 107.636 85.2408   1
  -6  -6  20 154.884 115.317   2
  -6   6  20 157.181 80.0274   3
  -5   6  20 187.936 102.339   1
  -5  -6  20 466.755 193.296   2
  -5   6  20 121.513 70.7547   3
  -4   6  20-38.3524 46.5342   1
  -4  -6  20 81.7747 144.809   2
  -4   6  20 80.5187 58.5442   3
  -3   6  20 28.6406 39.9771   1
  -3  -6  20 37.8666 77.6286   2
  -3   6  20 71.2724 55.5118   3
  -2  -6  20 26.0262 47.1094   2
  -2   6  20-3.48307 16.4003   3
  -1  -6  20-144.845 102.238   2
  -1   6  20 11.4174 42.6745   3
   0  -6  20 82.0847 73.7276   2
   0   6  20 306.820 115.646   3
 -17   0  21 2.86861 43.0782   2
 -16   0  21 134.095 223.551   2
 -15   0  21 59.0970 155.049   2
 -14   0  21-169.674 164.745   2
 -13   0  21-331.752 222.395   2
 -12   0  21-240.815 183.126   2
 -11   0  21-23.1255 62.0001   2
 -10   0  21-15.4994 60.3829   2
  -9   0  21 35.8574 87.4457   2
  -8   0  21 25.5454 124.573   2
  -7   0  21-43.7978 70.2909   2
  -6   0  21-21.4623 120.395   2
  -5   0  21 4.31570 65.8817   2
  -4   0  21-140.195 108.439   2
  -3   0  21 16.0346 72.0720   2
  -2   0  21-30.9514 83.3374   2
  -1   0  21 67.4841 69.6428   2
   0   0  21 18.6197 63.7074   2
   1   0  21-20.0659 65.9992   2
   2   0  21 129.785 87.6153   2
   3   0  21 68.5971 90.9899   2
   4   0  21 173.732 97.7595   2
   5   0  21 52.4690 74.9236   2
   6   0  21 1.77962 36.2699   2
   7   0  21 15.4913 56.7154   2
   8   0  21-21.5718 36.0282   2
   9   0  21-52.0574 52.1557   2
  10   0  21 12.8895 27.2981   2
  11   0  21 68.5795 74.3861   2
  12   0  21-50.2149 49.3993   2
  13   0  21-42.0815 45.6806   2
  14   0  21 72.5928 58.8085   2
  15   0  21-126.266 76.6872   2
  15   0  21 54.4488 29.4553   3
  16   0  21 60.0653 79.5854   2
  16   0  21 49.9480 50.9637   3
  17   0  21-6.37279 22.7697   2
  17   0  21-0.47281 12.3998   3
  18   0  21 159.465 84.3622   2
 -17  -1  21 884.205 399.228   2
 -16  -1  21 56.9993 105.331   2
 -16   1  21-535.832 310.782   2
 -15  -1  21 261.853 154.637   2
 -15   1  21 110.184 142.421   2
 -14  -1  21 515.877 325.629   2
 -14   1  21 107.572 140.382   2
 -13  -1  21-246.224 185.413   2
 -13   1  21-238.028 194.653   2
 -12  -1  21 116.333 124.565   2
 -12   1  21 238.038 172.971   2
 -11  -1  21 103.404 72.8258   2
 -11   1  21 163.702 152.034   2
 -10  -1  21 171.737 138.911   2
 -10   1  21 83.8982 108.565   2
  -9  -1  21 102.442 113.671   2
  -9   1  21 90.4044 138.618   2
  -8  -1  21-180.503 134.009   2
  -8   1  21 365.998 203.211   2
  -7  -1  21-48.4560 79.6344   2
  -7   1  21-60.3307 83.5461   2
  -6  -1  21 102.988 107.820   2
  -6   1  21 277.902 120.148   2
  -5  -1  21 61.9194 71.2841   2
  -5   1  21 107.971 124.208   2
  -4  -1  21 49.4564 84.5631   2
  -4   1  21-46.1796 116.635   2
  -3  -1  21-13.4049 43.1489   2
  -3   1  21 24.2637 26.1064   2
  -2  -1  21 90.9426 80.4678   2
  -2   1  21-97.0951 100.147   2
  -1  -1  21-8.33750 30.0561   2
  -1   1  21-13.5351 37.3997   2
   0  -1  21-1.44303 52.8360   2
   0   1  21-31.5303 106.051   2
   1  -1  21 42.6251 101.594   2
   1   1  21 38.2557 52.2201   2
   2  -1  21 419.393 168.756   2
   2   1  21 172.497 103.783   2
   3  -1  21 160.514 93.1053   2
   3   1  21 348.682 151.752   2
   4  -1  21 240.480 117.755   2
   4   1  21 163.270 93.7319   2
   5  -1  21 47.1014 48.0566   2
   5   1  21 58.5146 58.6658   2
   6  -1  21 268.387 115.734   2
   6   1  21 411.537 163.006   2
   7  -1  21 952.279 220.902   2
   7   1  21 848.623 221.949   2
   8  -1  21 308.286 139.286   2
   8   1  21 264.508 121.521   2
   9  -1  21 28.8197 32.1662   2
   9   1  21 2.27166 61.1764   2
  10  -1  21 136.485 82.8695   2
  10   1  21 137.744 77.5640   2
  11  -1  21 42.9247 49.3911   2
  11   1  21 84.9161 73.1563   2
  12  -1  21-38.8529 61.9961   2
  12   1  21-13.9251 68.2490   2
  13  -1  21-55.7792 52.8225   2
  13   1  21 150.302 90.3223   2
  13   1  21 59.2058 65.6404   3
  14  -1  21 26.7750 37.4884   2
  14   1  21-46.7288 66.3442   2
  14   1  21 6.30593 24.7525   3
  15  -1  21 44.9887 34.3241   2
  15   1  21 43.2232 65.6881   3
 -16   1 -21 109.476 114.970   1
  16  -1  21 234.606 115.783   2
  16   1  21 184.979 86.9809   2
  16   1  21 179.780 90.9274   3
  16  -1  21 233.286 89.4188   3
  17  -1  21 73.1468 60.6236   2
 -17   1 -21 234.441 149.429   1
  17   1  21 41.7058 43.4913   3
 -18   1 -21 16.6441 41.1361   1
  18   1  21-21.0071 32.1741   3
 -16  -2  21 118.812 225.138   2
 -16   2  21-48.7571 96.7166   2
 -15  -2  21 116.351 54.5982   2
 -15   2  21 380.202 258.920   2
 -14  -2  21 81.7265 243.517   2
 -14   2  21 63.3389 165.943   2
 -13  -2  21 138.924 94.6286   2
 -13   2  21 83.5925 123.738   2
 -12  -2  21 77.6601 121.764   2
 -12   2  21 252.035 201.053   2
 -11  -2  21 212.557 156.343   2
 -11   2  21 146.088 105.559   2
 -10  -2  21 9.94583 34.9974   2
 -10   2  21 122.506 135.485   2
  -9  -2  21-1.17113 95.4551   2
  -9   2  21 240.207 253.374   2
  -8  -2  21 147.225 102.048   2
  -8   2  21 244.613 201.374   2
  -7  -2  21 110.816 91.3252   2
  -7   2  21 159.729 172.478   2
  -6  -2  21-128.473 105.056   2
  -6   2  21 130.777 123.251   2
  -5  -2  21 138.517 119.833   2
  -5   2  21 5.28856 36.0383   2
  -4  -2  21 25.8584 25.2787   2
  -4   2  21-188.794 137.353   2
  -3  -2  21 66.5905 75.5110   2
  -3   2  21 30.4736 57.5991   2
  -2  -2  21 133.558 114.791   2
  -2   2  21-48.4244 41.2127   2
  -1  -2  21 103.262 104.046   2
  -1   2  21-16.5060 79.4935   2
   0  -2  21 89.7809 75.1332   2
   0   2  21 18.1731 80.1018   2
   1  -2  21 125.809 87.2961   2
   1   2  21-29.6379 111.692   2
   2  -2  21-41.0574 73.1495   2
   2   2  21-70.7750 94.4137   2
   3  -2  21-6.51839 40.0259   2
   3   2  21 13.4965 54.4666   2
   4  -2  21-112.886 79.0014   2
   4   2  21 48.3697 28.5045   2
   5  -2  21 15.7896 52.2290   2
   5   2  21 30.7964 73.8625   2
   6  -2  21 378.900 201.711   2
   6   2  21 313.658 145.416   2
   7  -2  21 28.7385 64.2320   2
   7   2  21 3.21555 21.4438   2
   8  -2  21 41.8842 42.2271   2
   8   2  21 99.4775 63.0053   2
   9  -2  21 106.811 55.8848   2
   9   2  21-162.545 92.2132   2
  10  -2  21 20.8551 66.0945   2
  10   2  21 49.5379 51.5063   2
  11  -2  21-12.6796 41.1905   2
  11   2  21 25.4650 38.2077   2
  11   2  21 50.8619 62.8883   3
  12  -2  21 74.1071 75.8738   2
 -12   2 -21 76.3692 47.7554   1
  12   2  21 113.151 75.5547   2
  12   2  21-6.81840 45.2728   3
  13  -2  21 114.151 82.4523   2
 -13   2 -21 48.6428 71.8686   1
  13   2  21 50.5084 53.4015   3
  14  -2  21-28.3336 63.7545   2
 -14   2 -21 4.56885 47.0449   1
  14   2  21-15.5914 47.5870   3
  15  -2  21 84.3550 63.6828   2
 -15   2 -21 224.178 180.901   1
  15   2  21 25.8720 35.5321   3
 -16   2 -21 260.998 140.145   1
 -15  -3  21 10.4258 144.283   2
 -15   3  21 171.892 176.958   2
 -14  -3  21-198.104 169.308   2
 -14   3  21 183.298 180.970   2
 -13  -3  21-88.5791 101.278   2
 -13   3  21 30.2004 129.412   2
 -12  -3  21-271.615 182.088   2
 -12   3  21 207.507 222.111   2
 -11  -3  21-7.87969 54.5253   2
 -11   3  21 20.4149 92.1217   2
 -10  -3  21 7.84667 67.6644   2
 -10   3  21 20.2183 63.6153   2
  -9  -3  21 534.109 217.023   2
  -9   3  21 296.590 219.538   2
  -8  -3  21 78.1149 48.9572   2
  -8   3  21 131.012 158.258   2
  -7  -3  21-115.843 103.965   2
  -7   3  21 199.134 163.359   2
  -6  -3  21 377.238 168.528   2
  -6   3  21 142.066 171.346   2
  -5  -3  21-12.0832 84.9578   2
  -5   3  21 223.327 156.867   2
  -4  -3  21 232.398 138.098   2
  -4   3  21 635.340 268.304   2
  -3  -3  21 632.676 215.271   2
  -3   3  21 626.989 266.043   2
  -2  -3  21 13.0617 38.0381   2
  -2   3  21-9.17749 53.7656   2
  -1  -3  21 42.0600 78.1380   2
  -1   3  21 188.303 132.063   2
   0  -3  21 61.2229 89.7762   2
   0   3  21-14.6727 42.5685   2
   1  -3  21 121.653 93.7445   2
   1   3  21 77.9958 100.523   2
   2  -3  21 218.974 101.605   2
   2   3  21 181.241 108.857   2
   3  -3  21-37.9804 48.6898   2
   3   3  21-1.14241 21.5307   2
   4  -3  21 80.8419 88.1197   2
   4   3  21-29.5148 49.9211   2
   5  -3  21 51.3597 85.7106   2
   5   3  21-222.055 120.906   2
   6  -3  21 119.606 80.3895   2
   6   3  21 135.300 51.6508   2
   7  -3  21 515.970 179.417   2
   7   3  21 276.388 140.580   2
   8  -3  21 238.095 111.262   2
   8   3  21 346.676 122.011   2
   9  -3  21 65.6652 62.2620   2
   9   3  21 13.7979 62.0835   3
  -9   3 -21-26.7146 76.7382   1
 -10   3 -21 72.8030 78.0468   1
  10   3  21 3.25107 15.9603   3
  11  -3  21 119.378 78.4604   2
 -11   3 -21 220.194 132.985   1
  11   3  21 91.4561 73.9976   3
  12  -3  21 49.1374 68.9990   2
 -12   3 -21-112.631 96.7093   1
  12   3  21 25.2701 29.9197   3
 -13   3 -21 94.0872 90.0152   1
 -14   4  21 51.6672 99.3453   2
 -13  -4  21 40.6256 81.7384   2
 -13   4  21-8.93553 51.7373   2
 -12  -4  21 177.203 192.804   2
 -12   4  21 161.939 162.767   2
 -11  -4  21 186.632 126.721   2
 -11   4  21 386.168 244.922   2
 -10  -4  21 166.572 104.743   2
 -10   4  21 251.059 195.364   2
  -9  -4  21 287.957 163.559   2
  -9   4  21-24.6827 66.6783   2
  -8  -4  21 17.0760 68.1362   2
  -8   4  21-86.1651 114.617   2
  -7  -4  21 9.65528 77.6296   2
  -7   4  21 118.845 128.099   2
  -6  -4  21-31.8341 35.8298   2
  -6   4  21-221.731 171.078   2
  -5  -4  21 83.8549 64.2828   2
  -5   4  21 33.9654 72.8901   2
  -4  -4  21 558.411 200.608   2
  -4   4  21 524.109 230.151   2
  -3  -4  21 901.201 265.750   2
  -3   4  21 965.924 324.695   2
  -2  -4  21 84.4433 77.8796   2
  -2   4  21 168.471 158.192   2
  -1  -4  21 152.608 80.6614   2
  -1   4  21 486.401 239.702   2
   0  -4  21 372.735 153.416   2
   0   4  21 148.379 122.980   2
   1  -4  21 519.965 196.004   2
   1   4  21 618.011 253.203   2
   2  -4  21 13.7696 72.0716   2
   2   4  21 27.6810 62.5884   2
   3  -4  21-68.7132 64.9916   2
   3   4  21 17.6274 44.9172   2
   4  -4  21 34.4846 61.4666   2
   5  -4  21-7.63180 55.7757   2
   5   4  21 97.5748 67.4339   3
   6  -4  21-13.2687 53.9672   2
   6   4  21 50.5206 62.8609   3
   7  -4  21 32.1402 44.2730   2
   7   4  21 119.174 73.3521   3
   8  -4  21-2.88047 40.3432   2
  -8   4 -21 28.3855 49.9829   1
   8   4  21 1.05959 14.7824   3
   9  -4  21 64.0384 80.8835   2
  -9   4 -21 514.636 209.724   1
 -12   5  21-427.016 251.837   2
 -11   5  21-307.256 213.698   2
 -10  -5  21-48.2574 111.526   2
 -10   5  21-44.3268 87.6316   2
  -9  -5  21 28.7097 78.2090   2
  -9   5  21 407.987 238.283   2
  -8  -5  21 159.941 36.6135   2
  -8   5  21 94.1367 116.515   2
  -7  -5  21-43.0535 89.1762   2
  -7   5  21-266.967 187.376   2
  -6  -5  21-10.6267 76.9977   2
  -6   5  21-36.1456 72.8030   2
  -5  -5  21 202.509 140.309   2
  -5   5  21 27.6823 63.6968   2
  -4  -5  21 2219.16 428.339   2
  -4   5  21 171.708 143.420   2
  -3  -5  21 113.980 70.7256   2
  -3   5  21 176.078 142.494   2
  -2  -5  21 619.060 209.918   2
  -2   5  21 575.580 248.408   2
  -1  -5  21 595.647 199.093   2
  -1   5  21 692.040 175.759   3
   0  -5  21-287.553 139.101   2
   0   5  21 58.9817 50.8475   3
   1  -5  21 360.652 161.349   2
   1   5  21 530.657 161.667   3
   2  -5  21-98.6309 81.0293   2
   2   5  21 29.3302 27.5177   3
   3  -5  21-4.02800 64.4583   2
   3   5  21 73.9726 68.2616   3
   4  -5  21 101.611 76.1535   2
 -10   6  21 48.7942 45.3762   3
  -9   6  21 210.065 120.239   1
  -9   6  21 334.947 128.936   3
  -8   6  21-4.12885 31.3529   1
  -8   6  21-2.12729 13.8853   3
  -7   6  21 1.48641 15.4294   1
  -7   6  21-22.1450 32.8609   3
  -6   6  21 80.6743 70.4644   1
  -6   6  21 88.0942 76.4559   3
  -5   6  21 79.5860 69.1526   1
  -5   6  21-37.8317 42.0963   3
 -15   0  22 255.809 292.027   2
 -14   0  22-144.685 157.857   2
 -13   0  22 638.329 336.779   2
 -12   0  22-42.1320 85.8249   2
 -11   0  22 776.473 324.806   2
 -10   0  22 223.799 185.679   2
  -9   0  22 176.461 143.032   2
  -8   0  22 76.3332 95.8918   2
  -7   0  22 168.932 125.518   2
  -6   0  22 268.662 186.682   2
  -5   0  22 24.5297 59.6561   2
  -4   0  22-112.260 101.869   2
  -3   0  22 560.483 221.430   2
  -2   0  22 315.516 149.737   2
  -1   0  22 511.318 205.133   2
   0   0  22 1151.30 289.900   2
   1   0  22-3.16322 66.7083   2
   2   0  22 202.566 129.238   2
   3   0  22 913.097 235.800   2
   4   0  22 15.8637 52.8154   2
   5   0  22 951.263 248.134   2
   6   0  22 122.059 105.563   2
   7   0  22 313.039 136.393   2
   8   0  22 2.09057 59.1396   2
   9   0  22-4.65208 58.2954   2
  10   0  22 93.0539 71.2182   2
  11   0  22 229.170 125.001   2
  12   0  22 69.7097 46.4748   2
  13   0  22 6.50938 24.5541   2
  14   0  22 20.5977 53.0666   2
  15   0  22 56.3713 51.3950   2
  15   0  22 7.02574 35.3888   3
  16   0  22-10.0871 63.7073   2
  16   0  22 13.7062 26.4486   3
  17   0  22 77.5883 63.8434   2
 -15  -1  22 127.564 149.973   2
 -15   1  22-6.36078 53.0118   2
 -14  -1  22 5.47882 43.7275   2
 -14   1  22-150.406 164.640   2
 -13  -1  22 122.323 40.5905   2
 -13   1  22 227.994 152.043   2
 -12  -1  22 559.953 300.024   2
 -12   1  22-26.5878 146.555   2
 -11  -1  22 873.038 358.745   2
 -11   1  22 329.081 227.721   2
 -10  -1  22 155.133 199.024   2
 -10   1  22-216.964 174.450   2
  -9  -1  22 206.231 177.268   2
  -9   1  22 158.665 113.944   2
  -8  -1  22-15.5779 125.718   2
  -8   1  22 41.8079 76.7417   2
  -7  -1  22-19.2644 104.475   2
  -7   1  22 92.8057 114.284   2
  -6  -1  22-63.8898 140.548   2
  -6   1  22 26.1169 58.2779   2
  -5  -1  22 46.2926 70.8267   2
  -5   1  22 223.661 174.774   2
  -4  -1  22-209.344 131.920   2
  -4   1  22 152.487 121.689   2
  -3  -1  22 67.6651 74.5282   2
  -3   1  22-5.15206 130.383   2
  -2  -1  22-3.75082 83.7408   2
  -2   1  22 6.49276 52.2492   2
  -1  -1  22 855.935 260.753   2
  -1   1  22 627.045 227.004   2
   0  -1  22-36.8239 63.3229   2
   0   1  22 15.1504 47.2707   2
   1  -1  22 150.811 121.912   2
   1   1  22 87.6613 107.512   2
   2  -1  22 29.2072 43.5218   2
   2   1  22 81.4342 78.6557   2
   3  -1  22 271.318 130.900   2
   3   1  22 160.680 107.249   2
   4  -1  22-76.3044 68.9107   2
   4   1  22 8.81956 36.7674   2
   5  -1  22-10.1065 53.8143   2
   5   1  22 86.4700 73.2402   2
   6  -1  22 76.9677 64.3471   2
   6   1  22 165.410 111.432   2
   7  -1  22-70.2578 67.0572   2
   7   1  22 95.3413 88.2382   2
   8  -1  22 74.2966 56.2439   2
   8   1  22 227.620 127.155   2
   9  -1  22-56.5420 74.1577   2
   9   1  22 101.066 74.8812   2
  10  -1  22 89.5365 28.0475   2
  10   1  22 190.798 101.066   2
  11  -1  22 92.0200 50.8770   2
  11   1  22 78.0551 84.8406   2
  12  -1  22 166.168 100.267   2
  12   1  22 16.9211 34.6054   2
  13  -1  22-71.0321 68.6871   2
  13   1  22 81.1069 41.2874   2
  14  -1  22-125.936 80.1266   2
  14   1  22 11.2812 52.5900   3
  15  -1  22-46.0108 50.9769   2
  15   1  22 117.023 83.3278   3
  16   1  22 0.52494 10.6577   3
 -14  -2  22 622.102 290.124   2
 -14   2  22 257.372 161.080   2
 -13  -2  22 100.863 121.504   2
 -13   2  22 211.375 77.0069   2
 -12  -2  22 640.036 275.529   2
 -12   2  22 463.138 248.112   2
 -11  -2  22 426.137 217.098   2
 -11   2  22-210.167 184.570   2
 -10  -2  22-68.7109 86.3651   2
 -10   2  22 90.4304 120.836   2
  -9  -2  22 139.609 129.524   2
  -9   2  22 296.670 223.510   2
  -8  -2  22-86.6993 97.0591   2
  -8   2  22 49.7810 72.3404   2
  -7  -2  22 37.3405 42.3593   2
  -7   2  22 350.635 214.297   2
  -6  -2  22-124.998 108.426   2
  -6   2  22 44.9231 96.2657   2
  -5  -2  22 0.33163 74.5382   2
  -5   2  22-115.517 114.922   2
  -4  -2  22 29.5982 53.8377   2
  -4   2  22 96.6457 68.4659   2
  -3  -2  22-70.8014 76.2705   2
  -3   2  22 111.746 117.284   2
  -2  -2  22 197.042 138.650   2
  -2   2  22 7.77961 35.5137   2
  -1  -2  22 64.3426 54.5285   2
  -1   2  22 36.0850 79.0568   2
   0  -2  22 33.2886 48.5103   2
   0   2  22-63.1288 157.588   2
   1  -2  22 102.282 102.673   2
   1   2  22-184.496 121.156   2
   2  -2  22 174.538 126.224   2
   2   2  22-41.2559 104.506   2
   3  -2  22 12.5408 54.6060   2
   3   2  22 110.115 48.9939   2
   4  -2  22 50.1257 56.7090   2
   4   2  22-89.5619 76.4073   2
   5  -2  22-60.9924 61.0991   2
   5   2  22-66.8225 60.8256   2
   6  -2  22 94.1326 63.2523   2
   6   2  22 62.9290 45.7784   2
   7  -2  22-29.9038 54.4075   2
   7   2  22 105.579 107.184   2
   8  -2  22 59.0464 54.3506   2
   8   2  22-36.8289 56.1051   2
   9  -2  22-36.3801 31.6159   2
   9   2  22 43.8777 24.6469   2
  10  -2  22 229.015 113.551   2
  10   2  22 116.167 81.2856   2
  11  -2  22-0.40419 18.3781   2
  11   2  22-1.26399 72.2143   2
  11   2  22-49.9833 48.1920   3
  12  -2  22 163.468 93.1485   2
  12   2  22 41.0972 46.5016   3
  13  -2  22 198.658 111.788   2
  13   2  22 2004.21 294.281   3
 -14   2 -22 3.83180 27.7393   1
 -13  -3  22 203.044 186.587   2
 -13   3  22-161.969 172.007   2
 -12  -3  22 129.793 115.845   2
 -12   3  22 184.938 178.136   2
 -11  -3  22 218.177 141.006   2
 -11   3  22 374.741 247.705   2
 -10  -3  22-177.107 143.634   2
 -10   3  22 83.4901 166.448   2
  -9  -3  22 16.9321 103.410   2
  -9   3  22 91.1999 121.965   2
  -8  -3  22-9.39359 43.5911   2
  -8   3  22 46.2065 61.9912   2
  -7  -3  22 3.98407 58.1894   2
  -7   3  22 26.2412 68.8340   2
  -6  -3  22-38.1179 63.0034   2
  -6   3  22-418.278 235.621   2
  -5  -3  22-38.2028 60.6982   2
  -5   3  22 508.560 284.626   2
  -4  -3  22-50.7527 101.556   2
  -4   3  22 133.915 160.047   2
  -3  -3  22 220.879 139.665   2
  -3   3  22 309.284 192.516   2
  -2  -3  22 180.817 144.818   2
  -2   3  22 112.565 86.0884   2
  -1  -3  22 3.51231 37.3264   2
  -1   3  22 84.6214 122.217   2
   0  -3  22 63.5831 86.4760   2
   0   3  22-51.4190 73.7060   2
   1  -3  22 134.500 103.705   2
   1   3  22 438.908 202.957   2
   2  -3  22-28.6326 66.9449   2
   2   3  22 92.0308 90.0657   2
   3  -3  22 0.47553 63.7462   2
   3   3  22 1016.52 291.384   2
   4  -3  22 17.8864 48.7662   2
   4   3  22 207.596 101.341   2
   5  -3  22 5.65207 33.3983   2
   5   3  22 36.3093 54.2312   2
   6  -3  22 189.034 103.351   2
   6   3  22-172.721 111.003   2
   7  -3  22 227.466 111.755   2
   7   3  22-3.04056 80.6498   2
   8  -3  22 244.720 121.577   2
   9  -3  22-48.6369 53.2314   2
   9   3  22-80.6590 61.3975   3
  10  -3  22 60.1064 58.9089   2
  10   3  22 216.024 107.163   3
 -12   4  22 211.589 190.362   2
 -11   4  22 549.640 298.841   2
 -10  -4  22 184.379 105.684   2
 -10   4  22 324.960 226.635   2
  -9  -4  22 276.306 199.529   2
  -9   4  22 269.621 199.852   2
  -8  -4  22 212.771 133.167   2
  -8   4  22 246.377 191.767   2
  -7  -4  22 87.1659 132.061   2
  -7   4  22 290.407 203.995   2
  -6  -4  22 49.9469 53.1467   2
  -6   4  22 80.5287 138.126   2
  -5  -4  22-32.6924 76.6472   2
  -5   4  22 489.659 254.482   2
  -4  -4  22-15.0404 67.7128   2
  -4   4  22 29.7326 127.341   2
  -3  -4  22 149.420 108.334   2
  -3   4  22 217.400 164.628   2
  -2  -4  22 251.867 171.795   2
  -2   4  22-234.456 166.906   2
  -1  -4  22 101.964 81.8590   2
  -1   4  22-72.7778 94.8611   2
   0  -4  22 217.367 128.056   2
   0   4  22 299.924 178.601   2
   1  -4  22-131.286 95.9250   2
   1   4  22 18.4536 51.3947   2
   2  -4  22 18.9265 70.8867   2
   2   4  22-14.6508 46.9701   2
   3  -4  22 41.8449 76.4415   2
   4  -4  22 81.7509 20.1379   2
   5  -4  22 69.7116 60.0457   2
   5   4  22 55.2488 45.5111   3
   6  -4  22 95.2135 67.0834   2
 -11   5  22-71.4308 111.475   2
 -10   5  22-130.391 141.189   2
  -9   5  22 195.361 250.959   2
  -8   5  22-205.441 172.403   2
  -7   5  22 34.4293 75.9478   2
  -6   5  22 502.424 258.555   2
  -5   5  22 119.403 126.656   2
  -4   5  22 328.709 203.010   2
  -1   5  22 403.906 140.130   3
 -13   0  23 82.8549 155.327   2
 -12   0  23 319.721 271.231   2
 -11   0  23 87.6557 117.578   2
 -10   0  23-65.7363 98.2922   2
  -9   0  23 69.7808 94.9392   2
  -8   0  23-68.8917 93.1251   2
  -7   0  23 22.8595 52.3762   2
  -6   0  23 7.70828 65.2153   2
  -5   0  23-23.7177 106.077   2
  -4   0  23 5.42912 36.4539   2
  -3   0  23 64.8104 78.8469   2
  -2   0  23 133.599 144.555   2
  -1   0  23-42.3314 56.8681   2
   0   0  23 49.5115 50.9415   2
   1   0  23-7.71950 75.2707   2
   2   0  23 10.3842 29.9853   2
   3   0  23 76.9066 126.779   2
   4   0  23 17.0578 29.3258   2
   5   0  23-2.93564 50.7148   2
   6   0  23 39.7095 62.9639   2
   7   0  23-21.5948 39.9107   2
   8   0  23-124.722 87.3538   2
   9   0  23-90.6901 73.5621   2
  10   0  23 2.86566 47.7591   2
  11   0  23 38.8715 53.1056   2
  12   0  23-31.8529 36.6070   2
  13   0  23-70.0401 89.3305   2
  14   0  23-14.9098 42.4769   2
  15   0  23-8.88475 28.8692   2
  15   0  23 107.122 69.5321   3
 -13  -1  23 150.610 155.834   2
 -13   1  23-47.2363 187.100   2
 -12  -1  23 164.617 157.135   2
 -12   1  23 1641.40 529.605   2
 -11  -1  23 264.164 190.438   2
 -11   1  23-250.125 197.906   2
 -10  -1  23 280.334 188.459   2
 -10   1  23 316.542 220.324   2
  -9  -1  23 160.012 196.198   2
  -9   1  23 46.8176 86.9417   2
  -8  -1  23 13.4470 49.9258   2
  -8   1  23 551.492 271.176   2
  -7  -1  23 46.2172 75.3255   2
  -7   1  23 320.068 215.725   2
  -6  -1  23-94.7972 100.514   2
  -6   1  23 62.4436 155.713   2
  -5  -1  23-42.1480 68.2014   2
  -5   1  23 92.3214 74.8615   2
  -4  -1  23 454.631 201.439   2
  -4   1  23 225.082 167.708   2
  -3  -1  23-3.29165 44.0274   2
  -3   1  23-195.123 138.378   2
  -2  -1  23 135.418 111.120   2
  -2   1  23 223.374 178.472   2
  -1  -1  23 342.611 171.727   2
  -1   1  23 155.113 117.019   2
   0  -1  23 249.022 147.299   2
   0   1  23 64.0621 62.6786   2
   1  -1  23 290.914 180.137   2
   1   1  23-151.123 109.979   2
   2  -1  23 157.101 134.193   2
   2   1  23 213.585 127.791   2
   3  -1  23 126.876 118.353   2
   3   1  23 16.4435 69.2492   2
   4  -1  23 38.4273 22.3578   2
   4   1  23-2.12753 24.2318   2
   5  -1  23 133.830 77.5757   2
   5   1  23-48.4529 60.0253   2
   6  -1  23-47.2373 80.7808   2
   6   1  23-28.8495 22.0983   2
   7  -1  23 592.644 192.089   2
   7   1  23 436.310 178.473   2
   8  -1  23 731.853 216.214   2
   8   1  23 868.877 246.190   2
   9  -1  23 51.7006 38.6208   2
   9   1  23 313.883 260.985   2
  10  -1  23-2.84138 69.4563   2
  10   1  23-51.1622 56.3534   2
  11  -1  23 185.711 101.437   2
  11   1  23 334.899 137.504   2
  12  -1  23 95.1238 95.0627   2
  12   1  23-6.75493 69.9738   2
  13  -1  23 130.851 116.773   2
  13   1  23 48.8459 65.5331   2
  13   1  23 306.658 117.804   3
 -13   2  23 274.994 224.120   2
 -12  -2  23-26.3415 69.7868   2
 -12   2  23 61.2381 112.195   2
 -11  -2  23-76.1453 103.418   2
 -11   2  23-140.655 158.349   2
 -10  -2  23 978.900 368.481   2
 -10   2  23 636.461 317.610   2
  -9  -2  23-189.468 150.351   2
  -9   2  23-8.72922 53.1383   2
  -8  -2  23 241.243 118.513   2
  -8   2  23 129.536 139.250   2
  -7  -2  23 182.308 426.550   2
  -7   2  23 105.599 164.966   2
  -6  -2  23 9.47402 114.048   2
  -6   2  23-182.733 154.121   2
  -5  -2  23-6.10923 35.0844   2
  -5   2  23-3.21517 89.0657   2
  -4  -2  23 145.239 113.881   2
  -4   2  23 522.513 242.922   2
  -3  -2  23-7.78524 99.0474   2
  -3   2  23-8.24052 144.598   2
  -2  -2  23 145.178 104.584   2
  -2   2  23 347.278 199.957   2
  -1  -2  23 116.047 95.1133   2
  -1   2  23 48.5518 78.4622   2
   0  -2  23-53.6472 64.7385   2
   0   2  23 101.378 59.8268   2
   1  -2  23-105.006 87.0218   2
   1   2  23-39.2454 121.096   2
   2  -2  23 179.620 118.115   2
   2   2  23-26.2321 94.7590   2
   3  -2  23 118.641 89.8827   2
   3   2  23-62.4364 116.142   2
   4  -2  23-58.2089 70.3243   2
   4   2  23 42.3305 59.4799   2
   5  -2  23 36.2321 68.6415   2
   5   2  23-8.40728 67.0258   2
   6  -2  23 19.0326 23.3758   2
   6   2  23 118.432 92.0216   2
   7  -2  23-38.0591 51.2520   2
   7   2  23-57.5008 65.2076   2
   8  -2  23 252.979 143.268   2
   8   2  23 252.535 156.261   2
   9  -2  23 156.543 122.456   2
   9   2  23 70.2896 68.7856   2
  10  -2  23 21.6106 55.9349   2
  10   2  23 75.4184 70.7372   2
  11  -2  23 44.1352 52.2215   2
 -12   3  23 458.822 284.942   2
 -11   3  23 478.752 286.204   2
 -10  -3  23 682.192 321.014   2
 -10   3  23 961.526 397.426   2
  -9  -3  23-197.569 151.803   2
  -9   3  23 98.7188 95.1047   2
  -8  -3  23 56.5773 75.6815   2
  -8   3  23 352.530 233.148   2
  -7  -3  23 3.91536 32.3329   2
  -7   3  23 32.3003 123.884   2
  -6  -3  23-2.59817 72.6548   2
  -6   3  23 500.387 264.668   2
  -5  -3  23-106.852 176.384   2
  -5   3  23 56.1073 92.0549   2
  -4  -3  23 221.857 139.923   2
  -4   3  23 538.019 297.726   2
  -3  -3  23-15.6596 84.1573   2
  -3   3  23-299.078 189.873   2
  -2  -3  23 68.4626 80.6181   2
  -2   3  23 286.445 179.792   2
  -1  -3  23 150.378 120.586   2
  -1   3  23 12.8756 44.7299   2
   0  -3  23 34.5714 53.4943   2
   0   3  23-80.8513 74.7554   2
   1  -3  23 138.164 106.149   2
   1   3  23 3.72628 147.013   2
   2  -3  23 72.1617 73.3547   2
   2   3  23 211.035 163.759   2
   3  -3  23-164.567 138.267   2
   3   3  23 143.475 139.599   2
   4  -3  23-29.0006 48.4356   2
   4   3  23 42.5230 63.7135   2
   5  -3  23-173.990 105.591   2
   5   3  23-30.0110 52.6823   2
   6  -3  23-22.8020 42.0785   2
   6   3  23-332.225 158.545   2
   7  -3  23 200.508 111.400   2
 -11   4  23 680.200 340.687   2
 -10   4  23 181.701 176.114   2
  -9   4  23 312.326 224.631   2
  -8   4  23 457.812 266.236   2
  -7   4  23 955.248 376.891   2
  -6   4  23-0.56363 75.9128   2
  -5  -4  23 78.2454 84.1522   2
  -5   4  23 146.441 147.068   2
  -4  -4  23 155.735 119.366   2
  -4   4  23-133.414 137.205   2
  -3  -4  23 77.5870 83.8015   2
  -3   4  23-25.1377 65.3549   2
  -2  -4  23 54.6306 75.0293   2
  -2   4  23-393.150 221.554   2
  -1  -4  23 333.953 161.020   2
  -1   4  23-154.007 122.455   2
   0  -4  23 102.458 89.1367   2
   0   4  23 15.1329 51.8031   2
   1   4  23 201.127 148.216   2
  -9   5  23-18.6353 61.3340   2
  -8   5  23-263.956 198.274   2
  -7   5  23 116.258 134.676   2
  -6   5  23 23.1574 65.0902   2
 -11   0  24 352.755 233.033   2
 -10   0  24 220.459 179.850   2
  -9   0  24 1293.62 420.615   2
  -8   0  24 151.505 147.478   2
  -7   0  24 163.663 141.933   2
  -6   0  24 14.5184 83.2430   2
  -5   0  24-22.3949 118.337   2
  -4   0  24 116.917 130.127   2
  -3   0  24-101.056 101.275   2
  -2   0  24 43.6787 69.1293   2
  -1   0  24 37.6990 94.9919   2
   0   0  24-22.1281 42.0096   2
   1   0  24-45.2224 66.2562   2
   2   0  24 238.173 138.186   2
   3   0  24 112.060 109.335   2
   4   0  24-4.13338 53.2865   2
   5   0  24 67.2848 70.4591   2
   6   0  24 442.969 171.565   2
   7   0  24 3637.80 524.233   2
   8   0  24 228.986 159.368   2
   9   0  24 2771.00 428.587   2
  10   0  24 1172.16 277.926   2
  11   0  24 5.03035 69.6448   2
  12   0  24 63.7805 65.9238   2
  13   0  24-113.009 84.1207   2
 -11   1  24 319.472 233.870   2
 -10  -1  24 291.433 172.074   2
 -10   1  24 151.297 230.734   2
  -9  -1  24 240.050 211.372   2
  -9   1  24 129.082 114.479   2
  -8  -1  24-286.446 187.624   2
  -8   1  24 77.6931 174.921   2
  -7   1  24 7225.88 972.042   2
  -7  -1  24 505.505 220.565   2
  -6  -1  24 196.381 75.6084   2
  -6   1  24 164.918 186.795   2
  -5  -1  24 123.293 113.883   2
  -5   1  24 342.725 244.706   2
  -4  -1  24-54.1422 96.1045   2
  -4   1  24 140.543 125.668   2
  -3  -1  24-92.3988 60.8792   2
  -3   1  24-229.892 154.696   2
  -2  -1  24 82.2938 56.1180   2
  -2   1  24 2.29948 34.4495   2
  -1  -1  24 34.9825 56.2829   2
  -1   1  24 157.529 134.406   2
   0  -1  24 67.4201 104.185   2
   0   1  24-38.8848 107.851   2
   1  -1  24 28.2005 46.6768   2
   1   1  24-89.7112 134.072   2
   2  -1  24 173.108 133.585   2
   2   1  24 29.9101 104.763   2
   3  -1  24 64.8566 82.6510   2
   3   1  24-60.8011 92.4804   2
   4  -1  24-15.3713 38.7597   2
   4   1  24 4.13359 29.9099   2
   5  -1  24 133.796 138.540   2
   5   1  24-214.873 125.761   2
   6  -1  24 238.560 125.944   2
   6   1  24 6.63372 31.8687   2
   7  -1  24 798.718 233.697   2
   7   1  24 1006.95 288.520   2
   8  -1  24 214.892 102.699   2
   8   1  24 382.072 196.260   2
   9  -1  24 884.739 240.065   2
   9   1  24 854.371 244.549   2
  10  -1  24 92.7551 77.5441   2
  10   1  24 181.926 108.257   2
  11  -1  24 39.9614 91.4631   2
  11   1  24 34.5126 37.0811   2
  12   1  24 73.6366 69.0775   2
 -11   2  24 86.7285 130.736   2
 -10   2  24-141.021 158.187   2
  -9  -2  24-302.780 195.643   2
  -9   2  24-142.558 151.735   2
  -8  -2  24-108.993 162.587   2
  -8   2  24-34.3136 80.9693   2
  -7  -2  24-4.32019 100.337   2
  -7   2  24-225.665 180.924   2
  -6  -2  24 390.036 208.961   2
  -6   2  24 705.320 320.415   2
  -5  -2  24-118.922 111.145   2
  -5   2  24-114.153 124.024   2
  -4  -2  24-10.3214 70.8472   2
  -4   2  24-217.719 163.622   2
  -3  -2  24-152.092 119.077   2
  -3   2  24-189.308 147.609   2
  -2  -2  24 43.7883 66.3335   2
  -2   2  24-119.681 117.208   2
  -1  -2  24 494.825 196.802   2
  -1   2  24 65.4599 85.0547   2
   0  -2  24 112.041 121.937   2
   0   2  24 424.629 228.121   2
   1  -2  24 142.860 136.889   2
   1   2  24 109.462 283.013   2
   2  -2  24 6.83891 52.3688   2
   2   2  24-81.7756 163.070   2
   3  -2  24 152.142 133.604   2
   3   2  24 358.810 175.296   2
   4  -2  24-19.7407 83.6534   2
   4   2  24-72.2384 105.002   2
   5  -2  24 184.928 107.602   2
   5   2  24 39.5856 73.6967   2
   6  -2  24 126.418 48.3798   2
   6   2  24-82.4486 81.5327   2
   7  -2  24 121.307 128.955   2
   7   2  24-53.0988 65.9566   2
   8  -2  24 215.813 121.861   2
   8   2  24 299.277 146.326   2
   9   2  24-39.8672 56.0841   2
 -10   3  24-95.3458 134.826   2
  -9   3  24 93.0031 97.9438   2
  -8   3  24 128.206 185.831   2
  -7   3  24-428.699 257.255   2
  -6   3  24 273.295 203.157   2
  -5  -3  24-87.9060 95.5644   2
  -5   3  24 144.985 146.056   2
  -4  -3  24 432.511 227.758   2
  -4   3  24-242.376 182.816   2
  -3  -3  24-101.902 99.2610   2
  -3   3  24-239.447 175.612   2
  -2  -3  24 59.9401 75.2484   2
  -2   3  24-23.1121 62.7270   2
  -1  -3  24-1.92554 26.9944   2
  -1   3  24 153.579 134.216   2
   0  -3  24 180.589 138.160   2
   0   3  24 578.669 250.356   2
   1  -3  24 15.0575 70.5788   2
   1   3  24-230.856 156.628   2
   2  -3  24 218.390 127.078   2
   2   3  24 169.640 129.787   2
   3   3  24 26.2989 141.581   2
   4   3  24 236.382 146.938   2
  -9   4  24-198.150 184.454   2
  -8   4  24 5774.00 1011.37   2
  -7   4  24 4867.88 954.274   2
  -6   4  24 91.5985 92.0923   2
  -5   4  24 456.160 260.091   2
  -4   4  24-296.750 206.922   2
  -3   4  24-271.076 193.662   2
  -2   4  24 271.997 190.344   2
  -1   4  24-637.827 283.817   2
  -8   0  25 436.688 242.796   2
  -7   0  25-353.624 212.158   2
  -6   0  25-278.649 186.096   2
  -5   0  25-191.733 151.738   2
  -4   0  25-19.0914 102.105   2
  -3   0  25-435.121 212.791   2
  -2   0  25-224.882 151.979   2
  -1   0  25 67.5041 150.957   2
   0   0  25-109.983 92.2086   2
   1   0  25 1.71657 33.9702   2
   2   0  25 50.7057 69.1136   2
   3   0  25 622.690 242.499   2
   4   0  25 121.622 99.9509   2
   5   0  25 43.4679 64.3915   2
   6   0  25 194.631 120.478   2
   7   0  25-62.4969 69.2187   2
   8   0  25-69.9111 72.8789   2
   9   0  25 157.409 125.345   2
  10   0  25 301.423 143.205   2
  11   0  25-95.3666 82.3604   2
  -8   1  25 177.238 164.264   2
  -7  -1  25 13.8765 53.7041   2
  -7   1  25 1.07944 34.1356   2
  -6  -1  25-5.42498 40.4876   2
  -6   1  25 187.998 193.584   2
  -5  -1  25-80.9814 98.4179   2
  -5   1  25 934.921 599.275   2
  -4  -1  25 163.022 131.858   2
  -4   1  25 120.460 174.796   2
  -3  -1  25-48.6142 75.8054   2
  -3   1  25 21.4921 57.2343   2
  -2  -1  25-203.040 142.497   2
  -2   1  25-29.0910 103.478   2
  -1  -1  25-80.9744 89.0743   2
  -1   1  25-93.9360 68.4216   2
   0  -1  25-38.0798 99.0305   2
   0   1  25-363.973 187.402   2
   1  -1  25 115.697 113.054   2
   1   1  25-408.800 195.628   2
   2  -1  25 51.3528 86.5071   2
   2   1  25 40.3222 34.1224   2
   3  -1  25 160.670 137.738   2
   3   1  25-33.2527 115.386   2
   4  -1  25-2.07981 61.8247   2
   4   1  25-16.9392 64.9365   2
   5  -1  25 139.059 102.703   2
   5   1  25 93.3456 95.8969   2
   6  -1  25 293.872 124.883   2
   6   1  25-39.6773 59.1296   2
   7  -1  25 116.503 93.1059   2
   7   1  25 62.3080 37.4973   2
   8   1  25 571.534 206.444   2
   9   1  25-11.4990 35.4236   2
  10   1  25 27.1647 64.8319   2
  11   1  25 81.8174 76.2800   2
  -8   2  25 153.593 160.509   2
  -7   2  25-174.954 165.870   2
  -6   2  25 4.50232 144.325   2
  -5   2  25 83.3133 111.382   2
  -4   2  25 1559.11 424.264   2
  -3  -2  25-202.742 141.645   2
  -3   2  25-281.697 186.480   2
  -2  -2  25 35.3057 63.2242   2
  -2   2  25 980.047 358.799   2
  -1  -2  25 134.508 111.722   2
  -1   2  25-192.229 147.374   2
   0  -2  25-115.353 102.178   2
   0   2  25 184.690 164.561   2
   1  -2  25 225.452 159.261   2
   1   2  25-173.432 134.292   2
   2  -2  25 32.6265 56.2541   2
   2   2  25-294.562 168.028   2
   3   2  25-285.993 163.526   2
   4   2  25-11.1057 144.364   2
   5   2  25-4.94493 119.292   2
   6   2  25 250.210 145.306   2
   7   2  25-24.4095 49.3549   2
  -8   3  25-496.708 291.583   2
  -7   3  25-216.707 192.132   2
  -6   3  25 161.951 118.401   2
  -5   3  25 166.948 171.339   2
  -4   3  25 374.605 231.956   2
  -3   3  25-319.396 210.860   2
  -2   3  25 80.4495 103.992   2
  -1   3  25 13.8993 180.255   2
   0   3  25-361.361 207.321   2
   1   3  25 155.652 132.944   2
   2   3  25 137.477 143.452   2
   3   3  25 274.513 168.205   2
  -7   4  25 338.053 237.765   2
  -6   4  25-184.233 175.118   2
  -5   4  25 397.404 247.852   2
  -4   4  25 85.6694 118.905   2
  -3   4  25 233.839 214.719   2
  -4   0  26 236.562 162.615   2
  -3   0  26-36.0589 70.1843   2
  -2   0  26 13.0768 48.1199   2
  -1   0  26 220.059 189.543   2
   0   0  26-153.150 125.121   2
   1   0  26-3.33990 31.5477   2
   2   0  26 49.7993 53.9187   2
   3   0  26 203.209 129.983   2
   4   0  26 284.520 156.157   2
   5   0  26-9.05781 36.4825   2
   6   0  26 262.140 147.335   2
  -5   1  26-31.7919 71.9452   2
  -4   1  26-331.789 205.886   2
  -3   1  26 443.870 230.188   2
  -2   1  26-278.363 180.226   2
  -1   1  26-558.297 247.234   2
   0   1  26 305.269 178.627   2
   1   1  26-170.070 133.067   2
   2   1  26-34.6561 64.4719   2
   3   1  26 109.223 104.335   2
   4   1  26 95.5613 70.5124   2
   5   1  26-320.130 167.130   2
   6   1  26 344.775 172.185   2
   7   1  26-16.7526 44.6298   2
   8   1  26-11.1104 37.9394   2
  -5   2  26 424.952 331.617   2
  -4   2  26-287.340 200.230   2
  -3   2  26-144.140 141.271   2
  -2   2  26 945.214 341.226   2
  -1   2  26-180.252 149.675   2
   0   2  26 284.042 178.957   2
   1   2  26 99.2291 107.315   2
   2   2  26-38.4054 82.8830   2
   3   2  26 12.7505 48.0145   2
   4   2  26 367.101 177.000   2
   5   2  26 105.035 101.664   2
   6   2  26 35.6966 61.7617   2
  -5   3  26 74.1522 155.996   2
  -4   3  26 3059.17 781.370   2
  -3   3  26-134.058 141.767   2
  -2   3  26-93.5402 116.161   2
  -1   3  26 309.176 204.572   2
   0   3  26 186.258 154.273   2
   1   3  26-226.625 167.070   2
   0   2  27 190.343 146.850   2
   1   2  27-427.239 223.844   2
   2   2  27-94.4773 106.830   2
   3   2  27 588.301 251.171   2
   0   0   0    0.00    0.00   0
TITL haoke1MoLT in P2/c
REM P2/c (#13 in standard setting)
CELL 0.71073  21.442308   7.167996  19.929585  90.0000  93.5474  90.0000
ZERR    4.00   0.002081   0.000620   0.002622   0.0000   0.0105   0.0000
LATT  1
SYMM -x, y,-z+1/2
SFAC C H
UNIT 152.00 224.00
TREF
HKLF 4
END
;
_shelx_hkl_checksum              11615
_shelx_shelxl_version_number     2014/7
_olex2_date_sample_data_collection 2015-10-13
_olex2_submission_special_instructions 'No special instructions were received'
loop_
_space_group_symop_operation_xyz
'x, y, z'
'-x, y, -z+1/2'
'-x, -y, -z'
'x, -y, z-1/2'
loop_
_atom_site_label
_atom_site_type_symbol
_atom_site_fract_x
_atom_site_fract_y
_atom_site_fract_z
_atom_site_U_iso_or_equiv
_atom_site_adp_type
_atom_site_occupancy
_atom_site_site_symmetry_order
_atom_site_calc_flag
_atom_site_refinement_flags_posn
C36 C 0.33951(10) 0.7840(3) 0.10341(13) 0.0220(6) Uani 1 1 d .
H36 H 0.3039 0.8541 0.1142 0.026 Uiso 1 1 calc R
C35 C 0.39864(10) 0.8502(3) 0.12501(13) 0.0228(6) Uani 1 1 d .
C11 C 0.21995(10) 0.5874(3) 0.10128(13) 0.0210(6) Uani 1 1 d .
C46 C 0.27287(10) 0.4561(3) -0.11849(13) 0.0208(6) Uani 1 1 d .
H46 H 0.2412 0.3714 -0.1071 0.025 Uiso 1 1 calc R
C45 C 0.30833(10) 0.4112(3) -0.17169(14) 0.0215(6) Uani 1 1 d .
C2 C 0.23973(10) 0.6578(3) -0.02234(13) 0.0207(6) Uani 1 1 d .
H2 H 0.2422 0.7949 -0.0133 0.025 Uiso 1 1 calc R
C15 C 0.14833(10) 0.7842(3) 0.16146(15) 0.0273(7) Uani 1 1 d .
C44 C 0.35489(10) 0.5360(3) -0.18994(14) 0.0231(6) Uani 1 1 d .
C31 C 0.33042(10) 0.6186(3) 0.06645(13) 0.0191(6) Uani 1 1 d .
C33 C 0.44245(10) 0.5833(3) 0.07318(14) 0.0263(6) Uani 1 1 d .
H33 H 0.4783 0.5136 0.0627 0.032 Uiso 1 1 calc R
C41 C 0.28105(10) 0.6203(3) -0.08023(13) 0.0194(6) Uani 1 1 d .
C47 C 0.34075(11) 0.9288(3) -0.06253(14) 0.0289(7) Uani 1 1 d .
H47A H 0.3012 0.9904 -0.0542 0.043 Uiso 1 1 calc GR
H47B H 0.3654 1.0098 -0.0903 0.043 Uiso 1 1 calc GR
H47C H 0.3641 0.9046 -0.0196 0.043 Uiso 1 1 calc GR
C34 C 0.45077(10) 0.7496(3) 0.10845(14) 0.0257(6) Uani 1 1 d .
C49 C 0.29714(11) 0.2310(3) -0.21068(14) 0.0276(7) Uani 1 1 d .
H49A H 0.3355 0.1564 -0.2083 0.041 Uiso 1 1 calc GR
H49B H 0.2851 0.2601 -0.2578 0.041 Uiso 1 1 calc GR
H49C H 0.2636 0.1604 -0.1912 0.041 Uiso 1 1 calc GR
C12 C 0.21683(10) 0.4522(3) 0.15224(14) 0.0246(6) Uani 1 1 d .
C21 C 0.17120(10) 0.6152(3) -0.04370(13) 0.0226(6) Uani 1 1 d .
C26 C 0.14239(10) 0.4483(3) -0.02695(14) 0.0263(6) Uani 1 1 d .
H26 H 0.1655 0.3605 0.0003 0.032 Uiso 1 1 calc R
C42 C 0.32761(10) 0.7456(3) -0.09890(14) 0.0213(6) Uani 1 1 d .
C43 C 0.36273(11) 0.6996(3) -0.15243(14) 0.0246(6) Uani 1 1 d .
H43 H 0.3941 0.7847 -0.1644 0.030 Uiso 1 1 calc R
C32 C 0.38282(10) 0.5143(3) 0.05243(13) 0.0237(6) Uani 1 1 d .
C14 C 0.14562(11) 0.6484(3) 0.21188(14) 0.0287(7) Uani 1 1 d .
C16 C 0.18454(10) 0.7500(3) 0.10739(14) 0.0235(6) Uani 1 1 d .
H16 H 0.1854 0.8413 0.0729 0.028 Uiso 1 1 calc R
C1 C 0.26289(10) 0.5590(3) 0.04417(13) 0.0217(6) Uani 1 1 d .
H1 H 0.2639 0.4220 0.0347 0.026 Uiso 1 1 calc R
C25 C 0.08082(11) 0.4055(3) -0.04877(14) 0.0293(7) Uani 1 1 d .
C39 C 0.40565(11) 1.0245(3) 0.16742(14) 0.0295(7) Uani 1 1 d .
H39A H 0.4268 1.1211 0.1425 0.044 Uiso 1 1 calc GR
H39B H 0.4305 0.9962 0.2091 0.044 Uiso 1 1 calc GR
H39C H 0.3643 1.0693 0.1782 0.044 Uiso 1 1 calc GR
C37 C 0.37921(11) 0.3296(3) 0.01523(14) 0.0296(7) Uani 1 1 d .
H37A H 0.3512 0.2449 0.0375 0.044 Uiso 1 1 calc GR
H37B H 0.4210 0.2742 0.0154 0.044 Uiso 1 1 calc GR
H37C H 0.3631 0.3505 -0.0313 0.044 Uiso 1 1 calc GR
C13 C 0.18002(11) 0.4853(3) 0.20526(15) 0.0293(7) Uani 1 1 d .
H13 H 0.1780 0.3923 0.2390 0.035 Uiso 1 1 calc R
C17 C 0.25334(11) 0.2718(3) 0.14935(15) 0.0356(8) Uani 1 1 d .
H17A H 0.2366 0.1967 0.1113 0.053 Uiso 1 1 calc GR
H17B H 0.2496 0.2021 0.1912 0.053 Uiso 1 1 calc GR
H17C H 0.2974 0.3000 0.1437 0.053 Uiso 1 1 calc GR
C23 C 0.07513(11) 0.7009(3) -0.10466(15) 0.0353(7) Uani 1 1 d .
H23 H 0.0517 0.7898 -0.1311 0.042 Uiso 1 1 calc R
C48 C 0.39454(11) 0.4984(3) -0.24794(15) 0.0322(7) Uani 1 1 d .
H48A H 0.4152 0.3771 -0.2416 0.048 Uiso 1 1 calc GR
H48B H 0.4262 0.5964 -0.2502 0.048 Uiso 1 1 calc GR
H48C H 0.3681 0.4971 -0.2899 0.048 Uiso 1 1 calc GR
C22 C 0.13707(11) 0.7426(3) -0.08381(14) 0.0285(7) Uani 1 1 d .
C24 C 0.04651(11) 0.5346(4) -0.08814(15) 0.0348(7) Uani 1 1 d .
C19 C 0.11178(11) 0.9652(3) 0.16436(17) 0.0414(8) Uani 1 1 d .
H19A H 0.0670 0.9374 0.1640 0.062 Uiso 1 1 calc GR
H19B H 0.1200 1.0424 0.1253 0.062 Uiso 1 1 calc GR
H19C H 0.1247 1.0326 0.2057 0.062 Uiso 1 1 calc GR
C27 C 0.16534(12) 0.9238(3) -0.10648(16) 0.0416(8) Uani 1 1 d .
H27A H 0.1775 1.0003 -0.0671 0.062 Uiso 1 1 calc GR
H27B H 0.1345 0.9914 -0.1356 0.062 Uiso 1 1 calc GR
H27C H 0.2022 0.8968 -0.1315 0.062 Uiso 1 1 calc GR
C38 C 0.51620(11) 0.8192(3) 0.12830(16) 0.0386(8) Uani 1 1 d .
H38A H 0.5236 0.9369 0.1051 0.058 Uiso 1 1 calc GR
H38B H 0.5469 0.7262 0.1156 0.058 Uiso 1 1 calc GR
H38C H 0.5204 0.8392 0.1770 0.058 Uiso 1 1 calc GR
C29 C 0.05245(12) 0.2205(3) -0.02954(16) 0.0429(8) Uani 1 1 d .
H29A H 0.0416 0.1479 -0.0703 0.064 Uiso 1 1 calc GR
H29B H 0.0147 0.2434 -0.0055 0.064 Uiso 1 1 calc GR
H29C H 0.0827 0.1508 -0.0005 0.064 Uiso 1 1 calc GR
C18 C 0.10698(13) 0.6748(4) 0.27142(16) 0.0443(8) Uani 1 1 d .
H18A H 0.1143 0.7998 0.2902 0.067 Uiso 1 1 calc GR
H18B H 0.1188 0.5810 0.3057 0.067 Uiso 1 1 calc GR
H18C H 0.0626 0.6608 0.2573 0.067 Uiso 1 1 calc GR
C28 C -0.02011(11) 0.4939(4) -0.11437(17) 0.0493(9) Uani 1 1 d .
H28A H -0.0205 0.3852 -0.1442 0.074 Uiso 1 1 calc GR
H28B H -0.0370 0.6023 -0.1394 0.074 Uiso 1 1 calc GR
H28C H -0.0458 0.4681 -0.0765 0.074 Uiso 1 1 calc GR
loop_
_atom_site_aniso_label
_atom_site_aniso_U_11
_atom_site_aniso_U_22
_atom_site_aniso_U_33
_atom_site_aniso_U_23
_atom_site_aniso_U_13
_atom_site_aniso_U_12
C36 0.0210(12) 0.0247(11) 0.0202(17) 0.0037(11) 0.0014(12) 0.0014(10)
C35 0.0244(13) 0.0281(12) 0.0156(17) 0.0049(11) -0.0009(12) -0.0026(10)
C11 0.0192(12) 0.0268(12) 0.0171(17) -0.0024(11) 0.0010(12) -0.0037(10)
C46 0.0167(12) 0.0234(11) 0.0220(18) 0.0003(11) -0.0005(12) 0.0004(9)
C45 0.0226(12) 0.0235(11) 0.0186(18) -0.0002(11) 0.0021(12) 0.0037(10)
C2 0.0195(12) 0.0219(11) 0.0209(18) -0.0015(11) 0.0028(12) -0.0029(9)
C15 0.0189(12) 0.0357(13) 0.028(2) -0.0098(13) 0.0044(13) -0.0061(11)
C44 0.0233(12) 0.0295(12) 0.0169(17) 0.0026(11) 0.0039(12) 0.0040(10)
C31 0.0187(12) 0.0235(11) 0.0153(17) 0.0022(10) 0.0028(11) -0.0019(10)
C33 0.0220(13) 0.0350(13) 0.0225(18) 0.0026(12) 0.0047(12) 0.0074(10)
C41 0.0175(11) 0.0265(12) 0.0144(17) 0.0011(11) 0.0013(11) 0.0018(10)
C47 0.0305(14) 0.0293(12) 0.028(2) -0.0012(12) 0.0087(13) -0.0059(11)
C34 0.0242(13) 0.0341(13) 0.0189(18) 0.0026(12) 0.0011(12) -0.0008(11)
C49 0.0294(14) 0.0319(12) 0.0220(18) 0.0007(12) 0.0053(13) 0.0009(11)
C12 0.0179(12) 0.0321(13) 0.0235(19) 0.0038(12) -0.0009(12) -0.0075(10)
C21 0.0216(12) 0.0302(12) 0.0165(17) -0.0064(11) 0.0044(12) -0.0008(10)
C26 0.0255(13) 0.0335(13) 0.0205(18) -0.0048(12) 0.0066(12) -0.0002(11)
C42 0.0194(12) 0.0251(12) 0.0200(17) 0.0010(11) 0.0056(12) 0.0003(10)
C43 0.0244(13) 0.0274(12) 0.0228(19) 0.0024(11) 0.0065(13) -0.0012(10)
C32 0.0257(13) 0.0290(12) 0.0164(17) 0.0001(11) 0.0025(12) 0.0002(11)
C14 0.0253(13) 0.0429(14) 0.0187(19) -0.0090(13) 0.0081(13) -0.0151(12)
C16 0.0232(13) 0.0293(12) 0.0182(17) -0.0008(11) 0.0013(12) -0.0069(10)
C1 0.0204(12) 0.0214(11) 0.0233(18) -0.0002(11) 0.0018(12) -0.0028(9)
C25 0.0239(13) 0.0436(14) 0.0217(19) -0.0131(13) 0.0128(13) -0.0080(12)
C39 0.0282(13) 0.0293(12) 0.030(2) 0.0026(12) -0.0041(13) -0.0019(11)
C37 0.0289(13) 0.0323(13) 0.028(2) -0.0032(12) 0.0023(13) 0.0052(11)
C13 0.0278(14) 0.0389(14) 0.0214(19) 0.0060(12) 0.0016(13) -0.0111(12)
C17 0.0325(15) 0.0376(14) 0.037(2) 0.0113(13) 0.0063(15) -0.0007(12)
C23 0.0276(14) 0.0516(16) 0.026(2) -0.0043(14) -0.0008(14) 0.0118(12)
C48 0.0333(14) 0.0370(13) 0.028(2) 0.0015(13) 0.0118(14) 0.0017(12)
C22 0.0218(13) 0.0345(13) 0.030(2) -0.0031(13) 0.0054(13) 0.0041(11)
C24 0.0194(13) 0.0558(16) 0.030(2) -0.0186(14) 0.0051(13) 0.0022(13)
C19 0.0347(15) 0.0418(14) 0.049(3) -0.0139(15) 0.0165(15) -0.0049(12)
C27 0.0340(15) 0.0446(15) 0.046(2) 0.0144(15) -0.0005(15) 0.0081(12)
C38 0.0248(14) 0.0543(16) 0.036(2) -0.0052(14) -0.0002(14) -0.0027(12)
C29 0.0314(15) 0.0509(16) 0.048(2) -0.0192(15) 0.0157(16) -0.0153(13)
C18 0.0435(16) 0.0593(17) 0.032(2) -0.0122(15) 0.0147(16) -0.0160(14)
C28 0.0206(14) 0.080(2) 0.048(3) -0.0244(18) 0.0010(15) -0.0004(14)
loop_
_atom_type_symbol
_atom_type_description
_atom_type_scat_dispersion_real
_atom_type_scat_dispersion_imag
_atom_type_scat_source
C C 0.0033 0.0016 'International Tables Vol C Tables 4.2.6.8 and 6.1.1.4'
H H 0.0000 0.0000 'International Tables Vol C Tables 4.2.6.8 and 6.1.1.4'
loop_
_geom_angle_atom_site_label_1
_geom_angle_atom_site_label_2
_geom_angle_atom_site_label_3
_geom_angle
C35 C36 C31 122.9(2)
C36 C35 C39 120.7(2)
C34 C35 C36 118.7(2)
C34 C35 C39 120.61(19)
C12 C11 C1 120.4(2)
C16 C11 C12 117.4(3)
C16 C11 C1 122.2(2)
C45 C46 C41 123.7(2)
C46 C45 C44 119.0(2)
C46 C45 C49 120.9(2)
C44 C45 C49 120.1(2)
C41 C2 C21 110.3(2)
C41 C2 C1 113.27(18)
C21 C2 C1 113.3(2)
C14 C15 C19 121.4(3)
C16 C15 C14 118.9(2)
C16 C15 C19 119.7(2)
C45 C44 C48 122.0(2)
C43 C44 C45 117.4(2)
C43 C44 C48 120.5(2)
C36 C31 C1 118.8(2)
C32 C31 C36 118.13(19)
C32 C31 C1 123.11(19)
C34 C33 C32 122.4(2)
C46 C41 C2 120.0(2)
C46 C41 C42 117.2(2)
C42 C41 C2 122.9(2)
C35 C34 C33 119.1(2)
C35 C34 C38 120.8(2)
C33 C34 C38 120.1(2)
C11 C12 C17 120.8(3)
C13 C12 C11 119.3(2)
C13 C12 C17 119.9(2)
C26 C21 C2 122.3(2)
C22 C21 C2 119.3(2)
C22 C21 C26 118.37(19)
C21 C26 C25 122.4(2)
C41 C42 C47 122.6(2)
C43 C42 C41 118.7(2)
C43 C42 C47 118.7(2)
C42 C43 C44 124.1(2)
C31 C32 C33 118.8(2)
C31 C32 C37 123.32(18)
C33 C32 C37 117.9(2)
C15 C14 C18 121.9(2)
C13 C14 C15 118.0(3)
C13 C14 C18 120.1(3)
C15 C16 C11 123.1(2)
C11 C1 C2 113.59(18)
C11 C1 C31 110.3(2)
C31 C1 C2 111.21(19)
C26 C25 C29 119.9(2)
C24 C25 C26 119.0(2)
C24 C25 C29 121.1(2)
C12 C13 C14 123.3(3)
C24 C23 C22 122.5(2)
C21 C22 C23 119.1(2)
C21 C22 C27 121.91(19)
C23 C22 C27 119.0(2)
C25 C24 C28 121.3(2)
C23 C24 C25 118.5(2)
C23 C24 C28 120.2(2)
loop_
_geom_bond_atom_site_label_1
_geom_bond_atom_site_label_2
_geom_bond_distance
C36 C35 1.397(3)
C36 C31 1.403(3)
C35 C34 1.387(3)
C35 C39 1.511(3)
C11 C12 1.408(3)
C11 C16 1.401(3)
C11 C1 1.521(4)
C46 C45 1.380(4)
C46 C41 1.407(3)
C45 C44 1.405(3)
C45 C49 1.519(3)
C2 C41 1.522(4)
C2 C21 1.535(3)
C2 C1 1.557(3)
C15 C14 1.403(4)
C15 C16 1.388(4)
C15 C19 1.518(3)
C44 C43 1.396(3)
C44 C48 1.501(4)
C31 C32 1.392(3)
C31 C1 1.548(3)
C33 C34 1.390(3)
C33 C32 1.409(3)
C41 C42 1.410(3)
C47 C42 1.518(3)
C34 C38 1.518(3)
C12 C13 1.378(4)
C12 C17 1.514(3)
C21 C26 1.396(3)
C21 C22 1.392(3)
C26 C25 1.398(3)
C42 C43 1.383(4)
C32 C37 1.517(3)
C14 C13 1.393(3)
C14 C18 1.501(4)
C25 C24 1.393(3)
C25 C29 1.518(3)
C23 C22 1.399(3)
C23 C24 1.390(3)
C22 C27 1.514(3)
C24 C28 1.519(3)
loop_
_geom_torsion_atom_site_label_1
_geom_torsion_atom_site_label_2
_geom_torsion_atom_site_label_3
_geom_torsion_atom_site_label_4
_geom_torsion
C36 C35 C34 C33 -2.3(4)
C36 C35 C34 C38 177.6(2)
C36 C31 C32 C33 -2.8(4)
C36 C31 C32 C37 177.7(2)
C36 C31 C1 C11 -42.9(3)
C36 C31 C1 C2 84.0(3)
C35 C36 C31 C32 1.7(4)
C35 C36 C31 C1 -179.2(2)
C11 C12 C13 C14 -0.7(3)
C46 C45 C44 C43 0.3(3)
C46 C45 C44 C48 -178.9(2)
C46 C41 C42 C47 179.2(2)
C46 C41 C42 C43 -0.9(3)
C45 C46 C41 C2 -179.9(2)
C45 C46 C41 C42 1.2(3)
C45 C44 C43 C42 -0.1(3)
C2 C41 C42 C47 0.3(3)
C2 C41 C42 C43 -179.8(2)
C2 C21 C26 C25 -177.1(3)
C2 C21 C22 C23 178.3(2)
C2 C21 C22 C27 -0.7(4)
C15 C14 C13 C12 0.7(3)
C31 C36 C35 C34 0.9(4)
C31 C36 C35 C39 -177.2(2)
C41 C46 C45 C44 -0.9(3)
C41 C46 C45 C49 179.76(19)
C41 C2 C21 C26 99.6(3)
C41 C2 C21 C22 -77.4(3)
C41 C2 C1 C11 -176.94(17)
C41 C2 C1 C31 57.9(2)
C41 C42 C43 C44 0.4(3)
C47 C42 C43 C44 -179.7(2)
C34 C33 C32 C31 1.5(4)
C34 C33 C32 C37 -179.0(2)
C49 C45 C44 C43 179.7(2)
C49 C45 C44 C48 0.5(3)
C12 C11 C16 C15 1.5(3)
C12 C11 C1 C2 151.95(19)
C12 C11 C1 C31 -82.4(2)
C21 C2 C41 C46 -44.9(3)
C21 C2 C41 C42 133.9(2)
C21 C2 C1 C11 -50.4(2)
C21 C2 C1 C31 -175.50(19)
C21 C26 C25 C24 -0.7(4)
C21 C26 C25 C29 179.2(3)
C26 C21 C22 C23 1.3(4)
C26 C21 C22 C27 -177.7(3)
C26 C25 C24 C23 0.5(4)
C26 C25 C24 C28 178.8(3)
C32 C31 C1 C11 136.1(2)
C32 C31 C1 C2 -97.0(3)
C32 C33 C34 C35 1.2(4)
C32 C33 C34 C38 -178.8(3)
C14 C15 C16 C11 -1.5(3)
C16 C11 C12 C13 -0.4(3)
C16 C11 C12 C17 179.66(19)
C16 C11 C1 C2 -31.1(3)
C16 C11 C1 C31 94.5(2)
C16 C15 C14 C13 0.4(3)
C16 C15 C14 C18 -179.4(2)
C1 C11 C12 C13 176.71(19)
C1 C11 C12 C17 -3.3(3)
C1 C11 C16 C15 -175.5(2)
C1 C2 C41 C46 83.2(2)
C1 C2 C41 C42 -97.9(2)
C1 C2 C21 C26 -28.6(3)
C1 C2 C21 C22 154.5(2)
C1 C31 C32 C33 178.2(2)
C1 C31 C32 C37 -1.3(4)
C39 C35 C34 C33 175.7(2)
C39 C35 C34 C38 -4.3(4)
C17 C12 C13 C14 179.3(2)
C48 C44 C43 C42 179.2(2)
C22 C21 C26 C25 -0.2(4)
C22 C23 C24 C25 0.6(4)
C22 C23 C24 C28 -177.7(3)
C24 C23 C22 C21 -1.5(4)
C24 C23 C22 C27 177.5(3)
C19 C15 C14 C13 179.4(2)
C19 C15 C14 C18 -0.4(3)
C19 C15 C16 C11 179.50(19)
C29 C25 C24 C23 -179.4(3)
C29 C25 C24 C28 -1.1(4)
C18 C14 C13 C12 -179.5(2)
