#------------------------------------------------------------------------------
#$Date: 2017-10-06 02:16:04 +0300 (Fri, 06 Oct 2017) $
#$Revision: 201783 $
#$URL: file:///home/coder/svn-repositories/cod/cif/4/12/65/4126561.cif $
#------------------------------------------------------------------------------
#
# This file is available in the Crystallography Open Database (COD),
# http://www.crystallography.net/
#
# All data on this site have been placed in the public domain by the
# contributors.
#
data_4126561
loop_
_publ_author_name
'Hosokawa, Tomoka'
'Takahashi, Yusuke'
'Matsushima, Tomoya'
'Watanabe, Soichiro'
'Kikkawa, Shoko'
'Azumaya, Isao'
'Tsurusaki, Akihiro'
'Kamikawa, Ken'
_publ_section_title
;
 Synthesis, Structures, and Properties of Hexapole Helicenes: Assembling
 Six [5]Helicene Substructures into Highly Twisted Aromatic Systems.
;
_journal_name_full               'Journal of the American Chemical Society'
_journal_paper_doi               10.1021/jacs.7b07113
_journal_year                    2017
_chemical_formula_moiety         'C66 H36'
_chemical_formula_sum            'C66 H36'
_chemical_formula_weight         829.01
_space_group_crystal_system      triclinic
_space_group_IT_number           2
_space_group_name_Hall           '-P 1'
_space_group_name_H-M_alt        'P -1'
_symmetry_space_group_name_Hall  '-P 1'
_symmetry_space_group_name_H-M   'P -1'
_atom_sites_solution_hydrogens   geom
_atom_sites_solution_primary     direct
_atom_sites_solution_secondary   difmap
_audit_creation_date             2017-06-13
_audit_creation_method           'by CrystalStructure 4.1'
_cell_angle_alpha                104.171(4)
_cell_angle_beta                 105.935(3)
_cell_angle_gamma                110.081(6)
_cell_formula_units_Z            2
_cell_length_a                   13.472(6)
_cell_length_b                   14.483(6)
_cell_length_c                   15.234(6)
_cell_measurement_reflns_used    7193
_cell_measurement_temperature    123
_cell_measurement_theta_max      27.48
_cell_measurement_theta_min      3.00
_cell_volume                     2488.0(18)
_computing_cell_refinement       CrystalClear
_computing_data_collection       'CrystalClear (Rigaku Inc., 2008)'
_computing_data_reduction        CrystalClear
_computing_molecular_graphics    'CrystalStructure 4.1'
_computing_publication_material  'CrystalStructure 4.1 (Rigaku, 2014)'
_computing_structure_refinement  'SHELXL2013 (Sheldrick, 2008)'
_computing_structure_solution    'SIR2011 (Burla, et al., 2012)'
_diffrn_ambient_temperature      123
_diffrn_detector_area_resol_mean 7.111
_diffrn_measured_fraction_theta_full 0.981
_diffrn_measured_fraction_theta_max 0.962
_diffrn_measurement_device_type  'Rigaku Saturn724'
_diffrn_measurement_method       \w
_diffrn_radiation_type           'Mo K\a'
_diffrn_radiation_wavelength     0.71075
_diffrn_reflns_av_R_equivalents  0.0364
_diffrn_reflns_Laue_measured_fraction_full 0.981
_diffrn_reflns_Laue_measured_fraction_max 0.962
_diffrn_reflns_limit_h_max       12
_diffrn_reflns_limit_h_min       -17
_diffrn_reflns_limit_k_max       18
_diffrn_reflns_limit_k_min       -18
_diffrn_reflns_limit_l_max       19
_diffrn_reflns_limit_l_min       -19
_diffrn_reflns_number            20718
_diffrn_reflns_point_group_measured_fraction_full 0.981
_diffrn_reflns_point_group_measured_fraction_max 0.962
_diffrn_reflns_theta_full        25.242
_diffrn_reflns_theta_max         27.483
_diffrn_reflns_theta_min         3.001
_diffrn_standards_number         0
_exptl_absorpt_coefficient_mu    0.063
_exptl_absorpt_correction_T_max  0.998
_exptl_absorpt_correction_T_min  0.891
_exptl_absorpt_correction_type   multi-scan
_exptl_absorpt_process_details   'REQAB (Rigaku, 1998)'
_exptl_crystal_colour            yellow
_exptl_crystal_density_diffrn    1.107
_exptl_crystal_density_method    'not measured'
_exptl_crystal_description       prism
_exptl_crystal_F_000             864.00
_exptl_crystal_size_max          0.190
_exptl_crystal_size_mid          0.030
_exptl_crystal_size_min          0.030
_refine_diff_density_max         0.30
_refine_diff_density_min         -0.29
_refine_ls_extinction_method     none
_refine_ls_goodness_of_fit_ref   1.061
_refine_ls_hydrogen_treatment    refxyz
_refine_ls_number_parameters     739
_refine_ls_number_reflns         11001
_refine_ls_number_restraints     0
_refine_ls_R_factor_all          0.1069
_refine_ls_R_factor_gt           0.0675
_refine_ls_shift/su_max          0.000
_refine_ls_structure_factor_coef Fsqd
_refine_ls_weighting_details
'w = 1/[\s^2^(Fo^2^)+(0.0986P)^2^+0.0000P] where P=(Fo^2^+2Fc^2^)/3'
_refine_ls_weighting_scheme      calc
_refine_ls_wR_factor_gt          0.1716
_refine_ls_wR_factor_ref         0.1993
_reflns_number_gt                6820
_reflns_number_total             11001
_reflns_threshold_expression     F^2^>2.0\s(F^2^)
_cod_data_source_file            ja7b07113_si_002.cif
_cod_data_source_block           HH-1
_cod_original_cell_volume        2487.9(18)
_cod_database_code               4126561
_shelxl_res_file
;

    shelxl.res created by SHELXL-2014/7

TITL 20170306-AT07
CELL  0.71075 13.47190 14.48270 15.23380 104.17110 105.93480 110.08110
ZERR  2 0.00590 0.00600 0.00640 0.00410 0.00320 0.00560
LATT 1
SFAC C H
UNIT 132 72
L.S. 5
FMAP 2
PLAN -25
WPDB -2
HTAB
BOND $H
CONF
LIST 4
TEMP -149.8
ACTA
SIZE 0.190 0.030 0.030
ABIN
WGHT    0.098600
FVAR       0.60003
C1    1    0.792278    0.411803    0.978319    11.00000    0.02321    0.02324 =
         0.02367    0.00967    0.01135    0.00986
C2    1    0.760605    0.483930    0.944975    11.00000    0.02328    0.02296 =
         0.02612    0.01163    0.01137    0.01079
C3    1    0.744492    0.562828    1.012151    11.00000    0.02359    0.02404 =
         0.02867    0.01339    0.01212    0.01175
C4    1    0.711088    0.537537    1.085950    11.00000    0.02352    0.02487 =
         0.02882    0.01048    0.01330    0.01117
C5    1    0.716263    0.446013    1.103581    11.00000    0.02464    0.02900 =
         0.02554    0.01271    0.01299    0.01458
C6    1    0.784160    0.404667    1.069603    11.00000    0.02242    0.02330 =
         0.02681    0.01300    0.01027    0.00875
C7    1    0.820685    0.340828    0.915590    11.00000    0.02337    0.02285 =
         0.02548    0.00931    0.01399    0.01206
C8    1    0.831074    0.251282    0.932996    11.00000    0.02886    0.02485 =
         0.02906    0.01252    0.01380    0.01414
C9    1    0.872939    0.194564    0.882254    11.00000    0.03343    0.02582 =
         0.03020    0.01108    0.01176    0.01609
C10   1    0.920448    0.230616    0.817650    11.00000    0.02853    0.03004 =
         0.02627    0.01047    0.01156    0.01644
C11   1    0.987178    0.188507    0.779351    11.00000    0.03610    0.03583 =
         0.03070    0.01004    0.01435    0.02197
C12   1    1.038864    0.229107    0.722811    11.00000    0.03736    0.04058 =
         0.02947    0.00902    0.01511    0.02408
C13   1    1.026057    0.315151    0.702768    11.00000    0.03036    0.04335 =
         0.02576    0.01143    0.01531    0.01623
C14   1    0.958249    0.355196    0.735251    11.00000    0.02665    0.03293 =
         0.02445    0.00991    0.01179    0.01374
C15   1    0.900703    0.312099    0.791306    11.00000    0.02849    0.02579 =
         0.02399    0.00888    0.01131    0.01384
C16   1    0.831397    0.354957    0.830041    11.00000    0.02655    0.02366 =
         0.02504    0.01003    0.01397    0.01175
C17   1    0.768408    0.405673    0.783874    11.00000    0.02528    0.02484 =
         0.02696    0.01270    0.01337    0.01031
C18   1    0.722691    0.379276    0.677805    11.00000    0.02411    0.03100 =
         0.02378    0.01332    0.01184    0.01151
C19   1    0.721378    0.292835    0.608316    11.00000    0.02559    0.03768 =
         0.03013    0.01246    0.01222    0.01232
C20   1    0.676555    0.271570    0.509155    11.00000    0.03565    0.04436 =
         0.02629    0.00742    0.01380    0.01599
C21   1    0.630004    0.333242    0.472735    11.00000    0.03519    0.05997 =
         0.02813    0.01799    0.01182    0.01913
C22   1    0.622489    0.412852    0.536719    11.00000    0.03326    0.05042 =
         0.02861    0.01979    0.01309    0.01743
C23   1    0.664098    0.434556    0.639328    11.00000    0.02959    0.03298 =
         0.02678    0.01505    0.01296    0.01454
C24   1    0.637429    0.503687    0.702452    11.00000    0.03002    0.03641 =
         0.03470    0.02128    0.01502    0.01570
C25   1    0.664707    0.514376    0.797969    11.00000    0.02732    0.02915 =
         0.03055    0.01390    0.01554    0.01312
C26   1    0.734200    0.469426    0.842302    11.00000    0.02399    0.02471 =
         0.02485    0.01366    0.01300    0.00932
C27   1    0.770471    0.668635    1.011906    11.00000    0.02364    0.02409 =
         0.02789    0.01218    0.01157    0.01314
C28   1    0.836030    0.708534    0.959220    11.00000    0.02487    0.02835 =
         0.03011    0.01230    0.01339    0.01141
C29   1    0.859521    0.805509    0.955014    11.00000    0.02143    0.03023 =
         0.03885    0.01738    0.01200    0.01020
C30   1    0.833165    0.877739    1.015039    11.00000    0.02214    0.02926 =
         0.04354    0.01679    0.01120    0.01353
C31   1    0.869672    0.983110    1.019332    11.00000    0.02952    0.02996 =
         0.05830    0.02202    0.01817    0.01413
C32   1    0.866131    1.058855    1.091503    11.00000    0.03370    0.02886 =
         0.08085    0.02343    0.03009    0.01689
C33   1    0.826888    1.030831    1.162226    11.00000    0.03350    0.02477 =
         0.07635    0.01208    0.02684    0.01396
C34   1    0.784550    0.927638    1.155167    11.00000    0.02657    0.02503 =
         0.05345    0.00887    0.01840    0.01269
C35   1    0.780122    0.846085    1.078073    11.00000    0.02124    0.02508 =
         0.04170    0.01276    0.01174    0.01266
C36   1    0.735478    0.734654    1.067320    11.00000    0.02342    0.02420 =
         0.03251    0.01064    0.01200    0.01189
C37   1    0.672386    0.694419    1.123740    11.00000    0.02711    0.02710 =
         0.03857    0.01216    0.01860    0.01341
C38   1    0.601921    0.737425    1.158952    11.00000    0.03074    0.02355 =
         0.04619    0.00547    0.02264    0.01143
C39   1    0.544728    0.787106    1.109289    11.00000    0.02660    0.02603 =
         0.06116    0.00424    0.01783    0.01181
C40   1    0.474594    0.822630    1.143188    11.00000    0.02641    0.02774 =
         0.08361    0.00309    0.02191    0.00735
C41   1    0.459963    0.812813    1.228157    11.00000    0.04056    0.02759 =
         0.10165    0.00648    0.04567    0.01442
C42   1    0.511517    0.762743    1.276130    11.00000    0.05343    0.02707 =
         0.08510    0.00900    0.05410    0.00851
C43   1    0.580685    0.721018    1.241324    11.00000    0.03909    0.01902 =
         0.05589    0.00336    0.03278    0.00660
C44   1    0.626372    0.659348    1.283677    11.00000    0.04761    0.03113 =
         0.04741    0.01017    0.03512    0.01166
C45   1    0.669705    0.602051    1.236549    11.00000    0.03672    0.02939 =
         0.04021    0.01272    0.02400    0.01300
C46   1    0.682714    0.609274    1.147935    11.00000    0.02843    0.02714 =
         0.03438    0.01294    0.01764    0.01341
C47   1    0.650464    0.385819    1.148851    11.00000    0.02884    0.02428 =
         0.02767    0.01064    0.01574    0.01193
C48   1    0.536737    0.373942    1.132422    11.00000    0.02654    0.03233 =
         0.02936    0.01535    0.01565    0.01654
C49   1    0.465310    0.302869    1.157095    11.00000    0.02452    0.02525 =
         0.02934    0.00990    0.01215    0.01090
C50   1    0.499787    0.233800    1.195762    11.00000    0.02696    0.02598 =
         0.02498    0.00875    0.01202    0.00959
C51   1    0.421473    0.152795    1.212553    11.00000    0.02891    0.02780 =
         0.03380    0.01325    0.01185    0.00757
C52   1    0.451153    0.081519    1.242817    11.00000    0.03694    0.02818 =
         0.03853    0.01589    0.01618    0.00727
C53   1    0.561734    0.087363    1.256403    11.00000    0.03828    0.02791 =
         0.03768    0.01695    0.01604    0.01349
C54   1    0.638962    0.165475    1.241288    11.00000    0.02992    0.03029 =
         0.02900    0.01186    0.01282    0.01339
C55   1    0.612667    0.243177    1.212991    11.00000    0.03128    0.02339 =
         0.02267    0.01013    0.01370    0.01204
C56   1    0.690850    0.324164    1.193195    11.00000    0.02420    0.02477 =
         0.02565    0.00910    0.01226    0.01088
C57   1    0.809310    0.342690    1.208324    11.00000    0.02567    0.02302 =
         0.02436    0.00980    0.01177    0.01211
C58   1    0.890314    0.346224    1.295484    11.00000    0.02541    0.02860 =
         0.02580    0.01439    0.01061    0.01103
C59   1    0.868810    0.349478    1.381561    11.00000    0.03011    0.04043 =
         0.03256    0.02058    0.01637    0.01496
C60   1    0.949578    0.358543    1.465092    11.00000    0.03652    0.06293 =
         0.02935    0.02305    0.01461    0.01733
C61   1    1.056928    0.363339    1.466009    11.00000    0.03903    0.08657 =
         0.04216    0.04079    0.01673    0.02801
C62   1    1.081306    0.363349    1.384569    11.00000    0.03058    0.06616 =
         0.03649    0.03080    0.01666    0.02351
C63   1    1.000609    0.356889    1.299067    11.00000    0.02625    0.03208 =
         0.03108    0.01705    0.01182    0.01486
C64   1    1.031092    0.371134    1.219152    11.00000    0.02328    0.03081 =
         0.03218    0.01521    0.01456    0.01303
C65   1    0.959765    0.380310    1.142768    11.00000    0.02322    0.02634 =
         0.02458    0.01090    0.01200    0.00996
C66   1    0.847527    0.368186    1.136533    11.00000    0.02507    0.02591 =
         0.02808    0.01328    0.01176    0.01262
H67   2    0.805262    0.228352    0.978193    11.00000    0.01878
H68   2    0.871897    0.124280    0.889870    11.00000    0.04362
H69   2    0.998864    0.129425    0.794062    11.00000    0.05868
H70   2    1.083988    0.193700    0.696230    11.00000    0.03537
H71   2    1.069255    0.350435    0.668175    11.00000    0.03517
H72   2    0.949432    0.415222    0.716272    11.00000    0.03302
H73   2    0.751762    0.242964    0.634447    11.00000    0.02945
H74   2    0.673635    0.211229    0.463862    11.00000    0.04102
H75   2    0.596049    0.317201    0.398629    11.00000    0.03987
H76   2    0.585704    0.454570    0.512808    11.00000    0.05333
H77   2    0.596369    0.542885    0.676686    11.00000    0.05263
H78   2    0.639122    0.554653    0.840973    11.00000    0.04555
H79   2    0.869727    0.666001    0.929244    11.00000    0.03398
H80   2    0.902181    0.832850    0.915659    11.00000    0.02747
H81   2    0.896004    0.999542    0.971657    11.00000    0.05400
H82   2    0.888772    1.126115    1.087938    11.00000    0.05523
H83   2    0.834596    1.089279    1.219196    11.00000    0.04604
H84   2    0.757013    0.909551    1.208743    11.00000    0.03486
H85   2    0.548241    0.793484    1.043218    11.00000    0.04320
H86   2    0.434846    0.857303    1.098005    11.00000    0.07610
H87   2    0.414791    0.844247    1.260115    11.00000    0.06720
H88   2    0.502652    0.748183    1.332017    11.00000    0.05940
H89   2    0.624530    0.651771    1.346620    11.00000    0.03998
H90   2    0.698833    0.562446    1.260505    11.00000    0.03189
H91   2    0.511086    0.415112    1.100124    11.00000    0.02891
H92   2    0.383202    0.296472    1.147354    11.00000    0.03549
H93   2    0.340384    0.152440    1.200115    11.00000    0.03293
H94   2    0.397073    0.025045    1.251545    11.00000    0.03411
H95   2    0.587956    0.032853    1.279701    11.00000    0.05296
H96   2    0.712788    0.166803    1.247435    11.00000    0.03859
H97   2    0.791339    0.348732    1.379981    11.00000    0.02236
H98   2    0.933644    0.366784    1.525673    11.00000    0.04423
H99   2    1.118668    0.365513    1.529523    11.00000    0.07468
H100  2    1.159454    0.371289    1.388605    11.00000    0.03611
H101  2    1.107136    0.377626    1.225008    11.00000    0.04588
H102  2    0.986872    0.400762    1.091528    11.00000    0.02679
HKLF 4
 
REM  20170306-AT07
REM R1 =  0.0675 for    6820 Fo > 4sig(Fo)  and  0.1069 for all   11001 data
REM    739 parameters refined using      0 restraints
 
END  
     
WGHT      0.0986      0.0000 

REM No hydrogen bonds found for HTAB generation

REM Highest difference peak  0.303,  deepest hole -0.290,  1-sigma level  0.057
Q1    1   0.7982  0.2427  1.1331  11.00000  0.05    0.30
Q2    1   0.5150  0.8247  1.2768  11.00000  0.05    0.26
Q3    1   0.4838  0.8174  1.1966  11.00000  0.05    0.26
Q4    1   0.6990  0.7090  1.0903  11.00000  0.05    0.25
Q5    1   0.6014  0.7367  1.2052  11.00000  0.05    0.25
Q6    1   0.7447  0.6020  0.9961  11.00000  0.05    0.25
Q7    1   0.8977  0.2195  0.8527  11.00000  0.05    0.25
Q8    1   0.8963  0.2651  0.7988  11.00000  0.05    0.25
Q9    1   0.7610  0.4655  0.3088  11.00000  0.05    0.24
Q10   1   0.8538  1.0476  1.1430  11.00000  0.05    0.23
Q11   1   1.0055  0.2998  1.1560  11.00000  0.05    0.21
Q12   1   0.8369  0.3027  0.9331  11.00000  0.05    0.21
Q13   1   0.8477  0.5573  0.9109  11.00000  0.05    0.21
Q14   1   0.5381  0.3565  0.5920  11.00000  0.05    0.20
Q15   1   0.5176  0.4162  1.2334  11.00000  0.05    0.20
Q16   1   0.7404  0.4271  0.9506  11.00000  0.05    0.20
Q17   1   0.8386  0.5172  0.8092  11.00000  0.05    0.20
Q18   1   0.7533  0.7360  0.9193  11.00000  0.05    0.20
Q19   1   0.5580  0.9142  1.2895  11.00000  0.05    0.20
Q20   1   1.0771  0.4240  1.4380  11.00000  0.05    0.19
Q21   1   1.0647  0.2348  0.6589  11.00000  0.05    0.19
Q22   1   1.0982  0.5026  1.4312  11.00000  0.05    0.19
Q23   1   0.3993  0.8985  1.2150  11.00000  0.05    0.19
Q24   1   0.9191  0.3105  0.6277  11.00000  0.05    0.19
Q25   1   0.6522  0.6069  0.8530  11.00000  0.05    0.19
;
_shelxl_hkl_file
;
   0   0   2  633.15   14.38
   0   0   2  661.84   82.91
   0   0  -2  634.28   16.44
   0   0   3 4424.51   41.23
   0   0  -3 4337.32   35.36
   0   0   4 1121.70   21.92
   0   0   4 1090.63   20.96
   0   0  -4 1038.52   34.90
   0   0  -4 1069.03   35.91
   0   0   5  107.95    6.64
   0   0   5  105.63    6.49
   0   0  -5  107.20    7.96
   0   0  -5  112.15    7.71
   0   0   6   17.06    5.57
   0   0   6   17.89    4.92
   0   0  -6   21.99    7.08
   0   0  -6   10.36    5.62
   0   0   7    4.63    3.47
   0   0  -7    1.25    1.36
   0   0  -7    4.29    2.09
   0   0   8  196.88    6.07
   0   0  -8  192.10    8.23
   0   0  -8  193.24    6.71
   0   0   9   56.54    4.80
   0   0  -9   48.35    3.87
   0   0  -9   56.94    7.44
   0   0  10   41.87   10.48
   0   0 -10   33.91    6.00
   0   0  11    1.18    1.34
   0   0 -11    3.96    2.40
   0   0  12  120.84    6.88
   0   0 -12   91.54   29.48
   0   0  13  318.34    6.97
   0   0 -13  332.50   16.00
   0   0  14   49.80   15.84
   0   0 -14   47.23   19.72
   0   0  15   42.05   13.58
   0   0 -15   66.22    8.70
   0   0 -16   18.33    8.01
   0   0 -17   12.00    6.24
   0   1 -18    8.89    5.33
   0   1 -17   -4.55    6.56
   0   1 -16    2.68    4.13
   0  -1  16    6.36    2.82
   0   1 -15   22.09    9.63
   0  -1  15   16.88    5.14
   0   1 -14   92.40   14.55
   0  -1  14   74.81   23.27
   0   1 -13  236.15   12.11
   0  -1  13  252.83    7.40
   0   1 -12   43.18    8.79
   0  -1  12   62.27   14.74
   0   1 -11   31.20    7.37
   0  -1  11   19.92    4.83
   0   1 -10   19.34    7.67
   0  -1  10   19.42    6.76
   0   1  -9   13.16    5.92
   0  -1   9   19.24    6.41
   0   1  -8  115.23    5.19
   0   1  -8  115.09    3.36
   0  -1   8  108.58    4.18
   0   1  -7   92.51    5.46
   0   1  -7   99.56    3.87
   0  -1   7   96.05    3.89
   0  -1   7   97.17    4.83
   0   1  -6  168.82    7.11
   0   1  -6  163.01    6.61
   0  -1   6  174.16    7.12
   0  -1   6  172.78    6.92
   0   1  -5  898.78   10.25
   0   1  -5  904.47    7.99
   0  -1   5  913.19    8.99
   0  -1   5  935.81    8.68
   0   1  -4  645.84   15.02
   0  -1   4  683.83   12.73
   0  -1   4  700.18   22.12
   0   1  -3  343.57    9.35
   0  -1   3  341.27    9.27
   0  -1   3  339.32    8.07
   0   1   2 3972.24   29.63
   0   1   3   92.62    8.81
   0   1   3  120.93   20.64
   0  -1  -3  111.79   32.43
   0  -1  -3   92.24   13.60
   0   1   4 4130.96   29.41
   0  -1  -4 4166.91   29.29
   0   1   5   44.05   15.51
   0   1   5   40.64    8.02
   0  -1  -5   43.39   14.37
   0  -1  -5   43.58    6.51
   0   1   6  310.92   10.73
   0   1   6  279.62    8.67
   0  -1  -6  287.04   11.16
   0  -1  -6  283.91    8.51
   0   1   7  124.58    4.51
   0  -1  -7  125.67    8.66
   0  -1  -7  126.81   10.09
   0   1   8  391.94   10.32
   0  -1  -8  409.65   10.59
   0  -1  -8  416.69   12.53
   0   1   9   13.58    3.91
   0  -1  -9    8.96    2.77
   0  -1  -9    7.81    4.89
   0   1  10   39.64    7.64
   0  -1 -10   33.77    5.81
   0   1  11    3.11    3.13
   0  -1 -11    2.85    5.49
   0   1  12  220.07    6.31
   0  -1 -12  210.68   10.86
   0   1  13    4.39    3.69
   0  -1 -13    4.36    5.87
   0   1  14   11.57    4.84
   0  -1 -14    8.37    4.60
   0  -1 -15    8.06    5.49
   0  -1 -16   19.49    8.62
   0  -1 -17    4.88    6.19
   0   2 -18    8.75    5.20
   0   2 -17    5.48    3.83
   0  -2  17    3.97    3.84
   0   2 -16   18.68    7.62
   0  -2  16    4.63    3.25
   0   2 -15    6.48    4.29
   0  -2  15    2.22    2.83
   0   2 -14    3.97    6.13
   0  -2  14   -1.26    4.96
   0   2 -13  443.05   27.32
   0  -2  13  439.58    9.80
   0   2 -12  633.27   12.00
   0  -2  12  612.22   10.51
   0   2 -11   73.94   23.07
   0  -2  11   76.65   11.72
   0   2 -10    7.06    6.98
   0  -2  10    1.02    1.20
   0   2  -9   61.05    5.31
   0  -2   9   67.30   10.32
   0   2  -8  154.61    6.30
   0  -2   8  137.99   12.17
   0   2  -7   19.03    6.68
   0   2  -7   10.87    5.41
   0  -2   7   20.23    5.67
   0  -2   7   12.15    3.93
   0   2  -6  575.17   11.09
   0   2  -6  592.14   10.47
   0  -2   6  617.51   11.26
   0  -2   6  570.56   10.03
   0   2  -5 1679.27   13.07
   0  -2   5 1712.53   13.68
   0  -2   5 1703.20   13.23
   0   2  -4  140.11   11.60
   0  -2   4  139.54    7.54
   0  -2   4  135.53    6.75
   0   2  -3  375.37    8.79
   0  -2   3  393.90   10.10
   0  -2   3  356.71   11.21
   0   2  -2  170.95   10.06
   0   2  -2  181.68   11.43
   0   2  -2  172.04   11.73
   0  -2   2  182.83   12.07
   0   2  -1   20.20    8.13
   0   2  -1    8.09    4.40
   0  -2   1   12.51    6.08
   0   2   0 1602.22   13.50
   0   2   0 1613.64   15.86
   0  -2   0 1573.51   13.05
   0  -2   0 1600.97   16.01
   0   2   1  972.20    9.14
   0   2   2 5125.23   36.38
   0  -2  -3 2923.08   25.70
   0   2   4  285.24    8.04
   0   2   4  263.38    8.26
   0  -2  -4  267.97    9.46
   0  -2  -4  291.96    8.37
   0   2   5 1071.72   16.80
   0   2   5 1054.05   17.07
   0  -2  -5 1082.70   18.06
   0  -2  -5 1122.79   17.58
   0   2   6   23.91    7.67
   0   2   6   25.22    6.00
   0  -2  -6   23.97    5.10
   0  -2  -6   23.47    6.60
   0   2   7   11.06    2.83
   0  -2  -7    8.20    3.75
   0  -2  -7    5.40    4.28
   0   2   8  257.19    8.25
   0  -2  -8  226.11    8.89
   0  -2  -8  256.69   11.11
   0   2   9   11.60    3.28
   0  -2  -9    4.25    1.46
   0  -2  -9   17.25    5.62
   0   2  10   10.79    2.95
   0  -2 -10    7.17    1.89
   0  -2 -10   22.33    7.14
   0   2  11  229.63   10.01
   0  -2 -11  240.30   15.58
   0   2  12    4.89    2.19
   0  -2 -12    7.32    5.04
   0   2  13   14.90    4.42
   0  -2 -13   20.34    9.14
   0  -2 -14   23.66    5.52
   0  -2 -15    4.85    3.61
   0  -2 -16   14.44    7.09
   0   3 -18    3.63    7.14
   0  -3  18   15.89   12.38
   0   3 -17    8.54    4.45
   0  -3  17   12.27    5.40
   0   3 -16   11.75   10.55
   0  -3  16   10.41    5.51
   0   3 -15   19.23    6.47
   0  -3  15   13.06    4.30
   0   3 -14   37.99    8.03
   0  -3  14   43.59   11.98
   0   3 -13   90.65   26.80
   0  -3  13   91.07   11.18
   0   3 -12  144.17   18.23
   0  -3  12  151.13   21.45
   0   3 -11   24.38    5.94
   0  -3  11   24.27    6.52
   0   3 -10   21.91    6.12
   0  -3  10   30.96   10.01
   0   3  -9  208.98    9.23
   0  -3   9  237.64    9.54
   0   3  -8   38.11    8.75
   0  -3   8   45.80   13.04
   0   3  -7  109.96    9.66
   0   3  -7  107.07    4.09
   0  -3   7  107.14    4.37
   0  -3   7  101.16    4.07
   0   3  -6    6.01    4.43
   0   3  -6    2.67    2.46
   0  -3   6    0.84    1.12
   0  -3   6    2.37    2.27
   0   3  -5  231.40    6.21
   0  -3   5  245.30    6.85
   0  -3   5  251.33    8.56
   0   3  -4   10.04    4.32
   0   3  -4   20.86    4.80
   0  -3   4   22.63    8.40
   0  -3   4   15.32    7.07
   0   3  -3  153.45    7.90
   0   3  -3  176.50    8.20
   0   3  -3  171.62   11.25
   0  -3   3  178.98    7.76
   0   3  -2 1534.74   12.21
   0  -3   2 1517.25   11.89
   0   3  -1   12.75    2.36
   0   3  -1   28.21    3.84
   0  -3   1   24.87    3.53
   0  -3   1   23.71    8.56
   0  -3   0 7197.19   49.96
   0   3   1 7630.01   52.15
   0   3   1 7501.32   52.10
   0   3   2    6.09    2.55
   0  -3  -2    7.19    4.03
   0   3   3   24.77    4.52
   0  -3  -3   53.84   13.91
   0   3   4  277.74    7.63
   0   3   4  264.53    8.73
   0  -3  -4  267.44    9.21
   0   3   5    1.83    1.35
   0   3   5    6.02    3.50
   0  -3  -5   -0.91    3.59
   0  -3  -5    3.38    1.15
   0   3   6 1720.21   22.20
   0  -3  -6 1757.09   22.14
   0  -3  -6 1815.21   24.35
   0   3   7  983.53   23.75
   0  -3  -7  958.24   22.97
   0  -3  -7 1024.01   25.82
   0   3   8  136.50    5.38
   0  -3  -8  133.60    8.44
   0  -3  -8  151.30   19.93
   0   3   9  195.47    4.30
   0  -3  -9  180.81    5.60
   0  -3  -9  187.14   20.43
   0   3  10  165.82   10.87
   0  -3 -10  142.58    5.81
   0  -3 -10  159.35   27.28
   0   3  11    2.31    1.67
   0  -3 -11   13.94    7.49
   0  -3 -12    7.43    3.06
   0  -3 -13  145.33   27.68
   0  -3 -14   13.81    7.61
   0  -3 -15   24.97   11.66
   0  -3 -16    2.84    3.12
   0   4 -18   33.80   16.65
   0  -4  18   50.38   16.86
   0   4 -17    2.82    3.87
   0  -4  17    3.48    3.56
   0   4 -16   25.64   12.28
   0  -4  16    1.05    3.62
   0   4 -15   17.64    7.35
   0  -4  15    7.57    4.39
   0   4 -14   -0.91    6.79
   0  -4  14    8.25    6.08
   0   4 -13  189.94   10.17
   0  -4  13  203.11    8.82
   0   4 -12   82.62   24.17
   0  -4  12  103.00   23.38
   0   4 -11    3.61    2.04
   0  -4  11    6.16    4.34
   0   4 -10  150.00    7.02
   0  -4  10  156.38    5.73
   0   4  -9    5.40    4.44
   0  -4   9   -0.17    4.26
   0   4  -8  691.39   11.57
   0  -4   8  702.64   10.83
   0   4  -7   15.01    4.11
   0  -4   7   22.11    7.48
   0   4  -6   51.59    2.53
   0  -4   6   63.56    4.00
   0  -4   6   61.99    4.66
   0   4  -5  441.74    8.17
   0   4  -5  429.85    5.32
   0   4  -5  427.86   10.52
   0  -4   5  392.02   11.91
   0   4  -4  478.23   10.71
   0   4  -4  472.14   13.20
   0   4  -4  481.09   10.88
   0  -4   4  480.65   10.68
   0   4  -3  127.84    6.78
   0   4  -3  137.88    9.37
   0  -4   3  131.84    6.42
   0  -4   3  129.04   10.40
   0   4  -2 1061.93    8.55
   0   4  -2 1076.25    8.86
   0  -4   2 1095.53    9.33
   0  -4   2 1090.77    9.55
   0   4  -1  909.67    7.51
   0   4  -1  937.33    8.38
   0  -4   1  912.02    7.46
   0  -4   1  917.56    9.26
   0   4   0  657.92   81.80
   0   4   0  656.00   81.55
   0  -4   0  619.43   12.52
   0   4   1 1129.75    8.15
   0   4   1 1148.25    9.97
   0  -4  -1 1132.72    8.16
   0  -4  -1 1140.40   10.72
   0   4   2  457.55    8.73
   0  -4  -2  462.37    9.11
   0   4   3    1.04    2.48
   0  -4  -3    3.16    2.89
   0   4   4   14.90    3.58
   0  -4  -4   22.84   10.82
   0  -4  -5    2.17    0.58
   0  -4  -5   14.10    5.28
   0  -4  -6    8.36    1.56
   0  -4  -6   13.29    3.38
   0   4   7  294.94    7.38
   0  -4  -7  294.99    6.79
   0  -4  -7  321.48   10.72
   0   4   8   33.52    5.08
   0  -4  -8   19.48    4.73
   0  -4  -8   23.91   10.79
   0   4   9  499.86    4.58
   0  -4  -9  483.32    4.72
   0  -4  -9  520.44   10.93
   0   4  10   27.25    6.19
   0  -4 -10   20.47   10.38
   0  -4 -11    5.07    3.82
   0  -4 -12   -0.88    5.97
   0  -4 -13   84.23    9.61
   0  -4 -14    4.26    6.04
   0  -4 -15   15.93    7.50
   0   5 -18   11.06    6.81
   0  -5  18    4.15    3.02
   0   5 -17   -3.16    7.33
   0  -5  17    3.10    5.59
   0   5 -16   19.65    7.16
   0  -5  16   33.29    9.84
   0   5 -15    7.38    6.19
   0  -5  15   10.62    4.92
   0   5 -14    2.44    7.40
   0  -5  14   -4.49    5.87
   0   5 -13  203.18   11.27
   0  -5  13  170.11   18.85
   0   5 -12  152.24    8.22
   0  -5  12  164.71   10.61
   0   5 -11  436.95   23.60
   0  -5  11  424.39   19.73
   0   5 -10  144.42   12.30
   0  -5  10  151.81    5.76
   0   5  -9   51.91    6.46
   0  -5   9   53.83   12.80
   0   5  -8   49.52    5.77
   0  -5   8   46.34    9.33
   0   5  -7  100.87    5.54
   0  -5   7   99.53    4.35
   0   5  -6   13.82    4.38
   0  -5   6    9.66    3.61
   0   5  -5    0.47    1.66
   0   5  -5   -3.99    2.65
   0   5  -5    3.20    1.63
   0   5  -4    2.12    2.54
   0   5  -4   -0.17    2.37
   0  -5   4   -2.51    4.04
   0  -5   4   -3.29    3.85
   0   5  -3  586.22   12.56
   0   5  -3  570.23   16.97
   0  -5   3  572.80   12.17
   0  -5   3  574.95   14.31
   0   5  -2  161.51    7.27
   0   5  -2  156.16    7.64
   0  -5   2  164.40    7.93
   0  -5   2  168.42   16.10
   0   5  -1  226.98    6.36
   0   5  -1  250.11    5.70
   0  -5   1  238.71    5.59
   0   5   0  408.04   11.14
   0   5   0  401.56   12.19
   0  -5   0  404.73   11.14
   0  -5   0  400.36   12.34
   0   5   1  729.37   11.58
   0   5   1  733.81   12.79
   0  -5  -1  745.51   11.81
   0  -5  -1  742.21   13.20
   0   5   2   -0.30    2.55
   0  -5  -2   -3.34    3.51
   0  -5  -3   10.27    4.50
   0  -5  -4  160.83    6.42
   0  -5  -5   13.85    4.71
   0  -5  -6  137.77    7.87
   0  -5  -7    1.11    2.41
   0  -5  -8  274.86   24.29
   0  -5  -9  239.45   19.01
   0  -5 -10  107.49   17.66
   0  -5 -11   -0.37    5.45
   0  -5 -12  252.84    9.93
   0  -5 -13    7.10    5.55
   0  -5 -14   20.78   10.64
   0   6 -19    8.29    7.24
   0  -6  19    5.84    3.46
   0   6 -18    4.92    5.57
   0  -6  18    8.12    4.28
   0   6 -17   58.21   18.61
   0  -6  17   65.91   18.16
   0   6 -16   -3.26    7.28
   0  -6  16    6.97    5.76
   0   6 -15   49.90   18.24
   0  -6  15   43.24   11.28
   0   6 -14   -3.81    7.20
   0  -6  14    9.62    6.78
   0   6 -13   36.23   12.99
   0  -6  13   27.35    6.55
   0   6 -12  861.05   13.24
   0  -6  12  869.00   12.13
   0   6 -11    3.69    3.81
   0  -6  11   -0.38    4.23
   0   6 -10  245.99    8.65
   0  -6  10  269.85   16.73
   0   6  -9   -7.82    4.86
   0  -6   9    1.85    2.72
   0   6  -8   41.68    5.34
   0  -6   8   49.62   11.21
   0   6  -7    1.10    4.24
   0  -6   7    5.33    2.38
   0   6  -6  166.68   14.26
   0  -6   6  163.38    6.99
   0   6  -5  100.98    5.95
   0   6  -5  105.77    5.57
   0  -6   5  113.69    5.16
   0   6  -4   34.47    7.49
   0   6  -4   23.06    6.84
   0  -6   4   30.01   10.65
   0  -6   4   22.79    7.05
   0   6  -3  519.64    9.10
   0   6  -3  525.04   10.53
   0  -6   3  542.33   10.84
   0  -6   3  540.82   10.79
   0   6  -2   12.67    7.91
   0   6  -2   19.83    4.46
   0  -6   2   17.08    5.43
   0   6  -1    1.80    1.67
   0   6  -1    5.85    3.66
   0  -6   1    4.11    2.80
   0  -6   1    4.81    4.23
   0   6   0  148.53    4.79
   0   6   0  166.25   14.85
   0  -6   0  152.00    5.25
   0  -6   0  141.51    6.75
   0   6   1   25.14    4.08
   0  -6  -1   33.19    5.01
   0  -6  -1   30.85   11.41
   0  -6  -2  147.25    5.98
   0  -6  -3  199.46    9.23
   0  -6  -4   10.42    4.84
   0  -6  -5    3.76    3.22
   0  -6  -6   36.55    7.66
   0  -6  -7   43.48   14.10
   0  -6  -8    3.22    5.18
   0  -6  -9   58.32    8.65
   0  -6 -10  197.36    8.93
   0  -6 -11    8.05    6.03
   0  -6 -12   -5.94    5.64
   0  -6 -13   41.71   14.06
   0  -6 -14   -3.04    4.78
   0   7 -19    2.95    4.00
   0  -7  19    4.25    3.94
   0   7 -18    3.28    7.89
   0  -7  18    5.32    6.12
   0   7 -17   -0.16    6.95
   0  -7  17   -2.64    6.54
   0   7 -16   98.84   12.15
   0  -7  16   73.40   22.74
   0   7 -15   50.01   15.84
   0  -7  15   62.62   13.19
   0   7 -14   -5.20    7.31
   0  -7  14    4.84    4.03
   0   7 -13   18.98    6.95
   0  -7  13   29.12    9.08
   0   7 -12  183.32   12.51
   0  -7  12  169.25   20.44
   0   7 -11   24.52    4.29
   0  -7  11   31.81    8.92
   0   7 -10   30.43    8.08
   0  -7  10   37.13    6.30
   0   7  -9   19.00    7.37
   0  -7   9    4.09    4.01
   0   7  -8    6.22    6.85
   0  -7   8   17.67    5.90
   0   7  -7   65.58    5.87
   0  -7   7   58.77   14.25
   0   7  -6   31.49    4.38
   0  -7   6   32.97    4.13
   0  -7   5  179.25    5.94
   0  -7   5  164.83   11.24
   0   7  -4   82.59    2.45
   0  -7   4   90.65    2.79
   0  -7   4   92.90   12.32
   0   7  -3   15.76    4.73
   0  -7   3   22.84    7.13
   0  -7   3   22.07    9.09
   0   7  -2 1101.36   12.30
   0  -7   2 1103.89   13.54
   0  -7   2 1114.44   14.59
   0   7  -1   29.75    3.02
   0  -7   1   35.28    4.95
   0  -7   1   19.74    7.62
   0   7   0  544.53    7.49
   0  -7   0  555.24    7.77
   0  -7   0  545.30   10.02
   0   7   1   73.13    4.65
   0  -7  -1   78.75    3.69
   0  -7  -1   77.72    9.23
   0  -7  -2  999.90   26.60
   0  -7  -3  295.22    9.86
   0  -7  -4   -0.46    4.09
   0  -7  -5   49.05   14.07
   0  -7  -6    5.12    4.41
   0  -7  -7  442.06   16.23
   0  -7  -8   46.98   16.76
   0  -7  -9    6.72    3.82
   0  -7 -10   15.02    7.35
   0  -7 -11   12.25    6.82
   0  -7 -12    6.53    5.30
   0  -7 -13    7.69    6.91
   0   8 -18   32.92   17.82
   0  -8  18    6.11    4.10
   0   8 -17   80.17   10.13
   0  -8  17   44.43   15.21
   0   8 -16   16.77    9.69
   0  -8  16   13.43    6.93
   0   8 -15  205.42   19.62
   0  -8  15  243.19    9.17
   0   8 -14   27.93    6.47
   0  -8  14   20.94    6.93
   0   8 -13   74.86   16.63
   0  -8  13   63.92   13.32
   0   8 -12   51.24   13.84
   0  -8  12   56.34    9.24
   0   8 -11  788.64   12.12
   0  -8  11  774.22   11.56
   0   8 -10   39.93   10.88
   0  -8  10   45.99   10.46
   0   8  -9  373.60   22.71
   0  -8   9  369.69   11.87
   0   8  -8    5.66    5.25
   0  -8   8   17.32    7.59
   0   8  -7   51.21   10.23
   0  -8   7   61.02    4.32
   0   8  -6    2.00    4.33
   0  -8   6    4.03    3.01
   0  -8   5  307.55    9.99
   0  -8   5  292.89   13.39
   0  -8   4  499.84    8.70
   0  -8   4  499.81   10.12
   0   8  -3    5.88    2.59
   0  -8   3    5.99    3.29
   0  -8   3    6.79    3.98
   0   8  -2  286.23    8.79
   0  -8   2  307.62   11.88
   0  -8   2  292.24   13.74
   0   8  -1  255.75    7.96
   0  -8   1  267.13    8.92
   0  -8   1  248.56   10.17
   0   8   0  106.10    2.45
   0  -8   0  107.28    2.85
   0  -8   0  105.96   13.64
   0   8   1    0.52    0.62
   0  -8  -1    5.15    1.61
   0  -8  -1    3.85    3.21
   0  -8  -2  319.57   15.16
   0  -8  -3   54.75   14.62
   0  -8  -4   22.23    9.91
   0  -8  -5   27.68    6.79
   0  -8  -6  157.00    8.93
   0  -8  -7   -4.95    4.74
   0  -8  -8  114.77   16.34
   0  -8  -9    6.24    6.01
   0  -8 -10    0.74    4.83
   0  -8 -11   50.91   14.09
   0  -8 -12   18.22    6.71
   0   9 -18    8.49    4.92
   0  -9  18    0.64    4.32
   0   9 -17   -2.23    6.90
   0  -9  17    9.87    5.98
   0   9 -16   -6.06    6.89
   0  -9  16    9.21    4.63
   0   9 -15   33.77    8.26
   0  -9  15   34.27    8.93
   0   9 -14   19.50    9.17
   0  -9  14   20.10    7.30
   0   9 -13  862.66   12.97
   0  -9  13  903.22   12.69
   0   9 -12   58.78   11.03
   0  -9  12   38.22   11.79
   0   9 -11 3765.96   20.97
   0  -9  11 3751.32   26.72
   0   9 -10 1616.32   37.86
   0  -9  10 1577.82   36.39
   0   9  -9   37.61    9.92
   0  -9   9   27.40    7.38
   0   9  -8  218.23    8.67
   0  -9   8  225.58    8.73
   0   9  -7    4.37    4.22
   0  -9   7    6.69    2.82
   0  -9   6   14.82    4.39
   0  -9   6   12.68    5.63
   0  -9   5  260.46    7.89
   0  -9   5  264.76    9.47
   0  -9   4   53.15   10.63
   0  -9   4   46.70   14.61
   0  -9   3   -1.43    2.67
   0  -9   3   -0.66    4.83
   0   9  -2   22.52    6.19
   0  -9   2   26.15    6.15
   0  -9   2   31.36    8.20
   0   9  -1   68.71    5.84
   0  -9   1   80.16    8.76
   0  -9   1   80.43    8.50
   0   9   0   14.83    4.73
   0  -9   0   22.84    3.99
   0  -9   0   31.31    6.96
   0   9   1  155.09    2.79
   0  -9  -1  161.52    4.11
   0  -9  -1  161.17   11.71
   0  -9  -2   27.63    7.29
   0  -9  -3  386.87   19.25
   0  -9  -4  784.40   24.87
   0  -9  -5   65.58   16.27
   0  -9  -6   47.71    6.44
   0  -9  -7   14.10    6.67
   0  -9  -8   56.47   19.74
   0  -9  -9    2.29    3.49
   0  -9 -10   11.15    5.04
   0  -9 -11   -0.34    2.70
   0  10 -18   24.26   10.52
   0 -10  18   35.55   10.14
   0  10 -17    8.39    6.90
   0 -10  17   10.70    4.82
   0  10 -16    7.64    6.92
   0 -10  16   12.81    4.56
   0  10 -15   15.39    9.09
   0 -10  15   14.93    6.01
   0  10 -14   95.51   10.84
   0 -10  14   82.45   23.93
   0  10 -13   18.33    6.51
   0 -10  13   17.88    5.23
   0  10 -12  119.47    8.02
   0 -10  12   98.89   27.25
   0  10 -11 1228.12   36.99
   0 -10  11 1211.87   37.56
   0  10 -10  403.21   10.56
   0 -10  10  425.47   10.89
   0  10  -9   54.37    8.12
   0 -10   9   40.32    7.61
   0  10  -8    2.71    5.48
   0 -10   8   -3.16    3.91
   0  10  -7  187.12    6.70
   0 -10   7  180.53    6.03
   0 -10   6   22.05    5.28
   0 -10   6   25.15    8.05
   0 -10   5   46.73   12.57
   0 -10   5   46.61   13.11
   0 -10   4   76.09   11.88
   0 -10   4   73.21   14.27
   0 -10   3  119.66    6.17
   0 -10   3  113.35   12.42
   0  10  -2  241.87    8.48
   0 -10   2  276.31   10.90
   0 -10   2  275.76   11.04
   0  10  -1    7.18    3.36
   0 -10   1   12.37    1.96
   0 -10   1    5.05    3.09
   0  10   0   14.95    3.79
   0 -10   0   20.02    2.93
   0 -10   0   21.83    6.94
   0  10   1   93.69    2.34
   0 -10  -1   96.38    3.77
   0 -10  -1   99.05    7.07
   0 -10  -2   34.61   11.48
   0 -10  -3   -0.09    5.58
   0 -10  -4   52.85   14.63
   0 -10  -5   55.22   14.31
   0 -10  -6    2.70    3.31
   0 -10  -7    4.63    5.78
   0 -10  -8   55.48   16.64
   0 -10  -9   52.70   15.33
   0 -10 -10    6.02    4.76
   0  11 -18   11.32    7.21
   0 -11  18    9.27    2.83
   0  11 -17   14.20    5.46
   0 -11  17   12.13    6.98
   0  11 -16    7.83    4.86
   0 -11  16   11.20    5.69
   0  11 -15    3.56    7.27
   0 -11  15   13.29    7.85
   0  11 -14   40.48   12.16
   0 -11  14   20.48    5.53
   0  11 -13    9.86    9.15
   0 -11  13    3.75    4.39
   0  11 -12  105.52    9.10
   0 -11  12   91.49   25.57
   0  11 -11  626.50   12.65
   0 -11  11  608.27   11.10
   0  11 -10  551.83   11.53
   0 -11  10  561.79   12.25
   0  11  -9   31.72   10.23
   0 -11   9   28.55    7.10
   0  11  -8  749.06   11.72
   0 -11   8  745.77   11.28
   0 -11   7  253.48   20.46
   0 -11   6   79.92   15.24
   0 -11   6   78.93   17.71
   0 -11   5  195.68    6.03
   0 -11   5  197.06   19.29
   0 -11   4   57.17    9.97
   0 -11   4   57.96   11.40
   0 -11   3   16.17    2.99
   0 -11   3   10.96    5.22
   0 -11   2  160.72   13.34
   0 -11   2  164.43   20.17
   0  11  -1  118.76    3.11
   0 -11   1  143.49   11.18
   0 -11   1  137.61   18.62
   0 -11   0   56.94    9.25
   0 -11   0   62.32   18.69
   0 -11  -1    0.77    0.31
   0 -11  -1   -0.94    5.91
   0 -11  -2   15.94    7.74
   0 -11  -3   99.77   11.30
   0 -11  -4   54.39   10.20
   0 -11  -5    2.25    3.88
   0 -11  -6    3.31    5.18
   0 -11  -7   10.38    8.02
   0 -11  -8    0.85    4.23
   0 -11  -9    7.87    2.68
   0  12 -17   10.77    4.97
   0 -12  17    7.49    4.12
   0  12 -16   -0.19    7.58
   0 -12  16   -6.65    7.11
   0  12 -15    8.32    7.60
   0 -12  15   12.04    4.77
   0  12 -14   66.42    9.94
   0 -12  14   58.83   18.98
   0  12 -13   17.97    7.04
   0 -12  13   10.95    7.17
   0  12 -12    2.71    6.88
   0 -12  12    3.10    4.25
   0  12 -11  149.56   28.59
   0 -12  11  133.19   26.36
   0  12 -10   26.34    6.79
   0 -12  10   14.73    4.51
   0  12  -9    2.82    3.79
   0 -12   9   -3.91    5.72
   0  12  -8   24.76    8.82
   0 -12   8   28.90    6.86
   0 -12   7   76.14   16.22
   0 -12   7   85.08   19.52
   0 -12   6  223.41    6.15
   0 -12   6  211.48   18.93
   0 -12   5   21.59    4.48
   0 -12   5   44.22   21.62
   0 -12   4  806.07   23.66
   0 -12   4  831.54   26.02
   0 -12   3    4.68    1.94
   0 -12   3    9.31    6.00
   0 -12   2   53.12    8.13
   0 -12   2   57.25   13.79
   0 -12   1    8.09    2.90
   0 -12   1    9.52    5.63
   0 -12   0   36.37    6.27
   0 -12  -1   12.02    4.88
   0 -12  -2   -2.30    4.81
   0 -12  -3   -0.83    4.98
   0 -12  -4  164.33   35.35
   0 -12  -5    4.39    2.51
   0 -12  -6   11.38    5.09
   0 -12  -7   16.64    9.74
   0 -12  -8   39.83   18.56
   0  13 -17    0.11    3.03
   0 -13  17    8.64    4.19
   0  13 -16    4.73    7.75
   0 -13  16   -1.03    5.64
   0  13 -15    8.19    8.10
   0 -13  15    0.52    3.99
   0  13 -14   12.88    7.36
   0 -13  14    2.36    7.27
   0  13 -13   32.76    9.01
   0 -13  13   11.33    4.65
   0  13 -12  228.01   25.65
   0 -13  12  213.88   26.37
   0  13 -11  133.97   13.20
   0 -13  11   93.37   22.18
   0  13 -10   68.24   10.28
   0 -13  10   65.82   14.79
   0  13  -9   -0.92    6.99
   0 -13   9    4.01    5.62
   0  13  -8   10.19    6.52
   0 -13   8    7.21    2.60
   0 -13   7    3.95    3.61
   0 -13   7    2.76    3.80
   0 -13   6   38.51    9.22
   0 -13   6   28.25    8.34
   0 -13   5   11.37    6.37
   0 -13   5   14.15    5.67
   0 -13   4   84.80   11.18
   0 -13   4   87.87   20.16
   0 -13   3  635.00    8.05
   0 -13   3  607.86   17.55
   0 -13   2  176.25   11.02
   0 -13   2  176.64   24.16
   0 -13   1   -0.21    1.85
   0 -13   1    6.42    2.64
   0 -13   0    4.06    4.13
   0 -13  -1   45.58   14.60
   0 -13  -2   -1.74    5.70
   0 -13  -3   17.63    5.28
   0 -13  -4    6.12    3.81
   0 -13  -5    1.80    3.42
   0 -13  -6    7.27    3.95
   0  14 -16   -1.06    7.42
   0 -14  16    5.21    4.58
   0  14 -15   -5.76    7.76
   0 -14  15   -0.66    7.07
   0  14 -14   10.82    7.78
   0 -14  14    1.61    3.63
   0  14 -13    0.78    6.76
   0 -14  13    5.74    4.66
   0  14 -12   89.68   23.79
   0 -14  12   70.15   18.83
   0  14 -11   -0.12    7.15
   0 -14  11   -0.25    5.82
   0  14 -10   84.14   16.81
   0 -14  10   85.65   22.00
   0  14  -9  111.64    9.40
   0 -14   9   72.79   18.48
   0  14  -8    9.25    5.88
   0 -14   8    6.38    3.34
   0 -14   7   12.83    4.76
   0 -14   7    6.67    5.01
   0 -14   6    8.45    2.46
   0 -14   6   -9.67    6.74
   0 -14   5    7.32    3.34
   0 -14   5    3.63    3.52
   0 -14   4    6.89    2.56
   0 -14   4    5.10    5.17
   0 -14   3    6.46    2.63
   0 -14   3   -0.07    6.93
   0 -14   2  216.82   23.62
   0 -14   1    8.02    7.72
   0 -14   0    3.23    5.51
   0 -14  -1  163.91   18.50
   0 -14  -2   59.93   16.78
   0 -14  -3   17.73    6.28
   0 -14  -4   36.21    9.21
   0 -14  -5   20.92    6.00
   0  15 -15   19.50    7.43
   0 -15  15   15.76    6.89
   0  15 -14   24.11    9.38
   0 -15  14   21.53    6.10
   0  15 -13   10.18    5.18
   0 -15  13   14.09    5.87
   0  15 -12    0.99    8.12
   0 -15  12   12.03    3.68
   0  15 -11    9.90    8.34
   0 -15  11   10.89    4.99
   0  15 -10    4.50    4.01
   0 -15  10    5.09    3.00
   0  15  -9   13.38    8.04
   0 -15   9    5.22    3.11
   0  15  -8   36.97   10.64
   0 -15   8   29.93    9.71
   0 -15   7   34.33    7.72
   0 -15   7   43.16   11.19
   0 -15   6    4.57    2.68
   0 -15   6   -5.85    6.57
   0 -15   5    7.94    3.17
   0 -15   5   10.53    6.19
   0 -15   4    9.18    2.80
   0 -15   4    9.86    6.08
   0 -15   3   87.31   26.02
   0 -15   2   -0.27    5.11
   0 -15   1   28.59   10.86
   0 -15   0    9.27    4.83
   0 -15  -1   -6.22    5.72
   0 -15  -2   77.18   25.68
   0 -15  -3    3.33    4.14
   0  16 -13   -0.24    7.75
   0 -16  13    8.06    5.46
   0  16 -12   -1.13    4.97
   0 -16  12    9.58    3.62
   0  16 -11  115.89   14.96
   0 -16  11   77.34   23.05
   0  16 -10   13.26    8.51
   0 -16  10   11.72    5.22
   0  16  -9   54.38   11.57
   0 -16   9   33.54    9.27
   0  16  -8   23.84    9.63
   0 -16   8   23.24    6.42
   0 -16   7    2.73    3.26
   0 -16   7    2.13    4.36
   0 -16   6   32.50    6.53
   0 -16   6   32.72   12.90
   0 -16   5    2.36    3.37
   0 -16   4   31.87    9.85
   0 -16   3   10.52    7.26
   0 -16   2   -0.40    2.98
   0 -16   1   -1.26    6.34
   0 -16   0   -0.71    6.19
   0 -16  -1    6.17    3.65
   0  17 -11    5.60    7.44
   0 -17  11    4.46    2.11
   0  17 -10    2.67    4.49
   0 -17  10    3.81    3.58
   0  17  -9   31.26    9.43
   0 -17   9   16.59    7.11
   0  17  -8    6.78    6.44
   0 -17   8   10.40    4.37
   0 -17   7   28.61   13.64
   0 -17   7   33.41   14.28
   0 -17   6   14.68    7.49
   0 -17   5   -8.82    5.76
   0 -17   4    3.61    4.19
   0 -17   3    8.67    6.38
  -1  18  -7   29.11   10.12
   1 -17   1   15.66    9.01
   1 -17   2   69.47   27.49
   1 -17   3    2.46    4.76
   1 -17   4   19.04    9.59
   1 -17   5   12.09    7.66
   1 -17   6    1.22    2.17
   1 -17   6   -6.68    5.90
   1 -17   7   -2.74    3.58
  -1  17  -7    0.74    6.53
   1 -17   8   15.71    5.46
  -1  17  -8   14.51    8.42
  -1  17  -9   43.01   12.16
   1 -17  10   24.74    9.51
  -1  17 -10   21.52    9.71
   1 -17  11   16.63    7.59
  -1  17 -11   28.84    9.46
   1 -17  12    5.28    4.97
  -1  17 -12   -2.47    6.73
   1 -16  -2    9.41    5.66
   1 -16  -1   30.34   11.11
   1 -16   0   64.25   20.61
   1 -16   1   19.68    7.82
   1 -16   2   53.08   15.63
   1 -16   3   14.54    5.41
   1 -16   4   23.30    8.51
   1 -16   5    2.18    4.14
   1 -16   5   21.77   13.97
   1 -16   6   13.14    4.12
   1 -16   6    4.02    4.65
   1 -16   7    3.23    2.85
  -1  16  -7   15.10    8.80
   1 -16   8   59.98   14.60
  -1  16  -8   70.21    9.63
   1 -16   9    2.10    2.68
  -1  16  -9   13.75    6.78
   1 -16  10   -5.73    4.91
  -1  16 -10    1.00    6.46
   1 -16  11    4.76    4.33
  -1  16 -11    2.77    4.45
   1 -16  12   40.89   14.83
  -1  16 -12   75.20   12.08
   1 -16  13  104.69   38.77
  -1  16 -13  181.67   28.96
   1 -16  14    4.62    3.01
  -1  16 -14    7.08    8.17
   1 -15  -4   16.80    7.57
   1 -15  -3    4.90    3.34
   1 -15  -2    1.57    2.33
   1 -15  -1   -5.32    5.08
   1 -15   0   -0.63    3.47
   1 -15   1   49.49   10.55
   1 -15   2   74.81   19.99
   1 -15   3   20.04    5.51
   1 -15   3   27.76    9.85
   1 -15   4    7.83    8.33
   1 -15   4    6.68    5.90
   1 -15   5   -0.22    4.04
   1 -15   5    3.62    4.63
   1 -15   6   -3.36    4.28
   1 -15   6    1.05    4.42
   1 -15   7    6.21    4.20
  -1  15  -7   11.18    8.71
   1 -15   8    5.34    4.11
  -1  15  -8    9.60    5.99
   1 -15   9    0.19    4.04
  -1  15  -9    2.49    3.82
   1 -15  10    0.35    3.30
  -1  15 -10   17.39    9.88
   1 -15  11   16.87    5.80
  -1  15 -11   24.44   10.94
   1 -15  12   26.73    6.92
  -1  15 -12   30.88    9.82
   1 -15  13   98.48   25.91
  -1  15 -13  143.55   24.25
  -1  15 -14   26.55    8.74
   1 -15  15    5.50    3.30
  -1  15 -15    0.38    7.07
   1 -14  -5    3.74    3.62
   1 -14  -4    6.58    6.67
   1 -14  -3   52.46   16.70
   1 -14  -2   66.80   17.28
   1 -14  -1  211.03   20.80
   1 -14   0   39.90   12.32
   1 -14   1   37.73   12.06
   1 -14   2    1.09    1.05
   1 -14   2    8.11    5.24
   1 -14   3   31.35    6.90
   1 -14   3   38.01    7.28
   1 -14   4    3.63    3.49
   1 -14   4    9.08    6.50
   1 -14   5    9.41    3.25
   1 -14   5    3.94    7.02
   1 -14   6   32.25    5.68
   1 -14   6   35.89    9.22
   1 -14   7   17.90    4.87
  -1  14  -7   11.19    5.81
   1 -14   8   30.57    5.81
  -1  14  -8    6.11    6.26
   1 -14   9    6.08    2.60
  -1  14  -9    8.53    6.00
   1 -14  10   43.25   10.47
  -1  14 -10   45.50    8.19
   1 -14  11   12.39    3.44
  -1  14 -11   18.14   11.32
   1 -14  12   12.73    3.28
  -1  14 -12   30.32    7.64
   1 -14  13   -2.65    5.97
  -1  14 -13   -1.08    8.01
   1 -14  14   26.64    9.47
  -1  14 -14    1.24    7.51
   1 -14  15    3.06    4.02
  -1  14 -15   -4.72    5.93
   1 -14  16   -7.05    6.06
  -1  14 -16   -1.94    5.44
   1 -13  -7   46.10   16.62
   1 -13  -6   44.39   17.90
   1 -13  -5    7.17    4.63
   1 -13  -4   41.64   12.06
   1 -13  -3   32.80   13.71
   1 -13  -2   10.36    3.29
   1 -13  -1   71.21   15.66
   1 -13   0  156.80   13.67
   1 -13   1   77.68    9.40
   1 -13   1   89.56   17.37
   1 -13   2   35.80    6.20
   1 -13   2   39.07    9.76
   1 -13   3  145.56   11.80
   1 -13   3  143.08   15.95
   1 -13   4  121.43   19.27
   1 -13   4  126.33   17.17
   1 -13   5   87.39   13.89
   1 -13   5   80.75   19.50
   1 -13   6   89.46   16.16
   1 -13   6   93.44   11.70
   1 -13   7    7.08    3.62
  -1  13  -7    2.56    5.31
   1 -13   8   32.25    7.21
  -1  13  -8   24.14    7.76
   1 -13   9   21.87    4.47
  -1  13  -9   15.15    9.10
   1 -13  10    4.70    4.55
  -1  13 -10   16.50    7.26
   1 -13  11   34.29    8.91
  -1  13 -11   30.87    7.98
   1 -13  12   14.52    3.42
  -1  13 -12    9.32    7.60
   1 -13  13   -2.42    6.29
  -1  13 -13    1.97    6.53
   1 -13  14    7.72    5.32
  -1  13 -14    4.60    7.24
   1 -13  15   15.56    6.07
  -1  13 -15    1.67    8.35
   1 -13  16    8.03    3.92
  -1  13 -16    6.96    7.95
   1 -13  17   -2.36    4.51
  -1  13 -17    6.06    3.62
   1 -12  -5   14.90    7.27
   1 -12  -4   13.19    3.55
   1 -12  -3  302.65   14.96
   1 -12  -2  424.42   14.28
   1 -12  -1   95.81    9.47
   1 -12   0   75.42    7.97
   1 -12   0   92.00   24.76
   1 -12   1  525.06   15.51
   1 -12   1  521.87   21.65
   1 -12   2   22.26    5.25
   1 -12   2   17.39    7.54
   1 -12   3    8.48    3.68
   1 -12   3    1.87    5.21
   1 -12   4  197.27   11.47
   1 -12   4  186.40    7.30
   1 -12   5   18.92    4.14
   1 -12   5   13.67    7.05
   1 -12   6   69.65   12.93
   1 -12   6   82.11   22.75
   1 -12   7  178.70    8.20
  -1  12  -7  175.63    7.63
   1 -12   8   49.10   11.01
  -1  12  -8   44.66   13.89
   1 -12   9   35.97    9.32
  -1  12  -9   43.86   10.34
   1 -12  10   64.88   14.38
  -1  12 -10   67.42   11.55
   1 -12  11   39.57    9.45
  -1  12 -11   57.11   11.11
   1 -12  12   -2.84    6.36
  -1  12 -12   -8.45    7.88
   1 -12  13   15.99    5.31
  -1  12 -13   20.53    7.04
   1 -12  14    0.56    2.41
  -1  12 -14   -3.69    6.63
   1 -12  15    3.98    2.93
  -1  12 -15    3.53    7.18
   1 -12  16    9.25    4.15
  -1  12 -16    0.49    8.92
   1 -12  17   17.71    6.42
  -1  12 -17    7.69    7.45
   1 -11 -10    0.27    2.61
   1 -11  -9   -4.52    4.83
   1 -11  -8    3.21    3.86
   1 -11  -7    6.73    5.18
   1 -11  -6  108.77   22.00
   1 -11  -5   10.79    5.37
   1 -11  -4    7.44    3.50
   1 -11  -3    4.77    2.14
   1 -11  -2   28.04   15.00
   1 -11  -1   31.34    7.24
   1 -11  -1   54.85   14.13
   1 -11   0   46.72    8.75
   1 -11   0   59.75   18.41
  -1  11   0   40.01    4.59
   1 -11   1    5.08    1.89
   1 -11   1    6.89    3.28
  -1  11  -1    2.47    1.37
   1 -11   2   18.86    3.50
   1 -11   2   11.38    4.06
   1 -11   3   21.81    4.25
   1 -11   3   13.88    6.99
   1 -11   4   -0.18    3.65
   1 -11   4    1.25    2.76
   1 -11   5  107.36    5.93
   1 -11   5   95.08   11.96
   1 -11   6    6.95    2.86
   1 -11   7  214.76   17.35
  -1  11  -7  221.13    7.64
   1 -11   8  143.66   18.57
  -1  11  -8  149.75    7.90
   1 -11   9   68.36   14.73
  -1  11  -9   68.19   21.64
   1 -11  10   66.93   18.82
  -1  11 -10   68.23   23.08
   1 -11  11    5.22    5.59
  -1  11 -11    8.38    6.32
   1 -11  12  363.13   10.09
  -1  11 -12  361.37   10.47
   1 -11  13   10.87    4.93
  -1  11 -13    0.28    6.71
   1 -11  14   18.05    6.98
  -1  11 -14   17.82    7.11
   1 -11  15    7.56    5.17
  -1  11 -15    6.72    7.87
   1 -11  16    9.09    2.79
  -1  11 -16    7.25    6.07
   1 -11  17    0.02    3.69
  -1  11 -17   -3.43    7.47
  -1  11 -18   52.49   17.95
   1 -10 -11   13.41    6.17
   1 -10 -10    7.96    6.83
   1 -10  -9    2.34    2.93
   1 -10  -8    7.36    2.45
   1 -10  -7  211.50   23.02
   1 -10  -6   73.68    6.23
   1 -10  -5   48.04   15.86
   1 -10  -4   14.45    4.07
   1 -10  -3   64.78   17.92
   1 -10  -2  178.93   23.04
   1 -10  -1  274.44    6.79
   1 -10  -1  271.31   13.36
  -1  10   1  255.46    6.15
   1 -10   0  141.59    3.26
   1 -10   0  142.16   12.64
  -1  10   0  139.42    2.68
   1 -10   1   93.42    6.73
   1 -10   1   95.20   10.00
  -1  10  -1   79.13    2.77
   1 -10   2    9.42    2.11
   1 -10   2   15.96    4.77
  -1  10  -2    5.92    2.93
   1 -10   3  165.33    4.55
   1 -10   3  153.61   11.32
   1 -10   4   56.44   11.63
   1 -10   4   56.37   11.24
   1 -10   5   98.18   20.42
   1 -10   5   86.63    8.87
   1 -10   6   -0.06    2.24
  -1  10  -6    4.13    3.97
   1 -10   7    4.29    4.38
  -1  10  -7    4.61    5.75
   1 -10   8   76.88   17.67
  -1  10  -8   75.53    6.63
   1 -10   9  271.85    8.12
  -1  10  -9  264.34   11.20
   1 -10  10   36.78   10.28
  -1  10 -10   31.70    6.56
   1 -10  11  993.26   29.63
  -1  10 -11 1001.31   31.11
   1 -10  12   11.14    5.33
  -1  10 -12   12.43    7.81
   1 -10  13   48.07   12.94
  -1  10 -13   40.09    8.23
   1 -10  14   -3.21    6.12
  -1  10 -14    5.55    4.80
   1 -10  15   14.54    4.71
  -1  10 -15   23.47   10.36
   1 -10  16    2.53    3.69
  -1  10 -16   -4.65    7.70
   1 -10  17   -0.86    6.99
  -1  10 -17    1.50    5.12
   1 -10  18   77.96   25.99
  -1  10 -18   58.00   26.28
   1  -9 -12   -2.28    4.19
   1  -9 -11  179.96   15.67
   1  -9 -10    3.68    3.54
   1  -9  -9   15.76    6.11
   1  -9  -8    4.78    5.02
   1  -9  -7   10.05    5.15
   1  -9  -6   38.77   13.14
   1  -9  -5   31.49    8.96
   1  -9  -4   36.44   12.25
   1  -9  -3  126.93   17.49
   1  -9  -2  179.43   13.30
  -1   9   2  164.20    1.96
  -1   9   2  161.53    1.90
   1  -9  -1  296.96   10.10
   1  -9  -1  300.67   12.81
  -1   9   1  294.92    7.10
   1  -9   0   79.03    7.69
   1  -9   0   64.41   15.36
  -1   9   0   66.93    3.96
   1  -9   1   50.12    8.45
   1  -9   1   40.26    9.39
  -1   9  -1   33.49    5.97
   1  -9   2  913.75   22.18
   1  -9   2  898.56   26.34
  -1   9  -2  896.47   21.88
   1  -9   3    1.54    3.09
   1  -9   3    2.94    3.05
   1  -9   4  263.33    8.69
   1  -9   4  238.55    8.73
   1  -9   5  129.44    9.00
   1  -9   5  128.64    7.61
   1  -9   6   75.68    9.85
  -1   9  -6   73.17    6.33
   1  -9   7   54.00    4.37
  -1   9  -7   51.71    6.01
   1  -9   8    3.53    4.12
  -1   9  -8    6.48    3.51
   1  -9   9   33.57    6.11
  -1   9  -9   36.63    6.86
   1  -9  10  186.03   10.86
  -1   9 -10  174.07    8.44
   1  -9  11 1415.50   43.17
  -1   9 -11 1517.95   47.48
   1  -9  12   12.45    4.01
  -1   9 -12   17.01    6.41
   1  -9  13   28.03    6.32
  -1   9 -13   24.28    5.95
   1  -9  14   74.81   19.90
  -1   9 -14   76.18   14.55
   1  -9  15   12.30    5.57
  -1   9 -15    6.34    6.32
   1  -9  16    9.02    3.54
  -1   9 -16   -2.69    6.73
   1  -9  17    6.72    3.79
  -1   9 -17    5.04    6.42
   1  -9  18   10.61    9.59
  -1   9 -18   27.01   11.88
   1  -8 -13   12.02    6.39
   1  -8 -12   15.72    5.27
   1  -8 -11   39.21   14.36
   1  -8 -10   27.10    7.95
   1  -8  -9  243.75    8.91
   1  -8  -8    1.43    3.14
   1  -8  -7   12.03    3.27
   1  -8  -6  124.41   14.34
   1  -8  -5   71.02    6.14
   1  -8  -4   -0.28    4.33
   1  -8  -3   13.70    5.98
   1  -8  -2  100.09    7.74
  -1   8   2   90.97    1.84
  -1   8   2   96.25    1.55
   1  -8  -1    0.79    0.79
   1  -8  -1    4.53    2.96
  -1   8   1    1.96    1.10
   1  -8   0  205.13    5.70
   1  -8   0  206.72    6.99
  -1   8   0  203.05    5.11
   1  -8   1   44.33    8.66
   1  -8   1   40.60   11.51
  -1   8  -1   42.06    2.27
   1  -8   2  159.81    5.33
   1  -8   2  146.84    5.72
  -1   8  -2  151.49    4.40
   1  -8   3  149.96    5.24
   1  -8   3  137.04   12.75
  -1   8  -3  135.98    4.02
   1  -8   4  257.47    8.60
   1  -8   4  249.19    9.31
   1  -8   5   62.49   13.80
  -1   8  -5   60.98    5.47
   1  -8   6  119.85    3.62
  -1   8  -6  108.91    5.51
   1  -8   7    4.35    3.20
  -1   8  -7    6.50    4.51
   1  -8   8   65.99   17.43
  -1   8  -8   62.17   11.40
   1  -8   9  147.25    6.41
  -1   8  -9  152.35    6.98
   1  -8  10  168.91    6.09
  -1   8 -10  173.26    8.46
   1  -8  11    8.23    5.86
  -1   8 -11    1.81    5.45
   1  -8  12    6.57    2.84
  -1   8 -12    2.58    3.37
   1  -8  13    9.49    4.40
  -1   8 -13   10.76    7.44
   1  -8  14  114.42   20.86
  -1   8 -14  134.61   10.43
   1  -8  15    6.24    2.77
  -1   8 -15    9.02    6.49
   1  -8  16    1.98    3.84
  -1   8 -16    4.95   10.16
   1  -8  17   20.47   10.03
  -1   8 -17   18.57    6.01
   1  -8  18    4.00    4.13
  -1   8 -18    2.94    2.92
   1  -7 -13   70.75   14.61
   1  -7 -12   10.68    4.91
   1  -7 -11    3.40    5.82
   1  -7 -10   63.10   16.88
   1  -7  -9  121.81   20.11
   1  -7  -8   18.50    6.83
   1  -7  -7    2.89    3.45
   1  -7  -6   13.93    5.15
   1  -7  -5   13.58    7.95
   1  -7  -4   92.92    8.55
   1  -7  -3  342.60   10.05
   1  -7  -2    3.17    2.26
  -1   7   2    2.60    1.07
  -1   7   2    1.71    0.66
   1  -7  -1  681.82    9.10
   1  -7  -1  687.91   13.96
  -1   7   1  682.55    9.01
   1  -7   0 1048.50   11.81
   1  -7   0  999.19   12.81
  -1   7   0 1000.79   10.95
   1  -7   1  332.34    9.49
  -1   7  -1  316.97    8.81
  -1   7  -2 1309.58   14.95
   1  -7   3 1453.41   18.81
   1  -7   3 1466.97   17.61
  -1   7  -3 1468.70   16.16
   1  -7   4 1424.01   20.08
   1  -7   4 1444.16   17.59
  -1   7  -4 1443.15   16.26
   1  -7   5   46.44    3.14
  -1   7  -5   40.19    5.07
   1  -7   6  513.69    9.24
  -1   7  -6  504.51    9.47
   1  -7   7   51.51   14.12
  -1   7  -7   47.83    5.36
   1  -7   8    4.36    2.98
  -1   7  -8    5.18    4.85
   1  -7   9    4.49    2.21
  -1   7  -9    0.15    5.77
   1  -7  10    8.63    3.90
  -1   7 -10    0.00    5.22
   1  -7  11  192.92   10.30
  -1   7 -11  198.19   20.34
   1  -7  12   93.67   11.98
  -1   7 -12   96.43   19.45
   1  -7  13   -0.71    5.40
  -1   7 -13    8.13    6.68
   1  -7  14   15.11    4.13
  -1   7 -14    8.13    6.46
   1  -7  15    4.82    4.30
  -1   7 -15   11.61    5.78
   1  -7  16   -1.57    6.31
  -1   7 -16   -4.64    7.13
   1  -7  17    1.27    5.52
  -1   7 -17   -5.56    6.69
   1  -7  18   -0.44    3.22
  -1   7 -18   -3.97    8.54
   1  -6 -14    7.79    8.66
   1  -6 -13    5.77    6.71
   1  -6 -12    2.45    5.63
   1  -6 -11  154.23   10.74
   1  -6 -10    5.05    5.11
   1  -6  -9   -4.13    4.84
   1  -6  -8   47.21    5.49
   1  -6  -7   89.11   14.42
   1  -6  -6   10.83    3.85
   1  -6  -5    0.61    1.69
   1  -6  -4   86.54    7.82
   1  -6  -3   12.85    3.85
   1  -6  -2  241.64    8.43
  -1   6   2  251.57    2.07
  -1   6   2  262.57    7.08
  -1   6   2  245.26    8.64
   1  -6  -1  743.54    8.36
   1  -6  -1  728.85   10.05
  -1   6   1  716.63    7.90
  -1   6   1  726.10    9.25
   1  -6   0  133.73    5.50
   1  -6   0  136.36   10.92
  -1   6   0  132.60    5.39
  -1   6   0  126.64    4.95
   1  -6   1  105.95    6.85
   1  -6   1  103.47   14.40
  -1   6  -1  104.05    2.87
  -1   6  -1  116.31    7.04
   1  -6   2 1674.85   27.06
   1  -6   2 1640.61   26.54
  -1   6  -2 1629.92   26.00
  -1   6  -2 1644.83   26.53
   1  -6   3  278.90    8.89
  -1   6  -3  261.08    8.52
  -1   6  -3  269.06    9.17
   1  -6   4   20.53    6.22
  -1   6  -4   17.29    4.91
  -1   6  -4   -0.91    3.38
  -1   6  -4    5.17    4.01
  -1   6  -5   42.01    5.13
   1  -6   6    2.51    3.73
  -1   6  -6    4.88    3.64
   1  -6   7   58.14    4.06
  -1   6  -7   57.47    6.17
   1  -6   8   17.85    6.97
  -1   6  -8   12.92    4.95
   1  -6   9    9.74    3.50
  -1   6  -9   12.86    5.69
   1  -6  10   -1.82    3.99
  -1   6 -10    0.72    5.42
   1  -6  11  184.88    6.53
  -1   6 -11  179.32    6.85
   1  -6  12   90.12   23.79
  -1   6 -12   84.58   14.46
   1  -6  13    6.62    4.66
  -1   6 -13    0.98    7.16
   1  -6  14    1.22    2.90
  -1   6 -14   19.41    7.14
   1  -6  15    6.20    5.37
  -1   6 -15   23.67    7.26
   1  -6  16   -1.43    5.96
  -1   6 -16   -3.78    6.24
   1  -6  17   19.34   11.61
  -1   6 -17    4.14    4.73
   1  -6  18    8.88    4.64
  -1   6 -18   26.56   12.00
   1  -5 -15    2.88    2.84
   1  -5 -14    3.13    5.23
   1  -5 -13    8.98    4.37
   1  -5 -12   89.90   15.67
   1  -5 -11   88.68   17.76
   1  -5 -10   -1.47    5.02
   1  -5  -9   23.38    8.52
   1  -5  -9   11.41    1.50
  -1   5   9    9.20    2.92
   1  -5  -8   75.46    6.00
   1  -5  -7  270.42   13.57
   1  -5  -6   11.41    4.12
   1  -5  -5   49.84    4.54
   1  -5  -4   -2.42    3.13
  -1   5   4    3.04    2.22
   1  -5  -3  168.35    7.03
  -1   5   3  172.22    6.33
   1  -5  -2 1308.89   21.06
  -1   5   2 1305.10   20.00
  -1   5   2 1344.74   20.52
  -1   5   2 1312.36   20.84
   1  -5  -1   96.48    2.44
   1  -5  -1   97.75    5.93
  -1   5   1   96.57    2.88
  -1   5   1   91.40   10.30
   1  -5   0  133.07    5.81
   1  -5   0  137.45   13.40
  -1   5   0  135.49    5.85
  -1   5   0  139.04    6.81
   1  -5   1    6.87    2.86
   1  -5   1    2.35    2.99
  -1   5  -1    6.79    2.09
  -1   5  -1    3.21    1.77
   1  -5   2  164.52    7.41
  -1   5  -2  161.03    7.79
  -1   5  -2  179.51    9.32
   1  -5   3    5.88    2.61
  -1   5  -3    8.07    3.11
  -1   5  -3    2.81    1.56
  -1   5  -4   14.41    5.11
  -1   5  -4    8.00    6.00
  -1   5  -4   12.46    7.42
   1  -5   5    6.75    3.62
  -1   5  -5   10.29    4.63
  -1   5  -5    3.86    2.33
  -1   5  -5    9.96    3.82
   1  -5   6    9.21    2.38
  -1   5  -6    4.02    3.92
   1  -5   7   60.73    9.14
  -1   5  -7   60.70   13.94
   1  -5   8   71.15    6.50
  -1   5  -8   65.03    6.39
   1  -5   9   -0.36    4.40
  -1   5  -9    2.85    5.19
   1  -5  10   46.10   11.19
  -1   5 -10   40.43    7.56
   1  -5  11  620.72   16.95
  -1   5 -11  623.82   16.92
   1  -5  12   12.54    4.87
  -1   5 -12   12.99    6.43
   1  -5  13   12.80    5.19
  -1   5 -13   20.93   10.79
   1  -5  14    9.54    4.84
  -1   5 -14   -7.25    7.20
   1  -5  15   12.66    5.19
  -1   5 -15   27.87    6.84
   1  -5  16    6.75    3.72
  -1   5 -16    8.08    6.26
   1  -5  17    1.11    3.59
  -1   5 -17   12.86   10.77
   1  -5  18   25.60   13.24
  -1   5 -18   24.62    7.73
   1  -4 -16    2.94    3.30
   1  -4 -15   40.93    6.05
   1  -4 -14    7.00    3.91
   1  -4 -13  105.24   18.40
   1  -4 -12    6.37    2.42
   1  -4 -11  145.86   20.06
  -1   4  11  146.32    7.36
   1  -4 -10  469.38   16.18
   1  -4 -10  428.09   12.45
  -1   4  10  448.07   14.43
   1  -4  -9  242.56    9.09
   1  -4  -9  220.90    3.52
  -1   4   9  241.37    7.47
   1  -4  -8  286.01   11.47
   1  -4  -8  274.22    9.82
  -1   4   8  278.38    8.25
   1  -4  -7  335.30   10.68
   1  -4  -7  329.50    8.30
  -1   4   7  333.04    9.18
   1  -4  -6    2.43    1.80
   1  -4  -6    1.39    0.86
  -1   4   6    1.97    0.84
   1  -4  -5    3.91    1.92
  -1   4   5    5.52    1.16
  -1   4   5    6.26    2.46
   1  -4  -4  107.20    5.57
  -1   4   4   99.29    3.11
   1  -4  -3  796.18   13.31
  -1   4   3  771.38   13.02
   1  -4  -2  170.74    8.49
  -1   4   2  155.62    6.63
  -1   4   2  170.32    7.10
  -1   4   2  163.03    8.93
   1  -4   0 3297.74   23.01
   1  -4   0 3251.37   23.51
  -1   4   0 3260.98   22.68
  -1   4   0 3289.95   23.57
   1  -4   1  602.13   12.35
  -1   4  -1  579.25   11.80
  -1   4  -1  598.71   12.89
   1  -4   2  260.58    6.43
   1  -4   2  254.18    6.68
  -1   4  -2  249.61    6.40
  -1   4  -2  266.14    6.58
   1  -4   3    1.79    4.42
  -1   4  -3   10.52    3.77
  -1   4  -3    5.89    3.91
  -1   4  -3    4.90    2.53
   1  -4   4  114.67    6.78
   1  -4   4  112.78    8.69
  -1   4  -4  115.43    7.25
  -1   4  -4  112.79    6.16
   1  -4   5   14.93    5.73
   1  -4   5   11.51    4.77
  -1   4  -5    3.65    3.88
  -1   4  -5   13.62    5.13
   1  -4   6  108.39    9.72
   1  -4   6  112.25    6.60
  -1   4  -6   98.88    6.50
   1  -4   7    7.31    4.89
  -1   4  -7    4.31    4.42
   1  -4   8    9.43    4.07
  -1   4  -8    3.86    4.45
   1  -4   9   87.67    9.41
  -1   4  -9   73.12    6.82
   1  -4  10  382.75   12.14
  -1   4 -10  380.58   13.16
   1  -4  11    5.13    3.93
  -1   4 -11    7.17    6.86
   1  -4  12  171.52   21.98
  -1   4 -12  169.09   16.81
   1  -4  13   27.61    8.30
  -1   4 -13   25.74    8.00
   1  -4  14   -2.69    5.61
  -1   4 -14    1.65    5.00
   1  -4  15   42.44   12.46
  -1   4 -15   49.02   16.47
   1  -4  16    1.77    6.14
  -1   4 -16   -8.19    7.28
   1  -4  17    0.51    3.30
  -1   4 -17    8.22    7.06
   1  -4  18   -0.26    4.62
  -1   4 -18   21.07   10.19
   1  -3 -16   -3.14    5.04
   1  -3 -15   14.80    7.44
   1  -3 -14   36.13   13.19
   1  -3 -13  423.72   11.42
   1  -3 -12    3.48    3.53
  -1   3  12    1.98    2.09
   1  -3 -11   92.50    9.55
  -1   3  11   93.74    6.79
   1  -3 -10  236.85   13.94
   1  -3 -10  208.47   10.40
  -1   3  10  242.79   14.25
   1  -3  -9   52.48   13.46
   1  -3  -9   37.30    5.92
  -1   3   9   46.51    8.73
   1  -3  -8    8.46    5.06
   1  -3  -8    2.78    1.58
  -1   3   8    4.31    1.93
   1  -3  -7  768.79   18.15
   1  -3  -7  727.19   10.23
  -1   3   7  763.35   10.41
   1  -3  -6   24.12    6.52
   1  -3  -6    9.92    2.41
  -1   3   6   29.06    4.59
  -1   3   6   16.62    2.48
   1  -3  -5  389.45   11.45
   1  -3  -5  391.07   10.73
  -1   3   5  382.65   11.05
  -1   3   5  360.80   11.45
   1  -3  -4 2775.91   42.37
   1  -3  -4 2843.50   44.21
   1  -3  -3    0.30    2.53
  -1   3   3    2.71    1.41
  -1   3   3   -0.44    3.10
   1  -3  -2 1827.53   14.08
  -1   3   2 1811.61   12.75
  -1   3   2 1863.73   12.94
  -1   3   2 1841.27   14.14
   1  -3  -1 3620.58   25.22
   1  -3  -1 3598.96   25.73
  -1   3   1 3657.33   25.82
   1  -3   0  138.13    6.21
   1  -3   0  139.52   11.79
  -1   3   0  136.07    8.96
  -1   3   0  134.84    7.01
  -1   3  -1 3031.29   21.37
  -1   3  -1 3100.60   22.62
  -1   3  -2 2186.30   16.15
   1  -3   3  246.92    6.43
  -1   3  -3  244.96    5.80
  -1   3  -3  257.41    7.62
   1  -3   4  225.11   28.40
   1  -3   4  227.37    6.30
  -1   3  -4  203.82   11.01
  -1   3  -4  227.11    5.84
   1  -3   5   23.20    4.04
   1  -3   5   22.15    4.02
  -1   3  -5   25.66    7.03
   1  -3   6   44.45    4.59
   1  -3   6   57.27   12.47
  -1   3  -6   43.77    3.26
   1  -3   7  106.37    8.65
  -1   3  -7  117.61   17.31
   1  -3   8   77.04    4.72
  -1   3  -8   75.18    6.14
   1  -3   9   50.25   14.08
  -1   3  -9   39.19    5.85
   1  -3  10  152.71    5.78
  -1   3 -10  162.37    9.82
   1  -3  11  186.14    6.55
  -1   3 -11  233.26   10.15
   1  -3  12   77.48   20.83
  -1   3 -12   57.59   21.78
   1  -3  13  207.91    7.46
  -1   3 -13  239.09   31.24
   1  -3  14   12.38    3.10
  -1   3 -14   14.48    7.50
   1  -3  15    9.03    4.99
  -1   3 -15   11.58    9.50
   1  -3  16    0.40    3.95
  -1   3 -16    4.32    5.22
   1  -3  17    4.51    2.51
  -1   3 -17    5.82    4.11
   1  -3  18    1.00    2.89
  -1   3 -18    6.62    7.51
   1  -2 -17   26.72    5.85
   1  -2 -16   10.06    4.58
   1  -2 -15   10.47    5.49
   1  -2 -14   10.65    5.78
   1  -2 -13  133.46   21.64
  -1   2  13  133.06   10.75
   1  -2 -12   35.22    9.67
  -1   2  12   24.72    6.26
   1  -2 -11   43.04   11.20
  -1   2  11   27.31    6.40
   1  -2 -10    4.42    4.76
   1  -2 -10    2.16    1.32
  -1   2  10    7.77    5.65
   1  -2  -9   52.34    7.25
   1  -2  -9   44.05    5.65
  -1   2   9   56.62    5.98
   1  -2  -8  517.33   14.28
   1  -2  -8  480.34   12.20
  -1   2   8  508.46   13.78
   1  -2  -7   22.43    5.45
   1  -2  -7   11.23    3.58
  -1   2   7   12.47    2.93
  -1   2   7   15.28    5.07
   1  -2  -6  319.75   11.51
   1  -2  -6  323.94    9.36
  -1   2   6  323.83    9.31
  -1   2   6  297.10    8.72
   1  -2  -5  148.08    6.58
   1  -2  -5  144.20    5.02
  -1   2   5  134.40    5.05
  -1   2   5  146.66    5.67
   1  -2  -4  467.46   12.68
   1  -2  -4  469.95    9.93
  -1   2   4  461.93    9.78
  -1   2   4  467.90   10.48
   1  -2  -3 8009.17   55.20
   1  -2  -3 7882.78   54.75
   1  -2  -2  689.90    6.60
  -1   2   2  674.80   83.79
  -1   2   2  694.17    9.08
   1  -2  -1 1618.07   16.34
  -1   2   1 1700.21   20.06
  -1   2   1 1643.01   14.54
  -1   2   1 1599.79   16.35
   1  -2   1  654.59   81.51
   1  -2   1  637.37   14.43
  -1   2  -1  660.00   82.37
  -1   2  -1  639.55   14.38
   1  -2   2  241.80    8.36
   1  -2   2  207.24    9.96
  -1   2  -2  226.04   29.82
  -1   2  -2  221.21   27.79
   1  -2   3  700.40    6.99
  -1   2  -3  686.49    6.06
  -1   2  -3  675.16   83.98
   1  -2   4  578.19   12.39
   1  -2   4  575.37   12.93
  -1   2  -4  592.25   13.95
  -1   2  -4  594.99   16.42
   1  -2   5   63.90    5.94
   1  -2   5   56.37    5.28
  -1   2  -5   58.97   19.35
  -1   2  -5   60.74    4.91
   1  -2   6    9.54    4.77
   1  -2   6    7.62    3.80
  -1   2  -6    4.19    2.74
   1  -2   7  176.93    6.84
  -1   2  -7  163.89    6.03
  -1   2  -7  179.67    7.95
   1  -2   8   52.85    7.67
  -1   2  -8   39.29    6.04
   1  -2   9  191.17    8.36
  -1   2  -9  186.25    9.20
   1  -2  10    6.32    2.28
  -1   2 -10    9.39    5.46
   1  -2  11  211.63   19.25
  -1   2 -11  209.24    9.71
   1  -2  12  131.92    6.17
  -1   2 -12  130.27    9.53
   1  -2  13  126.76   15.46
  -1   2 -13  116.72   28.17
   1  -2  14    8.32    3.20
  -1   2 -14   -2.65    5.86
   1  -2  15    8.23    3.79
  -1   2 -15   -3.48    7.23
   1  -2  16    6.32    3.63
  -1   2 -16    6.75    4.65
   1  -2  17   39.71   18.10
  -1   2 -17   36.14   24.75
   1  -1 -16   -3.87    5.80
   1  -1 -15   13.52    6.97
  -1   1  15    8.71    3.83
   1  -1 -14   16.76    9.01
  -1   1  14    5.31    2.00
   1  -1 -13   73.24    9.15
  -1   1  13   64.75   13.56
   1  -1 -12  212.62    9.08
  -1   1  12  209.85   14.07
   1  -1 -11    2.51    2.49
  -1   1  11    2.97    2.02
   1  -1 -10  134.21   16.02
  -1   1  10  130.95    5.07
   1  -1  -9   32.40    7.39
   1  -1  -9   33.38    6.74
  -1   1   9   42.40    9.87
   1  -1  -8  301.00   10.36
   1  -1  -8  289.50    9.18
  -1   1   8  298.76    9.56
   1  -1  -7  166.72   14.79
   1  -1  -7  156.73    5.82
  -1   1   7  175.97    6.69
  -1   1   7  147.29    5.50
   1  -1  -6   12.97    5.33
   1  -1  -6    4.36    2.01
  -1   1   6    3.39    3.70
  -1   1   6    4.08    1.69
   1  -1  -5   47.01   11.45
   1  -1  -5   24.52    4.28
  -1   1   5   49.10   15.89
  -1   1   5   43.15    4.15
   1  -1  -4  450.72   23.22
   1  -1  -4  450.60   18.53
  -1   1   4  453.82   14.27
  -1   1   4  474.86   29.05
   1  -1  -3   40.67   12.90
   1  -1  -3   42.67   11.58
  -1   1   3   36.48    7.84
  -1   1   3   20.57    5.70
   1  -1  -2 3649.59   27.89
   1  -1  -2 3682.31   27.40
  -1   1   2 3729.02   28.15
  -1   1   2 3696.37   27.30
   1  -1   2  126.25   11.25
   1  -1   2  110.39    9.19
  -1   1  -2  129.81   17.74
  -1   1  -2  116.29   16.95
   1  -1   3 3573.60   26.32
  -1   1  -3 3586.27   27.44
   1  -1   4   16.90    9.21
   1  -1   4    8.43    5.62
  -1   1  -4  -15.50   11.73
  -1   1  -4   17.24    7.99
   1  -1   5    2.35    2.29
   1  -1   5    1.37    3.04
  -1   1  -5    3.89    2.19
   1  -1   6   27.26    9.84
   1  -1   6   27.53    5.06
  -1   1  -6   36.99   11.53
  -1   1  -6   24.12    7.84
   1  -1   7 1504.79   17.31
  -1   1  -7 1458.67   16.39
  -1   1  -7 1525.12   18.43
   1  -1   8   20.14    6.92
  -1   1  -8   10.69    3.24
  -1   1  -8   17.88    6.44
   1  -1   9   71.36    8.92
  -1   1  -9   62.58   15.94
   1  -1  10  150.13    4.92
  -1   1 -10  173.59   13.73
   1  -1  11    2.93    1.81
  -1   1 -11   -4.07    5.70
   1  -1  12    4.54    3.25
  -1   1 -12    6.72    7.12
   1  -1  13    8.58    3.73
  -1   1 -13   15.34    8.58
   1  -1  14   38.75   11.00
  -1   1 -14   41.09   13.98
   1  -1  15   29.20   13.61
  -1   1 -15   27.47   10.49
   1  -1  16   11.66    6.32
  -1   1 -16   12.33    6.38
  -1   1 -17   -0.67    6.68
   1   0 -18    7.75    5.22
   1   0 -17   18.88    8.02
   1   0 -16   78.23    9.84
  -1   0  16   55.66   20.24
   1   0 -15   55.11   22.14
  -1   0  15   62.45   16.14
   1   0 -14   27.66    7.78
  -1   0  14   25.11    7.16
   1   0 -13    9.10    5.38
  -1   0  13    2.26    4.31
   1   0 -12   69.68   10.42
  -1   0  12   63.29   16.95
   1   0 -11   20.13    7.08
  -1   0  11   19.96    3.96
   1   0 -10    5.20    5.25
  -1   0  10    1.92    2.20
   1   0  -9  119.28    6.28
   1   0  -9  108.07    3.44
  -1   0   9  118.14    4.90
   1   0  -8  482.39    7.44
   1   0  -8  503.34    8.93
   1   0  -7  337.85   11.29
   1   0  -7  307.00    9.09
  -1   0   7  331.92   10.11
  -1   0   7  302.71    8.93
   1   0  -6  245.42    9.17
   1   0  -6  235.43    7.50
  -1   0   6  269.79    9.37
  -1   0   6  259.79   10.11
   1   0  -5    4.12    2.37
   1   0  -5   -1.34    2.17
  -1   0   5   -2.07    3.95
  -1   0   5    1.61    1.30
   1   0  -4  113.93   26.11
   1   0  -4   29.16   11.78
  -1   0   4  104.60   26.91
  -1   0   4   85.43   20.32
   1   0  -3 1595.73   15.85
  -1   0   3 1602.40   16.65
  -1   0   3 1534.84   14.49
  -1   0  -2 5893.70   43.73
   1   0   3 1386.11   21.15
   1   0   3 1341.80   20.38
  -1   0  -3 1397.73   26.63
  -1   0  -3 1368.45   21.03
   1   0   4   14.52    4.87
   1   0   4    4.28    3.58
  -1   0  -4   18.08    5.78
   1   0   5   53.26   12.59
   1   0   5   47.04    4.46
  -1   0  -5   62.07   16.10
  -1   0  -5   45.55    6.86
   1   0   6  663.46    5.33
  -1   0  -6  638.78   17.45
  -1   0  -6  650.53   18.85
   1   0   7  113.26    3.66
  -1   0  -7  104.19    3.06
  -1   0  -7  118.61    5.17
   1   0   8   90.67    4.03
  -1   0  -8   88.35    6.19
  -1   0  -8  100.23   14.83
   1   0   9   43.73    9.50
  -1   0  -9   33.68    7.19
   1   0  10   83.78    9.01
  -1   0 -10   91.16    8.41
   1   0  11   18.66    5.67
  -1   0 -11   17.11    5.83
   1   0  12   65.85    8.65
  -1   0 -12   52.60   12.51
   1   0  13    6.67    3.37
  -1   0 -13   15.57    5.52
   1   0  14   21.95    7.99
  -1   0 -14   22.35    9.00
  -1   0 -15   42.18   10.54
  -1   0 -16   24.91    8.17
  -1   0 -17   13.89    9.70
   1   1 -18    1.76    5.43
   1   1 -17    3.58    3.84
  -1  -1  17    1.61    1.85
   1   1 -16    4.74    3.70
  -1  -1  16    3.94    4.61
   1   1 -15    1.27    4.34
  -1  -1  15    7.46    4.59
   1   1 -14   -4.23    6.24
  -1  -1  14   -3.70    4.31
   1   1 -13   48.88   15.25
  -1  -1  13   42.74   13.83
   1   1 -12   91.74   12.50
  -1  -1  12   78.56    5.78
   1   1 -11   12.71    7.50
  -1  -1  11   18.66    9.56
   1   1 -10   23.26   14.01
  -1  -1  10   11.98    4.46
   1   1  -9  432.98   14.09
  -1  -1   9  403.03   12.98
   1   1  -8  148.06    6.24
   1   1  -8  135.55    5.39
  -1  -1   8  147.42    6.66
   1   1  -7 1882.52   30.02
   1   1  -7 1823.34   28.64
  -1  -1   7 1894.40   30.30
  -1  -1   7 1798.38   28.23
   1   1  -6  275.14    8.79
   1   1  -6  288.16    8.83
  -1  -1   6  306.18   10.38
  -1  -1   6  299.84    8.87
   1   1  -5   39.45    8.13
   1   1  -5   46.77   12.56
  -1  -1   5   64.12   25.58
  -1  -1   5   50.91    4.85
   1   1  -4   16.28    8.73
  -1  -1   4   22.59    7.59
  -1  -1   4   12.80    7.53
   1   1  -3  164.05    9.34
   1   1  -3  163.19    7.89
  -1  -1   3  178.27    9.35
  -1  -1   3  165.30    8.02
   1   1  -2  546.83   13.04
  -1  -1   2  613.54   20.24
  -1  -1   2  614.80   15.04
   1   1   1   69.39   11.74
  -1  -1  -1   63.64   12.93
  -1  -1  -1   65.99   13.03
   1   1   2  143.93    9.36
   1   1   2  114.31   13.30
  -1  -1  -2  138.72   18.87
  -1  -1  -2  141.51   14.59
   1   1   3 2192.33   27.45
   1   1   4 2411.22   18.66
   1   1   5    5.57    2.70
   1   1   5    3.09    2.27
  -1  -1  -5   -1.97    4.69
  -1  -1  -5    1.89    1.98
   1   1   6 1244.74   14.00
  -1  -1  -6 1233.99   14.06
  -1  -1  -6 1239.75   16.01
   1   1   7   74.61    8.69
  -1  -1  -7   77.92    3.32
  -1  -1  -7   74.43    7.61
   1   1   8    2.65    1.45
  -1  -1  -8    2.00    1.86
  -1  -1  -8    1.67    4.57
   1   1   9  165.18    6.45
  -1  -1  -9  152.76    3.47
  -1  -1  -9  163.39    8.91
   1   1  10   69.64   10.54
  -1  -1 -10   69.08   21.23
   1   1  11   -1.48    3.12
  -1  -1 -11   -2.69    6.82
   1   1  12    7.32    4.16
  -1  -1 -12    5.25    6.05
   1   1  13    3.02    2.58
  -1  -1 -13   -0.93    5.53
  -1  -1 -14   -5.27    7.87
  -1  -1 -15   12.84    6.86
  -1  -1 -16    2.96    2.63
   1   2 -18    3.94    5.14
  -1  -2  18    1.06    2.33
   1   2 -17   14.40    7.38
  -1  -2  17    0.90    1.95
   1   2 -16   -0.67    6.52
  -1  -2  16   -2.46    4.89
   1   2 -15    4.08    6.04
  -1  -2  15   15.67    6.55
   1   2 -14  100.39   11.29
  -1  -2  14   78.86   18.90
   1   2 -13   76.18   22.02
  -1  -2  13   84.56   13.94
   1   2 -12  211.06   16.12
  -1  -2  12  210.50    6.61
   1   2 -11  129.21    7.64
  -1  -2  11  136.44    6.94
   1   2 -10  204.34   13.37
  -1  -2  10  205.21    9.49
   1   2  -9  144.98    5.82
  -1  -2   9  148.80    7.79
   1   2  -8  262.03    8.73
  -1  -2   8  249.65    5.96
   1   2  -7 1071.42   17.82
   1   2  -7 1052.83   17.24
  -1  -2   7 1041.64   17.66
  -1  -2   7 1040.86   16.88
   1   2  -6  533.26   10.40
   1   2  -6  517.72    9.64
  -1  -2   6  518.29   10.02
  -1  -2   6  503.92    8.85
   1   2  -5   11.16    4.80
  -1  -2   5    8.09    4.53
  -1  -2   5   13.98    6.46
   1   2  -4   30.14    6.68
   1   2  -4   22.28    5.65
  -1  -2   4   20.85    8.30
   1   2  -2  109.84    6.46
   1   2  -2  101.62    5.47
  -1  -2   2  120.39    8.61
  -1  -2   2  117.55   10.48
   1   2  -1  145.32    9.21
   1   2  -1  146.23   15.04
  -1  -2   1  153.95    9.62
  -1  -2   1  152.01   12.15
   1   2   0 2633.95   18.65
  -1  -2   0 2543.43   18.18
  -1  -2   0 2539.33   18.61
   1   2   1  331.38    8.09
   1   2   1  311.81    9.24
  -1  -2  -1  331.04    8.01
  -1  -2  -1  316.52   12.63
   1   2   2  -11.12    8.17
  -1  -2  -2   -3.48    2.77
  -1  -2  -2  -24.26   11.34
  -1  -2  -2   -6.31    2.82
   1   2   3   30.10   12.34
  -1  -2  -3   47.95    2.86
   1   2   4   95.30    3.58
   1   2   4  103.79    5.85
  -1  -2  -4  107.41    9.03
  -1  -2  -4   88.07    2.12
   1   2   5  626.91   16.79
  -1  -2  -5  632.89   16.93
  -1  -2  -5  577.53   17.09
   1   2   6    4.80    2.03
  -1  -2  -6    1.72    1.36
  -1  -2  -6    6.76    3.59
   1   2   7   74.59    3.81
  -1  -2  -7   64.31    6.15
  -1  -2  -7   78.58   16.42
   1   2   8   95.23    4.12
  -1  -2  -8   84.59    3.84
  -1  -2  -8   97.66   14.92
   1   2   9   95.42    8.26
  -1  -2  -9   76.68    6.37
  -1  -2  -9   89.67   19.79
   1   2  10   -2.80    2.32
  -1  -2 -10   -0.10    1.30
  -1  -2 -10   -2.75    5.87
   1   2  11    1.04    2.02
  -1  -2 -11    5.22    2.84
   1   2  12    4.71    4.11
  -1  -2 -12   -3.64    4.85
  -1  -2 -13    2.38    7.77
  -1  -2 -14   11.69    4.96
  -1  -2 -15   11.39    5.66
  -1  -2 -16   13.64    6.89
   1   3 -18    8.09    4.94
  -1  -3  18    7.71    2.91
   1   3 -17   45.41    9.14
  -1  -3  17   30.66    9.85
   1   3 -16   -6.23    7.11
  -1  -3  16    1.34    3.03
   1   3 -15    6.57    5.23
  -1  -3  15    5.25    3.07
   1   3 -14   74.81   14.27
  -1  -3  14   65.89   20.98
   1   3 -13   83.43   10.68
  -1  -3  13   88.48   15.46
   1   3 -12  153.46   17.75
  -1  -3  12  148.93    6.97
   1   3 -11    8.72    5.23
  -1  -3  11   11.09    6.33
   1   3 -10  164.15    8.08
  -1  -3  10  170.20    8.36
   1   3  -9  198.88    6.86
  -1  -3   9  206.44    9.81
   1   3  -8 2478.42   30.33
  -1  -3   8 2486.00   27.26
   1   3  -7    6.78    5.47
   1   3  -7    5.83    3.13
  -1  -3   7    7.58    4.39
  -1  -3   7    5.69    3.42
   1   3  -6   56.08    4.71
   1   3  -6   48.11    3.32
  -1  -3   6   49.92    5.62
  -1  -3   6   52.20    3.11
   1   3  -5   48.25    3.98
   1   3  -5   47.68    3.63
   1   3  -5   48.36    5.92
  -1  -3   5   35.90    6.00
   1   3  -4  689.84    6.21
  -1  -3   4  693.58    7.98
   1   3  -3  873.83    8.22
   1   3  -2 1914.73   15.10
   1   3  -2 1917.30   14.34
  -1  -3   2 1973.80   15.02
   1   3  -1   44.99    7.71
   1   3  -1   34.39    4.44
  -1  -3   1   36.39    6.93
  -1  -3   1   32.21    4.54
   1   3   0 4318.93   31.80
  -1  -3   0 4297.56   29.81
  -1  -3   0 4282.46   30.57
   1   3   1  450.78    9.95
   1   3   1  450.50    9.96
  -1  -3  -1  459.25    9.84
  -1  -3  -1  440.69   11.06
   1   3   2  264.09    7.01
  -1  -3  -2  279.74    6.08
  -1  -3  -2  274.96    6.32
   1   3   3  141.94    7.51
  -1  -3  -3  135.49    4.07
  -1  -3  -3  160.91   13.34
  -1  -3  -3  132.16    5.14
  -1  -3  -4   12.28    3.22
  -1  -3  -4    2.34    1.45
  -1  -3  -4   14.27    3.92
  -1  -3  -5  125.86    4.96
  -1  -3  -5  123.58    6.69
  -1  -3  -5  119.16    4.79
   1   3   6   87.77    4.41
  -1  -3  -6   85.83    4.46
  -1  -3  -6   85.41    5.06
   1   3   7   18.22    3.85
  -1  -3  -7   13.34    4.83
   1   3   8   21.13    6.65
  -1  -3  -8   13.41    3.89
  -1  -3  -8   29.19   10.15
   1   3   9  211.90   10.64
  -1  -3  -9  191.88   10.77
  -1  -3  -9  228.28   14.62
   1   3  10   37.84    6.41
  -1  -3 -10   34.54   15.71
   1   3  11    9.34    2.62
  -1  -3 -11   17.94    6.63
  -1  -3 -12   76.82   33.12
  -1  -3 -13    8.94    6.50
  -1  -3 -14    8.55    3.54
  -1  -3 -15   -0.63    5.08
   1   4 -19    5.61    4.41
  -1  -4  19    9.54    4.80
   1   4 -18    1.42    6.00
  -1  -4  18    1.86    3.22
   1   4 -17   -0.98    6.38
  -1  -4  17   -4.76    5.37
   1   4 -16    6.41    5.56
  -1  -4  16   11.27    5.87
   1   4 -15   11.60    5.66
  -1  -4  15    6.72    4.25
   1   4 -14    8.14    6.65
  -1  -4  14    7.73    5.74
   1   4 -13  291.00   18.15
  -1  -4  13  281.00   15.90
   1   4 -12   -4.67    5.43
  -1  -4  12   -4.42    5.22
   1   4 -11   48.12    7.20
  -1  -4  11   51.60   17.71
   1   4 -10   82.48    6.10
  -1  -4  10   77.17   15.37
   1   4  -9   54.23    5.40
  -1  -4   9   54.94   16.81
   1   4  -8    4.15    3.34
  -1  -4   8    6.68    4.38
   1   4  -7   20.80    3.76
   1   4  -7   13.73    5.10
  -1  -4   7   26.88    9.97
   1   4  -6   22.73    6.16
   1   4  -6   22.11    5.46
   1   4  -6   29.85    6.11
  -1  -4   6   31.10    5.48
   1   4  -5  206.56   11.54
   1   4  -5  194.21    6.87
  -1  -4   5  204.30   10.35
   1   4  -4  228.92    6.44
  -1  -4   4  226.08   31.32
   1   4  -3  601.10   12.55
   1   4  -3  620.25   13.09
  -1  -4   3  642.98   14.29
  -1  -4   3  634.62   13.74
   1   4  -2   18.36    7.06
   1   4  -2   12.24    6.37
  -1  -4   2    5.79    4.00
  -1  -4   2    9.07    3.78
   1   4  -1  756.93    7.63
   1   4  -1  745.68    7.26
  -1  -4   1  768.10    7.01
   1   4   0 3247.78   23.99
  -1  -4   0 3281.69   25.74
   1   4   1    4.64    3.22
   1   4   1    8.29    2.24
  -1  -4  -1    4.28    1.47
   1   4   2   56.53   12.16
  -1  -4  -2   32.47    7.71
  -1  -4  -2   36.43    3.57
  -1  -4  -3   90.57    6.18
  -1  -4  -4    4.37    1.09
  -1  -4  -4    8.35    3.48
  -1  -4  -5    5.51    1.35
  -1  -4  -5   15.89    5.24
  -1  -4  -6    2.22    1.01
  -1  -4  -6    2.00    1.06
  -1  -4  -6    2.71    4.17
  -1  -4  -7  101.41    3.40
  -1  -4  -7  100.98    2.88
  -1  -4  -7  110.76   15.44
  -1  -4  -8   49.84    4.44
  -1  -4  -8   47.90    4.79
  -1  -4  -8   58.12   16.35
  -1  -4  -9    4.06    1.33
  -1  -4  -9    7.00    6.24
  -1  -4 -10    4.53    1.66
  -1  -4 -10   11.84    5.85
  -1  -4 -11    6.70    5.29
  -1  -4 -12   25.05   10.62
  -1  -4 -13   35.68   15.23
  -1  -4 -14   -3.17    6.03
   1   5 -19   48.83   14.04
  -1  -5  19   21.74    6.90
   1   5 -18   26.98   10.26
  -1  -5  18   28.51   11.89
   1   5 -17    4.21    6.63
  -1  -5  17    3.40    2.77
   1   5 -16    5.78    5.13
  -1  -5  16    7.73    4.28
   1   5 -15   -3.82    5.77
  -1  -5  15    7.26    5.14
   1   5 -14   -2.82    6.90
  -1  -5  14    2.79    3.70
   1   5 -13   98.07   29.44
  -1  -5  13  104.92   21.93
   1   5 -12  142.13    7.36
  -1  -5  12  147.10   15.12
   1   5 -11    3.00    3.49
  -1  -5  11   -1.53    4.37
   1   5 -10   90.83    6.24
  -1  -5  10   90.87   14.89
   1   5  -9   18.20    3.67
  -1  -5   9   11.80    5.40
   1   5  -8  106.09    5.66
  -1  -5   8   89.67    4.94
   1   5  -7    3.11    2.59
  -1  -5   7    0.29    3.67
  -1  -5   6   -2.97    4.14
   1   5  -5    9.08    4.47
  -1  -5   5   10.00    4.42
  -1  -5   5    8.07    4.75
   1   5  -4   24.00    4.37
   1   5  -4   13.26    5.80
  -1  -5   4   33.75    8.54
  -1  -5   4   19.67   10.93
   1   5  -3  231.05    7.18
   1   5  -3  225.06    7.18
  -1  -5   3  232.62    7.28
  -1  -5   3  233.40    8.02
   1   5  -2   91.24    3.97
   1   5  -2   86.68    5.28
  -1  -5   2   93.13    2.91
   1   5  -1   32.73    3.87
   1   5  -1   35.64    4.32
  -1  -5   1   38.53    5.85
  -1  -5   1   38.64   15.14
   1   5   0   10.21    2.92
   1   5   0    6.67    3.65
  -1  -5   0    4.82    2.21
  -1  -5   0    7.47    3.35
   1   5   1  631.15   16.85
  -1  -5  -1  622.36   16.57
  -1  -5  -2    7.55    1.82
  -1  -5  -2    6.31    2.38
  -1  -5  -3   44.44   12.52
  -1  -5  -4    1.81    3.40
  -1  -5  -5   15.25    5.82
  -1  -5  -6    7.46    4.45
  -1  -5  -7   23.08    6.25
  -1  -5  -8  249.70   12.07
  -1  -5  -9   74.92   23.03
  -1  -5 -10   -1.10    5.19
  -1  -5 -11    2.07    7.26
  -1  -5 -12   40.32   12.79
  -1  -5 -14    5.47    5.58
   1   6 -19   11.50    8.92
  -1  -6  19   14.34    6.33
   1   6 -18   29.09   11.27
  -1  -6  18   48.18   16.94
   1   6 -17  167.43   11.72
  -1  -6  17  109.37   29.46
   1   6 -16   12.34   10.49
  -1  -6  16    7.29    4.93
   1   6 -15   14.99    4.59
  -1  -6  15   13.63    5.44
   1   6 -14  111.06    9.95
  -1  -6  14   86.46   17.06
   1   6 -13   -1.74    7.25
  -1  -6  13    2.62    3.21
   1   6 -12  297.34   16.23
  -1  -6  12  299.83   16.25
   1   6 -11   -1.70    5.02
  -1  -6  11   -5.98    4.32
   1   6 -10   -0.48    4.88
  -1  -6  10    3.99    4.23
   1   6  -9    3.66    4.45
  -1  -6   9    6.94    4.71
   1   6  -8    3.67    3.68
  -1  -6   8    7.07    4.70
   1   6  -7  132.78    5.56
  -1  -6   7  140.28   13.38
   1   6  -6   56.54    5.52
  -1  -6   6   59.31    4.90
  -1  -6   5   24.04    5.38
  -1  -6   5   11.09    6.88
   1   6  -4    8.38    4.20
  -1  -6   4    3.88    5.92
  -1  -6   4    6.29    5.60
   1   6  -3  259.74    8.49
  -1  -6   3  254.08    4.63
  -1  -6   3  251.73    6.02
   1   6  -2  115.69    4.44
  -1  -6   2  115.81    4.99
  -1  -6   2  120.54    7.25
   1   6  -1 1216.40   13.37
  -1  -6   1 1166.95   13.02
  -1  -6   1 1218.09   15.15
   1   6   0 1612.87   18.17
  -1  -6   0 1588.06   17.13
  -1  -6   0 1583.09   18.68
   1   6   1   48.01    6.34
  -1  -6  -1   39.06    4.89
  -1  -6  -1   36.00   10.48
   1   6   2  751.07    9.55
  -1  -6  -2  715.66    9.05
  -1  -6  -2  750.68   11.94
  -1  -6  -3    7.50    2.72
  -1  -6  -4   -0.61    4.27
  -1  -6  -5   41.89   11.18
  -1  -6  -6   -3.27    4.77
  -1  -6  -7   -0.11    5.94
  -1  -6  -8   -0.76    5.89
  -1  -6  -9   76.27    9.01
  -1  -6 -10    7.43    6.52
  -1  -6 -11    3.58    7.07
  -1  -6 -12   24.93    7.34
  -1  -6 -13   63.17   12.53
   1   7 -19   -1.42    6.90
  -1  -7  19    6.90    2.59
   1   7 -18   14.94    7.25
  -1  -7  18   14.43    5.38
   1   7 -17   -1.89    7.10
  -1  -7  17   -1.08    6.48
   1   7 -16   52.33   22.68
  -1  -7  16   80.64   10.31
   1   7 -15    6.76    3.37
  -1  -7  15    1.65    3.07
   1   7 -14   76.29    8.22
  -1  -7  14   85.56   16.35
   1   7 -13  243.35   10.55
  -1  -7  13  251.86    8.27
   1   7 -12  100.47    7.45
  -1  -7  12  119.41   26.38
   1   7 -11   63.02    7.68
  -1  -7  11   74.86    6.40
   1   7 -10   -0.43    4.53
  -1  -7  10    1.92    1.49
   1   7  -9    4.40    2.85
  -1  -7   9   11.97    4.82
   1   7  -8  113.98    5.73
  -1  -7   8  125.40    6.87
   1   7  -7   10.67    5.96
  -1  -7   7   14.89    4.86
  -1  -7   6   49.19   10.45
  -1  -7   6   50.83   13.89
  -1  -7   5   -5.27    3.28
  -1  -7   5    0.93    2.19
   1   7  -4  223.94    9.92
  -1  -7   4  237.74    8.51
  -1  -7   4  222.17    8.56
   1   7  -3   32.65    7.59
  -1  -7   3   31.40    9.22
  -1  -7   3   29.12   10.10
   1   7  -2  598.70    9.13
  -1  -7   2  635.31   10.00
  -1  -7   2  616.08   10.36
   1   7  -1    8.19    2.66
  -1  -7   1    2.73    2.17
  -1  -7   1    8.16    4.50
   1   7   0  557.67    8.27
  -1  -7   0  537.34    7.99
  -1  -7   0  531.73    9.78
   1   7   1   92.70    4.19
  -1  -7  -1  102.29    5.80
  -1  -7  -1   89.26   10.06
  -1  -7  -2    3.74    0.70
  -1  -7  -2   10.15    2.50
  -1  -7  -3    8.13    3.64
  -1  -7  -4   39.12   10.54
  -1  -7  -5   83.93   18.96
  -1  -7  -6   27.56    8.41
  -1  -7  -7   -1.15    5.92
  -1  -7  -8    3.17    4.89
  -1  -7  -9    8.58    4.39
  -1  -7 -10    2.95    4.56
  -1  -7 -11   17.06    6.26
  -1  -7 -12    5.57    5.10
   1   8 -19   -1.48    6.95
  -1  -8  19    5.84    4.61
   1   8 -18    4.79    7.20
  -1  -8  18    0.80    4.33
   1   8 -17   15.91    8.06
  -1  -8  17   13.70    5.53
   1   8 -16    2.76    7.23
  -1  -8  16   -4.02    6.04
   1   8 -15    3.76    6.46
  -1  -8  15   -2.25    5.44
   1   8 -14  121.90   24.42
  -1  -8  14  138.49   10.85
   1   8 -13  466.13   13.35
  -1  -8  13  450.84    9.25
   1   8 -12  124.34    8.17
  -1  -8  12  133.23    7.63
   1   8 -11    4.39    4.92
  -1  -8  11   -2.70    5.37
   1   8 -10  143.89    6.70
  -1  -8  10  145.43    6.17
   1   8  -9  130.04    6.84
  -1  -8   9  121.97    6.28
   1   8  -8  126.72   10.20
  -1  -8   8  143.89    5.93
   1   8  -7   71.51    6.92
  -1  -8   7   64.49   15.69
  -1  -8   6   10.16    3.39
  -1  -8   6   10.79    4.17
  -1  -8   5   61.71    9.25
  -1  -8   5   54.90   15.33
  -1  -8   4    2.79    3.16
  -1  -8   4    6.00    2.19
   1   8  -3   -0.02    1.89
  -1  -8   3   -0.46    2.60
  -1  -8   3   -2.03    4.53
   1   8  -2  135.93    5.33
  -1  -8   2  145.53    6.27
  -1  -8   2  148.89   16.21
   1   8  -1    3.83    1.65
  -1  -8   1    5.49    2.05
  -1  -8   1   11.30    5.49
   1   8   0   13.24    3.18
  -1  -8   0   15.15    2.60
  -1  -8   0    7.17    5.08
   1   8   1   76.47    5.31
  -1  -8  -1   85.68    3.38
  -1  -8  -1   78.26    9.70
  -1  -8  -2   47.25    0.78
  -1  -8  -2   56.26   16.03
  -1  -8  -3  185.46   10.84
  -1  -8  -4   18.50    6.71
  -1  -8  -5   16.42    8.63
  -1  -8  -6    5.40    2.66
  -1  -8  -7    2.24    3.55
  -1  -8  -8  118.10   37.18
  -1  -8  -9    5.72    2.67
  -1  -8 -10    7.22    5.37
  -1  -8 -11   21.14    8.95
   1   9 -19   18.79    9.47
  -1  -9  19   13.46    5.16
   1   9 -18   46.44   11.17
  -1  -9  18   22.86    8.41
   1   9 -17    2.86    3.57
  -1  -9  17    2.15    3.54
   1   9 -16    5.77    6.84
  -1  -9  16    5.79    5.85
   1   9 -15   25.90    7.11
  -1  -9  15   10.34    5.45
   1   9 -14   85.92    9.34
  -1  -9  14   76.72   23.25
   1   9 -13   21.20    9.61
  -1  -9  13   10.46    3.98
   1   9 -12  199.94   11.53
  -1  -9  12  175.06   17.05
   1   9 -11 1064.16   32.15
  -1  -9  11 1045.75   31.11
   1   9 -10  543.54   10.12
  -1  -9  10  564.38    9.64
   1   9  -9   31.63    7.68
  -1  -9   9   26.43    5.06
   1   9  -8   22.34    6.90
  -1  -9   8   32.25    6.70
  -1  -9   7   29.94    8.18
  -1  -9   7   29.95    5.79
  -1  -9   6   62.59   14.95
  -1  -9   6   55.36    4.94
  -1  -9   5  149.15    7.47
  -1  -9   5  113.04   12.42
  -1  -9   4   18.85    4.65
  -1  -9   4   19.35    7.15
  -1  -9   3  168.93    5.15
  -1  -9   3  184.23    7.99
   1   9  -2   36.89    4.63
  -1  -9   2   48.56    8.65
  -1  -9   2   49.05   14.60
   1   9  -1   65.66    5.26
  -1  -9   1   72.18    3.47
  -1  -9   1   65.75    6.59
   1   9   0  121.80    3.19
  -1  -9   0  138.39    6.13
  -1  -9   0  130.20   16.03
   1   9   1    8.22    1.85
  -1  -9  -1   13.06    1.64
  -1  -9  -1   17.63    5.54
  -1  -9  -2  397.54    8.14
  -1  -9  -3    2.16    3.62
  -1  -9  -4    0.40    6.43
  -1  -9  -5   47.04   14.22
  -1  -9  -6  244.36    8.98
  -1  -9  -7  207.57   13.91
  -1  -9  -8    4.18    4.63
  -1  -9  -9  110.11   17.87
  -1  -9 -10   -0.87    5.76
   1  10 -18   31.59   10.78
  -1 -10  18   22.16    8.50
   1  10 -17   38.28   12.62
  -1 -10  17   43.53   20.72
   1  10 -16   20.66    6.44
  -1 -10  16   16.79    5.92
   1  10 -15    5.96    7.56
  -1 -10  15   20.47    6.60
   1  10 -14    6.87    7.49
  -1 -10  14    8.95    3.32
   1  10 -13  108.27    9.42
  -1 -10  13   95.57   20.02
   1  10 -12   33.23    7.33
  -1 -10  12   43.19   10.04
   1  10 -11   65.09   13.98
  -1 -10  11   51.09   11.73
   1  10 -10   85.93    8.20
  -1 -10  10   87.69   21.36
   1  10  -9    9.45    6.07
  -1 -10   9    8.43    4.55
   1  10  -8  295.33   11.05
  -1 -10   8  278.36    9.19
  -1 -10   7  656.40   18.42
  -1 -10   7  631.41   21.13
  -1 -10   6   86.56    8.19
  -1 -10   6   93.45   24.81
  -1 -10   5  629.30   19.78
  -1 -10   5  647.38   21.36
  -1 -10   4   69.99    4.48
  -1 -10   4   71.32   15.39
  -1 -10   3   55.13    8.85
  -1 -10   3   48.70   11.61
   1  10  -2    6.52    3.36
  -1 -10   2   22.12    3.67
  -1 -10   2    9.35    6.35
   1  10  -1    1.57    1.21
  -1 -10   1    0.82    0.80
  -1 -10   1    2.14    4.34
   1  10   0    1.41    1.23
  -1 -10   0    5.86    2.02
  -1 -10   0    6.70    3.77
  -1 -10  -1    1.88    0.63
  -1 -10  -1    5.67    5.23
  -1 -10  -2   -1.65    3.14
  -1 -10  -3    2.42    2.55
  -1 -10  -4   27.71    9.59
  -1 -10  -5    2.38    2.95
  -1 -10  -6    6.42    4.65
  -1 -10  -7   37.57   19.99
  -1 -10  -9   13.54    5.97
   1  11 -18   10.65    6.80
  -1 -11  18   21.08   10.42
   1  11 -17   12.30    5.13
  -1 -11  17   -2.94    6.33
   1  11 -16   11.13    8.76
  -1 -11  16   10.09    5.65
   1  11 -15   22.42    9.68
  -1 -11  15    3.81    4.48
   1  11 -14   16.94    8.32
  -1 -11  14   25.70    7.35
   1  11 -13  232.10   15.53
  -1 -11  13  245.90    9.51
   1  11 -12  101.23   21.31
  -1 -11  12   90.54   20.06
   1  11 -11  193.78    8.16
  -1 -11  11  200.78   22.06
   1  11 -10    0.36    4.44
  -1 -11  10   -1.98    5.75
   1  11  -9    4.39    5.40
  -1 -11   9    1.92    7.10
  -1 -11   8   77.61   15.54
  -1 -11   7   62.75   10.96
  -1 -11   7   68.93   13.92
  -1 -11   6  114.78    7.44
  -1 -11   6  134.28   26.42
  -1 -11   5   88.84    5.72
  -1 -11   5   91.68   18.15
  -1 -11   4  175.20   10.03
  -1 -11   4  176.19   15.42
  -1 -11   3    9.49    3.76
  -1 -11   3    7.05    3.20
  -1 -11   2   64.38    5.38
  -1 -11   2   71.86   13.85
  -1 -11   1    4.60    2.91
  -1 -11   1   -1.45    5.66
  -1 -11   0    4.43    1.54
  -1 -11   0    2.85    2.92
  -1 -11  -1    5.81    6.48
  -1 -11  -2    9.70    4.59
  -1 -11  -3    2.98    4.33
  -1 -11  -4    4.49    3.33
  -1 -11  -5    1.63    4.52
  -1 -11  -6    9.22    7.64
  -1 -11  -7   14.22    7.21
  -1 -11  -8   -4.74    5.61
   1  12 -17    3.93    4.90
  -1 -12  17   -1.69    7.13
   1  12 -16    2.37    4.02
  -1 -12  16    7.02    5.94
   1  12 -15   15.07    9.82
  -1 -12  15   10.63    4.46
   1  12 -14   27.10    7.67
  -1 -12  14   18.06    6.15
   1  12 -13  117.86   12.31
  -1 -12  13  108.67    9.30
   1  12 -12    5.78    6.06
  -1 -12  12   -6.67    6.81
   1  12 -11  110.44    8.76
  -1 -12  11   99.51   23.31
   1  12 -10    9.26    4.82
  -1 -12  10   10.10    5.00
   1  12  -9    4.85    5.00
  -1 -12   9    7.88    4.24
  -1 -12   8    5.80    2.51
  -1 -12   8    0.23    3.72
  -1 -12   7   71.36   14.08
  -1 -12   7   80.12   21.29
  -1 -12   6    3.29    3.10
  -1 -12   6    1.84    3.76
  -1 -12   5   60.22    9.16
  -1 -12   5   71.22   14.15
  -1 -12   4  483.22    9.09
  -1 -12   4  491.01   10.60
  -1 -12   3   19.86    3.71
  -1 -12   3   26.29    6.51
  -1 -12   2   36.09    6.82
  -1 -12   2   48.06   11.67
  -1 -12   1   45.16    6.66
  -1 -12   1   44.13   11.64
  -1 -12   0   69.67   17.86
  -1 -12  -1   38.38   10.64
  -1 -12  -2   38.31    8.07
  -1 -12  -3    2.77    4.39
  -1 -12  -4   36.78   13.46
  -1 -12  -5   16.96    7.53
  -1 -12  -6   12.21    7.12
  -1 -12  -7    4.72    5.69
   1  13 -17   -7.76    6.75
  -1 -13  17    5.41    3.12
   1  13 -16    8.65    8.70
  -1 -13  16    0.48    3.13
   1  13 -15   -1.18    8.01
  -1 -13  15    1.06    8.00
   1  13 -14   17.03    8.06
  -1 -13  14    9.96    7.72
   1  13 -13   -0.05    6.82
  -1 -13  13    7.58    5.74
   1  13 -12    4.31    3.44
  -1 -13  12   -5.18    5.56
   1  13 -11   37.68    8.95
  -1 -13  11   19.97    6.08
   1  13 -10   28.41   10.47
  -1 -13  10    6.51    3.08
   1  13  -9   21.91   11.16
  -1 -13   9   10.79    4.25
  -1 -13   8   -6.26    4.52
  -1 -13   8   -1.41    7.40
  -1 -13   7    6.02    3.52
  -1 -13   7    4.32    6.27
  -1 -13   6    4.34    3.89
  -1 -13   6   -0.43    3.90
  -1 -13   5    2.55    2.46
  -1 -13   5    6.13    2.01
  -1 -13   4    5.90    2.46
  -1 -13   4    7.77    4.56
  -1 -13   3   23.59    4.92
  -1 -13   3   25.87    6.46
  -1 -13   2    2.29    1.15
  -1 -13   2    0.10    5.14
  -1 -13   1   43.73   11.79
  -1 -13   0   -2.49    5.38
  -1 -13  -1  111.21   25.12
  -1 -13  -2   49.89   10.36
  -1 -13  -3   47.00   15.41
  -1 -13  -4   53.32   15.15
  -1 -13  -5   18.33    6.90
   1  14 -16   -0.19    5.75
  -1 -14  16   -4.46    6.22
   1  14 -15    8.03    8.10
  -1 -14  15    7.26    5.44
   1  14 -14   -4.10    8.44
  -1 -14  14    6.71    2.34
   1  14 -13   10.38    9.11
  -1 -14  13   -1.65    5.30
   1  14 -12   14.19    9.38
  -1 -14  12    9.91    4.05
   1  14 -11    2.56    4.49
  -1 -14  11    9.35    6.27
   1  14 -10   18.32    6.89
  -1 -14  10   -3.55    6.39
   1  14  -9   20.12    8.51
  -1 -14   9    2.99    2.26
  -1 -14   8   -1.76    4.26
  -1 -14   8   -1.08    5.73
  -1 -14   7  133.08   18.82
  -1 -14   7  137.13   13.56
  -1 -14   6    7.08    3.44
  -1 -14   6   17.66    7.29
  -1 -14   5    0.90    2.61
  -1 -14   5    1.36    3.59
  -1 -14   4    4.54    2.48
  -1 -14   4    8.78    6.32
  -1 -14   3   22.27   13.03
  -1 -14   2   42.88   13.00
  -1 -14   1   31.22   10.55
  -1 -14   0    6.78    3.48
  -1 -14  -1    2.36    1.60
  -1 -14  -2   19.48    7.89
  -1 -14  -3    3.91    4.11
  -1 -14  -4    6.10    3.08
   1  15 -15   -3.51    6.89
  -1 -15  15    6.98    4.53
   1  15 -14   -0.92    7.23
  -1 -15  14    0.82    2.86
   1  15 -13   10.92    7.02
  -1 -15  13    9.63    6.47
   1  15 -12   -1.07    6.92
  -1 -15  12   -2.57    5.52
   1  15 -11   83.32   19.57
  -1 -15  11   62.94   19.96
   1  15 -10   52.26   18.90
  -1 -15  10   33.51   10.79
   1  15  -9    1.57    8.05
  -1 -15   9    4.87    3.06
  -1 -15   8   -0.84    4.04
  -1 -15   8    6.68    4.02
  -1 -15   7   11.66    5.15
  -1 -15   7    8.24    4.16
  -1 -15   6   27.58    5.44
  -1 -15   6   17.80    8.60
  -1 -15   5    3.62    2.34
  -1 -15   5   24.71   19.87
  -1 -15   4    7.57    5.69
  -1 -15   3   57.28   15.08
  -1 -15   2   12.81    6.83
  -1 -15   1   -1.77    3.89
  -1 -15   0    1.45    2.77
  -1 -15  -1   53.07   14.54
  -1 -15  -2    7.65    4.81
   1  16 -13   42.19   15.53
  -1 -16  13   33.18   18.20
   1  16 -12    9.46    6.91
  -1 -16  12   11.33    4.03
   1  16 -11   59.08   21.54
  -1 -16  11   46.54   15.30
   1  16 -10   12.28   10.28
  -1 -16  10    8.68    3.99
   1  16  -9    8.45   10.42
  -1 -16   9   -1.16    4.68
  -1 -16   8    2.95    2.38
  -1 -16   8    4.51    5.52
  -1 -16   7    0.71    1.69
  -1 -16   7    2.84    5.61
  -1 -16   6    3.29    2.23
  -1 -16   6   -5.79    7.59
  -1 -16   5   -0.43    7.34
  -1 -16   4   17.29   11.29
  -1 -16   3   30.08   11.33
  -1 -16   2    4.03    5.05
  -1 -16   1    2.87    3.04
   1  17 -10   34.76   13.84
  -1 -17  10   17.14    5.11
   1  17  -9   17.35    9.77
  -1 -17   9    6.42    5.56
  -1 -17   8   25.01    9.66
  -1 -17   8   17.04    9.90
  -1 -17   7   37.92   14.38
  -1 -17   6    1.95    5.35
  -1 -17   5   21.17    7.88
   2 -18   4    4.54    3.60
   2 -18   5    6.63    4.82
  -2  18  -6   26.20   10.08
   2 -18   7    7.62    4.27
  -2  18  -7   18.07    6.80
   2 -18   8    1.73    2.36
  -2  18  -8    6.23    6.40
  -2  18  -9   92.44   17.24
   2 -17   0    6.68    5.03
   2 -17   1    2.59    3.22
   2 -17   2    5.00    6.52
   2 -17   3   59.30   21.53
   2 -17   4   18.98    9.70
   2 -17   5    7.76    5.42
   2 -17   6    2.60    3.23
  -2  17  -6    9.70    6.93
   2 -17   7    2.58    2.22
  -2  17  -7   -2.14    6.39
   2 -17   8   10.86    5.09
  -2  17  -8    5.22    6.65
   2 -17   9   -3.45    4.91
  -2  17  -9    0.89    7.02
   2 -17  10   20.76    5.76
  -2  17 -10   16.56    6.84
   2 -17  11    5.42    4.36
  -2  17 -11    2.20    6.93
   2 -17  12   -2.63    5.48
  -2  17 -12   16.03   10.13
   2 -16  -3    2.80    2.70
   2 -16  -2   -0.44    5.65
   2 -16  -1    2.51    6.50
   2 -16   0   37.16   12.74
   2 -16   1    6.68    4.19
   2 -16   2   17.70   10.49
   2 -16   3  132.61   15.21
   2 -16   4   27.73    7.49
   2 -16   5   34.03    8.09
   2 -16   5   32.44   11.51
   2 -16   6   -0.28    3.71
  -2  16  -6    2.79    6.56
   2 -16   7   30.85    8.95
  -2  16  -7   46.55   11.06
   2 -16   8   -2.30    4.51
  -2  16  -8   -1.48    6.38
   2 -16   9   -0.09    4.65
  -2  16  -9    0.39    6.56
   2 -16  10   10.47    5.64
  -2  16 -10   11.32    5.39
   2 -16  11  112.29   32.35
  -2  16 -11  147.81   23.25
   2 -16  12    9.71    5.70
  -2  16 -12    5.36    7.31
   2 -16  13  106.80   32.95
  -2  16 -13  154.07   15.51
   2 -16  14   62.82   20.20
  -2  16 -14   72.62   14.83
   2 -15  -5   37.84   13.48
   2 -15  -4    6.61    3.67
   2 -15  -3   26.38   11.66
   2 -15  -2  101.05   18.38
   2 -15  -1   39.61    9.81
   2 -15   0  284.76   21.93
   2 -15   1   17.94    9.62
   2 -15   2  103.84   23.98
   2 -15   3    3.25    2.52
   2 -15   3   -0.70    5.15
   2 -15   4   48.70   12.57
   2 -15   4   70.26   18.36
   2 -15   5    6.85    2.93
   2 -15   5    4.99    3.31
   2 -15   6   13.69    5.10
  -2  15  -6   24.89    8.59
   2 -15   7    0.30    4.64
  -2  15  -7   -4.70    5.83
   2 -15   8   20.52    6.01
  -2  15  -8   10.72    5.93
   2 -15   9   -1.46    5.58
  -2  15  -9    1.26    6.54
   2 -15  10   13.45    3.44
  -2  15 -10   22.18   10.11
   2 -15  11   -1.75    5.87
  -2  15 -11   -4.14    7.72
   2 -15  12   21.58    6.38
  -2  15 -12   39.87   10.26
   2 -15  13   11.27    6.50
  -2  15 -13    4.29    7.70
   2 -15  14   16.33    7.18
  -2  15 -14   15.26    8.08
   2 -15  15   19.14    5.96
  -2  15 -15   -0.40    7.73
   2 -14  -6   53.57   21.07
   2 -14  -5   -3.57    4.47
   2 -14  -4   57.47   17.21
   2 -14  -3   53.23    6.39
   2 -14  -2   35.61   10.83
   2 -14  -1   90.41   23.07
   2 -14   0  273.88   15.26
   2 -14   1  242.41    8.41
   2 -14   1  256.81   13.52
   2 -14   2    5.38    2.34
   2 -14   2   10.00    3.70
   2 -14   3    4.31    3.77
   2 -14   3    2.09    3.01
   2 -14   4   55.12    9.31
   2 -14   4   59.55   15.46
   2 -14   5   38.42    6.78
   2 -14   5   40.24   10.49
   2 -14   6   47.33    8.18
  -2  14  -6   67.92    9.12
   2 -14   7   48.23    8.87
  -2  14  -7   39.70    8.42
   2 -14   8   39.69    8.38
  -2  14  -8   31.07    9.35
   2 -14   9    1.59    2.55
  -2  14  -9   17.79    9.58
   2 -14  10   59.89   13.49
  -2  14 -10   75.30    8.68
   2 -14  11   16.83    6.31
  -2  14 -11    3.58    6.77
   2 -14  12   15.38    5.85
  -2  14 -12   32.50   10.26
   2 -14  13    9.29    5.11
  -2  14 -13   12.04    8.79
   2 -14  14    0.82    3.70
  -2  14 -14   17.12   11.07
   2 -14  15    5.94    3.59
  -2  14 -15   10.86    9.31
   2 -14  16   25.75    9.76
  -2  14 -16   28.14   10.19
   2 -13  -8    2.77    2.67
   2 -13  -7   12.96    4.85
   2 -13  -6    3.86    4.41
   2 -13  -5    4.40    3.26
   2 -13  -4   14.97    6.64
   2 -13  -3   41.63   13.77
   2 -13  -2   11.24    3.75
   2 -13  -1   22.15    6.70
   2 -13   0   67.81   10.72
   2 -13   0   98.21   11.33
   2 -13   1   32.21    6.80
   2 -13   1   36.52    8.92
   2 -13   2   42.65    7.90
   2 -13   2   52.38   13.77
   2 -13   3    2.41    1.99
   2 -13   3   -1.68    6.38
   2 -13   4  249.45   16.20
   2 -13   4  262.48   19.27
   2 -13   5  218.45   18.85
   2 -13   5  201.79   15.45
   2 -13   6    1.59    1.49
  -2  13  -6    9.19    6.41
   2 -13   7    7.69    3.96
  -2  13  -7   -0.42    5.29
   2 -13   8   56.73   13.55
  -2  13  -8   57.70    8.15
   2 -13   9   14.65    4.35
  -2  13  -9    2.55    4.91
   2 -13  10   33.76    7.54
  -2  13 -10   36.52   10.42
   2 -13  11   57.13   11.04
  -2  13 -11   71.64    9.42
   2 -13  12   39.57    8.05
  -2  13 -12   43.32   10.46
   2 -13  13    5.95    4.28
  -2  13 -13   -4.17    7.35
   2 -13  14    3.44    6.57
  -2  13 -14    4.77    8.10
   2 -13  15   13.80    4.84
  -2  13 -15   10.79    7.41
   2 -13  16   10.12    5.42
  -2  13 -16   10.70    5.89
   2 -12  -9    4.36    4.48
   2 -12  -8    3.68    3.42
   2 -12  -7   21.81    5.71
   2 -12  -6   24.92    6.52
   2 -12  -5    3.11    5.03
   2 -12  -4   45.59   11.29
   2 -12  -3    3.33    3.60
   2 -12  -2  171.24   16.51
   2 -12  -1    0.72    3.38
   2 -12   0    3.96    3.25
   2 -12   0    9.81    6.03
   2 -12   1  104.92    7.06
   2 -12   1  104.21   12.88
   2 -12   2  106.23    7.13
   2 -12   2   92.85   18.14
   2 -12   3   84.46   10.99
   2 -12   3   87.36   14.78
   2 -12   4  108.74   14.43
   2 -12   4  101.29   22.42
   2 -12   5   49.73    7.48
   2 -12   5   37.45   10.61
   2 -12   6   56.81   10.78
  -2  12  -6   42.82    8.04
   2 -12   7    4.00    4.55
  -2  12  -7   -0.53    5.57
   2 -12   8   45.45    9.81
  -2  12  -8   30.02    7.36
   2 -12   9   11.10    3.99
  -2  12  -9   17.83    8.70
   2 -12  10   14.08    4.43
  -2  12 -10   25.07    6.20
   2 -12  11   82.29   22.18
  -2  12 -11   72.48    9.72
   2 -12  12   61.89   10.40
  -2  12 -12   47.05   10.98
   2 -12  13  127.78   20.42
  -2  12 -13  135.68   10.24
   2 -12  14   45.73   10.05
  -2  12 -14   23.94   10.51
   2 -12  15   62.94   14.63
  -2  12 -15   45.00   14.79
   2 -12  16    7.94    4.34
  -2  12 -16   14.23    8.75
   2 -12  17   -0.43    5.80
  -2  12 -17    5.65    5.97
   2 -11 -10   26.37    8.84
   2 -11  -9   11.12    7.45
   2 -11  -8    0.80    2.80
   2 -11  -7   -2.62    4.67
   2 -11  -6    6.06    3.32
   2 -11  -5  230.73    8.74
   2 -11  -4  479.81   25.20
   2 -11  -3  110.83   10.19
   2 -11  -2   61.27   16.56
   2 -11  -1    0.94    1.09
   2 -11  -1   -3.90    4.64
  -2  11   1    0.32    1.07
   2 -11   0  298.40    7.86
   2 -11   0  321.89   15.20
  -2  11   0  281.12    7.03
   2 -11   1    5.21    1.88
   2 -11   1    4.22    3.85
  -2  11  -1    6.30    2.41
   2 -11   2    1.65    1.32
   2 -11   2   -8.09    4.37
   2 -11   3  151.42   11.49
   2 -11   3  146.55    6.25
   2 -11   4    3.26    1.64
   2 -11   4    3.21    2.68
   2 -11   5   10.28    3.25
  -2  11  -5    2.79    4.97
   2 -11   6   47.45   11.52
  -2  11  -6   49.25    6.86
   2 -11   7   -1.02    4.74
  -2  11  -7    1.87    5.03
  -2  11  -8   16.51    9.23
   2 -11   9    4.86    2.65
  -2  11  -9   -2.56    5.93
   2 -11  10   25.23    5.50
  -2  11 -10   23.81    5.20
   2 -11  11    8.79    4.14
  -2  11 -11    2.04    6.85
   2 -11  12   94.25   24.46
  -2  11 -12   99.98   11.22
   2 -11  13    5.08    4.08
  -2  11 -13   14.79    6.19
   2 -11  14   29.85    7.47
  -2  11 -14   26.39    6.90
   2 -11  15   -0.81    6.27
  -2  11 -15    0.48    4.08
   2 -11  16    3.83    5.24
  -2  11 -16   12.33    9.13
   2 -11  17    8.99    4.60
  -2  11 -17   15.27   11.92
   2 -10 -11   10.79    5.40
   2 -10 -10    1.52    2.89
   2 -10  -9   26.53    9.22
   2 -10  -8    5.41    2.99
   2 -10  -7    4.00    4.05
   2 -10  -6   37.89   15.53
   2 -10  -5   17.77    6.19
   2 -10  -4    5.34    3.62
   2 -10  -3    0.31    2.71
   2 -10  -2  439.47   21.36
  -2  10   2  410.45    9.44
  -2  10   2  411.80    9.27
   2 -10  -1  207.75    7.73
   2 -10  -1  216.97   15.00
  -2  10   1  195.60    2.65
   2 -10   0  155.07    3.51
   2 -10   0  170.80    9.31
  -2  10   0  150.56    3.11
   2 -10   1  197.24    8.96
   2 -10   1  198.23   14.77
  -2  10  -1  186.84    5.43
   2 -10   2   -0.13    2.67
   2 -10   2   -4.36    4.12
   2 -10   3   43.61    7.97
   2 -10   3   47.65   10.10
   2 -10   4  112.82   10.29
   2 -10   4  109.75   13.89
   2 -10   5   25.16    4.38
  -2  10  -5   30.97    8.45
   2 -10   6   47.30   13.01
  -2  10  -6   32.97   10.42
   2 -10   7    8.59    3.31
  -2  10  -7    2.99    4.30
   2 -10   8   15.74    4.63
  -2  10  -8    5.01    4.86
   2 -10   9   19.04    5.33
  -2  10  -9   10.95    5.53
   2 -10  10    7.48    5.07
  -2  10 -10    8.88    6.57
   2 -10  11  202.18   15.64
  -2  10 -11  188.29    9.64
   2 -10  12  215.85   12.20
  -2  10 -12  214.26    9.99
   2 -10  13  120.14   31.71
  -2  10 -13  150.78    9.86
   2 -10  14   97.49   21.20
  -2  10 -14   83.78   18.05
   2 -10  15    8.18    3.31
  -2  10 -15   14.82   11.12
   2 -10  16   13.89    8.27
  -2  10 -16    7.36    5.98
   2 -10  17   12.84    7.37
  -2  10 -17    5.25    8.08
   2  -9 -12   30.71   16.18
   2  -9 -11    9.95    6.04
   2  -9 -10    2.87    3.66
   2  -9  -9   19.66    4.43
   2  -9  -8    7.29    4.36
   2  -9  -7   35.07   12.78
   2  -9  -6  186.67   13.48
   2  -9  -5   60.81    9.14
   2  -9  -4   26.23    8.36
   2  -9  -3   -2.16    4.27
   2  -9  -2    1.58    2.44
  -2   9   2    0.52    0.48
  -2   9   2   -0.87    0.79
   2  -9  -1  156.25    3.95
   2  -9  -1  156.44   12.43
  -2   9   1  149.30    2.37
   2  -9   0    6.98    2.58
   2  -9   0    7.89    3.76
  -2   9   0    4.15    2.43
   2  -9   1  121.20    5.55
   2  -9   1  121.12    8.72
  -2   9  -1  108.00    4.88
   2  -9   2   29.15    6.00
   2  -9   2   19.84    7.20
  -2   9  -2   16.86    2.39
   2  -9   3   79.48    4.97
   2  -9   3   73.57    8.47
   2  -9   4  174.42    7.41
   2  -9   5   24.80    6.70
  -2   9  -5   33.89    6.24
   2  -9   6   36.04    9.34
  -2   9  -6   35.63    5.91
   2  -9   7   -5.06    3.97
  -2   9  -7   -1.12    4.49
   2  -9   8   -5.92    4.17
  -2   9  -8   15.36    6.29
   2  -9   9   11.23    4.00
  -2   9  -9   28.62    8.11
   2  -9  10   19.94    6.70
  -2   9 -10   14.98    8.58
   2  -9  11   52.27   10.70
  -2   9 -11   47.74    9.62
   2  -9  12  325.52   18.15
  -2   9 -12  299.99   10.21
   2  -9  13   91.88   21.49
  -2   9 -13   72.27   15.63
   2  -9  14   32.29    7.05
  -2   9 -14   28.63    7.67
   2  -9  15    2.00    3.53
  -2   9 -15    8.00    4.48
   2  -9  16   -6.94    5.94
  -2   9 -16   -1.62    7.66
   2  -9  17    1.25    5.10
  -2   9 -17   17.94   10.12
   2  -9  18   45.53   19.90
  -2   9 -18   60.22   20.99
   2  -8 -13    2.70    4.58
   2  -8 -12   63.18   22.00
   2  -8 -11   24.89    8.49
   2  -8 -10   27.31    9.53
   2  -8  -9   -3.08    3.97
   2  -8  -8   51.63   16.61
   2  -8  -7   38.83   12.29
   2  -8  -6   10.21    3.65
   2  -8  -5   89.50   14.40
   2  -8  -4   66.51    9.71
   2  -8  -3   10.91    3.13
  -2   8   3    3.00    0.96
   2  -8  -2   95.28    6.64
  -2   8   2   93.16    2.85
  -2   8   2   88.74    1.76
   2  -8  -1   18.06    4.27
   2  -8  -1   12.29    5.53
  -2   8   1   15.79    4.87
   2  -8   0  397.86   12.22
   2  -8   0  393.63   12.64
  -2   8   0  390.54   11.75
   2  -8   1   43.76    8.01
   2  -8   1   24.04    7.91
  -2   8  -1   36.84    1.79
   2  -8   2   51.25    3.23
   2  -8   2   46.50    9.85
  -2   8  -2   44.63    2.12
   2  -8   3    1.02    1.15
   2  -8   3   -1.47    3.51
  -2   8  -3   -1.22    1.79
   2  -8   4   18.90    4.07
  -2   8  -4   27.14    9.41
   2  -8   5    7.04    3.13
  -2   8  -5   -2.68    3.84
   2  -8   6  114.68    5.06
  -2   8  -6  105.82   13.14
   2  -8   7   35.32   10.09
  -2   8  -7   26.94    5.32
   2  -8   8   32.51    7.93
  -2   8  -8   40.65    5.84
   2  -8   9   28.78    6.65
  -2   8  -9   23.66    6.81
   2  -8  10  647.85   16.39
  -2   8 -10  648.57   17.52
   2  -8  11 1534.44   20.60
  -2   8 -11 1610.36   19.46
   2  -8  12   21.02    5.69
  -2   8 -12    8.75    5.73
   2  -8  13   13.72    4.38
  -2   8 -13   13.83    8.41
   2  -8  14  242.58    9.16
  -2   8 -14  214.01   21.58
   2  -8  15   -0.71    6.25
  -2   8 -15    6.07    8.45
   2  -8  16    6.51    5.60
  -2   8 -16    6.03    5.59
   2  -8  17    6.59    5.64
  -2   8 -17   -0.27    7.89
   2  -8  18   23.78    8.49
  -2   8 -18   26.98    8.44
   2  -7 -14   13.97    5.77
   2  -7 -13   -0.45    4.88
   2  -7 -12    5.85    3.09
   2  -7 -11    4.44    4.63
   2  -7 -10    2.95    3.95
   2  -7  -9    7.08    3.26
   2  -7  -8  278.45   18.47
   2  -7  -7   -3.61    3.71
   2  -7  -6  232.50    9.67
   2  -7  -5   83.49    6.64
   2  -7  -4  112.41   13.03
   2  -7  -3  919.32   13.98
  -2   7   3  864.37   10.91
  -2   7   3  887.10   11.12
   2  -7  -2  395.08   12.68
  -2   7   2  407.11   12.59
  -2   7   2  385.50   11.29
  -2   7   2  374.95   11.79
   2  -7  -1  411.11   11.92
   2  -7  -1  413.18   12.38
  -2   7   1  404.93   11.01
  -2   7   1  387.31   10.86
   2  -7   0  945.98   10.82
   2  -7   0  908.61   11.61
  -2   7   0  921.55   10.17
  -2   7   0  916.00   10.72
   2  -7   1  351.02   10.22
   2  -7   1  346.85   10.87
  -2   7  -1  345.02    9.69
  -2   7  -1  336.37    9.82
   2  -7   2    5.58    2.72
   2  -7   2    0.23    2.08
  -2   7  -2    3.25    1.36
  -2   7  -2   -2.64    2.61
   2  -7   3  805.00   10.03
  -2   7  -3  767.49   10.61
   2  -7   4   11.89    4.23
  -2   7  -4   12.87    7.44
   2  -7   5   16.32    5.47
  -2   7  -5    7.68    3.90
   2  -7   6  278.02    9.56
  -2   7  -6  263.40    9.44
   2  -7   7   29.12    8.71
  -2   7  -7   20.66    4.43
   2  -7   8   -0.96    3.79
  -2   7  -8    0.31    5.03
   2  -7   9   22.12    4.04
  -2   7  -9   26.30    6.62
   2  -7  10 1268.06   35.14
  -2   7 -10 1294.54   26.23
   2  -7  11  200.91   15.64
  -2   7 -11  193.51   12.96
   2  -7  12  178.22    7.43
  -2   7 -12  200.07    9.79
   2  -7  13  192.40   14.47
  -2   7 -13  204.30   18.53
   2  -7  14    0.60    2.32
  -2   7 -14   -7.82    7.67
   2  -7  15   16.70    8.02
  -2   7 -15   12.68    8.55
   2  -7  16    5.57    5.61
  -2   7 -16   12.15    7.01
   2  -7  17    3.18    3.03
  -2   7 -17   -0.50    7.63
   2  -7  18    2.86    6.54
  -2   7 -18    8.76    6.79
   2  -6 -15    7.48    4.05
   2  -6 -14    1.49    4.73
   2  -6 -13  118.95    7.58
   2  -6 -12   -1.23    5.13
   2  -6 -11  365.46    9.17
   2  -6 -10  181.14    9.21
   2  -6  -9  171.06    7.84
   2  -6  -8   49.93    6.12
   2  -6  -7   60.69    5.78
   2  -6  -6   17.50    6.09
   2  -6  -5  120.71    6.49
   2  -6  -4  195.78    6.59
  -2   6   4  191.27    5.47
   2  -6  -3  598.95   18.86
  -2   6   3  596.52   15.80
  -2   6   3  592.21   15.65
  -2   6   3  575.06   15.82
   2  -6  -2   77.42    5.94
  -2   6   2   60.68    2.71
  -2   6   2   72.49    2.19
  -2   6   2   67.52    3.15
   2  -6  -1  549.80    9.28
   2  -6  -1  566.27   13.81
  -2   6   1  552.27    8.90
  -2   6   1  541.34    9.32
   2  -6   0    4.96    1.95
   2  -6   0    4.11    3.14
  -2   6   0    5.18    1.84
  -2   6   0    2.51    1.53
   2  -6   1   21.10    4.53
   2  -6   1    9.08    4.51
  -2   6  -1   18.80    4.19
  -2   6  -1   12.35    4.36
   2  -6   2   17.18    6.27
   2  -6   2   26.69    9.54
  -2   6  -2   21.56    4.27
  -2   6  -2   16.45    6.70
   2  -6   3  866.23   15.55
  -2   6  -3  849.27   13.89
  -2   6  -3  878.06   15.63
  -2   6  -3  869.75   16.06
   2  -6   4    5.84    3.53
  -2   6  -4    5.26    3.62
  -2   6  -4    4.68    3.49
  -2   6  -4    8.44    4.80
   2  -6   5   57.57   14.66
  -2   6  -5   36.22    4.45
   2  -6   6  207.23    7.51
  -2   6  -6  207.29    8.08
   2  -6   7    1.95    1.94
  -2   6  -7    8.91    4.32
   2  -6   8   22.83    9.17
  -2   6  -8   17.05    7.40
   2  -6   9    3.00    4.36
  -2   6  -9   -6.02    5.78
   2  -6  10  123.24    9.98
  -2   6 -10  129.64    8.38
   2  -6  11   16.89    4.32
  -2   6 -11    6.38    5.81
   2  -6  12  229.78    8.74
  -2   6 -12  218.45   30.32
   2  -6  13   39.67    8.80
  -2   6 -13   52.82    9.44
   2  -6  14  160.95    8.97
  -2   6 -14  155.27   11.30
   2  -6  15   -0.48    6.20
  -2   6 -15    1.43    8.23
   2  -6  16    2.52    4.24
  -2   6 -16    0.89    3.47
   2  -6  17   -0.30    5.71
  -2   6 -17    8.60    7.67
   2  -6  18   -0.58    3.27
  -2   6 -18   -1.29    7.95
   2  -5 -15    2.70    4.97
   2  -5 -14  172.79    8.68
   2  -5 -12  102.79   15.16
   2  -5 -11   13.30    7.11
   2  -5 -10  346.81   17.19
  -2   5  10  354.11   10.29
   2  -5  -9   32.15   10.53
   2  -5  -9   15.48    1.67
  -2   5   9   21.88    4.41
   2  -5  -8   39.30   12.24
   2  -5  -8   33.43    2.09
  -2   5   8   37.15    5.53
   2  -5  -7   -0.85    3.19
   2  -5  -7    1.90    1.10
  -2   5   7    4.42    1.47
   2  -5  -6  132.68    7.03
   2  -5  -6  137.89    4.86
  -2   5   6  137.81    5.19
   2  -5  -5  121.10    4.82
  -2   5   5  125.92    3.25
  -2   5   5  111.43    5.84
   2  -5  -4   -0.15    2.57
  -2   5   4    0.02    0.31
  -2   5   4    0.32    0.30
  -2   5   4    0.66    0.81
   2  -5  -3   17.68    4.19
  -2   5   3   11.07    2.20
  -2   5   3   25.07    3.19
  -2   5   3   23.95    6.02
   2  -5  -2   15.77    4.97
  -2   5   2   14.72    6.71
  -2   5   2   24.45    3.85
  -2   5   2   16.76    3.62
   2  -5  -1   90.67    7.27
   2  -5  -1   88.98    6.73
  -2   5   1   94.18    4.27
  -2   5   1   88.30    4.87
   2  -5   0  256.23    5.79
   2  -5   0  261.80    7.00
  -2   5   0  257.33    5.53
  -2   5   0  270.43    6.61
   2  -5   1   10.23    3.79
   2  -5   1    7.04    3.87
  -2   5  -1   15.71    4.45
  -2   5  -1   10.88    5.15
   2  -5   2  108.12   12.52
  -2   5  -2   95.42    7.43
  -2   5  -3  396.12    9.47
  -2   5  -3  412.60   15.60
  -2   5  -3  386.01   10.05
   2  -5   4    2.23    2.58
  -2   5  -4   -1.21    3.18
  -2   5  -4    5.26    4.22
   2  -5   5   28.65    6.83
   2  -5   5   11.91    4.83
  -2   5  -5   28.63    5.66
  -2   5  -5   25.21    4.44
   2  -5   6 1252.15   16.11
  -2   5  -6 1209.28   14.64
   2  -5   7   99.09    4.03
  -2   5  -7   86.44    6.32
   2  -5   8   92.43    5.48
  -2   5  -8   83.09    6.98
   2  -5   9    7.78    3.80
  -2   5  -9    8.74    3.33
   2  -5  10    5.42    3.27
  -2   5 -10    8.59    5.42
   2  -5  11   10.73    4.90
  -2   5 -11    0.99    5.49
   2  -5  12  261.27   11.07
  -2   5 -12  249.79   12.42
   2  -5  13   51.59   12.45
  -2   5 -13   52.57   12.32
   2  -5  14   -0.58    6.07
  -2   5 -14    6.85    5.71
   2  -5  15    6.19    5.25
  -2   5 -15   10.37    4.49
   2  -5  16    2.75    4.98
  -2   5 -16    7.48    6.95
   2  -5  17   -1.39    4.78
  -2   5 -17    2.50    8.11
   2  -5  18   -0.27    4.51
  -2   5 -18    2.27    7.15
   2  -4 -16    3.96    3.85
   2  -4 -15    8.93    6.30
   2  -4 -14    4.37    5.17
   2  -4 -13  207.98    8.50
   2  -4 -12  124.13   23.93
   2  -4 -11   27.12    9.06
  -2   4  11   21.17    4.34
   2  -4 -10  329.05    7.95
   2  -4 -10  305.60   14.92
  -2   4  10  333.36    4.20
   2  -4  -9    3.25    2.87
   2  -4  -9    0.96    1.22
  -2   4   9    1.14    1.92
   2  -4  -8  100.13    9.80
   2  -4  -8   99.36    7.00
  -2   4   8  104.54    3.69
   2  -4  -7  363.37   10.45
   2  -4  -7  367.39    9.41
  -2   4   7  388.96   10.37
   2  -4  -6 1816.02   24.06
   2  -4  -6 1819.97   23.03
  -2   4   6 1836.93   23.09
  -2   4   6 1775.54   23.02
   2  -4  -5   48.75    7.14
   2  -4  -5   39.48    3.89
  -2   4   5   33.61    5.76
  -2   4   5   54.92    8.10
   2  -4  -4 1363.74   21.57
   2  -4  -4 1390.35   21.49
  -2   4   4 1380.89   21.34
   2  -4  -3  163.89    6.80
  -2   4   3  165.50    5.59
  -2   4   3  169.87    7.99
   2  -4  -2  172.00    7.92
  -2   4   2  164.82    7.61
  -2   4   2  179.71    7.77
  -2   4   2  172.19    7.67
   2  -4  -1    4.05    2.49
  -2   4   1    6.12    2.52
  -2   4   1    3.24    2.15
   2  -4   0 1619.19   14.10
   2  -4   0 1676.56   13.12
  -2   4   0 1598.81   11.73
  -2   4   0 1659.20   12.79
   2  -4   1 3913.41   27.70
  -2   4  -1 3906.06   28.21
  -2   4  -2  434.02   10.54
  -2   4  -2  395.66    9.31
  -2   4  -2  401.72   10.12
   2  -4   3  167.79    8.34
  -2   4  -3  172.68   10.87
  -2   4  -3  157.12   10.43
   2  -4   4   22.44    8.01
   2  -4   4   15.94    8.64
  -2   4  -4   40.23   13.01
  -2   4  -4   36.14    9.12
   2  -4   5  322.74   10.05
  -2   4  -5  305.25    9.00
  -2   4  -5  317.81   10.36
   2  -4   6    4.03    3.15
  -2   4  -6   11.68    3.59
   2  -4   7  471.54   13.63
  -2   4  -7  469.02   14.50
   2  -4   8  343.15   11.70
  -2   4  -8  334.78   12.33
   2  -4   9  309.37    9.14
  -2   4  -9  297.37   10.58
   2  -4  10   23.58    4.84
  -2   4 -10   13.44    6.15
   2  -4  11   17.56    6.25
  -2   4 -11   15.11    7.63
   2  -4  12   11.43    3.78
  -2   4 -12    2.47    6.44
   2  -4  13    7.30    3.11
  -2   4 -13    9.95    3.76
   2  -4  14   -0.51    5.21
  -2   4 -14    3.26    7.76
   2  -4  15    4.65    4.44
  -2   4 -15    1.72    3.17
   2  -4  16   -3.87    5.03
  -2   4 -16    6.35    6.75
   2  -4  17   13.83    6.29
  -2   4 -17   24.37    8.21
   2  -3 -17   24.94   12.16
   2  -3 -16    5.60    2.67
   2  -3 -15    1.05    2.05
   2  -3 -14   69.23    7.20
   2  -3 -13    3.17    2.40
  -2   3  13    4.31    3.60
   2  -3 -12   64.79   10.48
  -2   3  12   41.92    7.89
   2  -3 -11   33.12   12.67
  -2   3  11   43.83    8.92
   2  -3 -10  495.23   19.91
   2  -3 -10  435.86   10.45
  -2   3  10  460.19   12.29
   2  -3  -9  284.53   13.28
   2  -3  -9  258.22    6.69
  -2   3   9  292.22   10.26
   2  -3  -8   92.34   14.12
   2  -3  -8  100.83    8.10
  -2   3   8  106.18    7.15
   2  -3  -7  555.59    9.50
   2  -3  -7  536.24    8.26
  -2   3   7  560.44    8.24
  -2   3   7  513.68    7.88
   2  -3  -6  221.89    7.86
   2  -3  -6  223.86    7.33
  -2   3   6  215.58    7.37
  -2   3   6  215.54    7.20
   2  -3  -5 1055.25   17.06
   2  -3  -5 1049.94   16.58
  -2   3   5 1113.11   17.85
  -2   3   5 1043.18   16.63
   2  -3  -4   45.75    3.13
   2  -3  -4   46.73    6.95
  -2   3   4   24.37    6.98
  -2   3   4   57.83    7.43
   2  -3  -3    0.40    1.97
   2  -3  -3    1.98    1.97
  -2   3   3    3.65    1.85
  -2   3   3    2.25    2.23
   2  -3  -2  793.76    6.88
   2  -3  -2  787.23    8.28
  -2   3   2  778.23    6.53
  -2   3   2  776.25    7.06
   2  -3  -1 2304.04   16.62
  -2   3   1 2262.48   16.58
  -2   3   1 2285.30   16.30
  -2   3   1 2260.28   16.24
   2  -3   0  186.28    8.20
   2  -3   0  219.60   11.88
  -2   3   0  179.42    8.03
  -2   3   0  224.10   28.05
   2  -3   1 1199.69    9.53
  -2   3  -1 1241.84   10.35
  -2   3  -1 1198.86   10.00
   2  -3   2    5.50    2.12
  -2   3  -2    4.80    1.80
  -2   3  -2    8.10    4.20
   2  -3   3  267.09    6.99
   2  -3   3  241.48    6.34
  -2   3  -3  257.16    7.83
   2  -3   4    8.95    5.88
   2  -3   4    5.17    3.71
  -2   3  -4    8.02    3.93
   2  -3   5  214.08    7.63
   2  -3   5  214.55    7.20
  -2   3  -5  214.95   14.59
  -2   3  -5  201.70    6.44
   2  -3   6   54.04    7.48
  -2   3  -6   46.74    8.90
  -2   3  -6   30.96    4.26
   2  -3   7   91.57    4.46
  -2   3  -7   90.58    6.84
   2  -3   8  301.83   10.61
  -2   3  -8  308.72   16.44
   2  -3   9  207.12    8.47
  -2   3  -9  188.96    8.77
   2  -3  10   -3.05    3.69
  -2   3 -10    6.49    3.56
   2  -3  11  197.35   12.24
  -2   3 -11  204.68   12.78
   2  -3  12    2.34    5.47
  -2   3 -12    6.65    7.01
   2  -3  13   88.99   23.86
  -2   3 -13   83.19   31.24
   2  -3  14   50.11   13.02
  -2   3 -14   46.24   12.99
   2  -3  15    3.14    6.45
  -2   3 -15   -1.54    6.92
   2  -3  16    1.85    3.08
  -2   3 -16   -6.24    6.86
   2  -3  17   16.06    8.29
  -2   3 -17   18.29   10.44
   2  -2 -17    4.07    2.02
   2  -2 -16   56.36   24.44
   2  -2 -15  111.67   13.05
   2  -2 -14  187.38   15.19
  -2   2  14  193.23   11.69
   2  -2 -13    4.84    4.94
  -2   2  13    1.87    2.00
   2  -2 -12   51.98    7.08
  -2   2  12   44.46   10.97
   2  -2 -11   20.56    6.94
  -2   2  11   11.97    4.65
   2  -2 -10   49.84   10.20
   2  -2 -10   40.99    5.59
  -2   2  10   63.60   13.53
   2  -2  -9   14.10    5.60
   2  -2  -9   14.72    2.66
  -2   2   9   24.10    6.29
   2  -2  -8  217.04    8.24
   2  -2  -8  185.90    5.45
  -2   2   8  213.49    6.86
  -2   2   8  179.92    5.24
   2  -2  -7   13.33    4.59
   2  -2  -7   15.58    4.14
  -2   2   7   21.14    5.98
  -2   2   7   16.78    3.08
   2  -2  -6  893.50   14.69
   2  -2  -6  898.06   14.70
  -2   2   6  956.52   17.65
  -2   2   6  904.88   14.72
   2  -2  -5  429.33    4.17
   2  -2  -5  442.44    8.04
  -2   2   5  447.13    8.90
  -2   2   5  444.99    7.83
   2  -2  -4 1009.58    9.80
   2  -2  -4  988.66    8.65
  -2   2   4  981.09    9.45
   2  -2  -3  671.30   83.51
   2  -2  -3  669.15   83.16
  -2   2   3  671.63   83.57
  -2   2   3  660.93   82.10
   2  -2  -2   76.54    4.64
   2  -2  -2   72.09    3.64
   2  -2  -1   48.77    7.89
   2  -2  -1   26.27   10.21
  -2   2   1   25.73    8.11
  -2   2   1   56.41    7.14
   2  -2   0  233.21   15.65
   2  -2   0  229.24    8.60
  -2   2   0  217.74   21.32
  -2   2   0  225.88   29.00
   2  -2   1  548.87   16.86
  -2   2  -1  528.75   11.35
  -2   2  -1  591.89   15.05
   2  -2   2 1555.58   13.03
  -2   2  -2 1551.82   12.28
  -2   2  -2 1560.86   12.57
  -2   2  -3  725.37    8.19
   2  -2   4  719.95    7.37
   2  -2   4  734.69    8.27
  -2   2  -4  741.40    9.04
  -2   2  -4  733.97    6.76
   2  -2   5   86.08   10.36
   2  -2   5   87.42   11.63
  -2   2  -5   95.58    7.47
  -2   2  -5   87.19    3.41
   2  -2   6   16.98    5.63
  -2   2  -6   15.01    3.70
  -2   2  -6   20.91    6.18
   2  -2   7   90.04    4.68
  -2   2  -7   77.35    6.23
   2  -2   8   11.67    3.86
  -2   2  -8   12.08    3.63
   2  -2   9  230.11    8.86
  -2   2  -9  244.45   11.16
   2  -2  10  293.34    9.88
  -2   2 -10  277.26   10.52
   2  -2  11    3.78    4.02
  -2   2 -11   -0.87    5.74
   2  -2  12  139.91   15.09
  -2   2 -12  138.91   24.01
   2  -2  13    2.88    3.75
  -2   2 -13   -2.08    6.96
   2  -2  14   21.31    6.95
  -2   2 -14   23.72    9.58
   2  -2  15   16.70    7.25
  -2   2 -15   20.64    8.62
   2  -2  16    9.38    3.31
  -2   2 -16   17.52   11.27
  -2   2 -17    6.74    6.77
   2  -1 -18    0.53    4.53
   2  -1 -17    4.13    5.30
   2  -1 -15   27.12    7.89
  -2   1  15   33.99    7.73
   2  -1 -14  118.59    8.62
  -2   1  14  119.61    8.51
   2  -1 -13  148.13   16.94
  -2   1  13  159.76    7.68
   2  -1 -12  330.45   16.96
  -2   1  12  334.62   11.48
   2  -1 -11    2.16    4.65
  -2   1  11    2.62    2.86
   2  -1 -10    3.62    2.79
  -2   1  10    9.92    3.32
   2  -1  -9   -3.33    3.73
   2  -1  -9   -0.20    1.62
  -2   1   9    1.97    1.88
   2  -1  -8   97.74    7.79
   2  -1  -8  102.31    7.80
  -2   1   8  102.24    8.86
  -2   1   8   97.63    4.44
   2  -1  -7  880.05   11.13
   2  -1  -7  862.76   10.69
  -2   1   7  901.85   11.96
  -2   1   7  847.00   10.22
   2  -1  -6   12.97    4.95
   2  -1  -6    3.22    2.95
  -2   1   6    6.58    4.85
  -2   1   6    7.73    2.61
   2  -1  -5   36.43    5.00
   2  -1  -5   50.82    9.28
  -2   1   5   27.53    9.32
  -2   1   5   47.61    4.44
  -2   1   4 5628.84   40.44
   2  -1  -3  988.93   10.23
   2  -1  -3  967.64    8.45
  -2   1   3 1005.03    9.28
  -2   1   3  960.30    7.64
  -2   1   2  293.69   19.15
   2  -1  -1  209.47   11.09
  -2   1   1  239.27   21.48
  -2   1   1  196.07   11.10
   2  -1   0  161.39    9.84
   2  -1   0  164.67    9.62
  -2   1   0  175.91   12.44
  -2   1   0  188.23   12.11
   2  -1   1  812.85   11.31
  -2   1  -1  796.10    9.53
  -2   1  -1  847.44   15.27
   2  -1   2 5161.83   37.21
  -2   1  -2 5181.51   36.95
   2  -1   3 4930.39   35.25
  -2   1  -3 4794.24   34.04
  -2   1  -3 4866.91   36.18
   2  -1   4 1361.19   11.70
   2  -1   5    4.55    2.10
   2  -1   5    5.91    3.53
  -2   1  -5   13.52    4.94
  -2   1  -5    9.30    5.19
   2  -1   6  387.05   11.85
  -2   1  -6  370.66   10.61
  -2   1  -6  378.21   12.10
   2  -1   7  158.03    5.49
  -2   1  -7  148.50    4.70
  -2   1  -7  154.23    7.28
   2  -1   8   18.47    5.15
  -2   1  -8   12.58    7.62
   2  -1   9   72.44    9.55
  -2   1  -9   75.24   16.86
   2  -1  10    0.69    2.16
  -2   1 -10    6.72    5.28
   2  -1  11    2.89    2.09
  -2   1 -11   11.44    8.09
   2  -1  12   16.51    5.46
  -2   1 -12   18.40    4.98
   2  -1  13   21.07    5.84
  -2   1 -13   16.69    6.10
   2  -1  14   22.61    7.22
  -2   1 -14   25.03   10.16
   2  -1  15   29.99    6.56
  -2   1 -15   13.46    7.00
  -2   1 -16   20.96    7.18
   2   0 -18    8.47    4.80
   2   0 -17    8.09    5.56
   2   0 -16   10.22    5.36
  -2   0  16   12.70    5.51
   2   0 -15   18.92    6.25
  -2   0  15   14.36    6.97
   2   0 -14   16.75    6.16
  -2   0  14   30.70    8.61
   2   0 -13    1.50    5.51
  -2   0  13    4.40    2.33
   2   0 -12   50.08   18.70
  -2   0  12   71.54   18.04
   2   0 -11   53.28   19.72
  -2   0  11   59.95   14.91
   2   0 -10    6.22    3.03
  -2   0  10    3.01    2.29
   2   0  -9  266.79   10.77
  -2   0   9  254.83    8.28
   2   0  -8   70.61    5.89
   2   0  -8   56.53    7.60
  -2   0   8   81.54   16.39
  -2   0   8   63.03    3.15
   2   0  -7    6.98    4.85
   2   0  -7    4.12    2.44
  -2   0   7    4.93    2.50
  -2   0   7    2.54    2.39
   2   0  -6  207.41   10.36
   2   0  -6  197.95    6.72
  -2   0   6  216.95   11.18
  -2   0   6  204.75    6.93
   2   0  -5  223.20   28.43
   2   0  -5  229.00    6.31
  -2   0   5  232.67    9.86
  -2   0   5  232.79    6.09
   2   0  -4 4357.45   32.76
  -2   0   4 4415.25   34.81
  -2   0   3 4474.44   32.98
   2   0  -2  213.75   12.07
   2   0  -2  212.34   12.19
  -2   0   2  228.10   12.03
  -2   0   2  212.03   12.16
   2   0  -1  333.30   11.58
   2   0  -1  331.97   12.86
  -2   0   1  299.09   13.89
  -2   0   1  340.57   11.37
   2   0   0 1539.93   16.06
  -2   0   0 1583.13   18.68
  -2   0   0 1537.13   19.40
   2   0   3  225.97   31.61
   2   0   3  207.02    9.96
  -2   0  -3  177.67   12.69
  -2   0  -3  211.94   12.42
   2   0   4  650.45   11.10
   2   0   4  619.32   11.05
  -2   0  -4  661.00   13.32
  -2   0  -4  650.01   10.67
   2   0   5 1347.89   21.48
  -2   0  -5 1317.49   20.88
   2   0   6   77.48    7.01
  -2   0  -6   73.32    2.99
  -2   0  -6   78.03   17.67
   2   0   7  622.13   12.05
  -2   0  -7  631.96    9.29
  -2   0  -7  647.27   12.02
   2   0   8   30.44    8.88
  -2   0  -8   14.16    4.76
  -2   0  -8   19.86    7.99
   2   0   9    4.32    2.82
  -2   0  -9    3.62    3.13
   2   0  10   26.19    5.17
  -2   0 -10   25.03    6.25
   2   0  11   16.78    3.62
  -2   0 -11    5.89    3.88
   2   0  12  144.05   15.98
  -2   0 -12  159.18   10.47
   2   0  13  128.01    7.53
  -2   0 -13  124.67   11.03
   2   0  14    5.93    3.28
  -2   0 -14   14.85    9.09
  -2   0 -15   15.38    6.65
  -2   0 -16   -5.44    6.43
  -2  -1  18   28.71   12.75
   2   1 -17   14.83    5.92
  -2  -1  17   27.12   10.36
   2   1 -16   34.96   12.63
  -2  -1  16   41.95   11.70
   2   1 -15   -0.61    5.74
  -2  -1  15    4.69    3.57
   2   1 -14  138.55    8.47
  -2  -1  14  115.03    5.48
   2   1 -13   10.65    7.39
  -2  -1  13   -1.29    4.14
   2   1 -12    4.51    3.70
  -2  -1  12    5.49    4.26
   2   1 -11   26.60    7.41
  -2  -1  11   14.40    4.84
   2   1 -10    4.21    3.47
  -2  -1  10    0.85    2.59
   2   1  -9  309.51   10.87
  -2  -1   9  337.50   11.88
   2   1  -8  265.50   11.84
   2   1  -8  252.44    4.88
  -2  -1   8  269.47   11.17
  -2  -1   8  245.50    9.12
   2   1  -7   80.48   10.47
   2   1  -7   79.76    4.58
  -2  -1   7   85.66    5.40
  -2  -1   7   77.58    3.48
   2   1  -6   45.82    4.66
   2   1  -6   53.07   10.75
  -2  -1   6   39.52    5.90
  -2  -1   6   46.38    5.05
   2   1  -5  317.38    9.61
   2   1  -5  321.53    7.61
  -2  -1   5  328.39   10.98
  -2  -1   5  324.41    7.67
   2   1  -4  153.74   13.18
   2   1  -4  146.23   12.07
   2   1  -4  163.12   10.32
  -2  -1   4  111.32   10.42
   2   1  -3  759.64    9.11
   2   1  -3  753.64    7.41
  -2  -1   3  737.23   10.23
  -2  -1   3  732.64   10.37
  -2  -1   2  889.71    9.18
  -2  -1   2  919.93    9.26
   2   1  -1 2556.72   19.50
  -2  -1   1 2460.48   18.92
   2   1   0 3676.04   26.77
  -2  -1   0 3797.56   27.09
  -2  -1  -1 4465.17   35.05
   2   1   2   -8.86    6.85
  -2  -1  -2    3.21    1.34
  -2  -1  -2  -16.66   13.04
  -2  -1  -2   -4.00    6.34
  -2  -1  -3 1624.75   14.87
   2   1   4  370.20   12.06
   2   1   4  337.94   12.73
  -2  -1  -4  358.40   12.20
  -2  -1  -4  337.54    9.53
   2   1   5   63.98    5.28
  -2  -1  -5   57.00    2.87
  -2  -1  -5   57.50    5.76
   2   1   6   61.33    3.00
  -2  -1  -6   53.47    2.71
  -2  -1  -6   52.62    6.63
   2   1   7   71.43   12.68
  -2  -1  -7   62.67    5.68
  -2  -1  -7   79.97    7.69
   2   1   8  102.77    4.21
  -2  -1  -8  102.40    3.12
  -2  -1  -8  111.54    7.73
   2   1   9   67.54    7.03
  -2  -1  -9   86.96   12.75
   2   1  10    3.63    1.63
  -2  -1 -10    3.54    3.66
   2   1  11    5.10    2.00
  -2  -1 -11    3.19    5.23
   2   1  12   96.20   11.59
  -2  -1 -12  112.79    8.38
   2   1  13    0.62    1.86
  -2  -1 -13   -3.99    6.54
  -2  -1 -14    7.96    6.06
  -2  -1 -15    9.04    6.37
  -2  -1 -16   -2.05    6.31
   2   2 -19    0.46    2.11
  -2  -2  19    1.64    2.40
   2   2 -18    9.44    5.34
  -2  -2  18   13.53    6.18
   2   2 -17   44.36   13.35
  -2  -2  17   36.93   13.25
   2   2 -16   64.38    8.52
  -2  -2  16   40.34   12.21
   2   2 -15   -6.22    6.31
  -2  -2  15    0.99    4.75
   2   2 -14  122.11    8.25
  -2  -2  14  122.81    7.76
   2   2 -13   11.46    5.04
  -2  -2  13   22.00    6.13
   2   2 -12   91.65   20.71
  -2  -2  12   96.59    7.24
   2   2 -11  300.09   12.72
  -2  -2  11  286.84   10.34
   2   2 -10   15.84    5.09
  -2  -2  10   13.50    6.27
   2   2  -9    1.97    2.06
  -2  -2   9    4.19    3.87
   2   2  -8    3.04    3.72
  -2  -2   8    6.65    4.45
  -2  -2   8   -1.19    2.10
   2   2  -7 2378.29   37.00
  -2  -2   7 2483.61   39.08
  -2  -2   7 2521.43   39.26
   2   2  -6    0.75    3.00
  -2  -2   6   -0.29    3.74
  -2  -2   6   -0.86    2.49
   2   2  -5   20.27    7.59
   2   2  -5   23.65    6.59
   2   2  -5   22.18    3.55
  -2  -2   5   20.69    5.91
   2   2  -4   -0.49    4.12
   2   2  -4    2.63    2.71
  -2  -2   4    6.96    3.96
  -2  -2   4   -2.06    4.31
   2   2  -2 1878.96   14.49
  -2  -2   2 1975.59   15.30
  -2  -2   0 7656.41   53.66
  -2  -2   0 7865.45   57.77
   2   2   1  219.95   12.54
   2   2   1  225.90   31.63
  -2  -2  -1  201.43   11.89
  -2  -2  -1  215.82   14.01
   2   2   210333.77 1282.41
  -2  -2  -210216.44   77.31
  -2  -2  -210329.80 1281.89
   2   2   3    4.88    2.84
  -2  -2  -3    4.11    2.11
  -2  -2  -3    5.32    3.30
  -2  -2  -3    7.38    2.27
  -2  -2  -4   34.62    5.79
  -2  -2  -4   42.59    5.73
  -2  -2  -5  372.41   11.27
  -2  -2  -5  386.62   13.01
   2   2   6   40.90    4.20
  -2  -2  -6   32.41    7.00
  -2  -2  -6   43.79   10.81
   2   2   7    1.50    1.68
  -2  -2  -7   -0.02    1.71
  -2  -2  -7   -3.46    4.23
   2   2   8  103.79    4.86
  -2  -2  -8   93.41    3.95
  -2  -2  -8  108.27   12.77
   2   2   9  307.78   18.87
  -2  -2  -9  291.59   14.19
  -2  -2  -9  328.98   10.08
   2   2  10    4.64    2.34
  -2  -2 -10    9.03    5.39
   2   2  11    5.85    3.14
  -2  -2 -11   11.39    5.91
  -2  -2 -12   35.90   10.09
  -2  -2 -13   24.91    9.69
  -2  -2 -14    5.16    4.15
  -2  -2 -15    9.90    6.13
   2   3 -19    2.58    3.71
  -2  -3  19   -5.18    4.36
   2   3 -18   17.84    8.92
  -2  -3  18   16.01    8.27
   2   3 -17    1.48    5.80
  -2  -3  17    3.85    3.39
   2   3 -16    5.47    6.84
  -2  -3  16    3.86    4.49
   2   3 -15   14.12    8.56
  -2  -3  15   11.00    4.28
   2   3 -14  108.35   33.47
  -2  -3  14  112.20   14.69
   2   3 -13    6.45    5.56
  -2  -3  13    2.76    4.40
   2   3 -12   17.53    5.33
  -2  -3  12    7.46    4.61
   2   3 -11    8.00    5.34
  -2  -3  11    4.72    4.29
   2   3 -10   59.71    5.67
  -2  -3  10   64.14   15.96
   2   3  -9    4.08    2.02
  -2  -3   9    1.16    1.77
   2   3  -8   36.70    5.13
  -2  -3   8   26.69    9.13
  -2  -3   8   44.42    2.96
   2   3  -7   18.96    3.87
   2   3  -7   25.58    7.56
  -2  -3   7   23.55    8.32
   2   3  -6    1.69    4.01
   2   3  -6    8.69    3.40
   2   3  -6    7.11    3.30
  -2  -3   6    3.12    3.46
   2   3  -5  706.08    8.53
   2   3  -5  708.04    7.86
   2   3  -4   82.22   10.15
   2   3  -4   77.44    4.39
  -2  -3   4   81.99    5.87
  -2  -3   4   78.32    5.37
   2   3  -3 1229.14   10.22
   2   3  -3 1249.57   10.48
  -2  -3   3 1237.93   16.95
  -2  -3   3 1259.75   11.12
   2   3  -2  237.73    6.81
  -2  -3   2  245.45   10.74
  -2  -3   2  240.87    7.09
   2   3  -1 3446.67   25.05
   2   3  -1 3396.87   24.48
  -2  -3   1 3407.71   28.71
  -2  -3   1 3318.84   24.28
   2   3   0  293.90    6.74
   2   3   0  305.33    7.65
  -2  -3   0  286.22    8.75
  -2  -3   0  281.80    7.70
   2   3   1 2254.70   35.01
   2   3   1 2299.49   35.34
  -2  -3  -1 2324.19   35.71
   2   3   2    4.30    2.24
  -2  -3  -2    0.99    1.14
  -2  -3  -2    1.71    2.92
  -2  -3  -2   -0.77    1.34
  -2  -3  -3  348.70    9.54
  -2  -3  -3  343.56    9.67
  -2  -3  -4 1329.54   14.40
  -2  -3  -4 1339.06   14.90
  -2  -3  -4 1333.40   16.94
  -2  -3  -5 1150.37   14.95
  -2  -3  -5 1179.82   15.58
  -2  -3  -5 1117.14   16.99
  -2  -3  -6   -0.40    1.62
  -2  -3  -6    0.76    1.28
  -2  -3  -6   -2.28    4.41
  -2  -3  -7   76.94    5.81
  -2  -3  -7   76.91    7.43
  -2  -3  -7   79.49   18.41
  -2  -3  -8   65.68    3.39
  -2  -3  -8   76.17    6.35
  -2  -3  -8   60.26    6.92
  -2  -3  -9   72.90    4.04
  -2  -3  -9   73.39   21.79
  -2  -3 -10   29.14   11.14
  -2  -3 -10   45.21   18.30
  -2  -3 -11   35.23    9.66
  -2  -3 -12   30.54   17.45
  -2  -3 -13    4.32    4.28
  -2  -3 -14    6.88    5.16
   2   4 -19    8.77    7.42
  -2  -4  19    9.34    4.57
   2   4 -18    7.64    4.69
  -2  -4  18    4.40    3.34
   2   4 -17   18.52   16.29
  -2  -4  17   37.90    8.66
   2   4 -16    7.00    6.60
  -2  -4  16    8.92    4.01
   2   4 -15  124.91   20.80
  -2  -4  15  127.67   18.28
   2   4 -14   20.58    6.98
  -2  -4  14   19.75    7.43
   2   4 -13   16.03    7.44
  -2  -4  13   16.01    6.51
   2   4 -12   14.07    5.41
  -2  -4  12    9.78    5.30
   2   4 -11   73.63    7.11
  -2  -4  11   64.12    7.41
   2   4 -10    2.05    4.20
  -2  -4  10    5.37    3.07
   2   4  -9   14.68    3.49
  -2  -4   9   14.09    7.12
   2   4  -8  114.92    4.93
  -2  -4   8  115.09    5.33
   2   4  -7  180.39    7.08
   2   4  -7  184.50    7.90
  -2  -4   7  186.38    7.23
   2   4  -6   32.71    7.56
   2   4  -6   35.83    9.43
   2   4  -6   44.97    9.24
  -2  -4   6   49.17   13.16
   2   4  -5  118.24    5.39
   2   4  -5  124.84    5.11
  -2  -4   5  132.83    6.57
   2   4  -4  138.51    5.82
   2   4  -4  135.00    6.17
  -2  -4   4  145.96    5.87
  -2  -4   4  135.31    6.33
   2   4  -3  106.59    8.21
  -2  -4   3   99.61    5.67
  -2  -4   3  101.34   14.61
   2   4  -2   64.70    4.27
   2   4  -2   62.42    4.20
  -2  -4   2   66.52    4.20
  -2  -4   2   74.51    4.67
   2   4  -1  140.29    8.05
   2   4  -1  113.08    5.46
  -2  -4   1  123.72    4.83
  -2  -4   1  122.31    7.92
   2   4   0   20.40    4.87
   2   4   0   22.22    4.26
  -2  -4   0    8.54    2.65
  -2  -4   0   21.10    7.27
   2   4   1  102.16    2.81
   2   4   1   87.81    5.96
  -2  -4  -1   98.80    3.99
  -2  -4  -1   94.77    6.08
  -2  -4  -2 1325.97   14.34
  -2  -4  -2 1310.81   16.46
  -2  -4  -3  469.29    6.43
  -2  -4  -3  460.76    6.79
  -2  -4  -3  470.39    9.44
  -2  -4  -4   15.75    3.11
  -2  -4  -4   12.05    2.52
  -2  -4  -4    9.02    4.23
  -2  -4  -5    1.45    0.98
  -2  -4  -5    1.20    1.14
  -2  -4  -5    8.34    3.37
  -2  -4  -6   18.03    3.81
  -2  -4  -6   18.03    4.56
  -2  -4  -6   38.06    9.54
  -2  -4  -7    7.33    1.50
  -2  -4  -7   12.40    3.55
  -2  -4  -8    0.32    0.56
  -2  -4  -8   -0.34    1.12
  -2  -4  -8    2.35    6.02
  -2  -4  -9   16.94    6.61
  -2  -4  -9   28.62    9.89
  -2  -4 -10    8.26    5.25
  -2  -4 -11   22.18   10.19
  -2  -4 -12  101.01   11.70
  -2  -4 -13    5.70    5.79
  -2  -4 -14   -3.67    5.86
   2   5 -19    9.94    5.38
  -2  -5  19    2.65    3.49
   2   5 -18   36.65    9.17
  -2  -5  18   12.89    8.01
   2   5 -17   26.85    8.41
  -2  -5  17   20.54    6.99
   2   5 -16    3.37    7.03
  -2  -5  16   -0.76    5.99
   2   5 -15   17.07    5.84
  -2  -5  15   25.22    8.55
   2   5 -14    3.01    4.29
  -2  -5  14   -1.05    5.54
   2   5 -13   15.44    5.71
  -2  -5  13   13.56    5.51
   2   5 -12   10.33    3.45
  -2  -5  12   18.36    9.47
   2   5 -11    7.93    6.82
  -2  -5  11    1.47    4.49
   2   5 -10   20.20    6.46
  -2  -5  10   12.84    4.42
   2   5  -9    8.61    3.84
  -2  -5   9   19.67    5.99
   2   5  -8    8.33    4.69
  -2  -5   8   13.47    4.27
   2   5  -7  123.87    5.93
  -2  -5   7  128.18    6.29
  -2  -5   6  466.58   13.35
  -2  -5   6  457.86   13.33
   2   5  -5  121.49    4.97
   2   5  -5  118.80    5.16
  -2  -5   5  117.82    6.14
  -2  -5   5  128.80    6.83
   2   5  -4   89.57    5.74
  -2  -5   4   90.27    5.87
  -2  -5   4   85.77    5.15
   2   5  -3  656.45   11.52
   2   5  -3  639.51   11.37
  -2  -5   3  673.39   12.36
  -2  -5   3  660.75   12.52
   2   5  -2  734.96   12.22
  -2  -5   2  749.04   12.87
  -2  -5   2  718.10   12.63
   2   5  -1  428.21    4.79
  -2  -5   1  434.19    7.86
   2   5   0  296.53    8.46
  -2  -5   0  300.66    8.67
  -2  -5   0  310.36   10.36
   2   5   1   95.97    4.90
  -2  -5  -1   92.60    5.93
  -2  -5  -1   89.44    5.58
   2   5   2   38.78    2.56
  -2  -5  -2   40.40    6.14
  -2  -5  -2   47.84    9.33
  -2  -5  -3  212.14    7.22
  -2  -5  -3  215.80    7.55
  -2  -5  -3  217.45   16.05
  -2  -5  -4   78.06    2.59
  -2  -5  -4   90.04    7.74
  -2  -5  -5    0.27    0.33
  -2  -5  -5    3.39    4.21
  -2  -5  -6  255.64   10.20
  -2  -5  -7   -0.13    0.35
  -2  -5  -7    7.49    6.76
  -2  -5  -8  131.01   10.33
  -2  -5  -9   13.53    5.62
  -2  -5 -10    5.65    5.38
  -2  -5 -11   -1.40    6.41
  -2  -5 -12   17.90    6.26
  -2  -5 -13   11.18    8.96
  -2  -6  19   26.08   10.69
   2   6 -18   -0.67    6.26
  -2  -6  18   -3.20    6.14
   2   6 -17    5.02    4.86
  -2  -6  17    6.39    3.05
   2   6 -16   34.06   14.01
  -2  -6  16   53.10   15.24
   2   6 -15  255.21   13.81
  -2  -6  15  237.45    8.50
   2   6 -14   -8.67    6.45
  -2  -6  14   -2.39    5.93
   2   6 -13   24.00    6.60
  -2  -6  13   36.95    8.08
   2   6 -12    6.13    5.67
  -2  -6  12    6.62    5.31
   2   6 -11   37.24    6.63
  -2  -6  11   35.61    7.72
   2   6 -10    4.93    4.71
  -2  -6  10    2.71    3.92
   2   6  -9    5.72    3.12
  -2  -6   9    5.00    4.31
   2   6  -8   23.59    5.00
  -2  -6   8   21.25    7.91
   2   6  -7    7.65    3.86
  -2  -6   7   11.17    5.90
  -2  -6   6    4.70    6.03
  -2  -6   6    5.77    3.72
  -2  -6   5  340.48   10.18
  -2  -6   5  337.52   10.25
   2   6  -4   43.76    5.57
  -2  -6   4   47.29    5.30
  -2  -6   4   43.01   12.74
   2   6  -3   75.53    3.45
  -2  -6   3   86.40    9.69
  -2  -6   3   77.34   11.17
   2   6  -2   55.69    6.11
  -2  -6   2   61.80    6.68
  -2  -6   2   53.21   11.07
   2   6  -1   28.49    7.01
  -2  -6   1   20.29    6.23
  -2  -6   1   23.47   11.55
   2   6   0  138.77    4.30
  -2  -6   0  156.09    4.95
  -2  -6   0  131.43    5.98
   2   6   1  122.97    3.95
  -2  -6  -1  125.41    5.86
  -2  -6  -1  126.15    8.29
   2   6   2  523.26   12.59
  -2  -6  -2  534.34   13.05
  -2  -6  -2  512.69   14.41
  -2  -6  -3   44.20    2.90
  -2  -6  -3   59.84   11.05
  -2  -6  -4   62.86   16.52
  -2  -6  -5  143.28   18.69
  -2  -6  -6  136.40    7.38
  -2  -6  -7    8.84    7.51
  -2  -6  -8   99.64    9.84
  -2  -6  -9    2.27    5.61
  -2  -6 -10   12.30    9.03
  -2  -6 -11   20.97   12.74
  -2  -6 -12    7.42    6.07
   2   7 -19   25.91   13.49
  -2  -7  19   30.88   12.91
   2   7 -18   31.46   10.08
  -2  -7  18   37.88    9.15
   2   7 -17   49.96   18.95
  -2  -7  17   56.60   22.48
   2   7 -16   17.57    8.29
  -2  -7  16   19.39    8.42
   2   7 -15    9.38    7.50
  -2  -7  15    6.30    4.29
   2   7 -14  149.15   20.07
  -2  -7  14  142.73   22.44
   2   7 -13    6.27    7.10
  -2  -7  13    7.17    7.07
   2   7 -12    1.21    5.77
  -2  -7  12   14.68    5.30
   2   7 -11   21.99    7.03
  -2  -7  11   15.84    5.45
   2   7 -10   -0.26    2.85
  -2  -7  10   -4.41    4.49
   2   7  -9    2.56    4.52
  -2  -7   9    4.60    4.54
   2   7  -8  105.25    7.37
  -2  -7   8   96.50    6.75
  -2  -7   7  200.05    8.46
  -2  -7   7  197.21    9.18
  -2  -7   6  127.83    7.48
  -2  -7   6  130.31   13.18
  -2  -7   5  116.78    8.27
  -2  -7   5  106.41    8.41
  -2  -7   4  103.90    3.65
  -2  -7   4  120.91    7.38
   2   7  -3   73.91    3.10
  -2  -7   3   81.62    9.49
  -2  -7   3   77.41   16.25
   2   7  -2  301.45    9.61
  -2  -7   2  314.69   10.92
  -2  -7   2  289.90   10.84
   2   7  -1  212.07    8.07
  -2  -7   1  202.45    9.06
  -2  -7   1  208.47    9.16
   2   7   0  510.36   12.74
  -2  -7   0  499.46   12.57
  -2  -7   0  509.56   21.28
   2   7   1  111.06    4.09
  -2  -7  -1  111.75    2.97
  -2  -7  -1  122.40   14.73
  -2  -7  -2    0.26    0.52
  -2  -7  -2   12.55    6.29
  -2  -7  -3  173.24    5.87
  -2  -7  -4  153.28   19.29
  -2  -7  -5   -2.74    5.64
  -2  -7  -6  170.09   26.54
  -2  -7  -7   31.68   10.33
  -2  -7  -8  195.28   10.57
  -2  -7  -9   23.02    9.92
  -2  -7 -10   11.36    4.66
  -2  -7 -11    2.30    6.18
   2   8 -19   50.34   10.67
  -2  -8  19   50.21   22.55
   2   8 -18   33.41   11.77
  -2  -8  18   39.61   11.35
   2   8 -17   34.92    9.94
  -2  -8  17   30.74   10.81
   2   8 -16   15.60    8.37
  -2  -8  16    9.96    4.23
   2   8 -15   67.66   17.49
  -2  -8  15   77.83   19.79
   2   8 -14    2.96    6.17
  -2  -8  14   -0.54    4.80
   2   8 -13   48.64    9.62
  -2  -8  13   42.10   10.16
   2   8 -12   30.44   10.69
  -2  -8  12   38.02   13.21
   2   8 -11   33.25    6.73
  -2  -8  11   28.60   10.01
   2   8 -10  110.56    7.10
  -2  -8  10  111.44   12.36
   2   8  -9   39.04    9.10
  -2  -8   9   45.17   11.59
   2   8  -8  124.56    9.38
  -2  -8   8  108.96    8.81
  -2  -8   7   75.56    8.10
  -2  -8   7   74.32   17.44
  -2  -8   6  266.87    8.05
  -2  -8   6  255.73    9.22
  -2  -8   5    7.28    3.27
  -2  -8   5    9.91    5.51
  -2  -8   4    6.64    2.91
  -2  -8   4    4.11    2.99
  -2  -8   3  193.49    8.75
  -2  -8   3  158.79    8.18
   2   8  -2    1.51    1.10
  -2  -8   2    0.41    2.09
  -2  -8   2   -2.90    4.69
   2   8  -1   22.74    6.10
  -2  -8   1   29.71    3.46
  -2  -8   1   34.34    7.25
   2   8   0    1.12    0.93
  -2  -8   0    4.20    2.42
  -2  -8   0    1.94    2.96
   2   8   1   13.01    2.40
  -2  -8  -1    9.29    2.35
  -2  -8  -1   12.90    8.34
  -2  -8  -2    8.39    1.68
  -2  -8  -2   10.18    2.71
  -2  -8  -3    3.04    5.04
  -2  -8  -4   57.77   15.99
  -2  -8  -5   95.90   21.94
  -2  -8  -6   -0.78    5.23
  -2  -8  -7   75.60   24.92
  -2  -8  -8   18.45    8.07
  -2  -8  -9   16.97    4.75
  -2  -8 -10    2.54    4.04
  -2  -8 -11   -1.82    5.42
   2   9 -19    6.73    4.59
  -2  -9  19   -4.09    6.61
   2   9 -18    2.28    6.69
  -2  -9  18    0.13    3.58
   2   9 -17    4.82    7.26
  -2  -9  17    0.11    3.09
   2   9 -16   16.75    6.14
  -2  -9  16   30.25    9.62
   2   9 -15    3.10    6.67
  -2  -9  15    4.91    3.20
   2   9 -14   48.31    8.55
  -2  -9  14   43.30   11.56
   2   9 -13   32.51    6.01
  -2  -9  13   35.91    7.66
   2   9 -12   85.58    9.89
  -2  -9  12   97.38    7.62
   2   9 -11   91.54   12.55
  -2  -9  11   98.47    6.62
   2   9 -10  600.63   23.11
  -2  -9  10  610.31   11.34
   2   9  -9 2900.80   20.32
  -2  -9   9 2810.58   63.43
  -2  -9   8 1241.71   30.78
  -2  -9   8 1249.93   33.00
  -2  -9   7   12.43    4.92
  -2  -9   7   12.35    5.55
  -2  -9   6   36.26    5.82
  -2  -9   6   32.75    6.31
  -2  -9   5   21.89    4.85
  -2  -9   5   25.77    6.33
  -2  -9   4   32.04    4.00
  -2  -9   4   38.04    8.61
  -2  -9   3  256.67    8.42
  -2  -9   3  250.99    9.39
   2   9  -2    8.14    2.78
  -2  -9   2   10.64    3.61
  -2  -9   2   19.14    6.20
   2   9  -1    1.40    0.96
  -2  -9   1   -0.26    1.81
  -2  -9   1    2.77    3.54
   2   9   0  213.17    4.90
  -2  -9   0  248.91    6.54
  -2  -9   0  247.14   14.99
   2   9   1  275.93   13.74
  -2  -9  -1  319.75    3.57
  -2  -9  -1  320.94   10.60
  -2  -9  -2   88.33    1.21
  -2  -9  -2   96.38   15.37
  -2  -9  -3  110.64   17.55
  -2  -9  -4   18.11    6.23
  -2  -9  -5   71.13    7.71
  -2  -9  -6    3.41    4.12
  -2  -9  -7    9.77    4.25
  -2  -9  -8    9.81    5.80
  -2  -9  -9   -5.07    6.13
   2  10 -18   -3.67    7.31
  -2 -10  18    0.51    6.43
   2  10 -17   10.42    7.36
  -2 -10  17   -0.13    6.05
   2  10 -16   -3.52    6.43
  -2 -10  16    4.80    5.29
   2  10 -15   62.80   18.87
  -2 -10  15   69.61   17.67
   2  10 -14   -8.91    6.96
  -2 -10  14    3.05    4.38
   2  10 -13    9.54    6.17
  -2 -10  13   -0.25    5.82
   2  10 -12  468.36   11.51
  -2 -10  12  499.23    9.42
   2  10 -11  133.18    8.01
  -2 -10  11  138.03    6.64
   2  10 -10  324.89   13.71
  -2 -10  10  334.74   12.79
   2  10  -9   72.89   13.30
  -2 -10   9   74.55   19.02
  -2 -10   8   32.29   11.12
  -2 -10   8   33.49    9.59
  -2 -10   7  263.21    9.80
  -2 -10   7  247.08   25.12
  -2 -10   6  162.93    6.01
  -2 -10   6  152.09   10.40
  -2 -10   5   36.84    6.52
  -2 -10   5   39.01    7.79
  -2 -10   4  153.80    7.04
  -2 -10   4  143.70   16.09
  -2 -10   3    4.52    3.17
  -2 -10   3    8.09    4.88
  -2 -10   2   14.93    3.64
  -2 -10   2   14.87    7.59
  -2 -10   1    1.59    1.87
  -2 -10   1   -0.33    3.88
  -2 -10   0   -0.40    1.56
  -2 -10   0    3.05    3.59
  -2 -10  -1   86.98    5.09
  -2 -10  -1   84.59   20.83
  -2 -10  -2   19.55    8.39
  -2 -10  -4    3.59    3.26
  -2 -10  -5   11.83    6.41
  -2 -10  -6   45.70   13.87
  -2 -10  -7    2.12    3.86
  -2 -10  -8    0.21    6.03
   2  11 -18   61.21   25.80
  -2 -11  18   93.81   16.68
   2  11 -17    7.95    6.46
  -2 -11  17   22.61    8.96
   2  11 -16   10.00    6.49
  -2 -11  16    8.04    6.21
   2  11 -15   -4.76    6.57
  -2 -11  15    3.92    7.18
   2  11 -14   13.95    8.37
  -2 -11  14    7.91    3.29
   2  11 -13   24.16   10.09
  -2 -11  13   29.00    7.78
   2  11 -12   82.89   22.64
  -2 -11  12  100.34   15.59
   2  11 -11  123.93    8.74
  -2 -11  11  128.02   10.36
   2  11 -10  143.68    7.87
  -2 -11  10  142.22   23.51
   2  11  -9  228.87    9.13
  -2 -11   9  241.31    7.63
  -2 -11   8  448.71   17.66
  -2 -11   8  438.44   14.70
  -2 -11   7  214.65   12.19
  -2 -11   7  221.45    8.73
  -2 -11   6   36.10    6.29
  -2 -11   6   42.76    8.11
  -2 -11   5    1.15    1.08
  -2 -11   5    0.08    3.99
  -2 -11   4   20.19    6.15
  -2 -11   4   22.27    7.78
  -2 -11   3   68.11   10.55
  -2 -11   3   82.17   20.12
  -2 -11   2   55.18    8.13
  -2 -11   2   68.15   13.80
  -2 -11   1    5.05    2.52
  -2 -11   1   12.47    4.91
  -2 -11   0    4.99    1.37
  -2 -11   0   11.47    4.11
  -2 -11  -1   47.30   16.63
  -2 -11  -2   20.73    6.93
  -2 -11  -3   73.48   21.56
  -2 -11  -4   -2.52    5.51
  -2 -11  -5   19.22    8.61
  -2 -11  -6    3.93    4.99
  -2 -11  -7    5.33    4.65
   2  12 -17   49.20   11.15
  -2 -12  17   30.45    9.31
   2  12 -16   11.73    6.58
  -2 -12  16   -3.27    6.10
   2  12 -15    3.42    6.39
  -2 -12  15   13.72    5.16
   2  12 -14   52.48    9.26
  -2 -12  14   51.39   16.24
   2  12 -13   11.42    9.98
  -2 -12  13   26.25    9.93
   2  12 -12   66.33    9.89
  -2 -12  12   51.76   12.66
   2  12 -11    6.58    3.70
  -2 -12  11    2.81    6.33
   2  12 -10  180.05    8.82
  -2 -12  10  185.80    7.25
  -2 -12   9  220.00    8.04
  -2 -12   8   27.73    6.92
  -2 -12   8    7.93    6.47
  -2 -12   7  127.45   21.53
  -2 -12   7  151.26   11.71
  -2 -12   6   -2.22    4.56
  -2 -12   6    3.50    3.00
  -2 -12   5   30.28    7.10
  -2 -12   5   24.19    8.84
  -2 -12   4   -2.33    3.34
  -2 -12   4    2.64    2.70
  -2 -12   3    1.53    2.84
  -2 -12   3   -1.12    5.24
  -2 -12   2  266.97    9.80
  -2 -12   2  279.17   18.21
  -2 -12   1  265.20   22.16
  -2 -12   0    4.98    3.71
  -2 -12  -1   35.78    8.97
  -2 -12  -2    9.10    5.27
  -2 -12  -3    7.56    3.81
  -2 -12  -4   78.09   20.41
  -2 -12  -5   14.39    6.97
  -2 -12  -6    5.17    4.11
   2  13 -17    2.59    2.85
  -2 -13  17    2.89    6.21
   2  13 -16   10.96    9.49
  -2 -13  16   -7.84    6.43
   2  13 -15   -2.83    7.02
  -2 -13  15   10.36    7.30
   2  13 -14   57.32   19.49
  -2 -13  14   45.20   17.85
   2  13 -13   29.79    7.48
  -2 -13  13   31.51    9.08
   2  13 -12   25.24   11.17
  -2 -13  12   -0.37    5.74
   2  13 -11    4.07    3.74
  -2 -13  11    3.58    4.17
   2  13 -10   40.74   15.72
  -2 -13  10   43.52    9.56
  -2 -13   9   51.15    6.37
  -2 -13   9   54.02   15.73
  -2 -13   8   35.22    7.88
  -2 -13   8   44.43   10.83
  -2 -13   7  141.30   16.95
  -2 -13   7  150.77   18.55
  -2 -13   6   28.87    6.88
  -2 -13   6   20.42    9.96
  -2 -13   5   76.03   12.50
  -2 -13   5   95.48   17.86
  -2 -13   4    2.85    2.62
  -2 -13   4   -0.89    4.20
  -2 -13   3   24.75    4.50
  -2 -13   3   37.84   11.57
  -2 -13   2   -0.53    4.14
  -2 -13   1   -2.71    6.78
  -2 -13   0   37.52    9.83
  -2 -13  -1    2.20    3.86
  -2 -13  -2    4.42    2.63
  -2 -13  -3    7.67    4.38
  -2 -13  -4    6.36    5.29
   2  14 -16   14.27    6.14
  -2 -14  16   13.18    3.35
   2  14 -15    2.61    7.05
  -2 -14  15    4.78    4.54
   2  14 -14   30.03   11.22
  -2 -14  14   33.42    8.59
   2  14 -13   13.11   10.99
  -2 -14  13   14.84    8.47
   2  14 -12   -0.23    7.41
  -2 -14  12    2.59    4.90
   2  14 -11   29.81    9.83
  -2 -14  11   29.73    7.43
   2  14 -10   -2.90    6.26
  -2 -14  10    3.52    4.97
  -2 -14   9   -3.26    4.53
  -2 -14   9    4.73    4.98
  -2 -14   8    1.92    2.70
  -2 -14   8    2.06    5.02
  -2 -14   7   13.46    4.70
  -2 -14   7   10.31    5.05
  -2 -14   6   21.55    5.57
  -2 -14   6   26.12    7.33
  -2 -14   5   21.89    4.44
  -2 -14   5   19.49    6.83
  -2 -14   4   15.10    4.01
  -2 -14   4   24.02    6.84
  -2 -14   3   39.38   10.01
  -2 -14   2   -3.44    6.66
  -2 -14   1    6.66    5.67
  -2 -14   0    7.53    3.48
  -2 -14  -1    8.78    4.10
  -2 -14  -2   11.05    8.40
   2  15 -14    3.49    5.68
  -2 -15  14    4.02    4.34
   2  15 -13   23.09    7.46
  -2 -15  13   17.19    5.30
   2  15 -12   34.60   11.81
  -2 -15  12   13.97    5.05
   2  15 -11   18.05    9.64
  -2 -15  11    5.93    3.97
   2  15 -10    5.31    7.05
  -2 -15  10   15.24    4.92
  -2 -15   9   -3.02    3.91
  -2 -15   9    2.42    2.94
  -2 -15   8   20.46    7.99
  -2 -15   8   16.19    8.72
  -2 -15   7    3.57    2.40
  -2 -15   7    3.08    4.39
  -2 -15   6   -2.11    3.18
  -2 -15   6    6.44    3.68
  -2 -15   5    1.09    4.46
  -2 -15   4    4.99    3.90
  -2 -15   3   10.74    5.91
  -2 -15   2    3.38    3.28
  -2 -15   1    2.53    3.54
  -2 -15   0    9.60    4.70
   2  16 -12   13.46    4.20
  -2 -16  12   10.06    4.60
   2  16 -11   98.68   16.29
  -2 -16  11   43.02   17.00
   2  16 -10    8.83    7.73
  -2 -16  10   -0.17    2.08
  -2 -16   9    0.76    2.33
  -2 -16   9   -0.06    6.51
  -2 -16   8    3.35    1.90
  -2 -16   8   -0.60    5.30
  -2 -16   7   53.02   21.68
  -2 -16   6   14.28    7.81
  -2 -16   5   11.70    6.96
  -2 -16   4   -1.19    5.68
  -2 -16   3   13.91    8.53
   3 -18   2    4.26    2.43
   3 -18   3   -4.75    5.37
   3 -18   4    5.14    4.22
  -3  18  -5    8.78    6.21
  -3  18  -6   16.29    7.96
   3 -18   7    4.25    3.02
  -3  18  -7    6.63    4.36
   3 -18   8   14.94    6.54
  -3  18  -8   25.36    8.03
   3 -18   9    4.49    2.44
  -3  18  -9   -5.55    7.26
   3 -18  10   27.50   12.73
  -3  18 -10   41.09   15.42
   3 -17  -1   21.23    9.25
   3 -17   0   64.02   32.15
   3 -17   1    5.26    4.31
   3 -17   2   13.54    5.49
   3 -17   3   12.01    6.61
   3 -17   4    7.74    5.24
   3 -17   5    2.95    2.00
  -3  17  -5    6.04    6.67
  -3  17  -6   39.60    9.85
   3 -17   7   10.54    5.32
  -3  17  -7   14.94    6.58
   3 -17   8   -0.84    4.87
  -3  17  -8    9.88    7.19
   3 -17   9   46.77   15.99
  -3  17  -9   53.49   19.17
   3 -17  10    9.51    4.56
  -3  17 -10   12.30    6.93
   3 -17  11   57.24   21.14
  -3  17 -11   94.40   15.13
   3 -17  12    7.71    3.30
  -3  17 -12    5.70    6.69
   3 -16  -3   98.40   32.11
   3 -16  -2   63.34   18.97
   3 -16  -1   20.70    7.65
   3 -16   0   -5.12    4.67
   3 -16   1   21.88    8.06
   3 -16   2   35.51   12.35
   3 -16   3   40.22   12.12
   3 -16   3   54.60   17.15
   3 -16   4    3.90    1.54
   3 -16   4    4.03    3.61
   3 -16   5   10.37    3.48
  -3  16  -5   29.30    9.25
   3 -16   6    5.98    3.86
  -3  16  -6    9.43    8.52
  -3  16  -7   29.60   11.42
   3 -16   8   37.20   14.31
  -3  16  -8   65.24    9.53
   3 -16   9   19.72    6.35
  -3  16  -9   17.50    5.82
   3 -16  10    9.15    5.16
  -3  16 -10    9.28    7.60
   3 -16  11    8.16    7.13
  -3  16 -11   10.65    6.96
   3 -16  12    5.91    5.95
  -3  16 -12    3.59    6.82
   3 -16  13   14.18    5.54
  -3  16 -13   21.25   10.08
   3 -16  14   30.55   12.29
  -3  16 -14   43.94    9.45
   3 -15  -5   54.42   17.61
   3 -15  -4    6.73    3.97
   3 -15  -3   67.68   20.19
   3 -15  -2   11.88    5.46
   3 -15   0    5.22    4.77
   3 -15   1   70.92   21.96
   3 -15   2    2.36    1.68
   3 -15   2   -3.46    6.06
   3 -15   3  131.17   16.15
   3 -15   3  122.24   13.34
   3 -15   4    9.24    4.55
   3 -15   4    9.05    6.69
   3 -15   5    3.29    2.21
  -3  15  -5   11.42    5.84
   3 -15   6    2.94    2.21
  -3  15  -6    0.56    5.60
   3 -15   7   16.13    4.53
  -3  15  -7   10.45    8.82
   3 -15   8    1.77    3.65
  -3  15  -8   -2.09    6.44
   3 -15   9   19.15    6.93
  -3  15  -9   21.40    8.96
   3 -15  10   15.71    5.05
  -3  15 -10   18.20    9.31
   3 -15  11   19.63    7.03
  -3  15 -11    8.17    9.94
   3 -15  12    4.62    2.14
  -3  15 -12   18.27    9.99
   3 -15  13   10.85    4.79
  -3  15 -13   11.06    7.51
   3 -15  14  152.56   32.60
  -3  15 -14  220.61   13.69
   3 -15  15   49.93   16.21
  -3  15 -15   66.14   15.18
   3 -14  -7    8.35    4.04
   3 -14  -6    3.35    3.15
   3 -14  -5  135.27   23.67
   3 -14  -4    5.30    3.23
   3 -14  -3   94.66   12.00
   3 -14  -2    7.53    5.06
   3 -14  -1   36.31    9.98
   3 -14   0  119.02   25.39
   3 -14   1  151.28    5.03
   3 -14   1  154.11   14.68
   3 -14   2    2.66    2.85
   3 -14   2    3.57    4.62
   3 -14   3  159.49   16.77
   3 -14   3  143.70   16.67
   3 -14   4   33.23    6.78
   3 -14   4   33.73    8.33
   3 -14   5    5.20    2.84
  -3  14  -5   17.76    8.65
   3 -14   6    8.71    4.93
  -3  14  -6   -2.05    6.60
   3 -14   7    9.20    3.01
  -3  14  -7    4.51    7.18
   3 -14   8   45.34    8.24
  -3  14  -8   52.35   10.29
   3 -14   9    4.95    2.18
  -3  14  -9   10.00    6.49
   3 -14  10   17.91    6.38
  -3  14 -10   24.54    8.79
   3 -14  11    9.03    4.61
  -3  14 -11   20.49    9.20
   3 -14  12   28.60    7.07
  -3  14 -12   22.50    7.32
   3 -14  13    5.37    3.78
  -3  14 -13   17.04   12.49
   3 -14  14    6.19    6.42
  -3  14 -14   27.49    7.86
   3 -14  15   -8.87    5.97
  -3  14 -15    7.33    7.96
   3 -13  -8    5.52    2.93
   3 -13  -7    2.12    3.20
   3 -13  -6   10.28    5.31
   3 -13  -5    5.74    3.58
   3 -13  -4  115.89    9.79
   3 -13  -3    3.39    4.26
   3 -13  -2    4.73    4.26
   3 -13  -1  245.35   24.20
   3 -13   0    5.72    2.41
   3 -13   0   14.18    7.07
   3 -13   1  409.06    8.02
   3 -13   1  359.79    9.18
   3 -13   2    1.98    2.85
   3 -13   2   -4.66    5.76
   3 -13   3   23.98    7.05
   3 -13   3   17.91    7.48
   3 -13   4    1.50    2.46
   3 -13   4   -1.28    3.49
   3 -13   5    9.86    2.86
  -3  13  -5    6.77    6.24
   3 -13   6   12.36    4.02
  -3  13  -6   18.11    6.99
   3 -13   7   41.79    8.85
  -3  13  -7   49.72    7.99
   3 -13   8    2.60    2.58
  -3  13  -8    5.96    9.05
   3 -13   9   46.63    8.11
  -3  13  -9   40.12   14.74
   3 -13  10   -0.27    5.53
  -3  13 -10    4.54    6.70
   3 -13  11    4.39    4.21
  -3  13 -11   -2.56    7.01
   3 -13  12   29.08    7.46
  -3  13 -12   30.69    8.18
   3 -13  13   12.57    4.79
  -3  13 -13    6.86    7.90
   3 -13  14    9.76    4.22
  -3  13 -14    6.40    6.69
   3 -13  15    6.28    5.35
  -3  13 -15   -7.81    7.45
   3 -12 -10    0.12    2.24
   3 -12  -9   13.66    4.89
   3 -12  -8   -0.34    4.21
   3 -12  -7    3.36    3.72
   3 -12  -6  116.75   16.59
   3 -12  -5   11.61    3.91
   3 -12  -4    6.90    5.03
   3 -12  -3   28.49   10.32
   3 -12  -2   15.81    7.63
  -3  12   2    4.32    2.00
   3 -12  -1   -3.34    4.48
  -3  12   1    2.98    1.69
   3 -12   0   62.53    7.83
   3 -12   0   71.36   17.74
   3 -12   1   10.87    4.29
   3 -12   1   11.78    6.87
   3 -12   2    5.34    2.71
   3 -12   2    6.28    3.16
   3 -12   3   32.86    6.34
   3 -12   3   32.48    9.37
   3 -12   4    6.17    2.85
   3 -12   5  110.66   19.15
  -3  12  -5  112.76    8.79
   3 -12   6   21.27    4.47
  -3  12  -6   20.30    8.16
   3 -12   7   16.13    4.64
  -3  12  -7    7.41    6.31
   3 -12   8   13.00    5.50
  -3  12  -8   -0.76    5.90
   3 -12   9    4.76    5.30
  -3  12  -9   11.40    8.51
   3 -12  10    4.56    1.58
  -3  12 -10    7.88    4.59
   3 -12  11   14.94    5.41
  -3  12 -11   24.91   10.91
   3 -12  12    4.18    2.93
  -3  12 -12   -1.57    7.83
   3 -12  13    2.61    2.27
  -3  12 -13    0.58    7.86
   3 -12  14    6.59    6.00
  -3  12 -14    4.22    6.07
   3 -12  15   27.05    5.73
  -3  12 -15   41.33   10.18
   3 -12  16   46.95   12.86
  -3  12 -16   35.24   10.49
   3 -12  17    6.55    3.97
  -3  12 -17    2.48    7.01
   3 -11 -11    2.48    2.69
   3 -11 -10    3.57    1.73
   3 -11  -9    5.55    3.71
   3 -11  -8    7.51    5.02
   3 -11  -7   65.83    8.54
   3 -11  -6    0.39    2.43
   3 -11  -5   24.65    6.47
   3 -11  -4  227.11    8.11
   3 -11  -3  382.11   21.19
   3 -11  -2  256.83   17.02
  -3  11   2  239.95   11.76
   3 -11  -1   84.19    8.95
  -3  11   1   72.95    2.22
   3 -11   0  183.81    4.62
   3 -11   0  180.99   12.33
  -3  11   0  171.64    3.67
   3 -11   1   -2.01    2.77
   3 -11   1   10.11    4.92
   3 -11   2   19.64    4.65
   3 -11   2   15.74    5.19
   3 -11   3    6.60    3.15
   3 -11   3    2.08    4.40
   3 -11   4    4.38    5.07
  -3  11  -4    3.19    5.04
   3 -11   5   16.60    4.20
  -3  11  -5    5.97    5.12
   3 -11   6   31.00    6.42
  -3  11  -6   34.66    6.81
   3 -11   7   15.41    4.78
  -3  11  -7    8.12    6.15
   3 -11   8   52.10   10.05
  -3  11  -8   47.41    7.36
   3 -11   9    2.14    5.61
  -3  11  -9   -1.55    6.34
   3 -11  10    2.89    3.08
  -3  11 -10    2.63    5.93
   3 -11  11  114.52   17.79
  -3  11 -11   87.80   23.13
   3 -11  12  239.71   11.08
  -3  11 -12  257.36   12.20
   3 -11  13   28.55    6.86
  -3  11 -13   22.23    7.12
   3 -11  14    5.60    3.83
  -3  11 -14    0.84    7.07
   3 -11  15    9.50    5.47
  -3  11 -15   -8.42    7.95
   3 -11  16   -6.66    6.71
  -3  11 -16    1.37    3.13
   3 -11  17   14.41    7.96
  -3  11 -17   21.17   11.62
   3 -10 -12   11.06    4.07
   3 -10 -11    4.05    3.10
   3 -10 -10   -1.64    3.82
   3 -10  -9    5.30    3.56
   3 -10  -8    2.22    2.16
   3 -10  -7   10.99    6.34
   3 -10  -6   56.07   17.61
   3 -10  -5  374.56   12.92
   3 -10  -4  566.68    8.78
   3 -10  -3  239.93    8.64
  -3  10   3  210.31    2.67
  -3  10   3  226.22    5.37
   3 -10  -2  246.65    9.85
  -3  10   2  257.94    8.75
  -3  10   2  238.63    6.55
   3 -10  -1  364.49   10.51
   3 -10  -1  351.92   12.24
  -3  10   1  326.02    8.89
   3 -10   0    6.66    2.26
   3 -10   0    4.29    4.11
  -3  10   0    2.85    1.64
   3 -10   1   12.47    3.05
   3 -10   1   13.12    4.77
  -3  10  -1   10.03    2.48
   3 -10   2    2.15    3.32
   3 -10   2    5.98    4.36
   3 -10   3    4.79    1.61
   3 -10   3   -0.08    4.02
   3 -10   4   45.07    8.16
  -3  10  -4   42.98    5.94
   3 -10   5   11.24    3.70
  -3  10  -5   15.40    5.57
   3 -10   6    8.48    3.29
  -3  10  -6    6.12    2.99
   3 -10   7   22.88    6.03
  -3  10  -7   17.17    5.92
   3 -10   8   55.58   15.02
  -3  10  -8   56.59   14.35
   3 -10   9    7.25    3.08
  -3  10  -9   -0.43    6.35
   3 -10  10  105.28   22.17
  -3  10 -10  101.00   10.42
   3 -10  11   17.62    5.33
  -3  10 -11   18.21    6.39
   3 -10  12   25.93    8.90
  -3  10 -12   34.02    9.61
   3 -10  13  289.87   10.32
  -3  10 -13  276.13   12.62
   3 -10  14   89.36   15.27
  -3  10 -14   86.39   28.31
   3 -10  15   13.01    5.10
  -3  10 -15   27.15   10.69
   3 -10  16   98.54   26.84
  -3  10 -16  129.20   24.72
   3 -10  17    5.55    4.68
  -3  10 -17    5.26    5.58
   3  -9 -13    0.08    2.14
   3  -9 -12    3.46    1.39
   3  -9 -10    2.25    3.02
   3  -9  -9    8.72    4.12
   3  -9  -8    1.55    4.36
   3  -9  -7    9.54    4.90
   3  -9  -6   78.19    9.68
   3  -9  -5  495.12   11.65
   3  -9  -4  189.99   17.05
   3  -9  -3    5.62    2.90
  -3   9   3    3.65    1.86
  -3   9   3    1.78    1.35
   3  -9  -2   10.56    4.89
  -3   9   2    9.93    2.26
   3  -9  -1    3.79    2.08
   3  -9  -1    2.29    2.89
  -3   9   1    4.56    2.17
   3  -9   0  128.88   10.78
   3  -9   0  112.64   11.69
  -3   9   0  115.36    2.50
   3  -9   1    1.27    2.22
   3  -9   1   -0.81    3.21
  -3   9  -1    0.89    0.82
   3  -9   2   -1.28    2.78
   3  -9   2   -0.27    3.14
   3  -9   3    3.77    0.94
  -3   9  -3    3.19    4.58
   3  -9   4   72.38    3.61
  -3   9  -4   73.78    6.21
   3  -9   5  420.50   11.81
  -3   9  -5  406.11   12.81
   3  -9   6    7.05    3.11
  -3   9  -6   -1.84    4.26
   3  -9   7  122.74   13.27
  -3   9  -7  128.99   13.95
   3  -9   8   58.62    9.94
  -3   9  -8   44.07    6.72
   3  -9   9    2.22    2.40
  -3   9  -9   -4.54    5.47
   3  -9  10  168.91   11.08
  -3   9 -10  172.06   21.39
   3  -9  11   16.56    3.90
  -3   9 -11   18.23    8.67
   3  -9  12  248.46    9.01
  -3   9 -12  249.88   10.59
   3  -9  13  172.01   15.76
  -3   9 -13  159.12   35.76
   3  -9  14    5.51    3.76
  -3   9 -14    0.41    4.64
   3  -9  15   10.06    5.73
  -3   9 -15    7.00    7.33
   3  -9  16   78.18   29.14
  -3   9 -16   70.24   29.49
   3  -9  17    1.11    4.93
  -3   9 -17    3.72    7.83
   3  -8 -14   -0.75    3.69
   3  -8 -13   34.22   14.12
   3  -8 -12    1.76    4.68
   3  -8 -11   11.18    5.73
   3  -8 -10  167.92   11.74
   3  -8  -9    7.38    3.52
   3  -8  -8   10.10    5.14
   3  -8  -7    5.25    3.08
   3  -8  -6   25.31    6.44
   3  -8  -5   38.04   11.34
   3  -8  -4  175.95   13.83
  -3   8   4  170.82    2.31
   3  -8  -3    2.68    1.58
  -3   8   3    2.78    1.90
  -3   8   3    1.88    1.26
   3  -8  -2  364.32   12.43
  -3   8   2  400.02   10.17
  -3   8   2  380.31    9.36
   3  -8  -1   91.96    5.26
   3  -8  -1   92.45   11.09
  -3   8   1   98.14    5.30
   3  -8   0  141.32    5.71
   3  -8   0  143.60   11.54
  -3   8   0  139.47    3.78
   3  -8   1  109.68    3.75
   3  -8   1   96.14    5.59
  -3   8  -1  113.76    2.45
   3  -8   2   45.55    9.71
   3  -8   2   41.83   10.25
  -3   8  -2   41.81    3.63
   3  -8   3  769.41   11.50
  -3   8  -3  745.19   11.35
   3  -8   4  154.84    5.42
  -3   8  -4  158.37   11.80
   3  -8   5  114.30   10.02
  -3   8  -5  113.45    5.91
   3  -8   6   58.72   11.33
  -3   8  -6   46.69    5.81
   3  -8   7    8.02    4.28
  -3   8  -7    2.22    4.57
   3  -8   8   -1.50    4.29
  -3   8  -8   -0.74    4.79
   3  -8   9  101.78   13.75
  -3   8  -9  100.16    6.50
   3  -8  10  292.31   10.89
  -3   8 -10  278.47   10.89
   3  -8  11   78.24   16.12
  -3   8 -11   71.12   19.10
   3  -8  12   16.76    7.22
  -3   8 -12   13.50    3.82
   3  -8  13    8.70    6.46
  -3   8 -13    6.64    7.13
   3  -8  14    1.69    3.31
  -3   8 -14    3.94   10.47
   3  -8  15   -4.06    6.48
  -3   8 -15    5.92    8.11
   3  -8  16    4.28    3.59
  -3   8 -16    5.35    8.40
   3  -8  17   14.64    8.15
  -3   8 -17   20.82    9.43
   3  -7 -14    1.01    2.14
   3  -7 -13   99.94    6.33
   3  -7 -12    4.61    3.97
   3  -7 -11   -1.22    4.02
   3  -7 -10   43.29   15.92
   3  -7  -9   90.26   14.51
   3  -7  -8   34.81    9.29
   3  -7  -7   15.04    4.46
   3  -7  -6   66.36    4.88
   3  -7  -5   15.30    3.91
  -3   7   5    5.57    1.35
  -3   7   5    8.58    1.43
   3  -7  -4   68.55    8.32
  -3   7   4   67.14    4.48
  -3   7   4   64.63    1.79
  -3   7   4   56.56    4.96
   3  -7  -3    3.05    1.47
  -3   7   3    3.01    1.67
  -3   7   3    3.75    0.78
  -3   7   3    5.24    2.04
   3  -7  -2    2.40    2.91
  -3   7   2    3.36    1.67
  -3   7   2    7.95    2.11
  -3   7   2    5.51    2.27
   3  -7  -1   72.75    3.49
   3  -7  -1   70.34    8.53
  -3   7   1   79.55    1.98
  -3   7   1   71.35    2.92
   3  -7   0   62.64    8.61
   3  -7   0   46.51    7.77
  -3   7   0   65.82    4.13
  -3   7   0   61.80    5.79
   3  -7   1   11.78    4.81
   3  -7   1    6.81    4.66
  -3   7  -1   12.35    3.47
  -3   7  -1    2.35    1.70
   3  -7   2   13.74    4.69
  -3   7  -2    8.98    3.08
  -3   7  -2   16.36    5.18
  -3   7  -2   10.19    3.67
   3  -7   3 3452.09   37.32
  -3   7  -3 3455.13   37.72
   3  -7   4 3545.69   41.07
  -3   7  -4 3668.75   11.82
   3  -7   5   -3.22    3.81
  -3   7  -5   -3.01    4.48
   3  -7   6    6.32    2.43
  -3   7  -6    2.81    3.24
   3  -7   7   43.30   12.90
  -3   7  -7   37.71    9.42
   3  -7   8    6.59    2.87
  -3   7  -8   20.01    7.56
   3  -7   9    2.78    3.30
  -3   7  -9   -2.90    5.51
   3  -7  10   47.12    9.64
  -3   7 -10   37.16    5.96
   3  -7  11   -5.18    5.82
  -3   7 -11    8.46    7.25
   3  -7  12   16.30    4.07
  -3   7 -12    5.37    5.59
   3  -7  13   38.82    7.57
  -3   7 -13   31.25    8.65
   3  -7  14   65.84   12.46
  -3   7 -14   62.69   17.45
   3  -7  15   90.58   27.97
  -3   7 -15  130.46   11.56
   3  -7  16   13.24    7.56
  -3   7 -16   15.79    8.48
   3  -7  17   15.47    7.59
  -3   7 -17    7.93    7.93
   3  -6 -15   33.12    7.58
   3  -6 -14   11.34    4.19
   3  -6 -12   -0.45    4.21
   3  -6 -11  111.69    6.65
   3  -6 -10  392.52   10.83
   3  -6  -9   -3.27    3.11
   3  -6  -9    0.81    0.85
  -3   6   9   -0.02    0.83
   3  -6  -8  310.31   10.22
   3  -6  -8  288.32    7.61
  -3   6   8  291.80    6.77
   3  -6  -7  355.89   13.44
   3  -6  -7  355.72    9.35
  -3   6   7  358.37    9.49
   3  -6  -6   16.99    4.26
  -3   6   6    8.73    2.04
  -3   6   6   13.77    1.90
  -3   6   6   13.68    2.25
   3  -6  -5    2.58    2.49
  -3   6   5   10.57    2.30
  -3   6   5   13.27    2.92
  -3   6   5   14.50    2.89
   3  -6  -4  165.78   14.62
  -3   6   4  155.32    4.44
  -3   6   4  153.26    4.43
  -3   6   4  141.02    6.76
   3  -6  -3  201.81    9.36
  -3   6   3  201.01    6.56
  -3   6   3  191.49    5.83
  -3   6   3  193.90    6.89
   3  -6  -2   52.69    6.05
  -3   6   2   49.18    5.64
  -3   6   2   46.62    2.99
  -3   6   2   49.24    5.96
   3  -6  -1  174.25    9.69
  -3   6   1  166.75    5.57
  -3   6   1  168.60    8.08
   3  -6   0  248.80   13.94
   3  -6   0  210.31    7.66
  -3   6   0  209.51    6.52
  -3   6   0  206.29    6.57
   3  -6   1  399.07   11.89
  -3   6  -1  391.76   11.20
  -3   6  -1  395.75   11.41
   3  -6   2   71.08   12.96
  -3   6  -2   61.73    3.74
  -3   6  -2   54.96    6.46
  -3   6  -2   69.29   11.18
   3  -6   3 1873.77   30.37
  -3   6  -3 1803.02   28.49
  -3   6  -3 1824.07   28.80
  -3   6  -3 1860.29   29.98
  -3   6  -4 2992.37   32.59
   3  -6   5  119.14    5.81
  -3   6  -5  115.36    6.57
   3  -6   6 1606.60   21.71
  -3   6  -6 1586.71   21.95
   3  -6   7   27.42    6.99
  -3   6  -7   17.61    4.37
   3  -6   8   47.20   10.45
  -3   6  -8   42.99    6.69
   3  -6   9  220.49   14.18
  -3   6  -9  174.30    7.22
   3  -6  10   19.27    4.34
  -3   6 -10   10.26    5.90
   3  -6  11   11.82    5.30
  -3   6 -11   23.38    9.17
   3  -6  12   72.74   14.59
  -3   6 -12   63.54   14.92
   3  -6  13    9.25    5.16
  -3   6 -13   16.13    6.98
   3  -6  14   -0.85    4.24
  -3   6 -14  -12.70    8.45
   3  -6  15    7.98    4.20
  -3   6 -15    0.84    4.28
   3  -6  16   36.36   14.24
  -3   6 -16   49.55   12.79
   3  -6  17    2.12    3.12
  -3   6 -17    4.50    4.74
   3  -5 -16   42.26   20.02
   3  -5 -15   52.99   11.54
   3  -5 -14    0.65    2.20
   3  -5 -13  360.83    9.81
   3  -5 -12    6.67    3.51
   3  -5 -11   58.23   16.51
  -3   5  11   55.90    9.50
   3  -5 -10 1640.62   49.06
   3  -5 -10 1472.34   40.62
  -3   5  10 1596.41   43.96
   3  -5  -9    4.41    4.83
   3  -5  -9    3.31    2.22
  -3   5   9    0.79    1.08
   3  -5  -8  108.15   12.55
   3  -5  -8   84.28    5.74
  -3   5   8   98.46    4.54
   3  -5  -7  131.60    6.32
   3  -5  -7  135.32    9.55
  -3   5   7  125.38    7.80
  -3   5   7  113.65    4.14
   3  -5  -6    1.86    3.64
   3  -5  -6    1.93    1.16
  -3   5   6   -0.45    1.23
  -3   5   6    3.94    2.20
   3  -5  -5   14.55    4.91
   3  -5  -5    3.21    1.51
  -3   5   5    7.02    2.31
  -3   5   5   13.18    2.50
   3  -5  -4   12.68    3.73
   3  -5  -4    9.00    2.45
  -3   5   4    4.56    1.84
  -3   5   4   13.01    3.10
   3  -5  -3  220.49    6.91
  -3   5   3  224.22    7.20
  -3   5   3  222.33    7.52
  -3   5   3  229.87    6.82
   3  -5  -2  141.96    7.98
  -3   5   2  160.19    9.45
  -3   5   2  160.01    4.92
  -3   5   2  159.78    5.08
   3  -5  -1   62.64    8.17
  -3   5   1   65.22    8.04
  -3   5   1   62.57    3.51
  -3   5   1   59.97    5.09
   3  -5   0   12.44    4.26
   3  -5   0   12.94    4.83
  -3   5   0   16.41    6.01
  -3   5   0   12.25    3.83
   3  -5   1   23.60    7.87
  -3   5  -1   23.31    6.32
  -3   5  -1   24.00    7.70
  -3   5  -1   14.91    6.29
   3  -5   2  377.63    9.98
  -3   5  -2  375.71   11.52
  -3   5  -2  368.68    8.29
  -3   5  -2  351.07    9.23
   3  -5   3  599.19   16.04
   3  -5   3  543.51    9.62
  -3   5  -3  573.43   12.36
  -3   5  -3  569.08   10.34
   3  -5   4  412.21   12.54
   3  -5   4  420.21    4.75
  -3   5  -4  453.95    9.53
  -3   5  -4  430.30    4.97
   3  -5   5  300.42   10.86
  -3   5  -5  285.40    9.59
   3  -5   6   96.69    5.00
  -3   5  -6  103.64    5.82
   3  -5   7   48.64   15.21
  -3   5  -7   42.41    5.72
   3  -5   8  752.05   19.54
  -3   5  -8  694.39   23.48
   3  -5   9   77.23   16.80
  -3   5  -9   61.50   20.00
   3  -5  10    4.04    3.69
  -3   5 -10   14.01    7.00
   3  -5  11   -3.51    5.83
  -3   5 -11    4.34    6.88
  -3   5 -12  102.37    9.47
   3  -5  13    5.35    4.15
  -3   5 -13   -5.10    6.51
   3  -5  14   14.70    5.42
  -3   5 -14   18.01    9.10
   3  -5  15    2.11    3.72
  -3   5 -15   10.71    8.80
   3  -5  16    2.31    4.42
  -3   5 -16   13.08    8.09
   3  -5  17   -0.69    5.02
  -3   5 -17   -0.57    7.47
   3  -4 -16    9.43    4.05
   3  -4 -15   37.19   23.50
   3  -4 -14   -0.17    4.88
   3  -4 -13    4.47    3.27
   3  -4 -12    1.66    2.49
  -3   4  12    0.47    1.73
   3  -4 -11   68.53    7.52
  -3   4  11   76.30    9.20
   3  -4 -10  237.09   15.03
   3  -4 -10  217.28    3.97
  -3   4  10  251.61   10.81
   3  -4  -9   -2.16    3.06
   3  -4  -9   -0.05    1.42
  -3   4   9    3.82    2.49
   3  -4  -8  290.23    9.93
   3  -4  -8  263.82    7.02
  -3   4   8  278.20    8.67
   3  -4  -7  131.15    7.69
   3  -4  -7  120.96    5.40
  -3   4   7  136.27    7.90
  -3   4   7  117.28    3.51
   3  -4  -6 1192.53   16.05
   3  -4  -6 1172.61   15.53
  -3   4   6 1204.98   15.77
  -3   4   6 1175.75   15.86
   3  -4  -5   66.86    3.55
   3  -4  -5   81.10    6.57
  -3   4   5   64.55    8.39
  -3   4   5   71.76    2.86
   3  -4  -4   15.30    4.73
   3  -4  -4   11.13    4.66
  -3   4   4   14.63    5.68
  -3   4   4   20.60    3.58
   3  -4  -3   11.85    3.33
   3  -4  -3   10.68    3.65
  -3   4   3    8.92    3.28
  -3   4   3   12.54    3.68
   3  -4  -2    7.40    3.75
  -3   4   2    1.98    2.30
  -3   4   2    7.95    3.77
  -3   4   2   12.43    3.29
   3  -4  -1   -0.59    1.58
  -3   4   1   -0.82    2.85
  -3   4   1   -0.97    2.27
  -3   4   1   -2.07    1.41
   3  -4   0   -0.26    2.96
  -3   4   0    2.76    2.06
  -3   4   0    5.39    3.44
  -3   4   0   -1.48    2.31
   3  -4   1  533.44   11.25
  -3   4  -1  532.85   11.63
  -3   4  -1  531.26   11.31
   3  -4   2  143.40    6.87
   3  -4   2  146.63    6.65
  -3   4  -2  151.45    8.17
  -3   4  -2  156.39    7.36
   3  -4   3   62.40    7.82
   3  -4   3   60.94    5.01
  -3   4  -3   63.00    5.85
  -3   4  -3   67.06    4.88
   3  -4   4  870.64   14.85
  -3   4  -4  856.87   14.02
  -3   4  -4  846.24   14.76
   3  -4   5  840.95   14.24
  -3   4  -5  816.29   14.71
   3  -4   6  172.32    6.89
  -3   4  -6  188.05   11.38
   3  -4   7  106.56    4.98
  -3   4  -7  102.66    5.75
   3  -4   8   -1.13    4.58
  -3   4  -8    0.30    3.03
   3  -4   9   21.79    5.48
  -3   4  -9   10.50    5.65
   3  -4  10   -3.46    4.61
  -3   4 -10    2.70    5.61
   3  -4  11   -0.01    5.19
  -3   4 -11   -2.10    6.23
   3  -4  12   18.61    6.38
  -3   4 -12    9.15    6.97
   3  -4  13   -1.44    3.72
  -3   4 -13   -4.78    7.36
   3  -4  14   -2.15    3.48
  -3   4 -14   -0.37    8.94
   3  -4  15   10.30    5.29
  -3   4 -15    2.70    7.56
   3  -4  16   32.81   13.49
  -3   4 -16   45.13   14.90
   3  -4  17   16.04    6.88
  -3   4 -17   25.43    8.36
   3  -3 -17    0.58    2.44
   3  -3 -16   29.77   13.47
   3  -3 -15    8.77    5.90
   3  -3 -14   48.01   15.60
  -3   3  14   44.82   11.36
   3  -3 -13   63.51    7.12
  -3   3  13   78.20    4.22
   3  -3 -12  104.37   16.03
  -3   3  12  107.27   16.89
   3  -3 -10    3.43    4.99
   3  -3 -10   -1.20    1.52
  -3   3  10    1.48    2.15
   3  -3  -9   46.36    9.29
   3  -3  -9   48.21    5.11
  -3   3   9   55.38    8.84
   3  -3  -8  234.85    9.95
   3  -3  -8  223.78    9.46
  -3   3   8  239.98    5.90
  -3   3   8  217.48    9.20
   3  -3  -7  948.21   13.14
   3  -3  -7  969.54   13.67
  -3   3   7  943.17   12.63
   3  -3  -6    1.51    1.39
   3  -3  -6    3.72    2.28
  -3   3   6    5.44    2.71
  -3   3   6    7.04    2.46
   3  -3  -5   26.48    5.95
   3  -3  -5    9.45    3.21
  -3   3   5   19.08    5.72
  -3   3   5   35.35    6.16
   3  -3  -4    7.61    2.99
   3  -3  -4    4.40    1.91
  -3   3   4    1.84    2.59
  -3   3   4    5.38    1.88
   3  -3  -3   30.11    6.73
   3  -3  -3   16.67    3.32
  -3   3   3   13.29    3.87
  -3   3   3   29.63    4.38
   3  -3  -2  417.28    8.61
   3  -3  -2  417.65    9.29
  -3   3   2  403.56    9.24
  -3   3   2  416.00    8.58
  -3   3   1  174.46    8.50
  -3   3   1  163.03    7.15
  -3   3   1  180.17    7.90
   3  -3   0   -1.79    2.09
  -3   3   0    4.91    3.23
  -3   3   0    4.40    3.15
  -3   3   0    1.20    4.58
   3  -3   1  418.91    9.64
   3  -3   1  420.21    9.19
  -3   3  -1  405.37    9.17
  -3   3  -1  413.96    9.57
   3  -3   2   70.49    4.58
  -3   3  -2   74.10    8.49
  -3   3  -2   70.72    4.73
   3  -3   3   17.90    7.37
  -3   3  -3   16.69    4.88
  -3   3  -3    6.36    5.07
   3  -3   4  507.48   10.14
  -3   3  -4  516.53    9.00
  -3   3  -4  523.44   17.45
   3  -3   5  205.52    7.59
  -3   3  -5  198.95    6.94
  -3   3  -5  205.99    7.92
   3  -3   6  278.66    8.84
  -3   3  -6  273.30    9.32
   3  -3   7   50.02   14.80
  -3   3  -7   39.13    5.79
   3  -3   8   13.85    4.78
  -3   3  -8   12.93    4.57
   3  -3   9    9.71    4.75
  -3   3  -9   -7.86    5.68
   3  -3  10   96.09   17.24
  -3   3 -10   97.30    8.18
   3  -3  11   85.06   22.42
  -3   3 -11   96.52   23.48
   3  -3  12   23.77    6.30
  -3   3 -12   34.41    9.08
   3  -3  13    3.83    3.97
  -3   3 -13    8.94    2.70
   3  -3  14   -0.82    3.36
  -3   3 -14    4.23    8.50
   3  -3  15   58.66   24.78
  -3   3 -15   80.18   12.67
   3  -3  16   -0.30    2.94
  -3   3 -16   -0.68    7.13
  -3   3 -17   19.06   10.45
   3  -2 -16    6.28    3.27
   3  -2 -15   25.25    7.07
  -3   2  15   27.41    7.59
   3  -2 -14   13.46    5.92
  -3   2  14   11.68    3.85
   3  -2 -13   65.81    8.06
  -3   2  13   66.41   14.06
   3  -2 -12   96.71    7.26
  -3   2  12  100.30    6.25
   3  -2 -11  106.69    6.13
  -3   2  11  101.88    4.82
   3  -2 -10  154.33    6.98
  -3   2  10  137.39    5.64
   3  -2  -9  178.10    8.11
   3  -2  -9  174.15    6.88
  -3   2   9  178.14    7.71
  -3   2   9  176.09    7.58
   3  -2  -8   10.97    5.10
   3  -2  -8    6.77    2.09
  -3   2   8    6.77    3.36
  -3   2   8    5.34    2.07
   3  -2  -7    1.43    2.17
   3  -2  -7    1.37    1.35
  -3   2   7    5.88    2.68
  -3   2   7    1.44    1.87
   3  -2  -6   43.61    7.19
   3  -2  -6   54.36   10.39
  -3   2   6   32.08    9.24
  -3   2   6   46.57    2.20
   3  -2  -5  113.89    5.34
   3  -2  -5  110.73    5.33
  -3   2   5  115.37    6.77
  -3   2   5  116.24    5.37
   3  -2  -4  419.56    8.93
   3  -2  -4  406.91    8.87
  -3   2   4  439.88   12.74
  -3   2   4  395.48    8.46
   3  -2  -3   32.29    4.49
   3  -2  -3   28.53    2.80
  -3   2   3   40.14    5.40
   3  -2  -2  703.54   13.06
  -3   2   2  713.69    8.73
   3  -2  -1  683.90    5.79
  -3   2   1  674.06   83.69
  -3   2   1  680.94    8.86
   3  -2   0  325.45    7.32
  -3   2   0  322.84    7.55
  -3   2   0  313.80    7.31
  -3   2   0  337.04    8.44
   3  -2   1  729.18    7.47
   3  -2   1  715.78    6.78
  -3   2  -1  712.92    6.70
   3  -2   2  987.20    8.85
   3  -2   2 1022.45    9.04
  -3   2  -2 1015.40   10.46
   3  -2   3  537.71   11.81
  -3   2  -3  566.20   12.54
  -3   2  -3  544.69   13.39
   3  -2   4   47.32    4.81
   3  -2   4   49.33    3.98
  -3   2  -4   57.67   17.39
  -3   2  -4   48.14    3.23
   3  -2   5  248.31    5.02
  -3   2  -5  258.01    7.73
  -3   2  -5  232.20    8.76
   3  -2   6  238.10    8.25
  -3   2  -6  215.78    7.06
  -3   2  -6  197.41   10.53
   3  -2   7   68.65   13.86
  -3   2  -7   58.98    8.64
   3  -2   8   60.28   14.36
  -3   2  -8   75.18    7.60
   3  -2   9   43.63   11.65
  -3   2  -9   46.57   11.46
   3  -2  10   51.62   14.38
  -3   2 -10   44.74    8.99
   3  -2  11    2.40    3.08
  -3   2 -11   -2.84    6.30
   3  -2  12   22.67    6.36
   3  -2  13   45.17   13.20
  -3   2 -13   48.16   18.45
   3  -2  14    3.51    4.29
  -3   2 -14    3.12    7.32
   3  -2  15    6.21    3.40
  -3   2 -15    5.34    4.30
  -3   2 -16    6.46    7.81
   3  -1 -18    8.98    3.28
   3  -1 -17   60.77   25.13
   3  -1 -16    8.45    4.61
  -3   1  16   10.31    4.33
   3  -1 -15  104.09   10.32
  -3   1  15   87.89   14.10
   3  -1 -14  131.07   14.27
  -3   1  14  125.73    6.12
   3  -1 -13  123.67   25.45
  -3   1  13  135.07   14.62
   3  -1 -12  297.10   15.79
  -3   1  12  310.67    8.25
   3  -1 -11   68.54    6.10
  -3   1  11   60.94   10.88
   3  -1 -10   -1.49    3.55
  -3   1  10   -0.58    3.44
   3  -1  -9   -0.53    3.46
   3  -1  -9    1.74    2.23
  -3   1   9   -0.86    3.10
  -3   1   9    0.87    1.94
   3  -1  -8  216.77    7.18
   3  -1  -8  207.51    5.98
  -3   1   8  227.81    8.80
  -3   1   8  221.75    3.72
   3  -1  -7  202.90    8.92
   3  -1  -7  188.87    6.82
  -3   1   7  207.36    7.92
  -3   1   7  193.76    6.34
   3  -1  -6   33.06    3.86
   3  -1  -6   22.91    7.97
  -3   1   6   34.24   11.00
  -3   1   6   35.20    2.40
   3  -1  -5    0.34    1.75
   3  -1  -5   -2.07    2.41
  -3   1   5   -2.18    3.81
  -3   1   5   -1.20    1.46
   3  -1  -4   36.15    7.07
   3  -1  -4   32.92    5.00
  -3   1   4   26.73   14.93
  -3   1   4   32.54    5.18
   3  -1  -3   13.32    2.81
   3  -1  -3    9.20    3.17
  -3   1   3   28.10    9.43
   3  -1  -2    2.82    2.73
  -3   1   2    3.82    4.91
  -3   1   2    1.92    1.15
   3  -1  -1  247.66    7.94
   3  -1  -1  254.90    7.04
  -3   1   1  255.23    7.96
  -3   1   1  245.36    6.47
   3  -1   2   -1.73    4.84
  -3   1  -2    3.50    2.82
  -3   1  -2  -11.95    7.13
   3  -1   3 1916.70   18.50
   3  -1   3 1955.64   15.51
  -3   1  -3 1921.74   14.46
   3  -1   4  134.78    6.16
  -3   1  -4  130.39    7.85
  -3   1  -4  132.66    8.68
  -3   1  -5  964.15   11.15
  -3   1  -5  945.86   12.51
   3  -1   6  122.17    9.29
  -3   1  -6  105.70    2.84
  -3   1  -6  117.22    5.80
   3  -1   7   20.52    5.89
  -3   1  -7   35.36    8.08
   3  -1   8  445.58   12.61
  -3   1  -8  453.83   13.71
   3  -1   9  130.22   12.85
  -3   1  -9  127.75    9.91
   3  -1  10    6.50    3.87
  -3   1 -10   20.12    6.95
   3  -1  11   25.70    5.40
  -3   1 -11   22.56    6.63
   3  -1  12  144.80   15.70
  -3   1 -12  120.12   20.41
   3  -1  13   29.96    8.40
  -3   1 -13   21.35    6.83
   3  -1  14   12.88    5.96
  -3   1 -14   13.59    5.86
  -3   1 -15    5.36    6.86
  -3   1 -16    1.08    4.02
   3   0 -18   13.02    6.59
   3   0 -17    7.39    2.65
  -3   0  17   12.55    6.17
   3   0 -16    7.55    5.92
  -3   0  16   11.50    4.59
   3   0 -15   22.94    6.07
  -3   0  15   20.63    5.34
   3   0 -14    6.77    5.74
  -3   0  14    3.58    2.69
   3   0 -13   47.51   15.85
  -3   0  13   62.48   14.10
   3   0 -12   13.49    5.54
  -3   0  12   11.43    4.93
   3   0 -11    5.67    6.12
  -3   0  11    1.50    3.63
   3   0 -10   -2.93    3.67
  -3   0  10   -0.26    3.63
   3   0  -9    6.60    5.12
  -3   0   9   -0.78    3.62
  -3   0   9    5.27    1.87
   3   0  -8  346.18   12.95
   3   0  -8  320.22    9.64
  -3   0   8  346.61   11.12
  -3   0   8  324.00    9.32
   3   0  -7   11.49    4.06
   3   0  -7    6.61    3.52
  -3   0   7    9.31    3.44
  -3   0   7   10.38    3.76
   3   0  -6  285.94    8.68
   3   0  -6  276.85    9.15
  -3   0   6  291.31   10.45
  -3   0   6  283.14    8.11
   3   0  -5   62.21    3.98
   3   0  -5   66.18    9.38
  -3   0   5   58.97   15.92
  -3   0   5   63.02    3.48
   3   0  -4   11.59    5.09
   3   0  -4   18.32    8.18
  -3   0   4   14.36    6.95
   3   0  -3  151.07    9.58
   3   0  -3  146.96    8.10
  -3   0   3  163.70   17.52
  -3   0   3  142.60    8.69
   3   0  -2   28.27    6.23
   3   0  -2   19.47    3.69
  -3   0   2   36.98    7.70
  -3   0   2   25.63    7.22
   3   0  -1 6030.12   42.67
   3   0   0    2.20    3.12
   3   0   0    5.93    4.61
  -3   0   0   17.90    5.30
   3   0   2 2542.82   19.62
  -3   0  -2 2434.33   19.33
  -3   0  -2 2440.48   18.45
   3   0   3  216.81    9.93
  -3   0  -3  224.41    9.79
  -3   0  -3  208.71    6.44
   3   0   4  312.76    9.80
  -3   0  -4  310.83   12.02
  -3   0  -4  300.77   10.61
   3   0   5  242.75    8.78
  -3   0  -5  225.04    7.28
  -3   0  -5  231.10    9.05
   3   0   6  128.11    6.08
  -3   0  -6  104.78    6.72
  -3   0  -6  123.80   16.23
   3   0   7   58.06    4.84
  -3   0  -7   54.66    3.36
  -3   0  -7   55.15   13.42
   3   0   8   59.77    5.28
  -3   0  -8   55.75   16.81
   3   0   9  263.92    9.18
  -3   0  -9  270.56   11.66
   3   0  10   53.65   13.66
  -3   0 -10   51.42   12.01
   3   0  11    4.60    3.27
  -3   0 -11   -7.29    6.58
   3   0  12   42.86   13.88
  -3   0 -12   53.63   15.53
   3   0  13    6.68    4.30
  -3   0 -13   14.16    9.36
  -3   0 -14    5.70    2.67
  -3   0 -15   15.74   10.37
   3   1 -19    2.71    3.98
   3   1 -18    7.15    3.72
  -3  -1  18    3.96    3.32
   3   1 -17    7.64    5.23
  -3  -1  17   -0.53    4.41
   3   1 -16   24.93    8.31
  -3  -1  16   26.08    7.13
   3   1 -15   67.55    6.63
  -3  -1  15   53.15   14.28
   3   1 -14   40.78    7.95
  -3  -1  14   42.83    9.63
   3   1 -13    2.70    4.49
  -3  -1  13   -0.62    4.59
   3   1 -12   93.07    7.11
  -3  -1  12   99.05    7.24
   3   1 -11   87.58    6.27
  -3  -1  11   93.68   15.91
   3   1 -10  149.96   10.30
  -3  -1  10  151.98   15.43
   3   1  -9   -1.09    3.54
  -3  -1   9    0.45    1.05
  -3  -1   9    2.49    2.03
   3   1  -8    8.90    3.29
  -3  -1   8   10.48    4.73
  -3  -1   8    8.90    2.08
   3   1  -7   39.15    3.71
   3   1  -7   41.10    8.34
  -3  -1   7   55.93   12.59
  -3  -1   7   45.20    3.15
   3   1  -6  201.84    6.65
   3   1  -6  199.64   10.00
   3   1  -6  203.66    6.74
  -3  -1   6  214.32    8.29
   3   1  -5  512.68   11.17
   3   1  -5  503.20   10.77
  -3  -1   5  500.19   11.34
   3   1  -4 1598.98   12.51
  -3  -1   4 1580.01   14.67
  -3  -1   4 1555.59   15.29
   3   1  -3  198.55   10.32
   3   1  -3  191.50    9.55
  -3  -1   3  207.11   11.77
  -3  -1   3  209.61   18.76
   3   1  -2 2714.29   20.52
   3   1  -1  111.24    7.59
   3   1  -1  112.10    7.22
  -3  -1   1  123.54    8.85
  -3  -1   1   78.04   19.38
   3   1   0 3912.17   28.28
  -3  -1   0 3912.05   36.54
   3   1   1   64.60    5.39
   3   1   1   55.73    4.39
  -3  -1  -1   70.23    7.48
  -3  -1  -1   68.41   17.61
   3   1   2  164.57    6.23
  -3  -1  -2  173.62    5.65
  -3  -1  -2  177.55    9.35
  -3  -1  -2  188.63    9.06
   3   1   3   75.41    4.22
  -3  -1  -3   68.84    3.49
  -3  -1  -3   82.20    6.11
  -3  -1  -3   87.02    4.64
  -3  -1  -4  227.34    7.31
  -3  -1  -4  228.96    7.95
  -3  -1  -4  223.82    9.14
  -3  -1  -5  147.80    4.69
  -3  -1  -5  157.75    7.10
   3   1   6   12.33    4.74
  -3  -1  -6    7.51    2.63
  -3  -1  -6   10.92    5.14
   3   1   7   84.90    5.34
  -3  -1  -7   84.77    3.14
  -3  -1  -7   92.60    7.91
   3   1   8    3.44    1.96
  -3  -1  -8    2.01    4.51
   3   1   9   64.03   13.82
  -3  -1  -9   72.53   18.16
   3   1  10   14.78    3.18
  -3  -1 -10    4.90    4.25
   3   1  11   21.94    5.92
  -3  -1 -11   20.66    6.88
   3   1  12   17.23    6.85
  -3  -1 -12   31.17    8.47
  -3  -1 -13   -4.35    6.07
  -3  -1 -14    1.97    3.76
  -3  -1 -15   11.83    5.81
   3   2 -19   -3.52    4.56
  -3  -2  19   -4.70    3.95
   3   2 -18    9.86    8.19
  -3  -2  18   16.46    6.27
   3   2 -17   -2.91    5.65
  -3  -2  17   -4.66    4.71
   3   2 -16   -0.46    5.60
  -3  -2  16   -0.81    4.65
   3   2 -15   -0.00    3.83
  -3  -2  15    7.71    4.70
   3   2 -14    6.37    8.19
  -3  -2  14    1.76    2.27
   3   2 -13    1.56    4.53
  -3  -2  13    0.00    3.43
   3   2 -12   38.05    8.54
  -3  -2  12   48.19   12.58
   3   2 -11   42.96    9.30
  -3  -2  11   43.89    8.06
   3   2 -10  102.84    5.06
  -3  -2  10  101.24    5.56
   3   2  -9   63.40   12.56
  -3  -2   9   61.84   16.78
  -3  -2   9   50.77    3.06
   3   2  -8   24.26    5.11
  -3  -2   8   26.09    5.05
   3   2  -7 3040.71   32.45
   3   2  -7 3097.89   33.53
  -3  -2   7 3182.28   37.21
   3   2  -6 1506.11   25.06
   3   2  -6 1397.31   23.56
   3   2  -6 1441.77   22.68
  -3  -2   6 1456.89   24.19
   3   2  -5   13.14    7.00
   3   2  -5   25.45    7.84
  -3  -2   5   22.11    7.67
  -3  -2   5   26.84   13.55
   3   2  -4  403.40   10.36
   3   2  -4  382.46    8.26
  -3  -2   4  399.68    9.53
  -3  -2   4  387.64    9.21
   3   2  -3  523.34   11.88
   3   2  -3  512.66   11.05
  -3  -2   3  513.45   11.95
   3   2  -2 2073.14   16.14
   3   2  -2 2066.19   16.23
  -3  -2   2 2068.42   18.51
  -3  -2   2 2120.83   26.73
   3   2  -1 2912.18   21.40
  -3  -2   1 2886.84   21.93
   3   2   0  315.84    7.41
  -3  -2   0  305.48    7.92
  -3  -2   0  308.98    8.08
   3   2   1  270.10    9.53
   3   2   1  255.30    8.50
  -3  -2  -1  269.43   11.09
  -3  -2  -1  265.82   12.99
   3   2   2    8.73    3.22
  -3  -2  -2   13.54    3.36
  -3  -2  -2   13.53    4.87
  -3  -2  -2   23.96    3.40
  -3  -2  -3    2.33    2.56
  -3  -2  -3    7.63    3.55
  -3  -2  -3    8.90    3.84
  -3  -2  -4  828.42   11.38
  -3  -2  -4  835.15   12.05
  -3  -2  -4  863.27   13.94
  -3  -2  -5   41.24    5.05
  -3  -2  -5   44.60   12.36
  -3  -2  -5   46.89   11.55
  -3  -2  -6  201.08    6.74
  -3  -2  -6  216.19    6.59
  -3  -2  -6  219.60    8.99
  -3  -2  -7   -1.58    1.60
  -3  -2  -7    1.66    1.39
  -3  -2  -7    0.20    5.22
  -3  -2  -8  180.28    3.37
  -3  -2  -8  199.44   11.13
  -3  -2  -8  204.13    7.69
  -3  -2  -9   25.68    5.63
  -3  -2  -9   16.52    5.25
  -3  -2 -10    0.08    2.85
  -3  -2 -10   10.13    5.31
  -3  -2 -11    0.82    2.42
  -3  -2 -11    4.47    7.09
  -3  -2 -12   15.50    5.10
  -3  -2 -13   -0.84    6.25
  -3  -2 -14   -0.06    5.65
   3   3 -19   -6.60    4.95
  -3  -3  19   -0.09    2.96
   3   3 -18   60.75   13.09
  -3  -3  18   47.34   17.96
   3   3 -17    5.92    4.90
  -3  -3  17    6.70    5.30
   3   3 -16   -1.72    5.48
  -3  -3  16    4.25    3.32
   3   3 -15   87.94   23.05
  -3  -3  15   87.92   23.92
   3   3 -14   46.99    8.63
  -3  -3  14   31.35    7.13
   3   3 -13   12.94    6.36
  -3  -3  13   11.60    8.16
   3   3 -12    8.48    6.91
  -3  -3  12    2.22    2.85
   3   3 -11  109.57   11.23
  -3  -3  11  115.57   11.24
   3   3 -10   30.56    5.08
  -3  -3  10   40.64    9.58
   3   3  -9   81.50    4.55
  -3  -3   9   83.29    8.21
   3   3  -8 1605.64   18.39
   3   3  -8 1596.50   17.86
  -3  -3   8 1612.88   18.99
   3   3  -6  867.15   14.84
   3   3  -6  873.34   14.45
   3   3  -6  868.63   14.95
  -3  -3   6  883.11   14.95
   3   3  -5 1464.46   23.35
   3   3  -5 1486.84   24.51
  -3  -3   5 1471.24   24.19
  -3  -3   5 1484.11   26.83
   3   3  -4  736.71   12.57
   3   3  -4  721.95   12.18
  -3  -3   4  796.40   19.03
   3   3  -3    2.30    1.91
   3   3  -3   -0.57    2.94
  -3  -3   3    1.43    2.23
  -3  -3   3   -1.44    3.70
   3   3  -2  566.20   12.27
   3   3  -2  580.55   12.25
  -3  -3   2  574.93   12.83
  -3  -3   2  552.99   12.58
   3   3  -1 2192.85   34.15
  -3  -3   1 2325.64   36.13
  -3  -3   1 2280.31   35.64
   3   3   0   43.59    2.35
   3   3   0   58.73    4.90
  -3  -3   0   53.47    6.43
  -3  -3   0   59.90    5.21
   3   3   1  371.25   10.44
  -3  -3  -1  370.18   11.70
  -3  -3  -1  366.05   11.87
  -3  -3  -2   46.98    5.39
  -3  -3  -2   48.69    7.01
  -3  -3  -2   31.07   11.64
  -3  -3  -3   59.58    7.41
  -3  -3  -3   68.32    7.15
  -3  -3  -3   70.78    9.18
  -3  -3  -4   79.49    2.49
  -3  -3  -4   86.28    4.08
  -3  -3  -4   87.58    6.16
  -3  -3  -5  197.71    5.28
  -3  -3  -5  203.64    6.40
  -3  -3  -5  204.56   18.53
  -3  -3  -6   65.00    6.47
  -3  -3  -6   73.50    7.64
  -3  -3  -6   73.96   12.93
  -3  -3  -7   38.19    5.53
  -3  -3  -7   49.05    7.32
  -3  -3  -7   48.47   15.96
  -3  -3  -8    1.47    1.56
  -3  -3  -8    1.23    0.89
  -3  -3  -8    4.56    2.92
  -3  -3  -9    6.32    2.63
  -3  -3  -9   20.61    8.75
  -3  -3 -10   28.56    9.48
  -3  -3 -11    6.11    8.00
  -3  -3 -12    7.43    4.77
  -3  -3 -13   10.16    7.30
  -3  -3 -14   13.94    8.43
   3   4 -19   21.83    9.67
  -3  -4  19    7.17    6.25
   3   4 -18   60.86   27.43
  -3  -4  18   73.51   28.79
   3   4 -17    2.82    3.87
  -3  -4  17   -2.70    5.80
   3   4 -16    2.24    3.30
  -3  -4  16   -2.11    3.68
   3   4 -15   12.61    6.67
  -3  -4  15    4.29    5.09
   3   4 -14   78.11    9.58
  -3  -4  14   67.39   16.77
   3   4 -13   21.22    5.01
  -3  -4  13   20.38    7.21
   3   4 -12   -0.06    5.21
  -3  -4  12    3.40    3.52
   3   4 -11    6.03    5.03
  -3  -4  11    1.98    4.60
   3   4 -10  150.69    6.43
  -3  -4  10  148.87   18.27
   3   4  -9  117.95    4.51
  -3  -4   9  120.05    9.40
   3   4  -8   73.08    4.56
  -3  -4   8   72.50    8.77
   3   4  -7  640.50   17.75
  -3  -4   7  600.91   16.96
   3   4  -6  139.47    5.17
  -3  -4   6  162.26    7.86
  -3  -4   6  158.36    7.14
   3   4  -5    2.71    2.40
   3   4  -5   11.28    3.61
  -3  -4   5   10.61    5.97
  -3  -4   5   11.28    4.60
   3   4  -4  146.31    5.39
   3   4  -4  151.37    5.58
  -3  -4   4  150.00    6.41
  -3  -4   4  145.21    6.48
   3   4  -3  364.80   10.97
   3   4  -3  371.77   11.31
  -3  -4   3  384.43   12.07
  -3  -4   3  368.74   13.98
   3   4  -2   31.38    6.49
  -3  -4   2   35.15    9.03
  -3  -4   2   26.26    9.22
   3   4  -1  302.57    9.15
  -3  -4   1  308.69    9.41
  -3  -4   1  302.99    9.60
   3   4   0   37.81    4.06
  -3  -4   0   31.92    7.31
  -3  -4   0   43.55   14.35
   3   4   1  928.72   10.71
  -3  -4  -1  921.92   10.93
  -3  -4  -1  929.23   12.35
  -3  -4  -2  330.74   10.41
  -3  -4  -2  329.41   11.09
  -3  -4  -3    2.51    1.40
  -3  -4  -3    0.86    1.74
  -3  -4  -3    7.44    4.93
  -3  -4  -4   18.40    5.16
  -3  -4  -4   21.02    5.89
  -3  -4  -4   28.93    8.66
  -3  -4  -5   31.75    4.78
  -3  -4  -5   33.36    6.37
  -3  -4  -5   42.81    9.83
  -3  -4  -6   -0.07    1.24
  -3  -4  -6    5.47    2.57
  -3  -4  -6    6.84    2.21
  -3  -4  -7  163.44    8.15
  -3  -4  -7  165.50    8.75
  -3  -4  -7  163.30   25.48
  -3  -4  -8    2.08    1.22
  -3  -4  -8   -2.18    4.47
  -3  -4  -9   48.85   15.31
  -3  -4 -10   39.26   10.93
  -3  -4 -11   15.17    6.01
  -3  -4 -12    1.48    3.70
  -3  -4 -13   16.56    7.61
   3   5 -19   81.56   25.31
  -3  -5  19   64.21   24.76
   3   5 -18   17.88    8.36
  -3  -5  18    3.13    2.22
   3   5 -17   88.75   12.91
  -3  -5  17   70.93   15.38
   3   5 -16   43.46   16.87
  -3  -5  16   47.17   12.42
   3   5 -15   37.18   11.15
  -3  -5  15   27.23   10.50
   3   5 -14   45.53    8.31
  -3  -5  14   47.02   16.15
   3   5 -13    2.24    5.55
  -3  -5  13   -3.27    5.72
   3   5 -12   23.85    7.35
  -3  -5  12   11.94    6.42
   3   5 -11   32.97    6.36
  -3  -5  11   29.77    4.22
   3   5 -10   76.14    5.90
  -3  -5  10   71.01   10.39
   3   5  -9   29.10    4.54
  -3  -5   9   34.61    5.78
   3   5  -8   42.75    4.74
  -3  -5   8   54.90   14.79
  -3  -5   7 1026.53   15.45
  -3  -5   7 1047.80   14.88
  -3  -5   6   45.43   13.82
  -3  -5   6   35.92    4.73
  -3  -5   5  854.74   11.27
  -3  -5   5  863.34   11.67
   3   5  -4  286.24    9.07
  -3  -5   4  302.25   11.30
  -3  -5   4  300.40    9.75
   3   5  -3  204.01    6.78
  -3  -5   3  214.10    7.61
  -3  -5   3  206.90    7.63
   3   5  -2 1153.20   13.39
  -3  -5   2 1177.12   14.46
  -3  -5   2 1147.96   15.20
   3   5  -1  124.36    4.56
  -3  -5   1  120.69    5.68
  -3  -5   1  123.83   14.51
   3   5   0  171.27    5.08
  -3  -5   0  171.59    5.54
  -3  -5   0  165.69    6.95
   3   5   1    0.74    1.21
  -3  -5  -1    8.15    8.16
  -3  -5  -1   -4.51    4.50
  -3  -5  -2   -1.23    1.60
  -3  -5  -2   -1.90    4.72
  -3  -5  -3    5.01    2.30
  -3  -5  -3    3.48    2.42
  -3  -5  -3   10.37    5.77
  -3  -5  -4   16.19    3.08
  -3  -5  -4   10.01    2.86
  -3  -5  -4   15.28    6.23
  -3  -5  -5    1.98    1.24
  -3  -5  -5    9.78    4.64
  -3  -5  -6   -0.29    0.80
  -3  -5  -6   10.79    7.53
  -3  -5  -7    4.85    1.75
  -3  -5  -7    8.29    9.22
  -3  -5  -8   77.32   21.76
  -3  -5  -9   28.47    6.77
  -3  -5 -10   27.18   10.05
  -3  -5 -11   -3.21    6.15
  -3  -5 -12    9.91    7.49
   3   6 -19   10.77    6.06
  -3  -6  19    4.57    4.71
   3   6 -18  160.76   26.79
  -3  -6  18  152.43   24.14
   3   6 -17   10.91    5.77
  -3  -6  17   -7.11    6.51
   3   6 -16   20.89    6.40
  -3  -6  16    4.67    5.99
   3   6 -15  157.98    8.76
  -3  -6  15  167.92   22.30
   3   6 -14    5.03    2.79
  -3  -6  14    3.55    3.21
   3   6 -13    6.87    6.02
  -3  -6  13    1.18    5.92
   3   6 -12    2.37    5.38
  -3  -6  12    4.81    4.04
   3   6 -11   46.54    6.39
  -3  -6  11   45.93    5.93
   3   6 -10    1.06    4.55
  -3  -6  10    3.37    1.83
   3   6  -9   11.00    4.13
  -3  -6   9    5.68    4.95
   3   6  -8    5.58    3.87
  -3  -6   8    1.67    4.72
  -3  -6   7   55.11    5.88
  -3  -6   7   57.68    9.51
  -3  -6   6    2.55    2.20
  -3  -6   6    2.82    2.27
  -3  -6   5   85.11    3.45
  -3  -6   5   77.41    5.06
  -3  -6   4   -0.25    3.24
  -3  -6   4    0.97    1.98
   3   6  -3  312.17   11.51
  -3  -6   3  349.64   11.69
  -3  -6   3  327.40   12.06
   3   6  -2  525.10    8.23
  -3  -6   2  537.02    8.78
  -3  -6   2  515.78   17.49
   3   6  -1  128.39    4.65
  -3  -6   1  139.85    5.34
  -3  -6   1  136.74    6.51
   3   6   0   30.81    2.87
  -3  -6   0   13.71    3.21
  -3  -6   0   28.89    5.94
   3   6   1   55.59    4.33
  -3  -6  -1   60.18    7.40
  -3  -6  -1   59.22   18.37
  -3  -6  -2 1046.48    5.81
  -3  -6  -2 1019.05   30.59
  -3  -6  -3   -0.06    0.79
  -3  -6  -3   -0.19    1.04
  -3  -6  -3   -0.08    4.63
  -3  -6  -4   50.30    3.24
  -3  -6  -4   54.37    3.39
  -3  -6  -4   52.32   18.35
  -3  -6  -5    4.94    2.45
  -3  -6  -6   -2.35    6.27
  -3  -6  -7   50.78    8.96
  -3  -6  -8    8.01    6.90
  -3  -6  -9   12.44    6.42
  -3  -6 -10   39.82   10.83
  -3  -6 -11   15.94    9.97
  -3  -6 -12    5.31    4.25
   3   7 -19   67.90   12.97
  -3  -7  19   61.88   16.67
   3   7 -18   18.61    9.21
  -3  -7  18   14.35    9.09
   3   7 -17   75.87   10.73
  -3  -7  17   66.20   10.71
   3   7 -16  126.08   10.51
  -3  -7  16  105.47   11.85
   3   7 -15   14.50    5.34
  -3  -7  15    7.34    4.26
   3   7 -14  182.26    9.17
  -3  -7  14  159.01   16.13
   3   7 -13    4.19    6.46
  -3  -7  13    8.84    5.45
   3   7 -12   64.88    7.36
  -3  -7  12   62.66    9.12
   3   7 -11   10.20    5.23
  -3  -7  11    4.44    5.76
   3   7 -10   18.84    5.47
  -3  -7  10   27.49    7.31
   3   7  -9  114.61    6.88
  -3  -7   9  123.90    5.83
  -3  -7   8    4.99    2.14
  -3  -7   8   -2.11    4.53
  -3  -7   7  109.91    5.51
  -3  -7   7  108.84    7.04
  -3  -7   6  800.16   22.26
  -3  -7   6  774.68   19.94
  -3  -7   5    7.72    2.98
  -3  -7   5   11.11    3.46
  -3  -7   4    3.18    3.08
  -3  -7   4   -0.33    3.99
   3   7  -3    1.36    1.41
  -3  -7   3    3.60    2.96
  -3  -7   3   -0.83    3.94
   3   7  -2   72.67    7.38
  -3  -7   2   86.39    7.57
  -3  -7   2   78.73   17.74
   3   7  -1    6.39    2.41
  -3  -7   1   -0.37    2.43
  -3  -7   1    4.87    2.54
   3   7   0  130.62    5.30
  -3  -7   0  137.85    5.97
  -3  -7   0  135.28    7.61
   3   7   1   21.70    3.04
  -3  -7  -1   15.60    2.84
  -3  -7  -1   23.24    6.02
  -3  -7  -2  119.38    5.92
  -3  -7  -2  132.22   17.05
  -3  -7  -3    4.00    1.48
  -3  -7  -3    3.75    1.26
  -3  -7  -3    7.73    7.07
  -3  -7  -4  162.49    9.67
  -3  -7  -5   -1.61    5.75
  -3  -7  -6    2.51    6.54
  -3  -7  -7    8.99    4.95
  -3  -7  -8  226.72   12.22
  -3  -7  -9   37.33    9.33
  -3  -7 -10   17.57    6.24
  -3  -7 -11    6.11    5.41
   3   8 -19    8.24    6.54
  -3  -8  19    2.41    6.72
   3   8 -18   13.59    6.81
  -3  -8  18   14.37    8.00
   3   8 -17    1.20    3.36
  -3  -8  17   -3.60    5.79
   3   8 -16    8.88    6.61
  -3  -8  16   25.49    6.13
   3   8 -15   41.82    7.37
  -3  -8  15   37.71   10.60
   3   8 -14    1.49    5.45
  -3  -8  14    0.24    2.96
   3   8 -13    5.38    6.35
  -3  -8  13    2.35    4.42
   3   8 -12   63.55   16.83
  -3  -8  12   64.46   14.66
   3   8 -11  130.62    8.66
  -3  -8  11  111.75   11.33
   3   8 -10  339.42   10.81
  -3  -8  10  357.70   11.74
   3   8  -9   39.05    7.31
  -3  -8   9   38.21    6.78
  -3  -8   8   65.22    5.23
  -3  -8   8   71.07   17.56
  -3  -8   7  116.39    5.98
  -3  -8   7  117.93    9.57
  -3  -8   6    1.44    4.04
  -3  -8   6   -4.04    4.25
  -3  -8   5   -0.99    4.18
  -3  -8   5    3.95    2.89
  -3  -8   4   -1.70    3.51
  -3  -8   4    6.92    4.65
  -3  -8   3  370.67    9.84
  -3  -8   3  355.35   17.49
   3   8  -2  481.03   13.25
  -3  -8   2  544.07   14.96
  -3  -8   2  556.65   16.70
   3   8  -1   42.43    6.47
  -3  -8   1   58.66    7.28
  -3  -8   1   54.40   12.91
   3   8   0   -0.41    1.48
  -3  -8   0    0.94    1.29
  -3  -8   0    5.11    3.47
   3   8   1   76.38    3.77
  -3  -8  -1   82.42    5.56
  -3  -8  -1   92.84    6.88
  -3  -8  -2  183.03    9.36
  -3  -8  -2  192.44    9.74
  -3  -8  -2  205.06   22.15
  -3  -8  -3   13.22    5.62
  -3  -8  -4   72.08   21.53
  -3  -8  -5  167.97    9.09
  -3  -8  -6    6.09    4.50
  -3  -8  -7   61.99   20.67
  -3  -8  -8   23.37    7.87
  -3  -8  -9   11.15    8.17
  -3  -8 -10    9.99    6.77
  -3  -9  19   51.54   11.35
   3   9 -18   -0.35    6.39
  -3  -9  18    5.73    5.11
   3   9 -17   47.57    9.17
  -3  -9  17   30.24    7.45
   3   9 -16   12.95    6.99
  -3  -9  16    6.34    4.25
   3   9 -15   11.18    8.27
  -3  -9  15    6.77    6.32
   3   9 -14   24.71    5.75
  -3  -9  14   13.51    3.72
   3   9 -13    2.56    6.10
  -3  -9  13    4.49    3.41
   3   9 -12   13.34    9.27
  -3  -9  12    5.50    5.55
   3   9 -11   10.94    6.43
  -3  -9  11    9.73    5.60
   3   9 -10    8.65    5.72
  -3  -9  10   13.40    7.23
  -3  -9   9   13.17    4.56
  -3  -9   8  104.46    6.39
  -3  -9   8   91.78    8.21
  -3  -9   7    0.82    4.54
  -3  -9   7   -3.71    4.57
  -3  -9   6    3.28    2.16
  -3  -9   6    6.10    2.90
  -3  -9   5    3.00    3.12
  -3  -9   5   -1.27    4.11
  -3  -9   4   37.69    4.51
  -3  -9   4   41.16    9.18
  -3  -9   3  105.72    7.58
  -3  -9   3   94.39   20.24
  -3  -9   2   61.91   10.07
  -3  -9   2   64.86   17.87
   3   9  -1  133.01    4.70
  -3  -9   1  147.57    8.25
  -3  -9   1  159.48   15.47
  -3  -9   0  100.78    8.41
  -3  -9   0  103.14   27.35
  -3  -9  -1    1.57    1.34
  -3  -9  -1    9.00    4.68
  -3  -9  -2   12.91    5.05
  -3  -9  -3   29.51    8.63
  -3  -9  -4   32.88   11.66
  -3  -9  -5  124.93   10.82
  -3  -9  -6   96.26   28.45
  -3  -9  -7    1.08    5.58
  -3  -9  -8   15.31    6.99
  -3  -9  -9   11.50    7.17
   3  10 -18    9.00    6.41
  -3 -10  18   15.92    8.62
   3  10 -17    7.77    4.40
  -3 -10  17    7.20    3.54
   3  10 -16    3.31    6.87
  -3 -10  16    1.51   11.23
   3  10 -15    3.93    6.54
  -3 -10  15    0.95    6.34
   3  10 -14    3.98    6.35
  -3 -10  14    6.13    5.17
   3  10 -13  204.64    8.74
  -3 -10  13  214.46    9.29
   3  10 -12    0.75    6.53
  -3 -10  12    2.81    2.94
   3  10 -11   -0.76    6.21
  -3 -10  11    4.94    5.93
   3  10 -10   40.94    9.44
  -3 -10  10   47.44    9.36
  -3 -10   9   84.42    7.96
  -3 -10   9   87.58    9.48
  -3 -10   8   63.62   16.17
  -3 -10   8   60.28   13.67
  -3 -10   7   -0.69    4.08
  -3 -10   7   -2.23    5.04
  -3 -10   6   18.78    5.75
  -3 -10   6    9.68    4.63
  -3 -10   5  135.67    5.56
  -3 -10   5  131.38   18.95
  -3 -10   4   17.17    5.51
  -3 -10   4   11.84    5.90
  -3 -10   3    3.06    3.33
  -3 -10   3    4.21    5.52
  -3 -10   2   12.75    5.06
  -3 -10   2    5.10    5.09
  -3 -10   1   17.37    3.59
  -3 -10   1   39.78   10.45
  -3 -10   0   -0.16    1.03
  -3 -10   0   -3.90    4.87
  -3 -10  -1    8.20    3.82
  -3 -10  -2   16.50    7.57
  -3 -10  -3    5.30    5.81
  -3 -10  -4   20.28    9.33
  -3 -10  -5   27.70   11.47
  -3 -10  -7    4.97    3.99
   3  11 -18   20.67    9.33
  -3 -11  18   10.04    4.23
   3  11 -17   65.46   19.49
  -3 -11  17   56.12   18.41
   3  11 -16   27.59    6.74
  -3 -11  16   25.44    6.87
   3  11 -15    1.04    5.85
  -3 -11  15    7.20    3.74
   3  11 -14   52.04   10.17
  -3 -11  14   60.90    8.45
   3  11 -13  107.97    9.62
  -3 -11  13   76.56   20.38
   3  11 -12  199.50   10.10
  -3 -11  12  170.45   28.68
   3  11 -11  250.86    9.49
  -3 -11  11  268.25   11.88
   3  11 -10   78.70    7.75
  -3 -11  10   71.06   15.76
  -3 -11   9  102.26   15.45
  -3 -11   9   98.53    8.84
  -3 -11   8  129.74    6.85
  -3 -11   8  132.22   23.31
  -3 -11   7   73.82   18.84
  -3 -11   7   80.65   17.81
  -3 -11   6    3.11    2.94
  -3 -11   6    6.26    6.13
  -3 -11   5    7.31    4.83
  -3 -11   5    4.98    2.46
  -3 -11   4   10.67    4.95
  -3 -11   4    7.11    4.83
  -3 -11   3   19.48    6.07
  -3 -11   2   20.44    5.31
  -3 -11   2   28.52    8.10
  -3 -11   1    8.19    3.28
  -3 -11   1   18.13    6.07
  -3 -11   0   51.79   12.52
  -3 -11  -1    5.22    4.83
  -3 -11  -2   48.50   13.61
  -3 -11  -3    7.19    6.20
  -3 -11  -4    6.19    4.07
  -3 -11  -5    3.65    3.04
  -3 -11  -6   17.13   10.45
   3  12 -17  110.03   29.67
  -3 -12  17  165.28   23.89
   3  12 -16   26.19    7.71
  -3 -12  16    7.99    6.25
   3  12 -15   26.63    8.57
  -3 -12  15   14.07    6.50
   3  12 -14   40.78    9.37
  -3 -12  14   41.28    9.01
   3  12 -13    6.41    7.11
  -3 -12  13   -0.49    6.49
   3  12 -12   80.38   28.09
  -3 -12  12   81.91   21.12
   3  12 -11   42.36    7.19
  -3 -12  11   51.69   11.30
   3  12 -10    1.12    6.89
  -3 -12  10    4.56    3.72
  -3 -12   9   -0.41    4.93
  -3 -12   9    2.32    3.49
  -3 -12   8    7.20    7.44
  -3 -12   8    7.29    3.57
  -3 -12   7   69.73   14.32
  -3 -12   7   83.17   19.69
  -3 -12   6   31.69    6.25
  -3 -12   6   45.16   11.93
  -3 -12   5   10.14    2.78
  -3 -12   5   10.91    9.34
  -3 -12   4   20.32    5.53
  -3 -12   4   29.95   10.77
  -3 -12   3  147.46   10.23
  -3 -12   3  171.35   33.53
  -3 -12   2    8.93    5.20
  -3 -12   2   17.42    5.15
  -3 -12   1   -3.27    5.95
  -3 -12   0   -2.48    6.19
  -3 -12  -1    3.44    5.39
  -3 -12  -2    3.48    2.98
  -3 -12  -3   -1.64    5.61
  -3 -12  -4   10.32    6.42
  -3 -12  -5    6.09    4.50
   3  13 -16    3.71    7.16
  -3 -13  16    4.20    6.50
   3  13 -15   -0.46    6.71
  -3 -13  15    2.74    4.33
   3  13 -14   18.73    6.26
  -3 -13  14   17.53    5.88
   3  13 -13    5.61    7.26
  -3 -13  13    4.35    4.17
   3  13 -12   23.75    8.52
  -3 -13  12   23.22    5.40
   3  13 -11    2.76    6.80
  -3 -13  11   -0.37    7.17
  -3 -13  10   -3.47    6.57
  -3 -13   9   23.93    7.27
  -3 -13   9   22.11    9.60
  -3 -13   8   10.52    5.12
  -3 -13   8    7.19    4.04
  -3 -13   7   -0.17    4.16
  -3 -13   7    3.44    6.80
  -3 -13   6   49.66    5.36
  -3 -13   6   54.70   11.06
  -3 -13   5    9.88    4.15
  -3 -13   5   13.00    6.87
  -3 -13   4   19.01    6.68
  -3 -13   4   17.40    7.61
  -3 -13   3    0.08    3.29
  -3 -13   2   -7.36    5.46
  -3 -13   1   60.96   17.34
  -3 -13   0    2.84    5.36
  -3 -13  -1    6.52    4.60
  -3 -13  -2   16.41    6.85
  -3 -13  -3   26.39    9.71
   3  14 -15   75.38   29.48
  -3 -14  15   73.92   27.65
   3  14 -14  123.10   18.66
  -3 -14  14   99.82   30.82
   3  14 -13   50.72   13.08
  -3 -14  13   28.75    9.31
   3  14 -12   43.99   18.50
  -3 -14  12   46.20   12.62
   3  14 -11   -1.60    7.59
  -3 -14  11   13.40    6.74
  -3 -14  10   18.62    6.45
  -3 -14   9    5.29    3.25
  -3 -14   9    9.95    4.90
  -3 -14   8   11.82    4.59
  -3 -14   8    9.22    4.46
  -3 -14   7    2.93    3.51
  -3 -14   7    3.95    4.68
  -3 -14   6   -0.55    3.12
  -3 -14   6    9.24    3.18
  -3 -14   5   12.99    5.20
  -3 -14   5   13.84    5.76
  -3 -14   4    7.59    5.30
  -3 -14   3    4.23    3.32
  -3 -14   2    6.66    6.03
  -3 -14   1   -0.20    3.74
  -3 -14   0   -1.26    6.09
  -3 -14  -1    5.07    3.16
   3  15 -14   45.02   15.53
  -3 -15  14   31.45   10.19
   3  15 -13   17.65    6.92
  -3 -15  13    2.31    3.18
   3  15 -12   27.32    7.54
  -3 -15  12   20.08    7.80
   3  15 -11   13.19    7.47
  -3 -15  11    8.81    5.29
  -3 -15  10   11.78    4.56
  -3 -15   9   83.02   22.45
  -3 -15   9  104.29   32.52
  -3 -15   8   28.34    8.68
  -3 -15   8   31.25   12.31
  -3 -15   7   21.51    4.76
  -3 -15   7   39.36    8.93
  -3 -15   6   11.27    5.21
  -3 -15   5    6.89    4.94
  -3 -15   4    0.38    4.44
  -3 -15   3    0.68    6.93
  -3 -15   2    1.33    6.19
  -3 -15   1   30.55    9.68
   3  16 -11   28.70   13.67
  -3 -16  11   32.66   13.29
  -3 -16  10    2.24    2.00
  -3 -16   9    9.57    4.40
  -3 -16   9    4.22    4.74
  -3 -16   8   -2.77    3.31
  -3 -16   8    4.69    4.08
  -3 -16   7   10.24    6.21
  -3 -16   6   -3.38    5.81
  -3 -16   5    1.09    3.53
   4 -18   1   12.16    4.39
   4 -18   2   24.50   12.19
  -4  18  -4    7.26    3.84
  -4  18  -5    6.51    5.68
   4 -18   6    5.66    2.40
  -4  18  -6    3.24    3.98
   4 -18   7    5.53    3.39
  -4  18  -7   21.26    6.64
   4 -18   8   -0.98    3.08
  -4  18  -8    4.68    7.09
   4 -18   9   13.42    4.06
  -4  18  -9   35.79   12.50
   4 -18  10    1.31    2.09
  -4  18 -10    3.04    7.19
   4 -17  -2   13.90    8.99
   4 -17  -1    3.31    3.48
   4 -17   0    5.83    5.47
   4 -17   1    8.56    4.86
   4 -17   2   10.43    8.07
   4 -17   4    5.63    2.74
  -4  17  -4    4.76    6.17
   4 -17   5    2.57    2.22
  -4  17  -5   -1.64    6.57
   4 -17   6    1.30    2.50
  -4  17  -6   -1.53    6.64
   4 -17   7   -1.86    3.42
  -4  17  -7    3.73    7.38
   4 -17   8    1.03    2.34
  -4  17  -8    1.88    4.23
   4 -17   9   -3.63    5.60
  -4  17  -9   10.42    7.03
   4 -17  10    4.20    3.81
  -4  17 -10   10.08    7.17
   4 -17  11    6.65    3.25
  -4  17 -11   -3.16    6.40
   4 -17  12    8.83    2.87
  -4  17 -12   13.58    9.42
   4 -16  -4   10.29    3.39
   4 -16  -3    7.82    4.25
   4 -16  -2   12.09    5.32
   4 -16  -1  151.84   29.15
   4 -16   0   11.78    5.35
   4 -16   1   53.78    6.87
   4 -16   2    0.91    3.29
   4 -16   3   24.25    8.63
   4 -16   3   35.68   10.98
   4 -16   4   32.10    8.43
  -4  16  -4   60.38   13.95
   4 -16   5    8.48    3.01
  -4  16  -5    3.75    6.01
   4 -16   6   -3.65    4.75
  -4  16  -6    1.16    6.51
   4 -16   7   30.68    8.43
  -4  16  -7   34.07   10.09
   4 -16   8   96.80   19.83
  -4  16  -8   69.09   10.62
   4 -16   9    0.06    2.44
  -4  16  -9    5.92    5.41
   4 -16  10   21.81    7.01
  -4  16 -10   40.30    9.54
   4 -16  11    3.12    3.44
  -4  16 -11    9.08    7.21
   4 -16  12    5.25    3.85
  -4  16 -12    4.08    7.39
   4 -16  13    6.18    5.03
  -4  16 -13   19.88   10.24
   4 -15  -6    4.58    2.89
   4 -15  -5   17.48    5.88
   4 -15  -4    2.42    1.89
   4 -15  -3   12.57    5.21
   4 -15  -2   13.71    5.84
   4 -15  -1    3.67    2.22
   4 -15   0   -1.71    5.04
   4 -15   1   29.80   11.33
   4 -15   1   54.99   12.26
   4 -15   2    3.04    2.81
   4 -15   2    2.63    3.65
   4 -15   3   23.40    7.84
   4 -15   3   24.79    7.75
   4 -15   4    6.68    3.18
  -4  15  -4    4.79    3.88
   4 -15   5  135.01   17.48
  -4  15  -5  142.81    8.27
   4 -15   6   33.29    7.62
  -4  15  -6   54.87    9.19
   4 -15   7   15.10    4.55
  -4  15  -7   24.36    8.68
   4 -15   8   20.43    4.61
  -4  15  -8   33.74    9.50
   4 -15   9    7.43    3.34
  -4  15  -9    0.02    7.25
   4 -15  10   -2.94    5.77
  -4  15 -10    2.02    7.21
   4 -15  11   -7.74    5.60
  -4  15 -11    6.33    6.88
   4 -15  12   10.96    4.68
  -4  15 -12    3.67    3.81
   4 -15  13    8.73    8.54
  -4  15 -13   16.88    7.54
   4 -15  14   23.41    6.76
  -4  15 -14   18.52    8.16
   4 -14  -7    0.52    1.71
   4 -14  -6   16.95    6.44
   4 -14  -5    6.75    3.93
   4 -14  -4   23.21    9.17
   4 -14  -3    2.55    4.07
   4 -14  -2    3.14    2.94
   4 -14  -1   10.59    4.77
   4 -14   0   55.05   12.65
   4 -14   1   38.47   16.62
   4 -14   1   64.66   14.14
   4 -14   2   17.11    4.03
   4 -14   2   12.92    4.70
   4 -14   3    4.65    2.23
   4 -14   4   21.27    7.18
  -4  14  -4   18.69    7.53
   4 -14   5   -2.91    4.64
  -4  14  -5    2.95    4.92
   4 -14   6  144.60   14.54
  -4  14  -6  150.12   11.60
   4 -14   7  324.50    8.11
  -4  14  -7  309.89   10.01
   4 -14   8  100.58   23.52
  -4  14  -8  126.02    9.30
   4 -14   9   11.07    4.53
  -4  14  -9   -0.70    6.63
   4 -14  10   -2.56    6.26
  -4  14 -10   -0.07    6.44
   4 -14  11   17.09    6.79
  -4  14 -11   11.59    7.24
   4 -14  12   13.07    7.02
  -4  14 -12    9.27    9.11
   4 -14  13   26.23    9.43
  -4  14 -13   24.53    8.27
   4 -14  14   -4.04    6.41
  -4  14 -14   -5.68    8.11
   4 -14  15   10.22    4.70
  -4  14 -15   10.57    8.51
   4 -13  -9   32.25   14.71
   4 -13  -8   17.83    4.98
   4 -13  -7   41.21   10.18
   4 -13  -6   -5.55    3.69
   4 -13  -5   58.73   16.52
   4 -13  -4   -0.09    4.00
   4 -13  -3   -0.62    2.08
   4 -13  -2    3.51    3.95
   4 -13  -1   11.85    4.48
   4 -13   0  564.42    9.90
   4 -13   0  544.29   10.98
   4 -13   1    9.28    4.81
   4 -13   1   31.35    7.98
   4 -13   2    4.35    3.72
   4 -13   2    4.81    4.53
   4 -13   3   46.83    8.26
   4 -13   4    3.57    5.31
  -4  13  -4   14.62    7.36
   4 -13   5  184.00   18.46
  -4  13  -5  189.43    8.62
   4 -13   6   -0.09    5.04
  -4  13  -6    5.59    5.85
   4 -13   7   16.55    6.34
  -4  13  -7    6.83    3.63
   4 -13   8   10.88    6.88
  -4  13  -8   14.24    6.45
   4 -13   9    9.05    3.84
  -4  13  -9   10.31    7.08
   4 -13  10    8.04    4.33
  -4  13 -10    9.17    8.04
   4 -13  11   11.40    6.75
  -4  13 -11    7.04    6.75
   4 -13  12   15.44    7.85
  -4  13 -12   10.60    9.12
   4 -13  13   -4.47    6.20
  -4  13 -13   -0.08    7.70
   4 -13  14   19.22    6.73
  -4  13 -14    5.65    8.42
   4 -13  15    3.58    2.44
  -4  13 -15    7.39    6.27
   4 -13  16    9.90    3.08
  -4  13 -16    9.64    8.93
   4 -12 -10   -0.04    3.19
   4 -12  -9   -1.45    2.91
   4 -12  -8    3.66    2.02
   4 -12  -7   14.31    4.08
   4 -12  -6   75.59   12.82
   4 -12  -5   51.30   17.93
   4 -12  -4   46.98   14.26
   4 -12  -3   31.36    8.47
   4 -12  -2    4.82    3.72
  -4  12   2    0.13    0.89
   4 -12  -1   21.89    6.48
   4 -12   0    2.19    2.51
   4 -12   0    0.73    3.40
   4 -12   1  369.92    7.18
   4 -12   1  355.39    8.58
   4 -12   2   21.56    4.65
   4 -12   2   26.16    6.39
   4 -12   3   44.18    7.29
  -4  12  -3   43.20    8.51
   4 -12   4    7.54    3.56
  -4  12  -4    9.83    8.27
   4 -12   5  100.47   22.05
  -4  12  -5  116.71    9.93
   4 -12   6    6.75    3.60
  -4  12  -6    1.87    4.18
   4 -12   7    2.41    3.74
  -4  12  -7   -1.45    6.57
   4 -12   8   33.24    8.65
  -4  12  -8   32.78    9.37
   4 -12   9   19.29    4.92
  -4  12  -9    9.75    6.26
   4 -12  10    4.47    3.89
  -4  12 -10    2.36    7.04
   4 -12  11   15.17    6.22
  -4  12 -11   28.52   10.23
   4 -12  12    8.67    7.42
  -4  12 -12    0.50    5.23
   4 -12  13    2.42    4.09
  -4  12 -13    5.19    4.21
   4 -12  14   19.83    4.94
  -4  12 -14   26.50   10.99
   4 -12  15   19.14    7.58
  -4  12 -15   32.54    9.14
   4 -12  16    3.55    4.65
  -4  12 -16    1.17    2.81
   4 -11 -11   -0.17    2.98
   4 -11 -10   -3.78    3.34
   4 -11  -9   26.96   14.33
   4 -11  -8   18.61    6.98
   4 -11  -7   -0.43    3.57
   4 -11  -6   -0.46    3.16
   4 -11  -5   40.13   11.10
   4 -11  -4    2.89    1.72
   4 -11  -3  289.23   18.25
  -4  11   3  275.05    8.47
   4 -11  -2  372.69    7.01
   4 -11  -1   14.65    9.96
  -4  11   1    3.02    2.16
  -4  11   1    0.74    0.86
   4 -11   0   -1.32    2.83
   4 -11   0   -0.01    4.21
   4 -11   1  119.59   11.66
   4 -11   1  118.34   13.30
   4 -11   2    2.58    2.17
   4 -11   2    3.99    4.96
   4 -11   3   74.97   20.15
  -4  11  -3   91.18   12.61
   4 -11   4   92.77   12.12
  -4  11  -4   79.60    6.78
   4 -11   5   28.50    6.98
  -4  11  -5   23.99    7.32
   4 -11   6    3.70    2.22
  -4  11  -6   -1.86    5.32
   4 -11   7   11.02    5.02
  -4  11  -7   18.55    9.11
   4 -11   8   50.55    7.66
  -4  11  -8   56.57    9.24
   4 -11   9   36.73    8.41
  -4  11  -9   16.74    6.28
   4 -11  10    8.97    3.25
  -4  11 -10    9.58    5.79
   4 -11  11   11.11    5.39
  -4  11 -11   15.61    5.54
   4 -11  12   -0.27    7.14
  -4  11 -12    6.95    3.93
   4 -11  13   26.93   10.69
  -4  11 -13   19.78    9.05
   4 -11  14   56.78   19.11
  -4  11 -14   68.05   12.07
   4 -11  15   15.86    5.76
  -4  11 -15   11.35    8.28
   4 -11  16    3.58    2.02
  -4  11 -16   -1.15    7.26
   4 -10 -11    2.64    2.06
   4 -10 -10   64.49    7.72
   4 -10  -9  163.14    7.36
   4 -10  -8   11.60    5.52
   4 -10  -7   41.58   12.41
   4 -10  -6   26.41    5.54
   4 -10  -5    2.47    1.95
   4 -10  -4  145.91    9.50
  -4  10   4  119.31    2.20
   4 -10  -3   87.81   14.60
  -4  10   3  107.24    3.71
  -4  10   3   92.11    2.28
   4 -10  -2  309.46   16.74
  -4  10   2  324.46    9.69
  -4  10   2  284.82    7.89
   4 -10  -1  389.58   12.21
  -4  10   1  401.57   15.48
  -4  10   1  365.86    9.82
   4 -10   0    4.64    2.24
   4 -10   0   11.43    4.41
  -4  10   0    5.54    2.05
   4 -10   1   20.59    4.09
   4 -10   1   12.41    5.14
   4 -10   2   25.38    8.28
   4 -10   3    4.85    3.45
  -4  10  -3    1.82    4.10
   4 -10   4   26.64    5.75
  -4  10  -4   15.76    6.36
   4 -10   5  151.49    6.42
  -4  10  -5  149.85    6.51
   4 -10   6   82.43   17.44
  -4  10  -6   70.41    6.15
   4 -10   7    2.04    1.86
  -4  10  -7    5.12    4.97
   4 -10   8   21.91    7.35
  -4  10  -8   26.81    8.50
   4 -10   9    6.24    2.93
  -4  10  -9   -2.93    6.17
   4 -10  10    4.14    2.48
  -4  10 -10    3.55    4.31
   4 -10  11  197.21    8.32
  -4  10 -11  199.73   10.27
   4 -10  12   -2.35    6.15
  -4  10 -12    9.35    5.79
   4 -10  13    8.55    3.83
  -4  10 -13    7.88    5.33
   4 -10  14    8.84    4.75
  -4  10 -14    4.79    7.84
   4 -10  15   24.14    7.65
  -4  10 -15   44.35   16.04
   4 -10  16   10.03    4.99
  -4  10 -16   -5.14    7.96
   4 -10  17   12.18    9.31
  -4  10 -17   11.49    7.87
   4  -9 -12   -5.26    3.30
   4  -9 -11    0.98    3.54
   4  -9 -10    6.89    3.55
   4  -9  -9   68.83   12.64
   4  -9  -8    4.25    3.37
   4  -9  -7    1.57    3.80
   4  -9  -6    1.09    1.31
   4  -9  -5    4.26    2.36
  -4   9   5   -0.19    0.57
  -4   9   5    1.57    0.77
   4  -9  -4   24.85    6.79
  -4   9   4   12.94    3.77
   4  -9  -3  153.12   11.26
  -4   9   3  137.59    4.13
  -4   9   3  133.94    3.56
   4  -9  -2    9.09    3.31
  -4   9   2    5.81    3.75
  -4   9   2    8.51    2.43
   4  -9  -1  169.66   11.86
  -4   9   1  174.03    7.53
  -4   9   1  157.34    5.92
   4  -9   0   65.00    8.55
   4  -9   0   54.42   12.61
  -4   9   0   50.80    4.66
   4  -9   1    0.44    2.25
   4  -9   1    0.68    2.53
   4  -9   2    9.83    2.47
  -4   9  -2   12.15    4.63
   4  -9   3  292.57    8.58
  -4   9  -3  295.46   10.22
   4  -9   4   39.92   10.59
  -4   9  -4   44.67   10.64
   4  -9   5  100.64    5.82
  -4   9  -5  108.31    7.90
   4  -9   6   16.90    3.78
  -4   9  -6   13.15    6.46
   4  -9   7   41.11   11.98
  -4   9  -7   34.41    5.95
   4  -9   8   10.63    2.81
  -4   9  -8    8.14    5.26
   4  -9   9   62.65   18.12
  -4   9  -9   60.64   12.14
   4  -9  10    9.98    4.28
  -4   9 -10   14.04    6.52
   4  -9  11   49.77   11.14
  -4   9 -11   58.34   17.17
   4  -9  12    6.46    3.69
  -4   9 -12    5.46    7.98
   4  -9  13   29.70    8.04
  -4   9 -13   35.56   12.62
   4  -9  14   11.62    4.68
  -4   9 -14    6.01    6.83
   4  -9  15    7.06    4.49
  -4   9 -15    5.85    8.27
   4  -9  16   14.11    5.06
  -4   9 -16   21.36   12.10
   4  -9  17   -0.07    3.94
  -4   9 -17   -4.85    7.91
   4  -8 -13   18.37    5.25
   4  -8 -12    8.62    4.08
   4  -8 -11   47.20   14.14
   4  -8 -10   11.27    4.32
   4  -8  -9   18.57    7.47
   4  -8  -8   60.74    5.32
   4  -8  -7   -1.76    2.59
  -4   8   7   -0.05    0.44
  -4   8   7    1.13    0.63
   4  -8  -6    0.97    1.98
  -4   8   6   -0.87    0.65
  -4   8   6    0.55    0.46
   4  -8  -5  136.75    9.80
  -4   8   5  123.71    2.99
  -4   8   5  126.40    2.99
   4  -8  -4   24.03    5.44
  -4   8   4   17.90    5.46
  -4   8   4   23.02    4.54
  -4   8   4   25.06    3.71
   4  -8  -3   31.54    8.04
  -4   8   3   27.26    6.94
  -4   8   3   26.60    3.46
  -4   8   3   20.22    2.23
   4  -8  -2  143.95   12.10
  -4   8   2  128.84    5.34
  -4   8   2  133.20    5.13
  -4   8   2  125.79    4.91
   4  -8  -1  159.72   15.90
  -4   8   1  140.01    5.07
  -4   8   1  137.70    3.76
  -4   8   1  136.75    6.64
   4  -8   0  126.27    4.79
   4  -8   0  132.12   12.77
  -4   8   0  129.17    3.85
  -4   8   0  124.54    5.62
   4  -8   1  190.62    6.11
  -4   8  -1  182.63    5.02
  -4   8  -1  177.15    5.34
  -4   8  -1  198.38    6.60
   4  -8   2   47.08    4.87
  -4   8  -2   50.44    7.00
   4  -8   3   10.05    4.11
  -4   8  -3   -2.17    3.90
   4  -8   4   99.41    5.08
  -4   8  -4  102.13    6.01
   4  -8   5  353.01   10.67
  -4   8  -5  337.04   10.45
   4  -8   6   12.30    5.93
  -4   8  -6   26.08    7.18
   4  -8   7    0.18    2.05
  -4   8  -7    2.80    4.56
   4  -8   8    7.91    4.12
  -4   8  -8    3.16    4.46
   4  -8   9  233.15    8.58
  -4   8  -9  209.67    7.78
   4  -8  10  464.92    9.78
  -4   8 -10  477.44   13.42
   4  -8  11  137.34   23.67
  -4   8 -11  122.62   27.62
   4  -8  12   38.09    7.66
  -4   8 -12   21.65   10.21
   4  -8  13  127.29   10.10
  -4   8 -13  120.42   15.52
   4  -8  14    7.58    4.49
  -4   8 -14    9.82    6.28
   4  -8  15   49.72   15.06
  -4   8 -15   66.71   10.71
   4  -8  16   13.20    7.79
  -4   8 -16   10.37   10.73
   4  -8  17   19.78    8.04
  -4   8 -17   33.29    9.11
   4  -7 -14    8.05    4.44
   4  -7 -13   29.15   19.18
   4  -7 -12   28.83   11.48
   4  -7 -11    8.70    3.23
   4  -7 -10    0.27    1.77
   4  -7  -9   12.92    3.86
   4  -7  -8    3.66    2.08
  -4   7   8    1.15    0.97
  -4   7   8    2.22    1.37
   4  -7  -7  127.14    5.43
  -4   7   7  122.33    6.32
  -4   7   7  107.78    5.25
   4  -7  -6  131.94    4.81
  -4   7   6  124.97    3.27
  -4   7   6  121.51    4.51
   4  -7  -5   23.29    6.20
  -4   7   5   14.14    3.69
  -4   7   5   22.99    3.74
  -4   7   5   23.18    4.42
   4  -7  -4  245.98   12.03
  -4   7   4  239.03    3.80
  -4   7   4  237.12    8.60
  -4   7   4  228.92    8.91
   4  -7  -3  221.39    5.00
  -4   7   3  233.73    7.77
  -4   7   3  217.24    5.36
  -4   7   3  226.36    7.18
   4  -7  -2    5.01    3.86
  -4   7   2    1.69    2.32
  -4   7   2    7.86    2.04
  -4   7   2    8.02    2.93
   4  -7  -1    3.02    1.95
  -4   7   1    3.41    1.83
  -4   7   1    2.74    1.06
  -4   7   1    1.42    1.77
   4  -7   0  110.10    4.31
   4  -7   0  108.38    4.71
  -4   7   0  105.84    3.44
  -4   7   0  111.82    6.89
   4  -7   1   41.88   12.05
  -4   7  -1   41.81    5.69
  -4   7  -1   34.22    4.65
  -4   7  -1   32.41    3.91
   4  -7   2  198.52    7.32
  -4   7  -2  190.00    6.25
  -4   7  -2  184.49    6.18
  -4   7  -2  184.34    7.05
   4  -7   3  406.89   12.05
  -4   7  -3  388.68   12.12
   4  -7   4  186.50    8.00
  -4   7  -4  190.35    7.72
   4  -7   5  867.10   13.15
  -4   7  -5  886.30   14.23
   4  -7   6   22.04    4.96
  -4   7  -6   23.35    6.67
   4  -7   7    5.16    3.87
  -4   7  -7    5.08    2.97
   4  -7   8   14.03    4.09
  -4   7  -8   13.05    4.91
   4  -7   9   25.66    4.99
  -4   7  -9   15.56    7.31
   4  -7  10  786.76   12.33
  -4   7 -10  786.98   28.79
   4  -7  11  126.53   24.05
  -4   7 -11  123.69    9.56
   4  -7  12  178.21   19.68
  -4   7 -12  171.85   25.12
   4  -7  13    2.92    3.44
  -4   7 -13    6.44    8.29
   4  -7  14   45.12   13.40
  -4   7 -14   64.21   11.16
   4  -7  15   16.73    6.51
  -4   7 -15   14.60    8.34
   4  -7  16   34.49   10.22
  -4   7 -16   32.65   15.23
   4  -7  17    6.68    4.77
  -4   7 -17   12.08    8.13
   4  -6 -15   -0.68    3.38
   4  -6 -14    9.76    5.28
   4  -6 -13   21.94    5.96
   4  -6 -12    3.89    3.31
   4  -6 -11    4.25    4.74
   4  -6 -10    0.72    2.88
  -4   6  10   -0.41    1.33
   4  -6  -9   38.56   11.86
   4  -6  -9   33.47    4.75
  -4   6   9   40.43    6.75
   4  -6  -8   50.94    8.32
   4  -6  -8   54.77    5.34
  -4   6   8   59.95    7.17
   4  -6  -7  230.38    7.32
   4  -6  -7  209.56    5.84
  -4   6   7  220.29    6.17
  -4   6   7  206.43    6.23
   4  -6  -6  208.57    8.20
   4  -6  -6  216.56    8.10
  -4   6   6  220.05    8.06
  -4   6   6  195.45    7.23
   4  -6  -5  216.66    6.67
  -4   6   5  227.70    7.50
  -4   6   5  218.07    5.79
   4  -6  -4   16.53    6.45
  -4   6   4    6.84    1.63
  -4   6   4   18.50    3.89
  -4   6   4   16.84    2.93
   4  -6  -3  662.58    4.91
  -4   6   3  664.81    4.89
  -4   6   3  653.16    5.47
  -4   6   3  682.50    8.19
   4  -6  -2    2.47    1.71
  -4   6   2    3.35    3.48
  -4   6   2   -0.03    1.40
  -4   6   2   -0.59    1.30
   4  -6  -1    6.02    2.58
  -4   6   1   12.06    5.58
  -4   6   1    9.49    2.94
  -4   6   1   12.52    3.24
   4  -6   0   34.43   12.31
  -4   6   0   63.55    6.91
  -4   6   0   60.79    7.72
  -4   6   0   67.10    9.05
   4  -6   1  187.21    7.50
  -4   6  -1  177.88    5.87
  -4   6  -1  177.88    5.94
  -4   6  -1  189.91    7.60
   4  -6   2   31.65   11.21
  -4   6  -2   26.25    4.90
  -4   6  -2   18.11    5.57
  -4   6  -2   30.58    5.69
   4  -6   3  175.13    6.73
  -4   6  -3  184.01   12.99
   4  -6   4   12.89    4.07
  -4   6  -4    3.81    4.45
   4  -6   5  145.66    6.80
  -4   6  -5  144.48   18.00
   4  -6   6   -2.82    3.96
  -4   6  -6   -2.97    4.76
   4  -6   7   56.51   12.36
  -4   6  -7   51.04    6.91
   4  -6   8   27.84    6.01
  -4   6  -8   34.12   10.56
   4  -6   9   68.78   15.76
  -4   6  -9   66.70   21.11
   4  -6  10  218.90   18.62
  -4   6 -10  192.32   13.12
   4  -6  11   62.21   15.75
  -4   6 -11   74.10   14.48
   4  -6  12   34.70    6.26
  -4   6 -12   32.50    6.49
   4  -6  13   46.95   12.88
  -4   6 -13   28.81   11.63
   4  -6  14    3.08    3.33
  -4   6 -14    5.84    8.11
   4  -6  15   13.69    5.48
  -4   6 -15   21.81   11.73
   4  -6  16  115.27   14.55
  -4   6 -16  123.66   16.90
   4  -6  17    1.49    3.13
  -4   6 -17   25.86   10.31
   4  -5 -15   39.64   10.87
   4  -5 -14   13.25    5.67
   4  -5 -12   -1.61    3.62
  -4   5  12    2.51    1.87
   4  -5 -11    5.90    2.95
  -4   5  11   16.67    4.65
   4  -5 -10   36.64   11.12
   4  -5 -10   40.69    4.38
  -4   5  10   44.82    6.59
   4  -5  -9   17.95    6.25
   4  -5  -9   10.81    2.15
  -4   5   9   16.45    4.16
   4  -5  -8   18.04    5.56
   4  -5  -8   30.14    4.10
  -4   5   8   16.54    5.21
  -4   5   8   23.01    4.12
   4  -5  -7    4.68    3.31
   4  -5  -7    0.40    1.50
  -4   5   7    0.32    0.90
  -4   5   7    1.28    1.33
   4  -5  -6  298.88   10.02
   4  -5  -6  301.24   10.67
  -4   5   6  314.15   11.57
  -4   5   6  303.67    9.77
   4  -5  -5   30.52    3.22
   4  -5  -5   37.44    6.56
  -4   5   5   23.99    6.78
  -4   5   5   40.92    6.00
   4  -5  -4 3465.10   36.21
   4  -5  -4 3465.59   36.86
  -4   5   4 3456.62   36.41
  -4   5   4 3402.60   35.42
   4  -5  -3  955.18   15.21
  -4   5   3  948.67   17.37
  -4   5   3  964.46   15.13
   4  -5  -2   22.47    6.73
  -4   5   2   18.65    9.77
  -4   5   2   26.62    6.26
  -4   5   2   27.15    5.26
  -4   5   1    2.64    2.94
  -4   5   1    3.19    4.93
  -4   5   1    4.86    2.28
  -4   5   1    2.32    2.18
   4  -5   0  201.16    7.45
  -4   5   0  209.70    9.16
  -4   5   0  204.33    6.28
  -4   5   0  207.25    7.29
   4  -5   1   56.40    4.45
   4  -5   1   59.89    8.30
  -4   5  -1   57.43    6.36
  -4   5  -1   53.86    7.61
   4  -5   2  531.81    9.53
  -4   5  -2  537.30   10.35
  -4   5  -2  553.56   10.31
   4  -5   3   14.20    6.00
   4  -5   3    4.12    3.25
  -4   5  -3   20.71    7.57
  -4   5  -3   -2.07    3.04
   4  -5   4  313.34    9.96
   4  -5   4  300.23    9.03
  -4   5  -4  321.52   10.66
   4  -5   5    2.08    1.11
  -4   5  -5   -2.66    4.73
   4  -5   6   68.93    3.86
  -4   5  -6   75.56   19.01
   4  -5   7    9.00    4.44
  -4   5  -7   10.92    5.35
   4  -5   8   91.28   16.68
  -4   5  -8   86.10    6.51
   4  -5   9  390.46   12.85
  -4   5  -9  402.30   26.36
   4  -5  10  177.09   18.68
  -4   5 -10  206.31   14.23
   4  -5  11    6.99    4.73
  -4   5 -11    4.55    4.37
   4  -5  12    3.03    3.62
  -4   5 -12   -1.60    3.82
   4  -5  13    8.01    4.57
  -4   5 -13    2.61    7.63
   4  -5  14   46.20   12.07
  -4   5 -14   63.05   20.10
   4  -5  15   73.80   29.40
  -4   5 -15   77.77   39.80
   4  -5  16    2.67    2.94
  -4   5 -16  -10.16    7.69
   4  -4 -16    9.25    5.22
   4  -4 -15    9.68    6.41
   4  -4 -14    5.57    2.35
   4  -4 -13   30.49   12.70
  -4   4  13   40.43    7.83
   4  -4 -12    4.58    3.91
  -4   4  12   -0.39    2.40
   4  -4 -11  272.39   13.40
  -4   4  11  254.22   12.25
   4  -4 -10   36.21   13.41
   4  -4 -10   40.65    3.08
  -4   4  10   48.11    7.15
   4  -4  -9   96.59    7.44
   4  -4  -9   74.86    5.40
  -4   4   9  103.00   11.51
  -4   4   9   71.64    4.30
   4  -4  -8  152.30    7.39
   4  -4  -8  152.17    6.71
  -4   4   8  168.94    9.64
  -4   4   8  141.13    6.49
   4  -4  -7   -0.09    1.12
   4  -4  -7    2.13    1.76
  -4   4   7   -0.50    2.43
  -4   4   7    3.53    2.01
   4  -4  -6  545.11   10.21
   4  -4  -6  527.36    8.33
  -4   4   6  532.01    8.23
  -4   4   6  544.50    7.78
   4  -4  -5 1208.77   13.16
   4  -4  -5 1174.96   13.72
  -4   4   5 1242.38   14.40
  -4   4   5 1202.14   13.84
   4  -4  -4 3288.84   50.54
  -4   4   4 3317.48   50.49
   4  -4  -3  365.76   10.09
   4  -4  -3  353.25   10.22
  -4   4   3  365.58   11.32
  -4   4   3  363.29    9.88
   4  -4  -2   35.51    4.76
  -4   4   2   18.74    3.74
  -4   4   2   28.01    4.28
  -4   4   2   30.39    6.52
  -4   4   1  103.52    5.40
  -4   4   1  111.60   12.02
  -4   4   1  109.10    6.75
  -4   4   1  106.94    5.47
   4  -4   0    8.58    4.22
  -4   4   0   -5.60    3.26
  -4   4   0    5.37    2.47
  -4   4   0    2.76    2.69
   4  -4   1  611.91   13.46
   4  -4   1  585.17   12.09
  -4   4  -1  646.15   14.03
  -4   4  -1  600.94   13.15
   4  -4   2  277.70    8.78
  -4   4  -2  282.25   10.95
  -4   4  -2  270.75    8.31
   4  -4   3  216.78    7.93
   4  -4   3  206.79    7.44
  -4   4  -3  210.41    8.39
  -4   4  -3  206.90    6.75
   4  -4   4   11.43    4.80
   4  -4   4   18.57    6.62
  -4   4  -4   36.18    7.41
   4  -4   5    2.89    2.43
  -4   4  -5    8.54    6.57
   4  -4   6    3.59    3.75
  -4   4  -6    4.99    4.28
   4  -4   7    5.63    2.03
  -4   4  -7    2.90    4.92
   4  -4   8    3.04    3.10
  -4   4  -8    3.64    4.88
   4  -4   9   75.65   16.53
  -4   4  -9   66.53   17.90
   4  -4  10   33.20   11.38
  -4   4 -10   28.20    9.93
   4  -4  11    3.58    3.83
  -4   4 -11    4.06    7.16
   4  -4  12    2.53    2.04
  -4   4 -12    6.93    6.85
   4  -4  13   41.82   12.68
  -4   4 -13   41.28   17.08
   4  -4  14   45.37   15.06
  -4   4 -14   56.65   11.80
   4  -4  15    5.55    5.02
  -4   4 -15   13.06    8.50
   4  -4  16    8.37    6.97
  -4   4 -16   -0.37    7.78
   4  -3 -17    5.04    5.19
   4  -3 -16  216.52    9.13
   4  -3 -15    2.99    4.06
   4  -3 -14   20.49    8.06
  -4   3  14   27.74    6.87
  -4   3  13   27.45    6.64
   4  -3 -12    0.58    3.49
  -4   3  12    8.55    4.25
   4  -3 -11   10.04    3.76
  -4   3  11    2.99    1.76
   4  -3 -10  119.92    5.89
  -4   3  10  116.93    6.27
   4  -3  -9   29.57    8.08
   4  -3  -9   24.69    3.31
  -4   3   9   17.78    6.07
  -4   3   9   22.03    4.35
   4  -3  -8  119.51    6.77
   4  -3  -8  113.36    3.69
  -4   3   8  124.15   13.18
  -4   3   8  108.71    4.83
   4  -3  -7  358.76   11.31
   4  -3  -7  340.93   10.70
  -4   3   7  368.08   11.74
  -4   3   7  344.01   10.40
   4  -3  -6  537.00   15.16
   4  -3  -6  508.02   14.36
  -4   3   6  538.53   16.18
  -4   3   6  536.66   14.40
   4  -3  -5    2.97    1.72
   4  -3  -5    4.39    3.57
  -4   3   5    3.24    2.57
  -4   3   5    7.78    2.76
   4  -3  -4    3.28    1.30
   4  -3  -4    7.88    3.80
  -4   3   4    1.81    2.95
  -4   3   4    6.61    2.23
   4  -3  -3  344.56    7.93
  -4   3   3  339.34    9.16
  -4   3   3  355.96    7.04
   4  -3  -2  121.12    6.20
  -4   3   2  109.58    7.18
  -4   3   2  127.86    6.58
  -4   3   2  127.50    5.56
   4  -3  -1  391.93    9.25
   4  -3  -1  394.68    8.62
  -4   3   1  408.14   11.27
  -4   3   1  390.26    8.36
   4  -3   0    8.27    4.79
  -4   3   0   10.77    4.92
  -4   3   0    7.85    4.09
  -4   3   0    8.69    4.96
   4  -3   1  440.52    9.61
  -4   3  -1  447.97   12.04
  -4   3  -1  454.35   10.35
   4  -3   2  113.84   11.35
   4  -3   2  111.97    5.73
  -4   3  -2  119.85   14.67
  -4   3  -2  118.69    9.03
   4  -3   3   35.23    8.06
   4  -3   3   19.46    6.33
  -4   3  -3   26.76    7.01
  -4   3  -3   29.89    7.12
   4  -3   4  846.17   14.38
   4  -3   4  821.60   14.08
  -4   3  -4  854.61   15.16
  -4   3  -4  828.69   13.80
   4  -3   5  121.71    6.04
  -4   3  -5  121.47    7.05
   4  -3   6   69.54    5.43
  -4   3  -6   74.06   16.03
   4  -3   7   74.46    9.84
  -4   3  -7   69.21    6.31
   4  -3   8   26.99    4.44
  -4   3  -8   18.28    4.63
   4  -3   9   13.93    4.78
  -4   3  -9   12.93    7.16
   4  -3  10    5.67    3.47
  -4   3 -10   -0.02    6.99
   4  -3  11  132.14    7.35
  -4   3 -11  122.69   22.87
   4  -3  12   -0.25    5.29
  -4   3 -12   11.52    6.52
   4  -3  13   26.16    7.78
  -4   3 -13   29.10   11.55
   4  -3  14   17.12    4.88
  -4   3 -14    2.70    9.33
   4  -3  15    4.12    2.64
  -4   3 -15   -5.58    7.29
   4  -3  16   17.28    8.82
  -4   3 -16   34.85   10.19
   4  -2 -17    2.27    4.04
   4  -2 -16    3.24    3.77
   4  -2 -15    4.03    3.36
  -4   2  15   -1.53    3.42
   4  -2 -14   33.05    5.42
  -4   2  14   29.82    8.26
   4  -2 -13  381.05   19.22
  -4   2  13  343.59    9.88
   4  -2 -12    6.00    3.55
  -4   2  12    3.80    3.82
   4  -2 -11  105.78   16.13
  -4   2  11  117.59   11.95
   4  -2 -10  434.04   12.67
  -4   2  10  430.37   12.80
  -4   2  10  383.48   10.89
   4  -2  -9   65.83   10.42
  -4   2   9   81.27   13.35
  -4   2   9   62.38    3.01
   4  -2  -8   -2.70    2.67
   4  -2  -8    1.09    1.98
  -4   2   8    0.60    1.26
  -4   2   8    0.15    1.38
   4  -2  -7   -0.34    2.06
   4  -2  -7    0.24    2.17
  -4   2   7    4.52    2.58
  -4   2   7   -0.24    1.51
   4  -2  -6   41.52    6.71
   4  -2  -6   22.77    3.63
  -4   2   6   19.77   10.34
  -4   2   6   36.46    2.62
   4  -2  -5    1.13    0.85
   4  -2  -5    2.51    2.68
  -4   2   5    2.12    2.58
  -4   2   5    1.12    0.96
   4  -2  -4    9.22    1.66
   4  -2  -4   12.78    4.03
  -4   2   4   11.23    6.68
   4  -2  -3  591.08   12.65
  -4   2   3  611.75   15.02
  -4   2   2 2081.38   15.20
   4  -2  -1  204.68    9.35
   4  -2  -1  199.53    9.00
  -4   2   1  215.98   14.15
  -4   2   1  197.53    9.81
   4  -2   0  498.04   10.92
   4  -2   0  506.70   11.01
  -4   2   0  476.76   14.03
  -4   2   0  522.73   13.36
   4  -2   1 2217.77   16.53
  -4   2  -1 2177.88   16.98
  -4   2  -1 2172.97   16.39
   4  -2   2  314.69    8.69
   4  -2   2  331.33   12.44
  -4   2  -2  325.22    8.88
  -4   2  -2  326.42    9.21
   4  -2   3   21.13    5.79
   4  -2   3   18.74    7.11
  -4   2  -3   20.05    7.40
  -4   2  -3   18.28    5.42
   4  -2   4  193.80    7.54
  -4   2  -4  181.36    6.33
  -4   2  -4  169.13    7.36
   4  -2   5   54.56    4.32
  -4   2  -5   43.07    5.29
   4  -2   6   20.10    7.92
  -4   2  -6   35.54    6.42
   4  -2   7    5.29    2.93
  -4   2  -7   -2.98    5.18
   4  -2   8    3.11    1.77
  -4   2  -8    1.94    5.52
   4  -2   9   24.68    6.82
  -4   2  -9   11.64    6.21
   4  -2  10   -0.26    4.74
  -4   2 -10    9.49    3.98
   4  -2  11   -1.72    4.25
  -4   2 -11    5.24    5.01
   4  -2  12   16.75    8.29
  -4   2 -12   22.25   10.11
   4  -2  13    4.66    5.77
  -4   2 -13    4.52    5.08
   4  -2  14    5.06    3.28
  -4   2 -14    5.29    7.47
   4  -2  15    1.33    2.34
  -4   2 -15   -0.06    7.15
  -4   2 -16    0.87    6.18
   4  -1 -18    4.87    3.97
   4  -1 -17   -2.75    4.63
  -4   1  17    3.44    3.77
   4  -1 -16   13.61    6.06
  -4   1  16    9.69    2.93
   4  -1 -15   27.98   11.93
  -4   1  15   40.15   10.03
   4  -1 -14  425.06   12.32
  -4   1  14  419.36   13.56
   4  -1 -13  101.66   21.87
  -4   1  13  117.24   13.20
   4  -1 -12  275.73   14.80
  -4   1  12  242.76   13.38
   4  -1 -11    0.56    1.56
  -4   1  11    9.09    5.41
   4  -1 -10    8.75    3.78
  -4   1  10    7.22    3.20
  -4   1  10    8.11    2.54
   4  -1  -9   -0.32    3.09
  -4   1   9   -1.03    3.70
  -4   1   9   -1.07    1.72
   4  -1  -8  244.13    8.49
   4  -1  -8  227.07    7.90
  -4   1   8  243.60    9.57
  -4   1   8  233.35    8.26
   4  -1  -7   35.76    3.27
   4  -1  -7   39.51    9.73
  -4   1   7   24.24    8.59
  -4   1   7   39.46    3.02
   4  -1  -6  139.30    4.85
   4  -1  -6  129.88    8.43
  -4   1   6  146.67   10.86
  -4   1   6  130.83    4.70
   4  -1  -5  226.80    6.87
   4  -1  -5  234.77    8.27
   4  -1  -5  236.35    7.78
  -4   1   5  231.92    8.96
   4  -1  -4  176.94    8.56
   4  -1  -4  181.91    8.29
   4  -1  -4  178.54    8.08
  -4   1   4  180.59    9.35
  -4   1   3   67.64    9.10
   4  -1  -2   17.72    8.86
   4  -1  -2   18.38    3.56
  -4   1   2   11.71    5.43
  -4   1   2   20.35    8.32
   4  -1  -1  831.87    7.80
  -4   1   1  790.96    9.29
   4  -1   0  157.02    7.56
   4  -1   0  164.30   10.73
  -4   1   0  159.10    9.61
  -4   1  -1 6477.73   45.29
  -4   1  -1 6283.01   44.46
   4  -1   2  348.41   11.96
  -4   1  -2  358.86   10.57
  -4   1  -2  352.76   11.14
  -4   1  -2  358.42   12.62
  -4   1  -3 1121.58   18.15
  -4   1  -3 1131.78   23.74
  -4   1  -4 1694.40   19.79
  -4   1  -4 1680.03   20.08
   4  -1   5  213.75    8.78
  -4   1  -5  195.66    5.55
  -4   1  -5  204.75   15.08
   4  -1   6  272.44    8.60
  -4   1  -6  274.16    9.39
   4  -1   7    3.23    1.62
  -4   1  -7    7.28    3.73
   4  -1   8  377.81   11.87
  -4   1  -8  384.59   14.05
   4  -1   9   55.20   12.71
  -4   1  -9   41.84   16.15
   4  -1  10    1.98    2.24
  -4   1 -10   -3.46    6.24
   4  -1  11    8.13    4.73
  -4   1 -11    9.55    5.88
   4  -1  12   20.54   10.81
  -4   1 -12   28.54   10.73
   4  -1  13    5.35    3.28
  -4   1 -13   -0.12    7.98
   4  -1  14    7.92    3.13
  -4   1 -14    6.99    4.13
  -4   1 -15    6.76    6.81
   4   0 -18   -3.93    4.40
  -4   0  18   -4.82    3.38
   4   0 -17    9.78    6.95
  -4   0  17   -3.08    3.96
   4   0 -16   18.27    6.79
  -4   0  16   18.73    6.65
   4   0 -15   -2.00    4.45
  -4   0  15    5.72    3.45
   4   0 -14    3.30    2.42
  -4   0  14    7.31    4.30
   4   0 -13    7.00    4.16
  -4   0  13   10.62    4.50
   4   0 -12  109.21    6.58
  -4   0  12  103.73   20.84
   4   0 -11    7.84    4.24
  -4   0  11    8.65    5.02
   4   0 -10   35.85   10.66
  -4   0  10   34.19    7.74
  -4   0  10   32.11    2.71
   4   0  -9   53.44    6.69
  -4   0   9   67.85    9.57
  -4   0   9   51.09    3.22
   4   0  -8   36.22    8.65
  -4   0   8   23.81    9.44
  -4   0   8   30.08    2.65
   4   0  -7  159.75    6.61
   4   0  -7  152.63    9.22
  -4   0   7  151.15   14.18
   4   0  -6  135.95    6.30
   4   0  -6  119.81    5.46
   4   0  -6  141.69    6.12
  -4   0   6  129.29    6.24
   4   0  -5   45.64    5.85
   4   0  -5   46.54   12.85
   4   0  -5   46.49    4.17
  -4   0   5   37.67   10.98
   4   0  -4 1960.83   15.12
   4   0  -4 1919.92   13.90
  -4   0   4 1901.91   16.52
  -4   0   4 1914.46   14.18
   4   0  -3  352.63    8.47
   4   0  -3  360.64    7.74
  -4   0   3  344.96    9.99
  -4   0   3  362.43   10.84
   4   0  -2 1118.33    9.36
  -4   0   2 1106.40   13.24
   4   0  -1  153.38    7.48
   4   0  -1  156.91    7.43
  -4   0   1  160.98   17.31
   4   0   0    3.40    3.92
   4   0   0   10.79    2.57
  -4   0   0    8.83    3.49
  -4   0   0   -0.06    4.36
   4   0   1   14.91    5.97
   4   0   1   10.43    4.06
  -4   0  -1   10.14    4.04
  -4   0  -1    3.66    4.27
   4   0   2  827.08   13.89
  -4   0  -2  837.91   13.83
  -4   0  -2  855.29   15.47
  -4   0  -2  859.39   14.47
  -4   0  -3    3.66    2.95
  -4   0  -3    5.39    2.53
  -4   0  -3   -1.39    3.91
  -4   0  -4   73.91    8.43
  -4   0  -4   86.07    5.82
  -4   0  -4   79.80    5.13
  -4   0  -5   31.12    6.86
  -4   0  -5   34.32    5.37
   4   0   6  155.36    8.07
  -4   0  -6  137.04    8.68
   4   0   7    2.10    1.16
  -4   0  -7    5.17    5.48
   4   0   8   27.20    5.54
  -4   0  -8   31.78    7.99
   4   0   9    3.67    2.88
  -4   0  -9   18.47    8.88
   4   0  10   22.88    5.15
  -4   0 -10   21.11    7.13
   4   0  11   30.46    7.45
  -4   0 -11   22.63    7.05
   4   0  12    8.89    3.81
  -4   0 -12    2.65    8.05
  -4   0 -13    8.68    7.03
  -4   0 -14    7.20    4.58
  -4   0 -15    5.97    7.14
   4   1 -19   10.77    4.36
  -4  -1  19   22.40    5.37
   4   1 -18    3.18    4.07
  -4  -1  18   -5.14    4.37
   4   1 -17    4.39    4.64
  -4  -1  17    2.30    4.70
   4   1 -16   21.37    5.97
  -4  -1  16   35.15    8.37
   4   1 -15   20.75    6.23
  -4  -1  15    8.44    2.68
   4   1 -14   17.00    6.80
  -4  -1  14   13.26    6.17
   4   1 -13   23.87    5.88
  -4  -1  13   37.04    8.02
   4   1 -12    9.20    4.18
  -4  -1  12    1.65    5.46
   4   1 -11   51.36   14.69
  -4  -1  11   64.24   12.99
   4   1 -10   11.58    3.89
  -4  -1  10   18.08    6.15
  -4  -1  10   15.45    2.50
   4   1  -9  638.45   10.29
  -4  -1   9  636.82   13.23
   4   1  -8  131.15    5.62
   4   1  -8  126.99    5.19
  -4  -1   8  133.17   14.81
   4   1  -7   -1.28    2.33
   4   1  -7    1.08    1.37
  -4  -1   7    4.09    1.63
   4   1  -6   10.23    2.60
   4   1  -6    8.14    3.82
  -4  -1   6   22.71    7.46
   4   1  -5  423.33    4.73
   4   1  -5  439.02    7.49
  -4  -1   5  433.74    8.61
  -4  -1   5  433.54    8.90
   4   1  -4  486.33   10.97
   4   1  -4  478.51   11.04
  -4  -1   4  486.35   11.76
  -4  -1   4  494.49   11.65
   4   1  -3   20.17    4.27
   4   1  -3   28.78    3.21
  -4  -1   3   37.18   14.87
  -4  -1   3   30.57    7.00
   4   1  -2  324.57    7.88
   4   1  -2  336.16   11.26
  -4  -1   2  325.71    8.86
  -4  -1   2  335.00    8.42
   4   1  -1 4639.54   33.54
   4   1  -1 4770.47   33.95
  -4  -1   1 4740.16   34.00
  -4  -1   1 4797.45   34.58
   4   1   0   30.17    9.01
   4   1   0   29.10    9.90
  -4  -1   0   18.74    4.35
  -4  -1   0   32.70    9.78
   4   1   1  888.20   14.57
   4   1   1  879.01   14.90
  -4  -1  -1  896.48   14.95
  -4  -1  -1  892.42   15.51
  -4  -1  -2 1529.42   26.46
  -4  -1  -2 1552.09   25.52
  -4  -1  -2 1507.62   24.54
  -4  -1  -3  809.46    9.64
  -4  -1  -3  821.76   11.22
  -4  -1  -4   15.51    3.30
  -4  -1  -4   16.40    4.38
  -4  -1  -5  419.47   10.70
  -4  -1  -5  463.20   14.65
  -4  -1  -5  392.66   13.33
  -4  -1  -6  514.66   11.95
  -4  -1  -6  568.32   13.83
  -4  -1  -6  582.61   21.99
  -4  -1  -7  151.15    6.91
  -4  -1  -7  147.50    8.03
  -4  -1  -8    5.34    2.35
  -4  -1  -8    7.74    5.01
  -4  -1  -9   39.56    9.66
  -4  -1  -9   39.68   11.58
  -4  -1 -10   15.95    4.71
  -4  -1 -10   19.77    5.67
  -4  -1 -11    2.33    2.30
  -4  -1 -11   -2.05    7.49
  -4  -1 -12   27.41   13.04
  -4  -1 -12   36.04   11.81
  -4  -1 -13   56.16    9.83
  -4  -1 -14   44.41   18.67
   4   2 -19    7.69    4.63
  -4  -2  19    5.23    4.49
   4   2 -18   16.76    8.07
  -4  -2  18   20.65    5.77
   4   2 -17   17.07    7.14
  -4  -2  17    3.05    4.30
   4   2 -16    3.20    2.73
  -4  -2  16    6.88    4.85
   4   2 -15   51.91    9.47
  -4  -2  15   46.65   19.75
   4   2 -14   -7.18    5.57
  -4  -2  14   11.20    8.18
   4   2 -13   22.33    6.76
  -4  -2  13    9.92    5.71
   4   2 -12    3.66    4.25
  -4  -2  12    8.92    5.26
   4   2 -11   92.33    6.70
  -4  -2  11   93.08   21.23
   4   2 -10    3.66    3.45
  -4  -2  10    4.28    3.41
   4   2  -9    4.52    3.40
   4   2  -9   15.90    4.10
  -4  -2   9   20.22    7.08
   4   2  -8 1056.80   14.95
   4   2  -8 1060.14   14.18
  -4  -2   8 1052.45   15.24
   4   2  -7   31.66    4.21
   4   2  -7   36.50    9.33
  -4  -2   7   38.31   12.77
   4   2  -6   35.15    8.27
  -4  -2   6   35.46   11.46
  -4  -2   6   30.18   11.80
   4   2  -5   43.70   12.31
   4   2  -5   43.31    4.85
  -4  -2   5   38.81    4.47
  -4  -2   5   43.15   11.89
   4   2  -4    7.03    3.78
   4   2  -4    8.18    3.84
  -4  -2   4    8.36    6.53
   4   2  -3   46.53   11.36
   4   2  -3   47.19    2.67
  -4  -2   3   34.45    5.05
  -4  -2   3   27.90    3.74
   4   2  -2   15.95    3.69
   4   2  -2   19.01    3.41
  -4  -2   2   21.53    5.37
  -4  -2   2   33.35   11.57
   4   2  -1   14.16    4.93
   4   2  -1    6.39    3.18
  -4  -2   1    8.16    5.54
  -4  -2   1   14.43    5.98
   4   2   0 1755.40   27.91
   4   2   0 1735.60   27.25
  -4  -2   0 1794.74   28.88
  -4  -2   0 1795.55   28.92
   4   2   1  521.03   16.14
  -4  -2  -1  513.87   15.01
  -4  -2  -1  457.74   14.13
  -4  -2  -2  668.88    7.40
  -4  -2  -2  682.45    9.02
  -4  -2  -2  679.12   10.33
  -4  -2  -3  405.66   12.36
  -4  -2  -3  399.28   13.15
  -4  -2  -3  398.43   12.88
  -4  -2  -4  337.67    8.77
  -4  -2  -4  360.70   11.34
  -4  -2  -4  325.52   10.31
  -4  -2  -5  449.63   11.41
  -4  -2  -5  477.77   13.77
  -4  -2  -5  465.28   13.47
  -4  -2  -6  119.72    3.07
  -4  -2  -6  143.80    5.46
  -4  -2  -6  133.81   23.14
  -4  -2  -7  417.30   10.17
  -4  -2  -7  423.72   11.57
  -4  -2  -7  444.32   21.42
  -4  -2  -8   81.85   19.81
  -4  -2  -8  101.24   32.05
  -4  -2  -9   -0.40    3.04
  -4  -2  -9    5.08    4.27
  -4  -2 -10    2.86    2.60
  -4  -2 -10   -1.88    7.06
  -4  -2 -11  106.70   16.81
  -4  -2 -12   -0.11    6.10
  -4  -2 -13   19.94   10.57
  -4  -2 -14    2.44    6.85
   4   3 -19   12.52    5.10
  -4  -3  19   13.93    8.59
   4   3 -18    8.14    7.97
  -4  -3  18    5.13    4.84
   4   3 -17    6.35    5.06
  -4  -3  17    8.10    7.94
   4   3 -16   23.07    7.47
  -4  -3  16   30.21    8.79
   4   3 -15    3.15    5.73
  -4  -3  15    0.80    5.82
   4   3 -14    9.67    5.70
  -4  -3  14    3.06    5.26
   4   3 -13  127.11    6.29
  -4  -3  13  122.45   21.16
   4   3 -12   40.54   12.36
  -4  -3  12   54.94   13.16
   4   3 -11   18.04    4.50
  -4  -3  11   25.79    6.89
   4   3 -10   94.11    4.75
  -4  -3  10  100.51   10.66
   4   3  -9  152.05    8.33
  -4  -3   9  157.15   16.22
   4   3  -8  118.36    4.35
   4   3  -8  121.04    5.53
  -4  -3   8  121.47    6.58
   4   3  -7  136.11    6.78
   4   3  -7  124.30    5.06
  -4  -3   7  129.51    6.22
   4   3  -6   16.06    5.39
  -4  -3   6   10.94    5.83
  -4  -3   6   20.90    8.27
   4   3  -5  528.89   10.04
   4   3  -5  540.17    9.47
  -4  -3   5  553.03   11.37
   4   3  -4    3.79    2.51
   4   3  -4    9.34    3.65
  -4  -3   4    9.16    4.73
  -4  -3   4    5.29    3.64
   4   3  -3 1039.03   17.35
   4   3  -3 1017.96   17.36
  -4  -3   3 1017.45   17.54
  -4  -3   3 1000.76   23.24
   4   3  -2 1429.21   22.63
   4   3  -2 1434.55   23.01
  -4  -3   2 1455.72   23.41
  -4  -3   2 1434.24   25.47
   4   3  -1  696.55   11.87
   4   3  -1  686.22   11.80
  -4  -3   1  723.15   12.48
  -4  -3   1  704.43   12.90
   4   3   0  108.27    6.25
  -4  -3   0  113.22    6.74
  -4  -3   0  116.64   10.85
   4   3   1  826.34   10.27
  -4  -3  -1  809.18   12.32
  -4  -3  -1  811.92   11.39
  -4  -3  -2  508.95    7.91
  -4  -3  -2  524.46    9.65
  -4  -3  -2  506.74    9.57
  -4  -3  -3  327.73    8.60
  -4  -3  -3  340.87   10.44
  -4  -3  -3  332.74   12.73
  -4  -3  -4   13.04    3.58
  -4  -3  -4    6.24    2.22
  -4  -3  -4   18.63    5.87
  -4  -3  -5  319.47    8.95
  -4  -3  -5  322.52    9.52
  -4  -3  -5  361.19   13.75
  -4  -3  -6   29.26    6.08
  -4  -3  -6   40.52    7.72
  -4  -3  -6   45.52   11.28
  -4  -3  -7  248.01    9.01
  -4  -3  -7  247.93   12.33
  -4  -3  -8   49.55    6.52
  -4  -3  -8   60.79    8.76
  -4  -3  -9   -1.03    2.04
  -4  -3  -9   -3.21    6.60
  -4  -3 -10    4.36    7.89
  -4  -3 -11    6.39    6.50
  -4  -3 -12    0.97    4.52
  -4  -3 -13    9.34    5.11
  -4  -4  19   45.55   10.71
   4   4 -18   12.83    7.13
  -4  -4  18    1.54    2.96
   4   4 -17   43.26    8.85
  -4  -4  17   38.65   13.28
   4   4 -16   29.33    7.42
  -4  -4  16   35.93   10.45
   4   4 -15  219.44    8.45
  -4  -4  15  218.28   11.30
   4   4 -14   11.92    6.52
  -4  -4  14   11.18    5.71
   4   4 -13   16.98    6.43
  -4  -4  13   11.63    7.66
   4   4 -12    5.34    4.55
  -4  -4  12    7.25    3.87
   4   4 -11   41.92    6.16
  -4  -4  11   48.47   12.87
   4   4 -10   71.30    4.83
  -4  -4  10   77.66   12.42
   4   4  -9  711.64   18.05
  -4  -4   9  698.05   28.06
   4   4  -8  765.09   13.43
  -4  -4   8  812.22   12.90
  -4  -4   7   67.92    3.86
  -4  -4   7   66.92    8.42
  -4  -4   6   56.50    3.59
  -4  -4   6   53.90    5.43
   4   4  -5   11.45    4.73
  -4  -4   5   14.53    8.29
  -4  -4   5   14.60    4.64
   4   4  -4  648.48   17.79
  -4  -4   4  642.94   17.98
  -4  -4   4  622.83   17.54
   4   4  -3  524.15   14.78
  -4  -4   3  551.71   21.78
  -4  -4   3  501.56   14.99
   4   4  -2  298.58    9.13
  -4  -4   2  304.50   11.95
  -4  -4   2  293.91    9.40
   4   4  -1  160.96    5.77
  -4  -4   1  176.84   10.26
  -4  -4   1  180.88    7.33
   4   4   0  244.99    9.12
  -4  -4   0  259.70    9.28
  -4  -4   0  251.07    9.44
   4   4   1  896.88   13.19
  -4  -4  -1  914.17   13.23
  -4  -4  -1  922.23   14.15
  -4  -4  -2  116.62   11.00
  -4  -4  -2  107.08    6.22
  -4  -4  -3  265.30    7.16
  -4  -4  -3  276.02    7.90
  -4  -4  -3  279.93   11.28
  -4  -4  -4  714.77   19.43
  -4  -4  -4  727.03   19.28
  -4  -4  -4  770.64   22.71
  -4  -4  -5   80.03    4.87
  -4  -4  -5   91.94    3.71
  -4  -4  -5  105.48    7.35
  -4  -4  -6   15.23    6.05
  -4  -4  -6   16.89    7.26
  -4  -4  -6   27.69    8.82
  -4  -4  -7   16.41    5.00
  -4  -4  -7   37.26   12.24
  -4  -4  -8   34.27    3.69
  -4  -4  -9  144.35   30.76
  -4  -4 -10   69.00   27.44
  -4  -4 -11   17.04    8.20
  -4  -4 -12    5.96    9.76
   4   5 -19    5.50    5.51
  -4  -5  19    7.16    3.94
   4   5 -18   13.41    7.07
  -4  -5  18   -0.79    5.97
   4   5 -17    6.91    4.68
  -4  -5  17    2.75    4.40
   4   5 -16   29.60   11.94
  -4  -5  16   41.25   12.90
   4   5 -15  268.97    9.85
  -4  -5  15  263.39   10.18
   4   5 -14   21.00    5.55
  -4  -5  14   35.20    5.97
   4   5 -13   -1.71    4.43
  -4  -5  13   -1.36    5.92
   4   5 -12   24.56    6.31
  -4  -5  12   24.42    7.58
   4   5 -11   44.29    7.49
  -4  -5  11   44.50    5.78
   4   5 -10   55.34   13.94
  -4  -5  10   56.14   11.73
   4   5  -9    1.47    2.43
  -4  -5   9    0.27    1.66
  -4  -5   8   24.57    5.88
  -4  -5   7  230.79   14.12
  -4  -5   7  232.47   10.05
  -4  -5   6   46.95    3.57
  -4  -5   6   49.56   13.67
  -4  -5   5  168.79    5.93
  -4  -5   5  170.04    6.25
  -4  -5   4   42.90    9.20
  -4  -5   4   38.26   12.68
   4   5  -3    1.91    3.31
  -4  -5   3    5.66    2.86
  -4  -5   3    5.63    4.06
   4   5  -2  423.59   12.86
  -4  -5   2  445.80   10.76
  -4  -5   2  449.94    6.80
   4   5  -1  164.21    5.03
  -4  -5   1  176.09   12.12
  -4  -5   1  169.85   12.82
   4   5   0  228.78    8.89
  -4  -5   0  248.40    9.74
  -4  -5   0  248.30   11.25
   4   5   1   31.96    6.40
  -4  -5  -1   15.90    4.42
  -4  -5  -1   39.36    8.65
  -4  -5  -2  123.72    5.55
  -4  -5  -2  116.63    6.43
  -4  -5  -3  190.13    6.03
  -4  -5  -3  210.48    6.85
  -4  -5  -3  204.67   19.07
  -4  -5  -4  117.12    3.56
  -4  -5  -4  129.55    6.09
  -4  -5  -4  136.01    8.68
  -4  -5  -5   14.10    5.59
  -4  -5  -5   12.38    3.65
  -4  -5  -5   39.25    8.30
  -4  -5  -6   12.99    5.49
  -4  -5  -7   20.13    8.42
  -4  -5  -8  197.64   11.33
  -4  -5  -9    3.67    7.13
  -4  -5 -10  121.39   11.69
  -4  -5 -11   -2.39    6.49
  -4  -5 -12   19.39    9.56
   4   6 -19    2.29    5.47
  -4  -6  19    2.56    5.23
   4   6 -18   14.09    7.22
  -4  -6  18   17.93    8.36
   4   6 -17    7.95    3.49
  -4  -6  17    7.45    4.67
   4   6 -16   46.38    8.19
  -4  -6  16   46.04   18.84
   4   6 -15   29.46    8.49
  -4  -6  15   33.85    8.08
   4   6 -14   14.12    5.73
  -4  -6  14   22.54    8.56
   4   6 -13    5.78    5.15
  -4  -6  13    5.41    5.62
   4   6 -12   69.18    7.94
  -4  -6  12   56.56   13.73
   4   6 -11   -0.61    4.77
  -4  -6  11   12.43    4.88
   4   6 -10   -2.56    4.23
  -4  -6  10    0.80    2.17
   4   6  -9    3.39    2.22
  -4  -6   9    3.55    5.51
  -4  -6   8    2.65    4.39
  -4  -6   8   -0.08    4.26
  -4  -6   7   26.37    3.79
  -4  -6   7   29.21    7.27
  -4  -6   6   54.97    4.59
  -4  -6   6   48.71    5.13
  -4  -6   5   -1.46    2.50
  -4  -6   5   -0.36    2.64
  -4  -6   4    1.19    2.13
  -4  -6   4   -0.36    4.41
  -4  -6   3    7.59    4.52
  -4  -6   3    7.76    3.36
   4   6  -2  185.54    7.40
  -4  -6   2  195.07    7.98
  -4  -6   2  191.00    8.57
   4   6  -1  375.23   10.08
  -4  -6   1  407.81   11.44
  -4  -6   1  374.42   12.02
   4   6   0  259.47    7.34
  -4  -6   0  285.30    7.80
  -4  -6   0  279.66    9.04
   4   6   1   25.99    4.34
  -4  -6  -1   28.36    6.05
  -4  -6  -1   30.37    6.61
  -4  -6  -2   52.51    4.54
  -4  -6  -2   58.77    7.23
  -4  -6  -2   64.85   15.85
  -4  -6  -3    4.21    1.72
  -4  -6  -3    5.53    1.97
  -4  -6  -3    6.06    4.30
  -4  -6  -4  154.11    3.48
  -4  -6  -4  151.31   22.03
  -4  -6  -5  139.53    2.96
  -4  -6  -5  144.43   19.91
  -4  -6  -6   22.54    8.64
  -4  -6  -7   -1.99    7.47
  -4  -6  -8  -11.41    7.07
  -4  -6  -9    1.02    5.59
  -4  -6 -10    3.88    6.12
  -4  -6 -11   -4.31    6.46
   4   7 -19   -0.33    3.74
  -4  -7  19    1.21    3.48
   4   7 -18    8.85    4.69
  -4  -7  18   18.83    9.61
   4   7 -17   -1.17    6.12
  -4  -7  17   -0.38    5.94
   4   7 -16    2.79    4.54
  -4  -7  16   10.08    6.33
   4   7 -15   36.86    9.24
  -4  -7  15   17.05    5.92
   4   7 -14   -0.19    5.28
  -4  -7  14   -1.54    5.67
   4   7 -13   48.47    7.99
  -4  -7  13   40.54    8.38
   4   7 -12    0.06    5.71
  -4  -7  12    6.98    6.34
   4   7 -11   72.06    7.50
  -4  -7  11   79.65   11.87
   4   7 -10   68.70    6.24
  -4  -7  10   68.57    9.57
  -4  -7   9  139.86    6.38
  -4  -7   8    5.12    4.53
  -4  -7   8    3.00    3.50
  -4  -7   7  136.20    5.58
  -4  -7   7  145.92    9.67
  -4  -7   6  207.42    8.44
  -4  -7   6  187.51   13.98
  -4  -7   5    3.08    2.62
  -4  -7   5    2.64    1.95
  -4  -7   4   -3.16    3.70
  -4  -7   4   -0.62    4.19
  -4  -7   3   -0.45    2.97
  -4  -7   3   -0.03    4.03
  -4  -7   2   23.40    4.60
  -4  -7   2   27.33    6.06
   4   7  -1  158.82    4.82
  -4  -7   1  180.70    4.61
  -4  -7   1  174.81    6.02
   4   7   0   86.34    4.50
  -4  -7   0   91.73    6.37
  -4  -7   0   95.67   13.29
   4   7   1   82.63    5.03
  -4  -7  -1   87.11    7.49
  -4  -7  -1   97.11   23.47
  -4  -7  -2  376.61    4.77
  -4  -7  -3   41.55    5.00
  -4  -7  -3   54.09   14.10
  -4  -7  -4  104.07    8.38
  -4  -7  -5   19.28    4.67
  -4  -7  -6    4.74    7.42
  -4  -7  -7    0.96    3.58
  -4  -7  -8    2.93    3.21
  -4  -7  -9   21.38    9.33
  -4  -7 -10   17.38    7.49
   4   8 -19    4.66    3.71
  -4  -8  19    4.10    7.25
   4   8 -18   -1.84    6.31
  -4  -8  18    3.35    5.13
   4   8 -17    6.60    6.04
  -4  -8  17    0.19    3.17
   4   8 -16   -1.36    6.40
  -4  -8  16    1.93    6.77
   4   8 -15   16.10    8.24
  -4  -8  15   13.77    5.46
   4   8 -14   13.98    7.13
  -4  -8  14   18.42    6.73
   4   8 -13    0.27    5.50
  -4  -8  13    1.38    3.03
   4   8 -12   23.70   12.16
  -4  -8  12   26.94    8.50
   4   8 -11   15.56    6.76
  -4  -8  11    8.13    5.58
   4   8 -10   16.57    9.60
  -4  -8  10   20.42    4.67
  -4  -8   9    0.27    4.47
  -4  -8   9   15.73    6.60
  -4  -8   8   11.44    5.99
  -4  -8   8   -4.06    5.13
  -4  -8   7  359.20   14.87
  -4  -8   7  346.60   11.80
  -4  -8   6  310.20   11.45
  -4  -8   6  292.66   13.40
  -4  -8   5   66.85   14.01
  -4  -8   5   69.03    4.92
  -4  -8   4    7.49    4.95
  -4  -8   4    5.57    3.73
  -4  -8   3    9.32    4.74
  -4  -8   3   -2.46    4.29
  -4  -8   2   28.19    5.10
  -4  -8   2   29.69    5.75
   4   8  -1    3.11    1.65
  -4  -8   1    0.78    1.77
  -4  -8   1   -2.61    5.12
   4   8   0   -0.37    1.53
  -4  -8   0   -0.75    2.15
  -4  -8   0    2.83    4.35
  -4  -8  -1  238.80    6.23
  -4  -8  -1  249.36   14.31
  -4  -8  -2    0.99    1.01
  -4  -8  -2    4.94    4.06
  -4  -8  -3    4.76    4.96
  -4  -8  -4    8.05    6.20
  -4  -8  -5   52.50   18.51
  -4  -8  -6    5.39    4.07
  -4  -8  -7  243.93   11.80
  -4  -8  -8    4.91    5.79
  -4  -8  -9   18.34    8.37
   4   9 -19    3.77    5.71
  -4  -9  19   11.02    7.24
   4   9 -18   -0.02    6.79
  -4  -9  18    6.44    2.94
   4   9 -17    3.65    4.21
  -4  -9  17   -5.77    6.17
   4   9 -16    6.83    7.05
  -4  -9  16    7.31    6.02
   4   9 -15    8.42    7.75
  -4  -9  15   -1.28    6.80
   4   9 -14    8.99    5.32
  -4  -9  14    1.85    6.96
   4   9 -13   11.89    5.34
  -4  -9  13   10.34    6.66
   4   9 -12   72.80    7.95
  -4  -9  12   62.05   19.66
   4   9 -11   40.24    9.36
  -4  -9  11   41.39    7.41
   4   9 -10  435.29   16.89
  -4  -9  10  421.87   15.86
  -4  -9   9  444.93   16.33
  -4  -9   9  416.01   18.58
  -4  -9   8  259.34   19.61
  -4  -9   8  259.84   20.23
  -4  -9   7  551.76   12.42
  -4  -9   7  508.20    9.80
  -4  -9   6  107.44   15.61
  -4  -9   6  103.02    8.32
  -4  -9   5   61.46   14.01
  -4  -9   5   69.09   15.86
  -4  -9   4   73.77   14.88
  -4  -9   4   72.82   19.41
  -4  -9   3   86.36   16.42
  -4  -9   3   86.39   15.51
  -4  -9   2   35.06    6.14
  -4  -9   2   37.88    6.88
  -4  -9   1   49.45    9.24
  -4  -9   1   52.69   11.79
  -4  -9   0    5.79    3.33
  -4  -9   0    5.70    3.49
  -4  -9  -1   -0.84    1.50
  -4  -9  -1    0.43    2.69
  -4  -9  -2   14.34    4.56
  -4  -9  -3   58.53   19.98
  -4  -9  -4   51.68   20.67
  -4  -9  -5   -0.34    6.43
  -4  -9  -6    4.39    5.62
  -4  -9  -7    2.84    6.22
  -4  -9  -8   14.55    6.20
   4  10 -18    9.22    9.67
  -4 -10  18    7.30    2.82
   4  10 -17   -1.72    5.98
  -4 -10  17    4.03    6.62
   4  10 -16   19.30    6.83
  -4 -10  16    8.72    5.03
   4  10 -15   13.03    7.79
  -4 -10  15   -1.78    5.82
   4  10 -14   14.50    8.51
  -4 -10  14   10.24    6.15
   4  10 -13   -0.46    5.46
  -4 -10  13    9.86    9.32
   4  10 -12    8.41    5.95
  -4 -10  12   16.42    7.53
   4  10 -11   18.95    6.69
  -4 -10  11    9.48    4.43
  -4 -10  10   -1.60    6.45
  -4 -10   9  219.19    8.36
  -4 -10   9  240.93    9.14
  -4 -10   8  207.61    9.26
  -4 -10   8  196.86   19.37
  -4 -10   7   19.80    5.31
  -4 -10   7    5.24    7.46
  -4 -10   6    1.65    4.16
  -4 -10   6   -0.29    5.10
  -4 -10   5  134.98   12.53
  -4 -10   5  126.94   11.14
  -4 -10   4   -0.36    4.41
  -4 -10   4   -5.05    4.56
  -4 -10   3   12.99    7.53
  -4 -10   3    3.89    6.34
  -4 -10   2   26.22    5.09
  -4 -10   2   25.55    5.99
  -4 -10   1    6.25    2.59
  -4 -10   1   18.01    5.81
  -4 -10   0    5.48    2.21
  -4 -10   0    9.35    5.38
  -4 -10  -1   30.37   12.05
  -4 -10  -2   38.31   13.52
  -4 -10  -3   46.04   16.68
  -4 -10  -4   89.09    9.54
  -4 -10  -5    4.95    4.55
  -4 -10  -6   14.46    7.00
   4  11 -18    9.94    6.40
  -4 -11  18    9.45    6.76
   4  11 -17   15.21    9.45
  -4 -11  17    8.11    2.44
   4  11 -16    5.67    6.25
  -4 -11  16    6.61    5.91
   4  11 -15   55.78    7.96
   4  11 -14   -1.62    2.89
  -4 -11  14    0.73    5.51
   4  11 -13   17.37    8.95
  -4 -11  13   23.30    7.54
   4  11 -12    4.89    4.51
  -4 -11  12   14.02    8.95
   4  11 -11   -2.56    6.59
  -4 -11  11   -0.68    5.05
  -4 -11  10  197.04    9.72
  -4 -11  10  178.49   26.36
  -4 -11   9  138.84   11.57
  -4 -11   9  146.44   25.87
  -4 -11   8   52.94   12.59
  -4 -11   8   52.47   12.23
  -4 -11   7   35.27    4.45
  -4 -11   7   35.93    8.23
  -4 -11   6   40.69    9.01
  -4 -11   6   39.94    9.49
  -4 -11   5   -5.30    3.93
  -4 -11   5    4.92    3.03
  -4 -11   4   13.91    4.90
  -4 -11   4    7.66    5.47
  -4 -11   3   57.68   11.46
  -4 -11   3   77.86   15.41
  -4 -11   2    2.44    2.34
  -4 -11   2    6.05    6.89
  -4 -11   1    6.03    3.92
  -4 -11   0    6.17    4.28
  -4 -11  -1   14.30    6.17
  -4 -11  -2    6.95    3.42
  -4 -11  -3   17.84   10.25
  -4 -11  -4    4.84    5.04
  -4 -11  -5    3.45    4.22
   4  12 -17    4.91    6.66
  -4 -12  17    8.04    8.38
   4  12 -16   13.19    8.25
  -4 -12  16    8.65    8.39
   4  12 -15   33.80    9.08
  -4 -12  15   37.71   12.28
   4  12 -14    8.00    4.86
  -4 -12  14    7.30    5.28
   4  12 -13  139.99   10.72
  -4 -12  13  134.90   15.20
   4  12 -12   24.15    9.60
  -4 -12  12   15.39    5.07
   4  12 -11   44.63    9.90
  -4 -12  11   35.51   13.95
  -4 -12  10   31.26    7.09
  -4 -12  10   25.98    8.13
  -4 -12   9   13.92    5.94
  -4 -12   9   12.18    5.80
  -4 -12   8   63.33   15.42
  -4 -12   8   69.54   12.60
  -4 -12   7   26.35    6.88
  -4 -12   7   28.31    9.52
  -4 -12   6  182.01    7.19
  -4 -12   6  162.23   30.62
  -4 -12   5   35.18    8.22
  -4 -12   5   41.66   10.33
  -4 -12   4   95.99    9.56
  -4 -12   4  105.18   22.63
  -4 -12   3   20.22    5.83
  -4 -12   3   29.53    9.20
  -4 -12   2  122.44   28.27
  -4 -12   1    7.23    6.39
  -4 -12   0    8.44    5.38
  -4 -12  -1   11.44    5.28
  -4 -12  -2    8.35    7.09
  -4 -12  -3   22.92    8.42
   4  13 -16   16.93    7.19
  -4 -13  16   22.63    9.78
   4  13 -15   49.08   20.81
  -4 -13  15   60.46   17.29
   4  13 -14   31.45    6.54
  -4 -13  14   27.03    7.80
   4  13 -13   31.16    9.56
  -4 -13  13   21.70    9.69
   4  13 -12    4.20    6.64
  -4 -13  12   15.00    5.70
   4  13 -11    2.41    6.70
  -4 -13  11   -0.50    5.30
  -4 -13  10   -2.42    4.88
  -4 -13  10    7.76    4.09
  -4 -13   9  164.52   21.29
  -4 -13   9  155.89   12.95
  -4 -13   8    0.53    3.96
  -4 -13   8   -2.51    6.03
  -4 -13   7  167.11   21.74
  -4 -13   7  148.99   29.43
  -4 -13   6   32.20    6.64
  -4 -13   6   29.64    8.06
  -4 -13   5    4.44    2.35
  -4 -13   5    9.29    7.64
  -4 -13   4    3.63    3.57
  -4 -13   4    5.05    4.58
  -4 -13   3    4.00    4.08
  -4 -13   2    6.94    4.52
  -4 -13   1  152.35   39.31
  -4 -13   0    6.24    8.51
  -4 -13  -1    8.27    7.05
  -4 -13  -2    6.71    3.68
   4  14 -14    0.55    6.22
  -4 -14  14   -1.05    5.67
   4  14 -13   33.74   23.64
  -4 -14  13   14.52    7.59
   4  14 -12    0.55    7.39
  -4 -14  12   -1.20    5.09
   4  14 -11    1.28    8.58
  -4 -14  11    2.05    4.40
  -4 -14  10    3.09    3.27
  -4 -14  10    4.25    4.90
  -4 -14   9   -2.65    4.10
  -4 -14   9   -2.51    5.87
  -4 -14   8   56.94   15.63
  -4 -14   8   65.95   16.37
  -4 -14   7   69.41    5.49
  -4 -14   7   66.01   17.27
  -4 -14   6   -0.15    3.13
  -4 -14   6    5.83    3.39
  -4 -14   5    8.57    5.96
  -4 -14   4    7.66    5.35
  -4 -14   3    5.25    2.75
  -4 -14   2   45.78   15.42
  -4 -14   1   53.10   18.88
   4  15 -12   15.17    6.74
  -4 -15  12    8.02    4.96
   4  15 -11   85.68   15.45
  -4 -15  11   48.95   18.41
  -4 -15  10    8.40    5.51
  -4 -15  10    8.45    3.65
  -4 -15   9   10.70    4.88
  -4 -15   9   12.38    5.40
  -4 -15   8   16.83    6.65
  -4 -15   8   18.76    8.70
  -4 -15   7    8.75    5.49
  -4 -15   6   59.43   20.22
  -4 -15   5    4.91    4.82
  -4 -15   4    4.87    3.97
  -4 -15   3    8.97    9.32
   5 -18   0   38.20   17.48
   5 -18   1    9.82    6.59
  -5  18  -2    8.56    4.64
  -5  18  -3    9.17    5.00
  -5  18  -4   21.07    7.43
   5 -18   5    6.66    3.45
  -5  18  -5    9.16    5.55
   5 -18   6   -0.40    1.59
   5 -18   7    6.48    3.97
  -5  18  -7    3.55    9.49
   5 -18   8    8.64    2.20
  -5  18  -8    5.41    6.33
   5 -18   9   -3.97    5.00
  -5  18  -9   -6.52    7.08
   5 -18  10    1.51    2.87
  -5  18 -10   -8.84    6.75
   5 -17  -2    7.43    3.65
   5 -17  -1   18.80    7.48
   5 -17   0    4.37    3.54
   5 -17   1   53.34   19.10
  -5  17  -2   29.28    6.64
   5 -17   3    8.73    2.44
  -5  17  -3   24.97    6.83
   5 -17   4    4.48    3.28
  -5  17  -4    0.52    5.25
   5 -17   5    4.49    3.11
  -5  17  -5    9.03    6.49
   5 -17   6    6.20    2.27
  -5  17  -6    7.36    6.84
   5 -17   7    3.27    2.42
  -5  17  -7   -3.81    7.34
   5 -17   8   12.39    6.02
  -5  17  -8   -0.11    7.71
   5 -17   9    3.91    2.67
  -5  17  -9   23.74    7.54
   5 -17  10    8.86    4.89
  -5  17 -10    1.87    7.00
   5 -17  11    2.99    5.15
  -5  17 -11    8.26    4.73
   5 -17  12   10.10    5.68
  -5  17 -12    5.11    4.45
   5 -16  -5    1.62    2.24
   5 -16  -4    3.46    3.35
   5 -16  -3    6.42    5.70
   5 -16  -2   16.69    6.69
   5 -16  -1   -2.98    4.20
   5 -16   0   12.84    5.01
   5 -16   1    1.23    3.04
   5 -16   2    3.36    4.46
  -5  16  -2   -0.96    5.00
   5 -16   3   -0.69    4.12
  -5  16  -3    1.59    5.26
   5 -16   4    1.87    3.08
  -5  16  -4   -0.68    5.74
   5 -16   5   -2.36    4.63
  -5  16  -5    5.10    6.28
   5 -16   6    1.97    5.58
  -5  16  -6    9.48    6.97
   5 -16   7   11.57    3.48
  -5  16  -7   17.74   10.30
   5 -16   8   -5.81    5.35
  -5  16  -8   -3.68    6.72
   5 -16   9    4.67    4.79
  -5  16  -9    2.77    4.66
   5 -16  10   -4.36    6.22
  -5  16 -10    5.97    7.29
   5 -16  11   20.95    7.38
  -5  16 -11    1.90    7.65
   5 -16  12    5.75    6.36
  -5  16 -12    4.71    4.76
   5 -16  13   -6.76    5.88
  -5  16 -13    1.85    5.24
   5 -15  -6    1.12    3.71
   5 -15  -5   12.03    7.86
   5 -15  -4   11.77    7.61
   5 -15  -3   86.31   11.15
   5 -15  -2   36.53   12.66
   5 -15  -1    6.85    4.12
   5 -15   0    9.93    4.37
   5 -15   1   10.58    4.91
   5 -15   1   18.50    5.10
   5 -15   2   10.45    3.91
  -5  15  -2   11.19    4.55
   5 -15   3    3.24    2.80
  -5  15  -3    3.34    4.90
  -5  15  -4   43.05   14.94
   5 -15   5   30.81    7.79
  -5  15  -5   31.10    9.46
   5 -15   6   22.95    5.94
  -5  15  -6   17.67    4.87
   5 -15   7    0.29    4.41
  -5  15  -7    3.96    6.95
   5 -15   8   27.54   10.07
  -5  15  -8   23.03   10.46
   5 -15   9    7.56    4.70
  -5  15  -9    6.30    7.22
   5 -15  10    7.93    3.43
  -5  15 -10    5.44    4.44
   5 -15  11    9.06    6.81
  -5  15 -11   -1.51    6.71
   5 -15  12   -0.52    7.32
  -5  15 -12   -8.85    6.98
   5 -15  13   12.66    4.93
  -5  15 -13   13.66    8.76
   5 -15  14   35.55   11.58
   5 -14  -7    7.69    4.14
   5 -14  -6   15.79    6.28
   5 -14  -5   37.86   14.68
   5 -14  -4  133.83   19.73
   5 -14  -3    8.11    4.90
   5 -14  -2  407.46   14.58
   5 -14  -1  104.86   11.53
   5 -14   0   92.85   11.56
  -5  14   0   93.72    4.67
   5 -14   1  410.51    7.85
   5 -14   1  413.13    9.76
   5 -14   2   56.96   18.61
  -5  14  -2  100.60    8.49
   5 -14   3   39.84   13.00
  -5  14  -3   57.94   11.92
   5 -14   4    0.80    3.28
  -5  14  -4   -0.14    2.96
   5 -14   5   39.56   14.21
  -5  14  -5   42.81    9.63
   5 -14   6    8.36    3.15
  -5  14  -6   -1.25    6.21
   5 -14   7   82.12   16.55
  -5  14  -7   94.96   10.25
   5 -14   8   -1.06    5.26
  -5  14  -8   -0.49    6.90
   5 -14   9   11.02    4.41
  -5  14  -9    8.76    6.63
   5 -14  10   12.08    4.78
  -5  14 -10   14.62    7.03
   5 -14  11    3.11    5.71
  -5  14 -11    0.57    7.50
   5 -14  12    6.19    4.02
  -5  14 -12    7.14    6.98
   5 -14  13   20.55    5.00
  -5  14 -13    7.17    5.58
   5 -14  14  105.51   32.95
  -5  14 -14  158.26   15.62
   5 -14  15    9.48    5.36
  -5  14 -15   17.53    7.77
   5 -13  -8   -2.33    3.10
   5 -13  -6    1.07    1.73
   5 -13  -5   10.69    5.70
   5 -13  -4    4.57    2.93
   5 -13  -3  170.78   18.45
   5 -13  -2   95.32   19.94
  -5  13   2   97.06    4.13
   5 -13  -1   75.93   19.13
  -5  13   1   78.87    4.44
   5 -13   0  310.53    8.48
   5 -13   1  140.39    7.41
   5 -13   1  148.51   20.23
   5 -13   2   35.18    9.96
  -5  13  -2   43.31    9.09
   5 -13   3   87.85   11.32
  -5  13  -3   86.57    8.58
   5 -13   4   -1.40    5.17
  -5  13  -4    3.02    5.18
   5 -13   5   10.11    3.53
  -5  13  -5   -0.06    5.73
   5 -13   6  148.16   22.02
  -5  13  -6  135.53    8.26
   5 -13   7   32.37    7.22
  -5  13  -7   54.20    9.34
   5 -13   8   14.34    4.75
  -5  13  -8    0.97    6.67
   5 -13   9    4.99    2.76
  -5  13  -9    8.05    7.11
   5 -13  10   14.01    4.58
  -5  13 -10   22.48    9.74
   5 -13  11   16.50    5.45
  -5  13 -11    6.07    4.31
   5 -13  12    8.84    5.61
  -5  13 -12    7.42    6.51
   5 -13  13   10.35    4.35
  -5  13 -13    8.17    3.81
   5 -13  14   24.29   22.00
  -5  13 -14   26.29   10.52
   5 -13  15    6.83    6.42
  -5  13 -15    7.53    5.58
   5 -12  -9    5.18    3.40
   5 -12  -8    5.57    3.22
   5 -12  -7  194.98    7.29
   5 -12  -6    1.18    2.89
   5 -12  -5   55.90    7.39
   5 -12  -4  182.81   13.39
   5 -12  -3   45.41   11.66
  -5  12   3   38.14    8.19
   5 -12  -2   57.35   14.84
  -5  12   2   59.48    8.64
   5 -12  -1  124.31   15.48
  -5  12   1  118.98    4.60
   5 -12   0  380.79    7.89
   5 -12   1   12.28    4.53
   5 -12   2   11.06    4.20
  -5  12  -2    7.00    6.89
   5 -12   3    7.60    2.51
  -5  12  -3   16.22    5.94
   5 -12   4  110.33   18.92
  -5  12  -4  120.17   10.02
   5 -12   5    5.58    1.79
  -5  12  -5    4.59    6.63
   5 -12   6    9.87    4.09
  -5  12  -6    2.51    6.40
   5 -12   7   17.44    7.63
  -5  12  -7   14.73    8.38
   5 -12   8   12.04    5.49
  -5  12  -8   11.90    9.55
   5 -12   9    8.22    3.65
  -5  12  -9   17.75    7.28
   5 -12  10    2.97    4.70
  -5  12 -10   -2.95    7.39
   5 -12  11   -0.14    6.68
  -5  12 -11    5.10    3.87
   5 -12  12   -2.20    6.38
  -5  12 -12   -1.02    7.05
   5 -12  13   78.54   15.39
  -5  12 -13   86.37   11.33
   5 -12  14   12.00    3.45
  -5  12 -14    6.91    8.69
   5 -12  15   36.79   10.01
  -5  12 -15   47.34   17.65
   5 -12  16   31.34   12.41
  -5  12 -16   59.08   14.14
   5 -11 -10    9.30    2.64
   5 -11  -9    1.72    1.83
   5 -11  -8    3.62    2.41
   5 -11  -7    5.40    2.06
   5 -11  -6    1.13    1.35
   5 -11  -5   83.33   15.41
   5 -11  -4   57.44    5.71
  -5  11   4   39.30    3.82
   5 -11  -3 1224.26   11.44
  -5  11   3 1230.91    9.64
   5 -11  -1  348.20   10.27
  -5  11   1  313.02   12.12
   5 -11   0  792.36   20.64
   5 -11   0  786.39   19.21
   5 -11   1    8.22    2.76
  -5  11  -1   28.21    5.76
   5 -11   2   53.71    8.07
  -5  11  -2   31.47    6.16
   5 -11   3   28.13    9.27
  -5  11  -3   29.74    6.30
   5 -11   4   14.22    5.73
  -5  11  -4    4.31    5.36
   5 -11   5    4.08    2.12
  -5  11  -5   12.37    8.05
   5 -11   6    2.32    4.85
  -5  11  -6   10.72    6.21
   5 -11   7   95.30   20.28
  -5  11  -7   86.62   10.16
   5 -11   8    6.95    3.02
  -5  11  -8    2.22    6.70
   5 -11   9    2.50    4.83
  -5  11  -9   -5.09    6.55
   5 -11  10    7.51    4.38
  -5  11 -10    9.99    4.77
   5 -11  11   15.17    8.18
  -5  11 -11   -0.14    7.34
   5 -11  12    1.33    4.59
  -5  11 -12   -0.52    7.29
   5 -11  13    7.05    4.23
  -5  11 -13   13.21   12.21
   5 -11  14   -0.13    6.04
  -5  11 -14    5.71    5.73
   5 -11  15    7.61    5.13
  -5  11 -15   16.83    8.20
   5 -11  16   -0.75    6.51
  -5  11 -16    6.81    7.97
   5 -10 -11    0.43    2.16
   5 -10 -10    5.21    2.87
   5 -10  -9   12.25    5.35
   5 -10  -8    0.70    2.71
   5 -10  -7  108.65   12.19
   5 -10  -6   10.23    3.93
  -5  10   6    2.16    1.07
   5 -10  -5    0.26    2.41
  -5  10   5    5.01    1.61
   5 -10  -4   10.67    4.47
  -5  10   4    2.35    1.30
  -5  10   4    4.82    1.50
   5 -10  -3  313.60    9.43
  -5  10   3  302.65    8.14
  -5  10   3  279.20    6.75
   5 -10  -2  188.06    9.15
  -5  10   2  177.07    4.99
  -5  10   2  150.23    4.74
   5 -10  -1   86.29   10.46
  -5  10   1   79.08    8.72
   5 -10   0    6.54    2.50
   5 -10   0    4.92    3.14
   5 -10   1    6.59    3.92
  -5  10  -1    4.31    2.64
   5 -10   2   -3.67    4.12
  -5  10  -2   -3.70    3.13
   5 -10   3   78.16   12.83
  -5  10  -3   66.00    8.10
   5 -10   4  118.92   11.73
  -5  10  -4  110.64    7.12
   5 -10   5    4.10    2.83
  -5  10  -5    2.76    2.42
   5 -10   6    3.55    1.29
  -5  10  -6    7.03    4.34
   5 -10   7    0.93    1.68
  -5  10  -7    3.23    6.69
   5 -10   8   11.34    6.23
  -5  10  -8   15.10    6.70
   5 -10   9   -3.65    6.04
  -5  10  -9   -4.85    6.33
   5 -10  10   21.20    5.67
  -5  10 -10   15.23    7.41
   5 -10  11   81.45   14.13
  -5  10 -11   72.47    9.68
   5 -10  12   27.06    8.01
  -5  10 -12   37.57   10.63
   5 -10  13   46.78   11.60
  -5  10 -13   34.48   15.07
   5 -10  14   65.55   12.83
  -5  10 -14   85.88   12.29
  -5  10 -15   26.84    7.79
   5 -10  16    7.63    6.18
  -5  10 -16   -1.48    7.53
   5  -9 -12   -1.22    2.70
   5  -9 -11   73.28   16.46
   5  -9 -10    8.04    4.29
   5  -9  -9   36.59    8.14
   5  -9  -8   35.06   12.89
   5  -9  -7   20.84    5.18
  -5   9   7    6.59    3.05
   5  -9  -6  105.28    8.51
  -5   9   6  103.14    4.62
   5  -9  -5   28.36    7.05
  -5   9   5   27.54    6.70
  -5   9   5   28.70    2.72
   5  -9  -4    5.05    2.39
  -5   9   4    6.00    2.33
  -5   9   4    5.81    2.53
   5  -9  -3  207.30   12.06
  -5   9   3  199.39    7.22
  -5   9   3  197.78    5.74
   5  -9  -2    0.60    2.01
  -5   9   2    5.57    3.39
  -5   9   2   -0.25    1.44
  -5   9   2   -1.00    1.38
   5  -9  -1  277.29   11.77
  -5   9   1  273.36    8.31
  -5   9   1  264.73    7.10
   5  -9   0    6.48    3.16
  -5   9   0    7.26    4.17
   5  -9   1  112.14   13.25
  -5   9  -1  100.41    5.81
   5  -9   2   37.44    7.43
  -5   9  -2   27.38    5.03
   5  -9   3   65.71   12.39
  -5   9  -3   62.70    5.29
   5  -9   4    7.20    3.64
  -5   9  -4    4.98    3.71
   5  -9   5    0.50    2.35
  -5   9  -5   -0.55    3.32
   5  -9   6   73.88   15.90
  -5   9  -6   65.61    6.04
   5  -9   7   72.84   14.29
  -5   9  -7   77.36    7.30
   5  -9   8   11.19    3.87
  -5   9  -8   23.12    6.58
   5  -9   9   -3.72    5.30
  -5   9  -9   13.20    6.88
   5  -9  10   51.92   10.93
  -5   9 -10   52.76   14.10
   5  -9  11   87.10   16.17
  -5   9 -11   54.91   20.07
   5  -9  12    7.90    4.28
  -5   9 -12   -9.27    8.49
   5  -9  13   70.56   20.23
  -5   9 -13   66.76   21.49
   5  -9  14  103.40   29.26
  -5   9 -14  110.35   29.18
   5  -9  15   73.10   30.87
  -5   9 -15  137.09   22.97
   5  -9  16   -0.49    6.70
  -5   9 -16   -2.78    5.35
   5  -8 -12   24.48    9.81
   5  -8 -11    2.36    1.85
   5  -8 -10   32.65    9.42
   5  -8  -9    4.13    1.80
   5  -8  -8    2.67    2.70
  -5   8   8    8.68    2.43
   5  -8  -7   -0.22    1.48
  -5   8   7    1.75    1.16
  -5   8   7    0.10    0.52
   5  -8  -6   12.64    3.69
  -5   8   6    6.12    2.10
  -5   8   6   10.15    2.26
  -5   8   6   10.91    1.91
   5  -8  -5    5.86    2.18
  -5   8   5    6.71    2.95
  -5   8   5    2.24    1.45
  -5   8   5    1.86    1.18
   5  -8  -4    4.85    2.26
  -5   8   4    8.07    3.20
  -5   8   4    5.38    2.25
  -5   8   4    3.51    1.41
   5  -8  -3   66.02   10.91
  -5   8   3   59.45    6.30
  -5   8   3   55.02    2.56
  -5   8   3   53.70    2.67
   5  -8  -2  134.18   11.33
  -5   8   2  133.05    6.23
  -5   8   2  124.90    4.81
  -5   8   2  130.71    5.60
   5  -8  -1    0.44    0.97
  -5   8   1    1.31    0.86
  -5   8   1    1.21    1.27
  -5   8   1   -0.37    1.28
   5  -8   0   22.91    5.69
  -5   8   0   23.99    4.87
  -5   8   0   15.96    3.48
   5  -8   1  560.41   10.10
  -5   8  -1  562.30    8.45
  -5   8  -1  566.01    9.10
   5  -8   2  155.51    9.79
  -5   8  -2  132.37    7.17
   5  -8   3   92.00   16.57
  -5   8  -3   82.78    6.44
   5  -8   4   58.88   15.18
  -5   8  -4   65.43    7.73
   5  -8   5   86.08    7.53
  -5   8  -5   79.04    6.78
   5  -8   6   66.77   15.05
  -5   8  -6   56.97   13.12
   5  -8   7  234.74    8.77
  -5   8  -7  218.23    9.18
   5  -8   8   -7.09    4.50
  -5   8  -8   -1.85    4.94
   5  -8   9   78.67   16.44
  -5   8  -9   82.56    8.35
   5  -8  10  248.24   15.84
  -5   8 -10  246.98   11.92
   5  -8  11   -0.67    5.82
  -5   8 -11    1.81    6.54
   5  -8  12   28.83    5.71
  -5   8 -12   26.43    7.61
   5  -8  13   48.56   10.05
   5  -8  14    4.96    3.46
  -5   8 -14    8.82    7.87
   5  -8  15   13.71   12.23
  -5   8 -15   -2.88    8.44
   5  -8  16    3.91    5.96
  -5   8 -16  -11.87    8.08
   5  -7 -13    4.85    2.75
   5  -7 -11    3.21    3.97
   5  -7 -10   12.01    4.64
  -5   7  10    8.95    3.03
  -5   7   9   23.22    3.37
   5  -7  -8   21.07    7.98
   5  -7  -8   20.67    5.04
  -5   7   8   10.33    3.38
   5  -7  -7    1.52    2.00
   5  -7  -7   -0.39    1.47
  -5   7   7   -1.75    1.56
  -5   7   7    0.89    0.88
   5  -7  -6   55.38    6.04
  -5   7   6   59.55   12.05
  -5   7   6   51.85    5.47
  -5   7   6   45.47    3.56
   5  -7  -5    1.51    1.84
  -5   7   5    1.36    2.03
  -5   7   5    2.71    1.18
  -5   7   5    3.01    1.33
   5  -7  -4   25.40    6.24
  -5   7   4   18.67    6.21
  -5   7   4   21.06    4.06
  -5   7   4   33.20    3.80
   5  -7  -3  105.57    9.18
  -5   7   3  101.50    4.64
  -5   7   3   96.85    5.76
  -5   7   3  111.27    6.02
   5  -7  -2   72.56   11.23
  -5   7   2   68.28    5.84
  -5   7   2   66.74    5.30
  -5   7   2   70.36    4.43
  -5   7   1    4.19    2.24
  -5   7   1    5.15    3.31
  -5   7   1    4.87    1.43
  -5   7   1    2.41    2.63
  -5   7   0   -1.07    1.80
  -5   7   0   -0.17    0.97
  -5   7   0   -0.34    2.38
   5  -7   1   73.70    6.59
  -5   7  -1   79.58    6.10
  -5   7  -1   85.56    4.11
   5  -7   2  557.20   15.71
  -5   7  -2  531.03   14.56
  -5   7  -2  579.47   16.43
   5  -7   3  609.24    9.93
  -5   7  -3  612.37    9.86
   5  -7   4  141.05   11.07
  -5   7  -4  142.09    7.12
   5  -7   5  151.89   17.78
  -5   7  -5  133.61    8.05
   5  -7   6  166.96    8.47
  -5   7  -6  173.15    9.07
   5  -7   7    3.25    1.66
  -5   7  -7    3.22    3.36
   5  -7   8   -2.69    4.25
  -5   7  -8   -2.37    5.00
   5  -7   9  247.85   16.22
  -5   7  -9  272.55   22.46
   5  -7  10   13.11    6.12
  -5   7 -10   18.25    8.56
   5  -7  11   49.92   14.84
  -5   7 -11   75.05   17.61
   5  -7  12    1.94    4.51
  -5   7 -12   -6.46    8.75
   5  -7  13    6.24    4.70
  -5   7 -13    8.43    9.42
   5  -7  14   36.36   13.18
  -5   7 -14   40.16   12.73
   5  -7  15    0.79    3.63
  -5   7 -15    3.16   11.35
   5  -7  16   20.32    9.59
  -5   7 -16   20.06    8.68
   5  -6 -14   69.84    6.41
   5  -6 -13   77.75    6.78
   5  -6 -12    0.95    2.78
   5  -6 -11    4.04    2.77
  -5   6  11   -2.65    2.18
   5  -6 -10   -1.60    2.60
  -5   6  10   -0.42    0.79
   5  -6  -9   14.60    6.23
   5  -6  -9    8.67    2.47
  -5   6   9   11.05    2.61
   5  -6  -8    3.90    2.20
   5  -6  -8    2.67    1.34
  -5   6   8   -2.02    2.13
  -5   6   8    3.72    2.27
   5  -6  -7   11.00    3.03
   5  -6  -7   16.23    2.90
  -5   6   7    9.60    3.23
  -5   6   7   16.15    2.27
   5  -6  -6   38.74    5.96
   5  -6  -6   35.28    4.41
  -5   6   6   39.05    7.24
  -5   6   6   33.51    4.36
   5  -6  -5    3.94    1.94
   5  -6  -5    6.19    2.40
  -5   6   5    3.72    2.83
  -5   6   5    4.12    1.40
   5  -6  -4  113.69    7.01
  -5   6   4  119.62    4.50
  -5   6   4  116.86    2.65
   5  -6  -3   28.17    6.76
  -5   6   3   34.17    7.70
  -5   6   3   41.61    3.57
  -5   6   3   44.33    4.99
  -5   6   2   33.69    6.75
  -5   6   2   34.36   11.43
  -5   6   2   40.12    4.66
  -5   6   2   37.70    7.22
  -5   6   1    1.16    1.03
  -5   6   1   -0.51    3.18
  -5   6   1    1.82    1.12
  -5   6   1    2.42    1.99
  -5   6   0  149.28    6.14
  -5   6   0  154.58   12.73
  -5   6   0  143.73    4.90
  -5   6   0  153.13    5.82
   5  -6   1   18.47    6.24
  -5   6  -1   17.93    4.94
  -5   6  -1   12.40    4.15
   5  -6   2   46.49   10.79
   5  -6   2   41.12    8.11
  -5   6  -2   36.40    4.57
   5  -6   3   21.63    4.10
   5  -6   3   26.85    4.46
  -5   6  -3   26.92    6.88
   5  -6   4  128.63   16.11
  -5   6  -4  148.95    6.84
   5  -6   5  273.49    9.81
  -5   6  -5  274.04   10.57
   5  -6   6  138.58    7.41
  -5   6  -6  131.13   19.66
   5  -6   7   54.66   10.59
  -5   6  -7   48.73    6.90
   5  -6   8    7.14    3.33
  -5   6  -8   12.31    4.88
   5  -6   9  185.05   15.12
  -5   6  -9  168.08    8.30
   5  -6  10  279.82   12.25
  -5   6 -10  281.86   21.03
   5  -6  11   38.75    9.32
  -5   6 -11   42.92   10.88
   5  -6  12    6.10    3.53
  -5   6 -12    6.22    7.33
   5  -6  13    7.30    4.77
  -5   6 -13    5.40    8.36
   5  -6  14    3.58    5.02
  -5   6 -14    3.36    4.95
   5  -6  15    9.95    5.32
  -5   6 -15    3.69    6.13
   5  -6  16    3.87    4.32
  -5   6 -16    6.76    9.09
   5  -5 -14   68.19    5.93
   5  -5 -13   15.73    5.23
  -5   5  12   36.00    5.16
   5  -5 -11    2.29    3.43
  -5   5  11   -2.59    2.58
   5  -5 -10  374.84    6.97
  -5   5  10  384.75    6.16
   5  -5  -9    3.76    2.27
   5  -5  -9    7.58    2.63
  -5   5   9    3.63    1.77
  -5   5   9    2.49    1.83
   5  -5  -8   45.19    3.33
   5  -5  -8   40.33    4.27
  -5   5   8   46.63   10.21
  -5   5   8   37.51    3.49
   5  -5  -7   22.07    6.25
   5  -5  -7   22.10    4.32
  -5   5   7   13.81    6.07
  -5   5   7   23.56    4.42
   5  -5  -6   26.70    5.28
   5  -5  -6   33.91    3.03
  -5   5   6   24.53    5.31
  -5   5   6   34.58    4.48
   5  -5  -5   -0.19    1.05
   5  -5  -5    1.28    2.49
  -5   5   5    0.56    2.57
  -5   5   5    5.06    1.37
   5  -5  -4  236.84    8.93
   5  -5  -4  223.80    8.77
  -5   5   4  233.84    8.16
  -5   5   4  222.40    6.53
   5  -5  -3 1284.66   14.69
  -5   5   3 1313.19   15.55
  -5   5   3 1325.63   14.06
  -5   5   2   58.74    5.18
  -5   5   2   62.80   11.13
  -5   5   2   47.92    3.80
  -5   5   2   59.98    9.45
  -5   5   1   92.68    9.59
  -5   5   1   93.36   13.15
  -5   5   1   89.92    5.03
  -5   5   1   92.52    4.16
   5  -5   0    2.89    2.01
  -5   5   0    1.41    1.29
  -5   5   0   -0.09    2.81
  -5   5   0    3.81    4.62
   5  -5   1   63.27    8.18
  -5   5  -1   63.61    5.18
  -5   5  -1   62.88   14.74
   5  -5   2   13.85    5.33
   5  -5   2   19.99    4.21
  -5   5  -2   28.95    8.93
   5  -5   3 1918.09   22.09
   5  -5   3 1874.06   20.71
  -5   5  -3 1955.19   22.77
   5  -5   4  525.57   14.98
  -5   5  -4  526.07   15.40
   5  -5   5  181.73   15.16
  -5   5  -5  164.09    7.60
   5  -5   6   72.67    8.94
  -5   5  -6   80.40   15.58
   5  -5   7  243.53   16.64
  -5   5  -7  230.24    8.93
   5  -5   8  130.54    6.61
  -5   5  -8  122.05    7.20
   5  -5   9    3.04    4.32
  -5   5  -9   11.49    5.21
   5  -5  10  155.37   15.96
  -5   5 -10  141.22   22.28
   5  -5  11    4.31    5.19
  -5   5 -11   11.73    7.39
   5  -5  12   20.63    6.20
  -5   5 -12   21.21    9.71
   5  -5  13    1.80    3.72
  -5   5 -13    3.26    4.33
   5  -5  14   55.85   21.56
  -5   5 -14   55.88   17.47
   5  -5  15   15.41    4.79
  -5   5 -15   26.50   11.22
   5  -5  16    0.64    3.36
  -5   5 -16    5.43    8.04
   5  -4 -15   33.03   13.58
   5  -4 -14   21.04    5.18
  -5   4  14   29.04    5.94
   5  -4 -13  275.29    7.10
  -5   4  13  262.21   10.16
   5  -4 -12   37.93    9.09
  -5   4  12   46.19    8.02
   5  -4 -11 1178.78   33.45
  -5   4  11 1153.92   32.88
   5  -4 -10  547.39   14.74
  -5   4  10  555.10   17.77
  -5   4  10  482.56   11.47
   5  -4  -9   64.16    6.73
   5  -4  -9   54.63    5.20
  -5   4   9   74.68    9.45
  -5   4   9   56.64    2.67
   5  -4  -8   73.13    6.35
   5  -4  -8   75.07    6.18
  -5   4   8   83.07    6.98
  -5   4   8   70.55    3.41
   5  -4  -7    1.58    1.39
   5  -4  -7    0.48    2.01
  -5   4   7   -0.03    1.90
  -5   4   7    0.84    1.22
   5  -4  -6    1.28    1.26
   5  -4  -6    1.74    2.79
  -5   4   6    3.73    1.80
  -5   4   6    4.04    1.53
   5  -4  -5  838.69    9.08
   5  -4  -5  815.58   10.21
  -5   4   5  846.18   11.11
  -5   4   5  856.84    9.59
   5  -4  -4   34.37    9.56
  -5   4   4   20.20    5.04
  -5   4   4   35.26    1.88
   5  -4  -3  132.27    5.89
  -5   4   3  136.33    7.58
  -5   4   3  132.34    4.39
  -5   4   3  129.96    3.92
   5  -4  -2    4.93    2.35
  -5   4   2   -1.49    3.96
  -5   4   2    4.68    1.35
  -5   4   2    1.64    1.10
   5  -4  -1  103.30    2.81
  -5   4   1  115.84   11.30
  -5   4   1  103.76    3.21
  -5   4   1  120.32   12.60
   5  -4   0   24.86    3.02
  -5   4   0   22.62    9.87
  -5   4   0   28.25    7.77
  -5   4   0   25.53   11.61
   5  -4   1  465.14    8.75
  -5   4  -1  467.73    8.92
  -5   4  -1  484.18    9.46
  -5   4  -1  480.34   10.33
   5  -4   2 1679.34   27.27
   5  -4   2 1659.78   26.44
  -5   4  -2 1711.21   27.82
  -5   4  -2 1613.05   25.58
   5  -4   3   79.63    8.87
   5  -4   3   69.44    3.79
  -5   4  -3   86.34    8.02
   5  -4   4  237.86    8.72
  -5   4  -4  234.17    9.12
   5  -4   5  724.91   12.23
  -5   4  -5  763.25   13.98
   5  -4   6  454.27   13.52
  -5   4  -6  471.77   14.23
   5  -4   7   11.13    4.24
  -5   4  -7    8.06    4.63
   5  -4   8  133.79    6.89
  -5   4  -8  124.49    7.02
   5  -4   9   29.96    5.95
  -5   4  -9   17.83    6.34
   5  -4  10   22.35    3.97
  -5   4 -10    6.14    7.58
   5  -4  11   21.35    7.16
  -5   4 -11   22.04    7.82
   5  -4  12    7.72    3.01
  -5   4 -12   11.21    8.41
   5  -4  13   -0.04    5.80
  -5   4 -13    3.31    2.75
   5  -4  14    1.44    4.48
  -5   4 -14   -4.33    8.24
   5  -4  15    6.67    5.74
  -5   4 -15    9.82    5.05
   5  -4  16    3.77    3.56
  -5   4 -16    3.92    3.01
   5  -3 -16    5.16    3.41
   5  -3 -15   33.43   12.47
  -5   3  15   42.20   10.03
   5  -3 -14   66.83   12.61
  -5   3  14   76.64   16.00
   5  -3 -13    2.49    2.39
  -5   3  13    1.27    2.11
   5  -3 -12  160.47   12.40
  -5   3  12  165.87    7.33
   5  -3 -11  994.78   10.25
  -5   3  11 1004.62   10.54
   5  -3 -10   36.28    6.61
  -5   3  10   52.39   12.48
  -5   3  10   38.69    2.72
   5  -3  -9   65.94    7.41
  -5   3   9   68.45   13.62
  -5   3   9   59.93    2.87
   5  -3  -8   49.43    7.05
   5  -3  -8   48.04    4.05
  -5   3   8   19.40   11.63
  -5   3   8   46.42    3.85
   5  -3  -7   -0.08    1.21
   5  -3  -7    1.67    2.19
  -5   3   7   -1.99    3.01
  -5   3   7   -0.69    0.97
   5  -3  -6   -0.09    0.78
   5  -3  -6   -1.29    2.32
  -5   3   6    1.86    2.70
  -5   3   6    0.26    0.44
   5  -3  -5   10.70    3.71
  -5   3   5    5.44    4.49
   5  -3  -4   10.28    4.97
  -5   3   4   14.94    6.56
   5  -3  -3   43.36    9.02
  -5   3   3   55.99   21.80
   5  -3  -2  342.99   10.95
   5  -3  -2  358.38    9.91
  -5   3   2  355.27   11.68
  -5   3   2  347.13    9.86
   5  -3  -1  236.97    5.48
  -5   3   1  242.38    6.21
  -5   3   1  230.69    7.98
   5  -3   0   23.11    2.96
  -5   3   0   31.49    8.63
  -5   3   0   21.44    4.27
  -5   3   0   27.53    9.84
   5  -3   1   20.63    5.47
  -5   3  -1   16.42    4.81
  -5   3  -1   26.17    6.63
  -5   3  -1   35.01   12.84
   5  -3   2   34.51    9.98
  -5   3  -2   48.62    6.75
   5  -3   3    2.62    2.24
   5  -3   3    6.56    4.38
  -5   3  -3    6.79    4.51
   5  -3   4  418.26   12.74
  -5   3  -4  436.32   13.31
   5  -3   5  170.00    7.05
  -5   3  -5  182.70   11.64
   5  -3   6  354.87   13.77
  -5   3  -6  330.21   11.32
   5  -3   7  159.87    6.52
  -5   3  -7  165.78    6.97
   5  -3   8    5.14    4.61
  -5   3  -8    4.25    3.70
   5  -3   9    2.02    3.25
  -5   3  -9    1.60    4.19
   5  -3  10    3.76    1.83
  -5   3 -10   -2.31    7.62
   5  -3  11   40.21   15.14
  -5   3 -11   36.04   11.96
   5  -3  12   10.69    3.96
  -5   3 -12    7.50    5.53
   5  -3  13   -5.85    5.56
  -5   3 -13    0.47    3.87
   5  -3  14    2.79    2.68
  -5   3 -14   13.45   12.07
   5  -3  15    7.26    4.93
  -5   3 -15    0.60    7.51
   5  -2 -17    0.36    3.43
   5  -2 -16    4.25    3.38
  -5   2  16    5.47    3.24
   5  -2 -15  140.83    8.14
   5  -2 -14   25.85    4.82
  -5   2  14   39.71   10.11
   5  -2 -13  347.74    8.80
  -5   2  13  318.56    8.70
   5  -2 -12  107.67   16.64
  -5   2  12  118.26    8.30
   5  -2 -11  695.49   17.13
  -5   2  11  676.19   17.09
   5  -2 -10   10.83    3.81
  -5   2  10    7.17    3.92
  -5   2  10    8.16    3.10
   5  -2  -9    1.76    1.22
  -5   2   9    5.29    2.28
  -5   2   9    0.76    0.56
   5  -2  -8  111.65    5.67
  -5   2   8  120.12   12.88
  -5   2   8  112.00    2.91
   5  -2  -7  348.22   11.51
   5  -2  -7  315.18   10.24
  -5   2   7  356.66   15.97
  -5   2   7  332.30    9.87
   5  -2  -6    4.46    1.75
   5  -2  -6    4.18    4.04
   5  -2  -6   10.69    3.02
  -5   2   6   13.22    6.13
   5  -2  -5   45.88    1.45
   5  -2  -5   53.49    4.44
  -5   2   5   46.03   18.12
   5  -2  -4  399.57   12.13
  -5   2   4  413.14    9.23
   5  -2  -3    2.48    1.62
   5  -2  -3    7.79    2.10
  -5   2   3   -4.09    4.64
  -5   2   3    1.34    0.97
   5  -2  -2  615.23   13.36
   5  -2  -2  611.35   12.46
  -5   2   2  613.22   13.72
  -5   2   2  605.01   13.08
   5  -2  -1  238.00    6.68
   5  -2  -1  237.28    5.72
  -5   2   1  240.80    6.91
  -5   2   1  234.50    6.07
   5  -2   0   61.05    5.16
   5  -2   0   64.12    4.08
  -5   2   0   65.09    7.95
  -5   2   0   62.13    5.71
   5  -2   1   -1.08    3.16
  -5   2  -1    0.46    4.46
   5  -2   2  845.58   14.31
  -5   2  -2  867.18   14.36
  -5   2  -2  914.09   15.69
  -5   2  -2  899.48   15.91
  -5   2  -3  596.32   16.40
  -5   2  -3  628.19   19.63
  -5   2  -3  553.35   16.08
   5  -2   4 1319.41   18.32
  -5   2  -4 1360.73   19.18
   5  -2   5  294.86   14.29
  -5   2  -5  295.45   11.09
   5  -2   6   56.11   12.25
  -5   2  -6   35.89   21.76
   5  -2   7    8.85    4.14
  -5   2  -7    2.74    5.03
   5  -2   8    2.94    4.12
  -5   2  -8    4.64    5.53
   5  -2   9    7.66    4.40
  -5   2  -9    3.50    4.18
   5  -2  10    4.48    1.47
  -5   2 -10   13.33    7.65
   5  -2  11   31.20    7.73
  -5   2 -11   34.86    7.91
   5  -2  12   23.79    9.92
  -5   2 -12   18.82    7.86
   5  -2  13    8.25    3.50
  -5   2 -13    7.04    7.53
   5  -2  14    7.50    4.11
  -5   2 -14    5.08    8.54
  -5   2 -15    4.11    6.74
   5  -1 -17   53.53   15.20
  -5   1  17   48.42   11.52
   5  -1 -16   12.57    5.72
  -5   1  16   16.12    5.95
   5  -1 -15    7.55    3.92
  -5   1  15   11.72    6.57
   5  -1 -14  462.34    9.66
  -5   1  14  467.42    9.82
   5  -1 -13  255.21    7.35
  -5   1  13  259.01    7.94
   5  -1 -12  751.28   16.36
  -5   1  12  735.47   11.69
   5  -1 -11   28.36    6.07
  -5   1  11   50.67    7.59
  -5   1  11   28.41    2.46
   5  -1 -10    5.63    2.53
  -5   1  10   16.46    5.13
  -5   1  10    3.98    1.86
   5  -1  -9    7.07    3.69
  -5   1   9    3.99    3.40
  -5   1   9    4.94    1.63
   5  -1  -8   16.34    5.06
  -5   1   8    5.10    3.22
   5  -1  -7    8.52    1.70
   5  -1  -7   10.76    3.37
  -5   1   7   10.45    6.30
   5  -1  -6   98.05    2.21
   5  -1  -6   89.40    4.13
   5  -1  -6   96.41    2.60
  -5   1   6   98.38    5.01
   5  -1  -5   10.13    3.47
   5  -1  -5   11.26    5.59
   5  -1  -5    7.64    1.70
  -5   1   5   15.82    7.67
   5  -1  -4   89.40    3.00
  -5   1   4   86.87    5.03
  -5   1   4   75.44   11.15
   5  -1  -3   16.06    3.75
   5  -1  -3   31.98    5.05
  -5   1   3   12.22    6.49
  -5   1   3   17.42    6.55
   5  -1  -2    2.18    3.38
   5  -1  -2    1.58    1.29
  -5   1   2   -3.13    4.50
  -5   1   2    0.38    2.61
   5  -1  -1   22.36    9.13
   5  -1  -1   11.00    4.31
  -5   1   1   10.47    5.08
  -5   1   1   13.10    6.41
   5  -1   0  801.58   13.67
   5  -1   0  785.89   15.48
  -5   1   0  817.69   15.17
  -5   1   0  786.00   13.95
   5  -1   1  108.77    5.58
  -5   1  -1  101.29    6.27
  -5   1  -1  110.63    6.43
  -5   1  -1   99.76    5.46
   5  -1   2   96.70    4.08
  -5   1  -2  101.69    3.91
  -5   1  -2  101.94    7.03
  -5   1  -2  103.80    6.72
  -5   1  -3  490.85   13.70
  -5   1  -3  530.19   15.25
  -5   1  -3  506.24   14.72
  -5   1  -4  450.15    7.72
  -5   1  -4  468.56   10.58
  -5   1  -5   20.04    5.28
  -5   1  -5   21.56    7.20
   5  -1   6    1.78    3.27
  -5   1  -6   14.49    7.26
   5  -1   7  225.12    8.53
  -5   1  -7  244.77   10.45
   5  -1   8   17.49    5.64
  -5   1  -8   18.61    9.66
   5  -1   9   34.36    9.47
  -5   1  -9   25.49    9.95
   5  -1  10   65.40   15.55
  -5   1 -10   75.64    8.69
   5  -1  11    8.34    3.70
  -5   1 -11   23.26    9.97
   5  -1  12   16.48    5.66
  -5   1 -12    8.53    6.04
   5  -1  13   10.22    4.90
  -5   1 -13   22.64    7.77
  -5   1 -14   11.81    5.48
   5   0 -18    8.07    4.76
  -5   0  18    7.05    3.19
   5   0 -17    4.36    4.55
  -5   0  17    2.57    2.96
   5   0 -16   54.56    8.25
  -5   0  16   47.41   12.14
   5   0 -15    7.02    3.69
  -5   0  15   12.65    7.20
   5   0 -14  257.99   13.32
  -5   0  14  262.63    8.89
   5   0 -13  157.58    6.77
  -5   0  13  137.24    8.07
   5   0 -12   88.78    8.43
  -5   0  12   89.86   15.90
   5   0 -11    0.88    2.81
  -5   0  11    1.73    2.74
   5   0 -10    2.99    2.41
  -5   0  10    1.16    2.27
   5   0  -9  431.64   11.74
   5   0  -9  372.59   10.35
  -5   0   9  398.91   17.70
   5   0  -8  301.50    9.76
   5   0  -8  285.43    9.07
  -5   0   8  291.08   10.22
   5   0  -7   14.49    3.81
   5   0  -7   11.02    3.37
  -5   0   7   13.30    3.85
   5   0  -6  245.53    7.81
   5   0  -6  233.72    7.23
  -5   0   6  219.48    8.45
   5   0  -5  107.36    5.31
   5   0  -5  114.85    3.98
  -5   0   5  143.76   11.85
  -5   0   5  120.01    4.92
   5   0  -4    2.41    3.10
   5   0  -4    6.20    2.85
  -5   0   4    3.48    2.36
  -5   0   4    6.61    4.15
   5   0  -3  303.43   11.35
   5   0  -3  310.32    9.79
  -5   0   3  297.05   10.28
  -5   0   3  316.23    9.85
   5   0  -2   -2.40    3.62
   5   0  -2    5.37    1.97
  -5   0   2    4.38    3.88
   5   0  -1  687.70   12.04
   5   0  -1  707.50   12.15
  -5   0   1  706.94   13.73
  -5   0   1  654.88   11.83
   5   0   0    0.18    1.48
   5   0   0    0.45    1.39
  -5   0   0    7.74    4.60
  -5   0   0    5.32    4.15
   5   0   1    8.81    3.77
   5   0   1   10.72    5.77
  -5   0  -1   10.39    6.13
  -5   0  -1    8.24    3.70
  -5   0  -2   10.39    4.46
  -5   0  -2   21.91    6.24
  -5   0  -2   13.45    4.11
  -5   0  -3  805.18   11.43
  -5   0  -3  851.14   12.79
  -5   0  -3  856.27   14.61
  -5   0  -4 2379.75   23.21
  -5   0  -4 2341.65   34.89
  -5   0  -5  228.16    9.45
  -5   0  -5  217.73   11.42
  -5   0  -6   62.62   13.23
  -5   0  -6   75.63   10.54
  -5   0  -7    4.05    3.22
  -5   0  -7    6.27    5.60
  -5   0  -8    3.98    2.53
  -5   0  -8    7.22    6.61
  -5   0  -9   21.83    6.63
  -5   0  -9   18.14    7.76
  -5   0 -10  102.70   15.16
  -5   0 -10   82.42   19.99
  -5   0 -11    4.39    3.43
  -5   0 -11   -0.44    7.18
  -5   0 -12   33.52   18.26
  -5   0 -12   28.93   14.03
  -5   0 -13   28.91   10.95
  -5   0 -14    6.41    4.84
  -5  -1  19    1.66    2.61
   5   1 -18   12.30    4.52
  -5  -1  18   17.13    5.50
   5   1 -17   -1.95    4.53
  -5  -1  17    2.60    2.61
   5   1 -16    3.10    4.63
  -5  -1  16    1.28    4.47
   5   1 -15   10.84    3.36
  -5  -1  15    8.36    3.72
   5   1 -14    9.89    4.84
  -5  -1  14   13.86    4.97
   5   1 -13  117.84    5.69
  -5  -1  13  118.75    8.98
   5   1 -12   25.77    8.52
  -5  -1  12   36.31    7.73
   5   1 -11   18.42    4.23
  -5  -1  11   14.60    6.29
   5   1 -10   10.87    2.72
   5   1 -10    7.91    3.38
  -5  -1  10   12.57    7.64
   5   1  -9   65.10    5.49
   5   1  -9   54.98    2.85
  -5  -1   9   65.82   14.29
   5   1  -8  470.55    7.74
   5   1  -8  457.98    7.94
  -5  -1   8  450.39    6.36
   5   1  -7  585.44   16.88
   5   1  -7  568.92   15.65
  -5  -1   7  565.93   15.96
   5   1  -6    0.80    1.28
  -5  -1   6   -0.02    2.22
  -5  -1   6    2.83    2.19
   5   1  -5  118.35    4.69
  -5  -1   5  112.99    6.08
  -5  -1   5  113.05    7.66
   5   1  -4  104.30    5.84
   5   1  -4  106.14    4.39
  -5  -1   4  110.27    7.95
  -5  -1   4  110.52    6.11
   5   1  -3    1.03    3.03
   5   1  -3    3.66    1.99
  -5  -1   3   -0.97    1.86
   5   1  -2   73.17    4.07
   5   1  -2   76.23    4.07
  -5  -1   2   77.60    6.63
  -5  -1   2   76.94    5.13
   5   1  -1   59.75    3.50
   5   1  -1   46.91    3.77
  -5  -1   1   60.14    5.72
  -5  -1   1   55.56    5.89
   5   1   0    4.44    2.31
   5   1   0   11.93    4.03
  -5  -1   0    6.87    3.83
  -5  -1   0   11.52    3.94
   5   1   1    1.79    1.60
  -5  -1  -1    1.52    3.46
  -5  -1  -1   -3.85    3.88
  -5  -1  -2  175.85    6.48
  -5  -1  -2  183.14    7.12
  -5  -1  -2  198.96   11.76
  -5  -1  -3    5.44    3.07
  -5  -1  -3    4.99    3.40
  -5  -1  -3    7.73    3.45
  -5  -1  -4   77.12    7.39
  -5  -1  -4   88.12    5.36
  -5  -1  -4   93.07    6.50
  -5  -1  -5  203.65   12.42
  -5  -1  -5  211.18    9.13
  -5  -1  -6   11.57    3.55
  -5  -1  -6   11.32    3.47
  -5  -1  -7    4.63    4.77
  -5  -1  -7    9.79    4.13
  -5  -1  -8  172.78    7.01
  -5  -1  -8  175.33   21.89
  -5  -1  -9   10.95    3.66
  -5  -1  -9    7.28    7.12
  -5  -1 -10   90.16   13.72
  -5  -1 -10   76.00   24.38
  -5  -1 -11   48.84   16.69
  -5  -1 -11   86.02   14.00
  -5  -1 -12   -2.98    7.62
  -5  -1 -13   15.34    7.46
   5   2 -19   12.34    5.88
  -5  -2  19    9.71    4.89
   5   2 -18    7.73    4.90
  -5  -2  18    3.28    2.95
   5   2 -17   -0.91    4.46
  -5  -2  17    0.35    3.79
   5   2 -16   -1.12    4.98
  -5  -2  16    3.25    4.58
   5   2 -15   -0.19    4.31
  -5  -2  15   -1.46    5.93
   5   2 -14   10.30    5.83
  -5  -2  14   -1.74    6.18
   5   2 -13    7.41    3.99
  -5  -2  13   17.43    8.12
   5   2 -12   88.01    5.32
  -5  -2  12   88.13   13.92
   5   2 -11   38.15    4.58
  -5  -2  11   39.50    7.81
   5   2 -10   -0.56    2.85
  -5  -2  10   -3.71    4.09
   5   2  -9   25.72    4.63
   5   2  -9   20.60    6.60
  -5  -2   9   30.73   10.47
   5   2  -8   86.25    4.06
   5   2  -8   80.99    4.14
  -5  -2   8   80.91    6.01
   5   2  -7  485.79   13.48
  -5  -2   7  483.01   14.10
   5   2  -6  276.49   10.67
  -5  -2   6  282.75    9.43
  -5  -2   6  275.85    9.15
   5   2  -5 1714.58   19.72
  -5  -2   5 1612.32   18.12
  -5  -2   5 1694.05   20.50
   5   2  -4  321.33   10.02
   5   2  -4  343.70    9.88
  -5  -2   4  344.60   11.08
  -5  -2   4  335.57   10.89
   5   2  -3  511.49   10.30
   5   2  -3  496.35    9.45
  -5  -2   3  489.65    9.83
  -5  -2   3  526.31   10.13
   5   2  -2  141.16    5.88
   5   2  -2  146.66    5.56
  -5  -2   2  148.44    7.10
  -5  -2   2  156.89    6.65
   5   2  -1  191.95    8.97
   5   2  -1  190.34    7.03
  -5  -2   1  193.98    7.85
  -5  -2   1  190.34    8.45
   5   2   0   41.93    2.80
  -5  -2   0   40.62    4.26
  -5  -2   0   39.80    5.49
   5   2   1  148.97    4.86
  -5  -2  -1  153.14    6.40
  -5  -2  -1  158.68    7.60
  -5  -2  -2   25.26    5.98
  -5  -2  -2   16.79    3.07
  -5  -2  -2   30.15    9.61
  -5  -2  -3  198.23    8.08
  -5  -2  -3  202.43   12.51
  -5  -2  -3  202.12    9.60
  -5  -2  -4   43.85    7.50
  -5  -2  -4   61.93    7.39
  -5  -2  -4   46.07   12.22
  -5  -2  -5    0.60    1.87
  -5  -2  -5    4.41    3.41
  -5  -2  -6  202.12   13.40
  -5  -2  -6  219.36   13.86
  -5  -2  -7    9.66    5.19
  -5  -2  -7    3.45    6.40
  -5  -2  -8   38.67   18.23
  -5  -2  -8   57.68   20.03
  -5  -2  -9   72.21   11.57
  -5  -2  -9   50.96   16.86
  -5  -2 -10    1.72    2.03
  -5  -2 -10    1.96    4.65
  -5  -2 -11   27.50   10.49
  -5  -2 -12   16.41    8.75
  -5  -2 -13    8.81    6.72
   5   3 -19   -1.00    3.85
  -5  -3  19    7.11    3.76
   5   3 -18   10.58    4.42
  -5  -3  18   10.69    4.62
   5   3 -17   16.26    5.01
  -5  -3  17   11.94    4.72
   5   3 -16   10.06    5.05
  -5  -3  16    2.27    3.67
  -5  -3  15    6.03    6.14
   5   3 -14   18.50    5.44
  -5  -3  14   20.56    5.53
   5   3 -13   97.41    5.56
  -5  -3  13  102.43    7.36
   5   3 -12  118.48    7.67
  -5  -3  12  111.26   16.78
   5   3 -11   -0.39    4.10
  -5  -3  11    5.42    6.10
   5   3 -10   84.14    5.73
  -5  -3  10   89.23   16.02
   5   3  -9   65.56    4.94
  -5  -3   9   58.78   14.55
   5   3  -8   -0.07    2.97
   5   3  -8    1.50    1.00
  -5  -3   8   -1.35    4.21
   5   3  -7  115.52    5.51
  -5  -3   7  125.74   12.99
  -5  -3   7  123.37    9.92
   5   3  -6  428.14   14.30
  -5  -3   6  447.10   15.55
  -5  -3   6  437.66   13.09
   5   3  -5 1407.89   16.16
  -5  -3   5 1450.43   16.83
  -5  -3   5 1473.72   17.75
   5   3  -4  274.93    8.61
  -5  -3   4  283.14   17.59
  -5  -3   4  284.41    9.46
   5   3  -3    3.55    2.34
   5   3  -3    0.99    2.60
  -5  -3   3    6.10    4.08
  -5  -3   3    2.54    3.82
   5   3  -2  856.26   10.58
  -5  -3   2  875.25   12.13
  -5  -3   2  859.34   11.14
   5   3  -1 1720.74   20.48
  -5  -3   1 1811.58   20.84
  -5  -3   1 1770.97   20.92
   5   3   0   38.70    6.99
  -5  -3   0   37.98    7.54
  -5  -3   0   35.06    6.95
   5   3   1    1.46    1.08
  -5  -3  -1    6.76    4.68
  -5  -3  -1   -2.09    4.35
  -5  -3  -2   16.66    5.82
  -5  -3  -2   25.80    4.65
  -5  -3  -2   20.12    4.58
  -5  -3  -3    4.13    2.17
  -5  -3  -3    6.71    3.78
  -5  -3  -3    7.81    3.68
  -5  -3  -4   17.32    6.08
  -5  -3  -4   38.99    4.30
  -5  -3  -4   35.62    7.51
  -5  -3  -5  134.82    3.11
  -5  -3  -5  137.22   13.79
  -5  -3  -5  148.96   10.47
  -5  -3  -6    4.10    3.51
  -5  -3  -6    4.37    6.78
  -5  -3  -7   11.09    3.94
  -5  -3  -7   34.65   10.71
  -5  -3  -8    4.16    3.02
  -5  -3  -8    1.55    5.96
  -5  -3  -9    3.77    7.43
  -5  -3 -10    5.72    6.93
  -5  -3 -11   29.24   10.06
  -5  -3 -12    7.75    6.80
   5   4 -19    2.65    4.74
  -5  -4  19    4.16    4.51
   5   4 -18   -3.46    5.62
  -5  -4  18    2.05    3.93
   5   4 -17   -3.33    5.37
  -5  -4  17   -6.01    6.14
   5   4 -16   20.71    6.33
  -5  -4  16   22.36    6.73
   5   4 -15   -1.58    4.54
  -5  -4  15   -3.64    6.49
   5   4 -14  133.67   10.93
  -5  -4  14  125.76   19.12
   5   4 -13    8.74    5.84
  -5  -4  13    1.32    5.79
   5   4 -12   -0.78    3.69
  -5  -4  12    5.24    3.78
   5   4 -11    2.49    4.24
  -5  -4  11   -0.82    4.03
   5   4 -10  118.30    8.49
  -5  -4  10  120.33    5.99
   5   4  -9   85.32    5.50
  -5  -4   9   99.70    7.40
  -5  -4   8   99.15    6.50
  -5  -4   8  100.68    9.90
  -5  -4   7  567.63   11.17
  -5  -4   7  573.58   10.20
  -5  -4   6    5.66    2.50
  -5  -4   6    5.34    3.24
  -5  -4   5  242.74    8.63
  -5  -4   5  231.86   15.22
  -5  -4   4  267.50    9.49
  -5  -4   4  254.38   17.44
  -5  -4   3  913.08   14.37
  -5  -4   3  878.02   13.08
   5   4  -2   24.38    2.98
  -5  -4   2   30.19    5.35
  -5  -4   2   13.04    4.08
   5   4  -1 1001.33   13.71
  -5  -4   1 1087.40   15.92
  -5  -4   1 1047.50   20.32
   5   4   0 1082.42   26.20
  -5  -4   0 1132.25    8.82
  -5  -4   0 1120.32   18.99
   5   4   1  149.35    3.64
  -5  -4  -1  162.39    6.09
  -5  -4  -1  160.97    8.31
  -5  -4  -2   13.32    3.56
  -5  -4  -2    5.32    2.42
  -5  -4  -2   14.09    4.53
  -5  -4  -3   20.45    6.18
  -5  -4  -3   32.22    4.20
  -5  -4  -3   21.43    4.29
  -5  -4  -4   -0.48    1.42
  -5  -4  -4    1.61    2.17
  -5  -4  -4    7.39    7.36
  -5  -4  -5   15.74    3.47
  -5  -4  -5   27.99    9.21
  -5  -4  -6   52.79    9.69
  -5  -4  -6   83.33   12.85
  -5  -4  -7    4.06    3.44
  -5  -4  -7   10.41    3.78
  -5  -4  -8   83.63   33.10
  -5  -4  -9   -1.04    7.50
  -5  -4 -10   16.43    5.17
  -5  -4 -11    8.98    8.16
   5   5 -19    3.77    4.96
  -5  -5  19   -0.71    5.92
   5   5 -18    3.08    4.29
  -5  -5  18    1.44    3.04
   5   5 -17   -1.82    5.75
  -5  -5  17   -3.94    6.45
   5   5 -16   -6.67    5.68
  -5  -5  16   -4.11    6.01
   5   5 -15    9.89    5.19
  -5  -5  15    7.04    6.62
   5   5 -14   61.12    7.02
  -5  -5  14   59.47   15.05
   5   5 -13   33.67    5.82
  -5  -5  13   45.19   12.39
   5   5 -12    0.70    4.07
  -5  -5  12    4.23    5.60
   5   5 -11   10.30    4.23
  -5  -5  11   14.74    5.87
   5   5 -10   -3.99    4.53
  -5  -5  10   -2.15    4.31
   5   5  -9   -0.77    4.43
  -5  -5   9    4.40    3.82
  -5  -5   8   67.92    8.06
  -5  -5   8   77.61   19.31
  -5  -5   7  243.05   11.98
  -5  -5   7  246.00    8.95
  -5  -5   6   25.40    8.15
  -5  -5   6   24.38    8.48
  -5  -5   5  907.21   22.69
  -5  -5   5  876.45   24.43
  -5  -5   4   11.59    4.98
  -5  -5   4   10.87    5.16
  -5  -5   3 1060.68   25.93
  -5  -5   3 1039.66   26.90
  -5  -5   2  109.28   10.10
  -5  -5   2   95.91    8.74
   5   5  -1  154.68    6.60
  -5  -5   1  175.20   13.25
  -5  -5   1  188.73   10.21
   5   5   0   49.17    7.49
  -5  -5   0   62.76    5.79
  -5  -5   0   74.90    6.84
   5   5   1  135.57    3.50
  -5  -5  -1  149.61    4.67
  -5  -5  -1  156.10   17.48
  -5  -5  -2   12.14    5.07
  -5  -5  -2   15.98    5.61
  -5  -5  -2   18.82    6.53
  -5  -5  -3    2.18    0.86
  -5  -5  -3    5.20    3.29
  -5  -5  -3    9.62    2.98
  -5  -5  -4   11.14    3.99
  -5  -5  -4   13.59    5.48
  -5  -5  -4   33.43   10.99
  -5  -5  -5   14.73    4.48
  -5  -5  -5   22.34    8.46
  -5  -5  -6   68.78    8.85
  -5  -5  -7   38.13    9.56
  -5  -5  -8   22.09    7.33
  -5  -5  -9    7.40    6.79
  -5  -5 -10   45.76   10.36
  -5  -5 -11    9.95    7.93
   5   6 -19   12.09    4.77
  -5  -6  19    5.11    9.20
   5   6 -18   19.66    7.51
  -5  -6  18   26.11    5.65
   5   6 -17   33.78    9.83
  -5  -6  17   17.64    8.07
   5   6 -16    8.22    5.63
  -5  -6  16   13.40    8.00
   5   6 -15   13.19    7.26
  -5  -6  15   17.66    6.13
   5   6 -14    5.56    5.72
  -5  -6  14    1.14    6.10
   5   6 -13   11.97    7.20
  -5  -6  13    4.61    5.38
   5   6 -12   32.51    6.44
  -5  -6  12   30.01    8.20
   5   6 -11   76.47    5.51
  -5  -6  11   79.19   25.78
   5   6 -10    3.46    3.01
  -5  -6  10    3.78    2.73
  -5  -6   9  272.44   10.62
  -5  -6   9  227.26   16.56
  -5  -6   8    5.27    4.54
  -5  -6   8    5.51    5.69
  -5  -6   7   85.91    5.34
  -5  -6   7   93.42    6.06
  -5  -6   6  182.06   15.27
  -5  -6   6  166.52    6.17
  -5  -6   5   11.65    5.51
  -5  -6   5    4.19    2.84
  -5  -6   4  283.12    9.52
  -5  -6   4  258.05    9.35
  -5  -6   3   54.06   11.08
  -5  -6   3   45.71   10.41
  -5  -6   2   67.02   16.09
  -5  -6   2   70.38    5.43
  -5  -6   1  119.12    4.42
  -5  -6   1  127.53    8.09
   5   6   0   57.57    6.46
  -5  -6   0   75.73    7.87
  -5  -6   0   81.03    9.64
   5   6   1  241.08    9.22
  -5  -6  -1  270.13    8.07
  -5  -6  -1  266.59   16.34
  -5  -6  -2   15.04    4.34
  -5  -6  -2   17.16    6.72
  -5  -6  -2   26.30    7.29
  -5  -6  -3   15.93    7.21
  -5  -6  -3   38.15    9.04
  -5  -6  -4   40.06    8.74
  -5  -6  -4   74.91    8.60
  -5  -6  -5   36.99   12.55
  -5  -6  -6    5.99    4.71
  -5  -6  -7    5.67    3.17
  -5  -6  -8   10.08    5.93
  -5  -6  -9    4.63    6.71
  -5  -6 -10    0.12    5.63
   5   7 -19   -1.33    4.76
  -5  -7  19    0.74    6.64
   5   7 -18    8.44    5.57
  -5  -7  18   10.71    4.23
   5   7 -17    4.15    5.59
  -5  -7  17    8.31    5.23
   5   7 -16   15.82    5.63
  -5  -7  16   11.76    5.74
   5   7 -15   11.47    5.85
  -5  -7  15   10.67    3.93
   5   7 -14    2.25    5.49
  -5  -7  14    2.87    5.79
   5   7 -13    2.49    5.32
  -5  -7  13    6.06    4.28
   5   7 -12   39.55    5.09
  -5  -7  12   46.38   13.60
   5   7 -11    7.66    2.67
  -5  -7  11   13.82    6.62
   5   7 -10    5.41    6.14
  -5  -7  10    7.91    5.01
  -5  -7   9    0.25    3.51
  -5  -7   9   -5.08    6.01
  -5  -7   8    9.15    5.89
  -5  -7   8   -0.48    5.08
  -5  -7   7   52.01   15.94
  -5  -7   7   40.52   10.80
  -5  -7   6   27.17    5.97
  -5  -7   6   19.35    5.36
  -5  -7   5  112.60   22.20
  -5  -7   5  105.57   11.29
  -5  -7   4  106.92    8.99
  -5  -7   4  102.66    7.23
  -5  -7   3    1.42    1.66
  -5  -7   3    2.78    5.58
  -5  -7   2   60.38    6.06
  -5  -7   2   56.30   10.65
  -5  -7   1   30.32    6.93
  -5  -7   1   39.91    8.61
  -5  -7   0   65.55    9.15
  -5  -7   0   51.79   13.35
  -5  -7  -1   43.15   11.55
  -5  -7  -1   47.50    9.75
  -5  -7  -2    9.55    3.83
  -5  -7  -2   29.13    9.30
  -5  -7  -3   -0.91    1.49
  -5  -7  -3    2.09    4.18
  -5  -7  -4   60.04   18.39
  -5  -7  -5   40.03   11.54
  -5  -7  -6   -5.53    6.34
  -5  -7  -7    7.36    7.17
  -5  -7  -8   33.60   10.33
  -5  -7  -9    7.69    5.89
   5   8 -19    4.26    2.93
  -5  -8  19    1.48    6.34
   5   8 -18   -7.04    5.65
  -5  -8  18   -2.53    6.19
   5   8 -17   -1.03    5.69
  -5  -8  17    3.38    6.91
   5   8 -16    5.16    8.36
  -5  -8  16    3.44    6.55
   5   8 -15   63.19   10.39
  -5  -8  15   46.68    8.45
   5   8 -14   14.89    7.51
  -5  -8  14   17.17   10.27
   5   8 -13   11.28    7.27
  -5  -8  13   12.77    6.66
   5   8 -12   46.66    7.68
  -5  -8  12   56.79   13.94
   5   8 -11   71.06   14.47
  -5  -8  11   58.80   10.49
  -5  -8  10  104.47    8.09
  -5  -8  10  108.91   18.95
  -5  -8   9  387.14   14.67
  -5  -8   9  391.61   21.36
  -5  -8   8  147.78    9.50
  -5  -8   8  140.21   10.25
  -5  -8   7    8.81    2.50
  -5  -8   7   13.96    7.55
  -5  -8   6   65.80    7.28
  -5  -8   6   57.18   11.38
  -5  -8   5    4.43    3.77
  -5  -8   5   -0.03    5.31
  -5  -8   4   -1.78    3.28
  -5  -8   4   -3.76    5.18
  -5  -8   3   28.30    5.49
  -5  -8   3   24.79    9.70
  -5  -8   2   -0.83    2.90
  -5  -8   2   -0.49    4.00
  -5  -8   1  172.98   11.53
  -5  -8   1  178.86   17.14
  -5  -8   0   12.60    4.15
  -5  -8   0    9.34    5.43
  -5  -8  -1   60.79    9.22
  -5  -8  -1   54.80   18.11
  -5  -8  -2    0.72    1.53
  -5  -8  -2    5.80    2.98
  -5  -8  -3   10.46    6.08
  -5  -8  -4  145.60   18.47
  -5  -8  -5    2.12    2.63
  -5  -8  -6   25.48    9.66
  -5  -8  -7    7.41    4.49
  -5  -8  -8    7.47    2.74
   5   9 -18   12.38    9.01
  -5  -9  18    9.93    6.00
   5   9 -17   -3.38    5.75
  -5  -9  17    7.47    5.04
   5   9 -16   -2.10    5.54
  -5  -9  16   -0.24    7.19
   5   9 -15   25.70    9.51
  -5  -9  15   24.34    8.52
   5   9 -14   -3.61    6.90
  -5  -9  14   -3.35    6.26
   5   9 -13    0.28    4.72
  -5  -9  13   -1.03    6.28
   5   9 -12    4.57    4.19
  -5  -9  12    8.80    8.10
   5   9 -11  119.83    9.51
  -5  -9  11  121.87    8.50
  -5  -9  10    0.21    2.85
  -5  -9  10   -3.66    5.82
  -5  -9   9    5.89    6.09
  -5  -9   9   -3.98    5.39
  -5  -9   8   49.56   12.46
  -5  -9   8   49.46   10.77
  -5  -9   7 1071.83   33.08
  -5  -9   7 1033.97   30.69
  -5  -9   6   92.87    9.84
  -5  -9   6   83.86   14.47
  -5  -9   5   -1.18    3.70
  -5  -9   5   -2.72    5.26
  -5  -9   4   17.70    5.27
  -5  -9   4   19.31    6.56
  -5  -9   3    9.81    6.18
  -5  -9   3   -4.10    5.05
  -5  -9   2    9.73    4.36
  -5  -9   2    7.24    4.11
  -5  -9   1   89.80   10.74
  -5  -9   1   96.36   21.40
  -5  -9   0   59.58    8.30
  -5  -9   0   69.50   15.13
  -5  -9  -1    7.56    4.71
  -5  -9  -2   39.04   13.17
  -5  -9  -3   43.28   11.26
  -5  -9  -4   -5.47    6.11
  -5  -9  -5    9.71    7.52
  -5  -9  -6   15.28    6.63
  -5  -9  -7    2.10    3.05
   5  10 -18    9.56    6.02
  -5 -10  18    4.82    3.38
   5  10 -17   -0.10    6.17
  -5 -10  17    5.09    4.62
   5  10 -16   25.99    7.85
  -5 -10  16   16.00    6.45
   5  10 -15    2.45    6.21
  -5 -10  15   13.04    8.73
   5  10 -14    1.68    7.78
  -5 -10  14   12.71    6.28
   5  10 -13    0.52    6.11
  -5 -10  13    6.72    5.91
   5  10 -12    1.06    5.34
  -5 -10  12   -1.10    6.70
   5  10 -11   21.51    7.30
  -5 -10  11   30.63    9.70
  -5 -10  10    6.00    5.13
  -5 -10  10   13.46    5.29
  -5 -10   9    8.16    5.56
  -5 -10   9   16.42    5.77
  -5 -10   8    3.97    5.13
  -5 -10   8    5.74    2.33
  -5 -10   7   32.96    7.18
  -5 -10   7   21.19    3.91
  -5 -10   6    4.87    3.65
  -5 -10   6    3.07    4.46
  -5 -10   5   20.55    6.17
  -5 -10   5   17.94    7.11
  -5 -10   4   23.24    5.76
  -5 -10   4   23.79    6.64
  -5 -10   3  137.49    7.80
  -5 -10   3  122.75   25.22
  -5 -10   2   56.18   13.50
  -5 -10   2   81.04   13.29
  -5 -10   1    1.26    1.54
  -5 -10   1   17.28    4.94
  -5 -10   0  112.66   23.03
  -5 -10  -1   -0.72    5.63
  -5 -10  -2    1.84    4.81
  -5 -10  -3    3.73    5.12
  -5 -10  -4   31.03    9.61
  -5 -10  -5    6.42    4.92
   5  11 -17    0.43    6.13
  -5 -11  17   -6.09    5.65
   5  11 -16  112.06   11.33
  -5 -11  16  100.93   27.77
   5  11 -15   17.86    6.05
  -5 -11  15   17.94    7.51
   5  11 -14   90.95    8.26
  -5 -11  14  111.59    8.63
   5  11 -13   12.09    5.76
  -5 -11  13   21.82    8.49
   5  11 -12   23.66    7.12
  -5 -11  12   28.05    8.30
  -5 -11  11   -4.21    5.47
  -5 -11  10   66.63    8.44
  -5 -11  10   56.48   11.93
  -5 -11   9   10.17    5.32
  -5 -11   9   11.83    9.49
  -5 -11   8   19.54    5.05
  -5 -11   8   12.85    5.09
  -5 -11   7   78.36   15.44
  -5 -11   7   84.50   16.98
  -5 -11   6   54.34   12.22
  -5 -11   6   49.84   13.31
  -5 -11   5   61.82   10.24
  -5 -11   5   62.57   12.61
  -5 -11   4   88.64   15.16
  -5 -11   4  110.56   24.15
  -5 -11   3    0.80    2.61
  -5 -11   3    8.84    4.74
  -5 -11   2   36.93   10.39
  -5 -11   2   60.02   14.58
  -5 -11   1  129.88   26.31
  -5 -11   0  116.13   29.14
  -5 -11  -1   -0.17    6.69
  -5 -11  -2   47.99   14.36
  -5 -11  -3   14.55    5.70
  -5 -11  -4    4.94    3.96
   5  12 -16  222.39   32.47
  -5 -12  16  229.31   34.37
   5  12 -15   10.81    6.81
  -5 -12  15    5.32    5.00
   5  12 -14   44.50   11.96
  -5 -12  14   33.79   10.82
   5  12 -13    6.31    6.54
  -5 -12  13    3.43    5.77
   5  12 -12   27.44   10.66
  -5 -12  12   24.01    9.49
  -5 -12  11   98.59   19.10
  -5 -12  11   95.06   27.63
  -5 -12  10   36.48   14.69
  -5 -12  10   54.64   14.44
  -5 -12   9    5.57    2.75
  -5 -12   9   17.48    6.02
  -5 -12   8   11.05    5.56
  -5 -12   8    5.02    5.97
  -5 -12   7   13.10    6.49
  -5 -12   7    6.83    4.20
  -5 -12   6   34.02    5.11
  -5 -12   6   32.72    6.20
  -5 -12   5    0.73    2.12
  -5 -12   5    9.15    4.77
  -5 -12   4   -0.74    1.85
  -5 -12   4    2.00    2.70
  -5 -12   3   -0.37    5.11
  -5 -12   2    7.45    3.44
  -5 -12   1    8.55    4.62
  -5 -12   0   21.02    9.49
  -5 -12  -1   30.93    8.23
  -5 -12  -2   -2.49    5.81
   5  13 -15   12.43    9.52
  -5 -13  15   12.21    4.69
   5  13 -14   79.52   11.12
  -5 -13  14   52.60   19.06
   5  13 -13   17.89    6.80
  -5 -13  13   25.59    6.25
   5  13 -12   63.07   26.60
  -5 -13  12   71.39   23.78
  -5 -13  11  112.83   19.08
  -5 -13  11   97.84   18.37
  -5 -13  10   -2.11    5.06
  -5 -13  10   -6.35    5.77
  -5 -13   9   18.63   10.31
  -5 -13   9    8.49    3.95
  -5 -13   8   -0.21    3.88
  -5 -13   8    1.09    3.78
  -5 -13   7   12.65    5.13
  -5 -13   7   11.12    5.09
  -5 -13   6   22.98    5.02
  -5 -13   6   15.84    5.32
  -5 -13   5   -1.79    3.22
  -5 -13   5    0.87    4.25
  -5 -13   4   49.38   19.69
  -5 -13   3    3.53    5.00
  -5 -13   2   26.48    9.39
  -5 -13   1    1.89    3.91
  -5 -13   0    5.23    3.29
   5  14 -13   19.36    8.58
  -5 -14  13   15.53    9.25
   5  14 -12   11.86    9.83
  -5 -14  12    2.56    3.16
  -5 -14  11   33.35   10.59
  -5 -14  11   47.42   11.96
  -5 -14  10    5.49    4.07
  -5 -14  10    7.55    6.60
  -5 -14   9    3.02    4.36
  -5 -14   9    8.43    5.25
  -5 -14   8    6.23    3.84
  -5 -14   8    5.45    4.70
  -5 -14   7   -0.86    3.04
  -5 -14   7    2.24    4.55
  -5 -14   6    4.86    6.01
  -5 -14   5    2.46    3.96
  -5 -14   4    2.55    3.85
  -5 -14   3   24.34    8.09
  -5 -15  10   -2.42    4.06
  -5 -15   9   26.43    6.90
  -5 -15   9   17.89   10.18
  -5 -15   8    2.11    2.54
  -5 -15   8   -2.46    5.10
  -5 -15   7  -15.89    6.52
  -6  18  -1  116.09   17.12
  -6  18  -2  106.99   10.86
  -6  18  -3   22.86    9.12
  -6  18  -4   33.06    8.12
   6 -18   5    1.19    2.88
  -6  18  -5    1.92    6.17
   6 -18   6   -0.58    4.40
  -6  18  -6   -1.57    6.22
   6 -18   7    2.07    4.02
  -6  18  -7    3.52    6.54
   6 -18   8   12.08    6.05
  -6  18  -8    5.50    6.46
   6 -18   9    0.02    3.59
  -6  18  -9    1.30    6.58
   6 -17  -3   -2.85    3.51
   6 -17  -2    9.17    5.08
   6 -17  -1   32.02   10.44
  -6  17  -1   37.71   12.35
  -6  17  -2    0.81    4.53
   6 -17   3    8.64    3.95
  -6  17  -3   17.11    7.78
   6 -17   4    5.10    3.32
  -6  17  -4    6.04    5.69
   6 -17   5   10.89    5.22
  -6  17  -5   15.62    8.85
   6 -17   6   15.72    4.77
  -6  17  -6   12.83    4.14
   6 -17   7    5.13    4.36
  -6  17  -7    7.00    7.51
   6 -17   8   10.51    6.64
  -6  17  -8    3.06    4.71
   6 -17   9   11.62    5.58
  -6  17  -9   21.28   10.65
   6 -17  10    8.72    6.30
  -6  17 -10    0.27    7.76
   6 -17  11    8.15    6.27
  -6  17 -11   10.48    7.41
   6 -16  -4    8.51    4.53
   6 -16  -3   -3.40    3.48
   6 -16  -2    3.59    4.34
   6 -16  -1    5.52    3.65
  -6  16  -1    4.82    4.65
   6 -16   2   14.58    5.28
  -6  16  -2   33.83    7.65
   6 -16   3    0.54    2.15
  -6  16  -3   -1.18    4.96
   6 -16   4    9.05    7.28
  -6  16  -4   10.28    9.05
   6 -16   5   37.59   14.08
  -6  16  -5   55.14    8.54
   6 -16   6    1.87    3.58
  -6  16  -6    5.74    9.49
   6 -16   7    7.03    4.35
  -6  16  -7   17.52    9.47
   6 -16   8   10.40    3.76
  -6  16  -8   14.36   10.37
   6 -16   9   20.10    5.98
  -6  16  -9   23.32   13.76
   6 -16  10   -0.54    6.10
  -6  16 -10    4.04    7.69
   6 -16  11   -1.18    6.24
  -6  16 -11   -1.38    7.31
   6 -16  12    4.13    5.43
  -6  16 -12   -4.02    7.39
   6 -15  -5   -0.15    3.21
   6 -15  -4    1.11    2.43
   6 -15  -3    1.06    3.26
   6 -15  -2    0.71    2.40
   6 -15  -1  107.16   18.05
  -6  15   0  111.23   14.50
  -6  15  -1    3.47    4.77
  -6  15  -1   14.62    5.69
   6 -15   2   10.03    5.86
  -6  15  -2   17.25    5.60
   6 -15   3    1.76    2.76
  -6  15  -3   -1.08    4.36
   6 -15   4    8.01    6.08
  -6  15  -4    8.15    7.43
   6 -15   5    0.65    3.09
  -6  15  -5    4.50    3.96
   6 -15   6    7.24    6.28
  -6  15  -6    1.49    6.25
   6 -15   7   -1.54    6.90
  -6  15  -7   10.99    7.68
   6 -15   8   11.38    5.08
  -6  15  -8   20.42   10.57
   6 -15   9    9.44    3.95
  -6  15  -9   17.09   11.63
  -6  15 -10   35.69   10.22
   6 -15  11    7.98    5.37
  -6  15 -11   13.89    4.16
   6 -15  12    4.64    5.58
  -6  15 -12   13.43    5.78
   6 -15  13   12.79    6.51
  -6  15 -13   17.32    8.35
   6 -14  -6    6.42    5.31
   6 -14  -5    0.94    1.39
   6 -14  -4    6.03    3.46
   6 -14  -3    3.83    2.30
   6 -14  -2   17.29    4.53
   6 -14  -1   24.45    6.71
  -6  14   1   21.21    7.72
  -6  14   0   -2.38    2.72
  -6  14  -1  103.76   23.36
   6 -14   2    9.19    3.07
  -6  14  -2   15.74    4.67
   6 -14   3   10.44    6.51
  -6  14  -3    9.73    5.33
   6 -14   4    6.82    3.57
  -6  14  -4   11.86    6.52
   6 -14   5   26.74    6.70
  -6  14  -5   27.50    9.61
   6 -14   6   -5.59    5.03
  -6  14  -6   -1.56    6.56
   6 -14   7    8.46    3.73
  -6  14  -7   29.62    9.85
   6 -14   8   85.29   23.57
  -6  14  -8  105.79    9.54
   6 -14   9    8.93    4.84
  -6  14  -9   14.03    7.42
   6 -14  10    8.60    6.09
  -6  14 -10    5.56    4.70
   6 -14  11   11.21    8.25
  -6  14 -11   19.52    6.41
   6 -14  12   11.49    4.61
  -6  14 -12    4.76    4.67
   6 -14  13    6.98    5.04
  -6  14 -13   11.07    6.79
   6 -14  14    2.76    3.41
  -6  14 -14   -1.91    4.71
   6 -13  -7    6.99    4.47
   6 -13  -6    2.37    2.48
   6 -13  -5    0.99    1.58
   6 -13  -4   16.60    5.40
   6 -13  -3   15.15    4.96
  -6  13   3    3.89    2.89
   6 -13  -2   -0.15    2.28
  -6  13   2   -2.83    2.18
   6 -13  -1   57.05   16.05
  -6  13   1   52.10   16.26
  -6  13   0  148.00    4.92
  -6  13   0  145.62    6.33
   6 -13   1    7.66    3.86
  -6  13  -1   -1.92    3.58
   6 -13   2   15.57    4.48
  -6  13  -2   13.82    5.33
   6 -13   3   -0.45    5.18
  -6  13  -3    5.36    5.10
   6 -13   4   55.62   11.77
  -6  13  -4   61.06   12.60
   6 -13   5   73.62   24.21
  -6  13  -5   58.80    7.66
   6 -13   6   19.19    5.54
  -6  13  -6   20.04    9.35
   6 -13   7  410.34   11.02
  -6  13  -7  414.51   11.81
   6 -13   8    7.28    4.68
  -6  13  -8   -3.08    7.31
   6 -13   9   45.83    9.15
  -6  13  -9   50.34   12.57
   6 -13  10  137.55   21.43
  -6  13 -10  127.15   22.37
   6 -13  11    2.62    3.53
  -6  13 -11    2.03    6.71
   6 -13  12   -1.78    6.98
  -6  13 -12   -1.60    7.31
   6 -13  13   28.54    7.98
  -6  13 -13   21.07   11.42
   6 -13  14   10.85    6.45
  -6  13 -14   16.33    8.95
   6 -13  15   11.36    6.80
  -6  13 -15   23.57   10.59
   6 -12  -8    9.37    3.68
   6 -12  -7   17.93    6.65
   6 -12  -6    4.46    2.05
   6 -12  -5   98.97    8.78
   6 -12  -4  138.15   13.33
  -6  12   4  132.78    4.50
   6 -12  -3   21.16    8.67
  -6  12   3   19.90    6.95
   6 -12  -2   76.77   14.96
  -6  12   2   72.31    9.65
   6 -12  -1   73.89   12.02
  -6  12   1   78.88    6.45
  -6  12   0    6.67    3.54
  -6  12   0    1.04    3.78
   6 -12   1  160.05   18.34
  -6  12  -1  166.88   10.26
   6 -12   2    8.13    3.37
  -6  12  -2   17.56    9.08
   6 -12   3   91.32   17.95
  -6  12  -3   81.99    6.74
   6 -12   4   20.10    6.88
  -6  12  -4   22.40    6.25
   6 -12   5   -0.50    5.74
  -6  12  -5   -2.36    6.19
   6 -12   6  118.12   22.67
  -6  12  -6  120.08    9.32
   6 -12   7  196.09   33.03
  -6  12  -7  202.30    9.09
   6 -12   8   23.76    6.04
  -6  12  -8   24.95    9.61
   6 -12   9   11.77    5.28
  -6  12  -9   14.75    7.34
   6 -12  10  107.28   26.51
  -6  12 -10  120.97    9.62
   6 -12  11    7.68    4.00
  -6  12 -11    6.30    7.12
   6 -12  12   11.73    8.60
  -6  12 -12   17.69    6.33
   6 -12  13   -5.56    6.86
  -6  12 -13    3.79    4.67
   6 -12  14    5.75    4.26
  -6  12 -14   20.86    8.07
   6 -12  15   12.84    7.04
  -6  12 -15    9.20    8.47
   6 -11  -9   12.37    3.92
   6 -11  -8   -0.40    2.64
   6 -11  -7  311.73    6.35
   6 -11  -6   13.78    5.39
   6 -11  -5  134.66   15.97
  -6  11   5  138.48    4.12
   6 -11  -4   69.55    6.26
  -6  11   4   82.41    4.40
   6 -11  -3   32.48   13.16
  -6  11   3   28.66    9.39
   6 -11  -2   24.18    5.49
  -6  11   2   21.38    7.30
  -6  11   1  460.66   13.81
  -6  11   0   20.66    6.76
  -6  11   0   25.86    6.86
   6 -11   1   77.19   17.47
  -6  11  -1   84.06    7.37
   6 -11   2    2.39    2.20
  -6  11  -2    6.65    2.78
   6 -11   3   14.73    4.30
  -6  11  -3   18.62    6.22
   6 -11   4   28.47    5.51
  -6  11  -4   26.36    8.98
   6 -11   5    7.74    3.92
  -6  11  -5   -1.76    6.20
   6 -11   6    7.36    4.17
  -6  11  -6    0.49    6.87
   6 -11   7    5.97    3.34
  -6  11  -7   -1.63    6.45
   6 -11   8   11.59    3.20
  -6  11  -8    4.30    4.00
   6 -11   9   86.35   16.15
  -6  11  -9   91.48    9.04
   6 -11  10    5.05    2.96
  -6  11 -10   -1.46    7.46
   6 -11  11   86.47   18.52
  -6  11 -11   76.98   27.13
   6 -11  12   60.79   14.06
  -6  11 -12   88.44    9.89
   6 -11  13   12.29    5.97
  -6  11 -13    9.26    8.55
   6 -11  14   11.35    5.36
  -6  11 -14   -2.47    8.12
   6 -11  15    0.42    4.60
  -6  11 -15   15.69   11.92
   6 -10 -10    5.28    1.93
   6 -10  -9    6.48    2.35
   6 -10  -8    8.46    2.30
   6 -10  -7   20.46    6.72
   6 -10  -6    1.49    2.99
  -6  10   6    6.26    2.14
   6 -10  -5   58.90    8.32
  -6  10   5   61.90    3.50
   6 -10  -4   66.24   10.11
  -6  10   4   59.13   10.39
  -6  10   4   57.51    2.59
   6 -10  -3   22.64    5.47
  -6  10   3   14.68    3.91
   6 -10  -2   10.99    4.39
  -6  10   2   13.55    4.01
  -6  10   1    1.14    2.96
  -6  10   1    2.21    2.69
  -6  10   0    2.49    2.28
  -6  10   0    3.43    2.36
   6 -10   1    6.06    6.26
  -6  10  -1    2.21    3.89
   6 -10   2   33.10    9.26
  -6  10  -2   36.28    7.22
   6 -10   3   29.77    6.36
  -6  10  -3   27.02    6.09
   6 -10   4    3.36    1.75
  -6  10  -4    7.63    4.57
   6 -10   5   21.66    6.19
  -6  10  -5   33.75    8.42
   6 -10   6    4.84    1.81
  -6  10  -6   -0.01    6.38
   6 -10   7   -0.24    5.64
  -6  10  -7    6.66    4.88
   6 -10   8   -3.26    6.35
  -6  10  -8    0.79    6.53
   6 -10   9   15.51    4.12
  -6  10  -9    5.27    8.53
   6 -10  10   39.24   13.42
  -6  10 -10   26.82    7.32
   6 -10  11    3.01    3.84
  -6  10 -11    2.68    7.49
   6 -10  12    8.61    3.93
  -6  10 -12    3.57    4.68
   6 -10  13   27.18    8.32
  -6  10 -13   14.72    7.37
   6 -10  14    8.45    5.23
  -6  10 -14    4.13    6.72
   6 -10  15   36.95   19.69
  -6  10 -15   52.93   12.60
   6  -9 -11    3.23    2.68
   6  -9 -10   18.66    5.44
   6  -9  -9    8.07    2.70
   6  -9  -8   11.50    3.71
  -6   9   8   15.41    3.54
   6  -9  -7   81.49   11.50
  -6   9   7   88.56    6.00
   6  -9  -6   27.80    7.07
  -6   9   6   25.58    8.63
  -6   9   6   15.33    4.84
   6  -9  -5   -1.07    2.05
  -6   9   5    1.07    1.87
  -6   9   5    0.73    1.10
  -6   9   5   -0.85    1.26
   6  -9  -4    2.43    1.66
  -6   9   4   -1.44    2.40
  -6   9   4    0.69    1.03
  -6   9   4   -0.04    1.43
   6  -9  -3  465.43   13.04
  -6   9   3  466.92   13.52
  -6   9   3  445.82   12.08
  -6   9   2    5.69    3.30
  -6   9   2    4.91    1.63
  -6   9   1   55.53    4.38
  -6   9   1   55.74    6.70
  -6   9   1   60.25    7.95
  -6   9   0   32.41    6.28
  -6   9   0   23.51    6.24
  -6   9   0   33.61    4.23
   6  -9   1    2.53    2.59
  -6   9  -1    2.03    3.03
   6  -9   2    9.68    3.14
  -6   9  -2    5.45    3.45
   6  -9   3   35.87   11.26
  -6   9  -3   35.21   10.62
   6  -9   4   19.94    5.66
  -6   9  -4    6.33    4.48
   6  -9   5   22.58    5.37
  -6   9  -5   21.05    8.43
   6  -9   6  103.12   18.74
  -6   9  -6  100.54    7.24
   6  -9   7   71.11   19.67
  -6   9  -7   72.12   15.59
   6  -9   8   38.62   10.62
  -6   9  -8   16.51    6.92
   6  -9   9    7.14    3.63
  -6   9  -9    7.73    3.58
   6  -9  10    9.02    4.16
  -6   9 -10    7.62    2.87
   6  -9  11   10.29    4.95
  -6   9 -11    4.62    8.05
   6  -9  12   15.58    4.29
  -6   9 -12   39.66   10.24
   6  -9  13    7.17    4.81
  -6   9 -13   11.17    4.79
   6  -9  14   19.43    9.07
  -6   9 -14   20.07    8.90
   6  -9  15    6.19    3.30
  -6   9 -15   12.56   10.59
   6  -8 -11   77.72    8.27
   6  -8 -10  103.20    8.12
   6  -8  -9   36.74    7.97
  -6   8   9   45.34    8.39
   6  -8  -8   38.46    8.62
  -6   8   8   40.06    8.65
   6  -8  -7    7.80    2.67
  -6   8   7    4.35    1.35
  -6   8   7    5.56    2.09
  -6   8   7   10.01    2.11
   6  -8  -6    5.08    2.34
  -6   8   6    3.34    2.13
  -6   8   6    1.16    1.30
  -6   8   6    3.60    1.95
   6  -8  -5    9.31    2.83
  -6   8   5    8.87    2.68
  -6   8   5    6.70    2.72
  -6   8   5    4.09    1.88
   6  -8  -4   26.51    4.94
  -6   8   4   19.65    6.52
  -6   8   4   16.96    3.97
  -6   8   4   23.73    4.12
   6  -8  -3  114.84   10.28
  -6   8   3  111.62    4.98
  -6   8   3  104.22    2.66
  -6   8   3  105.04    3.72
  -6   8   2  117.14    6.07
  -6   8   2  119.73    5.49
  -6   8   2  120.13    5.47
  -6   8   1   35.76   10.08
  -6   8   1   28.56    5.15
  -6   8   1   27.63    3.77
  -6   8   0   -2.48    3.97
  -6   8   0    0.61    1.38
  -6   8   0    2.09    1.58
   6  -8   1  105.92    5.64
  -6   8  -1  105.00    5.14
  -6   8  -1  114.05    4.90
   6  -8   2   -0.55    3.45
  -6   8  -2   -0.98    3.38
   6  -8   3   -4.64    4.24
  -6   8  -3    2.24    4.46
   6  -8   4  128.59   18.47
  -6   8  -4  127.43    7.88
   6  -8   5    1.42    5.75
  -6   8  -5    0.30    4.92
   6  -8   6   16.02    5.63
  -6   8  -6   37.29    9.17
   6  -8   7  152.27    7.46
  -6   8  -7  154.02    7.39
   6  -8   8    5.35    4.90
  -6   8  -8    2.81    4.27
   6  -8   9   -2.90    6.16
  -6   8  -9    4.20    2.79
   6  -8  10    3.10    4.13
  -6   8 -10    0.90    3.15
   6  -8  11   15.65    6.56
  -6   8 -11   14.77    7.16
   6  -8  12   54.64   15.58
  -6   8 -12   84.03   11.44
   6  -8  13   44.65   17.50
  -6   8 -13   35.57   20.54
   6  -8  14   11.24    8.95
  -6   8 -14   18.97    7.42
   6  -8  15   10.33    7.57
  -6   8 -15    6.48    7.68
   6  -7 -12    9.49    2.35
   6  -7 -11    4.71    4.35
   6  -7 -10   28.70    9.98
  -6   7  10   43.49   10.69
   6  -7  -9    4.21    4.71
  -6   7   9    0.64    0.95
   6  -7  -8    1.28    1.25
   6  -7  -8    3.00    1.31
  -6   7   8   -1.88    2.09
  -6   7   8    2.40    1.30
   6  -7  -7   93.15    7.31
   6  -7  -7   80.93    2.76
  -6   7   7   86.20   11.57
  -6   7   7   80.01    2.62
   6  -7  -6    8.26    2.35
   6  -7  -6    3.99    2.00
  -6   7   6    3.86    2.39
  -6   7   6    8.18    1.72
   6  -7  -5   44.09    6.20
  -6   7   5   39.68    7.39
  -6   7   5   32.55    6.06
  -6   7   5   39.79    3.33
   6  -7  -4  169.64   10.75
  -6   7   4  154.14    6.88
  -6   7   4  150.01    7.50
  -6   7   4  163.31    6.71
  -6   7   3   21.63    5.34
  -6   7   3   20.00    4.44
  -6   7   3   29.63    4.84
  -6   7   3   29.05    5.26
  -6   7   2   45.08   13.55
  -6   7   2   42.39    5.18
  -6   7   2   37.97    5.45
  -6   7   1  247.66    9.10
  -6   7   1  250.02    9.02
  -6   7   1  253.95    8.13
  -6   7   0  239.68    8.79
  -6   7   0  240.06    9.35
  -6   7   0  251.57    8.26
   6  -7   1   39.53    9.18
  -6   7  -1   33.51    5.13
  -6   7  -1   30.32    3.42
   6  -7   2  155.96   17.13
   6  -7   2  129.71    4.61
  -6   7  -2  148.73    5.64
   6  -7   3   52.25   14.65
  -6   7  -3   54.77    5.57
   6  -7   4    6.74    2.89
  -6   7  -4    1.75    2.78
   6  -7   5   10.47    4.56
  -6   7  -5   19.91    5.57
   6  -7   6  174.93    6.01
  -6   7  -6  187.06    8.93
   6  -7   7   11.16    3.12
  -6   7  -7   15.36    7.88
   6  -7   8  182.83    8.24
  -6   7  -8  178.56    8.73
   6  -7   9   78.05   20.28
  -6   7  -9   87.42   12.89
   6  -7  10  152.42   26.13
  -6   7 -10  187.58   11.25
   6  -7  11    3.65    4.45
  -6   7 -11    2.48    3.96
   6  -7  12   86.65   24.53
  -6   7 -12  100.13   32.04
   6  -7  13    5.27    3.94
  -6   7 -13    5.73    8.71
   6  -7  14   12.52    6.58
  -6   7 -14    4.40    4.23
   6  -7  15    7.57    3.89
  -6   7 -15    5.14    4.94
   6  -6 -13    6.00    2.33
   6  -6 -12    6.98    3.28
  -6   6  12    6.63    3.14
   6  -6 -11   63.41   11.92
  -6   6  11   93.56   16.27
  -6   6  10   18.06    6.15
   6  -6  -9    2.27    1.52
  -6   6   9    2.68    1.90
  -6   6   9    0.81    0.64
   6  -6  -8   76.68    7.03
   6  -6  -8   52.81    7.15
  -6   6   8   84.35   12.82
  -6   6   8   66.05    3.70
   6  -6  -7   11.37    3.46
   6  -6  -7   10.65    3.99
  -6   6   7   14.44    5.14
  -6   6   7   20.19    3.65
   6  -6  -6  188.22    6.90
   6  -6  -6  173.92    9.08
  -6   6   6  201.86    9.03
  -6   6   6  201.85    7.30
   6  -6  -5   16.07    2.98
   6  -6  -5   17.96    5.60
  -6   6   5    8.98    2.78
  -6   6   5   27.73    4.67
   6  -6  -4   55.05    3.40
  -6   6   4   70.59   11.94
  -6   6   4   56.91    2.79
  -6   6   4   55.53    5.23
  -6   6   3  133.54    4.52
  -6   6   3  143.57    6.23
  -6   6   3  140.65    4.07
  -6   6   3  145.66    5.45
  -6   6   2  823.91    9.96
  -6   6   2  893.23   15.75
  -6   6   2  846.11    9.57
  -6   6   2  858.45    9.75
  -6   6   1   11.25    4.74
  -6   6   1   16.41    3.80
  -6   6   1   11.31    2.64
  -6   6   0   65.47   15.69
  -6   6   0   63.44   11.62
   6  -6   1    5.87    3.55
  -6   6  -1    8.14    3.26
  -6   6  -1    0.31    4.13
   6  -6   2  171.49    6.14
   6  -6   2  159.15    5.07
  -6   6  -2  175.16    6.17
   6  -6   3    0.27    2.05
  -6   6  -3    2.62    3.46
   6  -6   4   -4.47    4.26
  -6   6  -4   -3.97    5.52
   6  -6   5  164.48    7.62
  -6   6  -5  168.38    9.38
   6  -6   6   49.97   11.05
  -6   6  -6   59.15   13.02
   6  -6   7    5.05    2.38
  -6   6  -7   -1.05    5.37
   6  -6   8   47.04   13.06
  -6   6  -8   45.56    7.96
   6  -6   9   11.44    5.71
  -6   6  -9   13.35    7.76
   6  -6  10   62.35   15.83
  -6   6 -10   65.36   16.33
   6  -6  11   48.42   13.56
  -6   6 -11   54.26   12.53
   6  -6  12    0.03    3.97
  -6   6 -12   -2.67    6.21
   6  -6  13   14.83    7.61
  -6   6 -13   20.02    8.18
   6  -6  14   12.73    6.90
  -6   6 -14   24.74   12.34
   6  -6  15    1.69    5.18
  -6   6 -15    5.70    7.42
   6  -5 -14    4.34    2.94
   6  -5 -13    3.99    2.34
  -6   5  13    5.32    3.12
   6  -5 -12   89.23    4.84
  -6   5  12   81.23   10.86
  -6   5  11   46.33    8.00
   6  -5 -10  232.10   11.75
  -6   5  10  228.57   15.45
  -6   5  10  197.06   10.10
   6  -5  -9    9.67    2.53
  -6   5   9    5.94    3.07
  -6   5   9    6.11    2.47
   6  -5  -8   89.94    3.76
  -6   5   8   84.91   13.04
  -6   5   8   77.87    3.33
   6  -5  -7    7.15    1.94
   6  -5  -7    9.10    2.67
  -6   5   7    8.68    4.07
  -6   5   7   12.47    3.19
   6  -5  -6   30.34    4.75
  -6   5   6   26.72    8.71
  -6   5   6   35.25    2.31
   6  -5  -5    0.91    0.84
  -6   5   5   -1.97    3.10
  -6   5   5    0.17    0.34
  -6   5   5    0.86    0.41
   6  -5  -4   12.75    3.97
  -6   5   4    8.02    4.91
   6  -5  -3 1541.19   17.39
  -6   5   3 1570.57   18.36
  -6   5   3 1598.90   16.78
  -6   5   3 1593.66   16.71
  -6   5   2 1458.74   17.64
  -6   5   2 1463.57   15.60
   6  -5  -1    8.08    2.60
  -6   5   1   13.66    4.60
  -6   5   1   25.20    7.01
   6  -5   0   62.29    3.60
  -6   5   0   62.91    3.40
  -6   5   0   55.11    5.14
   6  -5   1    4.98    3.54
  -6   5  -1   -3.59    3.19
  -6   5  -1   -1.30    3.94
   6  -5   2   -0.98    2.44
  -6   5  -2    3.61    4.69
   6  -5   3  101.06    6.31
  -6   5  -3  104.20    6.29
   6  -5   4   71.24   16.78
  -6   5  -4   50.01    6.36
   6  -5   5   65.23   13.04
  -6   5  -5   34.98    5.82
   6  -5   6   10.18    3.62
  -6   5  -6    8.07    4.01
   6  -5   7    5.08    3.84
  -6   5  -7   -5.96    5.05
   6  -5   8  210.80   14.38
  -6   5  -8  209.76    8.38
   6  -5   9  591.33   20.04
  -6   5  -9  652.10   22.40
   6  -5  10  538.55   13.58
  -6   5 -10  557.46   12.60
   6  -5  11   35.18    8.49
  -6   5 -11   45.18   14.20
   6  -5  12    9.85    4.66
  -6   5 -12    9.18    8.44
   6  -5  13    9.35    3.85
  -6   5 -13   25.99   11.07
   6  -5  14    4.02    4.27
  -6   5 -14    3.11    5.17
   6  -5  15   27.27   13.15
  -6   5 -15   24.36   13.42
   6  -4 -14    4.24    3.13
  -6   4  14    5.76    4.01
   6  -4 -13    6.77    2.93
  -6   4  13    3.66    3.93
   6  -4 -12   50.96    9.15
  -6   4  12   72.98    9.85
   6  -4 -11    2.66    2.41
  -6   4  11    4.82    2.99
   6  -4 -10   94.49    6.21
  -6   4  10   89.94   14.19
  -6   4  10   84.08    3.46
   6  -4  -9   60.46    7.58
  -6   4   9   72.65    8.88
  -6   4   9   58.75    2.08
   6  -4  -8  220.48    5.65
  -6   4   8  221.29    7.74
  -6   4   8  208.01    5.30
   6  -4  -7   17.67    2.66
  -6   4   7   12.51    3.74
  -6   4   7   20.11    3.22
  -6   4   6  308.32   11.32
   6  -4  -5   13.40    5.16
  -6   4   5   12.26    5.28
   6  -4  -4 2563.03   27.65
  -6   4   4 2605.03   28.99
   6  -4  -3  732.62    9.70
  -6   4   3  769.58   12.05
  -6   4   3  739.55    7.91
  -6   4   3  746.85    8.24
   6  -4  -2  390.15   11.69
   6  -4  -2  405.32   11.13
  -6   4   2  427.42   13.44
  -6   4   2  427.61    5.46
   6  -4  -1 1109.68   17.56
  -6   4   1 1037.01   21.20
  -6   4   1 1148.59   18.39
  -6   4   1 1052.99   18.24
   6  -4   0   42.29    3.14
  -6   4   0   49.63    8.86
  -6   4   0   53.71   12.64
   6  -4   1   66.07    9.11
  -6   4  -1   73.41    7.75
  -6   4  -1   48.99   16.02
   6  -4   2   10.45    5.08
  -6   4  -2   17.17    6.34
  -6   4  -2   17.31    5.22
  -6   4  -3  113.61   17.60
   6  -4   4  278.76   10.61
  -6   4  -4  283.58   12.60
   6  -4   5    6.32    3.67
  -6   4  -5    2.47    6.02
   6  -4   6   65.79   13.47
  -6   4  -6   59.95    8.49
   6  -4   7  397.66   13.96
  -6   4  -7  404.77   17.32
   6  -4   8   27.93    9.03
  -6   4  -8   17.20    8.41
   6  -4   9   10.29    5.75
  -6   4  -9    1.14    6.70
   6  -4  10  131.87   10.36
  -6   4 -10  133.20   11.26
   6  -4  11   42.07   14.05
  -6   4 -11   56.92   18.10
   6  -4  12  109.14   11.96
  -6   4 -12  110.61   17.22
   6  -4  13   24.59    9.67
  -6   4 -13   25.84    9.27
   6  -4  14   -0.59    5.70
  -6   4 -14    7.07    5.01
   6  -4  15    3.71    3.66
  -6   4 -15   16.15   10.79
  -6   3  16   10.75    4.18
   6  -3 -15  261.08    7.24
  -6   3  15  240.71    7.45
   6  -3 -14    1.05    1.30
  -6   3  14   -1.35    4.03
   6  -3 -13    1.32    1.69
  -6   3  13    4.70    3.43
   6  -3 -12   99.90    5.15
  -6   3  12   99.51   11.69
   6  -3 -11  317.08    6.62
  -6   3  11  313.02    7.68
  -6   3  11  268.74   12.97
   6  -3 -10   -0.57    1.13
  -6   3  10    1.24    2.26
  -6   3  10   -1.38    1.14
   6  -3  -9   38.44    6.54
  -6   3   9   54.94   12.70
  -6   3   9   41.44    2.13
   6  -3  -8  249.20    7.09
  -6   3   8  261.21   10.72
  -6   3   8  245.61    6.28
   6  -3  -7  122.38    1.75
  -6   3   7  126.24   10.77
  -6   3   6  507.68    9.67
  -6   3   5  237.57    9.35
   6  -3  -4 1821.85   20.43
  -6   3   4 1861.61   21.71
   6  -3  -3  813.88   13.67
   6  -3  -3  859.18   13.38
  -6   3   3  872.24   15.79
  -6   3   3  855.01   13.31
   6  -3  -2  101.62    2.70
  -6   3   2  109.49    4.71
  -6   3   2  102.03    5.84
   6  -3  -1  648.22   10.86
  -6   3   1  679.19   12.83
  -6   3   1  688.87   18.63
   6  -3   0   16.06    4.20
  -6   3   0   22.67    5.57
  -6   3   0    9.82    4.32
   6  -3   1   88.63    3.81
  -6   3  -1  103.26    6.20
  -6   3  -1  110.37   17.00
   6  -3   2   83.08    4.41
  -6   3  -2   92.80    5.96
  -6   3  -2   93.48    6.47
  -6   3  -3  243.17   10.66
  -6   3  -3  238.35    9.58
  -6   3  -4  699.27   11.74
  -6   3  -4  685.30   12.36
   6  -3   5  353.68   16.00
  -6   3  -5  361.26   11.87
   6  -3   6   81.34    6.34
  -6   3  -6   77.43    6.69
   6  -3   7    3.13    3.28
  -6   3  -7    8.11    6.75
   6  -3   8   68.83   17.24
  -6   3  -8   67.24   17.39
   6  -3   9  121.48    9.02
  -6   3  -9   88.75   23.81
   6  -3  10    1.80    4.27
  -6   3 -10   -3.10    7.27
   6  -3  11    5.81    4.11
  -6   3 -11    4.20    8.16
   6  -3  12   61.15   22.12
  -6   3 -12   46.34   16.04
   6  -3  13    1.38    3.56
  -6   3 -13   -1.83    8.28
   6  -3  14    1.02    3.28
  -6   3 -14   -2.22    7.89
  -6   2  17   39.79   10.87
   6  -2 -16    3.52    3.88
  -6   2  16   10.71   11.86
   6  -2 -15  320.76    9.77
  -6   2  15  324.81    9.07
   6  -2 -14    0.54    2.91
  -6   2  14   -1.40    4.43
   6  -2 -13    4.16    2.88
  -6   2  13    6.06    4.03
   6  -2 -12   37.97   11.77
  -6   2  12   51.48    7.64
   6  -2 -11  671.19   15.89
  -6   2  11  651.73   16.99
   6  -2 -10   47.79    3.11
  -6   2  10   59.20    7.10
  -6   2  10   46.26    5.16
   6  -2  -9   -0.52    1.73
   6  -2  -9    2.58    2.01
  -6   2   9    2.96    2.28
   6  -2  -8   22.87    2.66
   6  -2  -8   10.97    2.93
  -6   2   8   13.31    6.61
   6  -2  -7    6.49    2.62
   6  -2  -7    6.46    1.38
  -6   2   7    6.29    3.65
   6  -2  -6   60.35    2.71
  -6   2   6   67.82    7.93
  -6   2   5  139.76    7.15
   6  -2  -4  113.45    3.76
  -6   2   4  113.75    5.12
  -6   2   4  117.21    7.54
   6  -2  -3 1864.10   29.77
   6  -2  -3 1932.87   29.68
  -6   2   3 1965.76   31.42
  -6   2   3 2007.41   30.86
   6  -2  -2  382.13   11.44
   6  -2  -2  405.55   11.47
  -6   2   2  409.04   13.15
  -6   2   2  406.44   11.72
   6  -2  -1  886.76   15.18
   6  -2  -1  892.76   14.58
  -6   2   1  928.92   17.20
  -6   2   1  930.82   15.96
   6  -2   0   81.62    4.67
  -6   2   0   82.64    4.68
   6  -2   1  383.32   11.11
  -6   2  -1  399.48   12.35
  -6   2  -1  389.16   12.48
  -6   2  -2   95.60    5.08
  -6   2  -2   90.48    5.25
  -6   2  -3  116.19    4.74
  -6   2  -3  107.43   15.31
  -6   2  -4  163.60    8.22
  -6   2  -4  141.15   10.88
  -6   2  -5  115.32    7.15
  -6   2  -5  119.69    9.51
  -6   2  -6   12.92    5.55
  -6   2  -6   -2.78    4.87
  -6   2  -7  225.21   19.76
   6  -2   8    2.93    2.81
  -6   2  -8   -1.44    6.06
   6  -2   9    7.97    5.62
  -6   2  -9   14.01    6.67
   6  -2  10  275.69   15.84
  -6   2 -10  308.96   12.99
   6  -2  11    5.12    5.14
  -6   2 -11   23.43   10.38
   6  -2  12   -3.06    5.24
  -6   2 -12    1.01    7.22
  -6   2 -13   57.31   20.87
  -6   2 -14   13.93    6.44
  -6   2 -14    3.24    7.37
  -6   1  18   68.47   20.41
  -6   1  17    1.96    2.90
   6  -1 -16    3.57    3.56
  -6   1  16    4.70    2.40
   6  -1 -15   27.25    6.65
  -6   1  15   42.17    9.94
   6  -1 -14   21.94    6.01
  -6   1  14    8.36    4.92
   6  -1 -13    1.08    3.25
  -6   1  13    4.27    3.43
   6  -1 -12   29.46    9.10
  -6   1  12   24.46    8.17
   6  -1 -11    9.95    3.47
   6  -1 -11    3.10    1.36
  -6   1  11    4.73    3.06
   6  -1 -10   49.45    3.81
   6  -1 -10   38.02    5.41
  -6   1  10   52.28    8.56
   6  -1  -9    2.43    2.97
   6  -1  -9    1.15    1.57
  -6   1   9    0.34    2.87
   6  -1  -8   92.27    3.78
   6  -1  -8   82.55    4.10
  -6   1   8   88.97   11.01
   6  -1  -7  171.08    4.55
   6  -1  -7  165.64    4.32
  -6   1   7  183.13   13.81
   6  -1  -6    5.42    2.05
   6  -1  -6    2.80    1.26
  -6   1   6   -0.06    4.05
   6  -1  -5  345.20    9.38
  -6   1   5  343.08   10.01
  -6   1   5  344.52   10.76
   6  -1  -4  246.08    7.39
  -6   1   4  254.52    6.83
  -6   1   4  237.36   14.13
   6  -1  -3   54.42   11.06
   6  -1  -3   55.44    4.88
  -6   1   3   56.34    5.99
  -6   1   3   50.11    5.74
   6  -1  -2    4.56    2.51
   6  -1  -2    4.35    2.62
  -6   1   2    3.12    2.38
  -6   1   2    2.17    2.64
   6  -1  -1 1702.85   27.60
  -6   1   1 1851.80   29.76
   6  -1   0   -0.02    3.23
  -6   1   0    9.92    4.48
  -6   1   0   10.73    6.18
   6  -1   1  598.14   16.89
  -6   1  -1  612.91   17.42
  -6   1  -1  568.66   16.15
  -6   1  -2  215.03   12.06
  -6   1  -2  207.42   13.63
  -6   1  -3  210.06    8.21
  -6   1  -3  215.44   12.23
  -6   1  -4  145.41    8.36
  -6   1  -4  150.67    9.31
  -6   1  -5   29.15    6.65
  -6   1  -5   26.98    6.80
  -6   1  -6  152.58   14.78
  -6   1  -6  148.86    9.14
  -6   1  -7   39.55    5.25
  -6   1  -7   40.66    8.37
  -6   1  -8   16.77    5.48
  -6   1  -8   20.46    5.29
  -6   1  -9   10.89    5.47
  -6   1  -9    4.37    8.27
  -6   1 -10   70.97   21.60
  -6   1 -10   96.02   11.39
  -6   1 -11   12.74    5.90
  -6   1 -11   29.75    8.86
  -6   1 -12    4.29    2.53
  -6   1 -12   -0.93    7.10
  -6   1 -13   -0.99    7.99
  -6   1 -14    8.26    7.35
  -6   0  19   37.45   10.45
  -6   0  18   11.64    5.50
   6   0 -17    5.80    3.72
  -6   0  17    3.57    4.65
   6   0 -16    4.81    4.15
  -6   0  16    3.33    4.73
   6   0 -15   73.60    7.16
  -6   0  15   70.35   10.44
   6   0 -14   33.11    6.70
  -6   0  14   42.69   10.94
   6   0 -13   43.87   14.61
  -6   0  13   67.46   13.04
   6   0 -12   79.96    6.07
  -6   0  12  100.32   21.93
   6   0 -11   14.15    5.60
   6   0 -11    8.56    2.97
  -6   0  11   14.22    6.22
   6   0 -10    5.86    3.68
   6   0 -10    2.82    1.67
  -6   0  10   11.41    4.49
   6   0  -9   54.24    9.25
   6   0  -9   44.67    4.88
  -6   0   9   60.84   13.26
   6   0  -8  394.98   12.29
   6   0  -8  377.77   12.35
  -6   0   8  378.51   13.42
   6   0  -7  129.46    4.61
   6   0  -7  116.00    3.23
  -6   0   7  122.48    7.99
   6   0  -6    3.60    1.60
  -6   0   6   -0.03    1.61
  -6   0   6    4.65    3.74
   6   0  -5    7.80    2.35
  -6   0   5    6.35    2.63
  -6   0   5    3.01    5.65
   6   0  -4  226.26    7.57
  -6   0   4  231.79    8.36
  -6   0   4  196.78    9.08
   6   0  -3  230.00    7.70
  -6   0   3  244.77    8.74
  -6   0   3  205.88    8.64
   6   0  -2    0.82    1.89
  -6   0   2    1.58    2.42
  -6   0   2    6.32    4.52
   6   0  -1  176.56    6.26
  -6   0   1  183.34   10.28
  -6   0   1  176.69    7.51
   6   0   0  692.54    9.53
  -6   0   0  734.56   10.97
  -6   0   0  685.76    9.95
  -6   0  -1  241.14   10.71
  -6   0  -1  288.95   13.38
  -6   0  -2   72.22   12.52
  -6   0  -2   80.66   15.03
  -6   0  -3  312.40   15.33
  -6   0  -3  287.51   10.02
  -6   0  -4  157.55    6.29
  -6   0  -4  160.88    6.70
  -6   0  -5   79.92   13.44
  -6   0  -5   78.55   19.42
  -6   0  -6   14.57    5.88
  -6   0  -6   25.22    7.38
  -6   0  -7   45.21   12.03
  -6   0  -7   56.46   13.42
  -6   0  -8   31.56    8.71
  -6   0  -8   36.04   11.52
  -6   0  -9    6.81    4.07
  -6   0  -9   11.25    5.22
  -6   0 -10   12.33    4.54
  -6   0 -10   10.32    4.11
  -6   0 -11   32.89    8.48
  -6   0 -12   74.71   26.98
  -6   0 -13    5.20    6.60
  -6  -1  19    6.82    3.83
   6   1 -18    8.80    5.67
  -6  -1  18   -0.96    4.02
   6   1 -17   -1.05    3.62
  -6  -1  17    1.78    4.16
   6   1 -16    3.79    4.17
  -6  -1  16    3.47    5.47
   6   1 -15   -0.33    3.46
  -6  -1  15   12.36    8.28
   6   1 -14  106.28    7.48
  -6  -1  14   93.55   14.67
   6   1 -13   11.63    3.58
  -6  -1  13    6.73    3.37
   6   1 -12  124.24    6.92
  -6  -1  12  125.30   17.59
   6   1 -11   71.42    5.45
  -6  -1  11   79.66    5.89
   6   1 -10   89.30    4.78
   6   1 -10   72.30    4.14
  -6  -1  10   72.65    9.97
   6   1  -9   15.50    4.43
   6   1  -9   12.64    2.82
  -6  -1   9   11.92    4.37
   6   1  -8   -0.20    2.54
   6   1  -8    0.85    0.94
  -6  -1   8    4.17    2.73
   6   1  -7  513.08    9.01
  -6  -1   7  527.95    9.30
   6   1  -6    4.50    2.51
  -6  -1   6    8.27    3.57
  -6  -1   6    4.50    3.39
   6   1  -5   26.39    6.12
  -6  -1   5   26.25    6.97
  -6  -1   5   23.39    7.44
   6   1  -4  292.84    9.22
  -6  -1   4  294.84    9.24
  -6  -1   4  296.21    9.67
   6   1  -3   -0.20    2.53
  -6  -1   3    0.57    1.87
  -6  -1   3    5.05    4.40
   6   1  -2  907.62   11.56
  -6  -1   2  963.75   12.54
  -6  -1   2  904.11   11.99
   6   1  -1    0.32    2.65
  -6  -1   1    0.73    3.66
  -6  -1   1    5.98    5.26
  -6  -1   0   -4.00    3.34
  -6  -1   0    2.23    4.04
  -6  -1  -1  228.62    8.81
  -6  -1  -1  228.71    9.52
  -6  -1  -2  518.32   13.89
  -6  -1  -2  525.97   17.35
  -6  -1  -3    3.12    2.17
  -6  -1  -3    0.66    4.74
  -6  -1  -4  701.06   20.60
  -6  -1  -4  659.07   19.53
  -6  -1  -5   52.92    7.96
  -6  -1  -5   49.13   11.57
  -6  -1  -6   49.82   16.19
  -6  -1  -6   75.28   18.53
  -6  -1  -7  243.63   10.04
  -6  -1  -7  261.48   10.50
  -6  -1  -8   25.22    8.41
  -6  -1  -8   33.42   11.99
  -6  -1  -9   35.80   14.66
  -6  -1  -9   47.69   19.52
  -6  -1 -10  126.30    8.36
  -6  -1 -10  140.76   10.86
  -6  -1 -11   10.92    7.22
  -6  -1 -12   11.85    7.25
  -6  -1 -13    4.93    6.00
  -6  -2  19   29.58   11.51
   6   2 -18   26.90    6.26
  -6  -2  18   15.98    6.18
   6   2 -17    1.83    4.74
  -6  -2  17   -2.76    5.24
   6   2 -16   11.03    6.32
  -6  -2  16   10.49    5.68
   6   2 -15   34.36    5.63
  -6  -2  15   44.33   11.70
   6   2 -14    0.54    2.61
  -6  -2  14    5.53    6.63
   6   2 -13   -6.67    4.18
  -6  -2  13    3.74    4.44
   6   2 -12   -0.61    2.70
  -6  -2  12   -0.23    5.13
   6   2 -11    6.25    4.08
  -6  -2  11    2.94    2.56
   6   2 -10    0.60    2.70
  -6  -2  10   -5.83    3.88
   6   2  -9   71.69    4.26
   6   2  -9   57.86    2.51
  -6  -2   9   73.89    6.02
   6   2  -8    1.73    2.53
   6   2  -8    1.21    1.23
  -6  -2   8   -1.45    4.19
   6   2  -7    1.57    1.38
  -6  -2   7    2.55    2.30
  -6  -2   7   -2.87    3.93
   6   2  -6   64.89    2.52
  -6  -2   6   70.13    4.37
  -6  -2   6   61.97    4.73
   6   2  -5  533.14    8.08
  -6  -2   5  542.55    9.03
  -6  -2   5  546.30    9.74
   6   2  -4  205.93    6.71
  -6  -2   4  230.59    8.18
  -6  -2   4  221.50    8.38
   6   2  -3  494.24   13.79
  -6  -2   3  558.60   15.97
  -6  -2   3  544.42   16.17
  -6  -2   2  719.15   12.19
  -6  -2   2  718.00   12.95
  -6  -2   1   -3.90    3.73
  -6  -2   1   -1.38    3.76
  -6  -2   0  365.21   12.15
  -6  -2   0  370.19   12.96
  -6  -2  -1  237.64   10.25
  -6  -2  -1  249.60   10.82
  -6  -2  -2  423.55   12.32
  -6  -2  -2  404.23   14.24
  -6  -2  -3    1.87    3.28
  -6  -2  -3    1.76    2.14
  -6  -2  -4    3.13    3.14
  -6  -2  -4    8.91    4.80
  -6  -2  -5   -4.45    3.23
  -6  -2  -5   13.08    5.91
  -6  -2  -6  101.48   14.75
  -6  -2  -6   81.73   28.49
  -6  -2  -7    4.32    3.21
  -6  -2  -7   -6.64    6.69
  -6  -2  -8    3.31    2.95
  -6  -2  -8   10.23    7.77
  -6  -2  -9   29.82    9.62
  -6  -2  -9   20.39    5.42
  -6  -2 -10   71.22   40.24
  -6  -2 -11   -3.18    7.88
  -6  -2 -12    7.76    7.21
   6   3 -19   -0.62    4.24
  -6  -3  19   -3.39    5.39
   6   3 -18   18.72    6.77
  -6  -3  18   10.06    5.74
   6   3 -17   -3.30    4.41
  -6  -3  17    4.91    2.80
   6   3 -16    4.05    4.37
  -6  -3  16   13.61    4.83
   6   3 -15    0.38    4.06
  -6  -3  15    0.23    6.57
   6   3 -14    5.81    3.16
  -6  -3  14    1.99    2.92
   6   3 -13    5.22    4.61
  -6  -3  13    8.56    5.52
   6   3 -12   23.56    3.73
  -6  -3  12   31.98    9.99
   6   3 -11   -2.32    3.65
  -6  -3  11   -2.86    4.68
   6   3 -10   -0.62    3.35
  -6  -3  10    1.25    2.77
   6   3  -9   27.17    4.61
  -6  -3   9   20.25   10.25
  -6  -3   8   17.54   10.29
  -6  -3   8   19.62    7.34
  -6  -3   7    5.07    4.49
  -6  -3   7   -0.63    3.46
  -6  -3   6   27.23    6.72
  -6  -3   6   21.80    6.77
  -6  -3   5   31.11   10.17
  -6  -3   5   30.81    8.45
  -6  -3   4  216.09    7.39
  -6  -3   4  228.44    8.42
  -6  -3   3  652.21   10.92
  -6  -3   3  647.56   12.03
  -6  -3   2  477.99    9.53
  -6  -3   2  432.29   14.20
  -6  -3   1  132.96   13.21
  -6  -3   1  142.88    8.08
  -6  -3   0   97.74    7.25
  -6  -3   0   99.48    6.21
  -6  -3  -1  196.98    7.07
  -6  -3  -1  199.56    9.23
  -6  -3  -2   87.75    5.88
  -6  -3  -2   81.13    7.16
  -6  -3  -3   24.64    6.03
  -6  -3  -3   25.31    6.22
  -6  -3  -4   -1.72    3.05
  -6  -3  -4   10.44    5.53
  -6  -3  -5   45.32    9.17
  -6  -3  -5   64.18   14.59
  -6  -3  -6   40.65    8.46
  -6  -3  -6   54.00   18.01
  -6  -3  -7  103.73    6.72
  -6  -3  -7   88.14   32.33
  -6  -3  -8    2.42    3.47
  -6  -3  -8    4.00    3.97
  -6  -3  -9   16.59    5.26
  -6  -3 -10   56.90   25.09
  -6  -3 -11    0.47    4.09
   6   4 -19    6.62    4.09
  -6  -4  19    6.66    3.16
   6   4 -18    8.00    6.20
  -6  -4  18   11.38    7.34
   6   4 -17    3.44    5.00
  -6  -4  17    1.83    5.12
   6   4 -16    9.17    5.28
  -6  -4  16   -0.60    5.13
   6   4 -15   37.10    6.07
  -6  -4  15   32.56    9.31
   6   4 -14   -0.47    5.38
  -6  -4  14    3.76    4.42
   6   4 -13  169.89    7.81
  -6  -4  13  177.79    7.58
   6   4 -12    4.25    3.67
  -6  -4  12    4.03    4.19
   6   4 -11   52.73    5.40
  -6  -4  11   54.27   11.05
   6   4 -10   73.40    5.60
  -6  -4  10   65.63   17.24
  -6  -4   9   12.69    4.91
  -6  -4   8   93.69    5.68
  -6  -4   8  100.54    5.62
  -6  -4   7    3.05    3.77
  -6  -4   7    1.95    3.11
  -6  -4   6   -3.90    3.96
  -6  -4   6   -0.43    4.33
  -6  -4   5    9.57    4.74
  -6  -4   5   12.52    5.12
  -6  -4   4  432.38   13.30
  -6  -4   4  445.63   16.12
  -6  -4   3   58.97   13.96
  -6  -4   3   77.18   16.93
  -6  -4   2  143.91    7.86
  -6  -4   2  141.21    8.11
  -6  -4   1   77.31    5.76
  -6  -4   1   80.28    6.17
  -6  -4   0  328.18   10.91
  -6  -4   0  299.74   13.17
  -6  -4  -1  202.93    8.77
  -6  -4  -1  196.87    6.82
  -6  -4  -2    2.18    2.89
  -6  -4  -2    3.12    2.65
  -6  -4  -3   20.51    6.05
  -6  -4  -3   22.19    9.26
  -6  -4  -4    2.05    2.89
  -6  -4  -4    0.18    5.95
  -6  -4  -5  103.43    5.58
  -6  -4  -5   93.33   22.43
  -6  -4  -6    6.21    3.53
  -6  -4  -6    8.66    7.07
  -6  -4  -7    5.69    6.04
  -6  -4  -8   -5.72    6.48
  -6  -4  -9   40.66   21.20
  -6  -4 -10    1.31    4.10
   6   5 -19    6.70    6.10
  -6  -5  19    5.71    4.92
   6   5 -18    2.49    4.92
  -6  -5  18    2.90    6.71
   6   5 -17    7.58    4.49
  -6  -5  17   15.73    7.10
   6   5 -16   21.02    5.87
  -6  -5  16   23.49    7.88
   6   5 -15   20.70    5.09
  -6  -5  15   19.50    6.58
   6   5 -14  385.72   19.44
  -6  -5  14  391.02   10.60
   6   5 -13  312.70   11.44
  -6  -5  13  296.68    9.81
   6   5 -12    7.73    5.99
  -6  -5  12    0.81    3.63
   6   5 -11    8.61    3.87
  -6  -5  11   22.09    8.12
   6   5 -10   24.51    5.81
  -6  -5  10   24.03    7.42
  -6  -5   9   38.87   11.73
  -6  -5   9   38.92   11.55
  -6  -5   8  191.36    7.31
  -6  -5   8  183.03   10.65
  -6  -5   7   52.83    5.62
  -6  -5   7   63.23    9.24
  -6  -5   6   21.70    6.56
  -6  -5   6   15.80    7.52
  -6  -5   5    5.30    3.52
  -6  -5   5   11.49    4.50
  -6  -5   4  395.57   12.74
  -6  -5   4  413.40   11.64
  -6  -5   3   19.67    6.13
  -6  -5   3   14.99    4.08
  -6  -5   2    9.53    4.60
  -6  -5   2   10.05    4.16
  -6  -5   1  357.90   11.09
  -6  -5   1  349.36   12.70
  -6  -5   0   67.42    8.27
  -6  -5   0   68.60   15.94
  -6  -5  -1    4.64    2.79
  -6  -5  -1    6.46    4.08
  -6  -5  -2   90.14   12.11
  -6  -5  -2  114.80   17.43
  -6  -5  -3   -1.87    2.74
  -6  -5  -3   -0.72    5.64
  -6  -5  -4  337.23    6.60
  -6  -5  -4  370.24   12.01
  -6  -5  -5    1.53    1.44
  -6  -5  -5    3.69    7.50
  -6  -5  -6   -2.17    6.81
  -6  -5  -7   19.73    6.85
  -6  -5  -8   21.85    7.52
  -6  -5  -9   11.22   10.66
  -6  -5 -10    5.26    6.38
   6   6 -19   -1.38    4.47
  -6  -6  19   -1.79    4.59
   6   6 -18   17.41    7.88
  -6  -6  18   34.10    9.07
   6   6 -17   25.27    8.18
  -6  -6  17   53.04    8.23
   6   6 -16   12.02    6.71
  -6  -6  16   11.20    8.11
   6   6 -15   16.77    7.02
  -6  -6  15   14.68    5.96
   6   6 -14   34.30    7.42
  -6  -6  14   38.16    9.83
   6   6 -13   19.29    8.24
  -6  -6  13   16.96    5.70
   6   6 -12   10.71    4.74
  -6  -6  12    6.26    2.86
   6   6 -11    4.50    3.93
  -6  -6  11    1.90    6.09
  -6  -6  10   61.13   14.47
  -6  -6   9   80.84   15.01
  -6  -6   9   77.38    7.04
  -6  -6   8   -0.49    4.21
  -6  -6   8   10.76    7.67
  -6  -6   7    1.00    2.43
  -6  -6   7   -2.58    4.57
  -6  -6   6   28.02    8.60
  -6  -6   6   39.47    7.95
  -6  -6   5  190.44   13.54
  -6  -6   5  190.53   16.16
  -6  -6   4  111.68    7.70
  -6  -6   4  111.09    8.28
  -6  -6   3  345.48   15.93
  -6  -6   3  338.00   16.11
  -6  -6   2   23.74    5.32
  -6  -6   2   22.06    4.45
  -6  -6   1   45.16    8.65
  -6  -6   1   47.94    9.70
  -6  -6   0    1.98    2.23
  -6  -6   0   13.90    7.24
  -6  -6  -1  120.72   13.06
  -6  -6  -1  142.14   13.70
  -6  -6  -2    1.15    1.75
  -6  -6  -2    1.89    4.64
  -6  -6  -3   22.86    7.81
  -6  -6  -3   33.77   10.43
  -6  -6  -4    4.52    3.57
  -6  -6  -4    5.49    9.39
  -6  -6  -5   42.38   20.39
  -6  -6  -6   32.73   14.56
  -6  -6  -7    7.86    5.21
  -6  -6  -8   15.38    5.90
  -6  -6  -9    4.86    5.61
   6   7 -19    7.15    4.86
  -6  -7  19    7.83    5.09
   6   7 -18   -0.13    5.20
  -6  -7  18   -0.41    6.75
   6   7 -17    3.66    5.16
  -6  -7  17    8.09    5.78
   6   7 -16   31.20    7.90
  -6  -7  16   25.35    9.21
   6   7 -15    9.39    5.22
  -6  -7  15   10.55    4.63
   6   7 -14   93.59    6.50
  -6  -7  14   77.88   24.85
   6   7 -13    8.30    6.01
  -6  -7  13    8.14    6.49
   6   7 -12   60.14   16.18
  -6  -7  12   60.89   15.39
   6   7 -11   -1.96    5.18
  -6  -7  11    4.87    5.08
  -6  -7  10   84.98    6.61
  -6  -7  10   98.18   12.02
  -6  -7   9  114.20    6.95
  -6  -7   9  111.54   32.56
  -6  -7   8   41.63   11.50
  -6  -7   8   39.52   10.92
  -6  -7   7   79.04    8.26
  -6  -7   7   79.28   18.93
  -6  -7   6  306.72   10.06
  -6  -7   6  303.29   11.98
  -6  -7   5   -1.29    4.11
  -6  -7   5    2.61    2.26
  -6  -7   4    6.65    4.87
  -6  -7   4    9.02    5.38
  -6  -7   3    2.01    2.17
  -6  -7   3    3.08    2.00
  -6  -7   2  390.31    8.14
  -6  -7   2  378.65   10.42
  -6  -7   1  161.92   15.92
  -6  -7   1  178.41   11.78
  -6  -7   0  295.46    7.32
  -6  -7   0  298.88   11.15
  -6  -7  -1    4.40    2.32
  -6  -7  -1    2.20    5.39
  -6  -7  -2   49.93   10.13
  -6  -7  -2   55.49   25.42
  -6  -7  -3   24.83   12.07
  -6  -7  -4   17.85    5.85
  -6  -7  -5  144.35    9.54
  -6  -7  -6   -3.19    7.06
  -6  -7  -7   20.90    7.44
  -6  -7  -8  -14.33    6.58
   6   8 -19    3.94    4.77
  -6  -8  19   -4.38    6.26
   6   8 -18   11.78    5.50
  -6  -8  18    4.83    3.60
   6   8 -17    7.05    5.04
  -6  -8  17    4.14    5.40
   6   8 -16   25.55    6.53
  -6  -8  16   22.12   12.33
   6   8 -15   13.14    7.63
  -6  -8  15    6.89    2.99
   6   8 -14  324.51   11.49
  -6  -8  14  338.50   12.83
   6   8 -13    3.56    5.53
  -6  -8  13    7.20    4.58
   6   8 -12   52.78    6.44
  -6  -8  12   47.20   14.35
   6   8 -11   16.88    7.61
  -6  -8  11    5.22    3.85
  -6  -8  10    5.77    4.53
  -6  -8  10   -0.26    5.14
  -6  -8   9   56.89    8.30
  -6  -8   9   51.13   23.37
  -6  -8   8  184.85   13.45
  -6  -8   8  184.51   11.14
  -6  -8   7  137.86    7.45
  -6  -8   7  139.02    7.80
  -6  -8   6  132.72   13.79
  -6  -8   6  130.15    9.63
  -6  -8   5   86.46   11.72
  -6  -8   5   94.28   21.31
  -6  -8   4  232.27   12.08
  -6  -8   4  231.22   10.87
  -6  -8   3   -0.94    3.77
  -6  -8   3    1.31    2.62
  -6  -8   2    1.28    2.98
  -6  -8   2    5.84    3.37
  -6  -8   1   83.21    8.90
  -6  -8   1   87.83   19.62
  -6  -8   0   49.81    7.91
  -6  -8   0   42.20   13.87
  -6  -8  -1   -1.46    1.95
  -6  -8  -1    3.45    5.80
  -6  -8  -2   -1.12    6.97
  -6  -8  -3    7.27    5.91
  -6  -8  -4   28.00    9.91
  -6  -8  -5    1.75    4.47
  -6  -8  -7  118.07   31.79
   6   9 -18    7.44    5.40
  -6  -9  18    9.47    6.59
   6   9 -17   24.24    5.86
  -6  -9  17   13.13    7.50
   6   9 -16   -3.89    5.18
  -6  -9  16    8.84   10.30
   6   9 -15   17.86    5.54
  -6  -9  15    1.34    6.05
   6   9 -14   10.97    6.09
  -6  -9  14   16.72    6.12
   6   9 -13   11.88    8.19
  -6  -9  13    0.41    6.79
   6   9 -12   -1.13    3.70
  -6  -9  12    6.47    3.87
  -6  -9  11    4.63    6.49
  -6  -9  10   11.19    4.80
  -6  -9  10    7.70    5.78
  -6  -9   9   -2.68    5.54
  -6  -9   9    2.97    3.21
  -6  -9   8    3.45    2.87
  -6  -9   8    2.47    3.51
  -6  -9   7  271.28    8.53
  -6  -9   7  290.25    9.50
  -6  -9   6   86.12   19.40
  -6  -9   6   88.45   15.53
  -6  -9   5  248.06    9.01
  -6  -9   5  247.03   16.32
  -6  -9   4    4.09    3.52
  -6  -9   4    4.54    3.36
  -6  -9   3   43.34    8.45
  -6  -9   3   41.47    8.87
  -6  -9   2    3.61    3.47
  -6  -9   2    6.49    3.05
  -6  -9   1   28.42    6.92
  -6  -9   1   54.59   10.13
  -6  -9   0    2.77    2.07
  -6  -9   0   -0.44    6.20
  -6  -9  -1   37.87   14.64
  -6  -9  -2   63.93   23.87
  -6  -9  -3   16.84    9.51
  -6  -9  -4    7.54    4.29
  -6  -9  -5   21.81   10.41
   6  10 -18    4.77    4.78
  -6 -10  18   11.18    8.22
   6  10 -17    5.10    8.08
  -6 -10  17    1.34    4.10
   6  10 -16    6.35    5.67
  -6 -10  16    1.46    4.11
   6  10 -15   -4.15    4.93
  -6 -10  15    0.42    6.96
   6  10 -14   31.06    9.18
  -6 -10  14   14.20    8.59
   6  10 -13   24.62   13.15
  -6 -10  13   22.62    6.76
   6  10 -12   -0.77    6.28
  -6 -10  12    2.14    6.15
  -6 -10  11   12.52    5.96
  -6 -10  11   26.90    8.57
  -6 -10  10    0.31    4.96
  -6 -10  10    0.32    3.02
  -6 -10   9   49.09   13.33
  -6 -10   9   68.34   18.65
  -6 -10   8    2.44    3.35
  -6 -10   8   -0.20    6.24
  -6 -10   7  136.56   14.94
  -6 -10   7  131.03   10.19
  -6 -10   6  240.11    7.24
  -6 -10   6  240.63   15.99
  -6 -10   5    2.55    2.56
  -6 -10   5   24.39   18.65
  -6 -10   4  167.27   17.13
  -6 -10   4  172.92   28.55
  -6 -10   3  208.19   10.02
  -6 -10   3  219.72   12.23
  -6 -10   2   -0.30    2.83
  -6 -10   2    4.87    3.70
  -6 -10   1   -2.74    6.14
  -6 -10   0   51.37   16.54
  -6 -10  -1   58.33   26.86
  -6 -10  -2   14.66    6.54
  -6 -10  -3    2.09    5.53
  -6 -10  -4   39.82   23.77
   6  11 -17   48.26   10.35
  -6 -11  17   35.70   15.92
   6  11 -16   -1.71    6.20
  -6 -11  16   -2.89    6.72
   6  11 -15   11.41    5.66
  -6 -11  15   12.80    8.07
   6  11 -14   41.87    7.88
  -6 -11  14   34.81   13.22
   6  11 -13   75.59    8.79
  -6 -11  13   87.10    8.49
   6  11 -12   15.86    6.04
  -6 -11  11    9.88    6.64
  -6 -11  11   13.52    8.89
  -6 -11  10  133.06   11.62
  -6 -11  10  132.81   30.44
  -6 -11   9   77.36   19.12
  -6 -11   9   83.08   24.38
  -6 -11   8    0.06    5.51
  -6 -11   8    8.21    4.34
  -6 -11   7   -1.41    4.46
  -6 -11   7   -0.71    5.55
  -6 -11   6   81.40    8.71
  -6 -11   6   81.09   20.65
  -6 -11   5    1.72    4.08
  -6 -11   5    0.82    3.05
  -6 -11   4    4.35    4.88
  -6 -11   4    1.22    1.78
  -6 -11   3   -4.57    2.82
  -6 -11   3   14.15    5.03
  -6 -11   2   50.48   13.62
  -6 -11   1  126.41   31.14
  -6 -11   0   11.81    5.24
  -6 -11  -1    4.54    5.00
  -6 -11  -2   24.61    6.54
   6  12 -16   12.00    5.82
  -6 -12  16   11.00    4.90
   6  12 -15    3.66    6.40
  -6 -12  15    7.34    6.81
   6  12 -14   -0.53    6.24
  -6 -12  14    7.15    3.68
   6  12 -13    2.65    6.84
  -6 -12  13   -1.57    6.23
   6  12 -12    6.74    6.10
  -6 -12  12    5.10    3.32
  -6 -12  11   85.79    8.25
  -6 -12  11   75.15   20.34
  -6 -12  10   80.00    6.23
  -6 -12  10   61.11   16.32
  -6 -12   9   18.19    7.06
  -6 -12   9    5.38    4.66
  -6 -12   8   27.50    7.83
  -6 -12   8   20.74    8.81
  -6 -12   7   31.97    6.67
  -6 -12   7   30.37   10.34
  -6 -12   6   21.16    6.80
  -6 -12   6   22.74    6.31
  -6 -12   5    1.02    3.21
  -6 -12   5    1.24    3.94
  -6 -12   4   43.13   12.73
  -6 -12   3   35.16    9.55
  -6 -12   2   66.92   20.46
  -6 -12   1   37.34   12.15
  -6 -12   0    9.08    3.68
   6  13 -14   12.15   10.23
  -6 -13  14   21.00    8.93
   6  13 -13   22.18    6.98
  -6 -13  13   17.15    6.00
   6  13 -12   37.00    9.61
  -6 -13  12   29.13   11.42
  -6 -13  11    8.58    5.69
  -6 -13  11    3.13    2.65
  -6 -13  10   15.86    6.99
  -6 -13  10   24.03    7.17
  -6 -13   9    0.07    4.43
  -6 -13   9    7.20    6.73
  -6 -13   8    4.08    2.74
  -6 -13   8   -1.72    6.14
  -6 -13   7   -5.45    3.76
  -6 -13   7   -1.66    6.00
  -6 -13   6    4.75    4.80
  -6 -13   6    3.66    3.29
  -6 -13   5   24.15    8.80
  -6 -13   4   33.28    9.91
  -6 -13   3   23.03    8.03
  -6 -13   2   14.86    5.79
  -6 -14  11   23.15   10.01
  -6 -14  11   26.39    9.53
  -6 -14  10    7.54    3.66
  -6 -14  10   14.52    7.70
  -6 -14   9   -3.61    3.79
  -6 -14   9   -3.20    5.54
  -6 -14   8   15.46    5.76
  -6 -14   8   33.54   12.14
  -6 -14   7   26.72   10.28
  -6 -14   6   32.31   12.43
  -6 -14   5    1.77    6.68
  -7  18   0   -0.39    3.36
  -7  18  -1    7.43    3.38
  -7  18  -2   -1.79    3.74
  -7  18  -3   34.72    5.94
   7 -18   4    6.49    2.72
  -7  18  -4   12.46    7.48
   7 -18   5    2.65    3.39
  -7  18  -5    1.46    5.79
   7 -18   6    1.42    3.12
  -7  18  -6    6.64    5.71
   7 -18   7   -0.24    3.80
  -7  18  -7    9.57    8.90
   7 -18   8   32.42   17.39
  -7  18  -8   67.83   12.40
  -7  17   1    4.11    2.64
  -7  17   0   11.69    5.36
  -7  17  -1    9.03    5.34
  -7  17  -2    1.14    2.68
  -7  17  -2   -2.56    5.27
   7 -17   3    8.59    4.62
  -7  17  -3   17.66    7.04
   7 -17   4    5.40    3.51
  -7  17  -4    1.81    2.65
   7 -17   5    4.55    5.27
  -7  17  -5    7.74    5.77
   7 -17   6   10.89    5.83
  -7  17  -6   30.04    6.63
   7 -17   7    5.97    3.59
  -7  17  -7   15.07   10.32
   7 -17   8    7.49    6.30
  -7  17  -8    6.57    7.27
   7 -17   9   10.74    4.64
  -7  17  -9    9.70    7.81
   7 -17  10    2.63    4.78
  -7  17 -10    7.45    7.43
   7 -16  -3   -2.37    3.13
  -7  16   1    6.98    4.65
  -7  16   0    6.36    4.01
  -7  16  -1    4.02    1.85
  -7  16  -1    1.69    3.45
  -7  16  -2    8.04    3.82
  -7  16  -2    2.11    5.20
   7 -16   3    6.18    3.97
  -7  16  -3   -1.21    5.71
   7 -16   4    2.98    3.66
  -7  16  -4    2.09    7.01
   7 -16   5   17.11    9.50
  -7  16  -5   26.29    7.46
   7 -16   6   55.96   25.65
  -7  16  -6   16.32    6.68
   7 -16   7   14.96    3.97
  -7  16  -7   38.70   10.98
   7 -16   8    9.31    5.14
  -7  16  -8   14.83    7.62
   7 -16   9   22.05    8.03
  -7  16  -9   25.68   10.61
   7 -16  10    6.20    4.14
  -7  16 -10   -7.57    7.27
   7 -16  11   10.30    3.68
  -7  16 -11    8.63    5.38
   7 -16  12   14.46    5.59
  -7  16 -12   23.69   11.24
   7 -15  -4    2.69    2.91
   7 -15  -3    3.68    2.15
  -7  15   1   -0.34    2.76
  -7  15   1    1.31    1.46
  -7  15   0   11.63    3.39
  -7  15   0   13.38    5.23
  -7  15  -1   77.11    5.25
  -7  15  -1   70.64   12.15
   7 -15   2    5.56    3.88
  -7  15  -2    9.02    6.71
   7 -15   3    6.34    2.89
  -7  15  -3   10.09    6.61
   7 -15   4   26.97   16.99
  -7  15  -4   61.88   13.08
   7 -15   5    6.65    5.37
  -7  15  -5    2.03    5.47
   7 -15   6    2.20    3.64
  -7  15  -6    8.95    9.12
   7 -15   7    6.39    3.88
  -7  15  -7    1.27    7.56
   7 -15   8   14.13    5.96
  -7  15  -8   10.85   11.26
   7 -15   9    2.10    3.34
  -7  15  -9   -1.29    7.06
   7 -15  10   -3.79    6.37
  -7  15 -10    0.70    3.16
   7 -15  11    2.23    4.09
  -7  15 -11    1.71    4.56
   7 -15  12   18.41    9.12
  -7  15 -12   25.30   10.80
   7 -15  13    7.50    3.08
  -7  15 -13   21.41   11.39
   7 -14  -5    0.88    1.49
   7 -14  -4   42.97   13.87
   7 -14  -3   17.67    5.20
  -7  14   2  158.64    5.69
  -7  14   1   24.69    5.93
  -7  14   1   20.40    9.14
  -7  14   0    8.78    3.53
  -7  14   0   13.73    6.11
  -7  14  -1    0.24    3.94
  -7  14  -1    1.27    3.95
   7 -14   2   25.77    5.96
  -7  14  -2   10.91    6.90
   7 -14   3   10.54    4.70
  -7  14  -3    2.57    5.49
   7 -14   4   26.63    8.35
  -7  14  -4   26.14    8.21
   7 -14   5   10.33    3.76
  -7  14  -5    6.55    6.25
   7 -14   6   18.95    5.01
  -7  14  -6   36.16    8.38
   7 -14   7   83.59   26.19
  -7  14  -7  103.39    8.66
   7 -14   8   62.65   14.54
  -7  14  -8   70.16    9.45
   7 -14   9   21.55    7.22
  -7  14  -9   11.45    7.11
   7 -14  10    3.14    3.78
  -7  14 -10    3.09    6.28
   7 -14  11   16.79    6.08
  -7  14 -11   19.54    7.58
   7 -14  12    3.89    3.03
  -7  14 -12   13.28   10.93
   7 -14  13   34.36   14.26
  -7  14 -13   24.62    7.79
   7 -13  -6   17.44    5.25
   7 -13  -5   -1.28    2.98
   7 -13  -4   70.31    7.76
   7 -13  -3   68.59    7.67
  -7  13   3   54.48   11.78
  -7  13   2   -2.34    2.51
  -7  13   1  466.04    7.45
  -7  13   1  469.08   12.22
  -7  13   0   33.87   12.19
  -7  13   0   32.49   10.04
  -7  13  -1    9.97    3.75
  -7  13  -1   11.08    5.81
   7 -13   2   25.82    7.75
  -7  13  -2   35.51    9.55
   7 -13   3   -2.05    5.26
  -7  13  -3   -3.10    4.20
   7 -13   4   -0.06    2.90
  -7  13  -4    3.81    1.99
   7 -13   5   23.56    6.37
  -7  13  -5   24.80    8.58
   7 -13   6   -5.61    6.15
  -7  13  -6    2.02    4.75
   7 -13   7    3.16    6.29
  -7  13  -7   -1.96    6.69
   7 -13   8   55.74   15.35
  -7  13  -8   60.93   11.02
   7 -13   9   49.78   15.65
  -7  13  -9   60.21   13.86
   7 -13  10   16.16    4.49
  -7  13 -10   14.75    7.94
   7 -13  11    7.64    6.81
  -7  13 -11    8.91    7.41
   7 -13  12    8.76    6.09
  -7  13 -12    0.18    7.18
   7 -13  13    7.32    3.43
  -7  13 -13    4.63    5.48
   7 -13  14    1.33    4.11
  -7  13 -14   10.46    4.99
   7 -12  -7    0.51    1.67
   7 -12  -6    1.13    1.35
   7 -12  -5   -0.32    1.44
  -7  12   5    3.62    3.14
   7 -12  -4   36.14    8.55
  -7  12   4   33.37    4.23
   7 -12  -3  182.44   17.69
  -7  12   3  197.25    5.49
  -7  12   2  446.28    8.37
  -7  12   2  435.59    9.79
  -7  12   1   30.50    7.63
  -7  12   1   18.78    5.16
  -7  12   0 2730.97   75.54
  -7  12   0 2849.77   14.97
  -7  12  -1  543.82   17.12
  -7  12  -1  565.90   17.56
   7 -12   2   62.74   19.13
  -7  12  -2   76.74   15.63
   7 -12   3    6.55    3.11
  -7  12  -3   -3.94    5.32
   7 -12   4    4.79    3.82
  -7  12  -4    6.52    5.81
   7 -12   5   14.22    6.58
  -7  12  -5    3.20    4.02
   7 -12   6    8.97    4.90
  -7  12  -6    1.62    6.02
   7 -12   7   18.74    3.85
  -7  12  -7    4.86    7.13
   7 -12   8   -1.88    6.25
  -7  12  -8   -7.83    7.39
   7 -12   9   10.70    4.22
  -7  12  -9    4.99    7.22
   7 -12  10   10.06    5.06
  -7  12 -10   11.54    7.01
   7 -12  11   -2.41    7.03
  -7  12 -11   -3.97    7.78
   7 -12  12    3.56    5.11
  -7  12 -12    9.83    7.39
   7 -12  13   42.44   17.92
   7 -12  14   13.79    5.74
  -7  12 -14   20.30    5.89
   7 -11  -8   10.43    4.30
   7 -11  -7   30.96   11.46
   7 -11  -6    6.41    2.47
  -7  11   6    9.27    2.45
   7 -11  -5    4.79    3.75
  -7  11   5    3.68    3.16
   7 -11  -4   18.17    3.93
  -7  11   4   12.39    3.71
  -7  11   3    2.18    2.98
  -7  11   2    7.61    4.32
  -7  11   2    4.72    4.21
  -7  11   1 3296.07   30.94
  -7  11   1 3287.98   23.39
  -7  11   0 1509.55   35.49
  -7  11   0 1559.46   35.86
  -7  11  -1   11.90    5.42
   7 -11   2   59.98   15.20
  -7  11  -2   61.47   10.19
   7 -11   3   30.85   12.00
  -7  11  -3   50.66    8.66
   7 -11   4   19.06    3.47
  -7  11  -4   16.49    7.41
   7 -11   5    4.34    3.18
  -7  11  -5    3.34    6.24
   7 -11   6    8.41    3.96
  -7  11  -6    6.73    3.80
   7 -11   7   16.99    6.70
  -7  11  -7    8.97    6.71
   7 -11   8   49.86    9.85
  -7  11  -8   55.93    9.32
   7 -11   9   44.36   14.01
  -7  11  -9   37.18   12.95
   7 -11  10   19.95    8.35
  -7  11 -10   11.44    5.60
   7 -11  11   15.17   10.37
  -7  11 -11   11.53    4.08
   7 -11  12    2.86    4.89
  -7  11 -12    3.37    8.84
   7 -11  13    5.73    2.95
  -7  11 -13   -9.33    7.94
   7 -11  14   -2.82    6.61
  -7  11 -14    5.74    8.21
   7 -11  15   -5.04    7.19
  -7  11 -15   12.44    7.35
   7 -10  -9    1.33    1.20
   7 -10  -8   44.06    8.40
   7 -10  -7   88.08   10.25
  -7  10   7  100.45    7.93
   7 -10  -6   10.47    4.14
  -7  10   6    8.39    2.95
   7 -10  -5   68.25    8.42
  -7  10   5   67.91   11.80
   7 -10  -4   -0.19    2.17
  -7  10   4    7.56    3.91
  -7  10   4    3.15    1.51
  -7  10   3   46.98   13.03
  -7  10   3   36.66    7.09
  -7  10   3   48.65    7.49
  -7  10   2  119.54   10.36
  -7  10   2  116.95    5.19
  -7  10   2  111.89    3.92
  -7  10   1  656.66   18.41
  -7  10   1  578.96   16.91
  -7  10   0    2.22    2.43
  -7  10   0    3.98    3.33
  -7  10  -1  246.08    9.05
  -7  10  -1  255.67    8.50
   7 -10   2    6.42    3.27
  -7  10  -2    0.32    4.01
   7 -10   3    9.95    5.14
  -7  10  -3   -2.43    4.26
   7 -10   4   39.51   14.90
  -7  10  -4   45.79    8.46
   7 -10   5    6.75    3.89
  -7  10  -5    2.15    3.99
   7 -10   6   32.35    9.54
  -7  10  -6   33.13    8.57
   7 -10   7   12.85    4.85
  -7  10  -7   14.95    5.74
   7 -10   8    5.94    4.17
  -7  10  -8    8.69    4.24
   7 -10   9    6.35    3.79
  -7  10  -9   11.05   10.31
   7 -10  10   98.30   25.89
  -7  10 -10   79.75   30.09
   7 -10  11    4.14    4.17
  -7  10 -11    0.02    6.82
   7 -10  12    6.64    4.71
  -7  10 -12    7.19    7.76
   7 -10  13   14.49    8.36
  -7  10 -13   20.98    7.96
   7 -10  14    5.14    4.55
  -7  10 -14   -0.21    8.19
   7 -10  15   13.09    5.46
  -7  10 -15   13.82    8.19
   7  -9 -10    5.04    2.29
   7  -9  -9  282.09    4.97
   7  -9  -8    1.16    1.18
  -7   9   8    0.62    1.16
   7  -9  -7   30.35    6.89
  -7   9   7   23.35    7.41
   7  -9  -6    0.84    0.94
  -7   9   6    2.28    1.80
  -7   9   6    1.85    1.37
   7  -9  -5    0.44    0.65
  -7   9   5    0.99    1.49
  -7   9   5    0.74    0.65
  -7   9   4   33.04    5.40
  -7   9   4   20.95    3.57
  -7   9   3  351.97   12.27
  -7   9   3  339.03    9.37
  -7   9   3  340.59   12.54
  -7   9   2    1.36    1.29
  -7   9   2   -1.08    1.20
  -7   9   2   -1.25    2.05
  -7   9   1   28.36    8.68
  -7   9   1   30.40    5.31
  -7   9   1   22.32    3.11
  -7   9   0  141.17    5.74
  -7   9   0  132.08    4.53
  -7   9   0  145.93    4.82
  -7   9  -1    3.58    4.31
  -7   9  -1    3.28    2.95
   7  -9   2    5.02    2.89
  -7   9  -2    1.61    3.47
   7  -9   3    1.70    2.94
  -7   9  -3    4.53    3.98
   7  -9   4   73.35    6.27
  -7   9  -4   70.39   15.18
   7  -9   5   11.48    5.29
  -7   9  -5   13.17    5.72
   7  -9   6   34.47    8.05
  -7   9  -6   31.83   11.00
   7  -9   7   17.70    5.73
  -7   9  -7   25.00   10.15
   7  -9   8   15.63    4.74
  -7   9  -8   21.74    8.17
   7  -9   9   39.65   11.20
  -7   9  -9   57.40   10.69
   7  -9  10    7.52    6.80
  -7   9 -10   -3.73    8.02
   7  -9  11   17.69    4.93
  -7   9 -11   21.61    7.15
   7  -9  12   12.06    5.76
  -7   9 -12    1.79    7.57
   7  -9  13    3.12    4.46
  -7   9 -13    3.96    5.00
   7  -9  14    8.42    5.77
  -7   9 -14    7.42    8.26
   7  -9  15   36.47   15.87
  -7   9 -15   50.53   11.33
   7  -8 -10  196.08    8.32
  -7   8  10  189.65    4.47
   7  -8  -9    0.64    0.76
  -7   8   9    3.48    2.52
   7  -8  -8   -0.54    1.37
  -7   8   8    0.22    4.02
   7  -8  -7    1.18    0.81
  -7   8   7    5.50    2.44
  -7   8   7    1.92    1.10
   7  -8  -6   66.06    6.79
  -7   8   6   67.82   14.58
  -7   8   6   61.25    2.21
   7  -8  -5  196.89    6.79
  -7   8   5  202.35    7.69
  -7   8   5  193.58    2.73
  -7   8   4   20.95    4.98
  -7   8   4   28.21    3.76
  -7   8   4   23.64    4.53
  -7   8   3    0.76    1.47
  -7   8   3    2.98    1.49
  -7   8   3    0.61    0.98
  -7   8   2  111.47   13.37
  -7   8   2  113.79    2.97
  -7   8   2  109.58    3.50
  -7   8   1   67.10   18.70
  -7   8   1   53.28    6.09
  -7   8   1   59.52    3.72
  -7   8   0  206.15   12.87
  -7   8   0  182.84    6.75
  -7   8   0  186.66    7.66
  -7   8  -1   80.77    7.63
  -7   8  -1   70.17    5.75
  -7   8  -1   82.19    4.11
   7  -8   2  114.04    5.63
  -7   8  -2  130.24    8.18
   7  -8   3  116.36    9.44
  -7   8  -3  120.29    5.59
   7  -8   4    4.62    4.09
  -7   8  -4    2.24    4.66
   7  -8   5   -3.61    4.72
  -7   8  -5   -1.29    5.46
   7  -8   6   -2.33    4.95
  -7   8  -6    3.87    4.04
   7  -8   7  209.12   16.50
  -7   8  -7  228.42   14.83
   7  -8   8   -1.92    5.99
  -7   8  -8    6.64    5.76
   7  -8   9  322.79    9.67
  -7   8  -9  314.99   10.37
   7  -8  10    7.13    4.72
  -7   8 -10   -8.91    7.77
   7  -8  11    6.68    3.70
  -7   8 -11   17.38    8.15
   7  -8  12   30.67   12.98
  -7   8 -12   18.78    6.08
   7  -8  13    8.85    6.50
  -7   8 -13    5.40    8.75
   7  -8  14   15.82    9.18
  -7   8 -14   27.04   10.26
  -7   8 -15   92.74   33.56
   7  -7 -11   -0.08    0.65
  -7   7  11    0.50    1.74
   7  -7 -10    2.10    0.80
  -7   7  10   -0.16    2.20
   7  -7  -9    2.28    1.68
  -7   7   9    1.93    1.88
   7  -7  -8    1.06    0.78
  -7   7   8   -0.24    1.93
  -7   7   8    0.25    0.91
   7  -7  -7    6.41    1.65
  -7   7   7    8.17    3.50
  -7   7   7   11.21    2.41
   7  -7  -6    7.58    1.73
  -7   7   6   14.29    4.33
  -7   7   6   14.52    2.75
  -7   7   5   59.36    5.88
  -7   7   5   56.84    1.86
  -7   7   5   56.99    4.47
  -7   7   4  127.08    7.97
  -7   7   4  121.83    4.51
  -7   7   4  122.11    4.74
  -7   7   3   20.40    5.27
  -7   7   3   20.59    3.46
  -7   7   3   25.28    2.38
  -7   7   2    4.03    4.16
  -7   7   2    6.31    2.07
  -7   7   2    5.42    2.48
  -7   7   1  145.71    8.95
  -7   7   1  131.10    5.21
  -7   7   1  145.23    8.23
  -7   7   0   18.25    5.73
  -7   7   0    7.11    2.60
  -7   7   0    7.22    3.28
   7  -7   1   -0.74    1.80
  -7   7  -1    2.04    1.63
  -7   7  -1   -4.14    4.67
  -7   7  -2  184.96    9.10
   7  -7   3  115.61    6.29
  -7   7  -3  122.92    7.88
   7  -7   4   -2.13    4.67
  -7   7  -4    0.79    4.98
   7  -7   5   39.51   10.73
  -7   7  -5   31.70    6.46
   7  -7   6  114.95    7.32
  -7   7  -6  103.35    7.83
   7  -7   7  135.07   31.37
  -7   7  -7  143.74   19.30
   7  -7   8   77.63   17.91
  -7   7  -8   87.14   11.03
   7  -7   9  420.52   10.60
  -7   7  -9  433.35   11.38
   7  -7  10   -1.42    6.64
  -7   7 -10   -5.06    7.60
   7  -7  11   -2.58    6.68
  -7   7 -11    7.57    5.61
   7  -7  12   13.10    7.33
  -7   7 -12   -0.81    7.81
   7  -7  13    6.39    5.40
  -7   7 -13   11.69    9.03
   7  -7  14   -2.58    6.38
  -7   7 -14   -0.17    9.09
   7  -7  15    6.67    4.12
  -7   7 -15    3.23    8.70
   7  -6 -12    2.24    1.94
  -7   6  12    1.76    3.08
  -7   6  11   34.11    7.53
   7  -6 -10   54.63    4.86
  -7   6  10   57.54   13.83
  -7   6   9  144.89   12.53
   7  -6  -8   83.95    3.17
  -7   6   8   87.78   11.99
  -7   6   8   77.77    1.75
   7  -6  -7  164.02    2.61
  -7   6   7  164.79   13.65
  -7   6   7  167.84    1.81
  -7   6   6    0.09    3.66
  -7   6   5   12.69    3.73
  -7   6   4    1.23    4.03
  -7   6   4    0.94    0.54
  -7   6   4    0.67    0.53
  -7   6   3   16.99    4.01
  -7   6   3   19.88    3.57
  -7   6   3   31.75    3.56
  -7   6   2  396.39   13.97
  -7   6   2  396.48   11.88
  -7   6   2  394.04   11.98
  -7   6   1  132.67    7.09
  -7   6   1  121.79    3.14
   7  -6   0  321.87   10.10
  -7   6   0  345.52   10.78
  -7   6   0  336.66   11.55
   7  -6   1    1.40    2.18
  -7   6  -1    2.23    1.57
  -7   6  -1    4.26    3.72
  -7   6  -2   11.23    7.38
  -7   6  -2   15.01    6.91
   7  -6   3   51.51   14.69
  -7   6  -3   45.65    6.73
   7  -6   4   80.66   18.78
  -7   6  -4  101.73   21.88
   7  -6   5   49.80   12.73
  -7   6  -5   51.17    7.03
   7  -6   6  238.28    9.93
  -7   6  -6  239.63   10.50
   7  -6   7    8.09    7.73
  -7   6  -7    5.83    3.32
   7  -6   8   -5.63    6.34
  -7   6  -8    7.77    7.07
   7  -6   9   -2.18    4.46
  -7   6  -9    7.66    6.68
   7  -6  10   32.78   11.49
  -7   6 -10   72.51   19.01
   7  -6  11   16.90   16.12
  -7   6 -11   -7.65    7.40
   7  -6  12    9.54    4.97
  -7   6 -12   11.82   10.82
   7  -6  13   46.82   15.72
  -7   6 -13   42.28   13.62
   7  -6  14    9.54    5.23
  -7   6 -14   15.63    6.15
  -7   5  14   16.72    5.12
  -7   5  13  371.94    7.69
   7  -5 -12   28.96    3.32
  -7   5  12   29.16    5.37
   7  -5 -11   36.06    5.27
  -7   5  11   43.40    5.51
   7  -5 -10   57.65    5.79
  -7   5  10   61.23   13.68
   7  -5  -9   15.75    3.49
  -7   5   9   11.51    4.79
  -7   5   9   14.48    3.05
  -7   5   8   13.61    6.00
  -7   5   7   41.41    8.27
  -7   5   6  635.88   17.38
  -7   5   5   -1.96    4.10
  -7   5   4   70.07   19.88
  -7   5   3  208.87    9.14
  -7   5   3  206.78    4.91
  -7   5   3  209.07    5.21
   7  -5  -2  440.11    3.85
  -7   5   2  443.52    4.63
  -7   5   2  415.10   13.66
   7  -5  -1  238.48    7.83
  -7   5   1  250.93    9.69
  -7   5   1  236.45    9.11
   7  -5   0   60.38    3.17
  -7   5   0   66.98    5.26
  -7   5   0   48.60    4.01
   7  -5   1  406.69   12.42
  -7   5  -1  427.17   18.62
  -7   5  -1  413.47   13.44
  -7   5  -2    3.16    2.59
  -7   5  -2    3.27    2.93
  -7   5  -3   -0.29    5.24
  -7   5  -3    1.95    1.84
   7  -5   4  217.10   14.74
  -7   5  -4  241.44    9.68
   7  -5   5   31.55    7.24
  -7   5  -5   24.17    7.88
   7  -5   6  187.17    9.17
  -7   5  -6  184.14    8.38
   7  -5   7  105.30   24.07
  -7   5  -7   96.44   28.92
   7  -5   8   49.02   10.06
  -7   5  -8   58.80    8.85
   7  -5   9  457.36   15.47
  -7   5  -9  461.57   34.49
   7  -5  10    9.84    5.23
  -7   5 -10   11.22    5.25
   7  -5  11   34.50   11.07
  -7   5 -11   36.85    7.74
   7  -5  12   41.36   14.89
  -7   5 -12   42.37   15.98
   7  -5  13    5.23    4.95
  -7   5 -13    2.11    4.92
   7  -5  14    2.08    4.40
  -7   5 -14    0.24    4.72
  -7   4  15    8.77    9.67
  -7   4  14   11.34    4.77
   7  -4 -13   67.61    5.46
  -7   4  13   75.12   19.41
   7  -4 -12   74.24    8.99
  -7   4  12   66.90   14.71
   7  -4 -11   -1.41    1.33
  -7   4  11    4.25    3.57
   7  -4 -10    6.45    1.99
  -7   4  10    7.20    3.50
  -7   4  10    5.94    2.26
   7  -4  -9  144.73    3.52
  -7   4   9  161.13    9.53
  -7   4   8   41.61    8.53
  -7   4   7   72.87   12.26
  -7   4   6  176.61   18.09
  -7   4   5   13.69    6.93
  -7   4   4  368.93   12.79
   7  -4  -3 1107.11   11.87
  -7   4   3 1066.09   11.54
  -7   4   3 1078.37   14.26
   7  -4  -2  471.34   12.84
  -7   4   2  466.98   13.51
  -7   4   2  443.37   13.18
   7  -4  -1   85.16    3.42
  -7   4   1   88.31    3.33
  -7   4   1   86.06    5.57
   7  -4   0   -3.17    2.60
  -7   4   0    1.00    1.64
  -7   4   0   -2.49    4.15
   7  -4   1  221.75    3.78
  -7   4  -1  250.88    8.96
  -7   4  -1  232.91    9.32
  -7   4  -2 1122.54   17.20
  -7   4  -2 1099.70   16.19
  -7   4  -3   49.26   10.41
  -7   4  -3   45.75   10.76
  -7   4  -4  104.53    6.89
  -7   4  -4   95.26    7.61
  -7   4  -5   16.99    4.86
   7  -4   6  131.18    7.88
  -7   4  -6  134.31    9.37
   7  -4   7   43.42   12.71
  -7   4  -7   45.28    9.74
   7  -4   8   91.20   31.64
  -7   4  -8  111.63    9.21
   7  -4   9    4.12    4.14
  -7   4  -9   -8.77    6.74
   7  -4  10   62.01   17.80
  -7   4 -10   74.72   22.22
   7  -4  11   46.10   18.05
  -7   4 -11   63.79   10.90
   7  -4  12   17.69    6.98
  -7   4 -12   25.95    9.86
   7  -4  13  153.54   28.92
  -7   4 -13  165.06   26.63
   7  -4  14    6.89    4.91
  -7   4 -14    7.20    7.22
  -7   3  16   59.46    7.09
  -7   3  15    8.17    4.24
   7  -3 -14    3.80    2.52
  -7   3  14   -0.75    2.13
   7  -3 -13  494.16    6.09
  -7   3  13  511.27   11.97
   7  -3 -12  167.11    4.78
  -7   3  12  171.18   12.77
   7  -3 -11  164.19    8.76
  -7   3  11  155.22    8.79
   7  -3 -10  286.16    7.61
   7  -3 -10  267.44    6.38
  -7   3  10  307.16   15.42
   7  -3  -9  118.42    2.39
   7  -3  -9  116.58    2.62
  -7   3   9  126.96    9.27
  -7   3   8   87.65   11.83
  -7   3   7   -3.73    4.43
  -7   3   6   -1.45    4.83
  -7   3   5   -0.29    4.66
  -7   3   4 1189.30   14.73
  -7   3   4 1205.18   12.68
   7  -3  -3  941.66   10.47
  -7   3   3  916.85   10.26
  -7   3   3  894.88   11.93
   7  -3  -2  461.13   12.65
  -7   3   2  482.86   14.26
  -7   3   2  468.42   13.77
   7  -3  -1  150.96    6.27
  -7   3   1  148.47    5.90
  -7   3   1  152.84   13.81
   7  -3   0  138.88    5.85
  -7   3   0  145.25    5.96
  -7   3   0  149.75    7.80
   7  -3   1  471.50    7.85
  -7   3  -1  505.78   15.66
  -7   3  -1  481.19    9.25
  -7   3  -2   21.96    5.62
  -7   3  -2   27.55    4.13
  -7   3  -3   93.84    5.15
  -7   3  -3   86.92    7.28
  -7   3  -4  109.99   18.96
  -7   3  -4  106.35   22.04
  -7   3  -5   18.53    5.03
  -7   3  -5   22.03    7.91
  -7   3  -6   -5.80    5.24
  -7   3  -6   -2.35    5.64
  -7   3  -7  309.57   22.29
  -7   3  -7  308.82   18.91
  -7   3  -8  441.37   11.25
  -7   3  -8  440.52   14.18
  -7   3  -9   33.84   11.88
  -7   3 -10  149.24   16.08
  -7   3 -11   10.01   11.41
  -7   3 -12   19.19    7.78
  -7   3 -12   16.28   11.97
  -7   3 -13    6.33    5.33
  -7   3 -13   -0.57    6.85
  -7   3 -14   11.10    6.60
  -7   3 -14   13.32    7.60
  -7   2  17    4.97    5.44
  -7   2  16   16.64    4.83
   7  -2 -15    1.55    2.40
  -7   2  15   -1.74    4.12
   7  -2 -14    2.85    2.93
  -7   2  14   10.13    4.51
   7  -2 -13  168.11   10.07
  -7   2  13  177.66   11.07
   7  -2 -12 1601.00   44.32
  -7   2  12 1612.28   49.30
  -7   2  11 3692.86   26.18
   7  -2 -10  676.04   18.34
   7  -2 -10  636.77   16.54
  -7   2  10  666.39   21.41
   7  -2  -9    1.05    0.71
   7  -2  -9    0.77    0.59
  -7   2   9   -0.66    4.47
   7  -2  -8  118.05    4.25
   7  -2  -8  113.44    1.61
  -7   2   8  123.26   11.95
   7  -2  -7    0.45    0.25
  -7   2   7    3.15    4.77
   7  -2  -6  202.91    4.58
  -7   2   6  186.84    7.86
   7  -2  -5  289.71    8.79
  -7   2   5  294.33    8.71
  -7   2   5  288.97   10.87
   7  -2  -4  120.13    4.10
  -7   2   4  119.87    4.15
  -7   2   4  112.14    5.87
   7  -2  -3  193.26    7.25
  -7   2   3  196.86    6.64
  -7   2   3  189.20    7.60
   7  -2  -2   46.03    3.72
  -7   2   2   52.71    3.69
  -7   2   2   38.31    5.67
   7  -2  -1   11.51    3.43
  -7   2   1   14.38    3.97
  -7   2   1    7.24    4.66
   7  -2   0   -2.51    2.71
  -7   2   0   -3.96    3.48
  -7   2   0   -0.87    4.79
  -7   2  -1  906.48   14.45
  -7   2  -1  913.79   14.56
  -7   2  -2  423.52   12.66
  -7   2  -2  409.99   12.97
  -7   2  -3   63.34   15.00
  -7   2  -3   54.80    7.15
  -7   2  -4    6.14    5.20
  -7   2  -4    4.33    5.21
  -7   2  -5   53.67    7.35
  -7   2  -5   51.13    6.46
  -7   2  -6   -4.84    4.86
  -7   2  -6   -5.96    6.26
  -7   2  -7  322.12   16.94
  -7   2  -7  323.94   20.61
  -7   2  -8   99.10   23.97
  -7   2  -8  132.76    9.70
  -7   2  -9   11.85    3.40
  -7   2  -9    6.52    7.35
  -7   2 -10   28.69   10.37
  -7   2 -10   47.36   13.91
  -7   2 -11   26.28    7.53
  -7   2 -11   16.17   13.85
  -7   2 -12   -1.74    4.95
  -7   2 -12    3.09    4.91
  -7   2 -13    4.37    4.60
  -7   2 -13   11.02    4.77
  -7   1  18    2.86    2.75
  -7   1  17    7.96    6.10
  -7   1  16    0.56    2.88
   7  -1 -15   22.53    7.70
  -7   1  15   41.41    8.46
   7  -1 -14   -1.11    2.69
  -7   1  14    0.44    5.29
   7  -1 -13   17.25    5.28
  -7   1  13   18.99    6.63
   7  -1 -12 2238.34   61.76
  -7   1  12 2146.22   60.45
   7  -1 -11   14.01    3.20
   7  -1 -11    6.20    4.39
  -7   1  11   11.09    6.31
   7  -1 -10  144.88    4.50
   7  -1 -10  130.70    4.17
  -7   1  10  146.33   16.07
   7  -1  -9  144.12    3.06
   7  -1  -9  139.72    2.83
  -7   1   9  167.76   15.84
   7  -1  -8   99.67    6.10
   7  -1  -8   94.51    3.85
  -7   1   8  105.86   10.69
   7  -1  -7    0.85    1.63
   7  -1  -7    0.34    0.63
  -7   1   7   -2.01    4.31
   7  -1  -6  195.32    5.23
  -7   1   6  196.11    5.67
  -7   1   6  207.13    8.31
   7  -1  -5   17.76    3.54
  -7   1   5    9.88    2.68
  -7   1   5   20.49    6.60
   7  -1  -4   21.38    2.92
  -7   1   4   15.82    6.49
  -7   1   4   18.91    4.18
   7  -1  -3  614.53   16.78
  -7   1   3  625.69   17.12
  -7   1   3  625.04   18.14
   7  -1  -2   -1.36    2.43
  -7   1   2    2.67    2.84
  -7   1   2    1.51    4.88
   7  -1  -1   25.93    2.93
  -7   1   1   25.04    4.31
  -7   1   1   32.15    6.39
  -7   1   0  410.69   13.29
  -7   1   0  398.74   14.85
  -7   1  -1  135.27    5.43
  -7   1  -1  134.45    7.17
  -7   1  -2   49.90   11.36
  -7   1  -2   63.34    8.51
  -7   1  -3    5.80    4.18
  -7   1  -3   10.11    3.34
  -7   1  -4  889.12   38.95
  -7   1  -4  849.65   25.69
  -7   1  -5  125.89    9.45
  -7   1  -5  110.19   11.06
  -7   1  -6   24.88    6.54
  -7   1  -6   27.64    8.84
  -7   1  -7   34.34    9.67
  -7   1  -7   38.37    6.85
  -7   1  -8   45.00   12.48
  -7   1  -8   50.25   12.28
  -7   1  -9   39.43   11.50
  -7   1 -11   -1.99    4.68
  -7   1 -11   -0.16    7.93
  -7   1 -12    8.91    4.62
  -7   1 -12   15.65    9.31
  -7   1 -13    1.78    4.11
  -7   0  19   34.57   13.31
  -7   0  18   34.31    9.39
  -7   0  17   -6.43    4.90
   7   0 -16   -0.97    3.23
  -7   0  16   11.34    7.71
   7   0 -15   -0.43    3.10
  -7   0  15    3.07    1.79
   7   0 -14   -0.81    2.16
  -7   0  14   -3.35    5.54
   7   0 -13   78.62    5.39
  -7   0  13   91.57   17.50
   7   0 -12   26.83    7.03
  -7   0  12   36.93    7.26
   7   0 -11  125.59    7.92
   7   0 -11  116.62    5.51
  -7   0  11  122.15   15.25
   7   0 -10   33.92    6.55
   7   0 -10   21.46    5.35
  -7   0  10   33.21    7.94
   7   0  -9   12.67    2.46
   7   0  -9    7.06    2.43
  -7   0   9    8.95    4.54
   7   0  -8   72.15    4.87
   7   0  -8   62.98    6.24
  -7   0   8   74.04   17.59
   7   0  -7    5.20    2.23
  -7   0   7    4.12    4.17
   7   0  -6   -0.46    1.65
  -7   0   6    1.68    1.42
  -7   0   6    0.78    3.99
   7   0  -5  252.62    8.23
  -7   0   5  262.20    9.02
  -7   0   5  250.65    9.44
   7   0  -4   57.29    4.42
  -7   0   4   56.55    6.66
  -7   0   4   50.86    4.45
   7   0  -3  306.27    9.45
  -7   0   3  322.77   11.82
  -7   0   3  344.94   12.43
   7   0  -2  340.99   10.80
  -7   0   2  372.39   14.21
  -7   0   2  346.57   11.72
  -7   0   1  175.45    9.19
  -7   0   1  153.28    6.13
  -7   0   0    7.69    3.53
  -7   0   0    3.84    2.31
  -7   0  -1  111.50    6.08
  -7   0  -1  125.60   16.38
  -7   0  -2   35.30    7.78
  -7   0  -2   37.64    8.73
  -7   0  -3   11.95    6.92
  -7   0  -3   17.69    7.00
  -7   0  -4   73.02   14.72
  -7   0  -4   78.61   17.45
  -7   0  -5  282.89   15.65
  -7   0  -5  267.78   15.55
  -7   0  -6  421.96   19.60
  -7   0  -6  450.29   18.36
  -7   0  -7   15.74    9.48
  -7   0  -7   10.35    5.99
  -7   0  -8    6.11    2.86
  -7   0  -8   11.78    6.79
  -7   0  -9    4.72    3.74
  -7   0  -9    6.24    5.63
  -7   0 -10   23.30    9.64
  -7   0 -10   28.31   12.17
  -7   0 -11    9.43    5.27
  -7   0 -12   -2.16    6.80
  -7  -1  19    9.27    8.58
  -7  -1  18   30.34    7.37
   7   1 -17    9.05    4.55
  -7  -1  17    7.84    6.10
   7   1 -16   19.71    9.48
  -7  -1  16   24.59    7.47
   7   1 -15   77.10    6.43
  -7  -1  15   62.13   17.42
   7   1 -14    5.67    4.64
  -7  -1  14   10.40    5.76
   7   1 -13   10.52    3.47
  -7  -1  13   14.60    4.60
   7   1 -12    5.09    2.43
  -7  -1  12    2.93    3.94
   7   1 -11   64.23    5.02
   7   1 -11   41.68    3.76
  -7  -1  11   67.34    8.94
   7   1 -10   17.36    3.53
   7   1 -10   12.53    3.47
  -7  -1  10   19.81    8.51
   7   1  -9   12.82    3.50
   7   1  -9    9.93    2.21
  -7  -1   9   10.54    4.15
   7   1  -8  308.04    9.55
   7   1  -8  281.98    7.56
  -7  -1   8  290.92   10.15
   7   1  -7  194.18    7.11
  -7  -1   7  200.67    8.41
  -7  -1   7  193.98    9.05
   7   1  -6   39.64    3.17
  -7  -1   6   40.71    7.62
  -7  -1   6   34.13    7.74
   7   1  -5  128.75    4.26
  -7  -1   5  136.41    5.62
  -7  -1   5  140.91   17.10
   7   1  -4  376.10   11.72
  -7  -1   4  379.23   12.08
  -7  -1   4  372.55   17.13
   7   1  -3    3.11    2.17
  -7  -1   3    3.09    1.73
  -7  -1   3    7.65    4.04
  -7  -1   2  158.10   12.49
  -7  -1   2  157.55    6.85
  -7  -1   1  420.61   12.31
  -7  -1   1  425.01   13.24
  -7  -1   0  111.11   12.80
  -7  -1   0  116.95    7.89
  -7  -1  -1   10.66    4.21
  -7  -1  -1   -0.92    4.83
  -7  -1  -2    9.71    4.54
  -7  -1  -2   12.56    4.96
  -7  -1  -3    0.76    4.23
  -7  -1  -3   -1.24    4.69
  -7  -1  -4   98.39    6.79
  -7  -1  -4   77.94   24.16
  -7  -1  -5   13.01    6.03
  -7  -1  -5   18.54    7.26
  -7  -1  -6   -1.88    4.72
  -7  -1  -6   -7.59    5.89
  -7  -1  -7   21.10    5.76
  -7  -1  -7    8.44    5.31
  -7  -1  -8    4.11    3.70
  -7  -1  -8    1.65    5.71
  -7  -1  -9   19.50    8.93
  -7  -1 -10   30.58   10.91
  -7  -1 -11    9.72    6.78
  -7  -1 -12    2.86    2.96
  -7  -2  19   -4.06    5.34
  -7  -2  18    6.24    5.70
   7   2 -17    1.67    3.60
  -7  -2  17    5.54    4.60
   7   2 -16    7.79    3.72
  -7  -2  16    6.01    3.42
   7   2 -15   88.78    6.31
  -7  -2  15  100.38    9.99
   7   2 -14  106.38    5.48
  -7  -2  14  112.80   15.39
   7   2 -13   76.73   10.00
  -7  -2  13   89.74   22.87
   7   2 -12   19.70    4.36
  -7  -2  12   19.42    8.60
   7   2 -11   37.59    5.19
  -7  -2  11   33.13    8.26
   7   2 -10   50.54    4.15
  -7  -2  10   55.10   12.66
   7   2  -9    6.33    2.54
   7   2  -9    1.93    1.80
  -7  -2   9   -3.10    3.95
   7   2  -8   70.12    3.20
  -7  -2   8   69.60    4.25
  -7  -2   8   67.97   12.06
   7   2  -7   92.11    2.74
  -7  -2   7  106.81    5.48
  -7  -2   7  111.63    6.70
   7   2  -6  172.91    6.73
  -7  -2   6  177.87    9.82
  -7  -2   6  176.58    9.09
   7   2  -5    6.59    2.83
  -7  -2   5    6.19    3.61
  -7  -2   5    3.38    3.75
  -7  -2   4   11.09    5.21
  -7  -2   4    0.32    1.84
  -7  -2   3  117.25    8.85
  -7  -2   3  115.05    6.04
  -7  -2   2  289.16    9.77
  -7  -2   2  286.95   10.15
  -7  -2   1  103.64    7.15
  -7  -2   1   96.43   14.94
  -7  -2   0    6.20    4.27
  -7  -2   0    4.01    4.59
  -7  -2  -1   35.22   11.20
  -7  -2  -1   48.04    6.13
  -7  -2  -2   47.32   11.98
  -7  -2  -2   54.78   11.24
  -7  -2  -3   43.42    6.09
  -7  -2  -3   31.80   10.78
  -7  -2  -4    1.72    3.46
  -7  -2  -4    9.21    6.24
  -7  -2  -5    7.38    5.72
  -7  -2  -5    4.04    5.50
  -7  -2  -6    0.62    3.53
  -7  -2  -6   -8.42    6.08
  -7  -2  -7    9.24    3.37
  -7  -2  -7   -5.91    7.48
  -7  -2  -8    2.77    3.16
  -7  -2  -8   -2.23    7.27
  -7  -2  -9   28.26   11.26
  -7  -2 -10   11.30   11.30
  -7  -2 -11   11.10    9.70
  -7  -3  19    8.44    4.60
   7   3 -18    5.04    4.23
  -7  -3  18    7.39    3.93
   7   3 -17   51.69    7.24
  -7  -3  17   61.80    8.94
   7   3 -16   -0.72    4.21
  -7  -3  16    3.67    3.55
   7   3 -15    5.81    4.07
  -7  -3  15    3.66    3.29
   7   3 -14    9.18    4.54
  -7  -3  14   19.72    7.93
   7   3 -13    0.99    4.40
  -7  -3  13   -1.26    5.19
   7   3 -12    3.54    3.81
  -7  -3  12   -0.17    5.78
   7   3 -11    1.46    1.84
  -7  -3  11   -5.05    5.21
   7   3 -10    2.57    3.28
  -7  -3  10   -2.97    4.35
  -7  -3   9   75.79   16.85
  -7  -3   8    3.55    2.15
  -7  -3   8    3.66    4.04
  -7  -3   7   20.05    6.87
  -7  -3   7   10.83    5.24
  -7  -3   6    6.22    3.57
  -7  -3   6   11.70    3.96
  -7  -3   5  814.32   21.48
  -7  -3   5  805.07   20.64
  -7  -3   4  106.35   19.11
  -7  -3   4  111.82    9.70
  -7  -3   3  336.55   10.25
  -7  -3   3  340.94   11.21
  -7  -3   2  184.99    9.74
  -7  -3   2  176.67    6.52
  -7  -3   1   60.04   11.16
  -7  -3   1   63.13    9.57
  -7  -3   0   11.07    4.47
  -7  -3   0   20.52    5.62
  -7  -3  -1  100.04    7.23
  -7  -3  -1   95.54   12.98
  -7  -3  -2   68.86    7.11
  -7  -3  -2   68.29    7.59
  -7  -3  -3   49.88   12.57
  -7  -3  -3   51.48    7.36
  -7  -3  -4  301.52   15.87
  -7  -3  -4  344.88   10.91
  -7  -3  -5   82.81    6.72
  -7  -3  -5   81.12    9.61
  -7  -3  -6   -1.20    2.00
  -7  -3  -6    3.05    5.26
  -7  -3  -7  203.20    7.14
  -7  -3  -7  221.98   11.90
  -7  -3  -8    7.53    5.49
  -7  -3  -9   21.55   10.24
  -7  -3 -10    9.50    4.63
  -7  -4  19    9.98    6.19
   7   4 -18    5.32    5.85
  -7  -4  18   24.20   17.05
   7   4 -17   13.87    4.65
   7   4 -16   10.76    4.98
  -7  -4  16    4.77    3.49
   7   4 -15   42.18    9.40
  -7  -4  15   54.17   10.19
   7   4 -14   41.67    7.18
  -7  -4  14   31.23    8.62
   7   4 -13   16.77    6.86
  -7  -4  13   10.86    5.38
   7   4 -12    5.76    3.99
  -7  -4  12    5.62    5.53
   7   4 -11    0.49    3.29
  -7  -4  11   -5.42    5.65
   7   4 -10   26.83    6.98
  -7  -4  10   25.13    6.57
  -7  -4   9   29.68    4.58
  -7  -4   9   44.66   12.86
  -7  -4   8   15.16    4.19
  -7  -4   8   14.12    5.30
  -7  -4   7  201.48    8.42
  -7  -4   7  206.10    7.55
  -7  -4   6   79.62    5.98
  -7  -4   6   84.80   15.27
  -7  -4   5    2.24    2.29
  -7  -4   5    2.66    2.54
  -7  -4   4  364.64   11.45
  -7  -4   4  379.28   16.99
  -7  -4   3   30.27    6.80
  -7  -4   3   18.61    5.28
  -7  -4   2  842.78   23.72
  -7  -4   2  817.21   23.30
  -7  -4   1  356.20   13.30
  -7  -4   1  346.73   15.44
  -7  -4   0    5.13    3.16
  -7  -4   0   16.08    5.91
  -7  -4  -1   -0.06    3.30
  -7  -4  -1   -3.16    5.63
  -7  -4  -2    0.76    2.37
  -7  -4  -2    3.42    3.70
  -7  -4  -3    9.67    5.52
  -7  -4  -3   24.70    6.27
  -7  -4  -4   17.48    5.48
  -7  -4  -4   12.58    5.92
  -7  -4  -5    0.66    2.69
  -7  -4  -5    0.73    7.05
  -7  -4  -6   20.64    4.31
  -7  -4  -6   33.71   10.39
  -7  -4  -7   15.74   10.69
  -7  -4  -8    0.79    6.79
  -7  -4  -9   11.93    5.90
   7   5 -19    6.56    4.32
  -7  -5  19   13.07    5.14
   7   5 -18   21.29   11.56
  -7  -5  18   29.03    9.51
   7   5 -17    9.83    3.18
  -7  -5  17    3.66    3.91
   7   5 -16    8.03    5.76
  -7  -5  16    2.11    3.79
   7   5 -15  163.14    8.72
  -7  -5  15  144.70    7.69
   7   5 -14   13.37    5.89
  -7  -5  14   -1.05    6.08
   7   5 -13   68.92    7.75
  -7  -5  13   75.82    9.97
   7   5 -12    1.32    4.66
  -7  -5  12    3.19    4.17
   7   5 -11    2.17    3.72
  -7  -5  11   11.27    7.82
  -7  -5  10   66.69   16.55
  -7  -5  10   65.57    7.86
  -7  -5   9   28.45    6.23
  -7  -5   9   34.97    9.60
  -7  -5   8   24.43    6.21
  -7  -5   8   29.23    9.96
  -7  -5   7    7.69    2.80
  -7  -5   7    6.99    4.79
  -7  -5   6  436.73   14.34
  -7  -5   6  430.30   14.64
  -7  -5   5   -0.61    4.90
  -7  -5   5    1.32    2.88
  -7  -5   4   77.25   17.82
  -7  -5   4   79.13   19.79
  -7  -5   3   84.04    6.52
  -7  -5   3   97.66   17.15
  -7  -5   2    1.27    1.05
  -7  -5   2    1.76    2.86
  -7  -5   1   53.79   12.20
  -7  -5   1   46.58    5.86
  -7  -5   0  238.13   13.27
  -7  -5   0  238.07   18.48
  -7  -5  -1   15.19    5.38
  -7  -5  -1   12.44    6.09
  -7  -5  -2  195.66    9.49
  -7  -5  -2  202.29   27.40
  -7  -5  -3  263.76    7.49
  -7  -5  -3  229.29   16.81
  -7  -5  -4    3.71    2.00
  -7  -5  -4    5.39    3.79
  -7  -5  -5   19.76    8.88
  -7  -5  -6    7.66    6.90
  -7  -5  -7    3.15    7.19
  -7  -5  -8    6.00    8.22
  -7  -5  -9    3.19    6.55
   7   6 -19    8.08    3.67
  -7  -6  19   21.32   11.45
   7   6 -18   13.51    4.66
  -7  -6  18    6.54    4.73
   7   6 -17   72.28   22.99
  -7  -6  17   79.22   19.87
   7   6 -16   11.18    5.03
  -7  -6  16   24.27    6.43
   7   6 -15   27.91    7.04
  -7  -6  15   29.80    8.89
   7   6 -14  135.18    8.08
  -7  -6  14  120.64   26.08
   7   6 -13   28.34    7.86
  -7  -6  13   43.76   12.02
   7   6 -12   94.15    9.34
  -7  -6  12   81.50    8.09
   7   6 -11   13.73    5.37
  -7  -6  11   24.49    6.72
  -7  -6  10  107.09    9.83
  -7  -6  10  107.58   17.99
  -7  -6   9   32.60    8.68
  -7  -6   9   34.45    8.79
  -7  -6   8   48.39    7.61
  -7  -6   8   42.21    9.93
  -7  -6   7    8.32    7.20
  -7  -6   7   10.07    5.41
  -7  -6   6   29.73    6.49
  -7  -6   6   31.23    9.45
  -7  -6   5  426.26   12.36
  -7  -6   5  397.76   10.58
  -7  -6   4  135.76   11.56
  -7  -6   4  137.48    8.24
  -7  -6   3  208.39   17.59
  -7  -6   3  195.24   12.96
  -7  -6   2    6.82    2.98
  -7  -6   2   -2.44    5.23
  -7  -6   1   82.11    8.84
  -7  -6   1   82.12    6.62
  -7  -6   0   85.45   11.75
  -7  -6   0   92.68    9.17
  -7  -6  -1   19.19    6.25
  -7  -6  -1   21.48    4.97
  -7  -6  -2    0.39    2.97
  -7  -6  -2   -1.72    6.03
  -7  -6  -3   -0.16    2.22
  -7  -6  -3    1.28    3.57
  -7  -6  -4   76.53   22.45
  -7  -6  -5   61.79   16.05
  -7  -6  -6   78.96   41.65
  -7  -6  -7   29.72   12.54
  -7  -6  -8   47.91   16.99
   7   7 -19    2.35    4.59
  -7  -7  19    0.57    6.01
   7   7 -18    8.10    4.23
  -7  -7  18    6.07    6.37
   7   7 -17    4.01    5.20
  -7  -7  17    2.16    3.11
   7   7 -16   41.84   12.65
  -7  -7  16   51.84   15.20
   7   7 -15    8.99   13.97
  -7  -7  15    5.51    5.11
   7   7 -14   47.65    7.10
  -7  -7  14   34.72   12.20
   7   7 -13   17.10    6.94
  -7  -7  13   20.68    5.88
   7   7 -12   26.10    7.87
  -7  -7  12   24.69    8.67
  -7  -7  11    1.02    2.46
  -7  -7  10   87.97    7.21
  -7  -7  10   83.46    7.16
  -7  -7   9   46.77   17.72
  -7  -7   9   54.09   15.44
  -7  -7   8   59.61   15.12
  -7  -7   8   47.23   12.72
  -7  -7   7   86.93   16.90
  -7  -7   7   89.52    7.04
  -7  -7   6    3.81    2.12
  -7  -7   6    4.05    3.57
  -7  -7   5  130.60   15.99
  -7  -7   5  131.20    9.18
  -7  -7   4  378.50   23.24
  -7  -7   4  369.72   23.70
  -7  -7   3  483.47   19.68
  -7  -7   3  456.19   20.03
  -7  -7   2    1.83    3.98
  -7  -7   2   -3.06    4.97
  -7  -7   1   15.28    4.34
  -7  -7   1   18.91   10.09
  -7  -7   0    8.34    4.33
  -7  -7   0   23.05    6.61
  -7  -7  -1   -5.85    2.58
  -7  -7  -1   -6.01    6.11
  -7  -7  -2  132.56   17.81
  -7  -7  -3  151.27   16.20
  -7  -7  -4    4.53    7.51
  -7  -7  -5  245.30   83.23
  -7  -7  -6   -5.86    5.95
   7   8 -18   15.36    4.40
  -7  -8  18    6.05    6.12
   7   8 -17   11.57    5.03
  -7  -8  17   18.69    9.09
   7   8 -16    9.98    4.99
  -7  -8  16    8.75    5.18
   7   8 -15   19.43    7.51
  -7  -8  15    3.91    6.50
   7   8 -14    1.86    3.15
  -7  -8  14    2.56    6.14
   7   8 -13   -0.40    5.55
  -7  -8  13    2.19    6.22
   7   8 -12   57.94   14.51
  -7  -8  12   55.01   17.96
  -7  -8  11   53.90   15.05
  -7  -8  11   62.12   21.30
  -7  -8  10   30.61    8.43
  -7  -8  10   34.95    8.05
  -7  -8   9  372.46   10.40
  -7  -8   9  344.98   22.01
  -7  -8   8  240.03    8.29
  -7  -8   8  212.72   24.77
  -7  -8   7  167.24   15.98
  -7  -8   7  174.70    8.53
  -7  -8   6  198.92   16.16
  -7  -8   6  197.75    8.28
  -7  -8   5    4.18    3.15
  -7  -8   5    7.56    3.66
  -7  -8   4  202.95    9.06
  -7  -8   4  197.85   14.77
  -7  -8   3   22.52    6.36
  -7  -8   3   31.68    7.87
  -7  -8   2   12.24    4.32
  -7  -8   2   30.70    8.69
  -7  -8   1   18.11    5.44
  -7  -8   1   26.29    9.96
  -7  -8   0    3.16    1.58
  -7  -8   0    5.03    4.20
  -7  -8  -1    8.83    4.98
  -7  -8  -2   17.33    6.13
  -7  -8  -3   12.36    6.76
  -7  -8  -4    0.22    6.39
  -7  -8  -5    9.32    6.43
   7   9 -18   22.06    5.81
  -7  -9  18   12.59    5.33
   7   9 -17    7.16    7.27
  -7  -9  17    8.94    8.05
   7   9 -16   -2.17    5.23
  -7  -9  16    5.70    6.57
   7   9 -15    5.08    5.26
  -7  -9  15    8.32    4.30
   7   9 -14    8.72    5.24
  -7  -9  14    6.35    4.37
   7   9 -13    5.32    6.20
  -7  -9  13    5.19    7.02
   7   9 -12    6.12    7.08
  -7  -9  12    7.89    4.52
  -7  -9  11   -2.76    5.63
  -7  -9  11    1.79    2.18
  -7  -9  10   47.68   12.71
  -7  -9  10   44.83   14.76
  -7  -9   9   21.89    4.65
  -7  -9   9   16.56    6.65
  -7  -9   8   17.81    5.65
  -7  -9   8    9.28    7.16
  -7  -9   7    2.92    5.25
  -7  -9   7   -3.00    6.30
  -7  -9   6  191.60    9.32
  -7  -9   6  162.78   29.89
  -7  -9   5  225.87    9.57
  -7  -9   5  212.38   22.22
  -7  -9   4    5.40    4.70
  -7  -9   4   14.70    6.47
  -7  -9   3   39.87    8.28
  -7  -9   3   31.56    6.11
  -7  -9   2    0.80    2.92
  -7  -9   2   11.66    3.92
  -7  -9   1    2.60    2.75
  -7  -9   1   -1.77    5.82
  -7  -9   0   40.81   13.81
  -7  -9  -1   52.61   22.32
  -7  -9  -2   21.20   11.14
  -7  -9  -3   17.79   10.00
  -7  -9  -4   70.29   33.15
   7  10 -17   23.50    6.81
  -7 -10  17   21.50    7.94
   7  10 -16    3.87    2.11
   7  10 -15    1.80    2.44
  -7 -10  15    1.52    7.80
   7  10 -14   36.83   16.89
  -7 -10  14   35.02   14.07
   7  10 -13   10.65    6.74
  -7 -10  13   11.82    5.06
  -7 -10  12   40.83   12.01
  -7 -10  11   -0.04    4.15
  -7 -10  11   -2.54    6.06
  -7 -10  10   16.28    7.44
  -7 -10  10   13.41    6.42
  -7 -10   9   -4.00    6.00
  -7 -10   9   -1.99    6.47
  -7 -10   8   12.30    6.22
  -7 -10   7    5.88    2.28
  -7 -10   7    6.30    3.20
  -7 -10   6   -0.37    4.58
  -7 -10   6   -0.28    5.34
  -7 -10   5   69.63    6.10
  -7 -10   5   77.76   13.82
  -7 -10   4   -1.95    3.80
  -7 -10   4    4.13    3.75
  -7 -10   3    1.62    1.79
  -7 -10   3    6.46    3.53
  -7 -10   2   14.61    5.59
  -7 -10   1   39.80   10.97
  -7 -10   0    2.90    4.66
  -7 -10  -1    2.52    4.06
  -7 -10  -2    2.16    3.10
   7  11 -16   70.41   13.43
  -7 -11  16   65.93   14.38
   7  11 -15   47.76   11.22
  -7 -11  15   23.00    9.49
   7  11 -14   45.88   20.53
  -7 -11  14   48.35   23.06
   7  11 -13   21.27   10.11
  -7 -11  13   14.43    8.18
  -7 -11  12    4.58    4.31
  -7 -11  11   38.18   12.79
  -7 -11  11   39.12   12.81
  -7 -11  10    1.37    2.66
  -7 -11  10    1.87    3.53
  -7 -11   9   10.07    5.24
  -7 -11   9    7.35    5.80
  -7 -11   8   13.74    8.14
  -7 -11   8   21.62    8.02
  -7 -11   7   24.03    9.24
  -7 -11   7   39.15   11.40
  -7 -11   6   -0.68    3.94
  -7 -11   6    3.98    2.17
  -7 -11   5   26.97   10.20
  -7 -11   5   56.87   12.54
  -7 -11   4    1.45    3.57
  -7 -11   4   -2.47    5.84
  -7 -11   3   24.45    8.42
  -7 -11   2   18.82    6.34
  -7 -11   1    7.29    4.97
  -7 -11   0    9.88    4.74
  -7 -11  -1   11.16    5.33
   7  12 -15   17.39    6.16
  -7 -12  15   12.18    7.52
   7  12 -14   10.59    7.36
  -7 -12  14   19.24    8.18
   7  12 -13   10.12    7.77
  -7 -12  13   13.93    9.21
  -7 -12  12   -3.60    5.51
  -7 -12  12   -0.76    5.89
  -7 -12  11   11.43    5.54
  -7 -12  11    9.34    5.14
  -7 -12  10   49.38   20.58
  -7 -12  10   60.57   23.54
  -7 -12   9    1.96    1.89
  -7 -12   9    3.60    4.56
  -7 -12   8   34.80   11.15
  -7 -12   8   33.62    8.72
  -7 -12   7    3.74    3.75
  -7 -12   7    8.14    4.52
  -7 -12   6   78.76   14.61
  -7 -12   6   68.61   21.58
  -7 -12   5   18.15    6.46
  -7 -12   4   31.30   14.97
  -7 -12   3   10.79    6.11
  -7 -12   2   28.95    9.26
  -7 -13  12   25.26   12.76
  -7 -13  12   28.67   12.51
  -7 -13  11    4.73    3.44
  -7 -13  11   -0.16    6.14
  -7 -13  10   42.00   12.29
  -7 -13  10   41.07   15.72
  -7 -13   9   39.67    6.37
  -7 -13   9   34.24   11.42
  -7 -13   8   18.43    7.35
  -7 -13   8   20.03    7.72
  -7 -13   7    0.06    2.36
  -7 -13   7    3.88    5.41
  -7 -13   6   12.86    6.16
  -7 -13   5    3.69    2.64
  -8  18  -1   58.87    9.26
  -8  18  -2   83.70   14.02
  -8  18  -3   74.61   14.44
  -8  18  -4   27.76    6.04
   8 -18   5   -0.38    4.47
  -8  18  -5    3.62    5.58
   8 -18   6    4.33    2.77
  -8  18  -6   -3.62    5.91
   8 -18   7    8.85    6.57
  -8  18  -7   12.38    8.50
   8 -18   8    4.41    9.78
  -8  18  -8    3.54    6.58
  -8  17   0   -0.46    3.56
  -8  17  -1   59.03   16.77
  -8  17  -2   14.47    5.48
  -8  17  -2   15.56    7.01
  -8  17  -3    2.76    3.96
  -8  17  -3   -5.18    5.11
   8 -17   4    3.94    2.40
  -8  17  -4   14.86    8.03
   8 -17   5   -2.58    5.23
  -8  17  -5    4.76    5.48
   8 -17   6    4.64    3.39
  -8  17  -6    1.04    6.30
   8 -17   7    1.49    2.58
  -8  17  -7    6.45    3.40
   8 -17   8    8.52    3.93
  -8  17  -8   12.82    9.67
   8 -17   9    2.55    6.05
  -8  17  -9    1.90    3.74
  -8  17 -10   22.02    7.14
  -8  16   1    3.25    3.35
  -8  16   0   25.06   10.76
  -8  16   0   55.01    6.28
  -8  16  -1    1.57    3.47
  -8  16  -1    3.00    4.69
  -8  16  -2   14.63    5.58
  -8  16  -2   19.89    8.45
  -8  16  -3    4.87    5.23
   8 -16   4   12.80    6.53
  -8  16  -4    5.83    6.67
   8 -16   5   32.24   18.27
  -8  16  -5   -3.85    5.82
   8 -16   6   19.59    7.86
   8 -16   7    5.06    4.83
  -8  16  -7   -0.03    6.77
   8 -16   8    8.89    7.02
  -8  16  -8    1.08    5.78
   8 -16   9    2.29    5.09
  -8  16  -9    8.36    4.93
   8 -16  10   -2.61    6.97
  -8  16 -10    7.50    8.49
   8 -16  11    6.07    4.48
  -8  16 -11   17.09    5.93
  -8  15   3    7.27    3.10
  -8  15   2   62.78   10.92
  -8  15   1    8.29    3.94
  -8  15   1   10.81    4.31
  -8  15   0    2.07    2.63
  -8  15   0    1.47    3.75
  -8  15  -1   22.99   13.62
  -8  15  -1   14.55    5.96
  -8  15  -2    6.56    5.84
  -8  15  -2    0.76    2.25
   8 -15   3    6.31    3.98
  -8  15  -3    0.20    4.97
   8 -15   4    6.65    5.37
  -8  15  -4   -2.10    5.74
   8 -15   5   13.43    5.76
  -8  15  -5   29.53   11.13
   8 -15   6    5.36    3.19
  -8  15  -6    9.38    7.91
   8 -15   7   22.17    8.98
  -8  15  -7   29.56    8.65
   8 -15   8   -5.68    6.20
  -8  15  -8   20.73   11.44
   8 -15   9   21.99    7.70
  -8  15  -9   21.28    7.44
   8 -15  10    5.93    5.63
  -8  15 -10    3.22    4.89
   8 -15  11    1.45    5.73
  -8  15 -11    1.64    7.01
   8 -15  12  -10.32    6.96
  -8  15 -12   -6.19    8.29
  -8  14   3   10.89    4.21
  -8  14   3   16.42    4.72
  -8  14   2    3.43    2.88
  -8  14   2    1.98    2.05
  -8  14   1    1.93    1.84
  -8  14   1   -3.77    3.58
  -8  14   0   44.82   16.63
  -8  14   0   46.77   13.10
  -8  14  -1   12.71    5.15
  -8  14  -1   18.23    6.41
  -8  14  -2   26.90    7.52
  -8  14  -2   21.97    7.06
   8 -14   3    0.99    2.90
  -8  14  -3    2.16    5.13
   8 -14   4   19.69    4.90
  -8  14  -4   29.14    7.85
   8 -14   5   -3.35    5.43
  -8  14  -5    0.22    6.33
   8 -14   6   16.03    6.60
  -8  14  -6   10.33    5.95
   8 -14   7    9.75    4.51
  -8  14  -7    1.96    6.41
   8 -14   8   24.45    5.92
  -8  14  -8   29.70   12.06
   8 -14   9    2.30    2.76
  -8  14  -9    3.57    4.13
   8 -14  10   22.77    8.49
  -8  14 -10   36.42   12.29
   8 -14  11   -1.88    4.55
  -8  14 -11   -8.96    8.15
  -8  14 -12   17.32   10.23
   8 -14  13   29.48   11.75
  -8  14 -13   29.32    9.69
   8 -13  -5    2.45    1.85
  -8  13   4   45.08    4.66
  -8  13   4   48.78    5.57
  -8  13   3   20.55    4.11
  -8  13   3   26.95    5.82
  -8  13   2   37.01    9.57
  -8  13   2   36.99    8.27
  -8  13   1   43.98   10.32
  -8  13   1   55.17    4.53
  -8  13   0    9.81    4.22
  -8  13   0    9.29    3.54
  -8  13  -1  110.39    6.38
  -8  13  -1  111.69    5.78
  -8  13  -2    5.04    5.08
  -8  13  -2   19.53    4.30
   8 -13   3   27.57    9.76
  -8  13  -3   34.92    8.69
   8 -13   4   56.78   21.96
  -8  13  -4   65.34   17.03
   8 -13   5   29.18   12.07
  -8  13  -5   29.76    7.60
   8 -13   6    7.41    4.33
  -8  13  -6   10.08    5.03
   8 -13   7   11.99    7.59
  -8  13  -7   27.08    8.25
   8 -13   8    3.65    4.07
  -8  13  -8    6.53    2.63
   8 -13   9    9.86    5.65
  -8  13  -9   11.27    7.17
   8 -13  10   -2.38    6.59
  -8  13 -10   -1.48    7.68
   8 -13  11   13.56    8.24
  -8  13 -11   -0.88    8.03
   8 -13  12   31.71   13.64
  -8  13 -12   20.15    7.96
   8 -13  13    8.59    5.78
  -8  13 -13    1.34    8.15
   8 -12  -6    2.16    2.29
  -8  12   5    7.10    3.37
  -8  12   4    2.83    3.65
  -8  12   4    0.41    1.09
  -8  12   3   13.24    4.29
  -8  12   3   12.51    3.70
  -8  12   2  194.39    7.02
  -8  12   2  191.94    5.01
  -8  12   1   -0.15    4.13
  -8  12   1    5.81    3.61
  -8  12   0   97.09    6.29
  -8  12   0   97.91    6.03
  -8  12  -1   -0.04    4.89
  -8  12  -1    2.46    4.60
  -8  12  -2   43.52    8.16
   8 -12   3   30.24    8.91
  -8  12  -3   36.35    5.22
   8 -12   4    4.49    4.96
  -8  12  -4   -2.20    5.61
   8 -12   5    5.22    4.84
  -8  12  -5    2.86    4.66
   8 -12   6   82.21   15.85
  -8  12  -6   85.99   25.87
   8 -12   7   51.17   21.52
  -8  12  -7   72.63    9.78
   8 -12   8   23.58    6.32
  -8  12  -8   45.33    8.84
   8 -12   9   -0.18    4.58
  -8  12  -9    0.59    7.94
   8 -12  10   13.83    7.72
  -8  12 -10   -0.06    8.51
   8 -12  11    3.96    3.76
  -8  12 -11    0.54    5.70
   8 -12  12   25.01    7.20
  -8  12 -12   34.29    9.51
   8 -12  13    6.16    5.44
  -8  12 -13    6.08    4.21
  -8  11   7   89.74    7.47
   8 -11  -6   14.72    3.32
  -8  11   6   10.17    3.13
  -8  11   5    4.85    3.73
  -8  11   5    0.48    1.79
  -8  11   4    2.17    2.99
  -8  11   4    0.85    2.08
  -8  11   3   19.61    6.30
  -8  11   3    7.65    4.17
  -8  11   2   90.34   17.74
  -8  11   2   89.67    4.45
  -8  11   1  573.40    9.67
  -8  11   1  549.50    7.17
  -8  11   0    7.62    4.89
  -8  11   0   17.16    6.60
  -8  11  -1  114.85   18.41
  -8  11  -1  126.04    6.70
  -8  11  -2   61.06    6.48
   8 -11   3  248.48   14.44
  -8  11  -3  271.00   15.15
   8 -11   4   -9.95    6.02
  -8  11  -4   -6.56    6.04
   8 -11   5    9.53    7.49
  -8  11  -5   10.24    5.05
   8 -11   6   51.20   17.59
  -8  11  -6   53.92   14.21
   8 -11   7   62.72   22.41
  -8  11  -7   72.90   16.61
   8 -11   8   66.51   15.09
  -8  11  -8   49.54   16.93
   8 -11   9   21.02    6.98
  -8  11  -9   18.23   12.25
   8 -11  10    1.35    2.60
  -8  11 -10    0.60    7.66
   8 -11  11    0.65    4.28
  -8  11 -11   10.15    6.87
   8 -11  12   -9.40    6.41
  -8  11 -12   15.43    8.52
   8 -11  13   -6.25    6.86
  -8  11 -13   -3.26    7.30
   8 -11  14    7.88    7.83
  -8  11 -14    5.21    5.00
  -8  10   8   66.26    7.22
   8 -10  -7   19.86    5.82
  -8  10   7   18.70    5.75
  -8  10   6    6.22    3.62
  -8  10   5   -1.35    3.38
  -8  10   5   -0.21    1.44
  -8  10   4    9.62    3.64
  -8  10   4   12.12    2.71
  -8  10   3   26.39    6.49
  -8  10   3   17.58    3.84
  -8  10   3   23.71    3.96
  -8  10   2    5.27    3.12
  -8  10   2    5.28    2.06
  -8  10   2    7.00    3.61
  -8  10   1  224.30    7.33
  -8  10   1  236.01    7.07
  -8  10   0   15.75    5.29
  -8  10   0   22.57    4.70
  -8  10  -1   -1.06    5.75
  -8  10  -1    6.82    3.24
  -8  10  -2   18.55    5.89
  -8  10  -2   17.81    5.73
   8 -10   3   57.92   12.07
  -8  10  -3   67.76   16.74
  -8  10  -4   15.40    6.60
   8 -10   5   58.44   17.11
  -8  10  -5   69.54    8.49
   8 -10   6    8.35    3.24
  -8  10  -6   15.17    8.77
   8 -10   7    0.74    4.96
  -8  10  -7    0.16    6.67
   8 -10   8   48.24   16.13
  -8  10  -8   46.23   13.14
   8 -10   9    5.73    3.00
  -8  10  -9   -1.98    7.79
   8 -10  10    7.88    6.21
  -8  10 -10   14.09   10.55
   8 -10  11   -4.90    7.18
  -8  10 -11   -2.05    7.79
   8 -10  12   32.15   12.65
   8 -10  13   10.65    6.01
  -8  10 -13   -1.98    8.12
   8 -10  14    7.87    5.13
  -8  10 -14   -3.85    7.43
   8  -9  -8  245.19    3.68
  -8   9   8  267.29    6.14
   8  -9  -7  184.70    4.76
  -8   9   7  204.24    6.86
  -8   9   6    4.72    4.82
  -8   9   6    0.66    0.73
  -8   9   5    6.36    3.08
  -8   9   5    1.62    1.77
  -8   9   4    9.95    4.85
  -8   9   4   14.74    2.10
  -8   9   4    7.03    1.97
  -8   9   3    1.10    2.74
  -8   9   3    2.75    1.50
  -8   9   3    1.61    1.56
  -8   9   2   52.18   16.43
  -8   9   2   43.94    4.21
  -8   9   2   54.12    3.31
  -8   9   1  372.57   13.26
  -8   9   1  360.67   10.97
  -8   9   1  386.15   11.07
  -8   9   0   17.88    6.96
  -8   9   0    8.51    2.51
  -8   9   0   16.65    3.47
  -8   9  -1   -1.68    4.77
  -8   9  -1    3.30    2.34
  -8   9  -2   -0.43    4.99
  -8   9  -2    3.02    2.80
   8  -9   3  110.04   26.50
  -8   9  -3  121.93    5.41
   8  -9   4   33.63   10.72
  -8   9  -4   35.01    7.33
   8  -9   5   21.71   10.27
  -8   9  -5   17.35    7.35
   8  -9   6   45.43   15.66
  -8   9  -6   59.29   12.02
   8  -9   7   26.15    7.97
  -8   9  -7   18.67    6.89
   8  -9   8    8.06    4.80
  -8   9  -8   17.43    7.42
   8  -9   9    4.05    6.25
  -8   9  -9    4.77    8.89
   8  -9  10    1.27    2.62
  -8   9 -10   22.38   10.35
   8  -9  11   -2.96    4.21
  -8   9 -11   -6.26    7.71
   8  -9  12    2.10    4.11
  -8   9 -12    5.58    6.91
   8  -9  13   -0.55    7.27
  -8   9 -13    7.19    7.94
   8  -9  14    3.84    4.65
  -8   9 -14    6.73    6.08
  -8   8  11    4.28    2.26
  -8   8  10   11.66    3.45
  -8   8   9  141.54   10.22
   8  -8  -8   20.84    3.52
  -8   8   8   14.38    7.60
  -8   8   7    0.16    2.07
  -8   8   7    1.59    0.79
  -8   8   7    1.78    0.89
  -8   8   6    1.19    3.41
  -8   8   6    4.26    0.92
  -8   8   6    3.76    1.71
  -8   8   5   -0.99    3.53
  -8   8   5    2.57    0.82
  -8   8   5    0.47    0.62
  -8   8   4  100.88    6.11
  -8   8   4  103.19    2.24
  -8   8   4  105.31    2.67
  -8   8   3   -1.22    3.93
  -8   8   3    0.44    0.65
  -8   8   3    0.62    1.65
  -8   8   2  142.61    7.44
  -8   8   2  138.92    5.94
  -8   8   2  145.09    3.50
  -8   8   1  208.74    8.00
  -8   8   1  198.55    8.08
  -8   8   1  214.74    6.20
  -8   8   0   58.85   15.39
  -8   8   0   38.00    3.96
  -8   8   0   51.86   10.46
  -8   8  -1    4.17    3.24
  -8   8  -1    4.72    3.31
  -8   8  -2  102.67   18.95
  -8   8  -2   94.91    4.61
  -8   8  -3   27.58    8.57
   8  -8   4    7.74    4.37
  -8   8  -4    3.75    2.31
   8  -8   5   19.01    5.94
  -8   8  -5   40.70    9.66
   8  -8   6    5.48    4.54
  -8   8  -6   28.74    9.62
   8  -8   7   12.31    6.08
  -8   8  -7   32.40    9.68
   8  -8   8    6.78    5.69
  -8   8  -8   18.37   10.31
   8  -8   9   69.21   21.05
  -8   8  -9   68.67   22.38
   8  -8  10    9.75    6.24
  -8   8 -10    7.42    4.03
   8  -8  11   11.60    6.51
  -8   8 -11   19.24   11.22
   8  -8  12    3.90    4.26
  -8   8 -12   11.81    4.86
   8  -8  13    5.90    5.73
  -8   8 -13    7.12    4.44
   8  -8  14    5.40    2.66
  -8   8 -14    4.06    8.11
  -8   7  12    1.23    1.06
  -8   7  11   21.99    4.81
  -8   7  10   15.88    3.97
   8  -7  -9    0.70    0.37
  -8   7   9    2.62    3.03
  -8   7   8    0.96    2.33
  -8   7   7    5.94    3.50
  -8   7   6   37.81    9.42
  -8   7   5   -0.12    3.74
  -8   7   4   -0.64    4.00
  -8   7   4    0.91    0.59
  -8   7   4    0.40    0.35
  -8   7   3  159.20   15.73
  -8   7   3  153.85    3.80
  -8   7   3  164.09    5.65
  -8   7   2    1.41    4.71
  -8   7   2    1.70    1.05
  -8   7   2    7.50    2.20
  -8   7   1   54.75   13.42
  -8   7   1   32.33    4.11
  -8   7   1   42.32    6.14
   8  -7   0  158.47    6.28
  -8   7   0  173.70    7.54
  -8   7   0  161.31    8.43
  -8   7  -1  100.30   16.34
  -8   7  -1   94.61    5.79
  -8   7  -2  114.13    6.05
  -8   7  -2  108.68   12.65
  -8   7  -3    0.10    4.69
  -8   7  -3    5.93    2.96
  -8   7  -4  189.98   13.22
   8  -7   5    6.58    4.08
  -8   7  -5    6.06    6.24
   8  -7   6  314.23   10.00
  -8   7  -6  321.49   10.38
   8  -7   7   23.67    5.92
  -8   7  -7   34.30   11.33
   8  -7   8   78.13   18.87
  -8   7  -8   83.64    9.20
   8  -7   9  105.52   29.08
  -8   7  -9  124.15   13.14
   8  -7  10   57.96   15.43
  -8   7 -10   53.85   19.20
   8  -7  11    4.46    5.46
  -8   7 -11   12.48    7.66
   8  -7  12   -1.10    7.12
  -8   7 -12   10.94   11.78
   8  -7  13    8.19    6.06
  -8   7 -13   44.39   11.55
   8  -7  14   -0.99    5.57
  -8   7 -14   10.32    4.39
  -8   6  13   22.97    7.36
  -8   6  12    9.90    4.04
  -8   6  11   10.52    4.39
  -8   6  10   -1.09    3.65
  -8   6   9    2.12    2.63
  -8   6   8   17.51    7.04
  -8   6   7   32.13    8.02
  -8   6   6   87.36    7.39
  -8   6   5    0.31    4.11
  -8   6   4   -0.29    4.60
  -8   6   3    4.97    4.96
  -8   6   3    1.07    0.71
  -8   6   3    2.31    0.81
  -8   6   2   14.10    5.32
  -8   6   2   14.41    3.23
   8  -6  -1   65.26    2.80
  -8   6   1   72.00    7.10
  -8   6   1   69.94   12.22
   8  -6   0   37.95    2.74
  -8   6   0   47.87    5.92
  -8   6   0   29.34   10.30
   8  -6   1    0.17    1.91
  -8   6  -1    4.58    4.18
  -8   6  -1   -0.32    4.78
  -8   6  -2   28.16    6.31
  -8   6  -2   23.45    6.93
  -8   6  -3   26.35    4.51
  -8   6  -3   27.80    7.69
  -8   6  -4   20.70    5.34
  -8   6  -4   12.49    4.13
  -8   6  -5  186.39    8.83
   8  -6   6   10.12    5.43
  -8   6  -6   -3.42    7.26
   8  -6   7  274.24   16.43
  -8   6  -7  264.95   20.02
   8  -6   8   94.20   21.15
  -8   6  -8   98.30    8.85
   8  -6   9  189.19   26.91
  -8   6  -9  193.71   29.30
   8  -6  10   58.92   13.44
  -8   6 -10   44.83   13.93
   8  -6  11   59.04   19.02
  -8   6 -11   84.31   12.37
   8  -6  12   26.53    9.82
  -8   6 -12   20.55    7.25
   8  -6  13   11.47    7.33
  -8   6 -13   -0.58    7.92
   8  -6  14    7.27    3.84
  -8   6 -14   -2.08    8.73
  -8   5  14    3.59    4.66
  -8   5  13    8.86    3.50
  -8   5  12    5.42    3.67
  -8   5  11   97.55   12.09
  -8   5  10   11.37    4.41
  -8   5   9   10.82    6.87
  -8   5   8   84.69   11.15
  -8   5   7  100.51   16.84
  -8   5   6  120.33   12.72
  -8   5   5  122.14    9.22
  -8   5   4  435.03   13.89
   8  -5  -3   -0.57    0.81
  -8   5   3    0.79    0.62
  -8   5   3    2.57    4.76
   8  -5  -2   75.52    2.87
  -8   5   2   79.19    3.75
  -8   5   2   79.54    8.30
   8  -5  -1  103.69    3.24
  -8   5   1  113.85    4.37
  -8   5   1  110.95    6.39
   8  -5   0   22.42    2.73
  -8   5   0   29.73    4.43
  -8   5   0   26.54    7.24
  -8   5  -1   58.92   13.49
  -8   5  -1   48.45    7.01
  -8   5  -2   47.93   10.87
  -8   5  -2   50.93    8.52
  -8   5  -3   11.84    3.96
  -8   5  -4   50.38   10.86
  -8   5  -4   49.09   13.07
  -8   5  -5   36.44    7.96
  -8   5  -5   30.78    6.78
  -8   5  -6    9.06    4.53
  -8   5  -6   20.22    7.15
  -8   5  -7   31.60    9.29
   8  -5   8   15.42    6.48
  -8   5  -8   10.31    6.87
   8  -5   9   13.88    5.89
  -8   5  -9   -4.58    7.03
   8  -5  10   -2.68    6.70
  -8   5 -10    5.79    6.61
   8  -5  11  126.89   14.20
  -8   5 -11   98.05   34.48
   8  -5  12   52.33   25.42
  -8   5 -12   87.01   30.99
  -8   5 -13   15.01    8.61
  -8   4  15   17.31    6.99
  -8   4  14   11.47    5.02
  -8   4  13   13.76    5.19
   8  -4 -12    0.67    1.23
  -8   4  12    5.72    3.45
  -8   4  11   -2.94    3.73
  -8   4  10   56.23   15.11
  -8   4   9   79.16   10.54
  -8   4   8    9.07    4.60
  -8   4   7  108.42   11.81
  -8   4   6  136.10   16.54
  -8   4   5  118.46   12.28
  -8   4   4   70.76    6.66
  -8   4   4   72.03    1.56
   8  -4  -3   40.53    5.93
  -8   4   3   35.62    4.17
  -8   4   3   43.61    7.38
   8  -4  -2  249.76    8.06
  -8   4   2  249.26    8.85
  -8   4   2  248.87    9.54
   8  -4  -1  247.35    8.03
  -8   4   1  247.45    8.74
  -8   4   1  258.50   18.96
   8  -4   0   38.23    2.76
  -8   4   0   42.35    9.59
  -8   4   0   39.27    7.31
  -8   4  -1  581.33   16.45
  -8   4  -1  575.26   16.19
  -8   4  -2   45.74   12.45
  -8   4  -2   49.94   10.03
  -8   4  -3   81.54   18.34
  -8   4  -3   80.26   14.26
  -8   4  -4  133.67   20.13
  -8   4  -4  117.25   14.28
  -8   4  -5    8.58    3.04
  -8   4  -5   -2.36    5.65
  -8   4  -6  149.99   11.07
  -8   4  -6  153.34   19.30
  -8   4  -7    5.00    4.55
  -8   4  -7   -1.29    3.54
  -8   4  -8  237.39    9.99
  -8   4  -8  238.02   12.25
  -8   4  -9   -0.13    5.70
  -8   4  -9    1.53    5.06
  -8   4 -10    6.48    5.93
  -8   4 -10   -0.14    3.83
  -8   4 -11   13.78    6.05
  -8   4 -11   18.66    9.06
  -8   4 -12   23.36   13.98
  -8   4 -12   30.89    8.23
  -8   4 -13   -1.84    4.95
  -8   4 -13    7.25    8.58
  -8   3  17    0.20    1.93
  -8   3  16   -1.19    4.07
  -8   3  15    9.05    4.07
  -8   3  14   -0.11    2.43
  -8   3  13    3.94    3.17
  -8   3  12   20.26    5.26
  -8   3  11  214.65   11.49
  -8   3  10  260.95   13.08
  -8   3   9   41.40   10.94
  -8   3   8   22.35    8.99
  -8   3   7   11.60    5.60
  -8   3   6   -5.14    4.76
  -8   3   5   21.52    4.75
  -8   3   5   35.38    2.36
   8  -3  -4    0.46    0.78
  -8   3   4    0.82    0.58
  -8   3   4    4.12    4.45
   8  -3  -3  478.17    7.29
  -8   3   3  473.46    7.15
  -8   3   3  453.66    8.41
   8  -3  -2  404.27   12.39
  -8   3   2  428.25   12.97
  -8   3   2  412.68   13.66
   8  -3  -1    2.32    2.96
  -8   3   1    1.27    2.78
  -8   3   1    3.50    1.57
   8  -3   0  297.76    8.28
  -8   3   0  328.89   10.16
  -8   3   0  336.49   12.18
  -8   3  -1  148.45   10.25
  -8   3  -1  176.80   14.50
  -8   3  -2   71.92   15.92
  -8   3  -2   76.87   18.10
  -8   3  -3  509.42   14.14
  -8   3  -3  508.03   14.51
  -8   3  -4   62.97    7.60
  -8   3  -4   89.48    9.47
  -8   3  -5   12.95    3.66
  -8   3  -5   18.25    6.37
  -8   3  -6   26.89    8.38
  -8   3  -6   29.91    8.99
  -8   3  -7   20.17    7.26
  -8   3  -7   44.36    8.85
  -8   3  -8   19.05    7.54
  -8   3  -8   13.97    8.67
  -8   3  -9   49.45   14.92
  -8   3  -9   58.98    9.23
  -8   3 -10   39.79   13.44
  -8   3 -11   11.76    4.63
  -8   3 -11    2.89    8.60
  -8   3 -12    4.45    6.16
  -8   3 -12   -7.67    7.49
  -8   3 -13    1.42    2.57
  -8   3 -13    6.14    6.75
  -8   2  18    5.20    2.95
  -8   2  17   -0.43    2.76
  -8   2  16   -5.05    5.11
  -8   2  15    3.43    3.19
  -8   2  14   31.68   11.20
   8  -2 -13    0.45    1.08
  -8   2  13    4.53    4.11
   8  -2 -12    6.18    2.18
  -8   2  12    3.60    3.57
   8  -2 -11  166.62    9.05
   8  -2 -11  156.17    2.40
  -8   2  11  197.78   24.32
   8  -2 -10   46.24    3.73
   8  -2 -10   41.89    3.13
  -8   2  10   43.03    7.80
   8  -2  -9    0.92    1.04
   8  -2  -9    1.90    0.92
  -8   2   9    6.07    4.46
   8  -2  -8  382.74    8.55
  -8   2   8  379.09   12.41
  -8   2   7   32.87    6.77
   8  -2  -6   26.31    3.11
  -8   2   6   29.59   11.58
   8  -2  -5  259.25    6.80
  -8   2   5  260.68    6.80
  -8   2   5  245.69    9.39
   8  -2  -4  151.67    4.52
  -8   2   4  160.44    4.76
  -8   2   4  144.95    7.50
   8  -2  -3  392.18   11.90
  -8   2   3  401.14   12.26
  -8   2   3  383.93   13.02
   8  -2  -2  178.81    5.01
  -8   2   2  180.91    6.11
  -8   2   2  174.24    8.95
   8  -2  -1   -2.70    2.07
  -8   2   1    2.47    2.77
  -8   2   1    1.46    4.75
  -8   2   0  108.01    6.70
  -8   2   0  117.54    6.26
  -8   2  -1   62.69   14.15
  -8   2  -1   66.83    7.06
  -8   2  -2  128.03    9.46
  -8   2  -2  134.64    9.89
  -8   2  -3  107.59   18.08
  -8   2  -3  114.04   19.48
  -8   2  -4   91.09   16.30
  -8   2  -4   89.65   15.90
  -8   2  -5  143.11   12.64
  -8   2  -5  153.31    9.41
  -8   2  -6  179.39   18.38
  -8   2  -6  193.29    9.02
  -8   2  -7  283.45   14.00
  -8   2  -7  298.85   13.06
  -8   2  -8    6.48    3.30
  -8   2  -8   10.19    6.73
  -8   2  -9   -2.86    5.45
  -8   2  -9    6.74    7.39
  -8   2 -10    5.55    6.20
  -8   2 -10   12.63    6.57
  -8   2 -11   29.99   12.44
  -8   2 -11   61.79   16.77
  -8   2 -12   98.74   10.38
  -8   2 -12   71.44   26.48
  -8   1  18  128.01   11.85
  -8   1  17    8.56    4.91
  -8   1  16    2.03    4.27
  -8   1  15   -5.32    4.97
   8  -1 -14    1.56    2.25
  -8   1  14    3.92    5.16
   8  -1 -13  362.74    6.50
  -8   1  13  378.15   10.42
   8  -1 -12    0.98    1.20
  -8   1  12   -0.04    4.83
   8  -1 -11   68.89    6.01
   8  -1 -11   63.00    3.07
  -8   1  11   86.17   21.31
   8  -1 -10    4.93    2.05
   8  -1 -10    1.87    0.95
  -8   1  10    1.37    4.20
   8  -1  -9    4.95    1.78
   8  -1  -9    2.10    1.67
  -8   1   9   -0.16    3.41
   8  -1  -8    2.28    1.73
   8  -1  -8    0.35    0.76
  -8   1   8    4.56    1.95
   8  -1  -7  335.73    9.17
  -8   1   7  344.58   11.34
   8  -1  -6   39.00    4.96
  -8   1   6   38.47    7.24
  -8   1   6   40.77   12.10
   8  -1  -5   65.07    5.94
  -8   1   5   67.57    5.19
  -8   1   5   75.88   15.70
   8  -1  -4   47.14    2.78
  -8   1   4   52.00    6.52
  -8   1   4   55.38    6.39
   8  -1  -3   -0.18    1.88
  -8   1   3    1.39    1.94
  -8   1   3   -2.02    4.89
   8  -1  -2   49.25    3.19
  -8   1   2   55.49    6.26
  -8   1   2   59.44    6.53
  -8   1   1   61.69    7.15
  -8   1   1   60.19    6.43
  -8   1   0   55.09    6.39
  -8   1   0   55.21    5.30
  -8   1  -1   30.32    6.03
  -8   1  -1   31.62    8.33
  -8   1  -2   32.42    8.48
  -8   1  -2   39.64    7.51
  -8   1  -3   72.64    6.88
  -8   1  -3   63.56    7.24
  -8   1  -4  299.25   11.75
  -8   1  -4  308.25   24.25
  -8   1  -5    1.05    3.69
  -8   1  -5    9.50    6.72
  -8   1  -6   14.33    4.91
  -8   1  -7    7.40    3.83
  -8   1  -7   13.72    6.52
  -8   1  -8    4.27    3.74
  -8   1  -8    7.80    6.94
  -8   1  -9   10.66    6.51
  -8   1  -9   11.19    5.93
  -8   1 -10    5.97    4.04
  -8   1 -10    0.66    5.76
  -8   1 -11   10.60    7.79
  -8   1 -11   21.35    7.15
  -8   1 -12   -2.28    7.15
  -8   0  19   58.85   12.07
  -8   0  18   38.02   10.01
  -8   0  17    9.59    5.91
  -8   0  16    0.82    4.36
   8   0 -15   47.25    4.93
  -8   0  15   43.41    8.53
   8   0 -14   -1.95    2.37
  -8   0  14    7.08    6.74
   8   0 -13   61.40    7.40
  -8   0  13   73.51   16.87
   8   0 -12  434.57   17.11
  -8   0  12  428.35   19.73
   8   0 -11   22.45    3.90
   8   0 -11   13.07    3.63
  -8   0  11   17.86    7.32
   8   0 -10   37.71    4.91
   8   0 -10   23.30    4.86
  -8   0  10   35.54    7.06
   8   0  -9    2.85    1.60
   8   0  -9    0.19    0.94
  -8   0   9   -1.65    4.22
   8   0  -8   -0.09    1.63
   8   0  -8    4.41    2.39
  -8   0   8    2.78    3.66
   8   0  -7    1.59    1.78
  -8   0   7    1.45    1.73
  -8   0   7   -1.97    4.20
   8   0  -6    6.01    1.94
  -8   0   6    6.61    2.70
  -8   0   6    9.94    5.75
   8   0  -5    3.76    1.99
  -8   0   5    3.35    1.93
  -8   0   5    2.32    5.82
   8   0  -4  347.17   10.18
  -8   0   4  373.99   10.80
  -8   0   4  376.81   13.00
   8   0  -3  482.20   12.60
  -8   0   3  543.77   14.39
  -8   0   3  559.71   16.34
  -8   0   2   -2.98    4.37
  -8   0   2   -1.98    4.02
  -8   0   1   -1.09    4.18
  -8   0   1    2.80    4.34
  -8   0   0   28.74    4.66
  -8   0   0   31.54    5.93
  -8   0  -1   13.47    7.04
  -8   0  -1   25.42    6.64
  -8   0  -2    6.87    4.10
  -8   0  -2    6.20    5.30
  -8   0  -3  124.02   16.33
  -8   0  -3  103.15   17.30
  -8   0  -4   10.45    4.79
  -8   0  -4    9.21    4.74
  -8   0  -5   36.25    7.33
  -8   0  -5   28.37    7.75
  -8   0  -6   -1.57    5.45
  -8   0  -6    8.18    6.57
  -8   0  -7   50.46   18.97
  -8   0  -7   72.38   21.10
  -8   0  -8   12.11    7.27
  -8   0  -8    2.26    6.45
  -8   0  -9   -0.82    4.21
  -8   0  -9    0.86    7.40
  -8   0 -10    6.89    5.95
  -8   0 -10    6.43    3.67
  -8   0 -11   -3.17    7.48
  -8  -1  19    9.53    5.37
  -8  -1  18   12.13    6.32
  -8  -1  17    1.29    3.57
   8   1 -16    5.59    4.31
  -8  -1  16    3.59    4.60
   8   1 -15   16.95    7.34
  -8  -1  15   37.49    6.72
   8   1 -14    2.86    3.26
  -8  -1  14   -1.67    5.91
   8   1 -13   -1.55    3.02
  -8  -1  13   -3.97    5.05
   8   1 -12  109.75    6.75
  -8  -1  12  109.35    8.79
   8   1 -11  220.03   13.44
   8   1 -11  185.59   10.11
  -8  -1  11  209.79   13.00
   8   1 -10   24.43    3.77
   8   1 -10   19.92    3.87
  -8  -1  10   12.85    5.37
   8   1  -9   21.33    3.15
   8   1  -9   20.40    3.21
  -8  -1   9   29.80    5.23
   8   1  -8   25.84    3.77
  -8  -1   8   31.74    7.41
  -8  -1   8   26.15    6.48
   8   1  -7  157.90    3.18
  -8  -1   7  179.81    5.62
  -8  -1   7  174.11    9.40
   8   1  -6    1.92    1.97
  -8  -1   6   -0.15    2.85
  -8  -1   6    9.21    6.42
   8   1  -5    3.00    2.04
  -8  -1   5    6.38    3.55
  -8  -1   5   -2.08    5.24
  -8  -1   4  227.01   12.89
  -8  -1   4  219.91   10.07
  -8  -1   3   13.90    6.21
  -8  -1   3   13.26    5.52
  -8  -1   2  201.36    9.41
  -8  -1   2  212.48    8.39
  -8  -1   1   25.80    5.98
  -8  -1   1   26.95    4.98
  -8  -1   0    8.13    5.34
  -8  -1   0   11.79    6.78
  -8  -1  -1   48.36   13.03
  -8  -1  -1   58.98   12.18
  -8  -1  -2   22.05    5.80
  -8  -1  -2   31.27    7.38
  -8  -1  -3   78.04    7.43
  -8  -1  -3   64.63   13.44
  -8  -1  -4  426.17   14.79
  -8  -1  -4  448.94   17.37
  -8  -1  -5    7.86    4.88
  -8  -1  -5   -0.67    5.60
  -8  -1  -6   74.81    6.17
  -8  -1  -6   52.81   18.01
  -8  -1  -7   15.33    6.33
  -8  -1  -7    7.13    5.28
  -8  -1  -8    4.86    2.25
  -8  -1  -8   17.74    6.92
  -8  -1  -9   20.77    8.61
  -8  -1 -10   21.12   10.01
  -8  -1 -11   -1.34    3.97
  -8  -2  19    7.93    4.17
  -8  -2  18    1.96    3.16
  -8  -2  17    4.85    6.28
   8   2 -16    6.37    3.30
  -8  -2  16   14.42    5.56
   8   2 -15    4.61    3.13
  -8  -2  15    9.45    7.14
   8   2 -14   65.80    7.29
  -8  -2  14   63.16   21.11
   8   2 -13    0.42    3.42
  -8  -2  13    1.00    2.62
   8   2 -12   10.85    4.58
  -8  -2  12   13.66    7.70
   8   2 -11   10.27    4.40
  -8  -2  11   19.97    8.29
   8   2 -10    5.96    2.78
  -8  -2  10    2.11    2.22
  -8  -2   9   10.30    3.36
  -8  -2   8   21.77    8.16
  -8  -2   8   22.57    5.39
  -8  -2   7   -0.36    3.15
  -8  -2   7    1.20    1.29
  -8  -2   6    0.34    3.25
  -8  -2   6   -2.10    3.12
  -8  -2   5   14.98    6.74
  -8  -2   5   13.30    4.57
  -8  -2   4  426.84   13.77
  -8  -2   4  435.36   14.00
  -8  -2   3   -0.39    4.65
  -8  -2   3    2.60    3.96
  -8  -2   2   74.58   18.63
  -8  -2   2   74.54    6.21
  -8  -2   1    0.62    5.26
  -8  -2   1    7.10    3.39
  -8  -2   0   18.74    7.04
  -8  -2   0   29.72    6.05
  -8  -2  -1    0.42    3.97
  -8  -2  -1   10.61    5.87
  -8  -2  -2  255.32   14.85
  -8  -2  -2  232.89   14.78
  -8  -2  -3   26.19    9.05
  -8  -2  -3   46.21    8.55
  -8  -2  -4  217.21    9.36
  -8  -2  -4  204.74    9.36
  -8  -2  -5   -1.89    3.70
  -8  -2  -5    3.82    6.74
  -8  -2  -6    3.64    3.24
  -8  -2  -6   -4.38    5.88
  -8  -2  -7   96.28    6.92
  -8  -2  -7   74.80   19.90
  -8  -2  -9   -7.70    7.18
  -8  -2 -10   -0.18    6.38
  -8  -3  19    1.42    5.97
  -8  -3  18    1.14    4.52
   8   3 -17    2.81    2.55
  -8  -3  17    0.78    3.65
   8   3 -16   -2.33    3.66
  -8  -3  16   -1.46    6.57
   8   3 -15   15.74    5.58
  -8  -3  15   12.76    6.04
   8   3 -14   -2.54    3.39
  -8  -3  14    2.35    4.15
   8   3 -13   17.42    3.27
  -8  -3  13   23.07    7.54
   8   3 -12   83.46    8.30
  -8  -3  12   81.20    8.57
   8   3 -11   -0.79    3.19
  -8  -3  11    2.18    4.49
   8   3 -10   36.28    8.09
  -8  -3  10   36.82    8.62
  -8  -3   9  101.16    9.23
  -8  -3   9   95.56    5.95
  -8  -3   8  237.91   10.10
  -8  -3   8  234.74    8.26
  -8  -3   7   26.76    5.79
  -8  -3   7   29.87    5.00
  -8  -3   6   34.11    9.23
  -8  -3   6   37.92   11.30
  -8  -3   5  104.39    6.36
  -8  -3   5  110.33    5.08
  -8  -3   4  155.93   22.49
  -8  -3   4  139.35    8.84
  -8  -3   3  254.30   10.84
  -8  -3   3  242.45   10.54
  -8  -3   2  144.26   18.61
  -8  -3   2  132.94    7.59
  -8  -3   1    0.72    4.27
  -8  -3   1    9.96    3.49
  -8  -3   0   18.39    5.44
  -8  -3   0   21.51    8.52
  -8  -3  -1   82.55    6.60
  -8  -3  -1   80.19   16.88
  -8  -3  -2   -4.06    4.25
  -8  -3  -2    2.72    5.41
  -8  -3  -3   -3.03    4.41
  -8  -3  -3    0.80    5.80
  -8  -3  -4   92.51    6.70
  -8  -3  -4   91.81   11.29
  -8  -3  -5   -2.29    3.53
  -8  -3  -5   -3.89    6.31
  -8  -3  -6   12.72    4.70
  -8  -3  -7   37.53   16.05
  -8  -3  -8   31.31   11.58
  -8  -3  -9   10.05    9.00
  -8  -4  19   30.16    9.83
  -8  -4  18    7.68    3.89
   8   4 -17   22.48    5.03
  -8  -4  17   16.24    8.80
   8   4 -16   -2.00    3.85
  -8  -4  16   -8.40    6.31
   8   4 -15   36.58    7.21
  -8  -4  15   35.16    7.95
   8   4 -14   13.93    5.00
  -8  -4  14   12.35    4.65
   8   4 -13   38.84    6.15
  -8  -4  13   41.49    9.38
   8   4 -12    3.96    4.59
  -8  -4  12    0.81    4.11
   8   4 -11  174.87    6.18
  -8  -4  11  173.37   14.03
  -8  -4  10   76.08    9.42
  -8  -4  10   68.39    6.91
  -8  -4   9   15.48    5.94
  -8  -4   9    1.39    2.58
  -8  -4   8   78.49   17.67
  -8  -4   8   80.08   11.35
  -8  -4   7  160.58    7.44
  -8  -4   7  152.57   13.22
  -8  -4   6   20.82    4.84
  -8  -4   6   17.43    3.51
  -8  -4   5   23.20    6.10
  -8  -4   5   26.27    6.23
  -8  -4   4    3.74    4.20
  -8  -4   4   11.64    4.95
  -8  -4   3  231.08   18.56
  -8  -4   3  212.40    8.75
  -8  -4   2   41.78    9.80
  -8  -4   2   47.98   13.61
  -8  -4   1   19.03    5.64
  -8  -4   1   13.16    7.03
  -8  -4   0  322.67   17.91
  -8  -4   0  344.10   18.13
  -8  -4  -1  630.73   12.04
  -8  -4  -1  611.82   13.21
  -8  -4  -2   38.70   13.91
  -8  -4  -2   50.26   14.82
  -8  -4  -3  122.50    7.07
  -8  -4  -3   92.85   30.28
  -8  -4  -4   25.96   11.77
  -8  -4  -4   47.90   11.14
  -8  -4  -5  264.38    8.22
  -8  -4  -5  266.84   10.71
  -8  -4  -6   14.41   10.77
  -8  -4  -7   10.55    7.40
  -8  -4  -8   -3.14    6.92
  -8  -5  19    5.60    4.51
   8   5 -18    5.85    5.00
  -8  -5  18   -1.04    3.50
   8   5 -17   -1.35    4.19
  -8  -5  17    8.92    6.08
   8   5 -16   -2.04    4.11
  -8  -5  16   -1.91    5.88
   8   5 -15    3.44    4.71
  -8  -5  15    4.33    5.42
   8   5 -14   27.08    6.40
  -8  -5  14   27.04    8.46
   8   5 -13  172.06    7.12
  -8  -5  13  173.65   12.17
   8   5 -12  133.49    8.51
  -8  -5  12  116.60   18.19
   8   5 -11    8.31    4.61
  -8  -5  11   14.66    7.60
  -8  -5  10  100.38    9.18
  -8  -5  10   79.70    7.60
  -8  -5   9    6.08    5.77
  -8  -5   9    2.81    2.83
  -8  -5   8  220.12   16.31
  -8  -5   8  210.51   11.99
  -8  -5   7   19.29    6.44
  -8  -5   7   13.41    5.01
  -8  -5   6   28.45    5.96
  -8  -5   6   35.83   12.14
  -8  -5   5   80.12   20.24
  -8  -5   5   83.59    7.58
  -8  -5   4    9.81    5.31
  -8  -5   4   11.21    6.45
  -8  -5   3  121.48   11.27
  -8  -5   3  126.83    9.92
  -8  -5   2    7.69    3.27
  -8  -5   2    8.08    5.27
  -8  -5   1   11.11    5.57
  -8  -5   1   12.84    7.30
  -8  -5   0   21.66    8.22
  -8  -5   0   22.76    6.56
  -8  -5  -1   30.52    9.82
  -8  -5  -1   37.45   11.35
  -8  -5  -2   27.69    9.93
  -8  -5  -2   56.31   17.12
  -8  -5  -3    1.23    1.86
  -8  -5  -3    3.38    5.77
  -8  -5  -4   10.56    5.54
  -8  -5  -5   23.84    8.62
  -8  -5  -6   24.53    9.33
  -8  -5  -7    7.46    6.47
   8   6 -18    8.68    6.31
  -8  -6  18   22.86    7.95
   8   6 -17   11.79    4.49
  -8  -6  17   15.24    6.36
   8   6 -16   10.45    5.89
  -8  -6  16    4.65    6.80
   8   6 -15   35.74    7.25
  -8  -6  15   22.62    9.90
   8   6 -14    2.47    4.79
  -8  -6  14    6.57    4.87
   8   6 -13   51.02    5.01
  -8  -6  13   57.74   17.39
   8   6 -12  104.92    5.80
  -8  -6  12  113.81    9.97
  -8  -6  11   44.09    7.44
  -8  -6  11   36.33   10.73
  -8  -6  10   31.10    6.69
  -8  -6  10   25.44    6.84
  -8  -6   9  209.57   10.92
  -8  -6   9  197.78   14.72
  -8  -6   8  215.07   11.58
  -8  -6   8  212.44   17.94
  -8  -6   7   30.08    6.65
  -8  -6   7   30.12    5.98
  -8  -6   6  196.30   10.23
  -8  -6   6  191.30   11.10
  -8  -6   5   44.53   11.01
  -8  -6   5   53.02    9.02
  -8  -6   4   40.78    8.38
  -8  -6   4   36.39    7.12
  -8  -6   3  267.14   15.15
  -8  -6   3  268.88   22.60
  -8  -6   2   25.95    9.03
  -8  -6   2   30.03    8.23
  -8  -6   1   14.19    5.84
  -8  -6   0  138.67    9.04
  -8  -6   0  138.22   22.06
  -8  -6  -1   70.32   15.64
  -8  -6  -1   90.12   16.67
  -8  -6  -2    3.10    2.62
  -8  -6  -2   -4.57    5.13
  -8  -6  -3  122.58   11.15
  -8  -6  -4   -0.42    6.65
  -8  -6  -5   14.69    6.47
  -8  -6  -6   22.16   10.38
  -8  -7  18   15.36    5.85
   8   7 -17    8.31    5.69
  -8  -7  17    5.78    5.13
   8   7 -16   17.75    4.47
  -8  -7  16   12.58    5.13
   8   7 -15   13.59    6.39
  -8  -7  15    3.96    5.36
   8   7 -14   96.07    8.77
  -8  -7  14  102.59    8.19
   8   7 -13    3.07    4.55
  -8  -7  13    8.85    4.64
   8   7 -12    3.80    3.57
  -8  -7  12    9.69    6.93
  -8  -7  11  112.12   26.11
  -8  -7  11  114.02   13.06
  -8  -7  10   70.53   21.56
  -8  -7  10   80.45    8.42
  -8  -7   9   14.56    6.40
  -8  -7   9   17.21    6.17
  -8  -7   8    0.13    3.68
  -8  -7   8   -0.15    2.99
  -8  -7   7  128.65   17.66
  -8  -7   7  146.70   10.63
  -8  -7   6   35.09    8.76
  -8  -7   6   26.91    6.99
  -8  -7   5  184.86   14.75
  -8  -7   5  177.00   19.19
  -8  -7   4   41.25   10.80
  -8  -7   4   33.63   10.58
  -8  -7   3   -0.28    4.10
  -8  -7   3    7.37    5.38
  -8  -7   2   12.26    4.50
  -8  -7   2   21.41    7.08
  -8  -7   1   13.90    4.88
  -8  -7   1   12.20    3.94
  -8  -7   0   11.84    4.61
  -8  -7   0   10.55    4.12
  -8  -7  -1  113.21    8.74
  -8  -7  -1   90.98   28.73
  -8  -7  -2  157.06   12.89
  -8  -7  -3   62.89   22.95
  -8  -7  -4   24.33   10.61
  -8  -7  -5   -0.06    7.26
   8   8 -18    8.65    6.26
  -8  -8  18   13.73    9.06
   8   8 -17    1.53    4.25
  -8  -8  17    4.60    4.70
   8   8 -16   -1.68    4.96
  -8  -8  16    5.27    7.04
   8   8 -15   -2.72    4.51
  -8  -8  15    3.53    4.57
   8   8 -14   -6.71    5.18
  -8  -8  14   -2.47    5.78
   8   8 -13    5.16    5.03
  -8  -8  13   -7.21    6.62
   8   8 -12    7.22    5.87
  -8  -8  12   16.12    9.32
  -8  -8  11   27.75   10.28
  -8  -8  11   22.73    6.84
  -8  -8  10   63.28   19.37
  -8  -8  10   54.94   14.46
  -8  -8   9   -2.43    5.05
  -8  -8   9   -4.56    6.18
  -8  -8   8  159.38    7.25
  -8  -8   8  152.78   10.92
  -8  -8   7   60.68   13.30
  -8  -8   7   65.85   14.59
  -8  -8   6   17.85    3.96
  -8  -8   6   24.97    8.74
  -8  -8   5   11.79    2.86
  -8  -8   5   13.02    5.41
  -8  -8   4   -1.56    3.87
  -8  -8   4    2.21    2.57
  -8  -8   3   18.66    5.87
  -8  -8   3   14.37    5.32
  -8  -8   2    8.06    4.85
  -8  -8   2   10.89    4.64
  -8  -8   1   15.47    5.54
  -8  -8   1   11.83    4.19
  -8  -8   0    5.85    4.97
  -8  -8  -1   48.06   22.82
  -8  -8  -2   -2.11    6.31
  -8  -8  -3   96.15   30.36
  -8  -8  -4   21.00   10.27
   8   9 -17   -1.58    4.47
  -8  -9  17    0.86    6.48
   8   9 -16    5.78    2.28
  -8  -9  16   16.31    8.42
   8   9 -15    6.75    2.77
  -8  -9  15    2.72    4.99
   8   9 -14   13.68    7.75
  -8  -9  14   11.23    9.90
   8   9 -13   42.94    9.43
  -8  -9  13    7.34    4.53
  -8  -9  12   13.70    6.90
  -8  -9  12    4.97    3.49
  -8  -9  11   -4.54    5.37
  -8  -9  11   10.53    5.05
  -8  -9  10    7.73    6.25
  -8  -9  10    6.23    7.57
  -8  -9   9   72.98   21.75
  -8  -9   9   80.82   23.85
  -8  -9   8    4.30    4.78
  -8  -9   8   -1.04    6.40
  -8  -9   7    9.57    4.79
  -8  -9   7    4.06    4.32
  -8  -9   6   -3.73    4.21
  -8  -9   6   -0.69    6.08
  -8  -9   5   31.39    9.90
  -8  -9   5   57.47   10.04
  -8  -9   4   27.11    8.16
  -8  -9   4   37.36    7.44
  -8  -9   3    2.86    3.83
  -8  -9   3    0.36    3.07
  -8  -9   2    0.17    2.40
  -8  -9   2    4.41    4.43
  -8  -9   1   -0.33    2.48
  -8  -9   0   63.27   23.90
  -8  -9  -1   10.88    6.52
  -8  -9  -2   13.97    8.55
   8  10 -16   11.55    6.02
  -8 -10  16    5.94    5.79
   8  10 -15   67.71   11.15
  -8 -10  15   45.10   17.64
   8  10 -14   41.85   16.76
  -8 -10  14   38.22    9.00
   8  10 -13   -6.28    4.83
  -8 -10  13    2.14    6.01
  -8 -10  12    6.18    3.67
  -8 -10  12    6.77    3.79
  -8 -10  11   13.96    8.67
  -8 -10  11   11.98    7.99
  -8 -10  10    6.45    4.40
  -8 -10  10    1.35    2.95
  -8 -10   9   26.33    6.22
  -8 -10   9   19.78    9.43
  -8 -10   8   23.32    7.21
  -8 -10   8   14.29    8.61
  -8 -10   7  144.97   16.07
  -8 -10   7  132.67   11.24
  -8 -10   6   22.84    7.96
  -8 -10   6   18.83    6.93
  -8 -10   5    8.47    5.49
  -8 -10   5    6.03    4.38
  -8 -10   4   -0.32    2.44
  -8 -10   4    4.49    2.62
  -8 -10   3   39.04   11.35
  -8 -10   2   33.20   12.67
  -8 -10   1    3.98    4.64
  -8 -10   0   -4.44    6.14
  -8 -10  -1   -0.55    2.56
   8  11 -15    5.09    5.10
  -8 -11  15   -3.36    5.73
   8  11 -14   10.98    6.11
  -8 -11  14    2.25    4.49
   8  11 -13    0.53    5.27
  -8 -11  13    7.04    5.19
  -8 -11  12   13.77    8.91
  -8 -11  12   16.69    6.78
  -8 -11  11    1.33    5.14
  -8 -11  11    1.85    2.52
  -8 -11  10   42.73   17.77
  -8 -11  10   54.28   18.52
  -8 -11   9    0.21    2.39
  -8 -11   9   -0.06    3.16
  -8 -11   8   31.72   12.27
  -8 -11   8   50.12   16.17
  -8 -11   7  160.35   27.43
  -8 -11   7  126.43   36.36
  -8 -11   6   44.94   14.90
  -8 -11   6   93.17   29.92
  -8 -11   5   28.54    7.00
  -8 -11   4   89.32   22.94
  -8 -11   3   98.39   21.93
  -8 -11   2   23.56    7.51
  -8 -11   1   -6.66    5.70
   8  12 -13    7.79    5.43
  -8 -12  13   12.57    7.74
  -8 -12  12   28.98   11.01
  -8 -12  12   25.95   12.72
  -8 -12  11   13.53    7.59
  -8 -12  11   12.00    5.62
  -8 -12  10   14.21    7.13
  -8 -12  10    6.36    6.30
  -8 -12   9    6.82    3.80
  -8 -12   9   17.90    6.01
  -8 -12   8   -0.58    4.00
  -8 -12   8   -1.75    6.33
  -8 -12   7   -1.72    3.52
  -8 -12   7    6.29    5.23
  -8 -12   6    2.43    2.39
  -8 -12   6    4.17    2.80
  -8 -12   5    4.71    5.42
  -8 -12   4   22.87    8.00
  -9  18  -2   70.09   11.21
  -9  18  -3    7.88    4.04
  -9  18  -3   18.15    6.30
  -9  18  -4    3.63    4.10
  -9  18  -4   12.32    6.68
  -9  18  -5   24.53    7.17
   9 -18   6    5.53    3.57
  -9  18  -6    1.64    5.49
  -9  17  -1    9.54    2.67
  -9  17  -1   17.56    6.02
  -9  17  -2    2.89    3.15
  -9  17  -2    7.91    6.46
  -9  17  -3    7.96    6.59
  -9  17  -3   -2.41    4.67
  -9  17  -4   15.47    5.82
  -9  17  -4    6.55    5.43
   9 -17   5    1.01    3.88
  -9  17  -5    4.29    2.71
   9 -17   6    6.59    3.79
  -9  17  -6    3.00    5.58
   9 -17   7   -1.28    3.79
  -9  17  -7    7.18    3.53
   9 -17   8    6.91    4.64
  -9  17  -8   10.79    8.36
   9 -17   9    3.00    5.91
  -9  17  -9   -6.18    6.50
  -9  16   0    0.51    3.07
  -9  16   0    0.61    2.00
  -9  16  -1   20.33    6.67
  -9  16  -1   38.18    8.47
  -9  16  -2   25.88   14.14
  -9  16  -2   42.83    8.16
  -9  16  -3   -2.28    4.35
  -9  16  -3    8.68    7.45
  -9  16  -4    1.84    5.55
   9 -16   5    4.23    3.40
  -9  16  -5   38.71   20.22
   9 -16   6   -4.12    5.43
  -9  16  -6   -0.07    3.65
   9 -16   7   12.43    6.59
  -9  16  -7    6.07    4.92
   9 -16   8    4.38    5.57
  -9  16  -8    6.42    5.73
   9 -16   9   -6.20    7.35
  -9  16  -9    9.04    4.53
   9 -16  10    3.80    2.53
  -9  16 -10    1.12    5.86
  -9  15   2    0.00    1.30
  -9  15   1   30.10   15.70
  -9  15   1   40.87    8.55
  -9  15   0  122.45   11.88
  -9  15   0  120.70   11.59
  -9  15  -1   52.35   15.16
  -9  15  -1   52.30   14.86
  -9  15  -2   15.89    6.47
  -9  15  -2   17.52    7.37
  -9  15  -3  173.07   17.04
  -9  15  -3  184.40    7.95
   9 -15   4   17.47   10.34
  -9  15  -4   -4.25    5.74
   9 -15   5    0.30    4.27
  -9  15  -5    1.47    6.56
   9 -15   6   10.07    5.73
  -9  15  -6    2.32    3.93
   9 -15   7    2.83    4.61
  -9  15  -7   13.01    8.96
   9 -15   8    3.37    2.80
  -9  15  -8   -1.36    7.33
   9 -15   9    4.12    3.98
  -9  15  -9    4.55    8.60
   9 -15  10    6.26    6.58
  -9  15 -10    6.65    7.35
   9 -15  11    6.42    2.32
  -9  15 -11   10.43    4.65
  -9  14   3    3.99    2.80
  -9  14   2   12.69    4.91
  -9  14   2    3.51    3.80
  -9  14   1    6.04    4.97
  -9  14   1    5.03    3.33
  -9  14   0   31.06    9.59
  -9  14   0   34.27    5.45
  -9  14  -1    9.19    3.44
  -9  14  -1    1.68    2.72
  -9  14  -2   10.71    3.43
  -9  14  -2   17.20    6.47
  -9  14  -3   -3.90    5.69
  -9  14  -3    1.06    5.17
   9 -14   4   19.71    9.69
  -9  14  -4   23.89    7.48
   9 -14   5    9.40    5.29
  -9  14  -5   10.89    4.27
   9 -14   6    1.78    4.64
  -9  14  -6    2.90    3.98
   9 -14   7   11.33    5.11
  -9  14  -7    7.31    6.23
   9 -14   8   -2.97    7.30
  -9  14  -8    1.36    4.36
   9 -14   9   10.33    6.46
  -9  14  -9    6.56    4.25
   9 -14  10   39.69   16.96
  -9  14 -10   56.34   24.49
   9 -14  11    5.85    4.73
  -9  14 -11   -0.46    8.20
   9 -14  12    4.61    5.04
  -9  14 -12    4.32    8.26
  -9  13   5    1.89    2.67
  -9  13   4   18.34    6.33
  -9  13   3   22.81    2.37
  -9  13   2   35.51   14.72
  -9  13   2   32.76    5.99
  -9  13   1    4.10    3.62
  -9  13   1   10.86    5.02
  -9  13   0   31.60    4.63
  -9  13  -1  229.59    8.91
  -9  13  -1  244.79    6.59
  -9  13  -2  137.69    8.77
  -9  13  -2  132.79    5.80
  -9  13  -3   13.94    6.48
  -9  13  -3   23.22    6.96
   9 -13   4    3.04    3.71
  -9  13  -4    6.82    5.22
   9 -13   5    2.68    4.49
  -9  13  -5    5.61    3.52
   9 -13   6   48.63   19.03
  -9  13  -6   65.42   10.94
   9 -13   7   13.61    9.88
  -9  13  -7   14.97    9.62
   9 -13   8    2.21    5.12
  -9  13  -8   -4.32    8.01
   9 -13   9    6.19    4.28
  -9  13  -9   16.64   10.90
   9 -13  10   18.23   10.29
  -9  13 -10   14.64    8.71
   9 -13  11    5.84    4.84
  -9  13 -11   14.42   11.58
   9 -13  12    7.50    5.56
  -9  13 -12    2.50    8.44
  -9  12   6    3.15    3.40
  -9  12   5    8.89    5.21
  -9  12   4    9.56    4.72
  -9  12   4    9.65    2.31
  -9  12   3  129.08   14.13
  -9  12   3  128.07    6.02
  -9  12   2  113.43   16.52
  -9  12   2  110.01    4.04
  -9  12   1   55.17   18.05
  -9  12   1   55.26    4.02
  -9  12   0   97.66    8.31
  -9  12   0   99.21    5.44
  -9  12  -1  210.38    8.63
  -9  12  -1  222.98    6.40
  -9  12  -2  250.05    9.28
  -9  12  -2  258.95    6.91
  -9  12  -3   18.29    8.71
  -9  12  -3    8.10    4.66
   9 -12   4  130.97   13.56
  -9  12  -4  131.06   17.68
   9 -12   5  127.52   35.37
  -9  12  -5  153.58    8.50
   9 -12   6   33.30   11.37
  -9  12  -6   48.91   11.40
   9 -12   7   -3.15    7.06
  -9  12  -7    2.79    4.92
   9 -12   8   21.51    8.73
  -9  12  -8   25.29   10.79
   9 -12   9    3.71    4.83
  -9  12  -9    2.72    5.23
   9 -12  10    0.01    5.10
  -9  12 -10   -5.76    7.68
  -9  12 -11   35.72   11.40
   9 -12  12   39.17   14.18
  -9  12 -12   44.35   10.91
   9 -12  13   18.28    8.61
  -9  12 -13   39.59   18.15
  -9  11   7   20.15    6.44
  -9  11   6   25.31    4.80
  -9  11   5  237.21    6.95
  -9  11   4  157.21    6.57
  -9  11   4  164.47    3.68
  -9  11   3    3.25    3.47
  -9  11   3    8.36    3.19
  -9  11   2   15.09    4.49
  -9  11   2   21.79    4.72
  -9  11   1   44.57    8.65
  -9  11   1   48.87    7.86
  -9  11   0   81.46   19.25
  -9  11   0   92.95   11.85
  -9  11  -1  892.64   27.36
  -9  11  -1  899.20   26.59
  -9  11  -2  156.15   19.31
  -9  11  -2  171.96    6.47
  -9  11  -3  218.98    9.47
  -9  11  -3  206.07    6.96
   9 -11   4    3.06    3.58
  -9  11  -4   11.93    7.74
   9 -11   5   27.58    8.54
  -9  11  -5   27.00    7.30
   9 -11   6    9.92    4.88
  -9  11  -6    7.66    7.23
   9 -11   7    8.94    5.03
  -9  11  -7    8.29    5.79
   9 -11   8    2.45    4.42
  -9  11  -8   10.18    7.44
   9 -11   9   10.12    6.36
  -9  11  -9   11.93    8.29
   9 -11  10   -6.13    7.28
  -9  11 -10    6.42    8.37
   9 -11  11   -0.74    6.22
  -9  11 -11   -1.07    8.00
   9 -11  12   11.47    4.41
  -9  11 -12   22.86    8.33
   9 -11  13    5.27    5.39
  -9  11 -13    9.21    6.37
  -9  10   9    1.71    1.67
  -9  10   8   12.86    6.59
  -9  10   7   11.82    5.90
  -9  10   6    3.89    3.40
  -9  10   5   39.76   11.03
  -9  10   5   41.41    5.19
  -9  10   4   21.49    5.65
  -9  10   4   28.60    2.54
  -9  10   3  295.98   16.59
  -9  10   3  293.55   14.69
  -9  10   2  121.49   20.33
  -9  10   2  104.94    6.86
  -9  10   2  122.02    3.76
  -9  10   1 2178.78   18.82
  -9  10   1 2210.14   16.11
  -9  10   0 2806.54   23.42
  -9  10   0 2833.08   19.64
  -9  10  -1   85.78   18.71
  -9  10  -1   77.21   10.64
  -9  10  -2  246.63   22.18
  -9  10  -2  262.37   14.53
  -9  10  -3  461.05   16.53
  -9  10  -3  464.43   15.91
  -9  10  -4    4.78    2.60
   9 -10   5   31.04    9.17
  -9  10  -5   24.72    9.14
   9 -10   6   27.31   10.79
  -9  10  -6   21.12    7.48
   9 -10   7   18.60    5.74
  -9  10  -7   25.57    8.20
   9 -10   8   47.99   19.73
  -9  10  -8   52.98   21.63
   9 -10   9   -4.95    6.21
  -9  10  -9   -5.12    8.23
   9 -10  10   10.83    2.81
  -9  10 -10   -5.83    8.46
   9 -10  11   -0.41    6.57
  -9  10 -11    7.24    5.50
   9 -10  12   13.55    7.51
  -9  10 -12   25.08    8.22
   9 -10  13    0.28    6.10
  -9  10 -13    2.83    7.80
  -9   9  10    3.17    2.87
  -9   9   9   10.37    3.90
  -9   9   8   24.16    7.50
  -9   9   7    6.23    4.31
  -9   9   6    8.68    5.59
  -9   9   5   14.62    7.54
  -9   9   5    3.88    1.47
  -9   9   4  149.61    8.80
  -9   9   4  145.71    2.45
  -9   9   4  149.06    2.68
  -9   9   3  283.78   21.21
  -9   9   3  260.01    6.61
  -9   9   3  279.91    6.97
  -9   9   2   55.52    9.10
  -9   9   2   23.91    5.29
  -9   9   2   38.07    7.33
  -9   9   1  617.38   21.92
  -9   9   1  574.70   13.42
  -9   9   1  622.74   14.72
  -9   9   0  194.03   22.80
  -9   9   0  171.46    5.18
  -9   9  -1   56.50    9.60
  -9   9  -1   42.10   13.29
  -9   9  -2   31.38    8.20
  -9   9  -2   27.62    6.46
  -9   9  -3   23.87    7.44
  -9   9  -3   28.63    8.13
  -9   9  -4  121.73   10.15
  -9   9  -4  119.76   23.48
   9  -9   5    7.30    5.18
  -9   9  -5    9.01    9.79
   9  -9   6   17.83    5.07
  -9   9  -6   29.53   10.05
   9  -9   7   50.68   12.24
  -9   9  -7   45.45    9.53
   9  -9   8   74.78   23.80
  -9   9  -8   68.78   21.20
   9  -9   9    4.41    3.33
  -9   9  -9    4.07    5.54
   9  -9  10   25.33    9.93
  -9   9 -10   16.33    8.33
   9  -9  11   -5.19    6.55
  -9   9 -11    9.38    7.94
   9  -9  12    6.61    5.36
  -9   9 -12   -0.74    7.95
   9  -9  13    9.37    6.07
  -9   9 -13    1.60    4.53
  -9   8  11    1.89    2.51
  -9   8  10    1.38    1.99
  -9   8   9  181.86    6.98
  -9   8   8   11.35    3.67
  -9   8   7    8.84    5.87
  -9   8   6    5.91    6.91
  -9   8   5  137.64    8.40
  -9   8   4   16.85    4.89
  -9   8   4   20.27    3.37
  -9   8   4   22.25    3.19
  -9   8   3   20.81    7.17
  -9   8   3   14.95    2.93
  -9   8   3   18.44    3.61
  -9   8   2  371.82   13.77
  -9   8   2  350.05    9.56
  -9   8   2  364.54   10.13
  -9   8   1    0.74    2.99
  -9   8   1    2.01    1.13
  -9   8   1    2.46    1.01
  -9   8   0  634.62   25.61
  -9   8   0  653.72   17.67
  -9   8  -1   94.64    9.72
  -9   8  -1   89.87    4.95
  -9   8  -2  790.16   22.07
  -9   8  -2  791.18   19.89
  -9   8  -3 1173.71   28.62
  -9   8  -3 1255.69   33.55
  -9   8  -4  411.83   11.48
  -9   8  -4  423.49   11.80
  -9   8  -5  217.22   11.07
  -9   8  -5  195.06    9.72
   9  -8   6   -8.78    6.52
  -9   8  -6    1.47    3.09
   9  -8   7   12.47    5.97
  -9   8  -7    5.27    5.73
   9  -8   8    6.02    5.42
  -9   8  -8    5.16    8.00
   9  -8   9    9.20    3.56
  -9   8  -9   40.57   10.73
   9  -8  10    5.76    5.29
  -9   8 -10   20.61   10.41
   9  -8  11    3.87    3.10
  -9   8 -11  -10.17    7.37
   9  -8  12    5.13    5.66
  -9   8 -12    6.21    6.03
   9  -8  13   19.12    8.81
  -9   8 -13    6.38    6.77
  -9   7  12    2.32    2.22
  -9   7  11    4.38    4.11
  -9   7  10   27.50    9.64
  -9   7   9   12.35    4.43
  -9   7   8   -0.02    4.65
  -9   7   7    4.34    3.19
  -9   7   6    5.08    4.94
  -9   7   5   29.61    6.15
  -9   7   4    2.07    4.99
  -9   7   3  149.10    7.57
  -9   7   3  133.66    4.51
  -9   7   3  129.58    5.82
  -9   7   2   74.14   16.43
  -9   7   2   52.50    4.58
  -9   7   2   57.76    4.85
   9  -7  -1    0.86    0.98
  -9   7   1    1.34    1.34
  -9   7   1    0.97    3.40
   9  -7   0   31.26    3.04
  -9   7   0   44.64    9.49
  -9   7   0   36.69   11.18
  -9   7  -1   12.18    3.37
  -9   7  -1   12.44    3.66
  -9   7  -2   50.73    7.32
  -9   7  -2   37.07    8.49
  -9   7  -3  328.44   13.19
  -9   7  -3  361.07   11.75
  -9   7  -4  126.64   11.30
  -9   7  -4  135.72   10.15
  -9   7  -5  131.42   24.13
  -9   7  -5  114.27   29.43
  -9   7  -6  546.03   15.10
  -9   7  -6  505.96   11.84
  -9   7  -7   24.83    8.56
   9  -7   8   -1.79    7.63
  -9   7  -8   -2.79    7.90
   9  -7   9   11.80    6.41
  -9   7  -9   18.72    8.39
   9  -7  10   27.64   10.98
  -9   7 -10   39.15   14.58
   9  -7  11   24.88   13.37
  -9   7 -11   32.08   11.25
   9  -7  12   -1.81    6.58
  -9   7 -12    8.69   10.33
   9  -7  13    2.18    3.61
  -9   7 -13    2.66    6.91
  -9   6  14    1.20    3.67
  -9   6  13    8.64    3.49
  -9   6  12   26.75    6.92
  -9   6  11   35.22    8.92
  -9   6  10  424.04    9.32
  -9   6   9    1.05    2.71
  -9   6   8  120.41   22.62
  -9   6   7    1.05    2.35
  -9   6   6   10.77    7.43
  -9   6   5  115.53   14.31
  -9   6   4   49.83    7.56
  -9   6   4   28.32    1.25
  -9   6   3  438.14   13.38
  -9   6   3  413.71    9.45
  -9   6   3  413.46    9.86
   9  -6  -2  533.70   12.28
  -9   6   2  535.36   13.00
  -9   6   2  537.09   14.71
   9  -6  -1  146.08    3.22
  -9   6   1  153.12    4.80
  -9   6   1  146.66    7.46
   9  -6   0    1.94    2.73
  -9   6   0    0.30    3.48
  -9   6   0    1.45    2.25
  -9   6  -1   25.41    7.07
  -9   6  -1   27.11    7.09
  -9   6  -2  259.48   22.82
  -9   6  -2  269.38   10.28
  -9   6  -3  135.24   24.50
  -9   6  -3  120.89    7.50
  -9   6  -4  306.27   14.51
  -9   6  -4  333.77   14.67
  -9   6  -5   77.07   16.71
  -9   6  -5   87.37   20.31
  -9   6  -6   39.48   10.79
  -9   6  -6   39.12    6.79
  -9   6  -7  230.62   36.06
  -9   6  -7  249.20   11.11
  -9   6  -8  238.19   14.64
  -9   6  -8  256.85   14.97
  -9   6  -9    7.15    3.48
  -9   6  -9   -0.86    7.28
  -9   6 -10   42.23   11.36
  -9   6 -10   46.98    9.54
  -9   6 -11   -4.15    5.64
  -9   6 -11   -0.24    7.60
  -9   6 -12   18.66   10.90
  -9   6 -12   19.09    9.65
  -9   6 -13    0.01    6.03
  -9   6 -13    3.19    5.00
  -9   5  15   -0.04    3.63
  -9   5  14   -0.74    3.82
  -9   5  13    8.19    4.11
  -9   5  12    4.15    3.77
  -9   5  11   25.40    7.03
  -9   5  10    5.69    3.06
  -9   5   9  188.27   21.27
  -9   5   8  137.40   17.60
  -9   5   7   75.46    9.44
  -9   5   6    5.19    5.06
  -9   5   5   15.83    6.68
  -9   5   4    9.17    5.91
  -9   5   4    1.88    0.84
  -9   5   4    4.33    1.33
   9  -5  -3   -0.16    1.33
  -9   5   3    0.83    0.79
  -9   5   3    0.78    4.53
   9  -5  -2   37.99    2.64
  -9   5   2   40.39    4.28
  -9   5   2   48.05    6.51
   9  -5  -1   23.42    5.95
  -9   5   1   36.25    5.34
  -9   5   1   31.23    6.57
  -9   5   0  172.66    7.29
  -9   5   0  173.31    6.71
  -9   5  -1  139.96   12.02
  -9   5  -1  127.21    6.09
  -9   5  -2  180.21   19.56
  -9   5  -2  162.00   14.34
  -9   5  -3  399.20   25.01
  -9   5  -3  369.40   11.82
  -9   5  -4  104.12   10.54
  -9   5  -4   92.68   24.23
  -9   5  -5   78.22   17.02
  -9   5  -5   76.93    9.94
  -9   5  -6   12.99    5.95
  -9   5  -6   12.60    8.29
  -9   5  -7   -1.36    6.24
  -9   5  -7   -2.16    5.99
  -9   5  -8  312.35   24.45
  -9   5  -8  318.36   14.09
  -9   5  -9    0.64    6.63
  -9   5  -9   10.63    8.70
  -9   5 -10   11.63    6.23
  -9   5 -10   20.09   11.05
  -9   5 -11   40.13   17.81
  -9   5 -11   50.17   19.25
  -9   5 -12    8.86    6.38
  -9   5 -12    6.48    7.96
  -9   4  16    5.18    3.80
  -9   4  15   12.31    4.95
  -9   4  14   -0.95    3.99
  -9   4  13   -1.82    4.64
  -9   4  12  137.72   16.64
  -9   4  11   17.61    4.70
  -9   4  10   21.40    8.10
  -9   4   9  459.49   11.95
  -9   4   8  104.57   19.28
  -9   4   7  261.26   10.94
  -9   4   6   27.13    6.68
  -9   4   5   50.55    6.67
   9  -4  -4    1.65    1.61
  -9   4   4    1.80    1.37
  -9   4   4    1.28    4.79
   9  -4  -3   -1.62    1.66
  -9   4   3    0.74    1.66
  -9   4   3    3.01    4.71
   9  -4  -2   38.55    7.29
  -9   4   2   48.05    7.54
  -9   4   2   48.16    6.05
   9  -4  -1  662.94   15.13
  -9   4   1  687.44   16.97
  -9   4   1  644.19   16.38
  -9   4   0   41.72    6.78
  -9   4   0   44.50    8.46
  -9   4  -1   -2.07    5.46
  -9   4  -1    1.11    3.81
  -9   4  -2  201.81   19.38
  -9   4  -2  197.97    8.31
  -9   4  -3  305.58   16.72
  -9   4  -3  289.74   12.68
  -9   4  -4   15.42    6.16
  -9   4  -4    5.20    8.05
  -9   4  -5   86.30    9.30
  -9   4  -5   92.72   10.47
  -9   4  -6  185.63   23.28
  -9   4  -6  184.70   11.68
  -9   4  -7  156.86    8.75
  -9   4  -7  151.84   12.23
  -9   4  -8    6.68    3.98
  -9   4  -8    6.71    7.66
  -9   4  -9   -2.51    6.15
  -9   4  -9    3.75    6.79
  -9   4 -10    5.81    2.12
  -9   4 -10    9.32    8.10
  -9   4 -11   -1.82    6.29
  -9   4 -11    8.20    7.34
  -9   4 -12   13.28    6.42
  -9   4 -12    8.00    8.08
  -9   3  17    3.44    4.07
  -9   3  16    1.34    2.89
  -9   3  15   13.63    6.41
  -9   3  14   -0.67    2.18
  -9   3  13   -1.25    4.91
  -9   3  12  139.06   12.53
  -9   3  11  218.18   11.21
  -9   3  10   87.68   22.69
  -9   3   9  137.44   14.06
  -9   3   8  120.92   13.16
  -9   3   7   85.26   13.86
  -9   3   6   35.95    5.23
   9  -3  -5   76.04    3.63
  -9   3   5   81.43    4.15
  -9   3   5   83.34    7.76
   9  -3  -4   10.41    3.72
  -9   3   4    5.40    2.25
  -9   3   4   -3.47    4.63
   9  -3  -3   38.89    2.64
  -9   3   3   29.74    7.66
  -9   3   3   41.55   10.31
   9  -3  -2   -0.48    1.73
  -9   3   2   -1.71    2.77
  -9   3   2    1.78    4.98
  -9   3   1  169.90    7.96
  -9   3   1  168.24    5.67
  -9   3   0  168.32    8.25
  -9   3   0  198.02    8.53
  -9   3  -1   51.83    9.68
  -9   3  -1   49.64    8.74
  -9   3  -2    6.29    5.17
  -9   3  -2   12.24    3.50
  -9   3  -3  684.18   25.39
  -9   3  -3  688.34   18.86
  -9   3  -4  315.32   19.39
  -9   3  -4  348.81   12.61
  -9   3  -5   92.13   18.02
  -9   3  -5   82.37   26.56
  -9   3  -6    8.15    6.13
  -9   3  -6    7.00    6.18
  -9   3  -7   18.12    4.67
  -9   3  -7   35.75   10.73
  -9   3  -8   56.24    9.68
  -9   3  -8   45.93   12.12
  -9   3  -9   34.46    8.03
  -9   3  -9   45.35   10.25
  -9   3 -10   44.02   11.15
  -9   3 -10   12.29    5.61
  -9   3 -11   53.36    7.19
  -9   3 -11   23.05    7.71
  -9   3 -12   -1.92    5.07
  -9   3 -12    2.87    3.28
  -9   2  18    2.19    3.19
  -9   2  17   17.48    7.33
  -9   2  16    4.00    2.25
  -9   2  15  229.63   12.10
  -9   2  14    4.04    3.72
  -9   2  13   15.81    7.01
   9  -2 -12   56.61    1.96
  -9   2  12   75.99   19.49
   9  -2 -11   44.00    2.13
  -9   2  11   51.77   12.59
   9  -2 -10 2231.51   10.79
  -9   2  10 2289.49   20.74
   9  -2  -9 2692.18   57.94
  -9   2   9 2565.23   57.40
   9  -2  -8   95.21    1.79
  -9   2   8  118.07   12.03
   9  -2  -7   30.86    2.15
   9  -2  -7   28.14    2.26
  -9   2   7   29.23    5.51
   9  -2  -6  393.51    9.07
  -9   2   6  398.43    9.22
  -9   2   6  415.30   16.74
   9  -2  -5    1.43    1.18
  -9   2   5    1.33    1.38
  -9   2   5   10.73    6.66
   9  -2  -4   77.41    2.96
  -9   2   4   76.49    3.68
  -9   2   4   81.43    8.08
   9  -2  -3    7.53    2.52
  -9   2   3    7.12    3.28
  -9   2   3    4.07    5.13
   9  -2  -2    4.32    2.53
  -9   2   2    2.82    1.94
  -9   2   2   -1.23    5.57
  -9   2   1    5.29    4.97
  -9   2   1    5.61    2.49
  -9   2   0  109.60   18.97
  -9   2   0  109.45    6.58
  -9   2  -1  405.23   13.75
  -9   2  -1  405.54   16.62
  -9   2  -2   11.11    6.21
  -9   2  -2   -3.51    5.34
  -9   2  -3   22.73    8.42
  -9   2  -3   26.42    8.14
  -9   2  -4  222.08    8.99
  -9   2  -4  236.72   22.01
  -9   2  -5   15.34    8.08
  -9   2  -5   17.71    6.97
  -9   2  -6   22.31    7.79
  -9   2  -6   23.93    8.33
  -9   2  -7    7.50    5.02
  -9   2  -7   10.13    3.24
  -9   2  -8   13.22    8.27
  -9   2  -8    8.83    4.56
  -9   2  -9    8.95    4.27
  -9   2  -9    2.64    7.18
  -9   2 -10   -0.96    5.80
  -9   2 -10    2.58    3.54
  -9   2 -11   10.85    4.74
  -9   2 -11    3.30    7.25
  -9   1  18    0.81    4.90
  -9   1  17   -1.65    4.86
  -9   1  16   41.23    9.29
  -9   1  15    5.39    3.52
  -9   1  14  139.05   19.40
   9  -1 -13   72.40    5.09
  -9   1  13   91.17   23.42
   9  -1 -12   48.59    5.54
  -9   1  12   68.33   12.96
   9  -1 -11  819.50   22.82
  -9   1  11  789.09   25.16
  -9   1  10  673.04   21.10
   9  -1  -9  230.09    6.89
   9  -1  -9  216.87    2.70
  -9   1   9  241.99   11.80
   9  -1  -8  802.90   21.08
   9  -1  -8  770.55   19.93
  -9   1   8  827.43   29.83
   9  -1  -7   -0.03    0.91
  -9   1   7    2.15    1.61
  -9   1   7   -0.13    4.44
   9  -1  -6   33.25    3.49
  -9   1   6   31.43    9.32
  -9   1   6   18.89    8.95
   9  -1  -5  303.40    7.55
  -9   1   5  313.28    8.76
  -9   1   5  309.00   10.48
   9  -1  -4   24.67    5.38
  -9   1   4   12.86    3.48
  -9   1   4   35.00    7.28
   9  -1  -3    9.38    3.13
  -9   1   3   11.38    3.05
  -9   1   3   10.17    5.22
  -9   1   2  210.30    9.27
  -9   1   2  212.84    7.58
  -9   1   1   40.36    9.35
  -9   1   1   33.51    7.64
  -9   1   0   57.36    7.23
  -9   1   0   71.53   16.02
  -9   1  -1   55.32    7.91
  -9   1  -1   53.60    7.40
  -9   1  -2   45.69    8.15
  -9   1  -2   31.27    7.71
  -9   1  -3    3.91    2.54
  -9   1  -3   -3.18    5.95
  -9   1  -4  169.87   14.65
  -9   1  -4  160.17   30.57
  -9   1  -5   18.99    6.25
  -9   1  -5    8.76    4.23
  -9   1  -6   11.66    7.23
  -9   1  -6   -4.01    7.00
  -9   1  -7    6.71    6.57
  -9   1  -7    6.64    4.99
  -9   1  -8    0.30    5.47
  -9   1  -8   -0.19    5.50
  -9   1  -9  190.99   11.31
  -9   1  -9  189.22   10.84
  -9   1 -10   14.26    8.26
  -9   1 -10   23.35    7.50
  -9   1 -11    4.99    3.90
  -9   0  18   54.38   18.34
  -9   0  17   11.02    8.62
  -9   0  16    5.12    5.94
  -9   0  15  173.94   15.36
   9   0 -14   38.82    4.48
  -9   0  14   41.77   12.34
   9   0 -13   49.99    5.41
  -9   0  13   67.88    9.01
   9   0 -12   23.83    4.46
  -9   0  12   18.64    5.24
   9   0 -11  862.46   24.42
  -9   0  11  892.02   27.97
   9   0 -10   47.22    3.85
  -9   0  10   52.34   16.60
   9   0  -9  193.83    3.55
   9   0  -9  184.52    3.51
  -9   0   9  193.54    9.10
   9   0  -8    1.66    0.96
  -9   0   8   -1.06    1.73
  -9   0   8    5.16    4.20
   9   0  -7    3.41    2.01
  -9   0   7    3.80    1.57
  -9   0   7    3.37    4.46
   9   0  -6   59.56    3.48
  -9   0   6   58.98    4.08
  -9   0   6   73.22   18.55
   9   0  -5   61.94    5.74
  -9   0   5   71.19    6.22
  -9   0   5   80.03   18.06
  -9   0   4   19.94    7.13
  -9   0   4   30.35    9.15
  -9   0   3  197.37    8.65
  -9   0   3  212.71    8.30
  -9   0   2   30.57    6.28
  -9   0   2   32.83    8.07
  -9   0   1   21.07    6.68
  -9   0   1   16.46    5.90
  -9   0   0   22.95    7.46
  -9   0   0   18.74    5.38
  -9   0  -1   31.15    4.97
  -9   0  -1   28.00    7.07
  -9   0  -2  215.46   13.90
  -9   0  -2  231.06   17.45
  -9   0  -3   94.90    9.02
  -9   0  -3  118.92   10.75
  -9   0  -4   21.70    7.90
  -9   0  -4    6.75    6.12
  -9   0  -5    1.14    4.96
  -9   0  -5   -0.80    6.68
  -9   0  -6   -0.84    4.76
  -9   0  -6    5.01    3.01
  -9   0  -7   27.83    9.21
  -9   0  -7   19.26    8.04
  -9   0  -8   27.85   12.30
  -9   0  -8   31.96   13.03
  -9   0  -9    9.84    5.37
  -9   0  -9   14.10    9.52
  -9   0 -10    6.79    4.36
  -9  -1  19   21.70    9.38
  -9  -1  18   11.28    6.97
  -9  -1  17    2.52    7.33
  -9  -1  16   -3.21    6.03
  -9  -1  15    7.66    3.75
   9   1 -14   77.91    6.15
  -9  -1  14   80.25    8.17
   9   1 -13  208.66    9.98
  -9  -1  13  218.83   25.81
   9   1 -12   79.22    4.55
  -9  -1  12   80.70   17.95
   9   1 -11  506.09   15.25
  -9  -1  11  516.63   18.49
   9   1 -10  815.97    8.00
   9   1 -10  780.13    6.16
  -9  -1  10  832.68   16.42
   9   1  -9  103.56    3.41
  -9  -1   9  111.46   20.36
   9   1  -8 1272.75   28.00
  -9  -1   8 1405.73   31.40
  -9  -1   8 1410.04   33.16
   9   1  -7   23.31    4.18
  -9  -1   7   31.26    7.86
  -9  -1   7   41.04    8.68
  -9  -1   6  632.02   27.57
  -9  -1   6  655.76   18.06
  -9  -1   5  187.12    9.06
  -9  -1   5  191.31   10.51
  -9  -1   4   71.14   16.69
  -9  -1   4   60.05    6.62
  -9  -1   3  233.24   10.36
  -9  -1   3  247.36   12.59
  -9  -1   2  146.67    7.00
  -9  -1   2  151.61    6.75
  -9  -1   1  103.26    7.60
  -9  -1   1   86.69    7.20
  -9  -1   0   33.30    7.90
  -9  -1   0   31.44    8.02
  -9  -1  -1   73.31    7.60
  -9  -1  -1   63.09    8.54
  -9  -1  -2  114.75   24.18
  -9  -1  -2  151.12   10.21
  -9  -1  -3  194.54   10.80
  -9  -1  -3  193.16    9.35
  -9  -1  -4  279.14   13.17
  -9  -1  -4  260.12   16.82
  -9  -1  -5   42.08    6.08
  -9  -1  -5   20.14    6.66
  -9  -1  -6   14.17    6.75
  -9  -1  -6   20.37    5.55
  -9  -1  -7   10.59    5.15
  -9  -1  -7   13.66   10.13
  -9  -1  -8    4.05    3.90
  -9  -1  -8   -0.45    6.77
  -9  -2  19   15.03    5.91
  -9  -2  18    7.61    7.05
  -9  -2  17   -0.74    6.12
  -9  -2  16   75.57   11.91
   9   2 -15   19.00    6.06
  -9  -2  15   20.45    7.55
   9   2 -14    4.12    4.42
  -9  -2  14   12.58    6.53
   9   2 -13   56.74    6.58
  -9  -2  13   55.22   11.38
   9   2 -12    0.69    3.00
  -9  -2  12    3.74    7.43
   9   2 -11   30.41    4.83
  -9  -2  11   31.67    8.07
   9   2 -10   79.03   15.83
  -9  -2  10   87.60    7.82
  -9  -2   9   99.67   24.17
  -9  -2   9   87.03    7.07
  -9  -2   8  782.72   22.07
  -9  -2   8  789.14   18.65
  -9  -2   7  307.39    9.97
  -9  -2   7  312.92    8.98
  -9  -2   6   29.92    5.95
  -9  -2   6   25.55    6.67
  -9  -2   5  684.18   17.55
  -9  -2   5  667.70   16.33
  -9  -2   4   93.52   11.90
  -9  -2   4   81.60   12.28
  -9  -2   3   32.47    9.66
  -9  -2   3   28.83    5.05
  -9  -2   2  197.48   27.05
  -9  -2   2  165.38   10.05
  -9  -2   1  150.66    7.83
  -9  -2   1  147.44    8.08
  -9  -2   0   13.50    6.31
  -9  -2   0   12.78    4.52
  -9  -2  -1   57.91    7.21
  -9  -2  -1   56.31    8.74
  -9  -2  -2    4.74    5.32
  -9  -2  -2   -4.41    5.61
  -9  -2  -3   35.01   11.44
  -9  -2  -3   49.64    9.86
  -9  -2  -4  185.98    8.09
  -9  -2  -4  159.81   24.37
  -9  -2  -5   -4.29    4.33
  -9  -2  -5    8.46    5.64
  -9  -2  -6    4.37    2.54
  -9  -2  -6    8.26    5.11
  -9  -2  -7   69.61   34.39
  -9  -2  -8    5.63    7.84
  -9  -2  -9   15.74    8.08
  -9  -3  19   18.51    6.40
  -9  -3  18   13.57    7.73
  -9  -3  17    5.44    4.89
   9   3 -16   -0.55    3.05
  -9  -3  16   -3.14    6.03
   9   3 -15   44.05    5.68
  -9  -3  15   47.46   11.35
   9   3 -14    5.17    4.74
  -9  -3  14    1.37    4.05
   9   3 -13   40.03    5.02
  -9  -3  13   29.41    4.91
   9   3 -12   34.74    6.80
  -9  -3  12   47.69    7.83
   9   3 -11   23.96    5.05
  -9  -3  11   12.87    4.78
  -9  -3  10  120.17   10.49
  -9  -3  10  129.63    9.92
  -9  -3   9  151.62   14.58
  -9  -3   9  165.67    9.96
  -9  -3   8  306.66   17.84
  -9  -3   8  270.42   15.86
  -9  -3   7  221.27   13.71
  -9  -3   7  204.63   13.32
  -9  -3   6  246.39   10.59
  -9  -3   6  228.84   15.46
  -9  -3   5   15.19    4.98
  -9  -3   5    9.05    7.11
  -9  -3   4  209.24   20.99
  -9  -3   4  186.01   14.72
  -9  -3   3  465.21   18.24
  -9  -3   3  444.10   12.35
  -9  -3   2   -0.35    3.58
  -9  -3   2    2.32    3.31
  -9  -3   1    8.11    4.60
  -9  -3   1   12.67    4.98
  -9  -3   0    2.99    2.60
  -9  -3   0   -0.03    5.26
  -9  -3  -1   42.30   16.86
  -9  -3  -1   50.62   15.91
  -9  -3  -2   -1.35    4.02
  -9  -3  -2   -0.42    6.53
  -9  -3  -3  165.57    7.68
  -9  -3  -3  159.90   11.99
  -9  -3  -4    2.39    4.12
  -9  -3  -4    5.21    5.65
  -9  -3  -5   50.71   12.36
  -9  -3  -6    2.50    6.61
  -9  -3  -7   11.21    6.67
  -9  -3  -8   15.16    7.65
  -9  -4  18    1.69    4.10
  -9  -4  17    1.35    3.23
   9   4 -16   12.01    3.61
  -9  -4  16    7.53    6.09
   9   4 -15    3.95    3.63
  -9  -4  15   -1.68    4.75
   9   4 -14   13.99    5.60
  -9  -4  14    7.69    7.01
   9   4 -13  171.85    8.20
  -9  -4  13  198.04    9.76
   9   4 -12    6.83    4.81
  -9  -4  12    3.39    7.60
   9   4 -11   13.29    3.92
  -9  -4  11   24.22    9.56
  -9  -4  10    2.26    3.13
  -9  -4  10    3.23    1.62
  -9  -4   9  101.72    8.29
  -9  -4   9  106.27   15.64
  -9  -4   8    4.73    4.60
  -9  -4   8    6.33    4.76
  -9  -4   7    7.26    5.78
  -9  -4   7   -2.03    4.38
  -9  -4   6   33.54    9.95
  -9  -4   6   35.50   11.05
  -9  -4   5  144.91   17.55
  -9  -4   5  141.23   10.74
  -9  -4   4   34.47    8.83
  -9  -4   4   11.87    4.15
  -9  -4   3  124.45    9.38
  -9  -4   3  117.23   16.82
  -9  -4   2  355.60   18.59
  -9  -4   2  359.70   24.40
  -9  -4   1    0.72    3.85
  -9  -4   1    7.08    6.89
  -9  -4   0  365.13   13.04
  -9  -4   0  349.90   29.05
  -9  -4  -1  221.42   11.42
  -9  -4  -1  229.80   19.20
  -9  -4  -2  237.48    8.89
  -9  -4  -2  261.91    9.88
  -9  -4  -3    1.85    2.75
  -9  -4  -3   -4.09    5.70
  -9  -4  -4    4.65    2.80
  -9  -4  -4    6.58    7.48
  -9  -4  -5   -3.08    6.19
  -9  -4  -6   22.92    6.51
  -9  -4  -7   41.23   11.43
  -9  -5  18    9.44    6.90
   9   5 -17    2.75    3.67
  -9  -5  17   10.37    9.27
   9   5 -16   20.68    8.82
  -9  -5  16   41.46   10.20
   9   5 -15   27.98    5.90
  -9  -5  15   31.10    6.64
   9   5 -14    6.12    4.26
  -9  -5  14    0.97    3.44
   9   5 -13    0.27    3.96
  -9  -5  13    1.64    5.61
   9   5 -12   17.48    4.57
  -9  -5  12   16.85    8.39
  -9  -5  11   30.83    8.94
  -9  -5  11   26.76    6.68
  -9  -5  10   -0.39    5.69
  -9  -5  10    1.72    2.53
  -9  -5   9    6.53    4.70
  -9  -5   9    4.88    3.49
  -9  -5   8  677.31   16.15
  -9  -5   8  669.75   11.38
  -9  -5   7   72.55   17.28
  -9  -5   7   74.92    9.95
  -9  -5   6   44.50   13.30
  -9  -5   6   39.22   10.32
  -9  -5   5   86.36   19.70
  -9  -5   5   79.40   19.21
  -9  -5   4   -1.79    4.85
  -9  -5   4    7.95    4.49
  -9  -5   3  113.50   25.10
  -9  -5   3  137.89   26.44
  -9  -5   2   -3.37    5.04
  -9  -5   2    7.08    5.24
  -9  -5   1   -2.44    3.89
  -9  -5   1   12.01    7.55
  -9  -5   0   44.15   16.57
  -9  -5   0   65.46   14.05
  -9  -5  -1  188.36   10.25
  -9  -5  -1  159.33   29.74
  -9  -5  -2    8.75    6.02
  -9  -5  -2   20.35    6.91
  -9  -5  -3   -3.87    2.74
  -9  -5  -3    5.73    4.29
  -9  -5  -4   -1.13    3.46
  -9  -5  -5   17.06    6.43
  -9  -5  -6   14.06    8.38
  -9  -6  18   13.20    8.89
   9   6 -17    8.89    5.37
  -9  -6  17    4.32    6.84
   9   6 -16    0.82    4.01
  -9  -6  16   12.81    9.54
   9   6 -15   33.15    6.24
  -9  -6  15   38.71   11.43
   9   6 -14    7.93    3.45
  -9  -6  14    3.37    5.91
   9   6 -13    6.84    3.34
  -9  -6  13    5.80    4.09
   9   6 -12    3.57    4.04
  -9  -6  12    7.57    5.95
  -9  -6  11    7.84    7.12
  -9  -6  11   -1.47    4.75
  -9  -6  10   46.40    9.60
  -9  -6  10   43.99   11.22
  -9  -6   9   36.70   10.59
  -9  -6   9   37.61    9.48
  -9  -6   8   -1.20    6.17
  -9  -6   8    5.11    5.52
  -9  -6   7  136.47    8.20
  -9  -6   7  128.28   22.55
  -9  -6   6    5.30    3.74
  -9  -6   6   13.78    4.09
  -9  -6   5   40.29   10.31
  -9  -6   5   44.45    8.33
  -9  -6   4  122.10   12.85
  -9  -6   4  109.67    9.63
  -9  -6   3    0.29    2.15
  -9  -6   3   -4.61    5.92
  -9  -6   2    4.32    4.31
  -9  -6   2   -7.49    5.84
  -9  -6   1   20.01    8.92
  -9  -6   1   28.54   16.05
  -9  -6   0    1.86    2.53
  -9  -6   0    2.68    3.09
  -9  -6  -1   18.79    9.95
  -9  -6  -1   47.77    9.19
  -9  -6  -2   -2.59    6.32
  -9  -6  -3    3.30    4.58
  -9  -6  -4   63.70   30.36
  -9  -6  -5   10.07    5.28
   9   7 -18    2.90    3.90
  -9  -7  18    3.05    4.41
   9   7 -17    6.67    3.86
  -9  -7  17   -1.76    7.27
   9   7 -16    2.70    4.39
  -9  -7  16    6.22    6.52
   9   7 -15   29.14   10.39
  -9  -7  15   34.12   11.89
   9   7 -14   16.93    5.68
  -9  -7  14   14.34    7.28
   9   7 -13    7.29    4.77
  -9  -7  13    6.55    7.78
  -9  -7  12   17.67   10.78
  -9  -7  11   59.29   17.76
  -9  -7  11   54.65   19.31
  -9  -7  10  210.45    9.44
  -9  -7  10  184.71   18.26
  -9  -7   9    6.00    4.90
  -9  -7   9    2.91    3.23
  -9  -7   8   32.94    8.87
  -9  -7   8   28.92    9.94
  -9  -7   7  234.30    8.36
  -9  -7   7  219.33   18.15
  -9  -7   6  182.23   12.21
  -9  -7   6  176.22   17.48
  -9  -7   5  339.41   13.80
  -9  -7   5  339.31   19.18
  -9  -7   4    4.66    2.57
  -9  -7   4    4.27    4.32
  -9  -7   3    8.59    4.47
  -9  -7   3    9.28    3.75
  -9  -7   2    4.68    3.68
  -9  -7   2    2.64    2.81
  -9  -7   1   15.05    3.59
  -9  -7   1   13.29    6.01
  -9  -7   0    5.12    2.54
  -9  -7   0    7.94    6.19
  -9  -7  -1   -0.25    6.00
  -9  -7  -2   -4.12    6.27
  -9  -7  -3   22.09    8.98
  -9  -7  -4   40.50   18.25
   9   8 -17   -1.09    4.05
  -9  -8  17    4.64    8.85
   9   8 -16    2.82    4.27
  -9  -8  16    9.73    7.71
   9   8 -15   32.69    9.69
  -9  -8  15   44.01   11.30
   9   8 -14   -0.45    4.08
  -9  -8  14   -0.72    5.44
   9   8 -13    7.55    3.64
  -9  -8  13   14.25    7.72
  -9  -8  12    7.93    6.39
  -9  -8  12    7.38    4.04
  -9  -8  11    6.09    5.56
  -9  -8  11    7.17    4.25
  -9  -8  10   13.22    5.25
  -9  -8  10    5.95    5.06
  -9  -8   9    5.28    6.81
  -9  -8   9   -1.83    6.31
  -9  -8   8  156.42   21.86
  -9  -8   8  165.48   14.38
  -9  -8   7    3.18    2.61
  -9  -8   7    6.75    4.18
  -9  -8   6   52.97   14.22
  -9  -8   6   54.78   16.00
  -9  -8   5    9.34    7.26
  -9  -8   5    2.62    3.97
  -9  -8   4   17.03    6.18
  -9  -8   4   29.17   10.80
  -9  -8   3   -1.13    3.37
  -9  -8   3   10.73    4.78
  -9  -8   2  181.85   10.92
  -9  -8   2  170.03   34.21
  -9  -8   1   84.19   26.63
  -9  -8   0   18.05    6.71
  -9  -8  -1   38.38   11.38
  -9  -8  -2    2.33    3.82
   9   9 -16    8.80    6.34
  -9  -9  16   18.58    8.05
   9   9 -15    7.13    6.95
  -9  -9  15    6.43    6.98
   9   9 -14   39.43   11.31
  -9  -9  14   31.37   13.61
   9   9 -13   10.96    7.09
  -9  -9  13    5.69    5.68
  -9  -9  12    3.84    5.33
  -9  -9  12    8.78    5.60
  -9  -9  11   14.67    6.64
  -9  -9  11   11.10    4.44
  -9  -9  10   24.42    8.84
  -9  -9  10   13.73    7.13
  -9  -9   9   72.29   21.22
  -9  -9   9   77.01   19.76
  -9  -9   8   15.68   12.90
  -9  -9   8   -3.28    6.48
  -9  -9   7   15.00    9.13
  -9  -9   7    7.02    3.48
  -9  -9   6   19.35    7.96
  -9  -9   6   20.39    7.42
  -9  -9   5   10.17    6.29
  -9  -9   5    8.09    4.94
  -9  -9   4   11.45    4.43
  -9  -9   4    3.46    4.41
  -9  -9   3   22.33    9.22
  -9  -9   3   34.43   11.65
  -9  -9   2   31.82   10.30
  -9  -9   1    9.03    3.97
  -9  -9   0    6.44    3.29
   9  10 -15    4.78    4.27
  -9 -10  15   -3.45    5.71
   9  10 -14    7.15    6.46
  -9 -10  14    1.44    6.51
   9  10 -13   43.33   10.21
  -9 -10  13   50.67   14.71
  -9 -10  12   43.43   17.74
  -9 -10  12   42.53   13.52
  -9 -10  11    2.25    3.69
  -9 -10  11    8.67    5.68
  -9 -10  10   63.17   20.43
  -9 -10  10   53.39   19.33
  -9 -10   9  105.94   17.30
  -9 -10   9   78.63   24.37
  -9 -10   8    5.67    4.10
  -9 -10   8    6.58    3.19
  -9 -10   7   96.64   20.79
  -9 -10   7  107.38   18.24
  -9 -10   6   40.39   16.09
  -9 -10   6   45.92   16.21
  -9 -10   5   12.16    5.98
  -9 -10   5   11.35    5.37
  -9 -10   4   41.90   10.77
  -9 -10   4   47.97    9.31
  -9 -10   3   10.75    3.57
  -9 -10   2    8.64    5.42
  -9 -11  13    2.56    5.38
  -9 -11  12    8.94   10.09
  -9 -11  12    0.73    4.14
  -9 -11  11   12.17    6.59
  -9 -11  11    2.25    4.13
  -9 -11  10    1.40    4.96
  -9 -11  10    8.47    4.61
  -9 -11   9    4.43    4.95
  -9 -11   9   -3.78    6.25
  -9 -11   8   18.03    6.96
  -9 -11   7   18.29    6.79
  -9 -11   7   20.35    7.57
  -9 -11   6    5.50    5.44
  -9 -11   6    7.71    5.44
  -9 -11   5    3.83    3.68
  -9 -11   4    1.56    3.59
 -10  18  -2    1.57    3.46
 -10  18  -3  196.00   27.67
 -10  18  -4   30.24   15.04
 -10  18  -4   48.74   11.06
 -10  17   0    3.91    1.68
 -10  17  -1    0.40    1.68
 -10  17  -2   10.19    5.86
 -10  17  -2    9.48    5.23
 -10  17  -3  165.57   20.70
 -10  17  -3  175.55   18.61
 -10  17  -4    7.75    4.81
 -10  17  -4   11.94    7.25
 -10  17  -5   17.20    7.13
 -10  17  -5   32.59    7.68
  10 -17   6    0.71    4.76
 -10  17  -6    4.90    5.72
  10 -17   7    6.42    5.67
 -10  17  -7    3.11    5.98
 -10  16   1    3.53    2.50
 -10  16   0   35.93   11.83
 -10  16  -1   10.98    3.21
 -10  16  -1   21.67    5.32
 -10  16  -2   11.92    5.48
 -10  16  -2    6.83    2.65
 -10  16  -3   10.88    5.60
 -10  16  -3   15.89    6.49
 -10  16  -4   -3.02    5.61
 -10  16  -4    3.87    4.67
 -10  16  -5    1.84    6.08
 -10  16  -5   11.30    5.81
  10 -16   6   -4.17    6.58
 -10  16  -6    3.43    4.08
  10 -16   7   15.94    4.92
 -10  16  -7   11.84    3.66
  10 -16   8   -2.41    6.82
 -10  16  -8    8.01    4.49
  10 -16   9   13.90    6.65
 -10  16  -9   -0.26    4.04
 -10  15   3    9.94    5.24
 -10  15   2   11.17    4.24
 -10  15   1    9.73    9.92
 -10  15   0    6.81    4.98
 -10  15   0   12.79    5.38
 -10  15  -1   66.44   26.40
 -10  15  -1   87.48    5.66
 -10  15  -2    6.94    3.82
 -10  15  -2   13.98    6.29
 -10  15  -3   69.86   12.74
 -10  15  -3   64.67   17.66
 -10  15  -4   10.50    6.46
 -10  15  -4   -1.44    5.75
 -10  15  -5    1.10    4.24
  10 -15   6    5.84    2.76
 -10  15  -6   -2.30    5.78
  10 -15   7    2.47    3.46
 -10  15  -7   -0.27    6.31
  10 -15   8   13.77    5.41
 -10  15  -8   10.11    3.62
  10 -15   9    1.64    6.04
 -10  15  -9    0.90    7.98
  10 -15  10    2.88    6.13
 -10  15 -10    7.82    3.88
 -10  14   4    9.24    3.92
 -10  14   3   10.72    5.86
 -10  14   2    5.74    3.91
 -10  14   1   72.37   17.82
 -10  14   1   98.44    4.83
 -10  14   0   13.67    5.04
 -10  14   0    5.16    3.48
 -10  14  -1    0.30    4.57
 -10  14  -1    3.40    3.95
 -10  14  -2   69.02   14.29
 -10  14  -2   74.88    6.98
 -10  14  -3    8.19    2.93
 -10  14  -3   19.56    6.80
 -10  14  -4    2.71    7.25
 -10  14  -4    9.98    5.62
 -10  14  -5    2.29    6.89
  10 -14   6    5.89    3.82
 -10  14  -6    2.75    3.66
  10 -14   7    9.82    4.89
 -10  14  -7   15.34    9.99
  10 -14   8   18.85    7.19
 -10  14  -8    9.38   10.60
  10 -14   9   -0.61    7.70
 -10  14  -9  -10.54    7.16
  10 -14  10   -1.21    6.50
 -10  14 -10    4.77    7.40
  10 -14  11   -0.08    7.66
 -10  14 -11   -4.91    7.39
 -10  13   5   53.60    8.24
 -10  13   4   14.08    4.94
 -10  13   3    7.34    4.74
 -10  13   2    2.80    4.84
 -10  13   2    5.04    2.80
 -10  13   1    2.93    3.80
 -10  13   1    8.82    3.35
 -10  13   0    8.34    5.34
 -10  13   0   21.96    3.89
 -10  13  -1  159.56   24.32
 -10  13  -1  173.53    5.83
 -10  13  -2  389.44   25.01
 -10  13  -2  362.07    7.59
 -10  13  -3   94.28   14.95
 -10  13  -3   80.56   23.49
 -10  13  -4   -0.61    6.56
 -10  13  -4    3.44    3.17
 -10  13  -5    8.56    6.02
  10 -13   6    7.03    7.70
 -10  13  -6   14.49    8.71
  10 -13   7    8.73    7.27
 -10  13  -7   10.92    5.87
  10 -13   8   -1.10    6.75
 -10  13  -8   -0.67    7.64
  10 -13   9   15.04    8.19
 -10  13  -9   33.82   11.20
  10 -13  10   -5.95    7.43
 -10  13 -10    2.05    8.00
  10 -13  11   10.28    6.58
 -10  13 -11   29.96   12.60
 -10  12   7   18.64    7.15
 -10  12   6   82.58    6.55
 -10  12   5    7.86    4.14
 -10  12   4  185.63    7.22
 -10  12   3  149.49    9.44
 -10  12   2    6.66    7.79
 -10  12   2    1.01    1.08
 -10  12   1   77.50   23.25
 -10  12   1   99.11    4.98
 -10  12   0    2.46    6.22
 -10  12   0    0.88    2.42
 -10  12  -1  326.29   17.69
 -10  12  -1  334.90    6.51
 -10  12  -2  124.13   26.13
 -10  12  -2  118.86   11.93
 -10  12  -3    6.06    7.01
 -10  12  -3   14.48    6.77
 -10  12  -4    7.37    6.98
 -10  12  -4    6.96    5.91
 -10  12  -5    1.66    3.26
 -10  12  -5   -0.64    6.51
  10 -12   6    9.16    5.65
 -10  12  -6   -0.54    6.75
  10 -12   7   13.33    5.93
 -10  12  -7   12.06   10.51
  10 -12   8    6.92    4.16
 -10  12  -8    7.80    5.50
  10 -12   9    4.98    5.84
 -10  12  -9   -5.74    7.64
 -10  12 -10   26.17   12.07
  10 -12  11    8.55    4.25
 -10  12 -11   12.71    8.31
  10 -12  12    4.66    4.28
 -10  12 -12    9.97    8.25
 -10  11   8    4.69    2.46
 -10  11   7   57.98   15.82
 -10  11   6   -0.48    4.05
 -10  11   5   49.13   11.19
 -10  11   4   13.16    4.55
 -10  11   3  146.61    6.97
 -10  11   3  154.20    4.64
 -10  11   2    5.13    5.15
 -10  11   2    4.81    3.01
 -10  11   1    6.96    3.56
 -10  11   1    7.41    3.94
 -10  11   0   97.71   21.07
 -10  11   0   87.49    4.25
 -10  11  -1  539.42   11.60
 -10  11  -1  528.63    8.81
 -10  11  -2  231.47   27.80
 -10  11  -2  200.23    7.10
 -10  11  -3   59.69   18.16
 -10  11  -3   57.35   14.30
 -10  11  -4   68.49   22.10
 -10  11  -4   49.05   21.96
 -10  11  -5   46.03   12.37
 -10  11  -5   35.29    8.13
 -10  11  -6   17.11    5.05
  10 -11   7   12.65    7.65
 -10  11  -7   20.98    8.85
  10 -11   8   -6.62    7.41
 -10  11  -8    0.35    5.89
  10 -11   9    8.80    5.17
 -10  11  -9    8.54    7.99
  10 -11  10    9.19    5.98
 -10  11 -10   -5.22    8.81
  10 -11  11   21.33   11.00
 -10  11 -11   23.87   10.49
  10 -11  12    5.38    5.67
 -10  11 -12   19.79    8.70
 -10  10   9  104.84   13.73
 -10  10   8   -2.92    3.87
 -10  10   7    1.61    2.40
 -10  10   6   28.71    6.28
 -10  10   5   13.55    5.00
 -10  10   4   88.92    7.35
 -10  10   4   82.44    3.97
 -10  10   3  122.35   19.51
 -10  10   3  104.90    3.24
 -10  10   2   40.42    9.07
 -10  10   2   34.44    6.85
 -10  10   1  542.77   18.59
 -10  10   1  556.79   16.53
 -10  10   0   87.05   22.09
 -10  10   0   86.09    5.60
 -10  10  -1  207.11    8.34
 -10  10  -1  186.63    7.14
 -10  10  -2  510.68   17.73
 -10  10  -2  486.99   15.60
 -10  10  -3   18.65    6.23
 -10  10  -3   31.48    5.87
 -10  10  -4   -0.25    6.15
 -10  10  -4    7.13    6.05
 -10  10  -5   25.83    8.82
 -10  10  -5   33.74    9.98
 -10  10  -6   71.15   20.71
 -10  10  -6   62.29   12.31
 -10  10  -7   -1.41    6.96
  10 -10   8   -0.51    6.38
 -10  10  -8   -1.06    8.06
  10 -10   9   24.71   13.56
 -10  10  -9   33.82    9.64
  10 -10  10    8.07    5.52
 -10  10 -10   19.67   11.95
  10 -10  11   65.76   26.85
 -10  10 -11  110.22   21.47
  10 -10  12    5.97    5.13
 -10  10 -12    6.77    8.52
 -10   9  11   32.16    7.81
 -10   9  10    5.39    3.12
 -10   9   9  131.92   14.31
 -10   9   8  317.19    9.03
 -10   9   7  392.81    9.15
 -10   9   6  200.35    7.61
 -10   9   5    4.89    4.77
 -10   9   4   24.52    7.71
 -10   9   4   -0.66    0.65
 -10   9   3   18.41    8.62
 -10   9   3   17.76    2.73
 -10   9   2  214.04   13.45
 -10   9   2  194.71    9.60
 -10   9   2  222.53   11.48
 -10   9   1  247.46   27.15
 -10   9   1  263.23   13.77
 -10   9   0  124.79   15.52
 -10   9   0  142.60    6.60
 -10   9  -1  303.45   27.01
 -10   9  -1  322.54    8.09
 -10   9  -2  286.14   23.58
 -10   9  -2  287.23   10.96
 -10   9  -3  819.49   32.91
 -10   9  -3  810.38   24.65
 -10   9  -4   -0.59    6.15
 -10   9  -4   -0.03    5.49
 -10   9  -5  137.32   28.41
 -10   9  -5  126.58   15.91
 -10   9  -6  177.09   15.86
 -10   9  -6  170.58   10.58
 -10   9  -7    6.98    6.69
 -10   9  -7   29.44   10.37
 -10   9  -8   12.75    7.81
 -10   9  -9   -2.02    8.60
  10  -9  10    4.68    5.73
 -10   9 -10   -7.42    8.03
  10  -9  11    8.86    5.37
 -10   9 -11   15.71    8.49
  10  -9  12    1.06    4.20
 -10   9 -12   -1.20    7.91
 -10   8  12    0.63    1.27
 -10   8  11   28.59    6.76
 -10   8  10    1.62    2.57
 -10   8   9    0.81    1.75
 -10   8   8  297.53    7.80
 -10   8   7    8.12    3.99
 -10   8   6   83.06    6.55
 -10   8   5   11.44    4.90
 -10   8   4   65.73   13.49
 -10   8   4   50.75    1.68
 -10   8   4   49.71    1.29
 -10   8   3   58.39   10.88
 -10   8   3   47.91    3.95
 -10   8   3   50.36    2.52
 -10   8   2    5.04    4.68
 -10   8   2    0.87    1.55
 -10   8   2    3.32    1.64
 -10   8   1    5.57    6.32
 -10   8   1   12.12    4.03
 -10   8   0   44.35    7.72
 -10   8   0   27.88    7.20
 -10   8  -1  330.17   10.10
 -10   8  -1  320.71   19.30
 -10   8  -2  216.20   18.47
 -10   8  -2  216.03   13.12
 -10   8  -3  323.85   15.52
 -10   8  -3  310.49   16.31
 -10   8  -4   10.95    7.89
 -10   8  -4    5.78    3.53
 -10   8  -5   15.16    4.26
 -10   8  -5   13.37    9.30
 -10   8  -6   32.75    8.93
 -10   8  -6   31.32   10.13
 -10   8  -7   10.72    6.48
 -10   8  -7    3.42    4.65
 -10   8  -8   11.21    9.12
 -10   8  -8    4.76    6.27
 -10   8  -9   10.18    8.82
 -10   8 -10    8.32    5.49
 -10   8 -10   11.40    8.11
 -10   8 -11    3.06    5.59
 -10   8 -11   12.86    8.14
 -10   8 -12    9.40    7.50
 -10   8 -12    4.55    5.84
 -10   7  13   18.23    5.47
 -10   7  12   11.09    5.39
 -10   7  11   -0.02    2.56
 -10   7  10  192.71    8.04
 -10   7   9  230.84    8.55
 -10   7   8    2.94    2.99
 -10   7   7    1.67    5.40
 -10   7   6   62.74    8.97
 -10   7   4    7.46    5.99
 -10   7   4    0.87    0.48
 -10   7   4    1.16    0.66
 -10   7   3   17.58    7.78
 -10   7   3    8.69    4.12
 -10   7   3   14.78    3.90
  10  -7  -2    0.75    0.59
 -10   7   2    2.28    1.96
 -10   7   2   -1.15    5.60
  10  -7  -1   78.01    2.88
 -10   7   1   92.86    3.70
 -10   7   1   94.81    6.93
 -10   7   0  229.20   12.70
 -10   7   0  227.77    8.82
 -10   7  -1   48.10   14.62
 -10   7  -1   56.51   14.64
 -10   7  -2  190.99   12.87
 -10   7  -2  210.53   21.41
 -10   7  -3   25.23    7.51
 -10   7  -3   39.05    7.17
 -10   7  -4   12.43    9.81
 -10   7  -4    5.56    4.47
 -10   7  -5   37.10    8.54
 -10   7  -5   24.39    8.02
 -10   7  -6   77.91   15.58
 -10   7  -6   77.53   22.13
 -10   7  -7   -0.71    4.75
 -10   7  -7    9.30   10.20
 -10   7  -8  108.96   27.54
 -10   7  -8  147.94   18.17
 -10   7  -9   38.80   17.17
 -10   7  -9   45.47   18.39
 -10   7 -10   14.51    7.45
 -10   7 -10    9.54    5.53
 -10   7 -11    1.83    7.35
 -10   7 -11    7.63    6.37
 -10   7 -12    5.67    4.33
 -10   7 -12    3.02    4.63
 -10   6  14    4.04    4.49
 -10   6  13   26.83    6.32
 -10   6  12    6.64    3.03
 -10   6  11   80.09   25.99
 -10   6  10    7.34    5.15
 -10   6   9  150.75   18.82
 -10   6   8   48.99    9.48
 -10   6   7   15.47    6.48
 -10   6   6   19.61    8.41
 -10   6   5    1.71    3.10
 -10   6   4    8.38    3.26
 -10   6   4    1.42    0.75
 -10   6   4    3.28    1.00
  10  -6  -3   77.71    4.08
 -10   6   3   85.70    3.25
 -10   6   3   87.97    8.45
  10  -6  -2    6.30    2.47
 -10   6   2   11.16    3.60
 -10   6   2   -0.79    4.43
  10  -6  -1   32.19    2.60
 -10   6   1   37.23   10.14
 -10   6   1   39.46   10.47
 -10   6   0   -2.56    5.02
 -10   6   0    0.61    3.38
 -10   6  -1   78.92   16.19
 -10   6  -1   82.77    7.77
 -10   6  -2  133.53    9.61
 -10   6  -2  118.34    8.88
 -10   6  -3    3.51    3.92
 -10   6  -3    6.59    3.54
 -10   6  -4  162.73   10.21
 -10   6  -4  149.45    8.51
 -10   6  -5    9.13    7.96
 -10   6  -5    3.47    6.55
 -10   6  -6  107.44   16.80
 -10   6  -6   95.10   21.83
 -10   6  -7   55.97   11.46
 -10   6  -7   52.32   12.77
 -10   6  -8   12.86   12.83
 -10   6  -8    4.93   11.07
 -10   6  -9   68.92   20.93
 -10   6  -9   90.07   21.44
 -10   6 -10    4.37    3.11
 -10   6 -10   -0.40    7.27
 -10   6 -11   12.90    9.24
 -10   6 -11   35.60   11.39
 -10   6 -12   50.28   25.97
 -10   6 -12   86.70   16.14
 -10   5  15    4.53    2.90
 -10   5  14    7.60    4.97
 -10   5  13    6.34    4.80
 -10   5  12   12.42    6.10
 -10   5  11  130.27   17.41
 -10   5  10   -4.73    4.94
 -10   5   9  272.46   20.37
 -10   5   8   53.54   15.28
 -10   5   7    1.35    3.26
 -10   5   6    5.70    4.32
 -10   5   5    2.06    4.97
  10  -5  -4   45.37    3.31
 -10   5   4   50.61    3.10
 -10   5   4   47.92    5.63
  10  -5  -3    0.32    1.45
 -10   5   3    6.14    2.50
 -10   5   3    3.84    4.28
  10  -5  -2    4.05    2.47
 -10   5   2    8.03    2.92
 -10   5   2    9.43    3.27
  10  -5  -1    1.65    1.62
 -10   5   1    2.68    1.81
 -10   5   1    4.73    5.17
 -10   5   0   33.46    8.89
 -10   5   0   31.71    4.92
 -10   5  -1  102.37    6.91
 -10   5  -1   97.28    9.51
 -10   5  -2   20.10    5.88
 -10   5  -2   22.09    7.77
 -10   5  -3  571.24   12.75
 -10   5  -3  565.04   14.50
 -10   5  -4    7.47    6.72
 -10   5  -4   -1.05    6.30
 -10   5  -5  163.43   14.27
 -10   5  -5  170.52   20.50
 -10   5  -6    0.98    6.30
 -10   5  -6    6.60   10.50
 -10   5  -7   78.81   16.55
 -10   5  -7   67.09   27.08
 -10   5  -8   52.09   13.95
 -10   5  -8   51.42   13.15
 -10   5  -9    8.64    3.70
 -10   5  -9   -1.17    8.00
 -10   5 -10   12.78    6.51
 -10   5 -10   18.23    7.15
 -10   5 -11   -1.54    6.66
 -10   5 -11    4.87    7.07
 -10   4  16   -0.41    4.11
 -10   4  15    8.41    3.80
 -10   4  14   16.92    4.85
 -10   4  13   50.22   11.60
 -10   4  12    7.22    3.68
 -10   4  11   60.96   16.93
 -10   4  10  116.02   16.75
 -10   4   9  146.72   22.87
 -10   4   8  102.26   12.64
 -10   4   7    7.38    5.93
 -10   4   6   26.19    7.10
  10  -4  -5    0.64    0.61
 -10   4   5   -0.13    0.42
 -10   4   5    0.52    4.78
  10  -4  -4    1.11    1.86
 -10   4   4    1.27    1.42
 -10   4   4   15.43    6.56
  10  -4  -3   42.48    3.09
 -10   4   3   51.93    6.07
 -10   4   3   60.37    6.84
  10  -4  -2    7.44    2.67
 -10   4   2   11.23    3.43
 -10   4   2   17.45    6.54
 -10   4   1   27.74    7.40
 -10   4   1   24.75    7.90
 -10   4   0  114.80    7.89
 -10   4   0  102.00    6.97
 -10   4  -1   58.03    9.12
 -10   4  -1   52.16   12.45
 -10   4  -2   17.02    7.41
 -10   4  -2   19.03    7.67
 -10   4  -3  303.98   32.97
 -10   4  -3  323.72   15.09
 -10   4  -4    2.64    3.41
 -10   4  -4    8.12    7.59
 -10   4  -5  187.10   13.26
 -10   4  -5  178.45   29.56
 -10   4  -6   12.14    6.77
 -10   4  -6    8.75    7.71
 -10   4  -7   37.14    8.94
 -10   4  -7   22.38    7.31
 -10   4  -8  335.67   17.33
 -10   4  -8  350.57   12.91
 -10   4  -9   16.41    8.47
 -10   4  -9   21.50    8.05
 -10   4 -10    6.59    4.05
 -10   4 -10    1.47    6.98
 -10   4 -11   14.27    7.80
 -10   4 -11   14.59    6.19
 -10   3  17    7.41    3.70
 -10   3  16   11.34    4.94
 -10   3  15    2.77    4.92
 -10   3  14   89.51   10.20
 -10   3  13   26.87    7.49
 -10   3  12   19.56    6.12
 -10   3  11  201.63   10.37
 -10   3  10    6.48    4.97
 -10   3   8   66.03   22.74
 -10   3   7    2.39    2.47
  10  -3  -6   12.27    3.76
 -10   3   6    6.49    1.98
 -10   3   6    4.52    4.53
  10  -3  -5   15.27    5.36
 -10   3   5   15.10    4.43
 -10   3   5   22.97    6.38
  10  -3  -4    2.49    2.79
 -10   3   4    4.57    3.03
 -10   3   4    2.91    4.58
  10  -3  -3  116.61    4.31
 -10   3   3  131.83    4.80
 -10   3   3  119.43    6.68
 -10   3   2   28.35    5.05
 -10   3   2   32.93    6.56
 -10   3   1   10.85    4.89
 -10   3   1   12.13    4.66
 -10   3   0   30.99    6.94
 -10   3   0   41.80    9.31
 -10   3  -1   29.30    4.53
 -10   3  -1   33.58    8.28
 -10   3  -2  107.92   18.61
 -10   3  -2  114.10   23.43
 -10   3  -3   32.92    7.00
 -10   3  -3   25.84    7.51
 -10   3  -4   68.03   10.91
 -10   3  -4   42.39   12.60
 -10   3  -5   -2.58    5.79
 -10   3  -5    7.34    6.61
 -10   3  -6  195.93   21.65
 -10   3  -6  229.47   21.88
 -10   3  -7   -1.68    5.98
 -10   3  -7    2.77    7.10
 -10   3  -8    1.05    2.79
 -10   3  -8    8.89    5.21
 -10   3  -9    0.76    3.16
 -10   3  -9    5.91    3.26
 -10   3 -10    6.90    4.28
 -10   3 -10   21.18    6.60
 -10   3 -11    9.79    5.08
 -10   3 -11    8.82    6.30
 -10   2  18   29.54   12.45
 -10   2  17    2.37    4.03
 -10   2  16   29.99   10.37
 -10   2  15   96.77   17.39
 -10   2  14    6.74    5.54
 -10   2  13   16.03    5.97
 -10   2  12   99.43   11.70
 -10   2  11   -0.76    5.63
 -10   2  10  357.06   18.45
  10  -2  -9  527.54    3.28
 -10   2   9  552.76   24.19
  10  -2  -8    6.58    1.84
  10  -2  -8    7.74    1.80
 -10   2   8    6.64    4.39
  10  -2  -7   52.83    3.82
 -10   2   7   57.53    3.35
 -10   2   7   59.75   15.92
  10  -2  -6   66.82    3.39
 -10   2   6   71.68    3.45
 -10   2   6   69.62   21.11
  10  -2  -5    6.27    3.30
 -10   2   5    2.14    1.30
 -10   2   5    3.41    4.86
  10  -2  -4   65.43    2.92
 -10   2   4   65.29    5.14
 -10   2   4   74.35    7.76
 -10   2   3    2.16    5.06
 -10   2   3    3.45    1.58
 -10   2   2  147.75    8.05
 -10   2   2  153.03    6.48
 -10   2   1  124.26    8.14
 -10   2   1  110.08    6.49
 -10   2   0   22.92    4.95
 -10   2   0   23.44    7.13
 -10   2  -1   97.03   16.78
 -10   2  -1   95.75    8.23
 -10   2  -2  108.73   15.49
 -10   2  -2  124.44   10.43
 -10   2  -3  329.89   15.07
 -10   2  -3  304.79   16.77
 -10   2  -4  204.08   20.46
 -10   2  -4  201.41   12.44
 -10   2  -5   24.74    8.59
 -10   2  -5    4.68    5.39
 -10   2  -6  273.84   11.53
 -10   2  -6  250.78   23.67
 -10   2  -7    1.69    6.34
 -10   2  -7   14.05    7.29
 -10   2  -8   -1.60    5.34
 -10   2  -8    3.12    4.69
 -10   2  -9    0.12    5.95
 -10   2  -9   -2.98    7.04
 -10   2 -10   -1.92    4.76
 -10   2 -10    7.46    5.24
 -10   1  18    4.87    5.58
 -10   1  17    3.84    1.89
 -10   1  16    1.46    4.70
 -10   1  15   21.26    7.32
 -10   1  14  180.13   14.19
 -10   1  13  291.33   16.12
 -10   1  12  263.12   14.70
  10  -1 -11  385.20    5.99
 -10   1  11  388.77   17.74
  10  -1 -10   57.96    7.08
 -10   1  10   55.24   14.89
  10  -1  -9  650.66    5.19
  10  -1  -9  619.32    5.42
 -10   1   9  711.93   26.79
  10  -1  -8   62.01    2.98
 -10   1   8   53.72    7.76
 -10   1   8   74.14   18.07
  10  -1  -7  227.46    6.51
 -10   1   7  240.32    6.44
 -10   1   7  255.99    9.95
  10  -1  -6    3.90    1.89
 -10   1   6    5.31    2.33
 -10   1   6    9.69    7.43
  10  -1  -5    6.46    2.86
 -10   1   5    8.39    4.46
 -10   1   5   -0.02    5.50
 -10   1   4  140.61    9.42
 -10   1   4  117.51    9.38
 -10   1   3  159.27    7.53
 -10   1   3  150.75    5.42
 -10   1   2   -0.20    4.82
 -10   1   2    4.94    5.14
 -10   1   1   12.48    5.10
 -10   1   1   18.46    6.38
 -10   1   0  355.21   12.40
 -10   1   0  343.05   13.97
 -10   1  -1   19.90    6.19
 -10   1  -1   20.15    7.82
 -10   1  -2    7.44    5.77
 -10   1  -2    6.70    2.44
 -10   1  -3  134.50   18.15
 -10   1  -3  132.15   10.35
 -10   1  -4    7.49    4.28
 -10   1  -4    0.35    3.60
 -10   1  -5   88.50    7.41
 -10   1  -5   55.88   22.32
 -10   1  -6   77.35   23.48
 -10   1  -6   67.64   29.13
 -10   1  -7   -1.88    5.29
 -10   1  -7   -2.52    6.49
 -10   1  -8   21.98   10.39
 -10   1  -8   36.36   20.19
 -10   1  -9   17.84   10.77
 -10   0  18   39.91    8.94
 -10   0  17   68.58   14.90
 -10   0  16   40.73   15.88
 -10   0  15   41.35   13.21
 -10   0  14   99.32   16.90
 -10   0  13   86.65   24.13
  10   0 -12  146.62    7.51
 -10   0  12  139.28   32.48
  10   0 -11  156.83    4.00
 -10   0  11  167.47    8.36
  10   0 -10 1306.90   36.27
 -10   0  10 1284.60   39.24
  10   0  -9    1.62    1.96
  10   0  -9    5.12    1.80
 -10   0   9    9.88    6.08
  10   0  -8  942.51    7.34
 -10   0   8  976.11   10.47
  10   0  -7   71.04    5.36
 -10   0   7   80.44    5.65
 -10   0   7   79.84    7.44
 -10   0   6   35.52    5.11
 -10   0   6   41.54    8.24
 -10   0   5  354.97   25.74
 -10   0   5  320.55    8.55
 -10   0   4   83.71    7.31
 -10   0   4   70.48   12.18
 -10   0   3  127.57    9.12
 -10   0   3  104.42   15.21
 -10   0   2   35.30    7.02
 -10   0   2   26.94   10.75
 -10   0   1  172.84   12.70
 -10   0   1  154.89   10.27
 -10   0   0  102.17    9.76
 -10   0   0   97.57    8.94
 -10   0  -1    0.85    3.29
 -10   0  -1    1.66    5.34
 -10   0  -2    4.18    5.67
 -10   0  -2    7.54    6.51
 -10   0  -3   29.17    8.34
 -10   0  -3   30.07    8.75
 -10   0  -4   10.85    6.57
 -10   0  -4    4.72    7.90
 -10   0  -5    2.03    5.48
 -10   0  -5    3.55    4.81
 -10   0  -6    7.05    4.88
 -10   0  -6   19.08    8.36
 -10   0  -7    0.37    3.68
 -10   0  -7    7.55    5.59
 -10   0  -8    6.31    4.78
 -10   0  -8    8.81    4.33
 -10   0  -9    1.00    6.19
 -10  -1  18  126.53   18.83
 -10  -1  17   -0.95    2.31
 -10  -1  16    8.46    5.47
 -10  -1  15   -0.79    6.81
 -10  -1  14   69.14   16.38
  10   1 -13    4.17    3.39
 -10  -1  13    7.09    5.94
  10   1 -12   40.00    5.79
 -10  -1  12   58.77   16.31
  10   1 -11   15.69    4.92
 -10  -1  11   18.71    3.60
  10   1 -10   23.09    4.81
 -10  -1  10   31.72    8.29
 -10  -1   9  597.27   20.98
 -10  -1   9  534.70   15.82
 -10  -1   8   37.08   10.36
 -10  -1   8   28.87    9.12
 -10  -1   7  132.14   15.06
 -10  -1   7  112.15    5.07
 -10  -1   6  113.32    9.43
 -10  -1   6  106.78    4.46
 -10  -1   5   19.45   10.48
 -10  -1   5   18.56    6.21
 -10  -1   4    7.56    4.05
 -10  -1   4   11.83    4.49
 -10  -1   3    3.95    5.44
 -10  -1   3   10.53    6.39
 -10  -1   2   16.29    7.97
 -10  -1   2    2.30    2.60
 -10  -1   1   -4.08    5.53
 -10  -1   1    0.59    2.90
 -10  -1   0   78.42   10.63
 -10  -1   0   89.16    8.51
 -10  -1  -1   47.98   11.65
 -10  -1  -1   41.06    9.22
 -10  -1  -2  155.09    9.81
 -10  -1  -2  144.70   10.44
 -10  -1  -3    7.44    4.53
 -10  -1  -3   25.32   10.86
 -10  -1  -4   26.05   10.11
 -10  -1  -4   29.29    9.56
 -10  -1  -5    4.23    5.47
 -10  -1  -5   -0.31    6.60
 -10  -1  -6   44.49    8.98
 -10  -1  -6   25.24    6.74
 -10  -1  -7    6.27    3.68
 -10  -1  -7   -1.15    6.25
 -10  -1  -8   -5.64    5.81
 -10  -2  18    3.87    3.19
 -10  -2  17   14.17    6.93
 -10  -2  16   29.18   13.58
 -10  -2  15    5.73    6.16
  10   2 -14  106.78    5.04
 -10  -2  14   94.91   24.31
  10   2 -13   -1.21    2.56
 -10  -2  13   -0.38    5.77
  10   2 -12    6.34    3.53
 -10  -2  12    5.89    5.77
  10   2 -11    3.73    2.58
 -10  -2  11   -2.16    5.51
 -10  -2  10    4.83    5.40
 -10  -2  10    1.40    2.03
 -10  -2   9  379.91   14.85
 -10  -2   9  376.92   16.25
 -10  -2   8   11.21    7.37
 -10  -2   8   21.09    5.09
 -10  -2   7  198.30   11.20
 -10  -2   7  182.02   10.20
 -10  -2   6   32.48    9.06
 -10  -2   6   29.68    8.25
 -10  -2   5  655.18   18.03
 -10  -2   5  670.87   13.60
 -10  -2   4   99.67   22.90
 -10  -2   4   98.52   10.32
 -10  -2   3  141.74   26.52
 -10  -2   3  150.63   20.41
 -10  -2   2  484.78   17.75
 -10  -2   2  459.37   16.59
 -10  -2   1    1.84    5.23
 -10  -2   1   -2.20    5.04
 -10  -2   0   55.26    8.69
 -10  -2   0   16.09    7.29
 -10  -2  -1    8.87    7.80
 -10  -2  -1    3.77    4.59
 -10  -2  -2   15.21    5.82
 -10  -2  -2    7.37    6.81
 -10  -2  -3   78.21    6.88
 -10  -2  -3   78.46    8.66
 -10  -2  -4    0.08    4.60
 -10  -2  -4    1.71    6.56
 -10  -2  -5   -4.17    3.82
 -10  -2  -5    3.32    6.65
 -10  -2  -6    0.09    2.81
 -10  -2  -6   -6.24    6.36
 -10  -2  -7    3.75    5.90
 -10  -3  18   -0.72    6.02
 -10  -3  17    5.98    6.08
 -10  -3  16   -1.52    5.80
  10   3 -15   16.76    4.12
 -10  -3  15   27.54    9.00
  10   3 -14    1.69    3.07
 -10  -3  14    4.35    1.56
  10   3 -13   34.91    5.75
 -10  -3  13   42.41    7.79
  10   3 -12    2.36    3.19
 -10  -3  12   11.29    6.76
  10   3 -11   43.46    8.64
 -10  -3  11   33.92   10.42
 -10  -3  10   87.69   15.70
 -10  -3  10   73.04   18.15
 -10  -3   9   58.24    7.05
 -10  -3   9   46.63   13.76
 -10  -3   8   13.27    6.40
 -10  -3   8   15.35    6.20
 -10  -3   7    9.34    5.00
 -10  -3   7    5.03    3.08
 -10  -3   6  221.55   24.59
 -10  -3   6  228.00   13.60
 -10  -3   5   96.33    9.48
 -10  -3   5   98.59   14.12
 -10  -3   4   17.60    6.95
 -10  -3   4   18.24    6.05
 -10  -3   3   40.88   12.52
 -10  -3   3   40.80    9.83
 -10  -3   2  131.78   25.80
 -10  -3   2  118.11   30.18
 -10  -3   1  138.27   15.60
 -10  -3   1  146.42   12.10
 -10  -3   0   16.88    7.71
 -10  -3   0    1.86    3.11
 -10  -3  -1  197.15   10.73
 -10  -3  -1  203.17   11.32
 -10  -3  -2    5.97    1.93
 -10  -3  -2    4.39    4.96
 -10  -3  -3  227.38    9.99
 -10  -3  -3  244.43   12.22
 -10  -3  -4   26.92    7.25
 -10  -3  -5   31.18    9.34
 -10  -3  -6    8.96    6.32
 -10  -4  18    2.82    4.16
 -10  -4  17    6.77    3.14
 -10  -4  16    1.58    5.85
  10   4 -15   10.46    4.58
 -10  -4  15   13.73    7.61
  10   4 -14   41.38    4.99
 -10  -4  14   40.60    8.08
  10   4 -13   -2.06    3.65
 -10  -4  13   -5.16    6.48
  10   4 -12    6.98    3.21
 -10  -4  12    4.76    3.18
 -10  -4  11   15.64    6.71
 -10  -4  11   12.76    5.33
 -10  -4  10  215.39    8.40
 -10  -4  10  224.36    7.14
 -10  -4   9  180.18    8.41
 -10  -4   9  176.91   12.43
 -10  -4   8  112.29    8.19
 -10  -4   8  117.04    6.90
 -10  -4   7  101.09   28.21
 -10  -4   7  109.75   13.01
 -10  -4   6   14.93    7.99
 -10  -4   6   24.45    8.89
 -10  -4   5   -6.89    5.54
 -10  -4   5    1.69    3.61
 -10  -4   4   37.65   11.21
 -10  -4   4   37.94   12.48
 -10  -4   3   39.27    8.95
 -10  -4   3   39.56   11.29
 -10  -4   2   77.42   19.43
 -10  -4   2   84.86   23.66
 -10  -4   1    5.18    2.40
 -10  -4   1    7.27    3.90
 -10  -4   0   -1.07    2.67
 -10  -4   0    0.90    3.11
 -10  -4  -1    3.83    2.89
 -10  -4  -1    6.23    4.33
 -10  -4  -2   24.59    8.32
 -10  -4  -2   31.48   10.55
 -10  -4  -3  198.59   12.70
 -10  -4  -3  221.48   14.36
 -10  -4  -4    6.85    3.68
 -10  -4  -5   -3.35    6.03
 -10  -4  -6   15.40    5.73
 -10  -5  18    8.96    8.35
 -10  -5  17    1.65    5.54
  10   5 -16    1.92    1.75
 -10  -5  16   -0.15    5.94
  10   5 -15    0.98    3.59
 -10  -5  15    8.24    5.25
  10   5 -14    5.31    4.81
 -10  -5  14    4.61    7.05
  10   5 -13   33.00    4.86
 -10  -5  13   26.86   10.12
  10   5 -12   15.91    5.25
 -10  -5  12    9.97    4.09
 -10  -5  11   15.19    3.65
 -10  -5  11   14.04    4.98
 -10  -5  10   96.40   22.96
 -10  -5  10   94.21   15.82
 -10  -5   9   36.88    9.02
 -10  -5   9   40.65   11.38
 -10  -5   8   54.79   11.23
 -10  -5   8   51.63   14.57
 -10  -5   7  119.31   17.85
 -10  -5   7  103.31   12.55
 -10  -5   6    9.01    5.91
 -10  -5   6    8.30    6.69
 -10  -5   5  112.09    8.20
 -10  -5   5  100.77   24.98
 -10  -5   4   42.23   11.83
 -10  -5   4   49.61    9.23
 -10  -5   3   62.43   20.84
 -10  -5   3   69.01   21.41
 -10  -5   2  114.72   14.55
 -10  -5   2  108.88    9.51
 -10  -5   1   73.26   18.50
 -10  -5   1   75.91   19.50
 -10  -5   0   -0.21    3.24
 -10  -5   0    3.01    2.91
 -10  -5  -1    9.44    5.46
 -10  -5  -1   11.45    6.65
 -10  -5  -2    6.35    4.59
 -10  -5  -2    3.88    5.08
 -10  -5  -3    8.11    6.22
 -10  -5  -4   34.82   11.79
 -10  -6  17   16.57    8.79
  10   6 -16    0.12    3.63
 -10  -6  16    0.82    4.39
  10   6 -15   11.18    3.96
 -10  -6  15   10.84    7.08
  10   6 -14   27.37    6.13
 -10  -6  14   25.78    7.86
  10   6 -13   -0.29    3.53
 -10  -6  13   -0.28    5.70
 -10  -6  12    6.76    4.56
 -10  -6  11    5.04    4.66
 -10  -6  11    0.58    2.28
 -10  -6  10   66.64   20.09
 -10  -6  10   56.12   16.45
 -10  -6   9   10.32    5.42
 -10  -6   9    6.70    5.03
 -10  -6   8   -5.09    5.48
 -10  -6   8    4.12    4.74
 -10  -6   7   19.82    4.87
 -10  -6   7   21.26    9.06
 -10  -6   6  180.76   17.98
 -10  -6   6  165.15   17.06
 -10  -6   5   30.49    9.18
 -10  -6   5   24.34    6.94
 -10  -6   4    1.47    2.35
 -10  -6   4    3.20    3.10
 -10  -6   3   62.06   23.14
 -10  -6   3   69.43   14.03
 -10  -6   2   12.65    7.26
 -10  -6   2   12.42    7.03
 -10  -6   1    4.79    3.02
 -10  -6   1    4.09    6.57
 -10  -6   0   28.78   11.93
 -10  -6  -1   -0.10    6.14
 -10  -6  -2   16.90   11.84
 -10  -6  -3   62.22   30.31
 -10  -7  17   20.94   10.01
  10   7 -16    9.08    5.12
 -10  -7  16    2.30    4.45
  10   7 -15   36.53   13.97
 -10  -7  15   50.21   17.34
  10   7 -14   14.90    6.02
 -10  -7  14    6.25    4.31
  10   7 -13   25.78    9.66
 -10  -7  13   27.26    8.75
 -10  -7  12    6.07    4.53
 -10  -7  12    3.31    3.37
 -10  -7  11   18.34    8.09
 -10  -7  11   15.37    6.72
 -10  -7  10   39.02    8.57
 -10  -7  10   44.08   13.48
 -10  -7   9   39.74    7.05
 -10  -7   9   37.48   12.59
 -10  -7   8  129.51   10.84
 -10  -7   8  121.58   12.40
 -10  -7   7    9.10    6.19
 -10  -7   7    1.96    3.96
 -10  -7   6  202.55   16.92
 -10  -7   6  185.06   15.96
 -10  -7   5  232.47   23.24
 -10  -7   5  242.13   19.41
 -10  -7   4    9.40    5.76
 -10  -7   4   11.11    5.30
 -10  -7   3   27.02   10.59
 -10  -7   3   45.18   10.27
 -10  -7   2    1.75    3.91
 -10  -7   2    1.60    4.36
 -10  -7   1    7.48    4.78
 -10  -7   1    0.35    5.07
 -10  -7   0    5.47    5.32
 -10  -7  -1    0.24    4.18
 -10  -7  -2   10.08    3.37
  10   8 -16    8.19    3.94
 -10  -8  16   10.60    6.08
  10   8 -15   14.09    4.09
 -10  -8  15    7.74    6.44
  10   8 -14    9.87    6.17
 -10  -8  14   12.94    7.76
  10   8 -13   32.45    6.48
 -10  -8  13   38.42   11.24
 -10  -8  12   11.67    5.17
 -10  -8  12   11.85    4.91
 -10  -8  11   -1.74    5.30
 -10  -8  11    2.65    3.21
 -10  -8  10    6.66    2.97
 -10  -8  10    4.43    5.14
 -10  -8   9   -0.69    5.82
 -10  -8   9   -1.05    5.84
 -10  -8   8   49.10   14.47
 -10  -8   8   37.50   12.91
 -10  -8   7   59.08    7.12
 -10  -8   7   49.41   19.80
 -10  -8   6   30.64   11.55
 -10  -8   6   36.59   12.20
 -10  -8   5   51.80   13.32
 -10  -8   5   45.29   17.55
 -10  -8   4    7.24    2.65
 -10  -8   4    2.97    5.35
 -10  -8   3    4.20    2.70
 -10  -8   3    4.69    4.92
 -10  -8   2    6.72    3.48
 -10  -8   2   32.60    7.05
 -10  -8   1   -2.55    6.00
 -10  -8   0   16.90    8.45
  10   9 -15   -2.82    3.85
  10   9 -14    7.69    6.30
 -10  -9  14    6.09    5.15
 -10  -9  13    4.98    3.02
 -10  -9  12   98.26   13.85
 -10  -9  12   55.10   19.24
 -10  -9  11   34.94    9.38
 -10  -9  11   22.92    9.85
 -10  -9  10    5.35    3.90
 -10  -9  10    3.01    5.11
 -10  -9   9    3.36    3.98
 -10  -9   9   -4.29    6.25
 -10  -9   8   10.27    6.72
 -10  -9   8   14.34    8.20
 -10  -9   7   -0.06    2.84
 -10  -9   7   -2.67    6.14
 -10  -9   6    3.97    5.66
 -10  -9   6    4.34    4.92
 -10  -9   5   -2.50    4.17
 -10  -9   5   -1.19    6.22
 -10  -9   4   30.47   12.84
 -10  -9   4   26.90   15.53
 -10  -9   3   10.88    5.54
 -10  -9   2    3.02    5.00
 -10 -10  13   10.06    5.92
 -10 -10  12   38.01   13.46
 -10 -10  12   28.00   12.50
 -10 -10  11   -0.92    5.71
 -10 -10  11   -2.70    5.13
 -10 -10  10   19.34    8.99
 -10 -10  10    8.59    5.37
 -10 -10   9   31.63    7.55
 -10 -10   9   10.81    5.23
 -10 -10   8    6.03    4.99
 -10 -10   8    3.47    4.78
 -10 -10   7    7.51    5.18
 -10 -10   7    1.14    4.29
 -10 -10   6   16.09    5.50
 -10 -10   6   14.41    8.62
 -10 -10   5    3.88    2.56
 -10 -10   5    5.71    4.18
 -10 -10   4    6.26    5.50
 -11  17   0    3.32    3.30
 -11  17  -1    3.87    2.12
 -11  17  -2    2.07    3.11
 -11  17  -3   14.15    6.96
 -11  17  -4    5.95    3.42
 -11  17  -4    1.02    2.94
 -11  17  -5    9.04    4.44
 -11  17  -5   -0.48    2.66
 -11  17  -6   11.89    5.52
 -11  17  -6    9.47    6.11
 -11  16   2    7.99    4.96
 -11  16   1   -0.34    3.78
 -11  16   0    4.05    3.68
 -11  16  -1    6.54    4.05
 -11  16  -2    9.54    2.76
 -11  16  -2   -1.93    4.23
 -11  16  -3   44.97   17.49
 -11  16  -3   44.78   19.67
 -11  16  -4    3.69    4.53
 -11  16  -4    2.96    2.82
 -11  16  -5    3.87    2.69
 -11  16  -5    6.35    4.51
 -11  16  -6   -0.92    7.12
 -11  16  -6   -8.76    5.46
 -11  16  -7   -1.30    7.25
 -11  16  -7    3.10    5.97
  11 -16   8   -0.44    3.89
 -11  16  -8    4.35    2.64
 -11  15   3    2.13    2.85
 -11  15   2    7.28    4.91
 -11  15   1   36.87   16.32
 -11  15   0    8.57    3.75
 -11  15  -1   42.06   19.65
 -11  15  -1   46.66   12.31
 -11  15  -2    1.46    5.25
 -11  15  -2    6.25    6.21
 -11  15  -3   51.88   19.40
 -11  15  -3   60.26   17.58
 -11  15  -4    7.76    4.63
 -11  15  -4   -0.49    5.19
 -11  15  -5   10.19    5.50
 -11  15  -5    6.13    5.92
 -11  15  -6  -10.76    7.21
 -11  15  -6    1.29    3.20
 -11  15  -7   -0.12    5.76
  11 -15   8    7.75    4.74
 -11  15  -8    8.93    7.43
  11 -15   9   -4.11    7.04
 -11  15  -9    8.30    5.65
 -11  14   4    5.26    4.15
 -11  14   3    7.90    6.44
 -11  14   2   24.01   11.33
 -11  14   1   22.94    6.08
 -11  14   0   52.93   23.74
 -11  14  -1   52.34   17.83
 -11  14  -1   63.36   11.26
 -11  14  -2    7.56    3.55
 -11  14  -2    2.69    3.41
 -11  14  -3  102.23   34.34
 -11  14  -3  108.41    6.33
 -11  14  -4   53.13   21.38
 -11  14  -4   69.50    8.84
 -11  14  -5    3.75    4.68
 -11  14  -5    3.10    4.71
 -11  14  -6    5.61    5.01
 -11  14  -6    4.22    4.83
 -11  14  -7    9.07    6.69
 -11  14  -7    3.28    3.70
 -11  14  -8   15.49    8.89
  11 -14   9   10.31    6.48
 -11  14  -9   10.89    8.87
  11 -14  10    7.55    4.06
 -11  14 -10    6.71    6.55
 -11  13   6    8.18    4.59
 -11  13   5   22.22   13.46
 -11  13   4    1.88    4.44
 -11  13   3   12.73    6.25
 -11  13   1   39.89    8.02
 -11  13   0    0.82    2.90
 -11  13   0    3.12    3.04
 -11  13  -1    2.17    6.80
 -11  13  -1   -1.24    3.55
 -11  13  -2   94.23   20.60
 -11  13  -2  101.09    8.84
 -11  13  -3  146.62   23.86
 -11  13  -3  120.62   16.04
 -11  13  -4    7.26    3.54
 -11  13  -4    2.63    3.83
 -11  13  -5   15.32    4.94
 -11  13  -5   23.00    8.38
 -11  13  -6   10.63    7.39
 -11  13  -6   10.04    9.44
 -11  13  -7   21.78    7.11
 -11  13  -7   11.86    6.33
 -11  13  -8   34.23   10.52
  11 -13   9    8.69    6.81
 -11  13  -9    0.67    6.54
  11 -13  10    6.58    4.86
 -11  13 -10   -9.68    7.04
 -11  12   7   52.09   12.28
 -11  12   6   56.86    6.87
 -11  12   5   10.24    5.25
 -11  12   4  170.48   15.10
 -11  12   3    6.90    8.15
 -11  12   2   18.40    6.60
 -11  12   1  329.61   24.72
 -11  12   1  327.86    5.75
 -11  12   0   33.21   10.47
 -11  12   0   26.20    7.85
 -11  12  -1   -1.06    6.59
 -11  12  -1   -0.52    3.61
 -11  12  -2   -1.40    6.78
 -11  12  -2   -0.64    4.27
 -11  12  -3  114.17   20.32
 -11  12  -3  131.40    9.06
 -11  12  -4    3.11    3.18
 -11  12  -4   -0.14    5.40
 -11  12  -5   42.39   14.75
 -11  12  -5   72.49    8.05
 -11  12  -6    1.27    3.20
 -11  12  -6   -3.34    7.06
 -11  12  -7   15.88    6.27
 -11  12  -7   14.49    9.37
 -11  12  -8    5.62    6.22
 -11  12  -8   21.57   10.49
 -11  12  -9   13.00    7.63
 -11  12 -10   23.25   11.47
 -11  11   9    6.05    3.34
 -11  11   8   31.10   16.78
 -11  11   7   26.06    5.81
 -11  11   6    3.09    2.16
 -11  11   5   67.95   14.95
 -11  11   4    9.47    5.42
 -11  11   3  165.87   10.40
 -11  11   2   71.89   26.80
 -11  11   2   76.97    6.39
 -11  11   1  245.09   10.88
 -11  11   1  241.03    5.52
 -11  11   0   59.84   20.68
 -11  11   0   52.84    7.59
 -11  11  -1    3.75    4.33
 -11  11  -1    0.37    2.16
 -11  11  -2   -0.15    6.75
 -11  11  -2    3.98    4.80
 -11  11  -3  179.22   11.06
 -11  11  -3  189.78   10.23
 -11  11  -4   12.32    5.27
 -11  11  -4   22.73    8.39
 -11  11  -5   24.37    6.80
 -11  11  -5   17.91    6.48
 -11  11  -6   12.61    6.99
 -11  11  -6   18.44   10.52
 -11  11  -7    6.68    3.90
 -11  11  -7   -3.11    7.38
 -11  11  -8   11.43   10.92
 -11  11  -8   -0.82    4.42
 -11  11  -9   29.91   10.47
 -11  11  -9   29.81   11.65
 -11  11 -10   17.49    7.49
 -11  11 -10    0.03    8.13
 -11  11 -11    2.34    4.44
 -11  11 -11    3.44    3.65
 -11  10  10   10.22    5.35
 -11  10   9   19.20    5.82
 -11  10   8   -3.07    4.20
 -11  10   7    4.06    4.57
 -11  10   6    3.04    5.27
 -11  10   5   -0.28    5.41
 -11  10   4   13.62    5.89
 -11  10   3    0.22    5.99
 -11  10   3    1.01    0.71
 -11  10   2    8.21    4.29
 -11  10   2    0.35    1.03
 -11  10   1    3.32    5.77
 -11  10   1    2.29    2.32
 -11  10   0   11.52    7.10
 -11  10   0   13.72    4.44
 -11  10  -1  757.36   13.83
 -11  10  -1  737.98   13.65
 -11  10  -2  171.10   16.82
 -11  10  -2  175.05    7.91
 -11  10  -3   16.28    5.39
 -11  10  -3   14.93    5.27
 -11  10  -4   64.13   14.88
 -11  10  -4   44.73   13.42
 -11  10  -5   -9.01    8.33
 -11  10  -5   -2.31    6.16
 -11  10  -6    5.59    3.15
 -11  10  -6   -3.66    7.07
 -11  10  -7   27.90   10.16
 -11  10  -7    8.72    5.83
 -11  10  -8   -3.74    7.75
 -11  10  -8   17.62   10.72
 -11  10  -9    7.57    7.71
 -11  10  -9   -4.93    8.09
 -11  10 -10    8.42    8.53
 -11  10 -10   30.30   10.19
 -11  10 -11    8.62    7.31
 -11  10 -11   13.34   11.18
 -11   9  10    1.74    2.54
 -11   9   8    4.64    4.73
 -11   9   7   -1.96    5.27
 -11   9   6    1.49    5.68
 -11   9   5   56.71   21.68
 -11   9   4   41.16   11.03
 -11   9   3   55.97   12.90
 -11   9   3   54.97    4.81
 -11   9   2  245.25   13.13
 -11   9   2  234.25    4.40
 -11   9   1  133.49    8.69
 -11   9   1  120.83    5.05
 -11   9   0  217.26   14.60
 -11   9   0  240.58    7.70
 -11   9  -1  574.93   11.68
 -11   9  -1  551.60   10.25
 -11   9  -2   30.15    6.44
 -11   9  -2   26.34    8.02
 -11   9  -3  350.76   22.34
 -11   9  -3  378.15   10.52
 -11   9  -4   -3.93    7.81
 -11   9  -4   12.20    9.10
 -11   9  -5   20.63    6.75
 -11   9  -5   15.78    6.61
 -11   9  -6   -1.83    7.09
 -11   9  -6    6.95    6.82
 -11   9  -7   71.18   28.17
 -11   9  -7   84.95   16.96
 -11   9  -8    8.00    5.64
 -11   9  -8    2.72    4.79
 -11   9  -9   -1.07    7.56
 -11   9  -9    7.16    9.36
 -11   9 -10    7.69    5.80
 -11   9 -10   27.95    8.47
 -11   9 -11   12.04   10.03
 -11   9 -11   -0.04    5.25
 -11   8  12    0.56    2.20
 -11   8  11    1.07    2.90
 -11   8  10   41.18   14.59
 -11   8   9   -0.07    2.89
 -11   8   8   18.63    8.13
 -11   8   7   -6.27    5.40
 -11   8   6   42.43    9.28
 -11   8   5   -1.70    5.55
 -11   8   4    5.77    4.71
 -11   8   4    3.68    1.04
 -11   8   3   43.52    8.94
 -11   8   3   34.35    4.67
 -11   8   2  221.79    9.09
 -11   8   2  208.24    7.14
 -11   8   1   89.73   19.30
 -11   8   1  100.58    6.19
 -11   8   0  176.77    9.41
 -11   8   0  167.09    6.96
 -11   8  -1   62.02   17.58
 -11   8  -1   62.16    6.69
 -11   8  -2  351.85   10.18
 -11   8  -2  345.35    9.15
 -11   8  -3   57.56   12.83
 -11   8  -3   42.29   13.01
 -11   8  -4  306.84   11.03
 -11   8  -4  299.53   12.50
 -11   8  -5  118.83   12.70
 -11   8  -5   83.37   24.96
 -11   8  -6  148.77   25.70
 -11   8  -6  144.22   10.13
 -11   8  -7   22.91   10.65
 -11   8  -7   14.25    8.06
 -11   8  -8   22.75    6.54
 -11   8  -8   25.74   10.36
 -11   8  -9   -3.46    7.16
 -11   8  -9    6.04    4.68
 -11   8 -10   21.46   11.57
 -11   8 -10   15.13    4.96
 -11   8 -11    5.79    3.26
 -11   8 -11    1.84    4.11
 -11   7  14    4.34    4.45
 -11   7  13    1.69    3.77
 -11   7  12    8.63    4.71
 -11   7  11   60.29   22.65
 -11   7  10  150.32   18.82
 -11   7   9    0.30    3.20
 -11   7   8   12.36    5.29
 -11   7   7   -3.90    5.64
 -11   7   6   10.43    6.19
 -11   7   5    1.63    6.17
 -11   7   4   93.41   11.54
 -11   7   4   62.67    1.61
 -11   7   3   10.51    9.81
 -11   7   3    3.45    1.72
  11  -7  -2  108.76    2.78
 -11   7   2  135.90    8.26
 -11   7   1  196.85   16.73
 -11   7   1  191.49   11.13
 -11   7   0   89.52   11.07
 -11   7   0   81.28    6.73
 -11   7  -1    8.16    5.27
 -11   7  -1   20.17    7.46
 -11   7  -2  139.01   10.68
 -11   7  -2  136.53    8.62
 -11   7  -3   65.17   15.45
 -11   7  -3   77.23    8.63
 -11   7  -4  142.39   30.06
 -11   7  -4  178.34   12.85
 -11   7  -5   -6.66    7.07
 -11   7  -5   -0.12    6.77
 -11   7  -6   11.08    9.02
 -11   7  -6    7.50    5.73
 -11   7  -7   -0.11    7.75
 -11   7  -7    5.22    6.57
 -11   7  -8   18.46    6.55
 -11   7  -8   24.22   10.14
 -11   7  -9   -0.11    7.43
 -11   7  -9   10.85    6.62
 -11   7 -10    6.40    5.90
 -11   7 -10   38.63   11.61
 -11   7 -11   -1.97    7.16
 -11   7 -11   12.35    8.18
 -11   6  15   28.05   15.27
 -11   6  14   14.37    5.16
 -11   6  13    0.29    2.61
 -11   6  12   -0.15    4.51
 -11   6  11   69.20   19.86
 -11   6  10   11.73    4.82
 -11   6   9    7.14    5.07
 -11   6   8  170.01   27.27
 -11   6   7   11.24    8.50
 -11   6   6   10.59    6.44
 -11   6   5   28.73    9.72
 -11   6   4   70.00   20.70
 -11   6   4   60.06    2.95
  11  -6  -3    9.93    2.82
 -11   6   3   11.63    4.04
 -11   6   3   26.96    9.20
  11  -6  -2   72.78    2.89
 -11   6   2   82.36    3.84
 -11   6   2   74.57   20.96
 -11   6   1   13.05    6.38
 -11   6   1   22.46    7.39
 -11   6   0   17.50    8.92
 -11   6   0   19.08    6.84
 -11   6  -1   22.98    9.27
 -11   6  -1   21.05    6.73
 -11   6  -2  532.22   21.95
 -11   6  -2  527.08   19.11
 -11   6  -3  329.12   17.72
 -11   6  -3  315.36   11.60
 -11   6  -4   31.20   10.04
 -11   6  -4   10.52    8.36
 -11   6  -5   48.13   10.52
 -11   6  -5   35.15   13.62
 -11   6  -6   23.37    9.39
 -11   6  -6   32.85    9.40
 -11   6  -7   -2.48    7.18
 -11   6  -7   -0.43    7.78
 -11   6  -8   58.70   11.20
 -11   6  -8   63.95   13.59
 -11   6  -9   -2.55    6.67
 -11   6  -9   -0.23    7.36
 -11   6 -10    2.78    7.96
 -11   6 -10    7.13    4.57
 -11   5  16   21.39    7.12
 -11   5  15    1.03    1.77
 -11   5  14    0.77    4.42
 -11   5  13   20.19    9.85
 -11   5  12   -3.62    4.79
 -11   5  11    9.29    5.24
 -11   5  10    1.54    3.23
 -11   5   9   16.70    9.47
 -11   5   8    1.69    1.80
 -11   5   7    6.53    6.00
 -11   5   6   88.77   18.01
  11  -5  -5    2.80    1.26
 -11   5   5    2.73    1.14
 -11   5   5    3.44    6.39
  11  -5  -4    1.41    0.92
 -11   5   4    0.95    0.87
 -11   5   4    7.80    6.20
  11  -5  -3    2.62    1.87
 -11   5   3   -0.32    1.64
 -11   5   3    6.22    5.87
  11  -5  -2    3.48    1.70
 -11   5   2    2.97    1.84
 -11   5   2   17.50    9.75
 -11   5   1    6.60    8.64
 -11   5   1   -3.32    3.24
 -11   5   0    8.01    4.95
 -11   5   0    7.63    5.04
 -11   5  -1   80.03   16.80
 -11   5  -1   59.62   16.79
 -11   5  -2   85.37   23.45
 -11   5  -2   96.51    8.41
 -11   5  -3   33.92    9.35
 -11   5  -3   42.63   11.38
 -11   5  -4   42.65   11.56
 -11   5  -4   41.70   10.42
 -11   5  -5   37.50   12.00
 -11   5  -5   40.63    6.86
 -11   5  -6   -0.62    6.44
 -11   5  -6    3.57    7.15
 -11   5  -7    2.73    5.63
 -11   5  -7    2.07    4.94
 -11   5  -8   -0.26    6.09
 -11   5  -8    5.08    4.76
 -11   5  -9   -6.56    6.91
 -11   5  -9    5.30    5.22
 -11   5 -10    3.23    3.93
 -11   5 -10    3.51    6.90
 -11   4  17   -0.32    3.68
 -11   4  16   12.93    7.87
 -11   4  15   16.29    6.70
 -11   4  14    6.73    5.70
 -11   4  13   55.38   17.13
 -11   4  12   12.78    9.06
 -11   4  11    8.65   12.93
 -11   4  10  416.09   19.74
 -11   4   9   44.45   12.18
 -11   4   8   46.21   10.45
 -11   4   7  102.20    9.76
 -11   4   6   10.84    6.69
 -11   4   6    0.75    0.49
  11  -4  -5  103.75    2.33
 -11   4   5  117.77    2.78
 -11   4   5  132.20   14.44
  11  -4  -4    9.28    3.25
 -11   4   4   11.71    5.94
  11  -4  -3   26.09    5.95
 -11   4   3   45.28    3.71
 -11   4   3   54.91   15.34
 -11   4   2  212.81   15.19
 -11   4   2  215.54   11.46
 -11   4   1   69.47   10.80
 -11   4   1   62.97    7.30
 -11   4   0    9.62    6.22
 -11   4   0    4.33    3.38
 -11   4  -1  235.40   12.15
 -11   4  -1  249.11   15.33
 -11   4  -2   55.36   13.69
 -11   4  -2   71.39    9.95
 -11   4  -3  180.86   11.30
 -11   4  -3  196.06   12.83
 -11   4  -4    4.50    7.07
 -11   4  -4   10.29    8.94
 -11   4  -5    3.75    6.22
 -11   4  -5   -2.24    6.30
 -11   4  -6   -1.50    7.82
 -11   4  -6    0.79    7.48
 -11   4  -7  160.78   24.60
 -11   4  -7  192.08   11.39
 -11   4  -8    9.21    6.49
 -11   4  -8   13.48    8.25
 -11   4  -9   16.00   12.68
 -11   4  -9   24.71   10.93
 -11   4 -10    3.20    3.92
 -11   4 -10   13.49    5.48
 -11   3  16   -2.59    4.29
 -11   3  15    5.64    3.56
 -11   3  14    7.34    5.82
 -11   3  13    9.41    5.10
 -11   3  12   47.48   13.77
 -11   3  11  206.43   27.90
 -11   3  10   89.37   12.75
 -11   3   9    8.02    6.04
 -11   3   8  476.18   18.93
  11  -3  -7  169.61    8.13
 -11   3   7  185.56   20.40
  11  -3  -6   81.97    2.45
 -11   3   6   79.70    4.13
 -11   3   6  111.75   11.01
  11  -3  -5   44.51    2.42
 -11   3   5   49.62    5.99
 -11   3   5   67.23    9.40
  11  -3  -4   11.73    4.63
 -11   3   4   18.62    5.57
 -11   3   4    2.27    4.17
 -11   3   3   47.32    9.03
 -11   3   3   41.55    8.51
 -11   3   2   55.99   11.50
 -11   3   2   50.12   10.17
 -11   3   1   12.34    6.13
 -11   3   1    3.96    2.74
 -11   3   0   78.29    7.38
 -11   3   0   62.24   19.18
 -11   3  -1   14.54    6.73
 -11   3  -1   10.43    5.09
 -11   3  -2   60.96    8.41
 -11   3  -2   53.77   13.46
 -11   3  -3   34.50    8.07
 -11   3  -3   29.51   10.07
 -11   3  -4   57.89   20.36
 -11   3  -5   -4.06    6.47
 -11   3  -5  -10.48    6.67
 -11   3  -6    3.90    6.81
 -11   3  -6    7.36    6.07
 -11   3  -7   24.02   12.33
 -11   3  -7   19.69   11.04
 -11   3  -8   22.50   10.99
 -11   3  -8    7.29    5.39
 -11   3  -9   19.14    5.71
 -11   3  -9   29.11    9.51
 -11   2  17   -4.03    5.11
 -11   2  16    0.84    2.85
 -11   2  15   10.82    4.30
 -11   2  14   80.33   16.46
 -11   2  13  121.42   19.72
 -11   2  12   16.32    6.96
 -11   2  11  280.77   15.27
 -11   2  10   28.37    8.64
 -11   2   9   10.77    5.40
  11  -2  -8  109.38    2.34
 -11   2   8  120.33    9.35
  11  -2  -7  221.85   10.97
 -11   2   7  213.76   10.44
 -11   2   7  234.10   17.38
  11  -2  -6    1.01    1.59
 -11   2   6   -0.02    1.38
 -11   2   6   12.21    6.65
  11  -2  -5    6.78    2.81
 -11   2   5    5.64    2.79
 -11   2   5   16.94    8.43
 -11   2   4   56.75   11.07
 -11   2   4   51.12    4.54
 -11   2   3  133.50    8.14
 -11   2   3  123.28    6.32
 -11   2   2    3.40    6.13
 -11   2   2    5.11    3.95
 -11   2   1    8.82    4.70
 -11   2   1    8.44    5.83
 -11   2   0   -0.96    6.95
 -11   2   0    3.76    2.47
 -11   2  -1   40.83    9.30
 -11   2  -1   46.48   14.37
 -11   2  -2   47.67   10.26
 -11   2  -2   38.61    8.61
 -11   2  -3   65.58    7.79
 -11   2  -3   59.76   18.78
 -11   2  -4   17.85    8.47
 -11   2  -4   15.87    7.23
 -11   2  -5   38.20    7.65
 -11   2  -5   34.34   13.08
 -11   2  -6    8.76    4.18
 -11   2  -6   -1.45    7.16
 -11   2  -7    8.13    3.98
 -11   2  -7    5.59    4.07
 -11   2  -8   19.58   11.28
 -11   2  -8   10.45    7.70
 -11   2  -9    1.77    3.12
 -11   2  -9    6.88    5.53
 -11   1  18    6.37    4.24
 -11   1  17   -4.22    5.42
 -11   1  16    2.95    3.97
 -11   1  15   45.16   13.99
 -11   1  14   10.09    5.92
 -11   1  13   51.30   11.51
 -11   1  12   46.72   13.51
 -11   1  11   26.17   12.34
  11  -1 -10  682.69    7.18
 -11   1  10  669.13   26.95
  11  -1  -9  820.32    8.58
 -11   1   9  847.89  127.86
 -11   1   8   87.80    7.96
 -11   1   8   87.73    2.95
  11  -1  -7   10.85    3.43
 -11   1   7   16.64    5.59
 -11   1   7   12.17    8.81
 -11   1   6  311.70   29.18
 -11   1   6  274.41   13.87
 -11   1   5   -0.68    4.27
 -11   1   5   -2.81    2.78
 -11   1   4    6.51    6.10
 -11   1   4    2.51    2.50
 -11   1   3   26.79    8.65
 -11   1   3   19.68    6.74
 -11   1   2   23.17    5.80
 -11   1   2   25.23    6.98
 -11   1   1   10.61    6.53
 -11   1   1   12.14    6.54
 -11   1   0  140.40   12.61
 -11   1   0  119.59   14.61
 -11   1  -1  113.81   13.83
 -11   1  -1  106.18   12.10
 -11   1  -2   20.08    7.46
 -11   1  -2   25.53    7.22
 -11   1  -3  254.50   11.87
 -11   1  -3  240.33   13.38
 -11   1  -4    6.59    5.51
 -11   1  -4    1.09    7.38
 -11   1  -5   11.92   10.00
 -11   1  -5    0.88    5.39
 -11   1  -6   53.51   16.61
 -11   1  -6   80.50   13.13
 -11   1  -7    1.37    5.36
 -11   1  -7   -1.36    7.08
 -11   1  -8   40.31    8.87
 -11   0  18    5.83    3.06
 -11   0  17   18.57    7.91
 -11   0  16    7.55    6.55
 -11   0  15  133.49   11.34
 -11   0  14   -0.66    4.53
 -11   0  13  379.73   14.58
 -11   0  12   -4.89    6.42
  11   0 -11    2.07    1.54
 -11   0  11    4.92    5.79
  11   0 -10  398.99    4.93
 -11   0  10  400.55    9.15
 -11   0   9  273.54   13.62
 -11   0   9  271.46    5.05
 -11   0   8   41.24    8.95
 -11   0   8   32.62   10.88
 -11   0   7   40.87    9.75
 -11   0   7   30.24    9.14
 -11   0   6   -1.96    6.09
 -11   0   6    1.34    1.84
 -11   0   5   36.73    8.44
 -11   0   5   38.63   12.04
 -11   0   4  117.75   13.13
 -11   0   4  110.68   15.71
 -11   0   3    2.90    6.55
 -11   0   3    2.93    3.29
 -11   0   2   31.28    6.69
 -11   0   2   47.60    8.77
 -11   0   1   63.16   11.64
 -11   0   1   51.67   13.16
 -11   0   0    1.40    5.51
 -11   0   0    5.58    4.56
 -11   0  -1    5.35    5.18
 -11   0  -1   11.31    6.31
 -11   0  -2    0.73    5.81
 -11   0  -2    6.13    6.19
 -11   0  -3    2.73    2.67
 -11   0  -3   -0.45    6.69
 -11   0  -4    3.52    6.35
 -11   0  -4  -10.24    7.18
 -11   0  -5   -3.96    4.62
 -11   0  -5   12.21    9.39
 -11   0  -6    4.80    6.03
 -11   0  -6    9.85    4.84
 -11   0  -7   29.00    6.96
 -11   0  -8   18.37   12.27
 -11  -1  18    8.76    4.55
 -11  -1  17   -4.85    6.32
 -11  -1  16    3.77    5.46
 -11  -1  15   39.14   10.49
 -11  -1  14    5.78    3.49
 -11  -1  13   14.28    4.64
  11   1 -12   98.75    4.10
 -11  -1  12  111.73   14.83
  11   1 -11   99.16   12.53
 -11  -1  11  122.67   12.00
 -11  -1  10  127.00   14.46
 -11  -1   9  420.34   10.74
 -11  -1   9  454.90    8.13
 -11  -1   8  257.14   11.48
 -11  -1   8  238.44    7.78
 -11  -1   7  303.00   25.01
 -11  -1   7  301.83    9.07
 -11  -1   6  232.61    9.90
 -11  -1   6  230.94    6.73
 -11  -1   5  128.90   24.81
 -11  -1   5  129.70    6.20
 -11  -1   4  255.38   14.42
 -11  -1   4  243.15    8.12
 -11  -1   3   14.26    6.48
 -11  -1   3   12.74    6.23
 -11  -1   2   -1.12    6.21
 -11  -1   2   14.40    4.46
 -11  -1   1   60.82    9.63
 -11  -1   1   34.28   11.88
 -11  -1   0   23.09    7.82
 -11  -1   0   27.15    7.77
 -11  -1  -1   17.93    5.63
 -11  -1  -1   22.34    5.85
 -11  -1  -2    5.19    5.48
 -11  -1  -2   14.00    8.83
 -11  -1  -3    3.81    5.49
 -11  -1  -4   20.37    6.27
 -11  -1  -4   23.19    9.59
 -11  -1  -5  115.22   19.97
 -11  -1  -5   58.08   31.14
 -11  -1  -6   -3.47    3.93
 -11  -1  -6    8.57    6.64
 -11  -1  -7   -3.17    6.46
 -11  -2  18   21.35    6.34
 -11  -2  17    6.06    6.84
 -11  -2  16    3.79    6.62
 -11  -2  15   94.19   14.33
 -11  -2  14   50.60    9.79
  11   2 -13    3.16    2.39
 -11  -2  13   -1.40    5.66
  11   2 -12    2.98    3.48
 -11  -2  12    1.20    3.78
  11   2 -11    0.72    3.13
 -11  -2  11    1.00    4.59
 -11  -2  10  141.20   14.45
 -11  -2  10  137.28    5.86
 -11  -2   9   64.29   17.09
 -11  -2   9   51.90   15.83
 -11  -2   8   34.28   11.80
 -11  -2   8   36.88   14.19
 -11  -2   7  362.36   25.17
 -11  -2   7  358.34    9.30
 -11  -2   6   30.00   10.47
 -11  -2   6   20.48    5.84
 -11  -2   5    6.34    7.73
 -11  -2   5    8.68    4.77
 -11  -2   4    8.38    8.13
 -11  -2   4   17.12    4.79
 -11  -2   3   10.94    6.54
 -11  -2   3   13.23    5.93
 -11  -2   2  193.91    9.18
 -11  -2   2  203.39   18.58
 -11  -2   1   10.34    4.05
 -11  -2   1    9.99    4.11
 -11  -2   0    4.25    3.32
 -11  -2   0    0.98    2.62
 -11  -2  -1    8.51    5.31
 -11  -2  -1    7.41    9.63
 -11  -2  -2   -0.56    5.41
 -11  -2  -2    1.60    4.77
 -11  -2  -3   58.80    8.76
 -11  -2  -3   68.40   10.12
 -11  -2  -4   -3.48    4.36
 -11  -2  -4    0.54    4.20
 -11  -2  -5    9.56    3.89
 -11  -2  -5    1.76    6.60
 -11  -2  -6   -4.92    6.16
 -11  -3  18    8.42    4.00
 -11  -3  17   -0.73    6.21
 -11  -3  16    2.56    4.80
 -11  -3  15   -5.80    5.95
 -11  -3  14   11.67    8.18
  11   3 -13   24.27    7.04
 -11  -3  13   25.04   10.08
  11   3 -12   29.13    5.18
 -11  -3  12   38.78   13.56
 -11  -3  11    3.65    4.79
 -11  -3  11    1.74    1.50
 -11  -3  10  148.40   26.84
 -11  -3  10  144.42   10.19
 -11  -3   9  224.92   13.83
 -11  -3   9  225.65    6.54
 -11  -3   8  209.69    8.89
 -11  -3   8  176.25   13.77
 -11  -3   7   52.84   15.29
 -11  -3   7   55.66   16.80
 -11  -3   6  181.05   12.15
 -11  -3   6  183.55    8.46
 -11  -3   5   11.49    5.43
 -11  -3   5    2.17    4.33
 -11  -3   4   42.18   13.39
 -11  -3   4   40.85    9.90
 -11  -3   3   86.26    9.40
 -11  -3   3   61.99   23.49
 -11  -3   2   61.09   18.33
 -11  -3   2   82.77    8.82
 -11  -3   1   22.99    7.93
 -11  -3   1   18.76    8.85
 -11  -3   0    0.55    1.98
 -11  -3   0    0.08    5.02
 -11  -3  -1   17.30    5.10
 -11  -3  -1   22.26    8.44
 -11  -3  -2    1.63    4.22
 -11  -3  -2    8.51    3.60
 -11  -3  -3    5.00    4.39
 -11  -3  -3   -0.37    6.60
 -11  -3  -4    6.74    3.65
 -11  -3  -4   21.00   11.65
 -11  -3  -5    3.82    4.35
 -11  -4  17   -0.90    5.23
 -11  -4  16   11.32    7.51
 -11  -4  15    4.67    4.27
  11   4 -14    7.88    3.49
 -11  -4  14   13.06    7.36
  11   4 -13   29.70    7.59
 -11  -4  13   21.01    8.52
  11   4 -12   99.41    6.40
 -11  -4  12  102.03    9.16
 -11  -4  11   11.02    5.06
 -11  -4  11    5.36    2.93
 -11  -4  10   25.62    8.70
 -11  -4  10   20.85    5.69
 -11  -4   9    0.57    3.70
 -11  -4   9    2.91    2.82
 -11  -4   8   14.51    5.63
 -11  -4   8   13.55    4.79
 -11  -4   7   44.82   12.30
 -11  -4   7   58.18   15.52
 -11  -4   6   66.75   18.46
 -11  -4   6   82.38   18.68
 -11  -4   5    8.68    4.79
 -11  -4   5   10.22    3.23
 -11  -4   4   86.59   20.94
 -11  -4   4  127.47   13.50
 -11  -4   3   -6.18    5.26
 -11  -4   3    3.77    4.53
 -11  -4   2   11.70    5.14
 -11  -4   2   -4.91    6.17
 -11  -4   1    5.63    5.30
 -11  -4   1    5.10    6.30
 -11  -4   0    0.76    2.53
 -11  -4   0   10.23    6.73
 -11  -4  -1   -3.39    4.11
 -11  -4  -1   -0.49    4.91
 -11  -4  -2    2.16    2.05
 -11  -4  -2    1.53    5.29
 -11  -4  -3    1.14    3.99
 -11  -4  -4    5.21    4.54
 -11  -5  17   17.94    9.65
 -11  -5  16    7.37    8.60
 -11  -5  15    2.43    7.15
  11   5 -14   12.34    4.80
 -11  -5  14    8.73    6.33
  11   5 -13    6.25    3.22
 -11  -5  13    3.19    3.47
 -11  -5  12   -0.15    6.27
 -11  -5  11    8.08    5.70
 -11  -5  11    5.91    4.08
 -11  -5  10   32.98   10.45
 -11  -5  10   23.09    7.99
 -11  -5   9  149.97   16.83
 -11  -5   9  146.50   18.76
 -11  -5   8   15.36    4.81
 -11  -5   8   25.40    7.08
 -11  -5   7   14.31    8.14
 -11  -5   7   10.40    4.58
 -11  -5   6    8.95    5.65
 -11  -5   6    1.68    4.54
 -11  -5   5    1.20    4.71
 -11  -5   5    4.06    2.94
 -11  -5   4   32.14   11.15
 -11  -5   4   30.60    8.63
 -11  -5   3    6.65    8.56
 -11  -5   3   11.19    5.95
 -11  -5   2   -1.87    4.92
 -11  -5   2    4.94    3.23
 -11  -5   1   -0.51    3.79
 -11  -5   1   -0.47    6.21
 -11  -5   0   32.18    9.38
 -11  -5   0   32.98    9.13
 -11  -5  -1   11.38    5.82
 -11  -5  -1   10.77    5.61
 -11  -5  -2    0.34    4.06
 -11  -5  -3   -0.56    6.45
 -11  -6  16    6.92    7.18
  11   6 -15    4.98    4.18
 -11  -6  15    8.20    5.21
  11   6 -14   15.01    4.82
 -11  -6  14   11.75    6.66
  11   6 -13   14.79    7.49
 -11  -6  13   12.51    7.29
 -11  -6  12    3.33    5.25
 -11  -6  12    3.77    3.22
 -11  -6  11   43.34    8.21
 -11  -6  11   29.49    9.12
 -11  -6  10   -0.26    5.46
 -11  -6  10   -2.25    5.15
 -11  -6   9   30.07    9.34
 -11  -6   9   31.71   11.78
 -11  -6   8   47.02   13.70
 -11  -6   8   39.42   15.67
 -11  -6   7   85.17   23.06
 -11  -6   7   93.28   12.73
 -11  -6   6    8.45    6.10
 -11  -6   6   12.57    5.27
 -11  -6   5  152.39    8.84
 -11  -6   5  123.97   26.66
 -11  -6   4   74.26   20.92
 -11  -6   4   84.62   19.34
 -11  -6   3   10.71    3.93
 -11  -6   3   10.93   11.38
 -11  -6   2   43.43   24.74
 -11  -6   2   59.47   25.56
 -11  -6   1    8.37    7.18
 -11  -6   1   25.15   10.12
 -11  -6   0    4.64    3.70
 -11  -6  -1   22.95    7.19
 -11  -7  16   -1.81    6.41
  11   7 -15   16.88    5.09
 -11  -7  15   33.32   11.63
  11   7 -14   21.43    5.32
 -11  -7  14   18.59    7.85
  11   7 -13    0.31    4.25
 -11  -7  13    1.82    5.17
 -11  -7  12   44.74   19.69
 -11  -7  12   43.33   20.69
 -11  -7  11   30.47   10.00
 -11  -7  11   33.85   11.51
 -11  -7  10   33.94    8.65
 -11  -7  10   31.37    8.14
 -11  -7   9   11.48    5.50
 -11  -7   9    8.52    5.02
 -11  -7   8   59.97   19.33
 -11  -7   8   58.69   17.92
 -11  -7   7   27.32    8.79
 -11  -7   7   21.71    8.90
 -11  -7   6    0.15    2.60
 -11  -7   6   -6.12    5.82
 -11  -7   5   18.82    5.82
 -11  -7   5   21.75    5.54
 -11  -7   4   -0.52    4.85
 -11  -7   4   -3.27    6.23
 -11  -7   3    2.98    3.08
 -11  -7   3   -2.40    6.33
 -11  -7   2   -0.05    2.13
 -11  -7   2    3.23    3.86
 -11  -7   1    9.03    3.85
 -11  -7   0    4.37    4.62
  11   8 -14    5.94    2.77
 -11  -8  14    3.14    3.41
 -11  -8  13   11.82    6.51
 -11  -8  12   -5.55    6.95
 -11  -8  12    4.80    3.12
 -11  -8  11   17.34    9.19
 -11  -8  11    3.67    2.56
 -11  -8  10    7.05    6.47
 -11  -8  10   11.63    5.99
 -11  -8   9    1.94    2.35
 -11  -8   9    3.35    2.78
 -11  -8   8   25.59    8.95
 -11  -8   7    4.56    3.51
 -11  -8   7   -2.66    5.77
 -11  -8   6   -2.96    4.94
 -11  -8   6    2.37    3.75
 -11  -8   5   33.67   14.61
 -11  -8   5   30.46   12.73
 -11  -8   4   11.04    7.32
 -11  -8   4    8.95    6.71
 -11  -8   3   36.37   14.36
 -11  -8   3   60.42   21.45
 -11  -8   2   58.25   23.80
 -11  -9  12   -1.36    6.20
 -11  -9  12    1.57    3.95
 -11  -9  11    7.94    8.97
 -11  -9  11   13.41    7.96
 -11  -9  10   29.46    9.24
 -11  -9  10   11.75    6.88
 -11  -9   9    3.76    2.91
 -11  -9   9    4.27    4.69
 -11  -9   8    8.29    5.98
 -11  -9   8   10.68    8.57
 -11  -9   7    2.39    3.22
 -11  -9   7    4.39    2.03
 -11  -9   6   -0.28    3.84
 -11  -9   6    8.50    4.31
 -11  -9   5   10.91    6.95
 -11  -9   5    4.47    4.05
 -12  17   1    4.38    2.40
 -12  17   0    1.07    1.89
 -12  17  -1   16.19    9.72
 -12  17  -2    7.39    2.18
 -12  16   2    4.25    2.58
 -12  16   1    3.56    3.85
 -12  16   0    7.19    4.21
 -12  16  -1  116.62   22.31
 -12  16  -2   79.06   15.41
 -12  16  -3  366.16   23.27
 -12  16  -4   38.64   11.59
 -12  16  -4   35.52   10.37
 -12  16  -5    8.71    5.12
 -12  16  -5    4.40    4.01
 -12  16  -6   38.72   13.81
 -12  15   4    8.41    3.51
 -12  15   3   -0.91    2.69
 -12  15   2   10.72    4.36
 -12  15   1   64.01   22.48
 -12  15   0   17.37    8.00
 -12  15  -1    4.05    5.76
 -12  15  -2   -3.94    6.19
 -12  15  -3    1.69    7.64
 -12  15  -3    2.21    3.15
 -12  15  -4   14.43    7.57
 -12  15  -4   11.35    5.27
 -12  15  -5   16.52    5.69
 -12  15  -5   18.20    7.82
 -12  15  -6   -4.74    7.02
 -12  15  -6    4.16    5.72
 -12  15  -7   13.18    8.64
 -12  15  -7    3.99    3.10
 -12  14   5    3.12    4.07
 -12  14   4   10.64    7.54
 -12  14   3    5.97    6.27
 -12  14   2    3.08    5.19
 -12  14   1    0.77    5.24
 -12  14   0    4.94    4.66
 -12  14  -1   -2.13    6.05
 -12  14  -2   -0.80    6.30
 -12  14  -2    4.22    2.58
 -12  14  -3    7.14    7.39
 -12  14  -3    4.54    5.30
 -12  14  -4    0.12    5.46
 -12  14  -4    5.92    4.76
 -12  14  -5  206.74   32.30
 -12  14  -5  207.94   32.27
 -12  14  -6   72.21   40.33
 -12  14  -6  121.35   28.78
 -12  14  -7   28.22   16.29
 -12  14  -8    5.73    8.77
 -12  14  -8   -3.78    6.34
 -12  13   6    3.70    4.26
 -12  13   5   23.05   17.52
 -12  13   4    6.99    5.63
 -12  13   3    7.32    5.18
 -12  13   2   -3.56    5.86
 -12  13   1    3.94    6.10
 -12  13   0    6.08    4.39
 -12  13  -1  175.34   29.44
 -12  13  -1  171.93    8.28
 -12  13  -2    3.70    7.87
 -12  13  -2    8.08    4.58
 -12  13  -3   -3.42    7.37
 -12  13  -3   -0.47    4.62
 -12  13  -4   45.53   12.09
 -12  13  -4   22.62   10.94
 -12  13  -5   -1.92    7.26
 -12  13  -5   -0.44    5.55
 -12  13  -6   39.02   14.26
 -12  13  -6   45.38   10.09
 -12  13  -7    2.29    3.88
 -12  13  -7   -0.29    5.80
 -12  13  -8   10.35    7.89
 -12  13  -8   19.35    7.98
 -12  13  -9    7.35    5.36
 -12  13  -9    8.03    3.26
 -12  12   8   -0.18    3.53
 -12  12   6    3.56    4.75
 -12  12   5    5.42    5.45
 -12  12   4  146.64    9.84
 -12  12   3    9.90    7.35
 -12  12   2    3.13    3.00
 -12  12   1   -4.70    6.38
 -12  12   0    8.65    8.89
 -12  12   0    0.71    2.72
 -12  12  -1    7.08    8.11
 -12  12  -1    2.85    3.66
 -12  12  -2    1.41    6.78
 -12  12  -2    1.49    2.15
 -12  12  -3  108.03   17.81
 -12  12  -3  122.60    7.98
 -12  12  -4  229.98   16.22
 -12  12  -4  217.24   14.16
 -12  12  -5   38.92   22.19
 -12  12  -5   23.88    8.70
 -12  12  -6   60.31   18.29
 -12  12  -6   37.59   12.19
 -12  12  -7    4.65    6.26
 -12  12  -7   15.27    6.56
 -12  12  -8   33.08   10.05
 -12  12  -8   37.18    9.79
 -12  12  -9   12.69    8.06
 -12  12  -9   14.07    6.56
 -12  11   9    1.54    3.59
 -12  11   8    3.26    5.33
 -12  11   7    7.62    5.32
 -12  11   6  114.37    8.88
 -12  11   5  187.17   12.68
 -12  11   4   -0.82    5.18
 -12  11   3    1.08    4.85
 -12  11   2    7.60    4.50
 -12  11   1   26.36   10.30
 -12  11   1   19.94    7.62
 -12  11   0   -2.39    6.63
 -12  11   0    2.40    2.32
 -12  11  -1   -3.56    7.10
 -12  11  -1    1.67    2.56
 -12  11  -2   17.29    7.36
 -12  11  -2   21.06    6.15
 -12  11  -3  284.90   10.05
 -12  11  -3  328.88   10.67
 -12  11  -4   76.96   16.03
 -12  11  -4   54.24   16.50
 -12  11  -5    4.53    3.16
 -12  11  -5    3.75    4.64
 -12  11  -6   -3.90    8.32
 -12  11  -6    5.22    6.42
 -12  11  -7    9.45    6.93
 -12  11  -7   -4.37    6.83
 -12  11  -8   38.24   16.77
 -12  11  -8   46.80   21.32
 -12  11  -9   20.95   12.82
 -12  11  -9   19.52    9.94
 -12  10  11    8.01    4.73
 -12  10  10   -0.98    4.59
 -12  10   9   18.49    9.17
 -12  10   8    8.29    7.35
 -12  10   7    2.74    4.23
 -12  10   6    1.09    5.00
 -12  10   5   -1.25    5.82
 -12  10   4   14.01    8.65
 -12  10   3    8.97    6.46
 -12  10   2  231.70   10.86
 -12  10   1   53.23   17.23
 -12  10   1   60.85    4.23
 -12  10   0    8.50    6.43
 -12  10   0    2.86    2.76
 -12  10  -1   28.41   11.65
 -12  10  -1   24.59    8.81
 -12  10  -2    2.42    6.95
 -12  10  -2   -3.52    4.94
 -12  10  -3    3.61    7.91
 -12  10  -3    4.55    3.48
 -12  10  -4    3.97    7.36
 -12  10  -4    1.43    3.10
 -12  10  -5   24.89    9.32
 -12  10  -5   32.59    9.56
 -12  10  -6   53.57   10.80
 -12  10  -6   32.85   11.61
 -12  10  -7    1.55    4.39
 -12  10  -7   -3.13    6.98
 -12  10  -8   16.40    9.43
 -12  10  -8   10.04    7.12
 -12  10  -9   34.58   14.35
 -12  10  -9   72.16   12.36
 -12  10 -10    6.82    7.03
 -12  10 -10   15.30    9.10
 -12   9  12    5.30    1.71
 -12   9  11    7.74    5.49
 -12   9  10   -1.68    5.34
 -12   9   9   58.18   28.95
 -12   9   8   -1.97    5.00
 -12   9   7   11.94    7.69
 -12   9   6   28.61   12.54
 -12   9   5  179.75   12.68
 -12   9   4   91.22   10.21
 -12   9   3  104.51    9.42
 -12   9   2   20.46    6.01
 -12   9   2   18.20    5.94
 -12   9   1    7.20    8.90
 -12   9   1   -0.35    2.43
 -12   9   0    4.87    6.34
 -12   9   0    3.86    2.92
 -12   9  -1   53.16   16.30
 -12   9  -1   74.77    6.98
 -12   9  -2   -2.25    7.07
 -12   9  -2   -3.16    4.82
 -12   9  -3   42.74   14.65
 -12   9  -3   35.20   13.24
 -12   9  -4   -2.79    8.26
 -12   9  -4    2.31    2.03
 -12   9  -5   23.63    7.19
 -12   9  -5   33.38    8.62
 -12   9  -6   13.60   11.67
 -12   9  -6   18.09    9.64
 -12   9  -7   16.26   10.33
 -12   9  -7    9.74    6.80
 -12   9  -8  -10.42    8.65
 -12   9  -8    4.09    6.07
 -12   9  -9   19.07    5.69
 -12   9  -9    9.30    9.09
 -12   9 -10    3.02    4.72
 -12   9 -10    7.55    5.18
 -12   8  13   -0.80    3.69
 -12   8  12    7.47    5.23
 -12   8  11   -0.58    5.13
 -12   8  10   60.26   11.46
 -12   8   9    1.45    3.43
 -12   8   8    7.17    4.73
 -12   8   7  149.85   11.21
 -12   8   6  251.59   12.88
 -12   8   5   17.72    6.88
 -12   8   4   92.56   13.24
 -12   8   3  145.47   10.93
 -12   8   3  145.89    3.86
 -12   8   2    6.24    6.00
 -12   8   2    6.34    2.46
 -12   8   1  216.23    8.49
 -12   8   1  192.35    6.39
 -12   8   0   98.94   10.58
 -12   8   0  109.48    8.35
 -12   8  -1   -7.00    6.59
 -12   8  -1   -1.75    4.13
 -12   8  -2   -0.62    7.63
 -12   8  -2   -1.54    4.88
 -12   8  -3   23.39   10.45
 -12   8  -3    1.99    3.98
 -12   8  -4   -0.91    6.21
 -12   8  -4   15.04    6.94
 -12   8  -5    9.54    4.87
 -12   8  -5    2.23    3.54
 -12   8  -6   54.67   16.01
 -12   8  -6   41.92   15.01
 -12   8  -7    4.98    6.65
 -12   8  -7    9.01    6.44
 -12   8  -8   22.84    7.69
 -12   8  -8   27.32    9.99
 -12   8  -9   -1.25    8.84
 -12   8  -9    0.29    4.53
 -12   8 -10   -6.12    6.96
 -12   8 -10    5.18    4.20
 -12   7  14   21.95   10.40
 -12   7  13    3.50    2.20
 -12   7  12    6.35    2.74
 -12   7  11    3.31    3.28
 -12   7  10   65.62   14.55
 -12   7   9    4.88    2.94
 -12   7   8  147.19   20.95
 -12   7   7  317.11   12.75
 -12   7   6   -2.23    6.54
 -12   7   5   74.02   12.84
 -12   7   4    6.09    7.76
 -12   7   3   48.04    7.74
 -12   7   3   32.06    6.06
 -12   7   2  157.60   18.94
 -12   7   2  146.45    5.81
 -12   7   1  166.82   18.64
 -12   7   1  165.77    7.70
 -12   7   0   14.22    7.35
 -12   7   0    8.77    3.55
 -12   7  -1   15.88   10.08
 -12   7  -1   17.22    6.41
 -12   7  -2   22.81   10.10
 -12   7  -2   11.46    5.05
 -12   7  -3   -3.51    6.53
 -12   7  -3    2.27    6.11
 -12   7  -4   -4.47    7.33
 -12   7  -4   -0.69    5.57
 -12   7  -5   27.64    8.69
 -12   7  -5   33.54    9.48
 -12   7  -6   11.83    6.69
 -12   7  -6   -0.56    6.95
 -12   7  -7   19.04    7.38
 -12   7  -8   14.43    9.51
 -12   7  -8   30.50   10.57
 -12   7  -9    5.16    5.44
 -12   7  -9    2.25    8.45
 -12   6  15   14.56    5.76
 -12   6  14    3.87    3.21
 -12   6  13   -1.02    4.62
 -12   6  12   -0.19    5.36
 -12   6  11   -2.45    5.27
 -12   6  10    2.71    4.23
 -12   6   9   11.16    5.89
 -12   6   8   34.38    9.35
 -12   6   7    5.48    3.85
 -12   6   6   30.00    8.09
 -12   6   5  149.29    9.21
 -12   6   4  147.59   17.53
 -12   6   4  145.70    3.00
 -12   6   3   14.00    6.42
 -12   6   3   23.32    5.40
 -12   6   2   -7.86    5.68
 -12   6   2    2.32    1.82
 -12   6   1    7.72    6.25
 -12   6   1    7.87    5.86
 -12   6   0   -0.39    7.15
 -12   6   0    5.14    4.73
 -12   6  -1   64.27   21.42
 -12   6  -1   81.18   10.08
 -12   6  -2    5.48    6.15
 -12   6  -2    2.17    3.52
 -12   6  -3   51.23    9.17
 -12   6  -3   50.22   16.44
 -12   6  -4   -3.51    7.92
 -12   6  -4    5.12    6.20
 -12   6  -5    2.68    4.25
 -12   6  -5    1.01    6.71
 -12   6  -6   78.04   26.22
 -12   6  -6   91.58   15.60
 -12   6  -7    3.62    3.75
 -12   6  -7    3.09    7.80
 -12   6  -8   42.19   16.50
 -12   6  -9   32.25   17.79
 -12   6  -9   26.18   15.29
 -12   5  16    3.46    3.81
 -12   5  15    3.77    3.66
 -12   5  14    0.90    2.04
 -12   5  13   46.10   12.98
 -12   5  12   11.20    4.55
 -12   5  11    7.52    4.60
 -12   5  10   48.32   17.67
 -12   5   9   14.51    9.72
 -12   5   8   56.65   17.27
 -12   5   7  142.18   11.52
 -12   5   6   19.37    9.06
 -12   5   5   56.82    7.92
 -12   5   5   57.88    2.99
 -12   5   4  441.11   19.62
 -12   5   4  432.58   12.61
 -12   5   3   -1.43    6.26
 -12   5   3    1.03    2.01
 -12   5   2  117.40   10.17
 -12   5   2  105.77    6.31
 -12   5   1   34.36    9.59
 -12   5   1   13.03    6.87
 -12   5   0    9.10    6.35
 -12   5   0    2.96    3.31
 -12   5  -1   -4.57    6.17
 -12   5  -1    6.07    4.55
 -12   5  -2    6.25    6.48
 -12   5  -2    1.09    3.69
 -12   5  -3   16.17    7.00
 -12   5  -3   15.55    9.73
 -12   5  -4   53.10   10.15
 -12   5  -4   31.47    6.35
 -12   5  -5   11.42    9.70
 -12   5  -5   -2.26    7.25
 -12   5  -6    9.32    7.84
 -12   5  -6    1.83    7.11
 -12   5  -7   -0.51    4.26
 -12   5  -7    8.86   10.00
 -12   5  -8    1.91    5.44
 -12   5  -8   19.11    6.84
 -12   5  -9    3.10    4.31
 -12   5  -9    2.52    3.60
 -12   4  16   60.55   18.34
 -12   4  15   44.48   15.00
 -12   4  14    5.65    3.37
 -12   4  13    3.03    6.49
 -12   4  12   -2.03    6.18
 -12   4  11   24.23    8.29
 -12   4  10   68.26   10.58
 -12   4   9   19.30    7.83
 -12   4   8  183.97   11.39
 -12   4   7   76.54   15.01
 -12   4   6  127.65   10.33
 -12   4   5   17.58    6.12
 -12   4   5    3.93    2.08
 -12   4   4   19.34    8.69
 -12   4   4   14.91    5.53
 -12   4   3  139.06    9.67
 -12   4   3  159.97    6.02
 -12   4   2   25.57    9.58
 -12   4   2   16.35    5.97
 -12   4   1   17.69    6.29
 -12   4   1    5.57    3.53
 -12   4   0    7.15    6.33
 -12   4   0   11.87    3.82
 -12   4  -1   -2.25    6.71
 -12   4  -1    3.19    4.61
 -12   4  -2   -7.27    6.39
 -12   4  -2   10.72    6.18
 -12   4  -3    4.49    3.21
 -12   4  -3   -0.12    5.33
 -12   4  -4   92.64   31.03
 -12   4  -4   82.75   31.46
 -12   4  -5   19.64   13.78
 -12   4  -5   27.55   11.22
 -12   4  -6   26.83    9.61
 -12   4  -6   18.58    6.38
 -12   4  -7   16.68    9.78
 -12   4  -7   11.11    8.56
 -12   4  -8   -2.87    6.78
 -12   4  -8   -1.36    7.29
 -12   3  17   52.67   10.26
 -12   3  16   16.39    5.79
 -12   3  15  150.34   26.41
 -12   3  14   24.76    8.82
 -12   3  13   12.52    6.56
 -12   3  12   49.15   16.28
 -12   3  11    9.71    5.66
 -12   3  10  166.15   15.01
 -12   3   9  119.95   10.93
 -12   3   8    0.66    4.38
 -12   3   7  119.62   11.01
 -12   3   6   34.51    8.46
 -12   3   6   18.11    3.63
 -12   3   5    1.27    6.27
 -12   3   5    1.70    1.71
 -12   3   4    5.76    7.16
 -12   3   4    4.36    2.43
 -12   3   3   34.06    8.87
 -12   3   3   17.24    6.71
 -12   3   2   97.23   24.06
 -12   3   2  112.96    6.43
 -12   3   1   74.39   14.80
 -12   3   1   66.77   10.32
 -12   3   0    8.48    7.24
 -12   3   0   12.50    5.92
 -12   3  -1   12.09    8.86
 -12   3  -1    4.00    5.03
 -12   3  -2    6.40    4.36
 -12   3  -2    3.08    5.91
 -12   3  -3    3.29    6.06
 -12   3  -3   12.85    5.57
 -12   3  -4   42.58    9.85
 -12   3  -4   41.77   16.24
 -12   3  -5    6.21    5.71
 -12   3  -5   14.40    9.53
 -12   3  -6   59.51   22.92
 -12   3  -6   76.48   18.62
 -12   3  -7   11.77    8.03
 -12   3  -7    2.93    7.14
 -12   3  -8   -2.93    5.65
 -12   3  -8    0.12    7.41
 -12   2  17   -0.24    4.72
 -12   2  16   87.36   18.07
 -12   2  15    2.84    6.89
 -12   2  14    5.07    3.55
 -12   2  13   92.48   24.68
 -12   2  12    4.15    3.19
 -12   2  11    5.40    2.32
 -12   2  10   -3.61    6.39
 -12   2   9   -5.48    6.01
 -12   2   8  302.49   16.70
 -12   2   7  187.50   28.03
 -12   2   7  182.57    3.38
 -12   2   6   22.21   10.31
 -12   2   6   19.22    7.87
 -12   2   5   83.20   21.05
 -12   2   5   87.22    6.14
 -12   2   4    8.77    6.24
 -12   2   4    9.13    3.95
 -12   2   3   60.77   10.61
 -12   2   3   46.94   14.88
 -12   2   2  178.75   14.57
 -12   2   2  178.35    7.06
 -12   2   1  126.76    9.51
 -12   2   1  122.48    6.98
 -12   2   0    3.92    5.16
 -12   2   0    6.89    4.77
 -12   2  -1    7.13    5.31
 -12   2  -1    9.55    3.47
 -12   2  -2   50.32    8.20
 -12   2  -2   42.76   12.60
 -12   2  -3   21.32   10.30
 -12   2  -3    7.14    5.75
 -12   2  -4  233.74   13.52
 -12   2  -4  226.89   12.24
 -12   2  -5   12.10    7.11
 -12   2  -5   20.07    9.32
 -12   2  -6   75.65   15.17
 -12   2  -6   34.64   21.21
 -12   2  -7    9.69    4.82
 -12   2  -7   12.07    7.94
 -12   1  17    7.00    3.40
 -12   1  16    2.31    6.28
 -12   1  15   63.04   25.19
 -12   1  14   20.63    7.42
 -12   1  13    5.25    5.04
 -12   1  12  225.04   15.44
 -12   1  11   -1.13    3.08
 -12   1  10    6.90    6.77
 -12   1   9   18.67    9.76
 -12   1   8  242.36   15.76
 -12   1   8  220.53    4.34
 -12   1   7    2.83    3.93
 -12   1   7   -0.60    1.98
 -12   1   6   28.24    9.27
 -12   1   6   25.22    9.31
 -12   1   5    5.56    3.15
 -12   1   5    4.37    1.79
 -12   1   4   -0.46    6.37
 -12   1   4    0.77    3.09
 -12   1   3    4.72    6.62
 -12   1   3    0.98    3.22
 -12   1   2  110.14   10.76
 -12   1   2   92.48   12.44
 -12   1   1   56.04    8.92
 -12   1   1   58.12    8.52
 -12   1   0   83.06   11.68
 -12   1   0   80.15   11.11
 -12   1  -1    6.14    9.89
 -12   1  -1    7.95    5.18
 -12   1  -2   10.52    6.94
 -12   1  -2   10.45    9.45
 -12   1  -3   27.31    6.58
 -12   1  -3   24.76   10.11
 -12   1  -4    5.71    5.88
 -12   1  -4    6.05    5.29
 -12   1  -5   56.83   14.58
 -12   1  -5   34.91   16.95
 -12   1  -6   11.78    5.26
 -12   1  -6    8.84    5.76
 -12   1  -7   -0.61    4.31
 -12   1  -7    1.21    4.07
 -12   0  17   22.53    8.64
 -12   0  16  345.74   27.20
 -12   0  15   -3.27    6.32
 -12   0  14   94.29   17.94
 -12   0  13   25.28   13.56
 -12   0  12    2.15    4.74
 -12   0  11    1.39    2.93
  12   0 -10   -1.59    2.00
 -12   0  10    1.70    4.42
 -12   0   9   47.29   12.50
 -12   0   9   33.80    8.18
 -12   0   8  109.20   18.56
 -12   0   8  101.60    8.11
 -12   0   7   34.18   10.27
 -12   0   7   27.24    9.05
 -12   0   6  127.28    8.79
 -12   0   6  105.17    5.90
 -12   0   5   46.70   14.95
 -12   0   5   46.97   14.39
 -12   0   4    7.94    6.31
 -12   0   4    6.75    2.82
 -12   0   3   -0.87    4.92
 -12   0   3   -3.81    4.07
 -12   0   2    3.86    6.24
 -12   0   2    3.13    4.47
 -12   0   1    8.84    7.36
 -12   0   1    6.86    4.62
 -12   0   0   33.20    9.58
 -12   0   0   14.74    9.19
 -12   0  -1    4.60    6.37
 -12   0  -1    1.02    4.62
 -12   0  -2    4.08    4.38
 -12   0  -2    7.67    7.02
 -12   0  -3    4.42    5.43
 -12   0  -3   -2.12    6.82
 -12   0  -4   14.10    4.92
 -12   0  -4    3.80    9.05
 -12   0  -5  179.53   15.57
 -12   0  -5  192.99   21.25
 -12   0  -6   -0.88    2.94
 -12   0  -6    4.45    4.14
 -12  -1  17  153.66   27.89
 -12  -1  16   93.27   35.03
 -12  -1  15   10.22    4.73
 -12  -1  14    8.57    5.72
 -12  -1  13    1.36    3.88
 -12  -1  12   69.13   19.74
 -12  -1  11  222.51   23.91
 -12  -1  10    3.63    4.93
 -12  -1  10    3.61    2.20
 -12  -1   9  107.85   26.97
 -12  -1   9  131.90    4.55
 -12  -1   8   -0.94    6.07
 -12  -1   8    4.61    3.78
 -12  -1   7   35.28    9.42
 -12  -1   7   29.11   13.11
 -12  -1   6    5.78    4.20
 -12  -1   6    1.67    2.18
 -12  -1   5   -0.27    6.89
 -12  -1   5    0.16    2.12
 -12  -1   4   21.95    5.81
 -12  -1   4    7.89    3.49
 -12  -1   3    1.95    5.56
 -12  -1   3    3.14    6.24
 -12  -1   2   22.61    7.73
 -12  -1   2   13.87    4.50
 -12  -1   1   43.57   12.68
 -12  -1   1   44.97   13.04
 -12  -1   0   14.19    6.30
 -12  -1   0   16.75    6.43
 -12  -1  -1   20.33    8.06
 -12  -1  -1   20.26    8.03
 -12  -1  -2   30.25   10.09
 -12  -1  -2   35.03    9.68
 -12  -1  -3    6.37    5.02
 -12  -1  -3    0.53    7.08
 -12  -1  -4    5.81    4.91
 -12  -1  -4    7.31    6.84
 -12  -1  -5    6.85    4.42
 -12  -1  -5   11.95    9.99
 -12  -2  17   33.72   17.14
 -12  -2  16   40.56    9.45
 -12  -2  15   14.21    7.52
 -12  -2  14   28.77    9.98
 -12  -2  13   62.39   17.25
 -12  -2  12  236.52   16.24
 -12  -2  11   16.00    7.44
 -12  -2  10   28.83    9.74
 -12  -2  10   16.52    6.27
 -12  -2   9    2.68    2.82
 -12  -2   9    1.74    1.85
 -12  -2   8    0.13    3.09
 -12  -2   8   -0.20    1.37
 -12  -2   7    2.69    7.44
 -12  -2   7    1.15    2.51
 -12  -2   6   46.12   10.23
 -12  -2   6   33.75   12.65
 -12  -2   5    6.07    5.41
 -12  -2   5    9.08    5.12
 -12  -2   4   -0.92    5.42
 -12  -2   4    6.19    5.05
 -12  -2   3   49.27   14.81
 -12  -2   3   47.31   13.53
 -12  -2   2   14.13    6.36
 -12  -2   2    8.74    6.50
 -12  -2   1    6.50    6.09
 -12  -2   1    4.47    2.77
 -12  -2   0   12.93    7.39
 -12  -2   0   15.16    6.76
 -12  -2  -1   29.74   14.40
 -12  -2  -1   41.71   16.73
 -12  -2  -2   86.88   25.75
 -12  -2  -2   79.43   36.15
 -12  -2  -3    6.42    4.46
 -12  -2  -3   19.00   17.46
 -12  -2  -4    8.95    4.15
 -12  -2  -4   14.26   11.33
 -12  -3  17   16.47    8.46
 -12  -3  16  121.10   16.59
 -12  -3  15  223.79   73.39
 -12  -3  14   71.64    9.09
 -12  -3  13   15.41    7.96
  12   3 -12   82.88   12.76
 -12  -3  12   97.46   22.75
 -12  -3  11   18.15    7.72
 -12  -3  11    6.65    2.14
 -12  -3  10   26.67   10.09
 -12  -3  10   10.81    3.17
 -12  -3   9   -0.51    7.39
 -12  -3   9   10.63    6.09
 -12  -3   8   17.72    9.55
 -12  -3   8   17.97    5.92
 -12  -3   7    3.12    2.83
 -12  -3   7    5.21    3.58
 -12  -3   6   -1.37    5.97
 -12  -3   6    5.20    2.75
 -12  -3   5  140.00   10.80
 -12  -3   5  114.32   12.89
 -12  -3   4   49.47   10.66
 -12  -3   4   38.16   13.61
 -12  -3   3    0.42    3.75
 -12  -3   3   10.02    8.33
 -12  -3   2   -1.41    5.53
 -12  -3   2    2.48    3.21
 -12  -3   1   11.04    8.03
 -12  -3   1    3.98    6.39
 -12  -3   0    5.80    4.34
 -12  -3   0   -0.00    6.38
 -12  -3  -1    5.75    4.33
 -12  -3  -1    6.03    6.56
 -12  -3  -2    7.90    3.30
 -12  -3  -2    4.72    5.83
 -12  -3  -3    2.88    4.21
 -12  -3  -3    8.95    6.74
 -12  -4  16   20.21    9.15
 -12  -4  15  277.49   11.29
 -12  -4  14   26.79    9.35
 -12  -4  13   23.77   10.64
 -12  -4  12   -3.29    6.37
 -12  -4  11    6.41    3.88
 -12  -4  11    5.35    2.77
 -12  -4  10   63.32   13.38
 -12  -4  10   48.95   19.21
 -12  -4   9    2.13    3.91
 -12  -4   9    3.73    2.92
 -12  -4   8  123.26   27.93
 -12  -4   8  130.68    7.91
 -12  -4   7    4.28    3.71
 -12  -4   7   -0.80    4.58
 -12  -4   6    3.22    2.67
 -12  -4   6    4.10    4.25
 -12  -4   5   -1.47    7.81
 -12  -4   5    1.69    3.99
 -12  -4   4    0.61    3.69
 -12  -4   4    2.57    2.82
 -12  -4   3  119.31   14.46
 -12  -4   3   63.36   27.53
 -12  -4   2   61.81   18.76
 -12  -4   2   49.80   21.64
 -12  -4   1   -5.28    4.52
 -12  -4   1    3.44    2.96
 -12  -4   0   58.15   29.07
 -12  -4   0  102.65   18.68
 -12  -4  -1    2.82    2.61
 -12  -4  -1    0.26    4.10
 -12  -4  -2   21.95    5.92
 -12  -5  16   -1.26    7.22
 -12  -5  15   14.73    8.62
 -12  -5  14    7.24    5.26
  12   5 -13   11.25    6.46
 -12  -5  13   14.43    5.53
 -12  -5  12   -0.53    7.25
 -12  -5  12    4.13    2.47
 -12  -5  11   26.10    9.20
 -12  -5  11   16.00    7.36
 -12  -5  10   11.46    4.32
 -12  -5  10    6.42    3.76
 -12  -5   9   30.13   10.00
 -12  -5   9   28.69   11.38
 -12  -5   8    4.19    4.27
 -12  -5   8   12.37    4.76
 -12  -5   7   91.02   26.71
 -12  -5   7   74.18   25.49
 -12  -5   6   30.71   10.17
 -12  -5   6   13.39    6.01
 -12  -5   5   48.00   22.76
 -12  -5   5    5.83    3.01
 -12  -5   4   54.99   24.77
 -12  -5   4   78.32   21.15
 -12  -5   3    1.49    1.98
 -12  -5   3    1.02    3.26
 -12  -5   2   64.81   30.83
 -12  -5   2  115.66   21.12
 -12  -5   1   33.05   16.06
 -12  -5   1   44.39   25.05
 -12  -5   0   24.22   13.79
 -12  -5   0   49.40   19.07
 -12  -5  -1   35.38    9.84
 -12  -6  15    8.89    6.15
 -12  -6  14    3.73    5.26
  12   6 -13   53.34    7.40
 -12  -6  13   43.61   22.59
 -12  -6  12   52.76   22.88
 -12  -6  12   47.49   18.24
 -12  -6  11    1.02    2.78
 -12  -6  11    6.25    3.09
 -12  -6  10   -7.35    5.62
 -12  -6  10    5.23    3.05
 -12  -6   9   11.85    3.42
 -12  -6   9    8.47    4.73
 -12  -6   8   20.98    6.64
 -12  -6   8    8.66    4.46
 -12  -6   7   11.28    7.62
 -12  -6   7   17.82   11.25
 -12  -6   6   16.07    7.15
 -12  -6   6   11.33    6.03
 -12  -6   5    5.98    5.15
 -12  -6   5    3.94    2.64
 -12  -6   4    8.34    5.19
 -12  -6   4    3.63    3.76
 -12  -6   3    1.63    4.41
 -12  -6   3    6.80    3.04
 -12  -6   2    5.87    2.96
 -12  -6   2   -2.19    5.84
 -12  -6   1   19.25    9.25
  12   7 -14    9.47    5.74
 -12  -7  14   14.09    5.83
 -12  -7  13    6.18    5.86
 -12  -7  12   50.51   16.65
 -12  -7  12   44.82   18.52
 -12  -7  11   29.32    9.96
 -12  -7  11   20.59   10.10
 -12  -7  10    7.48    6.23
 -12  -7  10    3.80    2.30
 -12  -7   9  109.05   18.81
 -12  -7   9   50.06   24.57
 -12  -7   8   54.62   20.24
 -12  -7   8   37.19   16.57
 -12  -7   7   53.04   19.38
 -12  -7   7   41.16   17.95
 -12  -7   6   -2.20    5.34
 -12  -7   6    2.59    2.90
 -12  -7   5   19.92    6.15
 -12  -7   5   11.27    4.16
 -12  -7   4   35.49   10.64
 -12  -7   3    2.31    2.55
 -12  -7   3   -0.04    5.19
 -12  -8  11    9.50    5.57
 -12  -8  11    8.33    5.41
 -12  -8  10   -3.97    5.67
 -12  -8  10    2.49    3.12
 -12  -8   9    2.19    3.55
 -12  -8   9    0.71    3.05
 -12  -8   8    8.89    6.94
 -12  -8   8    8.55    4.52
 -12  -8   7   24.80    9.07
 -12  -8   7    9.29    6.12
 -12  -8   6    0.16    4.12
 -12  -8   6   -3.49    4.69
 -13  16   2   55.67    9.89
 -13  16   1    3.23    4.73
 -13  16   0   -6.59    4.86
 -13  16  -1    6.82    3.47
 -13  16  -2   21.98    6.79
 -13  16  -3    4.53    5.28
 -13  16  -4    3.91    3.60
 -13  15   4  189.72    8.72
 -13  15   3   22.52    6.81
 -13  15   2    2.99    2.17
 -13  15   1   12.08    3.98
 -13  15   0    6.86    5.02
 -13  15  -1   40.71   15.60
 -13  15  -2   -3.11    6.14
 -13  15  -3    5.38    7.30
 -13  15  -4   53.96   19.00
 -13  15  -5   62.98   22.07
 -13  15  -5   37.74   14.74
 -13  15  -6   -1.28    7.13
 -13  15  -6    7.59    5.31
 -13  14   6    3.03    3.90
 -13  14   5  337.51   12.32
 -13  14   4   49.90   11.49
 -13  14   3   12.73    5.15
 -13  14   2    7.79    5.07
 -13  14   1    4.01    4.76
 -13  14   0    3.20    3.80
 -13  14  -1   -0.72    7.24
 -13  14  -2   17.53    7.47
 -13  14  -3   25.23    7.50
 -13  14  -4    1.35    3.71
 -13  14  -4    4.25    4.37
 -13  14  -5   30.41   12.60
 -13  14  -5   10.23    7.51
 -13  14  -6   14.72    7.99
 -13  14  -6    3.90    5.53
 -13  14  -7   29.73   12.56
 -13  14  -7   19.32    8.87
 -13  13   7    3.54    4.31
 -13  13   6   -4.30    4.69
 -13  13   5    5.11    7.55
 -13  13   4   12.86    6.98
 -13  13   3    5.79    7.41
 -13  13   2   -2.38    5.46
 -13  13   1   15.54    6.91
 -13  13   0   16.69   10.58
 -13  13  -1   78.71   20.25
 -13  13  -2   36.83   10.40
 -13  13  -3   29.21   12.59
 -13  13  -3   27.27   12.25
 -13  13  -4    9.02    5.46
 -13  13  -4    7.11    5.56
 -13  13  -5   17.87    7.15
 -13  13  -5   14.93    7.34
 -13  13  -6   16.62    9.41
 -13  13  -6    1.63    5.94
 -13  13  -7   22.39   12.13
 -13  13  -7   11.24    5.69
 -13  12   8   -2.12    4.07
 -13  12   7    5.73    4.88
 -13  12   6   -0.30    5.13
 -13  12   5   17.05    7.77
 -13  12   4    1.07    6.17
 -13  12   3   14.12    8.93
 -13  12   2   16.47    9.59
 -13  12   1   -4.67    6.85
 -13  12   0    1.03    7.07
 -13  12  -1    2.91    4.48
 -13  12  -2   -4.20    7.02
 -13  12  -2    7.34    3.81
 -13  12  -3    8.11    7.18
 -13  12  -3    4.18    5.00
 -13  12  -4   -4.31    7.34
 -13  12  -4    2.32    5.69
 -13  12  -5    5.69    7.29
 -13  12  -5   -0.90    5.57
 -13  12  -6    2.26    6.11
 -13  12  -6   -4.58    6.18
 -13  12  -7   15.72    8.29
 -13  12  -7   -2.11    5.89
 -13  12  -8    0.63    7.40
 -13  12  -8    9.95    5.40
 -13  11  10   -1.86    3.85
 -13  11   9   -1.30    4.16
 -13  11   8    2.16    4.04
 -13  11   7   -5.79    4.95
 -13  11   6    0.63    5.58
 -13  11   5    4.49    4.49
 -13  11   4   23.93    9.34
 -13  11   3    5.53    6.87
 -13  11   2   13.65    6.87
 -13  11   1   -2.97    6.96
 -13  11   0    2.70    6.86
 -13  11  -1   33.29   11.23
 -13  11  -1   16.74    7.80
 -13  11  -2    9.44    4.56
 -13  11  -2    4.85    3.43
 -13  11  -3   11.51   10.35
 -13  11  -3    6.28    5.62
 -13  11  -4   25.14    8.45
 -13  11  -4   29.56   11.02
 -13  11  -5    8.17    7.46
 -13  11  -5    3.99    3.30
 -13  11  -6    9.64    9.19
 -13  11  -6   11.00    6.19
 -13  11  -7   32.65   10.83
 -13  11  -7   28.38    9.69
 -13  11  -8   12.10    7.52
 -13  11  -8    4.18    6.15
 -13  10  11   -1.52    3.97
 -13  10  10    5.07    4.94
 -13  10   9    2.31    4.37
 -13  10   8   17.15    7.52
 -13  10   7    0.38    6.20
 -13  10   6    3.96    5.52
 -13  10   5    7.89    9.23
 -13  10   4    7.58    6.47
 -13  10   3   31.41    8.76
 -13  10   2    7.79    6.44
 -13  10   1   14.47    5.07
 -13  10   0   23.45    9.31
 -13  10   0   11.00    5.85
 -13  10  -1   57.13   10.22
 -13  10  -1   32.75   13.84
 -13  10  -2   58.28   18.28
 -13  10  -2   66.66   19.13
 -13  10  -3    0.76    4.68
 -13  10  -3    3.02    5.26
 -13  10  -4   57.74   13.82
 -13  10  -4   58.40   11.88
 -13  10  -5    8.08    5.51
 -13  10  -5    3.08    3.69
 -13  10  -6   13.35    7.30
 -13  10  -6   -0.92    6.47
 -13  10  -7   12.89   11.69
 -13  10  -7    5.44    4.45
 -13  10  -8   18.12    8.08
 -13  10  -8   12.34    6.21
 -13   9  12   -1.19    2.65
 -13   9  11    7.68    4.19
 -13   9  10    3.68    4.05
 -13   9   9    5.31    6.54
 -13   9   8    5.82    4.81
 -13   9   7    1.25    6.52
 -13   9   6   35.13    8.78
 -13   9   5   45.63    9.63
 -13   9   4   -2.60    6.86
 -13   9   3    1.99    6.54
 -13   9   2   64.73    9.02
 -13   9   1   26.75    6.01
 -13   9   1   16.39    2.66
 -13   9   0   41.07   14.89
 -13   9   0   34.35   15.46
 -13   9  -1  100.24   12.09
 -13   9  -1   84.60    9.78
 -13   9  -2   47.69   10.49
 -13   9  -2   29.12    5.99
 -13   9  -3   53.20   15.40
 -13   9  -3   40.52   15.81
 -13   9  -4   18.12    7.58
 -13   9  -4    3.11    4.07
 -13   9  -5   84.48   30.45
 -13   9  -5  140.40   10.79
 -13   9  -6    6.51    4.42
 -13   9  -6   -3.69    6.51
 -13   9  -7   39.19   13.76
 -13   9  -7   29.50   10.18
 -13   9  -8    5.66    6.36
 -13   9  -8    6.45    4.72
 -13   8  13    2.45    4.02
 -13   8  12    9.97    5.29
 -13   8  11   -1.44    5.24
 -13   8  10   -0.50    3.93
 -13   8   9    6.67    5.36
 -13   8   8   -0.64    3.03
 -13   8   7   -3.80    6.45
 -13   8   6   54.21    8.98
 -13   8   5    5.86    3.06
 -13   8   4  107.32   28.96
 -13   8   3    9.23    6.77
 -13   8   2    0.42    6.31
 -13   8   2   -0.57    1.11
 -13   8   1    2.95    6.85
 -13   8   1    4.33    3.40
 -13   8   0   38.10   12.26
 -13   8   0   20.07    7.37
 -13   8  -1   27.70   11.92
 -13   8  -1   32.65   13.28
 -13   8  -2   21.19   11.98
 -13   8  -2   11.49    4.60
 -13   8  -3    4.81    3.78
 -13   8  -3    0.65    4.82
 -13   8  -4   14.92    7.10
 -13   8  -4   18.80    8.52
 -13   8  -5    5.15    2.03
 -13   8  -5   13.74    6.12
 -13   8  -6   -1.19    7.73
 -13   8  -6   12.04    9.77
 -13   8  -7   13.78    9.28
 -13   8  -7    5.79    6.41
 -13   8  -8   -3.37    8.66
 -13   8  -8   10.98    6.90
 -13   7  14   68.47   21.69
 -13   7  13  119.85   12.40
 -13   7  12   10.03    7.95
 -13   7  11    9.00    3.68
 -13   7  10   79.70   30.16
 -13   7   9   15.45    6.20
 -13   7   8   48.90   20.06
 -13   7   7   80.09   14.43
 -13   7   6    8.68    6.89
 -13   7   5   25.04   11.52
 -13   7   4  191.38   10.32
 -13   7   3   82.57   12.19
 -13   7   2  104.73    9.47
 -13   7   2  101.79    8.13
 -13   7   1  256.35   11.49
 -13   7   1  232.30   12.34
 -13   7   0   74.34   10.08
 -13   7   0   74.33    6.70
 -13   7  -1   62.94   15.00
 -13   7  -1   54.16   16.44
 -13   7  -2   21.38   10.32
 -13   7  -2   24.62    6.41
 -13   7  -3   -3.69    8.05
 -13   7  -3    3.19    7.68
 -13   7  -4   55.83    8.25
 -13   7  -4   36.45   19.59
 -13   7  -5  210.32   17.81
 -13   7  -5  200.88   12.91
 -13   7  -6   -8.57    7.28
 -13   7  -6    0.61    3.63
 -13   7  -7   13.13    4.70
 -13   7  -7    4.19    3.65
 -13   7  -8   10.33    7.46
 -13   7  -8    8.12    6.91
 -13   6  15   74.32   19.48
 -13   6  14  190.62   16.34
 -13   6  13   13.79    7.10
 -13   6  12   10.12    6.52
 -13   6  11   -3.23    6.33
 -13   6  10    1.28    3.95
 -13   6   9   -9.66    6.30
 -13   6   8    6.82    7.42
 -13   6   7   -0.82    7.03
 -13   6   6    7.51    7.09
 -13   6   5   11.13    6.86
 -13   6   4  382.56   12.72
 -13   6   3    3.20    3.68
 -13   6   3    3.41    1.63
 -13   6   2   87.69   11.43
 -13   6   2   70.28   11.14
 -13   6   1   46.61   12.92
 -13   6   1   19.23    7.71
 -13   6   0   16.61    7.08
 -13   6   0   10.66    5.78
 -13   6  -1  146.69   13.06
 -13   6  -1  125.75   12.01
 -13   6  -2   25.99    8.65
 -13   6  -2   12.52    7.14
 -13   6  -3   31.97   13.05
 -13   6  -3   27.45    9.54
 -13   6  -4   92.26   17.25
 -13   6  -4   91.03   15.57
 -13   6  -5   15.25   10.45
 -13   6  -5   29.16    7.10
 -13   6  -6   89.29   17.14
 -13   6  -6   74.63   14.88
 -13   6  -7   32.31   19.84
 -13   6  -7   49.41    9.68
 -13   6  -8    4.08    4.34
 -13   6  -8    7.90    5.74
 -13   5  15  112.68   32.20
 -13   5  14    9.42    6.05
 -13   5  13    8.88    9.77
 -13   5  12    9.93    5.46
 -13   5  11    8.00    4.49
 -13   5  10   25.34   13.09
 -13   5   9   27.78   10.56
 -13   5   8   12.89    6.45
 -13   5   7   74.86   11.81
 -13   5   6  324.59   27.04
 -13   5   5   84.85   11.23
 -13   5   4    6.68    6.29
 -13   5   4   -0.78    1.70
 -13   5   3   14.55    7.02
 -13   5   3   11.21    3.79
 -13   5   2   31.20   10.43
 -13   5   2   25.77   10.70
 -13   5   1   -2.39    6.84
 -13   5   1    8.10    3.26
 -13   5   0    2.95    6.63
 -13   5   0   -4.46    4.15
 -13   5  -1   21.65    7.39
 -13   5  -1    2.90    2.41
 -13   5  -2    8.82    5.12
 -13   5  -2   -1.75    4.90
 -13   5  -3    2.56    4.29
 -13   5  -3   10.80    6.05
 -13   5  -4   34.91   10.24
 -13   5  -4   18.31    8.75
 -13   5  -5   14.72    8.22
 -13   5  -5    8.85    5.50
 -13   5  -6    2.64    7.06
 -13   5  -6   -5.04    6.55
 -13   5  -7   -3.95    7.71
 -13   5  -7   -2.32    6.51
 -13   4  16   15.98    7.39
 -13   4  15   -0.82    5.10
 -13   4  14   41.37   15.90
 -13   4  13   -3.24    6.28
 -13   4  12   10.82    8.14
 -13   4  11    6.31    6.78
 -13   4  10   11.50    7.74
 -13   4   9    6.78    7.32
 -13   4   8    0.48    4.67
 -13   4   7   12.24    4.82
 -13   4   6   15.48   10.86
 -13   4   5   -1.75    6.83
 -13   4   5   -0.13    0.77
 -13   4   4    2.54    6.82
 -13   4   4    3.15    1.66
 -13   4   3   13.08    7.58
 -13   4   3    4.69    2.07
 -13   4   2   -3.38    6.42
 -13   4   2   -2.51    3.12
 -13   4   1  296.30   13.84
 -13   4   1  300.01   10.41
 -13   4   0   -0.92    7.63
 -13   4   0    0.99    3.56
 -13   4  -1   24.79   10.89
 -13   4  -1    8.89    5.43
 -13   4  -2   16.19    9.55
 -13   4  -2    0.42    6.27
 -13   4  -3    0.16    6.61
 -13   4  -3    2.84    7.11
 -13   4  -4   84.98   26.33
 -13   4  -4   66.53   29.94
 -13   4  -5   12.81    6.35
 -13   4  -5    9.30    5.91
 -13   4  -6   -0.23    7.36
 -13   4  -6    7.52    5.18
 -13   4  -7   32.62   18.19
 -13   3  16   12.12    4.85
 -13   3  15   94.33   22.59
 -13   3  14    9.46    6.68
 -13   3  13   20.59    9.60
 -13   3  12   25.75    9.69
 -13   3  11   54.61   15.40
 -13   3  10   14.05    5.88
 -13   3   9   15.97    7.34
 -13   3   8   94.85   11.93
 -13   3   7   10.77    7.69
 -13   3   6  111.05   12.50
 -13   3   5  204.02   14.69
 -13   3   5  215.41    4.47
 -13   3   4   -5.79    6.33
 -13   3   4   -0.87    2.38
 -13   3   3   13.67    8.80
 -13   3   3   -0.68    2.84
 -13   3   2   31.12   10.07
 -13   3   2   41.46    5.96
 -13   3   1   -0.43    7.22
 -13   3   1   -1.31    4.07
 -13   3   0   41.94   12.63
 -13   3   0   35.74   13.77
 -13   3  -1    8.19    6.41
 -13   3  -1   17.97   15.90
 -13   3  -2   25.09    9.88
 -13   3  -2   15.89    5.95
 -13   3  -3    1.25    7.37
 -13   3  -3    8.98    6.90
 -13   3  -4   14.56    8.50
 -13   3  -4    0.15    4.50
 -13   3  -5    7.42    5.86
 -13   3  -5    5.71    4.56
 -13   3  -6    1.79    2.95
 -13   3  -6   10.01    7.55
 -13   2  16   10.22    5.21
 -13   2  15    9.95    5.53
 -13   2  14   12.50    7.68
 -13   2  13   11.39    3.55
 -13   2  12    1.25    4.83
 -13   2  11   42.64   14.33
 -13   2  10    8.34    5.19
 -13   2   9   19.00    6.64
 -13   2   8    2.07    5.72
 -13   2   7   90.30   28.57
 -13   2   6   96.49   11.91
 -13   2   6   85.46    4.38
 -13   2   5   44.27   17.53
 -13   2   5   32.71    8.61
 -13   2   4  102.34   10.91
 -13   2   4   80.99   10.79
 -13   2   3  133.13   12.53
 -13   2   3  118.20    6.60
 -13   2   2    8.49    7.91
 -13   2   2    4.12    4.31
 -13   2   1    6.37    6.98
 -13   2   1    3.91    6.72
 -13   2   0   85.59   11.78
 -13   2   0   90.13    9.41
 -13   2  -1  127.89   11.41
 -13   2  -1  121.28   12.85
 -13   2  -2    5.72    7.63
 -13   2  -2   13.56    8.34
 -13   2  -3    2.45    5.83
 -13   2  -3   -1.58    6.63
 -13   2  -4   -1.43    5.73
 -13   2  -4    1.46    4.77
 -13   2  -5   -6.17    5.72
 -13   2  -5    1.85    4.45
 -13   2  -6    5.02    5.00
 -13   2  -6   13.13    6.08
 -13   1  16   -0.64    6.02
 -13   1  15   13.17    7.94
 -13   1  14    0.40    4.04
 -13   1  13   40.80   14.14
 -13   1  12    1.80    6.48
 -13   1  11    1.34    4.38
 -13   1  10   69.85   25.23
 -13   1   9   18.79    6.71
 -13   1   8   55.02   12.80
 -13   1   7  200.73   15.59
 -13   1   7  159.27    3.92
 -13   1   6   14.47    4.85
 -13   1   5    5.95    6.39
 -13   1   5   10.51    3.13
 -13   1   4   90.36   13.11
 -13   1   4   77.55   13.94
 -13   1   3    0.11    7.21
 -13   1   3    4.05    4.19
 -13   1   2    2.38    6.50
 -13   1   2    9.48   11.88
 -13   1   1   10.68    6.36
 -13   1   1   14.52    5.70
 -13   1   0   80.80   14.17
 -13   1   0   99.31   10.41
 -13   1  -1   12.59    8.00
 -13   1  -1   -0.78    6.33
 -13   1  -2   25.87   10.59
 -13   1  -2    3.86    6.33
 -13   1  -3   52.63   28.99
 -13   1  -3   96.27   17.64
 -13   1  -4    8.41    7.87
 -13   1  -4    6.76    5.60
 -13   1  -5    3.17    2.79
 -13   1  -5    7.93    5.26
 -13   0  16    2.83    4.63
 -13   0  15   10.73    6.30
 -13   0  14    1.88    3.64
 -13   0  13   -0.07    5.92
 -13   0  12    6.53    6.34
 -13   0  11   63.40   24.45
 -13   0  10  125.18   13.58
 -13   0   9   67.89   21.40
 -13   0   8   96.11   20.40
 -13   0   8   87.14    4.22
 -13   0   7    7.22    4.56
 -13   0   7    0.98    1.56
 -13   0   6   84.73   13.32
 -13   0   6   91.77    7.67
 -13   0   5   53.56   14.30
 -13   0   5   36.26   12.58
 -13   0   4   26.46   10.08
 -13   0   4   18.85    6.36
 -13   0   3   47.35   10.62
 -13   0   3   23.74    9.69
 -13   0   2  239.36   11.95
 -13   0   2  200.97   19.01
 -13   0   1   40.01   12.35
 -13   0   1   42.05   15.23
 -13   0   0   17.24    7.09
 -13   0   0    9.87    6.20
 -13   0  -1   20.73    7.54
 -13   0  -1    2.10    4.71
 -13   0  -2    4.21    5.88
 -13   0  -2    7.22    8.82
 -13   0  -3   39.84   10.52
 -13   0  -3   47.54   11.00
 -13   0  -4   18.90    4.42
 -13   0  -4    1.23    6.05
 -13  -1  16    2.78    3.56
 -13  -1  15   12.62    5.51
 -13  -1  14   18.04    7.86
 -13  -1  13    0.02    4.09
 -13  -1  12   33.12   13.48
 -13  -1  11    7.94    5.84
 -13  -1  10   35.82   10.09
 -13  -1   9   11.61    7.00
 -13  -1   9   10.54    3.68
 -13  -1   8   26.99    6.83
 -13  -1   8   22.89    8.32
 -13  -1   7   64.97   18.96
 -13  -1   7   70.08    6.57
 -13  -1   6   42.43   14.25
 -13  -1   6   22.64    9.99
 -13  -1   5    8.13    6.93
 -13  -1   5    4.86    4.03
 -13  -1   4   44.18   12.86
 -13  -1   4   37.85   15.60
 -13  -1   3    6.69    6.73
 -13  -1   3    7.41    4.00
 -13  -1   2   61.84   18.46
 -13  -1   2   52.85   17.17
 -13  -1   1   11.52    6.30
 -13  -1   1    0.59    4.86
 -13  -1   0   -1.77    6.00
 -13  -1   0    2.43    7.03
 -13  -1  -1   16.57    8.13
 -13  -1  -1    4.27    3.44
 -13  -1  -2   -4.24    5.28
 -13  -1  -2   -0.67    5.99
 -13  -1  -3    5.95    4.70
 -13  -1  -3    1.48    3.91
 -13  -2  16   -1.66    5.90
 -13  -2  15  113.74   14.32
 -13  -2  14    9.98    6.63
 -13  -2  13   -2.20    7.27
 -13  -2  12    2.14    4.40
 -13  -2  11   46.92    7.89
 -13  -2  10   10.90    8.61
 -13  -2   9   -3.06    6.66
 -13  -2   9    2.47    3.15
 -13  -2   8    2.23    4.37
 -13  -2   8    7.70    4.05
 -13  -2   7   -2.26    7.11
 -13  -2   7    1.87    1.90
 -13  -2   6   75.71   24.32
 -13  -2   6   57.78   17.26
 -13  -2   5   -0.87    6.36
 -13  -2   5    1.47    3.33
 -13  -2   4    5.85    8.49
 -13  -2   4    1.27    4.61
 -13  -2   3    3.60    6.99
 -13  -2   2   12.57    6.60
 -13  -2   2    6.56    7.92
 -13  -2   1   31.11   12.75
 -13  -2   1   19.23   10.89
 -13  -2   0   32.73    9.11
 -13  -2   0   16.65    6.12
 -13  -2  -1    0.59    4.37
 -13  -2  -1    5.10    2.10
 -13  -2  -2    8.73    6.05
 -13  -2  -2    7.76    6.21
 -13  -3  16    5.08    5.87
 -13  -3  15   26.49   11.22
 -13  -3  14    2.06    5.23
 -13  -3  13    9.15    9.19
 -13  -3  12   54.87   29.13
 -13  -3  11   24.11   10.92
 -13  -3  10    8.62    6.82
 -13  -3  10    2.08    2.05
 -13  -3   9   44.22   12.11
 -13  -3   9   34.27   11.21
 -13  -3   8    6.59    3.24
 -13  -3   8    6.31    3.30
 -13  -3   7  185.13   12.83
 -13  -3   7  179.60   12.34
 -13  -3   6   48.65   14.46
 -13  -3   6   52.95   17.24
 -13  -3   5   16.11    9.15
 -13  -3   5    5.43    3.21
 -13  -3   4    9.07    5.97
 -13  -3   4    3.66    2.81
 -13  -3   3    5.93    5.04
 -13  -3   3    5.28    4.66
 -13  -3   2   59.65   16.47
 -13  -3   2   44.29   17.51
 -13  -3   1   19.37   13.84
 -13  -3   1   57.92   11.94
 -13  -3   0    4.50    2.91
 -13  -3   0    2.76    5.83
 -13  -3  -1    6.53    2.37
 -13  -3  -1   -0.75    2.47
 -13  -4  15   19.68   10.58
 -13  -4  14    0.70    6.56
 -13  -4  13    0.14    6.28
 -13  -4  12    8.78    7.32
 -13  -4  11   14.47   10.23
 -13  -4  10   71.20   21.14
 -13  -4  10   71.52   14.86
 -13  -4   9   30.50    8.15
 -13  -4   9   18.96    8.55
 -13  -4   8   54.84   10.22
 -13  -4   8   33.86   15.05
 -13  -4   7   -0.15    5.82
 -13  -4   7   -1.12    4.28
 -13  -4   6   24.25   14.33
 -13  -4   6   31.54   10.59
 -13  -4   5   41.76   18.77
 -13  -4   5   73.42   26.33
 -13  -4   4   12.55    5.84
 -13  -4   4    9.38    6.67
 -13  -4   3   -0.46    3.89
 -13  -4   3    6.99    4.49
 -13  -4   2   10.57    5.91
 -13  -4   2    0.27    1.95
 -13  -4   1    9.31    6.61
 -13  -4   1   11.98    4.48
 -13  -4   0    1.34    4.35
 -13  -4   0   -0.42    5.36
 -13  -5  14   35.56   11.49
 -13  -5  13   13.36    9.80
 -13  -5  12   40.23    9.28
 -13  -5  11   58.02   17.54
 -13  -5  11   36.60   15.66
 -13  -5  10    0.16    6.35
 -13  -5  10    2.88    2.41
 -13  -5   9   11.55    5.44
 -13  -5   9    6.69    3.55
 -13  -5   8    6.61    3.60
 -13  -5   8   -2.85    4.19
 -13  -5   7   65.99   23.11
 -13  -5   7   57.46   28.16
 -13  -5   6    2.66    3.31
 -13  -5   6    3.34    3.54
 -13  -5   5    1.55    3.82
 -13  -5   5   -0.65    3.09
 -13  -5   4   -3.34    5.15
 -13  -5   4    1.04    2.50
 -13  -5   3   33.40   13.68
 -13  -5   3   24.09   10.89
 -13  -5   2    6.30    5.40
 -13  -5   2   -1.14    5.22
 -13  -6  13    1.02    4.14
 -13  -6  12   31.32    8.94
 -13  -6  11    9.19    6.58
 -13  -6  11    8.64    3.21
 -13  -6  10    5.05    4.19
 -13  -6  10    3.43    2.84
 -13  -6   9    9.07    5.19
 -13  -6   9    5.68    5.31
 -13  -6   8    0.88    3.91
 -13  -6   8    2.41    5.34
 -13  -6   7   55.66   16.92
 -13  -6   7   39.13   16.45
 -13  -6   6   26.84   10.79
 -13  -6   6   19.37   10.46
 -13  -6   5   36.99   11.29
 -13  -6   5   30.36   10.59
 -13  -6   4   12.29    4.91
 -13  -6   4   11.48    6.17
 -13  -7   9    5.05    5.52
 -13  -7   9    5.32    3.73
 -14  15   4   10.70    4.56
 -14  15   3   -1.93    5.00
 -14  15   2    1.46    5.90
 -14  15   1    9.22    5.22
 -14  15   0    5.39    2.50
 -14  15  -1    3.20    5.96
 -14  15  -2   -7.53    6.81
 -14  15  -3    2.82    7.45
 -14  14   6   -1.80    4.19
 -14  14   5    6.20    6.85
 -14  14   4   -0.95    5.11
 -14  14   3    2.10    5.42
 -14  14   2    4.65    5.54
 -14  14   1   -0.67    4.19
 -14  14   0    2.89    3.03
 -14  14  -1   15.72    9.73
 -14  14  -2   48.07   16.78
 -14  14  -3   42.31   23.44
 -14  14  -4   14.84    6.48
 -14  14  -5    5.71    3.09
 -14  13   6   -4.15    5.06
 -14  13   5    0.42    5.51
 -14  13   4   -3.52    5.57
 -14  13   3    2.17    5.92
 -14  13   2   15.57    9.55
 -14  13   1   -0.15    7.26
 -14  13   0   20.63    8.32
 -14  13  -1   43.34   22.83
 -14  13  -2   -0.82    6.91
 -14  13  -3    6.40    3.43
 -14  13  -4   -1.76    7.27
 -14  13  -5    9.50    8.61
 -14  13  -5   -1.95    4.61
 -14  12   9    4.62    3.10
 -14  12   8   24.29   17.10
 -14  12   7    2.40    3.19
 -14  12   6   10.28    7.62
 -14  12   5   15.98    5.95
 -14  12   4   17.11    6.41
 -14  12   3    7.50    6.99
 -14  12   2   14.52    7.06
 -14  12   1    7.36    6.84
 -14  12   0    9.95    7.73
 -14  12  -1    1.30    4.17
 -14  12  -2   13.16    5.77
 -14  12  -3    6.05    4.25
 -14  12  -3   -0.11    4.14
 -14  12  -4   -1.12    7.78
 -14  12  -4   -1.98    4.42
 -14  12  -5   12.18   10.41
 -14  12  -5   11.92    5.01
 -14  12  -6   11.02    9.11
 -14  12  -6    6.15    5.41
 -14  11  10    5.06    4.52
 -14  11   9    3.28    5.66
 -14  11   8   13.75    8.19
 -14  11   7   25.83   11.39
 -14  11   6   54.94   11.73
 -14  11   5    0.41    6.15
 -14  11   4   20.64    8.53
 -14  11   3    2.37    6.87
 -14  11   2    6.84    6.96
 -14  11   1   14.06    6.49
 -14  11   0    7.00    4.86
 -14  11  -1    7.44    6.95
 -14  11  -2    8.57    7.29
 -14  11  -2   -2.78    3.87
 -14  11  -3   13.94    9.28
 -14  11  -3    5.03    2.84
 -14  11  -4    8.04    4.70
 -14  11  -4    2.40    2.73
 -14  11  -5   13.92    7.54
 -14  11  -5   16.28    5.52
 -14  11  -6   14.60    8.95
 -14  11  -6   18.08    8.03
 -14  10  11    8.58    4.06
 -14  10  10    1.02    3.05
 -14  10   9    8.82    5.70
 -14  10   8    9.45    5.77
 -14  10   7    8.11    6.23
 -14  10   6    1.38    6.51
 -14  10   5   53.30   12.37
 -14  10   4   18.67    9.75
 -14  10   3   37.58    6.85
 -14  10   2   18.61    7.09
 -14  10   1    3.57    6.98
 -14  10   0   -0.37    6.67
 -14  10  -1   11.32    5.14
 -14  10  -1   11.37    3.64
 -14  10  -2    2.55    8.00
 -14  10  -2   -0.89    4.13
 -14  10  -3  271.18   33.19
 -14  10  -3  230.11   12.77
 -14  10  -4  122.33   27.58
 -14  10  -4   77.30   33.04
 -14  10  -5   -2.76    5.41
 -14  10  -5    6.45    3.68
 -14  10  -6   11.65    7.69
 -14  10  -6    7.96    3.88
 -14   9  12    1.05    1.49
 -14   9  11    1.98    5.36
 -14   9  10   10.18    4.84
 -14   9   9    5.25    3.21
 -14   9   8    3.03    4.30
 -14   9   7    4.27    6.62
 -14   9   6    0.93    6.96
 -14   9   5   -0.60    6.93
 -14   9   4   -7.63    7.02
 -14   9   3   76.95   29.14
 -14   9   2   12.20    7.89
 -14   9   0   26.42    9.14
 -14   9   0   19.85    4.88
 -14   9  -1    0.82    4.66
 -14   9  -1    7.81    4.83
 -14   9  -2   -4.08    8.70
 -14   9  -2    4.34    6.47
 -14   9  -3   10.77    7.15
 -14   9  -3   11.99    4.68
 -14   9  -4    4.31    8.34
 -14   9  -4    0.47    5.30
 -14   9  -5   13.68   10.42
 -14   9  -5   10.60    5.84
 -14   9  -6   -4.38    8.13
 -14   9  -6    7.59    5.32
 -14   9  -7   -7.56    6.91
 -14   9  -7   -5.00    5.48
 -14   8  13   12.53    6.80
 -14   8  12    2.56    3.08
 -14   8  11    2.43    4.23
 -14   8  10   31.25   12.88
 -14   8   9    3.45    3.44
 -14   8   8   15.14    8.29
 -14   8   7   -0.88    7.32
 -14   8   6   53.05   10.48
 -14   8   5   -0.81    6.48
 -14   8   4   50.60   10.96
 -14   8   3  189.98   11.24
 -14   8   2   17.84    9.23
 -14   8   1   -7.87    6.54
 -14   8   0   64.59    9.95
 -14   8   0   32.38   12.81
 -14   8  -1   25.21    8.54
 -14   8  -1   39.08    7.16
 -14   8  -2    0.35    4.42
 -14   8  -2    1.61    2.95
 -14   8  -3    7.12    7.75
 -14   8  -3   12.59    4.54
 -14   8  -4   40.61   12.65
 -14   8  -4   24.42    5.34
 -14   8  -5    0.22    8.53
 -14   8  -5   -2.18    5.77
 -14   8  -6   19.81    7.97
 -14   8  -6   37.36    9.87
 -14   7  14   -0.76    2.78
 -14   7  13   10.08    5.52
 -14   7  12    5.61    3.78
 -14   7  11    1.85    5.62
 -14   7  10    9.34    8.21
 -14   7   9    3.82    5.18
 -14   7   8   18.27   11.16
 -14   7   7    1.25    5.41
 -14   7   6  346.05   13.03
 -14   7   5   25.69    8.51
 -14   7   4    4.33    6.22
 -14   7   3    2.96    3.97
 -14   7   2   10.06    6.55
 -14   7   1   18.92   10.33
 -14   7   1    9.55    5.88
 -14   7   0    6.60    7.15
 -14   7   0    3.61    1.86
 -14   7  -1   48.29   14.40
 -14   7  -1   36.75   15.24
 -14   7  -2   46.18   16.64
 -14   7  -2   44.74   13.86
 -14   7  -3   12.99    9.24
 -14   7  -3    3.73    2.33
 -14   7  -4    6.30    5.39
 -14   7  -4    4.72    1.94
 -14   7  -5   34.24    8.36
 -14   7  -5   38.28   10.52
 -14   7  -6   29.54    9.65
 -14   7  -6   20.34    8.70
 -14   6  14    1.05    2.84
 -14   6  13    3.79    4.14
 -14   6  12   10.06    5.66
 -14   6  11   11.88    8.17
 -14   6  10  131.69   22.12
 -14   6   9   45.66   19.81
 -14   6   8    5.36    4.13
 -14   6   7    1.15    6.53
 -14   6   6   -5.30    6.51
 -14   6   5  145.23   10.87
 -14   6   4    3.64    5.75
 -14   6   3    2.32    7.10
 -14   6   2    9.70    7.79
 -14   6   2    7.56    4.25
 -14   6   1   93.48   15.12
 -14   6   1   60.27    7.43
 -14   6   0    7.94    6.65
 -14   6   0    2.64    2.39
 -14   6  -1    7.47    7.03
 -14   6  -1    5.09    3.19
 -14   6  -2    8.89   10.33
 -14   6  -2    7.09    2.91
 -14   6  -3   72.35    9.89
 -14   6  -3   26.14   12.93
 -14   6  -4   -2.21    7.43
 -14   6  -4    5.46    3.38
 -14   6  -5    3.44    4.59
 -14   6  -5   11.32    4.00
 -14   6  -6   17.06    7.49
 -14   6  -6    9.06    4.51
 -14   5  14   14.60    8.75
 -14   5  13    6.46    3.18
 -14   5  12    2.59    4.05
 -14   5  11   -3.07    6.60
 -14   5  10    6.99    6.95
 -14   5   9    4.62    6.94
 -14   5   8   13.15    8.20
 -14   5   7   56.21   10.72
 -14   5   6  123.81    9.75
 -14   5   5   -0.76    7.27
 -14   5   4  223.78   14.48
 -14   5   3  185.58   17.31
 -14   5   3  145.72    4.81
 -14   5   2   11.95   10.42
 -14   5   2    2.08    2.45
 -14   5   1   35.14    9.87
 -14   5   1   14.16    6.68
 -14   5   0    8.70    7.34
 -14   5   0    4.12    3.04
 -14   5  -1   10.61    9.60
 -14   5  -1    4.52    6.43
 -14   5  -2   28.33    9.13
 -14   5  -2   23.67   12.39
 -14   5  -3    0.98    6.38
 -14   5  -3   10.59    7.02
 -14   5  -4   35.17   10.37
 -14   5  -4   22.15   12.33
 -14   5  -5   -6.25    6.95
 -14   5  -5    7.80    6.19
 -14   5  -6   -5.98    7.00
 -14   5  -6   -3.36    5.82
 -14   4  15   10.35    5.12
 -14   4  14    3.78    2.97
 -14   4  13   -0.06    6.22
 -14   4  12   21.98   12.31
 -14   4  11   11.74    9.22
 -14   4  10   55.46   17.54
 -14   4   9  171.01   20.88
 -14   4   8   90.40   28.96
 -14   4   7   12.19    6.33
 -14   4   6   -2.28    7.48
 -14   4   5   91.18   25.86
 -14   4   4  327.39   31.51
 -14   4   3   29.10    7.16
 -14   4   3   12.05    6.94
 -14   4   2   -6.10    7.15
 -14   4   2    1.88    3.29
 -14   4   1    1.87    6.71
 -14   4   1   11.30    5.38
 -14   4   0    9.81    6.99
 -14   4   0   -0.03    4.21
 -14   4  -1   17.21    6.73
 -14   4  -2   59.94    8.86
 -14   4  -3    1.92    6.71
 -14   4  -3   -0.54    2.83
 -14   4  -4   -1.34    6.54
 -14   4  -4    5.35    4.26
 -14   4  -5    6.42    5.08
 -14   4  -5    3.36    3.84
 -14   3  15    9.90    6.67
 -14   3  14   -5.21    6.50
 -14   3  13   -9.69    7.11
 -14   3  12    9.85    5.80
 -14   3  11    9.81    4.52
 -14   3  10   10.06    8.71
 -14   3   9    2.02    4.37
 -14   3   8    4.45    3.90
 -14   3   7   -3.53    7.12
 -14   3   6   47.88   17.53
 -14   3   5   24.03   10.06
 -14   3   4   45.26   11.35
 -14   3   4   17.95    5.94
 -14   3   3  166.17   14.07
 -14   3   3  135.51   10.64
 -14   3   2  132.47   14.78
 -14   3   2   98.34   14.88
 -14   3   1   -1.10    7.52
 -14   3   1    2.78    3.58
 -14   3   0    9.67    6.12
 -14   3   0    7.51    8.09
 -14   3  -1   38.82   14.61
 -14   3  -1   35.87   18.11
 -14   3  -2    4.73    7.12
 -14   3  -2   -5.07    5.32
 -14   3  -3   17.10    9.93
 -14   3  -3   18.54    5.73
 -14   3  -4    1.27    6.85
 -14   3  -4    6.27    5.04
 -14   3  -5   25.67    8.20
 -14   3  -5   18.36    6.79
 -14   2  15   -2.85    6.17
 -14   2  14   39.64   11.84
 -14   2  13   -0.10    6.55
 -14   2  12    2.15    4.80
 -14   2  11   11.13    8.24
 -14   2  10   12.65    5.65
 -14   2   9   13.72    6.69
 -14   2   8    7.17    5.08
 -14   2   7    6.88    7.16
 -14   2   6   98.61   29.44
 -14   2   5  214.88   11.47
 -14   2   5  207.49    7.18
 -14   2   4   -0.51    7.78
 -14   2   4   -2.87    3.20
 -14   2   3    4.24   11.43
 -14   2   3    6.05    2.60
 -14   2   2    8.17    6.58
 -14   2   2   -0.88    4.01
 -14   2   1    2.99    6.58
 -14   2   1    2.22    3.60
 -14   2   0   20.52    6.56
 -14   2   0   18.73    7.01
 -14   2  -1   20.55    6.27
 -14   2  -1   30.57    7.67
 -14   2  -2    5.44    4.92
 -14   2  -2    7.85    8.69
 -14   2  -3  181.99   21.23
 -14   2  -3  164.67   19.37
 -14   2  -4   10.11    5.40
 -14   1  15    8.84    3.74
 -14   1  14    8.94    3.78
 -14   1  13    3.58    3.29
 -14   1  12    2.87    5.25
 -14   1  11    4.97    3.06
 -14   1  10   -1.96    7.04
 -14   1   9   22.16   10.05
 -14   1   8   50.13   14.35
 -14   1   7   69.19   26.25
 -14   1   6   11.14    6.77
 -14   1   6    4.28    2.80
 -14   1   5   36.52   10.53
 -14   1   5   20.43   11.99
 -14   1   4   17.95   11.20
 -14   1   4   11.95    5.10
 -14   1   3    2.80    5.72
 -14   1   3    2.49    4.26
 -14   1   2   33.42    9.63
 -14   1   2   14.60    8.69
 -14   1   1    7.67    6.66
 -14   1   1    4.69    3.75
 -14   1   0   28.73    8.91
 -14   1   0   17.60    7.35
 -14   1  -1   18.21    7.56
 -14   1  -1   29.89    7.64
 -14   1  -2   17.89    6.71
 -14   1  -2    8.04    5.20
 -14   1  -3    8.67    5.27
 -14   1  -3   26.74   10.13
 -14   0  15   22.22    6.27
 -14   0  14   53.73   20.12
 -14   0  13   13.73    7.01
 -14   0  12   12.64    5.14
 -14   0  11    2.65    4.79
 -14   0  10   -3.64    7.16
 -14   0   9    5.67    5.13
 -14   0   8   28.42    8.34
 -14   0   7   19.09    7.54
 -14   0   6   -1.23    5.68
 -14   0   6   -1.63    3.09
 -14   0   5   16.79    6.62
 -14   0   5   13.14    4.48
 -14   0   4   -0.47    6.12
 -14   0   4   -3.48    3.92
 -14   0   3   52.54   10.25
 -14   0   3   49.58   12.24
 -14   0   2    8.03    6.92
 -14   0   2    6.18    3.04
 -14   0   1    0.46    2.96
 -14   0   1    5.07    4.96
 -14   0   0    5.91    6.08
 -14   0   0    1.33    4.94
 -14   0  -1    3.68    6.50
 -14   0  -1    1.38    5.60
 -14   0  -2    4.15    5.25
 -14   0  -2    7.85    6.05
 -14  -1  15   51.76   10.58
 -14  -1  14    6.76    5.71
 -14  -1  13   -2.12    6.32
 -14  -1  12   24.74   10.12
 -14  -1  11    6.07    6.79
 -14  -1  10   95.26   34.98
 -14  -1   9   -0.03    6.54
 -14  -1   8    8.98    7.69
 -14  -1   7   39.14   20.35
 -14  -1   7   27.50   13.32
 -14  -1   6   22.29    8.08
 -14  -1   6   17.43    9.90
 -14  -1   5   32.36   15.24
 -14  -1   5   30.88   11.96
 -14  -1   4  139.60   11.69
 -14  -1   4  112.73   16.30
 -14  -1   3   58.38   26.61
 -14  -1   3   45.30   21.06
 -14  -1   2   27.72    8.11
 -14  -1   2   36.87    8.11
 -14  -1   1   19.03    7.53
 -14  -1   1   14.36   10.20
 -14  -1   0    7.32    5.89
 -14  -1   0    6.52    5.28
 -14  -1  -1   -0.34    5.16
 -14  -1  -1    4.15    2.59
 -14  -2  15   22.44   11.61
 -14  -2  14   21.43    9.85
 -14  -2  13   11.42    6.95
 -14  -2  12    6.77    5.94
 -14  -2  11   67.57   13.74
 -14  -2  10  315.33  103.25
 -14  -2   9    2.97    5.74
 -14  -2   8   -7.00    6.10
 -14  -2   8    1.21    1.65
 -14  -2   7   -0.71    5.65
 -14  -2   7   17.37   10.94
 -14  -2   6    5.54    5.89
 -14  -2   6    3.95    3.01
 -14  -2   5    2.43    6.49
 -14  -2   5    3.32    4.89
 -14  -2   4    3.37    2.36
 -14  -2   4    1.25    2.70
 -14  -2   3    3.52    2.72
 -14  -2   3    0.84    3.37
 -14  -2   2   25.98   11.61
 -14  -2   2   12.51    7.66
 -14  -2   1    1.88    3.14
 -14  -2   0   26.60   12.06
 -14  -2   0   27.32   15.84
 -14  -3  14    7.35    7.31
 -14  -3  13   -0.36    6.34
 -14  -3  12    4.71    3.91
 -14  -3  11   13.09    7.17
 -14  -3  10   -6.75    7.56
 -14  -3   9   18.85    9.41
 -14  -3   8    9.78    7.72
 -14  -3   8    1.40    1.78
 -14  -3   7    8.78    5.96
 -14  -3   7    7.76    2.70
 -14  -3   6   35.73   13.12
 -14  -3   6   33.91    9.97
 -14  -3   5    5.48    4.58
 -14  -3   5    4.33    5.30
 -14  -3   4    2.02    4.04
 -14  -3   4    4.11    2.52
 -14  -3   3   27.82   14.85
 -14  -3   3   23.47   14.92
 -14  -3   2   33.78   15.13
 -14  -3   2   28.02   16.45
 -14  -3   1   -5.41    4.46
 -14  -3   1   10.55    3.89
 -14  -4  13   -0.94    5.41
 -14  -4  12   42.71   14.58
 -14  -4  11    1.68    4.65
 -14  -4  10   13.12    7.94
 -14  -4   9   -2.10    6.53
 -14  -4   8   15.57   10.20
 -14  -4   8    8.37    4.37
 -14  -4   7    3.49    5.70
 -14  -4   7   12.05    3.51
 -14  -4   6    6.21    2.06
 -14  -4   6    7.05    4.76
 -14  -4   5    2.51    5.92
 -14  -4   5    2.48    2.75
 -14  -4   4   11.11    4.71
 -14  -4   4    6.42    6.45
 -14  -4   3    3.73    4.26
 -14  -4   3    4.00    3.36
 -14  -5  11   12.27    3.89
 -14  -5  10    3.15    5.16
 -14  -5   9   48.31   22.27
 -14  -5   9   63.75   17.44
 -14  -5   8   54.99   25.44
 -14  -5   8   88.00   13.27
 -14  -5   7    6.81    5.59
 -14  -5   7    5.55    3.64
 -14  -5   6    4.85    3.55
 -14  -5   6   -1.39    4.08
 -15  14   4   10.17    2.98
 -15  14   3   22.86    7.98
 -15  14   2   -0.96    6.08
 -15  14   1   -0.34    6.09
 -15  14   0   10.18    5.13
 -15  14  -1    3.29    6.66
 -15  14  -2    5.27    5.18
 -15  13   6    0.56    5.24
 -15  13   5   21.40    9.34
 -15  13   4   51.61   32.12
 -15  13   3   10.48    5.78
 -15  13   2   15.33    6.64
 -15  13   1   14.94    6.52
 -15  13   0   -1.26    7.53
 -15  13  -1    0.31    4.02
 -15  13  -2    5.76    7.07
 -15  13  -3   -6.69    6.57
 -15  12   8    4.87    4.20
 -15  12   7    1.42    4.22
 -15  12   6    5.51    5.83
 -15  12   5   46.70   13.82
 -15  12   4    6.48    6.06
 -15  12   3   10.87    6.48
 -15  12   2   13.35    6.96
 -15  12   1   -5.81    7.02
 -15  12   0    5.29    6.30
 -15  12  -1    7.65    6.09
 -15  12  -2   23.67    9.91
 -15  12  -3   26.39   13.02
 -15  12  -4   -2.14    4.47
 -15  11   9    4.69    4.32
 -15  11   8   -0.42    5.43
 -15  11   7    3.97    3.97
 -15  11   6    3.43    6.17
 -15  11   5    9.25    8.27
 -15  11   4   61.14   33.58
 -15  11   3   48.58   25.94
 -15  11   2   -2.12    6.74
 -15  11   1    8.34    6.38
 -15  11   0   -2.29    6.63
 -15  11  -1    1.90    6.88
 -15  11  -2   19.25    8.23
 -15  11  -3    5.78    8.55
 -15  11  -4   -4.56    8.25
 -15  10  10    3.34    6.29
 -15  10   9    3.99    3.22
 -15  10   8   36.86    6.54
 -15  10   7   -0.37    6.73
 -15  10   6   10.54    6.87
 -15  10   5    7.64    6.29
 -15  10   4    3.39    6.17
 -15  10   3   12.43    9.35
 -15  10   2    5.46    6.21
 -15  10   1    2.25    6.42
 -15  10   0   -4.68    6.57
 -15  10  -1   12.00    6.44
 -15  10  -2   27.77   11.03
 -15  10  -3  145.43   26.31
 -15  10  -4   25.34   10.43
 -15  10  -4    3.35    4.65
 -15  10  -5    2.94    4.90
 -15  10  -5   -3.26    4.62
 -15   9  11   19.85    8.55
 -15   9  10    2.72    3.63
 -15   9   9    2.76    5.01
 -15   9   8    5.89    5.11
 -15   9   7    1.61    7.31
 -15   9   6   10.92    7.16
 -15   9   5    7.23    6.80
 -15   9   4   64.96   28.96
 -15   9   3   -4.07    6.85
 -15   9   2   -4.63    6.87
 -15   9   1   -6.67    7.25
 -15   9   0   13.98    7.91
 -15   9  -1   -8.81    8.33
 -15   9  -2    8.68    3.59
 -15   9  -2    9.64    3.69
 -15   9  -3   16.20   10.45
 -15   9  -3   16.05    7.72
 -15   9  -4   31.81   11.96
 -15   9  -4   27.04   10.22
 -15   9  -5   -0.40    7.35
 -15   9  -5    4.79    4.88
 -15   8  12    3.11    5.23
 -15   8  11   -0.01    5.66
 -15   8  10    1.70    2.69
 -15   8   9    4.67    3.73
 -15   8   8   -4.28    7.65
 -15   8   7   -3.05    6.91
 -15   8   6   18.56    9.87
 -15   8   5   -3.59    6.84
 -15   8   4   67.59    9.83
 -15   8   3   11.80    5.47
 -15   8   2   -8.54    7.34
 -15   8   1    3.84    7.87
 -15   8   0  129.74   16.46
 -15   8  -1  180.01   28.99
 -15   8  -2    9.18    9.33
 -15   8  -2    3.44    2.10
 -15   8  -3   10.44    5.93
 -15   8  -3    2.67    4.95
 -15   8  -4    9.66    6.41
 -15   8  -4   -0.02    4.81
 -15   8  -5   13.43    6.50
 -15   8  -5    9.02    6.32
 -15   7  13    5.31    3.17
 -15   7  12   39.32   25.13
 -15   7  11    4.77    3.82
 -15   7  10    4.52    4.49
 -15   7   9    3.07    4.58
 -15   7   8    0.67    7.16
 -15   7   7   -0.48    6.35
 -15   7   6    4.88    5.42
 -15   7   5   63.00   12.61
 -15   7   4   -1.49    7.03
 -15   7   3   -0.50    7.42
 -15   7   2    5.96    6.93
 -15   7   1    3.35    6.02
 -15   7   0   49.27    8.86
 -15   7  -1  114.93   24.32
 -15   7  -1   40.71   22.72
 -15   7  -2    5.71    8.51
 -15   7  -2   -0.22    1.89
 -15   7  -3    8.06    3.81
 -15   7  -3   -0.11    2.24
 -15   7  -4    2.80    7.91
 -15   7  -4    5.56    2.51
 -15   6  13   54.66   16.33
 -15   6  12  114.13   11.43
 -15   6  11   -1.41    6.44
 -15   6  10   26.24   11.95
 -15   6   9    0.01    7.00
 -15   6   8    0.26    3.61
 -15   6   7   23.74    9.08
 -15   6   6   -5.45    6.85
 -15   6   5    6.17    7.10
 -15   6   4   63.86   18.45
 -15   6   3   52.01    9.99
 -15   6   2    2.22    7.76
 -15   6   1    1.68    7.11
 -15   6   0   27.53    8.51
 -15   6  -1   31.87   10.94
 -15   6  -2    1.89    7.32
 -15   6  -2    3.21    3.28
 -15   6  -3    6.88    4.81
 -15   6  -3    3.82    2.06
 -15   6  -4   17.46   10.41
 -15   6  -4    0.92    3.20
 -15   5  13   13.17    7.88
 -15   5  12    0.69    2.28
 -15   5  11   67.90   24.87
 -15   5  10   33.70   13.02
 -15   5   9   60.82   19.01
 -15   5   8  103.02   37.25
 -15   5   7  103.72   30.49
 -15   5   6   54.71   19.33
 -15   5   5  110.12   14.92
 -15   5   4   51.50    7.72
 -15   5   3   74.31   12.21
 -15   5   2   49.73   10.60
 -15   5   1   83.34   14.11
 -15   5   1   45.80   14.81
 -15   5   0   -0.47    7.59
 -15   5   0    6.75    2.99
 -15   5  -1    5.07    7.11
 -15   5  -1    4.91    2.65
 -15   5  -2    6.92    7.30
 -15   5  -2    4.91    5.46
 -15   5  -3   -4.54    8.07
 -15   5  -3    8.36    5.25
 -15   5  -4   13.19    6.40
 -15   5  -4    7.51    5.10
 -15   4  14   13.77    7.02
 -15   4  13    4.26    4.38
 -15   4  12   45.56   28.79
 -15   4  11    3.76    4.59
 -15   4  10    3.30    2.60
 -15   4   9   18.22    7.24
 -15   4   8    7.54    5.31
 -15   4   7   54.74   11.10
 -15   4   6   90.55   13.56
 -15   4   5   53.95   10.85
 -15   4   4   62.25    9.27
 -15   4   3    1.21    7.08
 -15   4   2    9.98   11.13
 -15   4   2    1.23    1.82
 -15   4   1   14.35   10.25
 -15   4   1    7.81    3.40
 -15   4   0   62.11   28.33
 -15   4   0   38.78   21.32
 -15   4  -1  169.59   28.27
 -15   4  -1  156.56   25.28
 -15   4  -2   19.23    7.97
 -15   4  -2    9.65    5.69
 -15   4  -3   80.72   14.61
 -15   4  -3   32.22   20.96
 -15   3  14    3.44    5.29
 -15   3  13    0.94    3.76
 -15   3  12   14.42   12.96
 -15   3  11    2.63    6.67
 -15   3  10   -2.13    5.73
 -15   3   9   -2.62    6.74
 -15   3   8    1.39    4.19
 -15   3   7    4.47    5.83
 -15   3   6   -2.44    7.35
 -15   3   5   27.40   11.58
 -15   3   4    8.31    7.02
 -15   3   3   18.52   10.84
 -15   3   3   -1.59    2.86
 -15   3   2   -3.15    6.43
 -15   3   2    3.64    3.78
 -15   3   1   21.65    8.47
 -15   3   1    7.42    4.43
 -15   3   0    6.38    4.07
 -15   3   0   13.40    6.33
 -15   3  -1   19.36   10.66
 -15   3  -1   13.90    4.87
 -15   3  -2   20.44   10.64
 -15   3  -2   12.80    5.38
 -15   2  14   42.04   21.16
 -15   2  13    5.12    5.65
 -15   2  12    3.80    4.18
 -15   2  11    1.26    5.34
 -15   2  10   -0.25    6.28
 -15   2   9   37.17   12.00
 -15   2   8    0.48    8.12
 -15   2   7   10.60   10.14
 -15   2   6    3.33    5.89
 -15   2   5    8.63    7.45
 -15   2   4   -2.18    7.28
 -15   2   3   33.47    9.76
 -15   2   3    6.83    3.70
 -15   2   2    0.71    5.96
 -15   2   2    1.41    1.84
 -15   2   1   47.16   12.36
 -15   2   1   37.60    6.78
 -15   2   0    9.45    7.11
 -15   2   0   11.20    6.33
 -15   2  -1   11.33    9.58
 -15   2  -1   23.87    7.28
 -15   2  -2   11.71    8.83
 -15   2  -2    8.40    4.98
 -15   1  14    4.09    6.23
 -15   1  13   -4.04    5.89
 -15   1  12   21.27    7.28
 -15   1  11    1.87    5.48
 -15   1  10   32.27   10.16
 -15   1   9   15.47   10.01
 -15   1   8  229.51   11.40
 -15   1   7   27.86   13.37
 -15   1   6   25.86   10.35
 -15   1   5   13.16    5.56
 -15   1   4   98.54   18.05
 -15   1   4   35.31   22.08
 -15   1   3    6.75    6.88
 -15   1   3    8.31    3.42
 -15   1   2   31.25   14.45
 -15   1   2   22.01   12.97
 -15   1   1    3.09    6.91
 -15   1   1    1.57    2.74
 -15   1   0    4.62    6.46
 -15   1   0    3.73    3.71
 -15   1  -1    3.13    6.12
 -15   1  -1   -0.46    5.03
 -15   0  14   15.53    9.82
 -15   0  13    5.73    2.24
 -15   0  12   14.74    7.43
 -15   0  11   31.57   18.43
 -15   0  10    4.47    4.61
 -15   0   9    9.20    3.82
 -15   0   8   90.23   19.02
 -15   0   7   79.30   16.30
 -15   0   6   54.55   27.13
 -15   0   5    6.54    4.09
 -15   0   4  250.71   82.70
 -15   0   4  178.51   27.12
 -15   0   3   19.75    8.52
 -15   0   3   18.94    8.36
 -15   0   2    0.79    3.32
 -15   0   2    1.02    4.39
 -15   0   1   16.13    9.06
 -15   0   1    9.51    6.14
 -15   0   0    3.62    3.16
 -15   0   0   -5.37    4.91
 -15  -1  13    9.64   11.08
 -15  -1  12   20.69    7.36
 -15  -1  11   10.70    6.35
 -15  -1  10   43.68   18.55
 -15  -1   9    7.99    3.99
 -15  -1   8   -5.52    7.48
 -15  -1   7    3.07    6.72
 -15  -1   6   11.14    6.83
 -15  -1   5    4.10    4.91
 -15  -1   5    4.55    3.24
 -15  -1   4    1.63    5.28
 -15  -1   4    2.74    3.09
 -15  -1   3    8.41    6.67
 -15  -1   3    1.30    2.60
 -15  -1   2   -1.97    6.40
 -15  -1   2    3.37    3.78
 -15  -2  12    3.46    7.64
 -15  -2  11   28.42   10.69
 -15  -2  10   71.50   27.32
 -15  -2   9   35.13   16.63
 -15  -2   8    8.91    7.11
 -15  -2   7   -1.02    4.65
 -15  -2   6   -4.72    7.18
 -15  -2   6    1.59    1.97
 -15  -2   5   13.58    8.10
 -15  -2   5   16.50    6.04
 -15  -2   4  246.06   35.39
 -15  -2   4  189.71   27.41
 -15  -2   3    9.11    5.54
 -15  -2   3    9.89    6.09
 -15  -3  11   -0.99    6.20
 -15  -3  10   25.41    9.36
 -15  -3   9    5.17    4.94
 -15  -3   8    3.87    3.81
 -15  -3   7   20.38   18.25
 -15  -3   6   -0.26    5.65
 -15  -3   6    0.74    3.68
 -16  13   2   15.26    6.42
 -16  12   6    0.31    5.61
 -16  12   5    0.17    2.41
 -16  12   4    7.45    8.05
 -16  12   3   -3.71    7.27
 -16  12   2    5.18    6.94
 -16  12   1   11.31    7.02
 -16  12   0  165.00   24.90
 -16  12  -1   28.61    9.85
 -16  11   7    7.66    5.84
 -16  11   6   18.40   10.29
 -16  11   5    6.96    4.50
 -16  11   4   -5.22    6.87
 -16  11   3   26.01    9.95
 -16  11   2   66.46   12.97
 -16  11   1  120.76   19.38
 -16  11   0    5.86    6.25
 -16  11  -1   87.67   36.08
 -16  11  -2    8.80    6.00
 -16  10   9   17.76   10.09
 -16  10   8    6.95    4.70
 -16  10   7    5.30    9.41
 -16  10   6   -0.24    6.61
 -16  10   5   16.83    7.36
 -16  10   4   21.10    6.78
 -16  10   3   16.17    7.45
 -16  10   2    3.78    6.88
 -16  10   1   12.06    7.01
 -16  10   0   18.61    7.45
 -16  10  -1   -0.62    7.93
 -16  10  -2   -0.12    8.27
 -16   9  10   -0.80    5.47
 -16   9   9   11.07    5.65
 -16   9   8   -0.18    6.68
 -16   9   7    2.04    7.26
 -16   9   6    9.24    7.02
 -16   9   5    9.54    8.46
 -16   9   4   -5.80    7.14
 -16   9   3   -0.25    6.92
 -16   9   2   -1.13    6.76
 -16   9   1   60.09    9.08
 -16   9   0   15.31    8.33
 -16   9  -1    2.99    4.99
 -16   9  -2   -0.38    6.93
 -16   8  10    1.88    7.27
 -16   8   9   -0.14    5.26
 -16   8   8    1.96    5.65
 -16   8   7   38.39   17.50
 -16   8   6   15.07    7.50
 -16   8   5    7.66    6.88
 -16   8   4   27.27    9.21
 -16   8   3    6.26    9.39
 -16   8   2   11.17    4.77
 -16   8   1   -2.92    7.74
 -16   8   0   -0.50    6.46
 -16   8  -1   14.17    7.81
 -16   8  -2   -0.97    7.22
 -16   7  11    4.44    4.28
 -16   7  10    3.55    3.82
 -16   7   9   -2.67    5.13
 -16   7   8    6.48    8.52
 -16   7   7    8.75    7.89
 -16   7   6   46.75   12.02
 -16   7   5    6.07    6.52
 -16   7   4   42.27    9.30
 -16   7   3   -1.44    7.57
 -16   7   2    9.67    5.23
 -16   7   1    9.59    3.75
 -16   7   0   -1.51    7.22
 -16   7  -1   21.37   10.56
 -16   7  -2    2.72    6.46
 -16   6  12   37.40   22.77
 -16   6  11   15.16    5.48
 -16   6  10    5.56    8.37
 -16   6   9   35.23   13.94
 -16   6   8  -10.92    7.41
 -16   6   7   33.37   11.98
 -16   6   6   15.68    8.12
 -16   6   3   24.45   10.64
 -16   6   2   36.32   10.71
 -16   6   1   22.33   11.05
 -16   6   0   16.46    9.00
 -16   6  -1    6.91    6.65
 -16   6  -2    2.92    6.20
 -16   6  -2    3.44    3.54
 -16   5  12    8.61    5.54
 -16   5  11    9.77   10.04
 -16   5  10    7.39    6.69
 -16   5   9  -10.71    7.03
 -16   5   8   -4.00    6.68
 -16   5   7   68.20   14.71
 -16   5   6   19.86   10.91
 -16   5   5  168.47   29.52
 -16   5   4   63.07   17.43
 -16   5   3   21.80    7.65
 -16   5   2   21.01   11.74
 -16   5   1   11.85    8.62
 -16   5   0   19.43   10.56
 -16   5  -1    8.39    7.37
 -16   5  -1    2.70    2.79
 -16   4  12    4.65    6.60
 -16   4  11   78.40   30.15
 -16   4  10    9.46    7.86
 -16   4   9   11.00    6.65
 -16   4   8    7.07    5.56
 -16   4   7    8.71    6.41
 -16   4   6    3.00    5.43
 -16   4   5    8.16    7.62
 -16   4   4   39.48   11.40
 -16   4   3   85.30   19.81
 -16   4   2   11.61    7.93
 -16   4   1    2.07    7.68
 -16   4   0   15.47   15.71
 -16   4  -1   47.11   12.63
 -16   3  12   21.00   12.21
 -16   3  11   87.43   20.27
 -16   3  10   29.40    8.81
 -16   3   9    9.82    4.14
 -16   3   8    6.95    6.52
 -16   3   7    6.67    5.14
 -16   3   6   64.61   21.61
 -16   3   5    4.71    4.78
 -16   3   4    6.74    5.87
 -16   3   3   27.05    7.72
 -16   3   2   30.07    6.96
 -16   3   1   33.61   11.54
 -16   3   1   10.23    5.84
 -16   3   0    6.49    7.33
 -16   3   0    2.93    3.41
 -16   2  12   30.19   16.79
 -16   2  11    1.64    3.21
 -16   2  10   67.30   26.94
 -16   2   9  166.09   23.28
 -16   2   8    7.52    6.54
 -16   2   7   60.33   20.38
 -16   2   6    8.69    4.36
 -16   2   5    5.71    7.83
 -16   2   4    8.78    5.12
 -16   2   3    0.56    7.48
 -16   2   2    2.90    7.91
 -16   2   1   -4.17    6.86
 -16   2   1    7.94    2.98
 -16   1  12    1.20    5.48
 -16   1  11  132.98   26.04
 -16   1  10    3.85    3.89
 -16   1   9    8.41    7.25
 -16   1   8    8.60    6.76
 -16   1   7    9.61    8.45
 -16   1   6   54.94   19.16
 -16   1   5    6.29    4.61
 -16   1   4   19.17    9.35
 -16   1   3   13.53    7.97
 -16   1   2    6.60    2.45
 -16   0  11   14.10   10.15
 -16   0  10   12.87    9.17
 -16   0   8    8.43    6.66
 -16   0   7   11.77    7.93
 -16   0   6    1.78    5.01
 -16   0   5   -0.87    8.02
 -16   0   4    8.33    7.15
 -16  -1   9    2.45    2.75
 -16  -1   8    7.57    5.69
 -16  -1   7    2.71    4.89
 -17  10   5    8.41    7.01
 -17  10   4   17.42    8.28
 -17  10   3    2.63    3.84
 -17   9   7    6.76    4.83
 -17   9   6   24.34    7.12
 -17   9   5   32.79    8.52
 -17   9   4   14.30   11.05
 -17   9   3   -1.84    6.58
 -17   9   2   19.00    8.51
 -17   8   8    5.83    7.34
 -17   8   7    3.64    4.73
 -17   8   6    4.50    6.69
 -17   8   5    5.58    6.30
 -17   8   4   13.06    6.90
 -17   8   3    2.82    4.61
 -17   8   2    3.18    8.24
 -17   8   1    7.72    6.07
 -17   7   9    8.09    5.66
 -17   7   8   -0.48    6.95
 -17   7   7    0.49    4.47
 -17   7   6    0.87    6.72
 -17   7   5  165.40   26.55
 -17   7   4   37.46    9.30
 -17   7   3   22.82    8.09
 -17   7   2   19.92    7.39
 -17   7   1   11.98    7.29
 -17   6   9   17.96   10.46
 -17   6   8    5.75    3.85
 -17   6   7   -6.72    6.31
 -17   6   6  108.79   18.66
 -17   6   5   -1.96    8.17
 -17   6   4  110.68   20.17
 -17   6   3   12.01    6.54
 -17   6   2   16.61    7.15
 -17   5   9   -0.05    3.92
 -17   5   8   -7.37    6.01
 -17   5   7   37.70   15.13
 -17   5   6    4.27    6.21
 -17   5   5   27.03   13.29
 -17   5   4   -0.31    6.34
 -17   5   3   14.36   10.81
 -17   5   2    5.34    6.89
 -17   4   9    2.21    2.63
 -17   4   8    9.60    8.68
 -17   4   7    3.49    6.10
 -17   4   6   15.76    7.03
 -17   4   5    7.98    4.96
 -17   4   4   11.34    6.46
 -17   4   3    3.36    6.96
 -17   3   9   15.72    7.36
 -17   3   8    9.51    4.42
 -17   3   7   11.64    6.78
 -17   3   6   50.02   25.75
 -17   3   5   -5.33    7.16
;
_platon_squeeze_void_probe_radius 1.20
loop_
_symmetry_equiv_pos_site_id
_space_group_symop_operation_xyz
1 +X,+Y,+Z
2 -X,-Y,-Z
loop_
_atom_site_label
_atom_site_type_symbol
_atom_site_fract_x
_atom_site_fract_y
_atom_site_fract_z
_atom_site_U_iso_or_equiv
_atom_site_adp_type
_atom_site_occupancy
_atom_site_site_symmetry_multiplicity
_atom_site_calc_flag
C1 C 0.79228(19) 0.41180(17) -0.02168(16) 0.0228(5) Uani 1 2 d
C2 C 0.76061(19) 0.48393(17) -0.05503(17) 0.0230(5) Uani 1 2 d
C3 C 0.74449(19) 0.56283(17) 0.01215(17) 0.0239(5) Uani 1 2 d
C4 C 0.7111(2) 0.53754(18) 0.08595(17) 0.0248(5) Uani 1 2 d
C5 C 0.7163(2) 0.44601(18) 0.10358(17) 0.0243(5) Uani 1 2 d
C6 C 0.78416(19) 0.40467(17) 0.06960(17) 0.0237(5) Uani 1 2 d
C7 C 0.82069(19) 0.34083(17) -0.08441(16) 0.0222(5) Uani 1 2 d
C8 C 0.8311(2) 0.25128(18) -0.06700(18) 0.0258(5) Uani 1 2 d
C9 C 0.8729(2) 0.19456(19) -0.11775(18) 0.0290(5) Uani 1 2 d
C10 C 0.9204(2) 0.23062(18) -0.18235(17) 0.0270(5) Uani 1 2 d
C11 C 0.9872(2) 0.1885(2) -0.22065(19) 0.0326(6) Uani 1 2 d
C12 C 1.0389(2) 0.2291(2) -0.27719(19) 0.0341(6) Uani 1 2 d
C13 C 1.0261(2) 0.3151(2) -0.29723(18) 0.0325(6) Uani 1 2 d
C14 C 0.9583(2) 0.3552(2) -0.26475(17) 0.0276(5) Uani 1 2 d
C15 C 0.9007(2) 0.31210(18) -0.20869(17) 0.0254(5) Uani 1 2 d
C16 C 0.8314(2) 0.35496(17) -0.16996(17) 0.0238(5) Uani 1 2 d
C17 C 0.7684(2) 0.40567(18) -0.21613(17) 0.0246(5) Uani 1 2 d
C18 C 0.7227(2) 0.37928(18) -0.32220(16) 0.0253(5) Uani 1 2 d
C19 C 0.7214(2) 0.2928(2) -0.39168(18) 0.0314(5) Uani 1 2 d
C20 C 0.6765(2) 0.2716(2) -0.49084(19) 0.0368(6) Uani 1 2 d
C21 C 0.6300(3) 0.3332(2) -0.5273(2) 0.0415(7) Uani 1 2 d
C22 C 0.6225(2) 0.4128(2) -0.46328(19) 0.0365(6) Uani 1 2 d
C23 C 0.6641(2) 0.43456(19) -0.36067(17) 0.0283(5) Uani 1 2 d
C24 C 0.6374(2) 0.5037(2) -0.29755(19) 0.0312(5) Uani 1 2 d
C25 C 0.6647(2) 0.51438(19) -0.20203(18) 0.0272(5) Uani 1 2 d
C26 C 0.7342(2) 0.46943(17) -0.15770(16) 0.0232(5) Uani 1 2 d
C27 C 0.7705(2) 0.66863(17) 0.01191(17) 0.0236(5) Uani 1 2 d
C28 C 0.8360(2) 0.70853(19) -0.04078(18) 0.0270(5) Uani 1 2 d
C29 C 0.8595(2) 0.80551(19) -0.04499(19) 0.0296(5) Uani 1 2 d
C30 C 0.8332(2) 0.87774(19) 0.01504(19) 0.0307(5) Uani 1 2 d
C31 C 0.8697(2) 0.9831(2) 0.0193(2) 0.0376(6) Uani 1 2 d
C32 C 0.8661(2) 1.0589(2) 0.0915(3) 0.0445(7) Uani 1 2 d
C33 C 0.8269(2) 1.0308(2) 0.1622(3) 0.0447(7) Uani 1 2 d
C34 C 0.7845(2) 0.92764(19) 0.1552(2) 0.0352(6) Uani 1 2 d
C35 C 0.7801(2) 0.84609(18) 0.07807(19) 0.0287(5) Uani 1 2 d
C36 C 0.7355(2) 0.73465(18) 0.06732(18) 0.0260(5) Uani 1 2 d
C37 C 0.6724(2) 0.69442(19) 0.12374(19) 0.0292(5) Uani 1 2 d
C38 C 0.6019(2) 0.73742(19) 0.1589(2) 0.0335(6) Uani 1 2 d
C39 C 0.5447(2) 0.7871(2) 0.1093(2) 0.0403(7) Uani 1 2 d
C40 C 0.4746(3) 0.8226(2) 0.1432(3) 0.0510(9) Uani 1 2 d
C41 C 0.4600(3) 0.8128(2) 0.2282(3) 0.0563(10) Uani 1 2 d
C42 C 0.5115(3) 0.7627(2) 0.2761(3) 0.0542(10) Uani 1 2 d
C43 C 0.5807(2) 0.72102(19) 0.2413(2) 0.0388(7) Uani 1 2 d
C44 C 0.6264(3) 0.6593(2) 0.2837(2) 0.0408(7) Uani 1 2 d
C45 C 0.6697(2) 0.6020(2) 0.2366(2) 0.0339(6) Uani 1 2 d
C46 C 0.6827(2) 0.60927(18) 0.14793(18) 0.0281(5) Uani 1 2 d
C47 C 0.6505(2) 0.38582(18) 0.14885(17) 0.0256(5) Uani 1 2 d
C48 C 0.5367(2) 0.37394(19) 0.13242(17) 0.0264(5) Uani 1 2 d
C49 C 0.4653(2) 0.30287(18) 0.15709(17) 0.0261(5) Uani 1 2 d
C50 C 0.4998(2) 0.23380(18) 0.19576(17) 0.0263(5) Uani 1 2 d
C51 C 0.4215(2) 0.15280(19) 0.21255(19) 0.0314(5) Uani 1 2 d
C52 C 0.4512(2) 0.0815(2) 0.2428(2) 0.0357(6) Uani 1 2 d
C53 C 0.5617(2) 0.0874(2) 0.25640(19) 0.0337(6) Uani 1 2 d
C54 C 0.6390(2) 0.16548(19) 0.24129(18) 0.0293(5) Uani 1 2 d
C55 C 0.6127(2) 0.24318(17) 0.21299(16) 0.0247(5) Uani 1 2 d
C56 C 0.6908(2) 0.32416(18) 0.19319(17) 0.0243(5) Uani 1 2 d
C57 C 0.8093(2) 0.34269(17) 0.20832(17) 0.0233(5) Uani 1 2 d
C58 C 0.8903(2) 0.34622(18) 0.29548(17) 0.0259(5) Uani 1 2 d
C59 C 0.8688(2) 0.3495(2) 0.38156(19) 0.0321(6) Uani 1 2 d
C60 C 0.9496(3) 0.3585(2) 0.4651(2) 0.0427(7) Uani 1 2 d
C61 C 1.0569(3) 0.3633(3) 0.4660(2) 0.0521(8) Uani 1 2 d
C62 C 1.0813(2) 0.3634(2) 0.3846(2) 0.0405(7) Uani 1 2 d
C63 C 1.0006(2) 0.35689(19) 0.29907(18) 0.0280(5) Uani 1 2 d
C64 C 1.0311(2) 0.37113(19) 0.21915(18) 0.0268(5) Uani 1 2 d
C65 C 0.9598(2) 0.38031(18) 0.14277(17) 0.0241(5) Uani 1 2 d
C66 C 0.8475(2) 0.36819(18) 0.13653(17) 0.0250(5) Uani 1 2 d
H67 H 0.805(2) 0.2284(17) -0.0218(17) 0.019(6) Uiso 1 2 d
H68 H 0.872(2) 0.124(2) -0.110(2) 0.044(8) Uiso 1 2 d
H69 H 0.999(3) 0.129(3) -0.206(2) 0.059(9) Uiso 1 2 d
H70 H 1.084(2) 0.194(2) -0.3038(19) 0.035(7) Uiso 1 2 d
H71 H 1.069(2) 0.350(2) -0.3318(19) 0.035(7) Uiso 1 2 d
H72 H 0.949(2) 0.415(2) -0.2837(19) 0.033(7) Uiso 1 2 d
H73 H 0.752(2) 0.2430(19) -0.3656(18) 0.029(7) Uiso 1 2 d
H74 H 0.674(2) 0.211(2) -0.536(2) 0.041(8) Uiso 1 2 d
H75 H 0.596(2) 0.317(2) -0.601(2) 0.040(7) Uiso 1 2 d
H76 H 0.586(3) 0.455(2) -0.487(2) 0.053(9) Uiso 1 2 d
H77 H 0.596(3) 0.543(2) -0.323(2) 0.053(9) Uiso 1 2 d
H78 H 0.639(3) 0.555(2) -0.159(2) 0.046(8) Uiso 1 2 d
H79 H 0.870(2) 0.666(2) -0.0708(19) 0.034(7) Uiso 1 2 d
H80 H 0.902(2) 0.8328(19) -0.0843(18) 0.027(6) Uiso 1 2 d
H81 H 0.896(3) 1.000(2) -0.028(2) 0.054(9) Uiso 1 2 d
H82 H 0.889(3) 1.126(3) 0.088(2) 0.055(9) Uiso 1 2 d
H83 H 0.835(3) 1.089(2) 0.219(2) 0.046(8) Uiso 1 2 d
H84 H 0.757(2) 0.910(2) 0.2087(19) 0.035(7) Uiso 1 2 d
H85 H 0.548(2) 0.793(2) 0.043(2) 0.043(8) Uiso 1 2 d
H86 H 0.435(3) 0.857(3) 0.098(3) 0.076(11) Uiso 1 2 d
H87 H 0.415(3) 0.844(3) 0.260(2) 0.067(10) Uiso 1 2 d
H88 H 0.503(3) 0.748(3) 0.332(2) 0.059(10) Uiso 1 2 d
H89 H 0.625(2) 0.652(2) 0.347(2) 0.040(8) Uiso 1 2 d
H90 H 0.699(2) 0.562(2) 0.2605(19) 0.032(7) Uiso 1 2 d
H91 H 0.511(2) 0.4151(19) 0.1001(18) 0.029(6) Uiso 1 2 d
H92 H 0.383(2) 0.296(2) 0.1474(19) 0.035(7) Uiso 1 2 d
H93 H 0.340(2) 0.1524(19) 0.2001(18) 0.033(7) Uiso 1 2 d
H94 H 0.397(2) 0.025(2) 0.2515(19) 0.034(7) Uiso 1 2 d
H95 H 0.588(3) 0.033(2) 0.280(2) 0.053(8) Uiso 1 2 d
H96 H 0.713(3) 0.167(2) 0.247(2) 0.039(7) Uiso 1 2 d
H97 H 0.791(2) 0.3487(18) 0.3800(17) 0.022(6) Uiso 1 2 d
H98 H 0.934(2) 0.367(2) 0.526(2) 0.044(8) Uiso 1 2 d
H99 H 1.119(3) 0.366(3) 0.530(3) 0.075(11) Uiso 1 2 d
H100 H 1.159(2) 0.371(2) 0.3886(19) 0.036(7) Uiso 1 2 d
H101 H 1.107(3) 0.378(2) 0.225(2) 0.046(8) Uiso 1 2 d
H102 H 0.987(2) 0.4008(19) 0.0915(18) 0.027(6) Uiso 1 2 d
loop_
_atom_site_aniso_label
_atom_site_aniso_U_11
_atom_site_aniso_U_22
_atom_site_aniso_U_33
_atom_site_aniso_U_12
_atom_site_aniso_U_13
_atom_site_aniso_U_23
C1 0.0232(11) 0.0232(11) 0.0237(11) 0.0099(9) 0.0114(10) 0.0097(9)
C2 0.0233(11) 0.0230(11) 0.0261(12) 0.0108(9) 0.0114(10) 0.0116(10)
C3 0.0236(12) 0.0240(11) 0.0287(12) 0.0118(10) 0.0121(10) 0.0134(10)
C4 0.0235(11) 0.0249(12) 0.0288(12) 0.0112(10) 0.0133(10) 0.0105(10)
C5 0.0246(12) 0.0290(12) 0.0255(12) 0.0146(10) 0.0130(10) 0.0127(10)
C6 0.0224(11) 0.0233(11) 0.0268(12) 0.0088(10) 0.0103(10) 0.0130(10)
C7 0.0234(11) 0.0228(11) 0.0255(12) 0.0121(9) 0.0140(10) 0.0093(9)
C8 0.0289(12) 0.0249(12) 0.0291(13) 0.0141(10) 0.0138(11) 0.0125(10)
C9 0.0334(13) 0.0258(12) 0.0302(13) 0.0161(11) 0.0118(11) 0.0111(10)
C10 0.0285(13) 0.0300(13) 0.0263(12) 0.0164(11) 0.0116(11) 0.0105(10)
C11 0.0361(14) 0.0358(14) 0.0307(14) 0.0220(12) 0.0144(12) 0.0100(12)
C12 0.0374(14) 0.0406(15) 0.0295(13) 0.0241(13) 0.0151(12) 0.0090(12)
C13 0.0304(13) 0.0434(15) 0.0258(13) 0.0162(12) 0.0153(11) 0.0114(12)
C14 0.0267(12) 0.0329(13) 0.0245(12) 0.0137(11) 0.0118(10) 0.0099(11)
C15 0.0285(12) 0.0258(12) 0.0240(12) 0.0138(10) 0.0113(10) 0.0089(10)
C16 0.0266(12) 0.0237(11) 0.0250(12) 0.0118(10) 0.0140(10) 0.0100(10)
C17 0.0253(12) 0.0248(12) 0.0270(12) 0.0103(10) 0.0134(10) 0.0127(10)
C18 0.0241(12) 0.0310(12) 0.0238(12) 0.0115(10) 0.0118(10) 0.0133(10)
C19 0.0256(13) 0.0377(14) 0.0301(13) 0.0123(11) 0.0122(11) 0.0125(11)
C20 0.0357(15) 0.0444(16) 0.0263(13) 0.0160(13) 0.0138(12) 0.0074(12)
C21 0.0352(15) 0.0600(19) 0.0281(14) 0.0191(14) 0.0118(12) 0.0180(14)
C22 0.0333(14) 0.0504(17) 0.0286(13) 0.0174(13) 0.0131(12) 0.0198(13)
C23 0.0296(13) 0.0330(13) 0.0268(12) 0.0145(11) 0.0130(11) 0.0150(11)
C24 0.0300(13) 0.0364(14) 0.0347(14) 0.0157(11) 0.0150(11) 0.0213(12)
C25 0.0273(12) 0.0291(12) 0.0306(13) 0.0131(10) 0.0155(11) 0.0139(11)
C26 0.0240(11) 0.0247(11) 0.0249(12) 0.0093(9) 0.0130(10) 0.0137(10)
C27 0.0236(12) 0.0241(11) 0.0279(12) 0.0131(10) 0.0116(10) 0.0122(10)
C28 0.0249(12) 0.0284(12) 0.0301(13) 0.0114(10) 0.0134(11) 0.0123(10)
C29 0.0214(12) 0.0302(13) 0.0389(14) 0.0102(10) 0.0120(11) 0.0174(11)
C30 0.0221(12) 0.0293(13) 0.0435(15) 0.0135(10) 0.0112(11) 0.0168(11)
C31 0.0295(14) 0.0300(14) 0.0583(18) 0.0141(11) 0.0182(14) 0.0220(14)
C32 0.0337(15) 0.0289(14) 0.081(2) 0.0169(12) 0.0301(16) 0.0234(15)
C33 0.0335(15) 0.0248(14) 0.076(2) 0.0140(12) 0.0268(16) 0.0121(14)
C34 0.0266(13) 0.0250(13) 0.0534(17) 0.0127(11) 0.0184(13) 0.0089(12)
C35 0.0212(11) 0.0251(12) 0.0417(14) 0.0127(10) 0.0117(11) 0.0128(11)
C36 0.0234(12) 0.0242(12) 0.0325(13) 0.0119(10) 0.0120(10) 0.0106(10)
C37 0.0271(12) 0.0271(12) 0.0386(14) 0.0134(10) 0.0186(11) 0.0122(11)
C38 0.0307(13) 0.0236(12) 0.0462(16) 0.0114(11) 0.0226(13) 0.0055(11)
C39 0.0266(13) 0.0260(13) 0.061(2) 0.0118(11) 0.0178(14) 0.0042(13)
C40 0.0264(14) 0.0277(15) 0.084(2) 0.0073(12) 0.0219(16) 0.0031(15)
C41 0.0406(17) 0.0276(15) 0.102(3) 0.0144(13) 0.046(2) 0.0065(17)
C42 0.0534(19) 0.0271(14) 0.085(3) 0.0085(14) 0.054(2) 0.0090(16)
C43 0.0391(15) 0.0190(12) 0.0559(18) 0.0066(11) 0.0328(14) 0.0034(12)
C44 0.0476(17) 0.0311(14) 0.0474(17) 0.0117(13) 0.0351(15) 0.0102(13)
C45 0.0367(14) 0.0294(13) 0.0402(15) 0.0130(12) 0.0240(13) 0.0127(12)
C46 0.0284(13) 0.0271(12) 0.0344(13) 0.0134(10) 0.0176(11) 0.0129(11)
C47 0.0288(12) 0.0243(12) 0.0277(12) 0.0119(10) 0.0157(11) 0.0106(10)
C48 0.0265(12) 0.0323(13) 0.0294(13) 0.0165(11) 0.0157(11) 0.0154(11)
C49 0.0245(12) 0.0253(12) 0.0293(12) 0.0109(10) 0.0121(10) 0.0099(10)
C50 0.0270(12) 0.0260(12) 0.0250(12) 0.0096(10) 0.0120(10) 0.0088(10)
C51 0.0289(13) 0.0278(13) 0.0338(14) 0.0076(11) 0.0118(11) 0.0133(11)
C52 0.0369(15) 0.0282(13) 0.0385(15) 0.0073(12) 0.0162(13) 0.0159(12)
C53 0.0383(15) 0.0279(13) 0.0377(14) 0.0135(11) 0.0160(12) 0.0170(11)
C54 0.0299(13) 0.0303(13) 0.0290(13) 0.0134(11) 0.0128(11) 0.0119(11)
C55 0.0313(13) 0.0234(11) 0.0227(11) 0.0120(10) 0.0137(10) 0.0101(9)
C56 0.0242(12) 0.0248(12) 0.0256(12) 0.0109(10) 0.0123(10) 0.0091(10)
C57 0.0257(12) 0.0230(11) 0.0244(11) 0.0121(10) 0.0118(10) 0.0098(9)
C58 0.0254(12) 0.0286(12) 0.0258(12) 0.0110(10) 0.0106(10) 0.0144(10)
C59 0.0301(13) 0.0404(14) 0.0326(14) 0.0150(12) 0.0164(11) 0.0206(12)
C60 0.0365(15) 0.0629(19) 0.0294(14) 0.0173(14) 0.0146(13) 0.0231(14)
C61 0.0390(17) 0.087(2) 0.0422(17) 0.0280(17) 0.0167(14) 0.0408(17)
C62 0.0306(14) 0.0662(19) 0.0365(15) 0.0235(14) 0.0167(13) 0.0308(14)
C63 0.0262(12) 0.0321(13) 0.0311(13) 0.0149(10) 0.0118(11) 0.0170(11)
C64 0.0233(12) 0.0308(13) 0.0322(13) 0.0130(10) 0.0146(11) 0.0152(11)
C65 0.0232(11) 0.0263(12) 0.0246(12) 0.0100(10) 0.0120(10) 0.0109(10)
C66 0.0251(12) 0.0259(12) 0.0281(12) 0.0126(10) 0.0118(10) 0.0133(10)
loop_
_atom_type_symbol
_atom_type_description
_atom_type_scat_dispersion_real
_atom_type_scat_dispersion_imag
_atom_type_scat_source
C C 0.0033 0.0016
;
International Tables for Crystallography
(Vol. C, Tables 4.2.6.8 and 6.1.1.4)
;
H H 0.0000 0.0000
;
International Tables for Crystallography
(Vol. C, Table 6.1.1.4)
;
loop_
_geom_angle_atom_site_label_1
_geom_angle_atom_site_label_2
_geom_angle_atom_site_label_3
_geom_angle
_geom_angle_publ_flag
C2 C1 C6 118.2(3) yes
C2 C1 C7 118.7(2) yes
C6 C1 C7 122.8(2) yes
C1 C2 C3 118.6(2) yes
C1 C2 C26 118.3(2) yes
C3 C2 C26 122.8(3) yes
C2 C3 C4 117.7(2) yes
C2 C3 C27 123.5(3) yes
C4 C3 C27 118.6(2) yes
C3 C4 C5 118.5(3) yes
C3 C4 C46 119.4(3) yes
C5 C4 C46 121.9(3) yes
C4 C5 C6 118.7(3) yes
C4 C5 C47 126.0(3) yes
C6 C5 C47 115.1(3) yes
C1 C6 C5 117.1(3) yes
C1 C6 C66 127.8(3) yes
C5 C6 C66 114.9(2) yes
C1 C7 C8 122.8(2) yes
C1 C7 C16 119.7(3) yes
C8 C7 C16 117.4(2) yes
C7 C8 C9 122.0(3) yes
C8 C9 C10 119.9(3) yes
C9 C10 C11 122.3(3) yes
C9 C10 C15 118.5(3) yes
C11 C10 C15 119.1(3) yes
C10 C11 C12 121.5(3) yes
C11 C12 C13 119.1(3) yes
C12 C13 C14 120.9(3) yes
C13 C14 C15 120.9(3) yes
C10 C15 C14 118.1(3) yes
C10 C15 C16 119.2(3) yes
C14 C15 C16 122.5(3) yes
C7 C16 C15 117.0(3) yes
C7 C16 C17 118.1(3) yes
C15 C16 C17 124.8(3) yes
C16 C17 C18 123.0(2) yes
C16 C17 C26 117.6(2) yes
C18 C17 C26 118.5(3) yes
C17 C18 C19 123.8(3) yes
C17 C18 C23 119.0(2) yes
C19 C18 C23 116.7(2) yes
C18 C19 C20 121.2(3) yes
C19 C20 C21 121.5(3) yes
C20 C21 C22 119.2(3) yes
C21 C22 C23 120.8(3) yes
C18 C23 C22 120.0(3) yes
C18 C23 C24 119.6(2) yes
C22 C23 C24 120.1(3) yes
C23 C24 C25 120.2(3) yes
C24 C25 C26 121.9(3) yes
C2 C26 C17 121.2(3) yes
C2 C26 C25 119.2(3) yes
C17 C26 C25 119.4(2) yes
C3 C27 C28 120.3(3) yes
C3 C27 C36 120.4(3) yes
C28 C27 C36 119.2(2) yes
C27 C28 C29 122.2(3) yes
C28 C29 C30 120.4(3) yes
C29 C30 C31 120.4(3) yes
C29 C30 C35 119.2(3) yes
C31 C30 C35 120.1(3) yes
C30 C31 C32 120.6(3) yes
C31 C32 C33 119.4(3) yes
C32 C33 C34 120.5(3) yes
C33 C34 C35 121.6(3) yes
C30 C35 C34 117.0(2) yes
C30 C35 C36 119.1(3) yes
C34 C35 C36 123.6(3) yes
C27 C36 C35 118.1(3) yes
C27 C36 C37 118.7(2) yes
C35 C36 C37 122.4(3) yes
C36 C37 C38 124.5(3) yes
C36 C37 C46 117.7(3) yes
C38 C37 C46 117.8(3) yes
C37 C38 C39 122.7(3) yes
C37 C38 C43 118.8(3) yes
C39 C38 C43 118.2(3) yes
C38 C39 C40 120.6(4) yes
C39 C40 C41 121.0(4) yes
C40 C41 C42 119.7(4) yes
C41 C42 C43 121.1(4) yes
C38 C43 C42 119.1(3) yes
C38 C43 C44 118.3(3) yes
C42 C43 C44 122.5(4) yes
C43 C44 C45 120.8(3) yes
C44 C45 C46 121.5(3) yes
C4 C46 C37 119.4(3) yes
C4 C46 C45 123.6(3) yes
C37 C46 C45 117.0(3) yes
C5 C47 C48 119.8(3) yes
C5 C47 C56 119.5(3) yes
C48 C47 C56 119.7(3) yes
C47 C48 C49 121.4(3) yes
C48 C49 C50 120.8(3) yes
C49 C50 C51 120.8(3) yes
C49 C50 C55 119.4(2) yes
C51 C50 C55 119.8(3) yes
C50 C51 C52 121.2(3) yes
C51 C52 C53 119.6(3) yes
C52 C53 C54 120.2(3) yes
C53 C54 C55 121.9(3) yes
C50 C55 C54 117.3(2) yes
C50 C55 C56 119.4(3) yes
C54 C55 C56 123.1(3) yes
C47 C56 C55 119.1(2) yes
C47 C56 C57 115.9(2) yes
C55 C56 C57 124.8(3) yes
C56 C57 C58 124.3(3) yes
C56 C57 C66 116.4(2) yes
C58 C57 C66 119.0(2) yes
C57 C58 C59 122.5(3) yes
C57 C58 C63 119.4(3) yes
C59 C58 C63 117.9(2) yes
C58 C59 C60 121.4(3) yes
C59 C60 C61 120.2(3) yes
C60 C61 C62 119.7(3) yes
C61 C62 C63 120.9(3) yes
C58 C63 C62 119.9(3) yes
C58 C63 C64 118.9(2) yes
C62 C63 C64 120.9(3) yes
C63 C64 C65 121.3(3) yes
C64 C65 C66 120.8(3) yes
C6 C66 C57 119.3(3) yes
C6 C66 C65 119.7(3) yes
C57 C66 C65 119.6(2) yes
C7 C8 H67 119.9(18) no
C9 C8 H67 118.0(18) no
C8 C9 H68 121(2) no
C10 C9 H68 119(2) no
C10 C11 H69 121(2) no
C12 C11 H69 118(2) no
C11 C12 H70 117.3(18) no
C13 C12 H70 123.5(18) no
C12 C13 H71 120(2) no
C14 C13 H71 119(2) no
C13 C14 H72 117.6(19) no
C15 C14 H72 121.5(19) no
C18 C19 H73 118.2(14) no
C20 C19 H73 120.6(14) no
C19 C20 H74 119(2) no
C21 C20 H74 119(2) no
C20 C21 H75 121.6(19) no
C22 C21 H75 119(2) no
C21 C22 H76 121.0(19) no
C23 C22 H76 118.1(19) no
C23 C24 H77 121(2) no
C25 C24 H77 119(2) no
C24 C25 H78 122(2) no
C26 C25 H78 116(2) no
C27 C28 H79 118.3(18) no
C29 C28 H79 119.3(18) no
C28 C29 H80 122.8(17) no
C30 C29 H80 116.5(17) no
C30 C31 H81 118(2) no
C32 C31 H81 121(2) no
C31 C32 H82 116(2) no
C33 C32 H82 125(2) no
C32 C33 H83 118(2) no
C34 C33 H83 122(2) no
C33 C34 H84 118.7(15) no
C35 C34 H84 119.7(15) no
C38 C39 H85 122(2) no
C40 C39 H85 117(2) no
C39 C40 H86 113(3) no
C41 C40 H86 126(3) no
C40 C41 H87 124(2) no
C42 C41 H87 116(2) no
C41 C42 H88 126(3) no
C43 C42 H88 113(3) no
C43 C44 H89 124(2) no
C45 C44 H89 116(2) no
C44 C45 H90 123(2) no
C46 C45 H90 115(2) no
C47 C48 H91 117.6(18) no
C49 C48 H91 121.0(18) no
C48 C49 H92 121.1(17) no
C50 C49 H92 118.1(17) no
C50 C51 H93 115.3(16) no
C52 C51 H93 123.6(16) no
C51 C52 H94 121(2) no
C53 C52 H94 119(2) no
C52 C53 H95 121.8(19) no
C54 C53 H95 118.1(19) no
C53 C54 H96 119.7(19) no
C55 C54 H96 118.4(19) no
C58 C59 H97 117.1(14) no
C60 C59 H97 121.5(14) no
C59 C60 H98 118.7(19) no
C61 C60 H98 121.0(19) no
C60 C61 H99 121(3) no
C62 C61 H99 120(3) no
C61 C62 H100 118.1(17) no
C63 C62 H100 121.0(17) no
C63 C64 H101 116(2) no
C65 C64 H101 123(2) no
C64 C65 H102 120.5(16) no
C66 C65 H102 118.6(17) no
loop_
_geom_bond_atom_site_label_1
_geom_bond_atom_site_label_2
_geom_bond_distance
_geom_bond_publ_flag
C1 C2 1.407(4) yes
C1 C6 1.450(4) yes
C1 C7 1.451(4) yes
C2 C3 1.456(4) yes
C2 C26 1.449(4) yes
C3 C4 1.402(4) yes
C3 C27 1.451(4) yes
C4 C5 1.436(4) yes
C4 C46 1.452(4) yes
C5 C6 1.396(4) yes
C5 C47 1.456(4) yes
C6 C66 1.464(4) yes
C7 C8 1.430(4) yes
C7 C16 1.405(4) yes
C8 C9 1.355(4) yes
C9 C10 1.421(4) yes
C10 C11 1.418(5) yes
C10 C15 1.419(4) yes
C11 C12 1.367(5) yes
C12 C13 1.407(5) yes
C13 C14 1.374(5) yes
C14 C15 1.419(4) yes
C15 C16 1.458(4) yes
C16 C17 1.452(4) yes
C17 C18 1.458(3) yes
C17 C26 1.404(4) yes
C18 C19 1.419(4) yes
C18 C23 1.420(4) yes
C19 C20 1.373(4) yes
C20 C21 1.391(5) yes
C21 C22 1.369(5) yes
C22 C23 1.419(4) yes
C23 C24 1.422(4) yes
C24 C25 1.354(4) yes
C25 C26 1.429(4) yes
C27 C28 1.423(4) yes
C27 C36 1.408(4) yes
C28 C29 1.352(4) yes
C29 C30 1.422(4) yes
C30 C31 1.412(4) yes
C30 C35 1.418(4) yes
C31 C32 1.374(5) yes
C32 C33 1.409(6) yes
C33 C34 1.368(4) yes
C34 C35 1.418(4) yes
C35 C36 1.464(4) yes
C36 C37 1.451(4) yes
C37 C38 1.449(5) yes
C37 C46 1.410(4) yes
C38 C39 1.418(5) yes
C38 C43 1.417(5) yes
C39 C40 1.377(5) yes
C40 C41 1.395(7) yes
C41 C42 1.367(6) yes
C42 C43 1.420(6) yes
C43 C44 1.426(5) yes
C44 C45 1.348(5) yes
C45 C46 1.432(5) yes
C47 C48 1.424(4) yes
C47 C56 1.406(4) yes
C48 C49 1.354(4) yes
C49 C50 1.422(4) yes
C50 C51 1.414(4) yes
C50 C55 1.422(4) yes
C51 C52 1.361(5) yes
C52 C53 1.416(5) yes
C53 C54 1.366(4) yes
C54 C55 1.416(4) yes
C55 C56 1.441(4) yes
C56 C57 1.465(4) yes
C57 C58 1.445(4) yes
C57 C66 1.405(4) yes
C58 C59 1.412(4) yes
C58 C63 1.424(4) yes
C59 C60 1.371(4) yes
C60 C61 1.420(5) yes
C61 C62 1.368(5) yes
C62 C63 1.407(4) yes
C63 C64 1.426(4) yes
C64 C65 1.358(4) yes
C65 C66 1.434(4) yes
C8 H67 0.93(3) no
C9 H68 1.05(4) no
C11 H69 0.99(4) no
C12 H70 1.02(4) no
C13 H71 0.99(3) no
C14 H72 1.01(3) no
C19 H73 1.05(3) no
C20 H74 0.95(3) no
C21 H75 1.03(3) no
C22 H76 0.98(4) no
C24 H77 0.99(4) no
C25 H78 0.98(4) no
C28 H79 0.98(3) no
C29 H80 1.00(3) no
C31 H81 0.94(4) no
C32 H82 0.94(4) no
C33 H83 1.01(3) no
C34 H84 1.04(3) no
C39 H85 1.05(4) no
C40 H86 1.08(5) no
C41 H87 1.03(4) no
C42 H88 0.95(4) no
C44 H89 1.00(3) no
C45 H90 0.89(3) no
C48 H91 0.95(3) no
C49 H92 1.04(3) no
C51 H93 1.05(3) no
C52 H94 0.96(3) no
C53 H95 1.06(4) no
C54 H96 0.97(4) no
C59 H97 1.03(3) no
C60 H98 0.99(4) no
C61 H99 1.07(4) no
C62 H100 1.00(3) no
C64 H101 0.97(4) no
C65 H102 1.01(3) no
loop_
_geom_contact_atom_site_label_1
_geom_contact_atom_site_label_2
_geom_contact_distance
_geom_contact_publ_flag
_geom_contact_site_symmetry_2
C1 C4 2.845(4) no .
C1 C17 2.866(4) no .
C1 C65 3.120(4) no .
C2 C5 2.777(4) no .
C2 C16 2.829(4) no .
C2 C28 2.987(4) no .
C3 C6 2.804(4) no .
C3 C25 2.954(4) no .
C3 C37 2.838(4) no .
C4 C36 2.853(4) no .
C4 C48 3.089(4) no .
C5 C45 3.005(4) no .
C5 C57 2.778(4) no .
C6 C8 3.015(4) no .
C6 C56 2.802(4) no .
C7 C10 2.826(4) no .
C7 C26 2.805(4) no .
C7 C65 3.248(4) no .
C7 C66 3.193(4) no .
C8 C15 2.791(4) no .
C8 C65 2.919(3) no .
C8 C66 3.053(4) no .
C9 C16 2.810(4) no .
C10 C13 2.794(4) no .
C11 C14 2.780(5) no .
C12 C15 2.826(5) no .
C14 C17 3.112(5) no .
C14 C18 3.216(4) no .
C14 C19 2.918(4) no .
C15 C18 3.136(4) no .
C15 C19 3.024(4) no .
C16 C19 3.043(4) no .
C17 C24 2.837(5) no .
C18 C21 2.834(4) no .
C18 C25 2.805(4) no .
C19 C22 2.776(5) no .
C20 C23 2.774(4) no .
C23 C26 2.831(4) no .
C25 C27 3.056(3) no .
C25 C28 2.884(3) no .
C26 C27 3.151(4) no .
C26 C28 3.069(3) no .
C27 C30 2.835(4) no .
C27 C46 2.820(4) no .
C28 C35 2.798(4) no .
C29 C36 2.833(4) no .
C30 C33 2.784(5) no .
C31 C34 2.780(5) no .
C32 C35 2.827(4) no .
C34 C37 3.038(4) no .
C34 C38 3.024(4) no .
C34 C39 2.936(4) no .
C35 C38 3.120(4) no .
C35 C39 3.190(5) no .
C36 C39 3.098(5) no .
C37 C44 2.792(5) no .
C38 C41 2.818(6) no .
C38 C45 2.801(5) no .
C39 C42 2.782(6) no .
C40 C43 2.791(5) no .
C43 C46 2.830(5) no .
C45 C47 2.977(4) no .
C45 C48 2.907(3) no .
C46 C47 3.118(4) no .
C46 C48 3.207(4) no .
C47 C50 2.824(4) no .
C47 C66 2.804(4) no .
C48 C55 2.814(4) no .
C49 C56 2.826(4) no .
C50 C53 2.793(5) no .
C51 C54 2.774(5) no .
C52 C55 2.826(4) no .
C54 C57 3.054(4) no .
C54 C58 3.212(4) no .
C54 C59 3.028(3) no .
C55 C58 3.235(4) no .
C55 C59 3.228(3) no .
C56 C59 3.036(4) no .
C57 C64 2.824(4) no .
C58 C61 2.819(4) no .
C58 C65 2.823(4) no .
C59 C62 2.787(5) no .
C60 C63 2.794(5) no .
C63 C66 2.835(4) no .
C1 C40 3.573(3) no 2_665
C4 C13 3.556(3) no 2_765
C7 C40 3.573(4) no 2_665
C7 C41 3.366(4) no 2_665
C9 C28 3.541(4) no 2_765
C11 C27 3.390(3) no 2_765
C11 C35 3.559(4) no 2_765
C11 C36 3.426(4) no 2_765
C12 C36 3.533(4) no 2_765
C12 C37 3.550(4) no 2_765
C12 C46 3.329(3) no 2_765
C13 C4 3.556(3) no 2_765
C13 C46 3.563(4) no 2_765
C14 C65 3.439(4) no 2_765
C14 C66 3.588(3) no 2_765
C16 C41 3.547(4) no 2_665
C17 C41 3.498(4) no 2_665
C17 C42 3.421(4) no 2_665
C17 C64 3.449(4) no 2_765
C17 C65 3.540(3) no 2_765
C18 C42 3.485(5) no 2_665
C18 C64 3.558(3) no 2_765
C25 C42 3.576(4) no 2_665
C25 C44 3.503(4) no 2_665
C26 C42 3.410(3) no 2_665
C27 C11 3.390(3) no 2_765
C28 C9 3.541(4) no 2_765
C35 C11 3.559(4) no 2_765
C36 C11 3.426(4) no 2_765
C36 C12 3.533(4) no 2_765
C36 C48 3.571(3) no 2_665
C36 C49 3.508(4) no 2_665
C37 C12 3.550(4) no 2_765
C39 C48 3.467(4) no 2_665
C40 C1 3.573(3) no 2_665
C40 C7 3.573(4) no 2_665
C40 C53 3.408(4) no 1_565
C41 C7 3.366(4) no 2_665
C41 C16 3.547(4) no 2_665
C41 C17 3.498(4) no 2_665
C42 C17 3.421(4) no 2_665
C42 C18 3.485(5) no 2_665
C42 C25 3.576(4) no 2_665
C42 C26 3.410(3) no 2_665
C44 C25 3.503(4) no 2_665
C46 C12 3.329(3) no 2_765
C46 C13 3.563(4) no 2_765
C48 C36 3.571(3) no 2_665
C48 C39 3.467(4) no 2_665
C49 C36 3.508(4) no 2_665
C53 C40 3.408(4) no 1_545
C64 C17 3.449(4) no 2_765
C64 C18 3.558(3) no 2_765
C65 C14 3.439(4) no 2_765
C65 C17 3.540(3) no 2_765
C66 C14 3.588(3) no 2_765
C1 H67 2.72(3) no .
C1 H102 2.80(3) no .
C2 H78 2.60(4) no .
C2 H79 2.65(3) no .
C3 H78 2.56(3) no .
C3 H79 2.65(3) no .
C4 H90 2.65(3) no .
C4 H91 2.77(3) no .
C5 H90 2.69(3) no .
C5 H91 2.63(3) no .
C6 H67 2.74(3) no .
C6 H102 2.68(3) no .
C7 H68 3.39(4) no .
C7 H102 2.68(2) no .
C8 H102 2.542(18) no .
C9 H69 2.70(4) no .
C9 H102 3.31(2) no .
C10 H67 3.24(3) no .
C10 H70 3.34(3) no .
C10 H72 3.36(3) no .
C10 H73 3.17(3) no .
C11 H68 2.71(3) no .
C11 H71 3.28(3) no .
C12 H72 3.32(3) no .
C13 H69 3.28(4) no .
C13 H73 3.25(3) no .
C14 H70 3.36(3) no .
C14 H73 2.46(2) no .
C15 H68 3.38(3) no .
C15 H69 3.34(4) no .
C15 H71 3.31(3) no .
C15 H73 2.36(2) no .
C16 H67 3.26(3) no .
C16 H72 2.76(3) no .
C16 H73 2.71(2) no .
C17 H72 2.87(3) no .
C17 H73 2.74(3) no .
C17 H78 3.31(4) no .
C17 H79 3.42(3) no .
C18 H72 2.78(3) no .
C18 H74 3.29(3) no .
C18 H76 3.33(4) no .
C18 H77 3.36(4) no .
C19 H72 2.71(2) no .
C19 H75 3.34(3) no .
C20 H76 3.27(4) no .
C21 H73 3.36(3) no .
C22 H74 3.23(4) no .
C22 H77 2.67(4) no .
C23 H73 3.36(3) no .
C23 H75 3.35(3) no .
C23 H78 3.31(3) no .
C24 H76 2.62(3) no .
C24 H79 3.51(2) no .
C25 H79 2.66(2) no .
C26 H77 3.32(4) no .
C26 H79 2.54(2) no .
C27 H78 2.45(2) no .
C27 H80 3.35(3) no .
C28 H78 2.57(2) no .
C29 H78 3.42(2) no .
C29 H81 2.61(4) no .
C30 H79 3.28(3) no .
C30 H82 3.24(4) no .
C30 H84 3.36(3) no .
C31 H80 2.60(3) no .
C31 H83 3.29(4) no .
C32 H84 3.34(3) no .
C33 H81 3.26(4) no .
C34 H82 3.28(4) no .
C34 H85 2.82(3) no .
C35 H80 3.33(3) no .
C35 H81 3.28(4) no .
C35 H83 3.35(3) no .
C35 H85 2.81(3) no .
C36 H78 3.34(3) no .
C36 H79 3.31(3) no .
C36 H84 2.76(3) no .
C36 H85 2.89(4) no .
C37 H84 2.73(3) no .
C37 H85 2.78(4) no .
C37 H90 3.18(3) no .
C38 H84 2.40(2) no .
C38 H86 3.36(5) no .
C38 H88 3.26(4) no .
C38 H89 3.36(3) no .
C39 H84 2.54(2) no .
C39 H87 3.36(4) no .
C40 H84 3.33(3) no .
C40 H88 3.28(4) no .
C41 H85 3.33(4) no .
C42 H86 3.40(5) no .
C42 H89 2.77(4) no .
C43 H84 3.19(3) no .
C43 H85 3.40(4) no .
C43 H87 3.33(5) no .
C43 H90 3.24(4) no .
C44 H88 2.58(4) no .
C44 H91 3.43(2) no .
C45 H91 2.655(19) no .
C46 H89 3.30(3) no .
C46 H91 2.72(2) no .
C47 H90 2.44(3) no .
C47 H92 3.37(3) no .
C48 H90 2.64(2) no .
C49 H90 3.57(2) no .
C49 H93 2.61(3) no .
C50 H91 3.28(3) no .
C50 H94 3.29(3) no .
C50 H96 3.29(4) no .
C51 H92 2.66(3) no .
C51 H95 3.37(4) no .
C52 H96 3.28(3) no .
C53 H93 3.38(3) no .
C53 H97 3.566(19) no .
C54 H94 3.27(3) no .
C54 H97 2.618(18) no .
C55 H92 3.39(3) no .
C55 H93 3.37(3) no .
C55 H95 3.38(4) no .
C55 H97 2.61(2) no .
C56 H90 3.31(3) no .
C56 H91 3.29(3) no .
C56 H96 2.69(3) no .
C56 H97 2.67(2) no .
C57 H67 3.47(3) no .
C57 H96 2.73(3) no .
C57 H97 2.67(3) no .
C57 H102 3.36(3) no .
C58 H96 2.62(3) no .
C58 H98 3.31(3) no .
C58 H100 3.36(3) no .
C58 H101 3.31(4) no .
C59 H96 2.60(2) no .
C59 H99 3.39(4) no .
C60 H96 3.53(2) no .
C60 H100 3.31(4) no .
C61 H97 3.37(3) no .
C62 H98 3.31(4) no .
C62 H101 2.59(3) no .
C63 H97 3.35(3) no .
C63 H99 3.38(4) no .
C63 H102 3.34(3) no .
C64 H67 3.58(2) no .
C64 H100 2.68(3) no .
C65 H67 2.598(18) no .
C66 H67 2.51(2) no .
C66 H101 3.33(4) no .
H67 H68 2.34(5) no .
H67 H102 2.56(3) no .
H68 H69 2.53(5) no .
H69 H70 2.30(5) no .
H70 H71 2.47(5) no .
H71 H72 2.32(5) no .
H72 H73 2.64(3) no .
H73 H74 2.38(4) no .
H74 H75 2.39(5) no .
H75 H76 2.37(5) no .
H76 H77 2.45(5) no .
H77 H78 2.36(5) no .
H78 H79 2.70(4) no .
H79 H80 2.38(4) no .
H80 H81 2.39(5) no .
H81 H82 2.27(5) no .
H82 H83 2.42(5) no .
H83 H84 2.39(4) no .
H84 H85 2.81(3) no .
H85 H86 2.28(6) no .
H86 H87 2.60(6) no .
H87 H88 2.39(6) no .
H88 H89 2.49(6) no .
H89 H90 2.27(5) no .
H90 H91 2.70(3) no .
H91 H92 2.39(4) no .
H92 H93 2.36(4) no .
H93 H94 2.44(5) no .
H94 H95 2.45(5) no .
H95 H96 2.35(5) no .
H96 H97 2.54(3) no .
H97 H98 2.39(4) no .
H98 H99 2.48(6) no .
H99 H100 2.37(6) no .
H100 H101 2.43(4) no .
H101 H102 2.40(4) no .
C2 H102 3.50(3) no 2_765
C3 H91 3.56(3) no 2_665
C5 H71 3.57(2) no 2_765
C7 H86 3.56(4) no 2_665
C7 H87 3.22(3) no 2_665
C8 H79 3.59(3) no 2_765
C8 H82 3.39(4) no 1_545
C8 H86 3.22(4) no 2_665
C8 H87 3.32(3) no 2_665
C9 H79 3.35(2) no 2_765
C9 H81 3.49(4) no 1_545
C9 H82 3.49(4) no 1_545
C9 H94 3.51(2) no 2_655
C13 H90 3.33(3) no 2_765
C13 H98 3.03(3) no 1_554
C13 H99 3.34(5) no 1_554
C14 H98 3.17(3) no 1_554
C14 H102 3.55(3) no 2_765
C16 H87 3.19(3) no 2_665
C16 H102 3.21(2) no 2_765
C17 H87 3.38(3) no 2_665
C17 H88 3.22(3) no 2_665
C17 H101 3.07(3) no 2_765
C17 H102 3.15(2) no 2_765
C18 H88 2.90(4) no 2_665
C18 H101 3.14(3) no 2_765
C19 H87 3.58(4) no 2_665
C19 H88 3.29(4) no 2_665
C19 H98 3.38(4) no 1_554
C20 H97 3.01(3) no 1_554
C20 H98 3.17(3) no 1_554
C21 H97 2.88(3) no 1_554
C22 H100 3.13(2) no 2_765
C23 H88 3.04(4) no 2_665
C23 H100 3.21(3) no 2_765
C23 H101 3.03(2) no 2_765
C24 H88 3.31(3) no 2_665
C24 H89 3.22(3) no 2_665
C24 H92 3.37(3) no 2_665
C24 H100 3.55(3) no 2_765
C24 H101 2.99(3) no 2_765
C25 H88 3.38(3) no 2_665
C25 H89 3.48(2) no 2_665
C25 H91 3.46(3) no 2_665
C25 H92 3.00(3) no 2_665
C25 H101 3.09(4) no 2_765
C26 H88 3.39(2) no 2_665
C26 H101 3.10(3) no 2_765
C26 H102 3.29(3) no 2_765
C27 H69 3.38(2) no 2_765
C27 H91 3.32(3) no 2_665
C27 H92 3.00(3) no 2_665
C28 H68 3.52(2) no 2_765
C28 H69 3.48(3) no 2_765
C28 H92 2.92(3) no 2_665
C28 H101 3.18(4) no 2_765
C28 H102 3.44(3) no 2_765
C29 H68 3.36(3) no 2_765
C29 H69 3.48(3) no 2_765
C29 H81 3.18(3) no 2_775
C29 H82 3.48(4) no 2_775
C29 H92 2.84(3) no 2_665
C29 H93 3.40(3) no 2_665
C29 H101 3.56(3) no 2_765
C30 H69 3.21(4) no 2_765
C30 H81 3.39(4) no 2_775
C30 H92 2.99(2) no 2_665
C30 H93 3.28(3) no 2_665
C31 H68 3.17(4) no 1_565
C31 H80 2.99(2) no 2_775
C31 H81 3.04(4) no 2_775
C31 H93 3.29(2) no 2_665
C32 H67 3.52(3) no 1_565
C32 H68 3.44(3) no 1_565
C32 H80 3.02(3) no 2_775
C33 H96 3.14(4) no 1_565
C34 H69 3.24(4) no 2_765
C35 H69 2.92(4) no 2_765
C35 H92 3.19(2) no 2_665
C36 H69 3.18(3) no 2_765
C36 H70 3.40(3) no 2_765
C36 H91 3.15(2) no 2_665
C36 H92 3.06(3) no 2_665
C37 H70 3.19(2) no 2_765
C37 H91 3.21(2) no 2_665
C38 H91 3.59(2) no 2_665
C39 H91 3.45(3) no 2_665
C40 H67 3.43(3) no 2_665
C40 H95 2.81(3) no 1_565
C41 H94 3.42(3) no 1_565
C41 H95 2.83(3) no 1_565
C44 H78 3.43(2) no 2_665
C45 H70 3.27(2) no 2_765
C45 H71 3.16(3) no 2_765
C46 H70 3.18(2) no 2_765
C46 H71 3.47(3) no 2_765
C47 H85 3.11(2) no 2_665
C48 H78 2.98(4) no 2_665
C48 H85 2.75(3) no 2_665
C49 H75 3.54(3) no 1_556
C49 H77 3.43(4) no 2_665
C49 H78 2.87(4) no 2_665
C49 H85 2.95(3) no 2_665
C50 H75 2.75(3) no 1_556
C50 H85 3.41(3) no 2_665
C51 H75 2.90(2) no 1_556
C52 H74 3.37(2) no 1_556
C52 H75 3.16(2) no 1_556
C52 H86 3.35(4) no 1_545
C52 H87 3.39(4) no 1_545
C53 H74 2.87(3) no 1_556
C53 H75 3.29(3) no 1_556
C53 H86 3.12(3) no 1_545
C53 H87 3.42(4) no 1_545
C54 H74 3.16(3) no 1_556
C54 H75 3.16(3) no 1_556
C54 H83 3.25(4) no 1_545
C55 H75 2.87(3) no 1_556
C57 H72 3.51(2) no 2_765
C58 H72 3.47(3) no 2_765
C58 H83 3.35(3) no 1_545
C59 H74 3.45(3) no 1_556
C60 H71 3.12(3) no 1_556
C60 H74 3.59(3) no 1_556
C61 H71 3.09(3) no 1_556
C63 H72 3.22(3) no 2_765
C63 H82 3.52(3) no 1_545
C63 H83 3.43(3) no 1_545
C64 H72 2.90(3) no 2_765
C64 H79 2.96(3) no 2_765
C64 H82 3.16(3) no 1_545
C65 H72 2.80(2) no 2_765
C65 H79 3.00(4) no 2_765
C65 H82 3.29(4) no 1_545
C66 H72 3.11(2) no 2_765
H67 C32 3.52(3) no 1_545
H67 C40 3.43(3) no 2_665
H67 H82 2.75(5) no 1_545
H67 H86 2.80(5) no 2_665
H68 C28 3.52(2) no 2_765
H68 C29 3.36(3) no 2_765
H68 C31 3.17(4) no 1_545
H68 C32 3.44(3) no 1_545
H68 H79 3.51(3) no 2_765
H68 H80 3.36(4) no 2_765
H68 H81 2.49(5) no 1_545
H68 H82 2.96(5) no 1_545
H68 H94 3.24(3) no 2_655
H69 C27 3.38(2) no 2_765
H69 C28 3.48(3) no 2_765
H69 C29 3.48(3) no 2_765
H69 C30 3.21(4) no 2_765
H69 C34 3.24(4) no 2_765
H69 C35 2.92(4) no 2_765
H69 C36 3.18(3) no 2_765
H69 H84 3.53(5) no 2_765
H70 C36 3.40(3) no 2_765
H70 C37 3.19(2) no 2_765
H70 C45 3.27(2) no 2_765
H70 C46 3.18(2) no 2_765
H70 H84 3.24(5) no 2_765
H70 H90 3.49(4) no 2_765
H71 C5 3.57(2) no 2_765
H71 C45 3.16(3) no 2_765
H71 C46 3.47(3) no 2_765
H71 C60 3.12(3) no 1_554
H71 C61 3.09(3) no 1_554
H71 H90 2.70(4) no 2_765
H71 H98 2.55(4) no 1_554
H71 H99 2.42(6) no 1_554
H72 C57 3.51(2) no 2_765
H72 C58 3.47(3) no 2_765
H72 C63 3.22(3) no 2_765
H72 C64 2.90(3) no 2_765
H72 C65 2.80(2) no 2_765
H72 C66 3.11(2) no 2_765
H72 H98 2.74(4) no 1_554
H72 H101 3.32(5) no 2_765
H72 H102 3.11(4) no 2_765
H73 H87 3.20(5) no 2_665
H73 H98 3.55(5) no 1_554
H74 C52 3.37(2) no 1_554
H74 C53 2.87(3) no 1_554
H74 C54 3.16(3) no 1_554
H74 C59 3.45(3) no 1_554
H74 C60 3.59(3) no 1_554
H74 H95 2.92(4) no 1_554
H74 H96 3.42(5) no 1_554
H74 H97 2.88(4) no 1_554
H74 H98 3.16(4) no 1_554
H75 C49 3.54(3) no 1_554
H75 C50 2.75(3) no 1_554
H75 C51 2.90(2) no 1_554
H75 C52 3.16(2) no 1_554
H75 C53 3.29(3) no 1_554
H75 C54 3.16(3) no 1_554
H75 C55 2.87(3) no 1_554
H75 H93 3.44(3) no 1_554
H75 H97 2.62(5) no 1_554
H76 H76 3.01(6) no 2_664
H76 H77 3.25(5) no 2_664
H76 H100 3.13(4) no 2_765
H77 C49 3.43(4) no 2_665
H77 H76 3.25(5) no 2_664
H77 H89 3.18(4) no 2_665
H77 H92 2.96(4) no 2_665
H77 H100 3.60(5) no 2_765
H77 H101 3.50(5) no 2_765
H78 C44 3.43(2) no 2_665
H78 C48 2.98(4) no 2_665
H78 C49 2.87(4) no 2_665
H78 H89 3.56(3) no 2_665
H78 H91 2.55(5) no 2_665
H78 H92 2.25(5) no 2_665
H79 C8 3.59(3) no 2_765
H79 C9 3.35(2) no 2_765
H79 C64 2.96(3) no 2_765
H79 C65 3.00(4) no 2_765
H79 H68 3.51(3) no 2_765
H79 H92 3.56(5) no 2_665
H79 H101 2.41(5) no 2_765
H79 H102 2.50(5) no 2_765
H80 C31 2.99(2) no 2_775
H80 C32 3.02(3) no 2_775
H80 H68 3.36(4) no 2_765
H80 H81 2.66(3) no 2_775
H80 H82 2.69(5) no 2_775
H80 H92 3.37(4) no 2_665
H80 H93 3.37(4) no 2_665
H80 H101 3.21(4) no 2_765
H81 C9 3.49(4) no 1_565
H81 C29 3.18(3) no 2_775
H81 C30 3.39(4) no 2_775
H81 C31 3.04(4) no 2_775
H81 H68 2.49(5) no 1_565
H81 H80 2.66(3) no 2_775
H81 H81 2.69(6) no 2_775
H81 H93 3.10(3) no 2_665
H82 C8 3.39(4) no 1_565
H82 C9 3.49(4) no 1_565
H82 C29 3.48(4) no 2_775
H82 C63 3.52(3) no 1_565
H82 C64 3.16(3) no 1_565
H82 C65 3.29(4) no 1_565
H82 H67 2.75(5) no 1_565
H82 H68 2.96(5) no 1_565
H82 H80 2.69(5) no 2_775
H82 H101 3.44(4) no 1_565
H83 C54 3.25(4) no 1_565
H83 C58 3.35(3) no 1_565
H83 C63 3.43(3) no 1_565
H83 H95 3.57(5) no 1_565
H83 H96 2.36(5) no 1_565
H84 H69 3.53(5) no 2_765
H84 H70 3.24(5) no 2_765
H84 H95 3.57(5) no 1_565
H85 C47 3.11(2) no 2_665
H85 C48 2.75(3) no 2_665
H85 C49 2.95(3) no 2_665
H85 C50 3.41(3) no 2_665
H85 H91 2.95(4) no 2_665
H85 H92 3.38(5) no 2_665
H86 C7 3.56(4) no 2_665
H86 C8 3.22(4) no 2_665
H86 C52 3.35(4) no 1_565
H86 C53 3.12(3) no 1_565
H86 H67 2.80(5) no 2_665
H86 H94 3.22(5) no 1_565
H86 H95 2.86(4) no 1_565
H87 C7 3.22(3) no 2_665
H87 C8 3.32(3) no 2_665
H87 C16 3.19(3) no 2_665
H87 C17 3.38(3) no 2_665
H87 C19 3.58(4) no 2_665
H87 C52 3.39(4) no 1_565
H87 C53 3.42(4) no 1_565
H87 H73 3.20(5) no 2_665
H87 H94 2.74(5) no 1_565
H87 H95 2.80(5) no 1_565
H88 C17 3.22(3) no 2_665
H88 C18 2.90(4) no 2_665
H88 C19 3.29(4) no 2_665
H88 C23 3.04(4) no 2_665
H88 C24 3.31(3) no 2_665
H88 C25 3.38(3) no 2_665
H88 C26 3.39(2) no 2_665
H89 C24 3.22(3) no 2_665
H89 C25 3.48(2) no 2_665
H89 H77 3.18(4) no 2_665
H89 H78 3.56(3) no 2_665
H89 H99 3.58(5) no 2_766
H90 C13 3.33(3) no 2_765
H90 H70 3.49(4) no 2_765
H90 H71 2.70(4) no 2_765
H90 H99 3.11(4) no 2_766
H91 C3 3.56(3) no 2_665
H91 C25 3.46(3) no 2_665
H91 C27 3.32(3) no 2_665
H91 C36 3.15(2) no 2_665
H91 C37 3.21(2) no 2_665
H91 C38 3.59(2) no 2_665
H91 C39 3.45(3) no 2_665
H91 H78 2.55(5) no 2_665
H91 H85 2.95(4) no 2_665
H92 C24 3.37(3) no 2_665
H92 C25 3.00(3) no 2_665
H92 C27 3.00(3) no 2_665
H92 C28 2.92(3) no 2_665
H92 C29 2.84(3) no 2_665
H92 C30 2.99(2) no 2_665
H92 C35 3.19(2) no 2_665
H92 C36 3.06(3) no 2_665
H92 H77 2.96(4) no 2_665
H92 H78 2.25(5) no 2_665
H92 H79 3.56(5) no 2_665
H92 H80 3.37(4) no 2_665
H92 H85 3.38(5) no 2_665
H93 C29 3.40(3) no 2_665
H93 C30 3.28(3) no 2_665
H93 C31 3.29(2) no 2_665
H93 H75 3.44(3) no 1_556
H93 H80 3.37(4) no 2_665
H93 H81 3.10(3) no 2_665
H94 C9 3.51(2) no 2_655
H94 C41 3.42(3) no 1_545
H94 H68 3.24(3) no 2_655
H94 H86 3.22(5) no 1_545
H94 H87 2.74(5) no 1_545
H95 C40 2.81(3) no 1_545
H95 C41 2.83(3) no 1_545
H95 H74 2.92(4) no 1_556
H95 H83 3.57(5) no 1_545
H95 H84 3.57(5) no 1_545
H95 H86 2.86(4) no 1_545
H95 H87 2.80(5) no 1_545
H96 C33 3.14(4) no 1_545
H96 H74 3.42(5) no 1_556
H96 H83 2.36(5) no 1_545
H97 C20 3.01(3) no 1_556
H97 C21 2.88(3) no 1_556
H97 H74 2.88(4) no 1_556
H97 H75 2.62(5) no 1_556
H98 C13 3.03(3) no 1_556
H98 C14 3.17(3) no 1_556
H98 C19 3.38(4) no 1_556
H98 C20 3.17(3) no 1_556
H98 H71 2.55(4) no 1_556
H98 H72 2.74(4) no 1_556
H98 H73 3.55(5) no 1_556
H98 H74 3.16(4) no 1_556
H99 C13 3.34(5) no 1_556
H99 H71 2.42(6) no 1_556
H99 H89 3.58(5) no 2_766
H99 H90 3.11(4) no 2_766
H100 C22 3.13(2) no 2_765
H100 C23 3.21(3) no 2_765
H100 C24 3.55(3) no 2_765
H100 H76 3.13(4) no 2_765
H100 H77 3.60(5) no 2_765
H101 C17 3.07(3) no 2_765
H101 C18 3.14(3) no 2_765
H101 C23 3.03(2) no 2_765
H101 C24 2.99(3) no 2_765
H101 C25 3.09(4) no 2_765
H101 C26 3.10(3) no 2_765
H101 C28 3.18(4) no 2_765
H101 C29 3.56(3) no 2_765
H101 H72 3.32(5) no 2_765
H101 H77 3.50(5) no 2_765
H101 H79 2.41(5) no 2_765
H101 H80 3.21(4) no 2_765
H101 H82 3.44(4) no 1_545
H102 C2 3.50(3) no 2_765
H102 C14 3.55(3) no 2_765
H102 C16 3.21(2) no 2_765
H102 C17 3.15(2) no 2_765
H102 C26 3.29(3) no 2_765
H102 C28 3.44(3) no 2_765
H102 H72 3.11(4) no 2_765
H102 H79 2.50(5) no 2_765
loop_
_geom_torsion_atom_site_label_1
_geom_torsion_atom_site_label_2
_geom_torsion_atom_site_label_3
_geom_torsion_atom_site_label_4
_geom_torsion
_geom_torsion_publ_flag
C2 C1 C6 C5 17.7(2) no
C2 C1 C6 C66 -155.92(17) no
C6 C1 C2 C3 12.6(3) no
C6 C1 C2 C26 -161.22(16) no
C2 C1 C7 C8 -166.98(16) no
C2 C1 C7 C16 8.7(3) no
C7 C1 C2 C3 -173.31(16) no
C7 C1 C2 C26 12.8(3) no
C6 C1 C7 C8 6.8(3) no
C6 C1 C7 C16 -177.56(16) no
C7 C1 C6 C5 -156.12(17) no
C7 C1 C6 C66 30.3(3) no
C1 C2 C3 C4 -27.6(3) no
C1 C2 C3 C27 147.0(2) no
C1 C2 C26 C17 -17.2(3) no
C1 C2 C26 C25 158.02(18) no
C3 C2 C26 C17 169.19(18) no
C3 C2 C26 C25 -15.5(3) no
C26 C2 C3 C4 145.9(2) no
C26 C2 C3 C27 -39.5(3) no
C2 C3 C4 C5 11.9(3) no
C2 C3 C4 C46 -173.72(16) no
C2 C3 C27 C28 -13.3(3) no
C2 C3 C27 C36 169.53(18) no
C4 C3 C27 C28 161.24(19) no
C4 C3 C27 C36 -15.9(3) no
C27 C3 C4 C5 -162.95(17) no
C27 C3 C4 C46 11.4(3) no
C3 C4 C5 C6 18.8(3) no
C3 C4 C5 C47 -156.86(17) no
C3 C4 C46 C37 9.5(3) no
C3 C4 C46 C45 -167.33(17) no
C5 C4 C46 C37 -176.36(17) no
C5 C4 C46 C45 6.8(3) no
C46 C4 C5 C6 -155.47(18) no
C46 C4 C5 C47 28.9(3) no
C4 C5 C6 C1 -33.8(2) no
C4 C5 C6 C66 140.65(17) no
C4 C5 C47 C48 34.1(3) no
C4 C5 C47 C56 -157.41(18) no
C6 C5 C47 C48 -141.64(19) no
C6 C5 C47 C56 26.8(2) no
C47 C5 C6 C1 142.31(17) no
C47 C5 C6 C66 -43.3(2) no
C1 C6 C66 C57 -164.80(16) no
C1 C6 C66 C65 28.6(3) no
C5 C6 C66 C57 21.5(2) no
C5 C6 C66 C65 -145.18(18) no
C1 C7 C8 C9 -170.70(16) no
C1 C7 C16 C15 156.98(16) no
C1 C7 C16 C17 -26.2(2) no
C8 C7 C16 C15 -27.1(2) no
C8 C7 C16 C17 149.67(17) no
C16 C7 C8 C9 13.6(3) no
C7 C8 C9 C10 7.3(3) no
C8 C9 C10 C11 166.09(17) no
C8 C9 C10 C15 -13.5(3) no
C9 C10 C11 C12 -175.40(16) no
C9 C10 C15 C14 173.54(15) no
C9 C10 C15 C16 -0.8(2) no
C11 C10 C15 C14 -6.1(2) no
C11 C10 C15 C16 179.55(15) no
C15 C10 C11 C12 4.2(3) no
C10 C11 C12 C13 0.4(3) no
C11 C12 C13 C14 -3.1(3) no
C12 C13 C14 C15 1.0(3) no
C13 C14 C15 C10 3.6(3) no
C13 C14 C15 C16 177.74(15) no
C10 C15 C16 C7 21.2(2) no
C10 C15 C16 C17 -155.41(16) no
C14 C15 C16 C7 -152.94(17) no
C14 C15 C16 C17 30.5(3) no
C7 C16 C17 C18 -147.46(19) no
C7 C16 C17 C26 21.7(3) no
C15 C16 C17 C18 29.1(3) no
C15 C16 C17 C26 -161.75(16) no
C16 C17 C18 C19 8.7(4) no
C16 C17 C18 C23 -178.75(19) no
C16 C17 C26 C2 -0.1(3) no
C16 C17 C26 C25 -175.38(17) no
C18 C17 C26 C2 169.54(18) no
C18 C17 C26 C25 -5.7(3) no
C26 C17 C18 C19 -160.4(2) no
C26 C17 C18 C23 12.2(3) no
C17 C18 C19 C20 179.6(2) no
C17 C18 C23 C22 177.75(19) no
C17 C18 C23 C24 -8.5(3) no
C19 C18 C23 C22 -9.2(3) no
C19 C18 C23 C24 164.6(2) no
C23 C18 C19 C20 6.9(4) no
C18 C19 C20 C21 -0.4(4) no
C19 C20 C21 C22 -4.0(4) no
C20 C21 C22 C23 1.6(4) no
C21 C22 C23 C18 5.1(4) no
C21 C22 C23 C24 -168.6(2) no
C18 C23 C24 C25 -1.9(3) no
C22 C23 C24 C25 171.8(2) no
C23 C24 C25 C26 8.8(3) no
C24 C25 C26 C2 179.83(19) no
C24 C25 C26 C17 -4.8(3) no
C3 C27 C28 C29 178.23(17) no
C3 C27 C36 C35 169.85(17) no
C3 C27 C36 C37 -0.5(3) no
C28 C27 C36 C35 -7.4(3) no
C28 C27 C36 C37 -177.69(18) no
C36 C27 C28 C29 -4.6(3) no
C27 C28 C29 C30 9.0(3) no
C28 C29 C30 C31 172.57(19) no
C28 C29 C30 C35 -1.1(3) no
C29 C30 C31 C32 -166.3(2) no
C29 C30 C35 C34 162.83(19) no
C29 C30 C35 C36 -10.7(3) no
C31 C30 C35 C34 -10.9(3) no
C31 C30 C35 C36 175.6(2) no
C35 C30 C31 C32 7.3(4) no
C30 C31 C32 C33 0.7(4) no
C31 C32 C33 C34 -4.9(4) no
C32 C33 C34 C35 0.9(4) no
C33 C34 C35 C30 6.9(4) no
C33 C34 C35 C36 -179.9(2) no
C30 C35 C36 C27 14.8(3) no
C30 C35 C36 C37 -175.2(2) no
C34 C35 C36 C27 -158.3(2) no
C34 C35 C36 C37 11.7(4) no
C27 C36 C37 C38 -160.38(18) no
C27 C36 C37 C46 21.2(3) no
C35 C36 C37 C38 29.7(3) no
C35 C36 C37 C46 -148.7(2) no
C36 C37 C38 C39 29.4(3) no
C36 C37 C38 C43 -156.38(18) no
C36 C37 C46 C4 -25.8(3) no
C36 C37 C46 C45 151.20(18) no
C38 C37 C46 C4 155.70(18) no
C38 C37 C46 C45 -27.3(3) no
C46 C37 C38 C39 -152.20(18) no
C46 C37 C38 C43 22.0(2) no
C37 C38 C39 C40 177.12(16) no
C37 C38 C43 C42 -179.88(15) no
C37 C38 C43 C44 -2.3(3) no
C39 C38 C43 C42 -5.4(3) no
C39 C38 C43 C44 172.20(16) no
C43 C38 C39 C40 2.9(3) no
C38 C39 C40 C41 1.4(3) no
C39 C40 C41 C42 -3.1(3) no
C40 C41 C42 C43 0.5(3) no
C41 C42 C43 C38 3.8(3) no
C41 C42 C43 C44 -173.67(19) no
C38 C43 C44 C45 -12.1(3) no
C42 C43 C44 C45 165.4(2) no
C43 C44 C45 C46 6.6(3) no
C44 C45 C46 C4 -169.68(19) no
C44 C45 C46 C37 13.5(3) no
C5 C47 C48 C49 167.29(18) no
C5 C47 C56 C55 -162.88(17) no
C5 C47 C56 C57 12.3(3) no
C48 C47 C56 C55 5.6(3) no
C48 C47 C56 C57 -179.25(17) no
C56 C47 C48 C49 -1.2(3) no
C47 C48 C49 C50 -3.2(3) no
C48 C49 C50 C51 -173.83(19) no
C48 C49 C50 C55 3.0(3) no
C49 C50 C51 C52 175.2(2) no
C49 C50 C55 C54 -173.30(18) no
C49 C50 C55 C56 1.5(3) no
C51 C50 C55 C54 3.6(3) no
C51 C50 C55 C56 178.36(18) no
C55 C50 C51 C52 -1.6(3) no
C50 C51 C52 C53 -1.0(4) no
C51 C52 C53 C54 1.4(4) no
C52 C53 C54 C55 0.7(4) no
C53 C54 C55 C50 -3.2(3) no
C53 C54 C55 C56 -177.74(19) no
C50 C55 C56 C47 -5.7(3) no
C50 C55 C56 C57 179.58(18) no
C54 C55 C56 C47 168.74(19) no
C54 C55 C56 C57 -5.9(3) no
C47 C56 C57 C58 139.6(2) no
C47 C56 C57 C66 -34.2(3) no
C55 C56 C57 C58 -45.5(3) no
C55 C56 C57 C66 140.6(2) no
C56 C57 C58 C59 -10.8(3) no
C56 C57 C58 C63 175.32(19) no
C56 C57 C66 C6 17.6(3) no
C56 C57 C66 C65 -175.77(17) no
C58 C57 C66 C6 -156.63(19) no
C58 C57 C66 C65 10.0(3) no
C66 C57 C58 C59 163.0(2) no
C66 C57 C58 C63 -11.0(3) no
C57 C58 C59 C60 -176.5(2) no
C57 C58 C63 C62 178.26(19) no
C57 C58 C63 C64 4.3(3) no
C59 C58 C63 C62 4.1(3) no
C59 C58 C63 C64 -169.9(2) no
C63 C58 C59 C60 -2.4(4) no
C58 C59 C60 C61 -0.9(4) no
C59 C60 C61 C62 2.7(5) no
C60 C61 C62 C63 -1.1(5) no
C61 C62 C63 C58 -2.4(4) no
C61 C62 C63 C64 171.5(3) no
C58 C63 C64 C65 3.5(3) no
C62 C63 C64 C65 -170.4(2) no
C63 C64 C65 C66 -4.6(3) no
C64 C65 C66 C6 164.26(19) no
C64 C65 C66 C57 -2.3(3) no
loop_
_platon_squeeze_void_nr
_platon_squeeze_void_average_x
_platon_squeeze_void_average_y
_platon_squeeze_void_average_z
_platon_squeeze_void_volume
_platon_squeeze_void_count_electrons
_platon_squeeze_void_content
1 0.016 0.000 0.500 641 164 ' '
2 0.500 1.000 1.000 76 12 ' '
