#------------------------------------------------------------------------------
#$Date: 2017-09-25 10:05:34 +0300 (Mon, 25 Sep 2017) $
#$Revision: 201228 $
#$URL: file:///home/coder/svn-repositories/cod/cif/4/12/64/4126448.cif $
#------------------------------------------------------------------------------
#
# This file is available in the Crystallography Open Database (COD),
# http://www.crystallography.net/
#
# All data on this site have been placed in the public domain by the
# contributors.
#
data_4126448
loop_
_publ_author_name
'Garc\'ia-Morales, Cristina'
'Ranieri, Beatrice'
'Escofet, Imma'
'L\'opez-Suarez, Laura'
'Obradors, Carla'
'Konovalov, Andrey I.'
'Echavarren, Antonio M.'
_publ_section_title
;
 Enantioselective Synthesis of Cyclobutenes by Intermolecular [2+2]
 Cycloaddition with Non-C2 Symmetric Digold Catalysts.
;
_journal_name_full               'Journal of the American Chemical Society'
_journal_paper_doi               10.1021/jacs.7b07651
_journal_year                    2017
_chemical_absolute_configuration ad
_chemical_formula_sum            'C25 H32'
_chemical_formula_weight         332.50
_chemical_name_systematic
;
 ?
;
_space_group_IT_number           4
_space_group_name_Hall           'P 2yb'
_symmetry_cell_setting           monoclinic
_symmetry_space_group_name_Hall  'P 2yb'
_symmetry_space_group_name_H-M   'P 1 21 1'
_atom_sites_solution_hydrogens   geom
_audit_creation_method           SHELXL-2014
_cell_angle_alpha                90
_cell_angle_beta                 91.584(6)
_cell_angle_gamma                90
_cell_formula_units_Z            2
_cell_length_a                   10.1094(6)
_cell_length_b                   6.1675(4)
_cell_length_c                   16.2477(12)
_cell_measurement_reflns_used    13423
_cell_measurement_temperature    100(2)
_cell_measurement_theta_max      30.190
_cell_measurement_theta_min      2.344
_cell_volume                     1012.65(12)
_computing_cell_refinement
'CrystalClear-SM Expert 2.1 b29 (Rigaku, 2013)'
_computing_data_collection
'CrystalClear-SM Expert 2.1 b29 (Rigaku, 2013)'
_computing_data_reduction
'CrystalClear-SM Expert 2.1 b29 (Rigaku, 2013)'
_computing_molecular_graphics    'SHELXL-2014 (Sheldrick, 2014)'
_computing_publication_material  'SHELXL-2014 (Sheldrick, 2014)'
_computing_structure_refinement  'SHELXL-2014 (Sheldrick, 2014)'
_computing_structure_solution    Sir2014
_diffrn_ambient_temperature      100(2)
_diffrn_detector_area_resol_mean 5.8140
_diffrn_detector_type            'PILATUS 200K'
_diffrn_measured_fraction_theta_full 0.999
_diffrn_measured_fraction_theta_max 0.893
_diffrn_measurement_device_type  '1/4chi goniometer'
_diffrn_measurement_method
;
 Fullsphere data collection, phi and omega scans
;
_diffrn_measurement_specimen_support 'magnetic support with MicroMount'
_diffrn_radiation_monochromator  'Confocal Max Flux optic'
_diffrn_radiation_type           MoK\a
_diffrn_radiation_wavelength     0.7107
_diffrn_reflns_av_R_equivalents  0.0717
_diffrn_reflns_av_unetI/netI     0.0927
_diffrn_reflns_Laue_measured_fraction_full 0.999
_diffrn_reflns_Laue_measured_fraction_max 0.893
_diffrn_reflns_limit_h_max       14
_diffrn_reflns_limit_h_min       -12
_diffrn_reflns_limit_k_max       8
_diffrn_reflns_limit_k_min       -8
_diffrn_reflns_limit_l_max       21
_diffrn_reflns_limit_l_min       -21
_diffrn_reflns_number            13423
_diffrn_reflns_point_group_measured_fraction_full 0.984
_diffrn_reflns_point_group_measured_fraction_max 0.836
_diffrn_reflns_theta_full        25.242
_diffrn_reflns_theta_max         30.190
_diffrn_reflns_theta_min         2.344
_diffrn_source                   'Microfocus rotating anode X-ray tube'
_diffrn_source_current           24
_diffrn_source_power             50
_diffrn_source_size              '0.2 mm x 0.2 mm fine focus'
_diffrn_source_type              'Rigaku MicroMax-007HF'
_exptl_absorpt_coefficient_mu    0.061
_exptl_absorpt_correction_T_max  0.998
_exptl_absorpt_correction_T_min  0.768
_exptl_absorpt_correction_type   multi-scan
_exptl_absorpt_process_details
; 
 CrystalClear-SM Expert 2.1 b29 (Rigaku, 2013)
;
_exptl_crystal_colour            Colourless
_exptl_crystal_density_diffrn    1.090
_exptl_crystal_description       Plate
_exptl_crystal_F_000             364
_exptl_crystal_size_max          0.15
_exptl_crystal_size_mid          0.1
_exptl_crystal_size_min          0.04
_refine_diff_density_max         0.422
_refine_diff_density_min         -0.286
_refine_diff_density_rms         0.069
_refine_ls_abs_structure_details
;
 Flack x determined using 1287 quotients [(I+)-(I-)]/[(I+)+(I-)]
 (Parsons, Flack and Wagner, Acta Cryst. B69 (2013) 249-259).
;
_refine_ls_abs_structure_Flack   -10.0(10)
_refine_ls_extinction_method     none
_refine_ls_goodness_of_fit_ref   1.044
_refine_ls_hydrogen_treatment    constr
_refine_ls_matrix_type           full
_refine_ls_number_parameters     233
_refine_ls_number_reflns         5030
_refine_ls_number_restraints     1
_refine_ls_restrained_S_all      1.044
_refine_ls_R_factor_all          0.1045
_refine_ls_R_factor_gt           0.0703
_refine_ls_shift/su_max          0.000
_refine_ls_shift/su_mean         0.000
_refine_ls_structure_factor_coef Fsqd
_refine_ls_weighting_details
'w=1/[\s^2^(Fo^2^)+(0.1000P)^2^] where P=(Fo^2^+2Fc^2^)/3'
_refine_ls_weighting_scheme      calc
_refine_ls_wR_factor_gt          0.1616
_refine_ls_wR_factor_ref         0.1777
_reflns_Friedel_coverage         0.726
_reflns_Friedel_fraction_full    0.966
_reflns_Friedel_fraction_max     0.769
_reflns_number_gt                3610
_reflns_number_total             5030
_reflns_threshold_expression     'I > 2\s(I)'
_cod_data_source_file            ja7b07651_si_006.cif
_cod_data_source_block           CG3_49
_cod_depositor_comments
;
The following automatic conversions were performed:

'_symmetry_cell_setting' value 'Monoclinic' changed to 'monoclinic'
according to
/home/data/users/saulius/crontab/automatic-downloads/rss-feeds/ACS/lib/dictionaries/cif_core.dic
dictionary named 'cif_core.dic' version 2.4.2 from 2011-04-26.

'_exptl_absorpt_correction_type' value 'Multi-scan' changed to
'multi-scan' according to
/home/data/users/saulius/crontab/automatic-downloads/rss-feeds/ACS/lib/dictionaries/cif_core.dic
dictionary named 'cif_core.dic' version 2.4.2 from 2011-04-26.

Automatic conversion script
Id: cif_fix_values 4973 2017-02-22 13:04:09Z antanas 
;
_cod_original_cell_volume        1012.66(12)
_cod_original_sg_symbol_H-M      P2(1)
_cod_database_code               4126448
_shelx_space_group_comment
;
The symmetry employed for this shelxl refinement is uniquely defined
by the following loop, which should always be used as a source of
symmetry information in preference to the above space-group names.
They are only intended as comments.
;
_shelx_estimated_absorpt_t_min   0.991
_shelx_estimated_absorpt_t_max   0.998
_shelxl_version_number           2014-3
_shelx_res_file
;
TITL CG3_49 in P2(1)
CELL 0.71073  10.109434   6.167524  16.247688  90.0000  91.5840  90.0000
ZERR    2.00   0.000570   0.000425   0.001199   0.0000   0.0059   0.0000
LATT -1
SYMM -x, y+1/2,-z
SFAC C  H
UNIT 50 64
LIST 4
ACTA
CONF
L.S. 15
BOND
FMAP 2
PLAN 32
size 0.15 0.1 0.04
WGHT    0.100000
FVAR       0.65541
C1    1    1.088818    0.728545    0.292410    11.00000    0.01486    0.05162 =
         0.03234   -0.01010    0.00299   -0.00771
AFIX 137
H1A   2    1.144300    0.604295    0.284660    11.00000   -1.50000
H1B   2    1.118904    0.806467    0.340530    11.00000   -1.50000
H1C   2    1.092877    0.821427    0.245134    11.00000   -1.50000
AFIX   0
C2    1    0.946035    0.654380    0.303411    11.00000    0.01084    0.03157 =
         0.02570   -0.00048    0.00021    0.00199
C3    1    0.924313    0.530264    0.387368    11.00000    0.01543    0.03608 =
         0.02619   -0.00053    0.00010    0.00434
AFIX  23
H3A   2    0.878027    0.393160    0.381395    11.00000   -1.20000
H3B   2    1.003432    0.515980    0.422094    11.00000   -1.20000
AFIX   0
C4    1    0.836743    0.719813    0.409051    11.00000    0.01274    0.02436 =
         0.02662    0.00077   -0.00230    0.00068
C5    1    0.854789    0.824902    0.338005    11.00000    0.01675    0.02434 =
         0.02954   -0.00268   -0.00155    0.00059
AFIX  43
H5    2    0.822739    0.955881    0.317280    11.00000   -1.20000
AFIX   0
C6    1    0.896114    0.532759    0.227508    11.00000    0.01171    0.02803 =
         0.02206    0.00205    0.00367   -0.00188
C7    1    0.803737    0.625062    0.172710    11.00000    0.01220    0.01967 =
         0.03128   -0.00164    0.00244    0.00085
AFIX  43
H7    2    0.769532    0.761705    0.183667    11.00000   -1.20000
AFIX   0
C8    1    0.762413    0.516126    0.102383    11.00000    0.01408    0.02549 =
         0.02337    0.00253   -0.00088   -0.00005
AFIX  43
H8    2    0.699718    0.581015    0.067408    11.00000   -1.20000
AFIX   0
C9    1    0.811029    0.313314    0.081986    11.00000    0.01286    0.02604 =
         0.02443    0.00243    0.00420   -0.00520
C10   1    0.902242    0.219978    0.137583    11.00000    0.01504    0.02169 =
         0.03217    0.00049    0.00432    0.00199
AFIX  43
H10   2    0.935696    0.082723    0.126810    11.00000   -1.20000
AFIX   0
C11   1    0.944067    0.328569    0.208872    11.00000    0.01400    0.02863 =
         0.02550    0.00473    0.00095    0.00338
AFIX  43
H11   2    1.005295    0.262801    0.244607    11.00000   -1.20000
AFIX   0
C12   1    0.763134    0.196584    0.003476    11.00000    0.01400    0.02385 =
         0.02402   -0.00428    0.00164   -0.00268
C13   1    0.627913    0.090272    0.019822    11.00000    0.01425    0.02974 =
         0.03633   -0.00496    0.00234   -0.00183
AFIX 137
H13A  2    0.595064    0.020710   -0.029491    11.00000   -1.50000
H13B  2    0.566338    0.199509    0.036225    11.00000   -1.50000
H13C  2    0.638356   -0.015430    0.062885    11.00000   -1.50000
AFIX   0
C14   1    0.745984    0.355281   -0.068000    11.00000    0.02991    0.03247 =
         0.02696   -0.00320   -0.00284   -0.00155
AFIX 137
H14A  2    0.724195    0.276725   -0.117550    11.00000   -1.50000
H14B  2    0.826915    0.433813   -0.074892    11.00000   -1.50000
H14C  2    0.676045    0.455208   -0.056552    11.00000   -1.50000
AFIX   0
C15   1    0.859888    0.020702   -0.022802    11.00000    0.01866    0.03226 =
         0.03286   -0.00765    0.00227   -0.00033
AFIX 137
H15A  2    0.829466   -0.041404   -0.074092    11.00000   -1.50000
H15B  2    0.865074   -0.090313    0.018576    11.00000   -1.50000
H15C  2    0.945861    0.083417   -0.029387    11.00000   -1.50000
AFIX   0
C16   1    0.761406    0.761363    0.483598    11.00000    0.01315    0.02927 =
         0.02388    0.00041   -0.00191    0.00074
C17   1    0.754332    0.609359    0.544189    11.00000    0.06947    0.04062 =
         0.04205    0.01617    0.02840    0.03290
AFIX  43
H17   2    0.796600    0.476776    0.537685    11.00000   -1.20000
AFIX   0
C18   1    0.685482    0.648141    0.615302    11.00000    0.07658    0.03790 =
         0.03711    0.01848    0.02953    0.02752
AFIX  43
H18   2    0.682810    0.539956    0.655095    11.00000   -1.20000
AFIX   0
C19   1    0.621201    0.839707    0.629248    11.00000    0.01045    0.02935 =
         0.02551   -0.00382    0.00048   -0.00010
C20   1    0.625058    0.989978    0.567043    11.00000    0.04531    0.03665 =
         0.03120    0.00465    0.00706    0.02201
AFIX  43
H20   2    0.580145    1.120426    0.572904    11.00000   -1.20000
AFIX   0
C21   1    0.694161    0.953035    0.495450    11.00000    0.05696    0.03598 =
         0.02212    0.00947    0.00740    0.01756
AFIX  43
H21   2    0.695018    1.059408    0.454899    11.00000   -1.20000
AFIX   0
C22   1    0.544840    0.875754    0.708619    11.00000    0.01324    0.02739 =
         0.02588   -0.00210    0.00410   -0.00116
C23   1    0.409798    0.763611    0.700228    11.00000    0.01676    0.03655 =
         0.04231   -0.01098    0.00725   -0.00399
AFIX 137
H23A  2    0.359870    0.826621    0.655158    11.00000   -1.50000
H23B  2    0.362568    0.782225    0.750192    11.00000   -1.50000
H23C  2    0.422395    0.611767    0.690080    11.00000   -1.50000
AFIX   0
C24   1    0.620041    0.780276    0.782967    11.00000    0.02566    0.03676 =
         0.02834   -0.00255    0.00310    0.00298
AFIX 137
H24A  2    0.626697    0.625915    0.776707    11.00000   -1.50000
H24B  2    0.573524    0.812879    0.832175    11.00000   -1.50000
H24C  2    0.707166    0.842026    0.786745    11.00000   -1.50000
AFIX   0
C25   1    0.522334    1.117947    0.724673    11.00000    0.01945    0.03013 =
         0.03119   -0.00386    0.00557   -0.00229
AFIX 137
H25A  2    0.605837    1.192164    0.725921    11.00000   -1.50000
H25B  2    0.480626    1.136039    0.776595    11.00000   -1.50000
H25C  2    0.466459    1.177169    0.681546    11.00000   -1.50000
AFIX   0
HKLF 4
REM  CG3_49 in P2(1)
REM R1 =  0.0703 for    3610 Fo > 4sig(Fo)  and  0.1045 for all    5030 data
REM    233 parameters refined using      1 restraints
END
WGHT      0.1033      0.0000
REM Highest difference peak  0.422,  deepest hole -0.286,  1-sigma level  0.069
Q1    1   0.9412  0.5584  0.3404  11.00000  0.05    0.42
Q2    1   0.8569  0.8555  0.3938  11.00000  0.05    0.38
Q3    1   0.5288  1.0049  0.6951  11.00000  0.05    0.36
Q4    1   0.7558  0.2143 -0.0475  11.00000  0.05    0.34
Q5    1   0.8022  0.2917  0.0336  11.00000  0.05    0.33
Q6    1   0.7562  0.6024  0.4924  11.00000  0.05    0.33
Q7    1   0.7670  0.5194  0.1505  11.00000  0.05    0.33
Q8    1   0.6184  0.8464  0.5763  11.00000  0.05    0.33
Q9    1   0.7925  0.6447  0.1120  11.00000  0.05    0.33
Q10   1   0.9138  0.2003  0.2006  11.00000  0.05    0.31
Q11   1   0.9083  0.5698  0.2748  11.00000  0.05    0.31
Q12   1   0.9354  0.3422  0.1556  11.00000  0.05    0.31
Q13   1   0.6322  0.9780  0.6194  11.00000  0.05    0.29
Q14   1   0.9443  0.3633  0.2598  11.00000  0.05    0.28
Q15   1   0.5269  0.9878  0.7529  11.00000  0.05    0.27
Q16   1   0.7627  0.7584  0.5354  11.00000  0.05    0.27
Q17   1   0.7401  0.5452  0.5387  11.00000  0.05    0.27
Q18   1   0.7825  0.4545  0.0468  11.00000  0.05    0.26
Q19   1   0.7666  0.5781  0.0525  11.00000  0.05    0.26
Q20   1   0.9340  0.6525  0.2495  11.00000  0.05    0.25
Q21   1   0.6969  0.6188  0.5661  11.00000  0.05    0.25
Q22   1   0.8936  0.6015  0.1901  11.00000  0.05    0.25
Q23   1   0.9043  0.0788  0.1484  11.00000  0.05    0.25
Q24   1   0.7488  0.8902  0.5148  11.00000  0.05    0.24
Q25   1   0.8176  0.7885  0.1488  11.00000  0.05    0.24
Q26   1   0.7392  0.5005 -0.0613  11.00000  0.05    0.24
Q27   1   0.8100  0.2600  0.1262  11.00000  0.05    0.24
Q28   1   0.9365  0.2402  0.2561  11.00000  0.05    0.23
Q29   1   0.5603  0.8670  0.7632  11.00000  0.05    0.23
Q30   1   0.8554  0.8902  0.2812  11.00000  0.05    0.23
Q31   1   0.7232  0.6208  0.0295  11.00000  0.05    0.23
Q32   1   0.9240  0.4012  0.3502  11.00000  0.05    0.23
;
_shelx_res_checksum              84176
_shelx_hkl_file
;
   0   0  -3 606.099 44.3787   2
   0   0  -4 302.495 22.2289   2
   0   0  -5 2.84970 1.28266   2
   0   0   6-1.28064 1.70922   1
   0   0  -6 0.41430 1.33131   2
   0   0   7 3.94726 1.94520   1
   0   0   7 3.54455 1.89803   2
   0   0  -7 3.49556 1.46584   2
   0   0   8-0.93603 1.95099   2
   0   0  -8-1.16786 1.63309   2
   0   0   9 3.01105 2.12913   2
   0   0  -9 5.44960 1.66755   2
   0   0   9 4.46275 2.10509   1
   0   0 -10 317.926 24.2124   2
   0   0  10 315.013 24.2460   2
   0   0  10 352.718 24.2990   1
   0   0 -11 1.45695 1.76170   2
   0   0  11 1.48398 2.20148   2
   0   0  11 0.66388 2.35843   1
   0   0 -12 16.8430 2.49469   2
   0   0  12 12.5598 2.85281   2
   0   0  12 26.3169 3.23854   1
   0   0 -13 82.9368 6.54097   1
   0   0 -13 69.5740 6.20467   2
   0   0  13 74.0397 6.56638   1
   0   0  13 82.7580 6.44283   2
   0   0  14 83.1222 7.58728   1
   0   0 -14 101.671 7.58189   1
   0   0  14 101.269 7.62765   2
   0   0 -14 85.5198 7.30338   2
   0   0  15 23.9752 4.06004   1
   0   0 -15 21.4328 3.30543   2
   0   0  16 0.39142 3.51491   1
   0   0 -16 0.08175 2.81281   2
   0   0  17 2.24075 4.00696   1
   0   0 -17-1.38718 2.94010   2
   0   0  18 13.4341 4.53597   1
   0   0 -18 10.3629 3.40310   2
   0   0  19 16.8707 4.86049   1
   0   0 -19 10.1192 3.59285   2
   0   0 -20 8.35970 3.60612   2
   0   0  20 7.12575 4.90641   1
   0   0  21 1.58634 5.15465   1
   0   0 -21 7.33906 3.68569   2
   0   1   0 0.82502 1.15219   1
   0  -1   0 3.09001 1.31437   1
   0  -1   0 0.15895 0.79372   3
   0   1   1 1111.98 79.7314   1
   0  -1   1 1106.36 79.7020   2
   0   1  -1 1051.43 79.7403   1
   0  -1   1 1075.89 79.7247   3
   0   1  -1 1056.70 79.7272   3
   0   1   1 1088.63 79.7364   1
   0   1  -1 1111.27 79.7047   2
   0   1  -2 126.416 7.94694   1
   0  -1  -2 102.349 7.89156   1
   0  -1   2 126.959 7.84075   2
   0   1   2 95.6032 7.79574   2
   0   1  -2 114.421 7.84683   2
   0   1   2 110.082 7.86843   1
   0  -1   2 91.9187 7.82242   3
   0   1  -2 93.4981 7.84797   3
   0  -1  -2 105.443 7.78404   2
   0   1   3 52.7460 4.51702   3
   0   1  -3 53.8809 4.59560   1
   0  -1   3 64.9175 4.48928   2
   0   1   3 54.8236 4.40468   2
   0  -1  -3 67.9662 4.39173   2
   0   1   3 52.9876 4.47555   1
   0  -1   3 57.3883 4.38533   3
   0   1  -3 53.4974 4.43761   2
   0  -1  -3 55.6605 4.55747   1
   0  -1  -4 112.112 8.08621   1
   0   1   4 105.407 8.12637   3
   0   1  -4 96.2336 8.10900   1
   0  -1  -4 123.104 8.02415   2
   0   1  -4 98.7741 8.03924   2
   0   1   4 99.2944 8.04263   2
   0  -1   4 101.723 8.08660   2
   0   1   4 118.226 8.09470   1
   0   1   5 27.0762 2.82107   2
   0   1  -5 28.1945 2.80040   2
   0  -1  -5 29.2374 2.93319   1
   0  -1   5 29.6871 2.97315   2
   0   1   5 36.4902 3.00807   1
   0  -1  -5 35.7925 2.69351   2
   0   1  -5 34.1543 3.06443   1
   0  -1   6 115.128 9.70547   2
   0   1   6 120.584 9.64883   2
   0   1  -6 133.732 9.74547   1
   0  -1  -6 137.779 9.62614   2
   0   1   6 140.376 9.72348   1
   0  -1  -6 123.023 9.73958   4
   0  -1  -6 126.310 9.69861   1
   0   1   7 154.700 11.6853   2
   0  -1  -7 153.762 11.7226   4
   0  -1  -7 161.912 11.6351   2
   0   1  -7 140.091 11.7315   1
   0  -1  -7 154.636 11.6990   1
   0   1   7 165.410 11.7233   1
   0  -1   7 155.518 11.7326   2
   0  -1   8 75.7263 6.42372   2
   0   1  -8 76.1102 6.51680   1
   0   1   8 85.0238 6.40398   2
   0  -1  -8 91.3998 6.48285   4
   0   1   8 84.5624 6.48893   1
   0  -1  -8 82.6708 6.46765   1
   0  -1  -8 77.2976 6.29961   2
   0  -1  -9 124.738 9.06276   2
   0  -1   9 106.154 9.17716   2
   0   1   9 113.503 9.15614   2
   0  -1  -9 124.061 9.15988   1
   0   1  -9 109.972 9.19945   1
   0   1   9 133.594 9.24915   1
   0  -1 -10 21.1926 2.49063   2
   0   1  10 24.3879 2.79007   2
   0  -1 -10 21.1722 2.78052   1
   0   1 -10 19.1273 2.95630   1
   0   1  10 21.4487 3.10780   1
   0   1  11 76.8166 6.31140   2
   0  -1 -11 73.9370 6.12516   2
   0  -1 -11 73.5266 6.27987   1
   0   1  11 88.0751 6.56095   1
   0  -1 -12 12.1036 2.37021   2
   0  -1 -12 21.6444 2.80609   1
   0   1  12 14.9115 3.18148   1
   0   1  12 19.1955 2.84943   2
   0  -1 -13 97.8589 8.24314   2
   0   1  13 118.929 8.68660   1
   0   1  13 105.984 8.48262   2
   0  -1 -13 107.406 8.45924   4
   0  -1 -13 103.195 8.38701   1
   0  -1 -14 116.043 9.54949   2
   0  -1 -14 128.958 9.74502   4
   0   1  14 138.494 9.78316   2
   0  -1 -14 136.786 9.67114   1
   0   1 -14 96.4488 9.56541   2
   0   1  14 146.472 10.0182   1
   0   1  15 5.01628 3.42482   1
   0   1  15 3.36488 2.52232   3
   0   1 -15 2.94503 2.78627   2
   0  -1 -15 2.58003 2.54657   2
   0   1 -16 61.5880 5.93059   2
   0  -1 -16 57.6355 5.86613   2
   0   1  16 77.3887 6.44847   1
   0   1  16 68.3777 5.72211   3
   0   1  17 10.8836 4.18603   1
   0   1 -17 7.70872 3.19912   2
   0   1  17 4.72621 2.78448   3
   0  -1 -17 9.14652 2.96433   2
   0  -1 -18 4.59616 3.06713   2
   0   1  18 13.7976 4.59108   1
   0   1 -18 8.40308 3.24363   2
   0   1 -19 6.99622 3.51633   2
   0  -1 -19 2.91356 3.33238   2
   0   1  19 3.62587 4.59953   1
   0  -1 -20-2.89994 3.57426   2
   0   1  20 6.08595 4.76419   1
   0   1 -20-2.05330 3.42749   2
   0   1  21 6.59936 5.16015   1
   0  -1 -21 7.97339 3.74608   2
   0  -2   0 348.367 25.1419   3
   0  -2   0 355.246 25.0106   2
   0   2   0 305.875 25.0349   2
   0  -2   0 362.674 25.1857   1
   0   2   0 384.814 25.1660   3
   0   2   0 316.134 25.1570   1
   0   2   1 6.95489 2.07973   1
   0   2  -1 5.52819 2.00018   1
   0  -2   1 8.12850 1.01850   2
   0   2  -1 5.19312 1.76240   3
   0   2  -1 5.27212 1.08436   2
   0  -2   1 5.10042 1.32321   3
   0  -2   1 8.19783 1.84710   1
   0  -2  -1 9.25309 1.68593   1
   0  -2  -1 3.72222 1.39779   3
   0   2   2 459.950 34.1962   1
   0  -2  -2 467.639 34.2090   3
   0  -2   2 493.770 34.1660   3
   0  -2   2 483.657 34.2355   1
   0   2  -2 459.799 34.1548   3
   0  -2  -2 447.936 34.0545   2
   0   2  -2 439.838 34.2072   1
   0   2  -2 467.762 34.1210   2
   0  -2   2 478.448 34.1059   2
   0   2   2 502.120 34.1828   1
   0   2   3 20.8858 2.02954   2
   0  -2   3 25.9556 2.27211   3
   0   2  -3 24.2926 2.38848   3
   0  -2  -3 23.9257 1.95491   2
   0  -2  -3 25.8641 2.67352   1
   0   2  -3 21.5261 2.71837   1
   0  -2   3 23.3867 2.59256   1
   0  -2   3 24.6258 2.21408   2
   0   2  -3 24.1870 2.17782   2
   0   2   3 26.0974 2.47714   1
   0   2  -4 37.7789 3.54402   1
   0   2   4 42.5722 3.50245   3
   0  -2  -4 35.7123 3.39545   1
   0  -2   4 35.2347 3.26718   2
   0   2   4 37.2781 3.06283   2
   0   2  -4 41.1719 3.14407   2
   0  -2  -4 38.1965 3.02814   2
   0   2  -4 34.9686 3.24222   3
   0  -2   4 36.1285 3.56924   1
   0  -2   4 39.9236 3.21585   3
   0   2   4 41.6768 3.35028   1
   0   2   5 145.378 11.2890   2
   0   2  -5 156.549 11.3345   2
   0  -2  -5 154.774 11.4202   1
   0   2  -5 147.341 11.4587   1
   0  -2   5 137.858 11.3822   2
   0  -2   5 162.350 11.5644   1
   0   2   5 147.545 11.4463   3
   0  -2  -5 159.203 11.2699   2
   0   2   5 170.406 11.4248   1
   0  -2   5 142.727 11.3120   3
   0   2  -6 62.6145 4.84632   2
   0   2   6 57.6384 5.01442   4
   0  -2  -6 61.9414 4.76184   2
   0   2   6 59.8528 5.05272   3
   0  -2  -6 63.5994 4.98782   1
   0   2  -6 60.3220 5.07761   1
   0  -2   6 60.0648 4.81437   3
   0   2   6 59.2658 4.80826   2
   0  -2   6 65.3630 5.25371   1
   0   2   6 71.1155 5.00477   1
   0  -2   6 54.3913 4.98046   2
   0   2   7 533.830 39.8762   3
   0   2   7 600.792 39.8779   1
   0   2   7 543.514 39.7969   2
   0  -2   7 573.686 39.7895   3
   0  -2   7 545.906 39.9197   1
   0  -2  -7 526.890 39.7683   2
   0  -2   7 512.818 39.8436   2
   0  -2  -7 540.240 39.8388   1
   0   2  -7 513.521 39.8509   1
   0   2  -7 529.114 39.8267   2
   0  -2  -8 23.6570 2.38379   2
   0   2   8 21.5560 2.82818   3
   0  -2   8 22.1876 2.99703   1
   0  -2  -8 24.9792 2.89300   1
   0  -2   8 24.4986 2.34347   3
   0   2  -8 23.2991 2.98753   1
   0  -2   8 18.3702 2.73767   2
   0   2  -8 26.5274 2.60005   2
   0   2   8 27.9320 2.63624   2
   0   2   8 29.1237 3.02404   1
   0  -2   9 5.45806 2.47528   1
   0  -2   9 6.34017 2.18718   2
   0  -2  -9 5.80902 2.17579   1
   0   2  -9 7.58604 1.91762   2
   0  -2  -9 10.3281 1.72898   2
   0   2   9 9.81867 2.52334   1
   0   2  -9 8.83484 2.35881   1
   0  -2   9 8.07254 1.61724   3
   0   2   9 10.6183 2.09661   2
   0   2   9 4.44403 2.19252   3
   0   2  10 21.6834 2.86471   3
   0  -2  10 24.4260 2.37212   3
   0  -2  10 16.9774 2.87705   2
   0  -2 -10 21.5688 2.78649   1
   0  -2 -10 20.1576 2.42419   2
   0  -2  10 24.3696 3.21260   1
   0   2 -10 22.4300 2.67714   2
   0   2  10 21.2573 2.79582   2
   0   2 -10 24.6221 3.10527   1
   0   2  10 26.5020 3.14215   1
   0   2  11 10.3250 3.17151   1
   0  -2  11 14.0453 1.94958   3
   0   2  11 6.82513 2.31406   2
   0  -2 -11 7.00115 2.02799   2
   0   2 -11 6.10358 2.89598   1
   0   2  11 7.57927 2.48857   3
   0  -2  11 12.5400 2.60417   2
   0  -2  11 8.99897 3.01022   1
   0  -2 -11 11.2113 2.42905   1
   0   2 -11 6.06710 2.19096   2
   0  -2 -12 5.89273 2.50389   1
   0   2  12 9.16287 3.24058   1
   0  -2  12 6.47860 2.77071   2
   0   2  12 9.75222 2.68747   3
   0  -2  12 14.8534 3.23015   1
   0  -2 -12 6.31349 2.06419   2
   0   2 -12 1.12836 2.27846   2
   0   2  12 5.25349 2.57194   2
   0   2 -12 9.05437 3.14948   1
   0  -2  12 6.48774 1.97058   3
   0  -2 -13 23.7888 3.22046   1
   0   2  13 20.1237 3.23085   2
   0  -2  13 19.1062 3.37216   2
   0   2  13 21.9655 3.91037   1
   0  -2  13 22.7185 3.65192   1
   0   2 -13 21.4321 3.07372   2
   0  -2  13 26.5688 2.66852   3
   0   2  13 20.5612 3.24374   3
   0  -2 -13 17.4190 2.74419   2
   0   2 -13 21.2326 3.76351   1
   0  -2 -14 96.8566 8.21423   2
   0   2  14 107.419 8.49740   2
   0   2  14 97.4947 8.41626   3
   0  -2  14 97.4592 8.76499   1
   0   2 -14 88.7813 8.35659   2
   0   2  14 118.497 8.83795   1
   0  -2  14 119.726 8.13179   3
   0  -2  15 48.7610 3.83633   3
   0   2  15 40.7749 5.13755   1
   0   2  15 37.5298 4.29218   3
   0   2 -15 36.0802 4.15614   2
   0  -2 -15 34.0768 4.03298   2
   0   2  15 39.4444 4.61256   2
   0  -2  15 27.5760 5.00603   1
   0   2  16-0.96655 4.10589   1
   0  -2 -16-2.51121 2.89682   2
   0  -2  16 2.50045 2.38922   3
   0  -2  16-0.34067 4.08211   1
   0   2 -16 0.26687 2.89942   2
   0   2  17 18.2109 4.80357   1
   0   2 -17 21.6938 3.78263   2
   0  -2  17 27.7284 4.87606   1
   0  -2 -17 28.8167 3.69880   2
   0  -2 -18 17.4789 3.53307   2
   0  -2  18 22.7959 5.07555   1
   0   2  18 24.2854 4.80305   1
   0  -2 -19 4.47125 3.25752   2
   0   2  19 9.77753 4.81419   1
   0   2  20 2.46191 4.98001   1
   0  -2 -20 3.33362 3.46116   2
   0  -2 -21 2.33448 3.53477   2
   0  -3   0 4.96450 0.67857   2
   0   3   0-0.90867 0.89451   2
   0  -3   0 0.03898 1.64964   3
   0  -3   0-0.46615 2.04414   1
   0   3   0 0.84760 2.11976   1
   0   3   0 0.19979 1.88983   3
   0  -3   1 140.630 7.98081   3
   0  -3  -1 130.687 7.94546   3
   0   3   1 146.580 8.06239   3
   0  -3   1 139.011 8.13665   1
   0  -3  -1 146.124 8.04990   1
   0   3   1 132.497 8.09715   1
   0  -3   1 126.842 7.68142   2
   0   3  -1 139.156 7.74290   2
   0   3  -1 114.339 8.04501   1
   0   3  -1 141.789 8.01988   3
   0   3  -2 202.553 15.7242   3
   0  -3   2 217.601 15.7343   3
   0   3   2 221.153 15.7462   1
   0   3   2 226.291 15.8028   3
   0   3  -2 191.677 15.7995   1
   0   3   2 223.110 15.8496   1
   0  -3  -2 221.699 15.7629   3
   0  -3   2 213.578 15.8169   1
   0  -3   2 203.138 15.5871   2
   0   3  -2 209.955 15.6141   2
   0  -3   3 336.242 24.4636   1
   0  -3  -3 302.194 24.1755   2
   0   3  -3 336.798 24.4613   1
   0   3   3 390.743 24.4087   1
   0  -3  -3 361.305 24.4235   3
   0  -3   3 330.641 24.2833   2
   0  -3   3 356.349 24.3628   3
   0   3  -3 326.539 24.3536   3
   0   3   3 344.096 24.4380   1
   0   3  -3 359.095 24.3044   2
   0  -3   4 15.3522 1.98037   2
   0   3   4 17.4984 1.66213   2
   0  -3   4 19.8807 2.04484   3
   0   3  -4 15.3078 1.89223   2
   0   3  -4 15.8863 2.19820   3
   0  -3   4 21.8412 2.72290   1
   0   3  -4 16.9463 2.68066   1
   0  -3  -4 14.8997 1.47133   2
   0   3   4 18.2278 2.29122   1
   0   3   4 17.4895 2.54935   1
   0  -3  -5 6.43709 1.08397   2
   0  -3   5 8.67491 1.67459   3
   0  -3   5 8.63691 1.72855   2
   0   3  -5 5.87509 1.59108   2
   0   3   5 9.62659 1.92250   1
   0   3   5 4.86592 2.22139   3
   0   3  -5 7.27956 1.73610   3
   0  -3   5 7.96889 2.19958   1
   0   3   5 6.86933 1.31115   2
   0   3  -5 8.19350 2.32087   1
   0   3   6 40.5866 3.70227   3
   0   3   6 43.5489 3.57374   1
   0  -3  -6 35.5386 3.05553   2
   0   3  -6 37.8022 3.76238   1
   0  -3   6 34.1007 3.23389   3
   0  -3   6 33.7903 3.79722   1
   0  -3  -6 38.6239 3.67404   1
   0   3  -6 40.3725 3.33383   2
   0   3   6 40.4541 3.17444   2
   0  -3   6 36.7554 3.41798   2
   0  -3  -7 17.5459 2.57501   1
   0  -3  -7 20.5470 1.95277   2
   0  -3   7 15.9789 2.97423   1
   0  -3   7 18.2303 2.40467   2
   0   3   7 14.7797 2.64646   3
   0  -3   7 17.9886 2.19606   3
   0   3   7 18.3791 2.52885   1
   0   3  -7 17.6827 2.31502   2
   0   3   7 18.7256 2.09484   2
   0   3  -7 23.0115 2.81267   1
   0  -3   8 3.71482 2.06325   2
   0  -3   8 8.40103 1.77091   3
   0   3   8 9.18116 1.72649   2
   0   3   8 6.02350 2.28735   4
   0   3  -8 6.81959 1.90725   2
   0  -3  -8 6.07037 2.49150   1
   0   3   8 7.12029 2.39321   3
   0  -3  -8 5.79835 1.41363   2
   0  -3   8 3.78428 2.71850   1
   0   3  -8 8.20438 2.46750   1
   0   3   8 7.92496 2.40696   1
   0   3   9 104.252 7.58042   2
   0  -3   9 97.3472 8.08655   1
   0  -3   9 85.0684 7.71941   2
   0  -3  -9 101.658 7.80879   1
   0  -3   9 99.5065 7.54666   3
   0   3  -9 99.7107 7.68279   2
   0  -3  -9 87.5095 7.46010   2
   0   3   9 93.6933 7.84166   3
   0   3  -9 103.350 7.82556   1
   0   3   9 120.561 7.85514   1
   0   3  10 77.6590 5.35341   1
   0  -3  10 55.8509 4.53810   3
   0  -3 -10 48.9349 4.49714   2
   0  -3 -10 55.1745 5.01912   1
   0   3 -10 55.3896 5.06152   1
   0   3 -10 51.4521 4.78190   2
   0  -3  10 60.7292 5.44195   1
   0  -3  10 53.6910 4.89374   2
   0   3  10 54.6555 5.03504   3
   0   3  10 55.5074 4.64270   2
   0  -3 -11 15.6528 2.39369   2
   0   3 -11 19.1406 3.33108   1
   0   3  11 22.4878 2.68434   2
   0   3 -11 20.7325 2.85664   2
   0   3  11 16.2899 3.10748   3
   0  -3  11 23.5019 3.14233   2
   0   3  11 22.5517 3.69540   1
   0  -3  11 20.3547 2.39830   3
   0  -3 -11 24.1650 3.14980   1
   0  -3  11 19.2448 3.90989   1
   0   3 -12 7.97033 2.51426   2
   0  -3 -12 3.12073 2.03827   2
   0  -3 -12 6.66360 2.86692   1
   0   3 -12 4.39094 3.13491   1
   0   3  12 10.2569 2.87586   3
   0  -3  12 8.85187 2.99291   2
   0  -3  12 9.05825 1.94784   3
   0   3  12 6.47286 2.47357   2
   0   3  12 6.79261 3.60030   1
   0  -3  12 2.95784 3.76843   1
   0  -3 -13 25.3817 3.02142   2
   0   3 -13 21.4277 3.32048   2
   0   3  13 29.1551 4.34703   1
   0  -3  13 28.7501 4.63641   1
   0   3  13 26.0006 3.37659   2
   0   3  13 25.8801 3.66190   3
   0  -3  13 26.4221 2.80996   3
   0   3  14 2.07926 4.17381   1
   0  -3  14 1.30698 4.35619   1
   0   3  14 2.75859 2.88379   2
   0   3 -14 1.40071 2.76379   2
   0  -3 -14-0.94688 2.33341   2
   0  -3  14-0.79792 2.06823   3
   0  -3 -15 6.67012 2.72406   2
   0  -3  15 7.63242 2.20962   3
   0   3  15 11.7497 4.44453   1
   0  -3  15 9.17124 4.79246   1
   0   3  15 5.59153 3.36690   2
   0   3 -15 7.05596 2.92036   2
   0  -3  16 23.5800 5.02959   1
   0   3  16 26.2072 4.84770   1
   0   3 -16 15.0447 3.56191   2
   0  -3 -16 14.4968 3.04205   2
   0  -3  17-4.27243 5.22664   1
   0   3 -17 4.71353 3.34740   2
   0   3  17-1.30953 4.70695   1
   0  -3 -17 2.58667 2.65748   2
   0  -3  18 7.46982 5.39551   1
   0  -3 -18 4.10789 3.12917   2
   0   3  18 10.3532 4.97392   1
   0   3 -18 4.38941 3.65483   2
   0   3 -19 31.0428 4.72367   2
   0   3  19 25.1692 5.73688   1
   0  -3 -19 22.3082 3.97971   2
   0  -3 -20 10.3946 3.62234   2
   0   3  20 17.5869 5.49528   1
   0  -4   0 104.586 7.87094   1
   0   4   0 108.328 7.84543   3
   0   4   0 110.012 7.95970   1
   0  -4   0 97.7918 7.35123   2
   0  -4   0 98.6322 7.72351   3
   0   4   0 99.1047 7.39494   2
   0   4  -1 13.5748 2.59277   1
   0  -4   1 18.5993 2.63342   1
   0  -4  -1 15.1335 0.99965   2
   0  -4   1 18.2037 2.18742   3
   0   4  -1 18.5510 1.60689   2
   0  -4   1 18.3522 1.37274   2
   0   4  -1 19.8207 2.47092   3
   0  -4  -1 24.2063 2.28407   3
   0  -4  -1 21.3283 2.55494   1
   0   4   1 19.2351 2.55658   3
   0   4   1 21.6920 2.58613   1
   0   4  -2 56.3079 4.38218   2
   0  -4   2 50.0585 4.60775   3
   0   4  -2 54.4175 4.89799   1
   0   4   2 64.0301 4.99874   1
   0  -4   2 54.2273 5.00153   1
   0   4   2 57.9481 4.74458   1
   0  -4  -2 57.7972 4.73061   3
   0  -4   2 53.5954 4.28432   2
   0   4  -2 56.0876 4.74046   3
   0   4   2 55.1716 4.88046   3
   0  -4   3 31.3212 2.84235   2
   0   4  -3 31.2760 3.22601   3
   0  -4  -3 34.3217 3.31198   3
   0   4   3 39.4384 3.66118   3
   0   4   3 28.3231 3.32392   1
   0  -4   3 33.6786 3.24569   3
   0   4   3 36.6216 3.75763   1
   0  -4   3 30.4951 3.71501   1
   0   4  -3 34.2030 2.91762   2
   0   4  -3 34.6484 3.59664   1
   0   4   4 2.08609 2.18576   1
   0  -4   4 2.12750 2.57246   1
   0   4   4 2.11004 2.53642   1
   0  -4   4 2.06234 1.49843   2
   0   4  -4 0.93082 2.01888   3
   0   4  -4 2.63186 2.62260   1
   0   4  -4 1.14302 1.50304   2
   0  -4  -4-0.94558 2.15548   3
   0  -4   4 1.98569 1.81503   3
   0  -4  -5 7.13855 0.87497   2
   0   4   5 10.1610 2.66750   1
   0  -4   5 9.09051 1.80949   2
   0  -4   5 9.14525 2.97406   1
   0  -4   5 15.7652 2.07832   3
   0   4  -5 6.64693 1.86052   2
   0   4   5 12.2786 2.30822   1
   0   4  -5 12.3079 2.68087   1
   0   4  -5 8.36039 2.27555   3
   0  -4  -6 18.7422 1.78129   2
   0  -4   6 21.1977 2.33859   2
   0   4  -6 22.8203 2.50762   3
   0   4   6 18.8390 3.10464   1
   0   4  -6 15.7336 3.03533   1
   0  -4   6 19.2627 2.41438   3
   0  -4  -6 16.0910 1.59924   2
   0   4   6 18.2779 2.66645   1
   0  -4   6 20.5770 3.41856   1
   0   4  -6 17.5284 2.36193   2
   0  -4  -7 118.571 9.54058   2
   0  -4   7 117.380 9.82904   2
   0  -4   7 132.608 10.2149   1
   0   4   7 139.026 10.1283   3
   0   4   7 133.203 9.63678   2
   0   4   7 161.313 10.0818   1
   0   4  -7 128.919 10.0387   1
   0   4   7 139.128 10.1024   1
   0   4  -7 121.056 9.80966   2
   0  -4   7 140.733 9.86412   3
   0   4   8 31.1774 2.62077   2
   0  -4  -8 22.2769 2.33069   2
   0  -4   8 26.0996 2.96902   2
   0   4   8 29.8877 3.66316   3
   0  -4   8 27.4190 2.92127   3
   0   4  -8 28.3865 3.55717   1
   0   4  -8 22.8101 2.90853   2
   0   4   8 29.1926 3.28844   1
   0  -4   8 24.6983 3.74157   1
   0  -4  -9 52.9123 4.97759   1
   0  -4  -9 46.8779 4.14038   2
   0   4   9 55.9608 4.36524   2
   0  -4   9 56.1561 4.47909   3
   0   4   9 59.0460 4.94180   4
   0  -4   9 46.1544 5.10958   1
   0   4   9 54.4960 5.14523   3
   0   4  -9 44.5534 4.49017   2
   0   4  -9 56.5316 4.99298   1
   0  -4   9 47.1731 4.70690   2
   0   4   9 62.8111 5.04240   1
   0   4 -10 21.4479 3.59875   1
   0   4 -10 18.5435 2.96536   2
   0  -4  10 24.3086 3.23624   2
   0   4  10 25.5630 3.63149   1
   0  -4  10 27.1872 2.87423   3
   0  -4 -10 26.0681 3.51557   1
   0   4  10 27.2515 2.75440   2
   0  -4 -10 21.0351 2.45600   2
   0  -4  10 24.2863 4.09977   1
   0  -4 -11 51.3665 4.78378   2
   0  -4 -11 59.8806 5.51370   1
   0   4  11 76.1096 5.81577   1
   0   4  11 68.3359 5.02597   2
   0  -4  11 56.5389 5.32647   2
   0   4 -11 60.8561 5.26949   2
   0  -4  11 55.4384 6.13137   1
   0  -4  11 53.4856 4.97427   3
   0   4  12 15.1835 4.07341   1
   0  -4  12 11.6645 2.36755   3
   0   4 -12 10.6469 2.90723   2
   0  -4 -12 9.96752 2.21557   2
   0  -4  12 9.87760 4.22630   1
   0   4  12 10.8144 2.71673   2
   0   4 -13 0.67412 2.85676   2
   0   4  13 3.00474 3.97831   1
   0  -4  13 7.78558 2.32849   3
   0  -4  13 5.80698 4.28604   1
   0  -4 -13 1.84517 1.97943   2
   0   4  14 7.59914 4.33965   1
   0  -4 -14 5.31732 2.17108   2
   0  -4  14 8.75026 4.49482   1
   0   4 -14 1.98576 2.99902   2
   0  -4  14 4.57122 2.32096   3
   0  -4 -15 7.65739 2.50471   2
   0  -4  15 5.34864 4.71294   1
   0   4 -15 8.19766 3.38044   2
   0   4  15 9.19755 4.52341   1
   0   4  16 35.8329 5.31269   1
   0  -4 -16 25.9124 3.46759   2
   0  -4  16 30.6156 5.56675   1
   0   4 -16 30.9899 4.30466   2
   0   4 -17 5.99008 3.71981   2
   0  -4  17 3.19138 5.10723   1
   0   4  18 2.89558 5.58659   1
   0  -4  18 0.15375 5.37113   1
   0   4 -18 0.57808 3.71149   2
   0   4  19-7.67048 5.94554   1
   0   5   0 2.30060 2.95870   1
   0  -5   0 0.89295 2.38306   3
   0   5   0-0.06928 2.65349   3
   0  -5   0 0.44413 3.00580   1
   0  -5   0 0.22966 0.64558   2
   0   5  -1 14.4352 3.03172   3
   0   5   1 25.3617 3.60091   1
   0   5  -1 17.1631 1.67071   2
   0  -5  -1 18.5322 2.80221   3
   0  -5   1 18.2547 2.78897   3
   0   5  -1 14.0196 3.00213   1
   0  -5   1 15.4756 1.50392   2
   0  -5   1 15.5883 3.21700   1
   0   5   1 12.4511 2.96412   3
   0   5  -2 20.6704 3.41097   1
   0   5  -2 21.9807 2.98293   3
   0  -5   2 18.1801 2.70453   3
   0   5  -2 21.1525 2.16416   2
   0  -5  -2 20.3534 2.88383   3
   0   5   2 19.4273 3.16272   3
   0  -5   2 17.8341 1.92870   2
   0   5   2 19.2335 3.40681   1
   0  -5   2 14.5448 3.40995   1
   0   5   2 22.6034 3.01576   1
   0   5   3 57.5720 5.36053   3
   0   5  -3 56.7379 5.12267   3
   0  -5   3 52.7102 4.99399   3
   0   5   3 67.4765 5.18719   1
   0   5  -3 64.5853 4.70220   2
   0  -5   3 50.0874 4.51761   2
   0   5   3 56.0830 5.38244   1
   0  -5   3 60.9453 5.61452   1
   0  -5  -3 56.6155 5.17305   3
   0   5  -3 56.5960 5.36221   1
   0   5  -4 20.7596 3.74307   1
   0   5  -4 20.6486 2.48066   2
   0  -5   4 16.1382 2.22828   2
   0  -5   4 20.9387 2.81571   3
   0  -5   4 17.1616 3.78546   1
   0   5   4 25.4500 3.70705   1
   0   5   4 24.4469 3.18563   1
   0   5  -4 22.2060 3.19428   3
   0   5   4 22.1779 3.39782   3
   0   5   5 63.7929 5.74135   3
   0   5  -5 65.4555 5.50459   3
   0   5   5 71.6702 5.55210   1
   0  -5   5 60.5552 5.39992   3
   0  -5   5 55.4068 5.06582   2
   0   5  -5 62.6220 5.79706   1
   0   5  -5 62.0516 5.15098   2
   0   5   5 64.1822 5.88169   1
   0  -5   5 65.0994 6.04377   1
   0   5  -6 42.8625 4.71012   1
   0  -5   6 48.4756 5.06604   1
   0   5   6 46.6006 4.95442   1
   0   5  -6 48.1677 4.15602   2
   0  -5   6 41.9123 4.35312   3
   0  -5   6 41.6931 4.09144   2
   0   5  -6 47.2134 4.36841   3
   0   5   6 55.0068 4.68121   1
   0   5   7 37.2976 3.65437   1
   0   5  -7 37.8267 3.35668   3
   0   5  -7 32.7724 3.11907   2
   0  -5  -7 25.7100 2.05125   2
   0  -5  -7 25.1119 2.09359   2
   0   5  -7 35.1032 3.86845   1
   0   5   7 32.5533 4.08955   1
   0  -5   7 36.1226 4.42339   1
   0  -5   7 29.6724 3.02339   2
   0  -5   7 34.8453 3.27366   3
   0  -5   8 19.3851 4.40485   1
   0   5   8 11.2782 3.49558   1
   0  -5  -8 13.1864 1.35874   2
   0   5   8 16.0407 3.18892   1
   0   5  -8 18.1023 2.72335   2
   0  -5   8 14.4259 2.72670   3
   0  -5   8 13.9906 2.51741   2
   0   5   9 26.5052 3.74078   1
   0  -5   9 25.3627 4.65736   1
   0  -5   9 22.2050 3.09165   2
   0  -5  -9 24.1240 2.17937   2
   0   5  -9 27.7670 3.33681   2
   0  -5   9 23.8398 3.14882   3
   0  -5  10 15.1813 4.72635   1
   0   5  10 24.3767 3.75953   4
   0  -5  10 23.1753 2.99134   3
   0  -5  10 22.6029 3.04872   2
   0   5  10 20.6165 3.79292   1
   0   5 -10 15.7593 3.23016   2
   0   5 -11 62.7768 6.08405   2
   0  -5  11 65.6509 5.73357   3
   0  -5  11 70.6774 7.01130   1
   0   5  11 75.5373 6.45958   1
   0   5  12-1.53797 4.01616   1
   0   5 -12-4.91031 3.02653   2
   0  -5  12-2.26410 2.51811   3
   0  -5  12 0.49417 4.57960   1
   0   5  13 8.84502 4.73689   1
   0  -5  13-5.44001 4.53564   1
   0   5 -13 0.55482 3.31838   2
   0   5  14 37.0663 5.24295   1
   0   5 -14 27.9624 4.30310   2
   0  -5  14 33.8622 5.57603   1
   0  -5  15 4.54940 4.90868   1
   0   5 -15 4.21344 3.64407   2
   0   5  15-0.10919 5.01619   1
   0  -5  16 0.14527 5.10717   1
   0   5 -16 2.01306 3.72612   2
   0   5  16 3.75778 5.31647   1
   0   5  17-5.73050 5.50315   1
   0   5 -17-2.36843 4.03611   2
   0  -6   0 28.6919 3.82706   3
   0   6   0 25.7883 3.90889   1
   0  -6   1 22.6988 4.00210   1
   0   6  -1 13.7874 3.79418   1
   0   6   1 17.0994 3.55491   1
   0   6   1 17.9673 3.86309   1
   0  -6  -1 18.4730 3.42779   3
   0  -6   1 21.2793 3.38082   3
   0   6  -2 1.06241 1.25649   2
   0  -6   2 5.44395 3.57603   1
   0   6   2 0.07439 2.97767   1
   0  -6   2-1.21162 2.94711   3
   0  -6  -2 8.34560 3.01046   3
   0   6  -2 1.93627 3.34610   1
   0   6   2 13.2030 3.68635   1
   0   6   3 44.7374 4.83661   1
   0   6   3 50.9467 4.59619   1
   0   6  -3 37.3040 3.52222   2
   0  -6   3 36.8815 4.26195   3
   0  -6   3 43.1694 5.06263   1
   0   6  -4 39.0282 3.55799   2
   0  -6   4 34.3209 3.95445   3
   0   6   4 34.9757 4.52849   1
   0  -6   4 37.0864 5.03431   1
   0  -6   5 10.9933 2.97557   3
   0   6   5 18.9155 3.59605   1
   0  -6   5 16.2254 4.49993   1
   0   6  -5 17.7261 3.39849   3
   0   6  -5 13.1414 2.52863   2
   0   6  -6 12.1411 2.58121   2
   0  -6   6 9.99732 4.42102   1
   0   6  -6 11.2651 3.28929   3
   0  -6   6 8.67662 2.88650   3
   0   6   6 15.9321 3.66022   1
   0   6   7 30.9251 4.16640   1
   0  -6   7 36.1367 5.13418   1
   0   6  -7 30.8027 3.97454   3
   0   6  -7 34.8296 3.63063   2
   0  -6   7 28.4404 3.73535   3
   0   6  -8 14.7626 2.86815   2
   0   6   8 15.0539 3.54864   1
   0  -6   8 10.3726 4.61983   1
   0  -6   8 10.0347 2.97046   3
   0   6  -9 14.6413 2.99581   2
   0   6   9 11.3732 3.72487   1
   0  -6   9 12.2814 4.62108   1
   0  -6   9 10.7643 3.10742   3
   0   6  10 0.55548 3.80587   1
   0  -6  10 0.29136 2.80826   3
   0   6 -10 0.45985 2.87120   2
   0  -6  10 0.12621 4.69872   1
   0   6  10-0.85235 3.40935   4
   0  -6  11 7.34373 4.89301   1
   0   6  11 9.93288 3.90734   4
   0   6  11 11.9620 4.19141   1
   0   6 -11 11.2480 3.33585   2
   0  -6  12 9.23023 5.44573   1
   0   6  12 6.77408 4.30717   1
   0   6 -12 3.81668 3.31806   2
   0   6  13 4.77023 5.13396   1
   0  -6  13 7.73045 5.72541   1
   0   6 -13 6.64553 3.45898   2
   0   6  14 5.92615 5.04924   1
   0   6 -14 1.82382 3.60624   2
   0  -6  14-3.78624 5.95184   1
   0   6  15 5.37322 5.44885   1
   0   6 -15 6.23559 3.99551   2
   0   6 -16 10.9011 4.12181   2
   0   7   0 0.17942 3.56383   1
   0  -7   0 0.40501 3.46379   3
   0   7   1 10.4485 3.50786   1
   0  -7   1 3.71677 3.46807   3
   0  -7   2 5.78256 4.22473   1
   0   7   2 2.12333 3.42007   1
   0  -7   2 3.53811 3.14240   3
   0  -7   3 1.53789 3.39336   3
   0  -7   3 0.79353 4.25311   1
   0   7   3 3.09260 3.75509   1
   0  -7   4 8.08853 3.44816   3
   0  -7   4 6.62504 4.52598   1
   0   7   4 5.53096 3.67651   1
   0  -7   5 0.55185 3.28239   3
   0   7   5 4.47915 3.61786   1
   0  -7   5 0.24451 4.64534   1
   0  -7   6 14.9031 5.07768   1
   0   7   6 11.7404 3.97106   1
   0  -7   6 7.47151 3.61381   3
   0  -7   7 7.56396 3.30188   3
   0  -7   7 10.2417 5.42986   1
   0   7   7 10.2881 3.93175   1
   0  -7   8 0.57084 5.33946   1
   0   7   8 2.93031 4.11448   1
   0  -7   8 6.43467 3.34462   3
   0  -7   9 6.20081 5.76338   1
   0   7   9 15.5799 4.33790   1
   0   7  10 31.9369 5.09976   1
   0  -7  10 24.6181 6.14545   1
   0   7  10 21.4943 4.69245   4
   0   7  11 22.2295 4.69652   1
   0   7  11 11.3666 4.54446   4
   0  -7  11 17.4563 6.13416   1
   0  -7  12 13.1803 6.06617   1
   0   7  12 17.9983 5.08067   1
   0   7  13 4.63340 5.45063   1
   0   8   0 16.2230 4.20858   1
   0   8   1 4.64041 4.12731   1
   0   8  -1 11.0296 3.97389   1
   0   8   2 16.4181 4.20833   1
   0   8  -2 10.8117 4.45480   1
   0   8   3 0.81166 4.03805   1
   0  -8   3 2.09829 5.04173   1
   0  -8   3 0.78284 3.80111   3
   0  -8   4-4.47519 3.91694   3
   0   8   4 2.40671 4.04986   1
   0  -8   4-9.27215 5.18747   1
   0  -8   5 3.28952 3.91358   3
   0  -8   5 8.53867 5.22449   1
   0   8   5 11.0201 4.29999   1
   0   8   6 9.78113 4.31810   1
   0  -8   6-4.62606 5.47511   1
   0   8   7 18.3173 4.86889   1
   0  -8   7 19.3976 5.82160   1
   0  -8   8 8.48871 5.80691   1
  -1   0  21 0.14390 5.16564   1
   1   0 -21 2.01167 3.67400   2
   1   0 -20 18.7141 3.99019   2
  -1   0  20 25.3954 5.27127   1
   1   0 -19 2.92442 3.52974   2
  -1   0  19 5.93770 4.66565   1
   1   0 -18 7.14672 3.33735   2
  -1   0  18 4.58340 4.26604   1
  -1   0  17-5.71637 3.95003   1
   1   0 -17-0.77454 2.92515   2
  -1   0  16-1.36927 3.65040   1
   1   0 -16-3.80304 2.85171   2
  -1   0  16 2.78632 2.08572   3
  -1   0  15 2.50882 3.40751   1
  -1   0  15 2.10361 2.03958   3
   1   0 -15 2.52435 2.69117   2
  -1   0  14-4.96004 3.00129   2
   1   0 -14 1.79758 2.40532   2
  -1   0  14-4.73598 3.15510   1
   1   0 -14-7.70604 3.35418   1
   1   0 -13 92.1693 7.86034   2
   1   0 -13 105.610 8.10920   1
  -1   0  13 101.552 8.05150   2
  -1   0  13 104.673 8.16040   1
   1   0 -12 25.7211 3.03602   2
  -1   0  12 26.4163 3.37497   2
   1   0 -12 26.9594 3.52013   1
  -1   0  12 29.4947 3.38508   1
   1   0 -11 86.5778 6.91472   2
  -1   0  11 86.5611 7.03182   2
   1   0 -11 87.4319 7.06138   1
  -1   0  11 89.2548 7.08944   1
  -1   0  10 1.45075 2.21303   1
   1   0 -10 0.55728 2.35721   1
   1   0 -10 0.20023 1.86116   2
  -1   0  10 1.01216 2.14517   2
  -1   0   9 75.0449 5.92579   1
   1   0  -9 73.2370 5.80667   2
  -1   0   9 69.9618 5.94399   2
   1   0  -9 72.6155 6.01265   1
   1   0  -8 15.5064 2.06759   2
  -1   0   8 13.4331 2.25266   1
   1   0  -8 13.0650 2.53235   1
  -1   0   8 10.6877 2.27216   2
   1   0  -7 25.2103 2.97282   1
  -1   0   7 28.7649 2.90169   1
   1   0  -7 28.1250 2.75279   2
   1   0  -6 48.7289 4.04079   2
  -1   0   6 50.4845 4.08101   1
   1   0  -6 48.1726 4.29972   1
   1   0  -5 387.240 29.6481   1
   1   0  -5 404.974 29.6423   2
  -1   0   5 416.802 29.6451   1
  -1   0   4 204.522 14.6318   3
  -1   0   4 210.134 14.7290   1
   1   0  -4 170.054 14.6992   2
   1   0  -4 212.396 14.7335   1
  -1   0   3 71.7984 6.00438   1
   1   0  -3 66.3296 6.01854   1
  -1   0   3 86.4010 5.88083   3
  -1   0   2 390.364 27.5629   1
   1   0  -2 362.897 27.5572   1
  -1   0   1 3.79612 0.68020   1
   1   0  -1 2.35841 0.58143   4
   1   0  -1 3.08725 0.63162   1
  -1   0  -1 578.865 44.8685   2
  -1   0  -1 634.645 44.8473   1
  -1   0  -2 192.482 14.7381   1
  -1   0  -2 210.434 14.7566   2
  -1   0  -3 38.3704 3.36436   1
  -1   0  -3 44.4123 3.34370   2
  -1   0  -4 138.700 10.1818   1
  -1   0  -4 134.310 10.1153   2
  -1   0  -5 53.7367 4.09820   2
   1   0   5 44.1279 4.18112   2
  -1   0  -5 59.3957 4.39167   1
  -1   0  -6 14.4766 2.41024   1
  -1   0  -6 13.3271 1.71640   2
   1   0   6 12.1758 2.01754   2
  -1   0  -7 3.91112 2.25629   1
   1   0   7 3.61818 1.90283   2
  -1   0  -7 2.00156 1.47402   2
   1   0   8 3.50433 2.07914   2
  -1   0  -8 6.11824 1.66176   2
  -1   0  -8 7.66865 2.37583   1
   1   0   9 8.80029 2.09349   2
  -1   0  -9 3.56189 2.26352   1
  -1   0  -9 3.31412 1.58242   2
   1   0  10 21.9492 2.94133   2
  -1   0 -10 24.2978 2.66865   2
  -1   0 -11 18.0896 2.46456   2
   1   0  11 19.0703 2.78281   2
  -1   0 -12-1.58889 2.04674   2
   1   0  12 0.80555 2.41984   2
   1   0  13 299.697 22.7944   2
  -1   0 -13 307.523 22.6925   2
  -1   0 -14 33.7963 3.81246   2
   1   0  14 42.5568 4.22709   2
  -1   0 -15 64.7646 5.68262   2
  -1   0 -16 21.7885 3.40667   2
  -1   0 -17 1.37069 2.90091   2
  -1   0 -18 3.19171 3.20681   2
  -1   0 -19 6.46214 3.55743   2
  -1   0 -20 1.08095 3.40992   2
   1   0  20-6.15832 5.04714   1
  -1   0 -21-0.92553 3.90426   2
  -1   1  21 4.42788 5.00416   1
   1  -1 -21 6.98414 3.76999   2
   1   1 -20 2.19678 3.54696   2
  -1   1  20 0.77382 4.96901   1
   1  -1 -20 4.49706 3.84032   2
  -1  -1  20-0.70043 4.98271   1
   1   1 -19-1.87665 3.42199   2
  -1   1  19 12.3513 4.63544   1
   1  -1 -19 5.53622 3.62192   2
  -1  -1  19 9.36571 4.66097   1
   1   1 -18 36.5176 4.62630   2
  -1   1  18 40.0724 5.30332   1
  -1  -1  18 43.5888 5.46286   1
   1  -1 -18 38.2189 4.49602   2
  -1   1  17 7.71405 3.96279   1
   1   1 -17 5.60332 3.05939   2
   1  -1 -17 7.96485 2.98556   2
  -1  -1  17 4.31896 4.09049   1
   1   1 -16 50.6046 5.62358   2
   1  -1 -16 62.5853 5.62372   2
  -1  -1  16 68.1120 6.39465   1
  -1   1  16 73.0572 6.42688   1
  -1   1  16 68.0768 5.45118   3
   1  -1 -15 8.27251 2.70233   2
  -1   1  15 11.7741 2.52358   3
  -1   1  15 6.94089 3.49809   1
  -1  -1  15 14.7252 3.77459   1
  -1   1  14 1.00340 2.30396   3
   1  -1 -14-0.32739 2.83897   1
   1  -1 -14 6.26200 2.48151   2
  -1  -1  14-1.60401 3.45323   1
  -1   1  14 3.51245 2.92809   2
  -1   1  14 0.38627 3.31488   1
   1   1 -13 137.294 11.3275   1
  -1   1  13 155.410 11.3264   2
   1  -1 -13 130.957 11.1233   2
   1  -1 -13 137.422 11.2421   4
  -1   1  13 143.069 11.1056   3
  -1  -1  13 154.938 11.4127   1
  -1   1  13 159.137 11.3818   1
   1  -1 -13 159.387 11.2998   1
  -1   1  12 51.9911 4.82540   1
  -1   1  12 54.3185 4.73158   2
   1  -1 -12 51.1103 4.70187   4
   1  -1 -12 49.2759 4.46048   2
  -1   1  12 51.7925 4.42197   3
  -1  -1  12 42.7136 4.83646   1
   1  -1 -12 51.3143 4.63609   1
  -1   1  11 90.4283 7.84601   3
  -1  -1  11 105.330 8.07515   2
  -1  -1  11 102.436 8.18824   1
   1  -1 -11 95.2330 8.02801   4
  -1   1  11 107.833 8.06318   1
   1  -1 -11 100.882 7.98168   1
   1  -1 -11 103.694 7.90024   2
  -1   1  11 108.120 8.05802   2
  -1   1  10 5.99571 2.24063   2
  -1   1  10 4.43497 2.39106   1
   1  -1 -10 6.33782 2.31898   1
  -1   1  10 2.82351 1.83332   3
  -1  -1  10 4.23425 2.13030   2
   1  -1 -10 3.14620 1.99303   4
   1  -1 -10 6.81954 1.92259   2
  -1  -1  10 2.68989 2.32070   1
   1  -1  -9 78.4800 6.07804   1
   1  -1  -9 81.2897 6.00296   2
  -1   1   9 81.7832 6.14178   1
  -1  -1   9 71.3573 6.15627   1
  -1   1   9 68.4775 5.93452   3
  -1  -1   9 68.7594 6.09255   2
  -1   1   9 78.2881 6.09674   2
   1  -1  -8 92.2010 7.10387   2
  -1   1   8 100.724 7.25383   1
  -1  -1   8 89.0183 7.21658   1
  -1   1   8 93.4428 7.20808   2
  -1   1   8 85.3356 7.09550   3
  -1  -1   8 91.4651 7.21202   2
   1  -1  -8 94.3808 7.19220   1
  -1  -1   7 97.0023 8.18778   1
  -1   1   7 114.202 8.17817   1
  -1   1   7 120.405 8.19011   2
   1  -1  -7 108.414 8.09577   2
  -1  -1   7 93.3759 8.18304   2
   1  -1  -7 113.473 8.17319   1
  -1   1   7 100.007 8.07151   3
   1  -1  -6 38.3603 3.11845   2
   1  -1  -6 38.7724 3.31128   1
  -1   1   6 30.8613 3.16692   3
  -1   1   6 37.3889 3.26934   1
  -1  -1   6 33.4068 3.33699   2
  -1   1   6 42.1645 3.34058   2
   1   1  -6 37.2771 3.16853   2
  -1   1   5 75.5759 5.71974   2
  -1   1   5 71.5099 5.68566   3
   1  -1  -5 69.3090 5.63961   2
  -1  -1   5 67.8708 5.47273   3
  -1   1   5 85.8444 5.72867   1
  -1  -1   5 78.8948 5.75971   2
   1   1  -5 82.2491 5.68171   2
   1  -1  -5 76.4528 5.71941   1
   1  -1  -4 497.456 33.4347   2
  -1   1   4 524.536 33.4436   1
   1   1  -4 544.127 33.4573   2
  -1   1   4 509.206 33.4442   2
   1  -1  -4 526.442 33.4575   3
  -1  -1   4 369.343 33.3365   3
   1  -1  -4 462.861 33.4277   1
  -1  -1   4 476.363 33.4566   2
  -1   1   4 475.620 33.4478   3
   1   1  -3 503.630 32.8822   2
  -1  -1   3 443.071 32.7934   3
   1   1  -3 387.507 32.7908   3
  -1  -1   3 448.910 32.8777   2
  -1   1   3 483.207 32.8720   2
   1  -1  -3 459.038 32.8502   1
  -1   1   3 499.065 32.8559   1
   1  -1  -3 455.949 32.8726   3
   1  -1  -3 466.144 32.8584   2
  -1   1   3 477.165 32.8860   3
   1  -1  -2 858.484 70.1588   1
   1   1  -2 895.054 70.1407   3
   1   1  -2 1079.57 70.1833   2
  -1   1   2 995.359 70.2024   3
  -1  -1   2 1018.39 70.1433   3
  -1   1   2 916.774 70.1575   1
   1  -1  -2 963.021 70.1807   2
  -1  -1   2 1003.55 70.1838   2
  -1   1   2 983.355 70.1891   2
   1   1  -1 411.172 26.4893   3
  -1   1   1 334.690 26.4824   1
  -1   1   1 351.236 26.5325   3
  -1  -1   1 354.557 26.4816   2
   1  -1  -1 364.616 26.5213   2
  -1   1   1 338.527 26.4758   1
   1  -1  -1 349.080 26.5228   2
   1   1  -1 390.854 26.4907   2
  -1   1   0 91.2656 6.75944   1
   1  -1   0 99.9631 6.84163   2
  -1   1   0 97.1797 6.82797   2
   1  -1   0 81.9623 6.76038   1
   1  -1   1 3893.78 271.506   2
  -1   1  -1 3685.04 271.479   1
   1  -1   1 3427.59 271.486   1
   1  -1   1 3823.63 271.523   3
  -1   1  -1 3898.79 271.516   2
   1   1   2 782.149 57.0400   2
   1  -1   2 760.673 57.0959   3
  -1  -1  -2 771.313 57.0448   2
   1  -1   2 766.475 57.0791   1
  -1   1  -2 810.166 57.1015   2
  -1   1  -2 767.525 57.0711   1
   1  -1   2 814.763 57.0950   2
   1  -1   3 369.483 29.1967   2
   1   1   3 424.231 29.1529   2
  -1   1  -3 401.907 29.1905   1
   1  -1   3 377.955 29.2019   1
  -1   1  -3 373.357 29.2092   2
  -1  -1  -3 413.025 29.1563   2
  -1   1  -4 661.362 49.2048   1
   1  -1   4 687.361 49.2215   1
  -1  -1  -4 658.031 49.1708   2
   1   1   4 703.929 49.1836   2
   1  -1   4 644.920 49.2165   2
   1   1   5 173.869 12.9941   2
  -1  -1  -5 165.084 13.0261   4
  -1  -1  -5 194.901 12.9714   2
  -1   1  -5 185.742 13.0576   1
   1  -1   5 164.255 13.0418   2
   1  -1   5 179.034 13.0522   1
   1   1   5 155.067 13.0457   1
   1  -1   6 999.133 76.5416   2
   1   1   6 1043.69 76.5173   2
   1  -1   6 1083.24 76.5537   1
  -1   1  -6 1041.86 76.5320   1
  -1  -1  -6 1049.53 76.4951   2
   1   1   6 1051.97 76.5584   1
   1   1   7 448.957 29.6910   1
   1  -1   7 391.952 29.6329   1
   1   1   7 407.662 29.6086   2
   1  -1   7 380.182 29.6226   2
  -1   1  -7 370.013 29.6095   1
  -1  -1  -7 418.077 29.5807   2
  -1   1  -8 43.0306 4.23411   1
   1   1   8 50.3854 4.07318   2
  -1  -1  -8 44.7685 3.92034   2
   1  -1   8 49.0866 4.24783   1
   1   1   8 52.5241 4.30143   1
   1  -1   9 6.88370 2.33358   1
  -1  -1  -9 4.07509 1.63240   2
   1   1   9 6.34852 2.38573   1
  -1   1  -9 5.06101 2.27439   1
   1   1   9 6.30896 2.05665   2
  -1  -1 -10 7.80558 1.90758   2
   1   1  10 8.16126 2.31002   2
   1  -1  10 8.66270 2.42741   1
  -1   1 -10 14.1562 2.62774   1
   1   1  10 14.8910 2.67923   1
   1  -1  11 123.696 9.37463   1
  -1  -1 -11 111.944 9.08620   2
   1   1  11 129.206 9.36482   1
   1   1  11 121.094 9.27264   2
  -1   1 -11 114.073 9.28530   1
   1   1  12 9.06652 2.64748   2
  -1  -1 -12 9.02307 2.24101   2
  -1  -1 -12 10.1919 2.50467   1
  -1   1 -12 13.2328 2.94949   1
   1  -1  12 6.12758 2.97602   1
   1   1  12 11.6035 3.14060   1
   1   1  13 15.8034 3.76701   1
   1  -1  13 18.5313 3.26884   1
  -1   1 -13 15.1664 2.68710   2
   1   1  13 11.2284 2.82718   2
  -1  -1 -13 11.3191 2.45255   2
  -1  -1 -13 14.7582 2.86130   1
  -1   1 -13 16.8891 3.20052   1
   1   1  14 220.210 15.6217   2
   1  -1  14 205.916 15.7446   1
  -1   1 -14 185.812 15.4981   2
  -1  -1 -14 203.121 15.4537   2
   1   1  14 223.300 15.7929   1
  -1  -1 -15 13.5786 2.78654   2
   1   1  15 17.3201 4.06048   1
   1  -1  15 13.0928 3.92513   1
  -1   1 -15 14.3353 2.93049   2
   1  -1  16 15.4870 4.10446   1
  -1   1 -16 21.6756 3.25785   2
  -1  -1 -16 16.5850 3.06943   2
   1   1  16 17.8681 4.12884   1
   1  -1  17 6.35115 4.01273   1
  -1   1 -17 2.86946 3.02624   2
   1   1  17 14.0650 4.06264   1
  -1  -1 -17 5.28763 2.84208   2
  -1   1 -18 2.19308 3.24200   2
   1   1  18-5.02100 4.52736   1
  -1  -1 -18 1.32413 3.06044   2
  -1  -1 -19 3.04362 3.23458   2
  -1   1 -19 6.19595 3.39966   2
   1   1  19 2.85473 4.86826   1
   1   1  20 2.39340 4.89815   1
  -1  -1 -20 6.18300 3.63200   2
  -1   1 -20 2.63462 3.75078   2
  -1  -1 -21 3.64256 3.90809   2
   1  -2 -21 1.44040 3.55744   2
   1  -2 -20 14.2812 3.79529   2
  -1   2  20 14.9119 5.21201   1
   1  -2 -19 9.57253 3.52496   2
   1   2 -19 6.67001 3.60827   2
  -1   2  19 9.08329 4.80742   1
   1  -2 -18 35.8655 4.33994   2
  -1   2  18 39.9056 5.45930   1
   1   2 -18 36.4818 4.60009   2
  -1   2  17 27.1253 4.42659   1
   1   2 -17 17.8678 3.66223   2
   1  -2 -17 18.7251 3.44498   2
  -1   2  16 38.4550 4.19554   3
   1  -2 -16 36.8431 4.24301   2
  -1   2  16 46.3314 5.09205   1
   1   2 -16 36.0292 4.35551   2
   1  -2 -15 35.8808 4.35791   2
   1   2 -15 37.9051 4.47169   2
  -1   2  15 52.6850 5.27454   1
  -1   2  15 44.5289 4.35638   3
  -1  -2  15 46.7461 3.78004   3
  -1   2  14 50.3711 4.91793   3
  -1  -2  14 62.2520 4.45385   3
  -1   2  14 51.7614 5.25699   2
  -1   2  14 63.2914 5.72981   1
   1  -2 -14 46.3218 4.97016   2
   1   2 -14 45.1677 4.99292   2
  -1   2  13 95.1418 7.41197   1
   1  -2 -13 73.9772 6.83485   2
  -1   2  13 75.1011 7.05123   2
   1   2 -13 81.1763 6.96117   2
   1  -2 -13 84.7414 7.03446   1
  -1  -2  13 82.9547 7.17326   2
  -1   2  13 79.5087 6.92494   3
  -1  -2  13 94.7379 6.54581   3
   1   2 -12 20.6711 2.76518   2
  -1  -2  12 19.3957 2.13664   3
  -1   2  12 16.1627 2.76899   3
   1  -2 -12 16.6860 2.64027   2
  -1   2  12 16.1088 2.92640   2
  -1   2  12 21.9575 3.40590   1
  -1  -2  12 19.7537 3.24530   2
   1  -2 -12 19.3944 2.85849   1
   1   2 -11 8.84332 2.21561   2
  -1   2  11 9.45253 2.42209   3
   1  -2 -11 12.1804 2.28612   2
  -1   2  11 13.8641 3.08129   1
  -1  -2  11 12.6838 1.67364   3
   1   2 -11 7.95205 2.88119   1
   1  -2 -11 12.7240 2.48838   1
  -1  -2  11 11.2791 2.61578   2
  -1   2  11 9.03267 2.47197   2
  -1  -2  10 17.3214 1.82142   3
  -1   2  10 12.4737 2.34157   2
   1  -2 -10 13.0195 2.43852   1
   1  -2 -10 13.3404 2.27266   2
   1   2 -10 13.9714 2.28055   2
   1   2 -10 12.6761 2.72207   1
  -1   2  10 16.4326 2.83224   1
  -1  -2  10 15.8764 2.54345   2
  -1   2  10 10.0045 2.35711   3
   1   2  -9 3.59188 1.94462   2
  -1   2   9 1.21915 2.22864   1
   1  -2  -9 3.34377 1.65354   2
  -1  -2   9 4.93976 1.30887   3
  -1   2   9 6.10668 1.99236   2
  -1  -2   9 4.08551 2.17159   2
   1   2  -9 5.60915 2.39870   1
   1  -2  -9 8.43232 2.11960   1
  -1   2   9 5.34673 2.07549   3
   1   2  -8 127.935 10.1198   2
  -1   2   8 160.965 10.2499   1
  -1   2   8 130.180 10.1614   3
   1   2  -8 117.584 10.2226   1
   1  -2  -8 139.082 10.1335   1
  -1  -2   8 128.826 10.1648   2
  -1   2   8 138.850 10.1187   2
   1  -2  -8 133.762 10.0707   2
  -1  -2   8 130.789 9.92726   3
  -1  -2   7 33.8047 3.17548   2
   1   2  -7 35.4636 3.42552   1
  -1   2   7 39.8750 3.36764   1
   1  -2  -7 33.7726 3.20018   1
  -1   2   7 32.0876 3.24322   3
  -1  -2   7 28.9518 2.73854   3
  -1   2   7 37.5262 3.12623   2
   1  -2  -7 33.9208 2.92687   2
   1   2  -7 34.4606 3.11484   2
  -1   2   6 60.0744 4.49206   2
  -1  -2   6 47.4892 4.23602   3
   1   2  -6 55.8407 4.77197   1
   1   2  -6 58.9852 4.48347   2
  -1   2   6 55.8004 4.61184   3
   1  -2  -6 55.3987 4.55338   1
  -1   2   6 62.9770 4.53642   1
  -1  -2   6 54.1558 4.49197   2
   1  -2  -6 55.6821 4.36432   2
   1   2  -5 147.940 11.3814   3
  -1   2   5 168.418 11.4790   2
  -1   2   5 167.981 11.4982   1
  -1  -2   5 148.427 11.3801   3
   1   2  -5 145.524 11.6436   1
   1  -2  -5 154.018 11.4479   2
   1  -2  -5 149.546 11.5317   3
  -1   2   5 161.231 11.5908   3
  -1  -2   5 142.714 11.4772   2
   1  -2  -5 158.517 11.4977   1
   1   2  -5 155.487 11.4680   2
  -1   2   4 42.5353 3.34005   3
   1   2  -4 39.2697 2.98506   2
  -1  -2   4 29.1826 2.91891   3
   1  -2  -4 36.2929 3.20994   1
   1  -2  -4 33.6927 2.97041   2
  -1   2   4 40.9991 3.08404   2
   1   2  -4 45.1711 3.62125   1
  -1  -2   4 29.4813 3.09119   2
  -1   2   4 42.4729 3.13403   1
   1  -2  -4 36.2914 3.14749   3
   1   2  -4 33.0131 2.96664   3
  -1  -2   3 174.538 14.1434   2
   1  -2  -3 189.958 14.2041   1
  -1  -2   3 179.773 14.1414   3
   1  -2  -3 192.829 14.1116   2
  -1   2   3 218.016 14.1784   2
   1   2  -3 175.336 14.1375   3
  -1   2   3 175.653 14.2635   3
   1   2  -3 191.030 14.3224   1
   1   2  -3 199.707 14.1339   2
  -1   2   3 220.929 14.1923   1
  -1   2   2 322.450 25.5111   1
   1   2  -2 341.397 25.4958   3
   1   2  -2 384.064 25.4542   2
   1  -2  -2 374.360 25.4955   2
  -1   2   2 374.272 25.5011   1
   1   2  -2 312.004 25.5659   1
  -1  -2   2 330.837 25.4598   2
   1  -2  -2 347.271 25.4658   2
  -1  -2   2 313.847 25.4772   3
   1  -2  -1 135.101 8.82419   2
  -1   2   1 119.746 8.89057   1
  -1  -2   1 109.042 9.00382   1
  -1  -2   1 110.422 8.71785   2
   1   2  -1 117.186 9.03969   1
  -1  -2   1 113.626 8.82222   3
   1   2  -1 117.997 8.71015   2
   1   2  -1 126.742 8.85446   3
   1  -2   0 21.7135 2.30164   3
   1  -2   0 23.1940 2.13900   2
  -1  -2   0 19.4073 2.57563   1
   1   2   0 20.9829 2.27460   3
  -1   2   0 20.5820 2.16800   2
   1  -2   0 21.0670 2.38720   1
   1   2   0 24.6501 2.81784   1
  -1   2   0 23.3597 2.49421   1
  -1  -2   0 25.2372 2.16437   3
   1  -2   1 6.39844 1.58003   3
  -1   2  -1 7.98053 1.72613   3
   1  -2   1 6.11599 1.75193   1
  -1   2  -1 9.38524 1.87692   1
  -1  -2  -1 5.30473 1.90597   1
   1   2   1 6.42270 2.37154   1
   1  -2   1 8.78711 1.38674   2
  -1   2  -1 7.72431 1.42130   2
   1   2   1 7.70014 1.68501   3
   1   2   2 87.3958 7.05284   1
  -1   2  -2 98.2533 6.99098   1
   1  -2   2 94.8860 6.95579   3
  -1   2  -2 83.4802 6.86934   2
   1   2   2 84.4533 6.98343   3
   1   2   2 96.7425 6.96977   1
   1  -2   2 88.4689 6.84946   2
   1  -2   2 92.0777 6.97123   1
  -1   2  -2 94.1814 6.99116   3
  -1   2  -3 12.6530 2.01275   1
   1  -2   3 16.4054 2.16579   1
   1   2   3 18.0070 2.07634   1
  -1   2  -3 13.2297 1.99616   3
   1  -2   3 16.5621 1.87259   2
   1  -2   3 15.8467 1.91875   3
  -1  -2  -3 14.9900 1.24558   2
  -1   2  -3 14.0148 1.80336   2
   1   2   3 11.6953 1.25151   2
   1   2   3 13.0217 2.36529   1
  -1  -2  -4 26.9644 2.14588   2
  -1  -2  -4 24.7152 2.85701   1
   1  -2   4 26.4104 2.56940   2
  -1   2  -4 23.6145 2.70391   1
   1   2   4 23.8344 2.20090   2
   1  -2   4 23.9216 2.50142   3
  -1   2  -4 27.6221 2.53891   2
   1  -2   4 31.0933 2.92112   1
   1   2   4 31.0960 2.74375   1
   1   2   5 59.9285 4.17855   1
   1  -2   5 48.9080 4.05233   2
  -1  -2  -5 46.3114 3.80336   2
  -1  -2  -5 50.6388 4.23144   1
   1  -2   5 51.2559 4.08677   3
   1   2   5 45.1964 4.25729   3
   1   2   5 41.4745 4.02510   4
   1  -2   5 58.4151 4.31476   1
  -1   2  -5 53.8089 4.22259   1
   1   2   5 47.9795 3.86856   2
  -1   2  -5 51.0237 4.02461   2
  -1   2  -6 87.6246 6.78656   1
  -1  -2  -6 91.3938 6.82372   1
   1  -2   6 85.0003 6.80286   1
   1  -2   6 79.9300 6.74354   2
  -1  -2  -6 83.2917 6.52716   2
   1  -2   6 94.3612 6.68543   3
   1   2   6 94.9350 6.77785   1
  -1   2  -6 89.2933 6.68340   2
   1   2   6 80.0186 6.59574   2
   1   2   7 276.311 21.3298   2
   1  -2   7 283.671 21.4684   1
   1  -2   7 303.498 21.3902   3
   1   2   7 325.188 21.4640   1
  -1   2  -7 278.004 21.4090   1
  -1  -2  -7 310.057 21.4489   1
   1  -2   7 272.107 21.4194   2
  -1   2  -7 283.310 21.4085   2
  -1  -2  -7 284.482 21.3086   2
  -1  -2  -8 23.3447 2.27743   2
  -1   2  -8 22.0144 2.78698   1
   1  -2   8 25.0873 2.49841   3
   1   2   8 23.7830 2.47990   2
   1  -2   8 23.9926 2.80637   2
   1   2   8 18.6787 2.81652   1
   1  -2   8 22.4013 2.89438   1
  -1   2  -8 22.4473 2.47767   2
  -1  -2  -8 25.2097 2.76055   1
   1  -2   9 31.0181 3.45416   2
  -1  -2  -9 32.3578 3.02666   2
   1   2   9 35.7003 3.24994   2
  -1   2  -9 31.8611 3.25866   2
  -1  -2  -9 34.9267 3.47497   1
   1   2   9 41.3965 3.74665   1
   1  -2   9 38.9693 3.21828   3
   1  -2   9 30.7367 3.50944   1
  -1   2  -9 29.9463 3.47325   1
  -1   2 -10 5.14776 2.00836   2
   1   2  10 10.5181 2.99727   1
   1  -2  10 8.65516 2.68000   1
  -1  -2 -10 7.44539 1.80183   2
   1  -2  10 6.90846 2.43775   2
  -1   2 -10 5.60150 2.59680   1
   1   2  10 5.85114 2.12702   2
  -1  -2 -10 7.24481 2.45304   1
   1  -2  11 17.7092 3.28082   1
   1  -2  11 27.2345 3.25493   2
   1   2  11 25.7436 3.41941   1
  -1   2 -11 22.0533 3.27475   1
  -1  -2 -11 24.2926 3.02481   1
   1   2  11 24.6697 2.85169   2
  -1   2 -11 18.2316 2.73528   2
  -1  -2 -11 21.2120 2.48053   2
  -1   2 -12 21.2475 3.42813   1
   1  -2  12 18.3483 3.30771   2
   1   2  12 22.4192 3.11135   2
  -1   2 -12 22.4044 2.91692   2
   1   2  12 26.6127 3.75575   1
  -1  -2 -12 26.2173 3.10110   1
  -1  -2 -12 20.0917 2.70759   2
   1  -2  12 20.6658 3.53041   1
  -1  -2 -13 11.1306 2.34955   2
  -1   2 -13 13.1079 2.76746   2
   1   2  13 14.4163 3.14765   2
   1  -2  13 8.10913 3.50633   1
   1   2  13 15.0692 3.07621   3
   1  -2  13 11.6322 3.15234   2
  -1   2 -13 8.61831 3.39363   1
   1   2  13 17.9874 3.75173   1
  -1  -2 -13 12.3137 2.89929   1
   1  -2  14 6.13191 3.56962   1
  -1   2 -14 8.05100 2.87531   2
   1   2  14 4.27869 3.07352   3
  -1  -2 -14 5.57838 2.42852   2
   1   2  14 8.11560 3.15397   2
   1   2  14 12.9374 3.88006   1
  -1  -2 -15 54.0178 5.52596   2
   1   2  15 73.3842 5.95826   2
  -1   2 -15 59.1014 5.76737   2
   1  -2  15 72.9815 6.38887   1
   1   2  15 75.1952 6.65036   1
   1  -2  16 8.19121 4.16181   1
   1   2  16 6.51361 4.44971   1
  -1  -2 -16 7.93095 2.71418   2
   1   2  17 66.4493 6.65266   1
  -1  -2 -17 52.6513 5.36423   2
   1  -2  17 63.6462 6.51872   1
   1  -2  18 4.32703 4.65050   1
  -1  -2 -18-3.29375 3.07153   2
   1   2  18 4.05191 4.76207   1
  -1  -2 -19 1.72973 3.15545   2
   1   2  19 1.34746 4.95480   1
   1  -2  19-3.65364 5.02919   1
   1  -2  20 21.5657 5.74459   1
   1   2  20 26.5129 5.60687   1
  -1  -2 -20 22.8545 4.00574   2
  -1  -2 -21 0.62677 3.66823   2
   1  -3 -21 9.83162 3.68319   2
  -1   3  20-6.14679 5.14370   1
   1  -3 -20 1.10739 3.59407   2
  -1  -3  19 42.7524 6.73746   1
   1  -3 -19 34.5740 4.46626   2
   1   3 -19 34.1474 4.75358   2
  -1   3  19 36.2888 5.59264   1
   1  -3 -18 19.9592 3.73873   2
  -1   3  18 32.6703 5.30999   1
   1   3 -18 20.3864 4.12541   2
  -1  -3  18 31.2296 5.97633   1
  -1  -3  17 4.20837 5.18397   1
  -1   3  17 1.34340 4.29962   1
   1   3 -17 4.46590 3.33639   2
   1  -3 -17 1.97292 3.03322   2
  -1  -3  16 25.3107 5.37904   1
  -1   3  16 30.9067 4.78056   1
   1  -3 -16 22.4835 3.46072   2
   1   3 -16 25.1023 3.79421   2
   1   3 -15 15.9262 3.28788   2
  -1   3  15 20.2657 3.54342   2
  -1   3  15 18.7561 4.53156   1
   1  -3 -15 12.5878 2.93831   2
  -1  -3  15 16.8133 4.62492   1
  -1   3  14 16.9821 3.96964   1
  -1  -3  14 11.1636 1.92294   3
   1  -3 -14 8.16700 2.64905   2
   1   3 -14 7.91926 2.93261   2
  -1  -3  14 9.40083 4.65962   1
  -1   3  14 12.8974 3.16054   2
  -1  -3  13 27.0864 2.75394   3
  -1  -3  13 31.5706 4.68268   1
   1   3 -13 26.4045 3.49757   2
  -1   3  13 31.1990 3.73399   3
  -1   3  13 33.9999 3.58402   2
  -1   3  13 26.4942 4.33527   1
   1  -3 -13 23.7182 3.10417   2
   1  -3 -13 27.4437 3.65471   1
  -1  -3  12 6.02595 3.70632   1
   1   3 -12 5.74865 2.66152   2
  -1  -3  12 11.3837 1.78346   3
   1  -3 -12 8.58211 2.21615   2
   1  -3 -12 7.04733 2.95087   1
  -1   3  12 7.45850 2.99398   3
  -1  -3  12 7.93784 2.93576   2
  -1   3  12 11.1334 2.78091   2
  -1   3  12 11.5928 3.63047   1
   1   3 -11 16.6638 2.66043   2
   1  -3 -11 15.1965 2.48506   2
   1   3 -11 16.7811 3.31082   1
  -1  -3  11 12.5100 3.71161   1
  -1   3  11 18.1342 2.79571   2
  -1   3  11 17.7349 3.38468   1
  -1  -3  11 19.6169 2.08974   3
  -1   3  11 14.1498 3.08968   3
   1  -3 -11 17.7483 3.04962   1
  -1  -3  11 16.1023 2.95937   2
  -1  -3  10 3.47585 3.11220   1
   1   3 -10 11.1586 2.37746   2
  -1  -3  10 10.9169 2.50262   2
  -1  -3  10 11.0237 1.72082   3
   1   3 -10 10.5935 2.92753   1
  -1   3  10 13.1157 2.92773   1
  -1   3  10 14.7066 2.26229   2
   1  -3 -10 16.1311 2.67982   1
   1  -3 -10 10.3046 2.13456   2
  -1   3  10 17.3827 2.82281   3
   1   3  -9 229.992 17.7241   2
  -1  -3   9 234.467 17.5601   3
  -1   3   9 239.759 17.8649   3
   1  -3  -9 210.847 17.6116   2
   1  -3  -9 262.976 17.7882   1
  -1  -3   9 238.873 17.7478   2
  -1   3   9 251.217 17.6969   2
  -1  -3   9 214.586 17.9068   1
   1   3  -9 223.178 17.8200   1
   1  -3  -8 76.6254 6.55359   2
  -1  -3   8 96.5077 7.20190   1
   1   3  -8 93.3152 6.96399   1
  -1  -3   8 87.3584 6.51754   3
   1  -3  -8 90.6970 6.84378   1
   1   3  -8 82.5881 6.67257   2
  -1  -3   8 76.0272 6.71684   2
  -1   3   8 78.4415 6.93004   4
  -1   3   8 88.1050 6.68304   2
  -1   3   8 84.0544 6.92063   3
  -1   3   8 98.8453 6.85115   1
   1   3  -7 28.5094 2.78728   2
  -1   3   7 25.5467 3.10051   3
   1  -3  -7 23.7287 2.51760   2
  -1   3   7 33.3164 3.03484   1
  -1  -3   7 26.2297 2.76057   2
  -1  -3   7 21.8304 3.39899   1
  -1   3   7 26.8228 2.70764   2
   1  -3  -7 30.5498 3.03587   1
  -1  -3   7 28.3322 2.57775   3
   1   3  -7 26.4380 3.32413   1
   1   3  -6 81.0846 6.35587   2
   1  -3  -6 80.3402 6.50871   3
  -1  -3   6 90.0379 6.27309   3
   1   3  -6 83.2170 6.64817   1
   1  -3  -6 84.2746 6.53642   1
  -1  -3   6 73.4758 6.34069   2
  -1   3   6 80.9615 6.58326   3
  -1  -3   6 69.7972 6.61305   1
   1  -3  -6 79.7753 6.20321   2
  -1   3   6 84.3438 6.39444   1
   1   3  -6 79.6433 6.26355   3
  -1   3   6 89.0092 6.31857   2
   1   3  -5 54.4857 4.40245   2
  -1   3   5 63.6211 4.56870   1
  -1  -3   5 52.9698 4.40177   3
   1  -3  -5 52.7864 4.64516   3
  -1   3   5 56.4481 4.75918   3
  -1   3   5 62.4438 4.42119   2
   1   3  -5 60.3374 4.92913   1
   1  -3  -5 51.3938 4.31125   2
   1   3  -5 58.1382 4.48836   3
  -1  -3   5 54.8183 4.94998   1
  -1  -3   5 47.8002 4.43547   2
   1  -3  -4 28.1911 2.46346   2
   1   3  -4 24.8881 3.43747   1
  -1   3   4 34.2457 2.86459   1
  -1   3   4 27.0820 3.07717   1
  -1   3   4 33.1009 3.21035   3
   1  -3  -4 33.2727 2.68443   2
   1   3  -4 31.3733 2.61897   2
   1   3  -4 27.8483 2.75143   3
  -1  -3   4 31.6067 3.50943   1
  -1  -3   4 28.3213 2.73143   3
  -1  -3   4 25.0104 2.64161   2
   1   3  -3 17.3167 2.71197   1
   1  -3  -3 17.4795 1.85585   2
  -1  -3   3 15.8383 1.93202   3
  -1   3   3 17.2821 2.40135   1
  -1   3   3 19.2360 2.17473   1
  -1  -3   3 12.8572 1.74631   2
  -1  -3   3 16.3834 2.67968   1
   1  -3  -3 16.3558 1.61792   2
   1   3  -3 16.0459 1.72341   2
   1   3  -3 16.4547 2.17893   3
  -1  -3   2 131.899 9.52369   1
  -1  -3   2 114.568 9.15785   2
   1   3  -2 125.526 9.31646   3
   1  -3  -2 134.230 9.16058   2
  -1   3   2 122.479 9.41907   1
   1  -3  -2 113.805 9.37020   3
   1   3  -2 115.230 9.47172   1
  -1  -3   2 117.189 9.27366   3
  -1   3   2 123.918 9.32358   1
   1  -3  -2 144.768 9.22219   2
   1   3  -2 114.362 9.14189   2
   1  -3  -1 102.577 5.85918   2
  -1   3   1 70.8498 6.01559   1
   1  -3  -1 89.1432 6.10646   3
  -1  -3   1 94.2629 6.38243   1
   1   3  -1 75.9980 5.68163   2
  -1  -3   1 75.2704 5.90625   3
  -1   3   1 76.6781 6.08862   3
   1  -3  -1 83.9481 6.01203   1
   1   3  -1 75.5293 5.98261   3
  -1  -3   1 56.9100 5.67587   2
   1   3  -1 71.1240 6.24510   1
   1  -3  -1 84.3640 5.77800   2
   1   3   0 79.2149 6.79226   1
  -1   3   0 82.5480 6.49064   2
   1  -3   0 77.0903 6.62890   3
  -1  -3   0 95.0665 6.85562   1
  -1  -3   0 79.1552 6.57984   3
   1  -3   0 90.1589 6.65200   1
  -1   3   0 98.6068 6.79610   3
   1  -3   0 87.4044 6.44063   2
  -1   3   0 84.6994 6.72874   1
   1   3   0 85.9274 6.66320   3
  -1   3  -1 14.1390 2.27481   3
  -1   3  -1 15.9636 1.96595   2
   1  -3   1 15.1394 2.32310   1
   1  -3   1 19.8632 1.79206   2
  -1  -3  -1 17.6225 2.22903   3
  -1  -3  -1 18.4111 2.54199   1
  -1   3  -1 14.2706 2.31577   1
   1   3   1 18.8114 2.35182   3
   1  -3   1 20.0016 2.30626   3
   1   3   1 18.3561 2.71328   1
  -1   3  -2 91.0150 6.63885   2
   1   3   2 91.3774 6.84615   3
   1   3   2 89.8838 6.79107   1
   1   3   2 85.4428 6.96404   1
  -1   3  -2 86.8796 6.76010   3
   1  -3   2 86.4199 6.54143   2
   1  -3   2 82.4077 6.72508   3
   1  -3   2 78.4883 6.76711   1
  -1   3  -2 86.0660 6.79248   1
  -1   3  -3 87.6449 6.78471   2
   1  -3   3 80.8425 6.72457   2
  -1   3  -3 97.2431 6.99695   3
   1  -3   3 87.8930 6.84801   3
   1   3   3 95.9773 6.92962   1
   1   3   3 88.3515 6.95644   3
   1   3   3 84.7628 7.05371   1
   1  -3   3 94.8334 7.06081   1
  -1   3  -3 85.0451 6.95515   1
   1  -3   4 14.4383 1.76604   2
   1  -3   4 14.3857 2.01554   3
  -1  -3  -4 12.0105 0.94558   2
   1   3   4 14.5152 2.21764   1
   1   3   4 14.2304 2.50863   1
   1  -3   4 14.6400 2.34963   1
  -1   3  -4 13.8507 1.75537   2
   1   3   4 6.63532 0.95563   2
  -1   3  -4 18.6025 1.99960   3
  -1   3  -4 14.5322 2.25560   1
   1   3   5 16.5390 2.27369   1
  -1  -3  -5 12.4253 1.22062   2
   1  -3   5 11.6906 1.87571   2
   1   3   5 12.2060 1.30372   2
   1   3   5 12.9470 2.53340   1
  -1   3  -5 11.3644 2.29030   1
  -1   3  -5 13.3548 2.15433   3
  -1   3  -5 15.1837 1.95497   2
   1  -3   5 9.35517 2.30029   1
   1  -3   5 14.4605 2.07834   3
   1   3   6 10.3688 2.11112   1
  -1  -3  -6 10.9506 2.39973   1
   1  -3   6 8.78182 1.94434   2
   1  -3   6 12.2452 2.44861   1
  -1   3  -6 13.1759 2.01901   2
   1   3   6 7.24516 2.39300   3
   1  -3   6 9.43215 1.83508   3
  -1  -3  -6 8.53602 1.22408   2
   1   3   6 11.0557 1.39129   2
  -1   3  -6 7.78213 2.26398   1
   1  -3   7 21.4887 2.60573   2
  -1  -3  -7 21.9469 2.81324   1
  -1   3  -7 21.6972 2.82584   1
  -1  -3  -7 22.0832 2.03338   2
   1   3   7 26.7114 2.84244   1
   1   3   7 18.5189 2.88626   3
   1  -3   7 20.7977 3.02771   1
   1   3   7 20.6998 2.14261   2
   1   3   7 16.9297 2.62512   4
   1  -3   7 21.9727 2.42397   3
  -1   3  -7 21.1603 2.50341   2
   1   3   8 73.0901 6.23150   2
   1  -3   8 86.7205 6.39381   3
   1  -3   8 77.9303 6.85074   1
  -1   3  -8 85.4885 6.46113   2
   1   3   8 92.5901 6.64846   1
  -1   3  -8 90.1235 6.56352   1
  -1  -3  -8 74.7362 6.16455   2
   1  -3   8 79.3823 6.49429   2
   1   3   8 73.2843 6.64946   3
  -1  -3  -8 90.2973 6.63562   1
   1  -3   9 20.7322 2.42702   3
   1   3   9 17.4320 3.03238   3
  -1   3  -9 20.6774 2.69773   2
  -1  -3  -9 21.1397 2.91900   1
   1   3   9 19.6384 2.34163   2
  -1   3  -9 20.5455 2.95366   1
  -1  -3  -9 16.2397 2.04149   2
   1  -3   9 16.9005 2.83120   2
   1  -3   9 19.6685 3.49014   1
   1   3   9 23.1216 2.89708   1
   1   3  10 6.72277 2.81735   1
   1  -3  10 2.58467 3.19256   1
   1   3  10 3.26087 1.96646   2
  -1   3 -10 2.49734 2.56531   1
  -1   3 -10 4.81959 2.28652   2
   1   3  10 3.94116 2.70150   3
   1  -3  10 6.84391 2.06160   3
  -1  -3 -10 2.24932 1.62578   2
   1  -3  10 3.75265 2.61199   2
  -1  -3 -10 7.37331 2.62878   1
   1   3  11 2.04641 2.81887   3
  -1  -3 -11 5.43888 2.77494   1
   1  -3  11 7.69627 2.40851   3
  -1  -3 -11 6.21898 1.86251   2
   1  -3  11 10.2105 3.53557   1
  -1   3 -11 3.96147 2.96747   1
  -1   3 -11 8.86814 2.54292   2
   1   3  11 6.07493 2.38342   2
   1   3  11 8.61348 3.79443   1
   1  -3  11 7.96168 2.83793   2
   1   3  12 9.04463 3.66482   1
   1  -3  12 7.39941 3.64923   1
   1  -3  12 8.09018 3.08599   2
   1   3  12 7.68625 3.02238   3
  -1   3 -12 5.31069 3.14735   1
  -1  -3 -12 5.78455 2.03229   2
  -1   3 -12 5.20559 2.57309   2
  -1  -3 -12 6.12699 3.06221   1
   1   3  12 5.98922 2.58566   2
   1  -3  12 10.1758 2.33883   3
   1  -3  13 4.18452 2.45681   3
  -1   3 -13 4.62814 2.78496   2
   1  -3  13 2.90273 3.84371   1
   1   3  13 8.99403 3.82630   1
  -1  -3 -13 5.59394 2.08871   2
   1   3  13 1.53111 2.76680   2
   1  -3  14 13.0031 4.22639   1
  -1   3 -14 8.09979 3.16093   2
   1   3  14 14.3408 3.25849   2
  -1  -3 -14 11.1583 2.40412   2
   1   3  14 11.6079 4.31102   1
   1  -3  14 10.7483 2.79445   3
   1   3  15-1.03827 3.02492   2
   1  -3  15-0.60287 2.68360   3
  -1  -3 -15 3.05707 2.46406   2
   1  -3  15-0.23514 4.08959   1
   1   3  15-1.86255 4.38549   1
  -1   3 -15-2.32599 3.08595   2
  -1  -3 -16 11.7582 2.78172   2
   1   3  16 4.59662 4.61673   1
   1  -3  16 15.6851 3.02215   3
   1  -3  16 9.21117 4.62864   1
  -1   3 -16 11.2017 3.43417   2
  -1  -3 -17 16.3128 3.39285   2
  -1   3 -17 23.8852 4.00001   2
   1   3  17 34.3846 5.43663   1
   1  -3  17 22.4222 5.35040   1
  -1  -3 -18 1.29007 2.94480   2
  -1   3 -18 1.12011 3.52475   2
   1   3  18 5.46044 5.21369   1
   1  -3  18-0.14448 4.99935   1
  -1   3 -19 6.53312 3.95779   2
   1  -3  19 12.4391 5.64332   1
   1   3  19 11.1046 5.53217   1
  -1  -3 -19 6.62315 3.26353   2
  -1  -3 -20 26.7315 4.20565   2
  -1   4  19 12.5635 5.69077   1
  -1  -4  18 18.3695 5.91172   1
  -1   4  18 23.0228 5.61888   1
   1   4 -18 13.3028 4.10227   2
  -1   4  17 2.50401 5.13956   1
  -1  -4  17 12.7446 5.13629   1
   1   4 -17 0.74428 3.57988   2
  -1   4  16 19.1884 4.83232   1
  -1  -4  16 12.6062 5.31169   1
   1  -4 -16 6.58146 2.98730   2
   1   4 -16 11.1928 3.54730   2
  -1   4  15 5.91033 4.37721   1
   1   4 -15 5.78983 3.09937   2
   1  -4 -15 6.37182 2.56689   2
  -1  -4  15 11.7644 4.76471   1
   1   4 -14 6.18949 3.00168   2
   1  -4 -14 8.96014 2.55006   2
  -1  -4  14 13.6955 4.53983   1
  -1   4  14 10.5735 4.12830   1
  -1   4  13 14.1868 4.36807   1
   1  -4 -13 8.62158 2.23814   2
  -1  -4  13 10.6977 2.05109   3
  -1  -4  13 8.16657 4.27257   1
  -1   4  13 11.7543 2.98794   2
   1   4 -13 8.12455 2.88988   2
   1  -4 -12 9.47558 2.22532   2
  -1  -4  12 11.7605 4.15091   1
  -1   4  12 12.9642 3.78401   1
  -1   4  12 8.81255 2.88672   2
   1   4 -12 6.07462 2.70319   2
  -1  -4  12 10.2522 2.02055   3
  -1  -4  11 1.12018 1.81616   3
   1   4 -11 1.63454 2.44810   2
  -1  -4  11-6.36255 3.63822   1
  -1   4  11-1.18469 3.49053   1
  -1   4  11 2.64004 2.46820   2
   1  -4 -11 1.52691 2.90616   1
  -1  -4  11 2.86945 2.68211   2
   1  -4 -11 0.78599 1.91503   2
  -1  -4  10 37.5460 3.27771   3
  -1  -4  10 30.4404 4.40094   1
   1  -4 -10 40.9520 4.04647   1
  -1   4  10 39.6537 3.59999   2
   1   4 -10 35.0235 3.60737   2
  -1  -4  10 35.0648 3.76608   2
   1  -4 -10 29.1014 3.22745   2
  -1   4  10 40.6903 4.33083   1
  -1   4  10 30.3870 4.13034   3
  -1  -4   9 34.7267 3.29153   3
  -1   4   9 35.7699 4.14963   3
  -1   4   9 46.1536 3.60827   2
   1  -4  -9 31.2863 3.29711   2
  -1  -4   9 44.7357 4.53048   1
   1   4  -9 35.4668 4.22335   1
  -1   4   9 40.1134 4.10350   4
  -1   4   9 45.6220 3.97931   1
  -1  -4   9 33.4094 3.76598   2
   1  -4  -9 38.9972 4.18412   1
   1   4  -9 31.2550 3.52106   2
  -1   4   8 133.249 9.76906   3
   1   4  -8 131.590 9.81793   1
  -1   4   8 137.484 9.40230   2
  -1  -4   8 132.477 10.0022   1
  -1  -4   8 116.892 9.48712   2
   1  -4  -8 106.947 9.27538   2
  -1  -4   8 125.371 9.36954   3
  -1   4   8 143.523 9.62686   1
   1   4  -8 116.647 9.42038   2
   1   4  -7 114.930 9.61147   1
  -1  -4   7 106.040 9.33200   2
  -1   4   7 145.445 9.46664   1
  -1   4   7 120.716 9.63672   3
  -1  -4   7 125.072 9.27458   3
  -1  -4   7 142.731 9.89105   1
  -1   4   7 129.762 9.58666   1
   1  -4  -7 105.032 9.12023   2
  -1   4   7 155.494 9.32814   2
   1   4  -7 112.096 9.26316   2
   1   4  -7 121.983 9.26838   3
   1   4  -6 2.78318 1.73556   2
   1  -4  -6 3.32605 1.32525   2
  -1   4   6 7.61423 2.66446   1
  -1   4   6 4.18911 2.63318   3
   1   4  -6 5.54452 2.00696   3
  -1  -4   6 5.43952 1.81421   3
   1   4  -6 3.81467 2.73341   1
  -1   4   6 7.68262 2.11583   1
  -1  -4   6 3.72922 3.21757   1
  -1  -4   6 4.50591 1.82229   2
   1  -4  -6 3.77503 1.63767   2
   1  -4  -5 10.4562 1.62952   2
   1  -4  -5 11.8109 1.34058   2
  -1   4   5 11.0135 2.58053   1
  -1  -4   5 5.54873 1.87530   3
  -1  -4   5 3.18684 2.78192   1
   1   4  -5 7.29086 1.69919   2
   1   4  -5 9.23000 3.05349   1
  -1   4   5 8.43929 2.25192   1
  -1  -4   5 7.85088 1.71977   2
   1   4  -5 12.2360 2.07663   3
  -1   4   5 9.53588 2.57025   3
  -1  -4   4 6.14766 1.55231   2
   1  -4  -4 6.34578 1.15719   2
   1   4  -4 4.37045 1.85793   3
   1   4  -4 8.82817 1.56097   2
  -1  -4   4 9.84764 2.82511   1
  -1   4   4 7.80158 2.12897   1
   1  -4  -4 9.14605 1.39828   2
   1   4  -4 11.4020 2.99199   1
  -1  -4   4 8.12247 1.84515   3
  -1   4   4 6.08096 2.55409   1
  -1  -4   3 12.8043 2.15288   3
   1   4  -3 14.5986 1.78031   2
  -1   4   3 14.6373 2.30764   1
   1  -4  -3 16.9255 1.62369   2
   1   4  -3 15.3123 2.31848   3
  -1  -4   3 19.4660 3.11226   1
  -1  -4   3 15.5332 1.74861   2
   1   4  -3 11.3121 2.92671   1
   1  -4  -3 16.2373 1.49136   2
   1  -4  -3 14.3678 2.42021   3
  -1   4   3 14.3639 2.66691   1
  -1   4   2 2.83005 1.91474   1
  -1   4   2 5.18826 2.42909   1
   1   4  -2 6.89384 2.51502   1
  -1  -4   2 1.99230 2.71451   1
   1   4  -2 5.45517 1.14252   2
  -1  -4   2 2.61016 1.08620   2
  -1  -4   2 5.09331 1.85361   3
   1  -4  -2 4.47691 1.95810   3
  -1   4   2 6.75501 2.34068   3
   1   4  -2 4.25612 2.03770   3
   1  -4  -2 3.69257 1.04331   2
   1  -4  -2 5.95147 1.05821   2
   1   4  -1 21.5477 3.33539   1
  -1  -4   1 21.6801 2.73464   3
   1  -4  -1 28.0720 2.29614   2
  -1  -4   1 25.4024 1.97039   2
  -1  -4   1 23.3119 3.23024   1
  -1   4   1 22.1632 3.05135   3
  -1   4   1 23.8256 3.12954   1
   1  -4  -1 27.1932 2.16116   2
   1   4  -1 23.8322 2.06537   2
   1   4  -1 22.4745 2.90345   3
   1  -4  -1 28.1748 2.86919   3
  -1  -4   0 58.5868 4.89650   1
  -1   4   0 55.7765 4.32991   2
  -1   4   0 52.3911 4.74871   3
   1   4   0 53.6743 4.68830   3
   1  -4   0 57.8227 4.74787   3
   1  -4   0 54.6795 4.18867   2
   1  -4   0 51.1313 4.69138   1
  -1  -4   0 50.1745 4.56115   3
  -1   4   0 53.7175 4.77953   1
   1   4   0 53.4374 5.02630   1
  -1  -4  -1 20.8619 2.98785   1
   1  -4   1 17.6955 2.50527   3
   1  -4   1 21.1648 1.94402   2
  -1  -4  -1 18.1743 2.51786   3
  -1   4  -1 19.1835 2.18640   2
   1  -4   1 23.8618 2.87261   1
  -1   4  -1 21.4221 2.78142   1
  -1   4  -1 17.1106 2.64305   3
   1   4   1 16.2569 2.97609   1
   1   4   1 18.9480 2.75443   3
   1  -4   2 14.6810 2.67451   1
  -1   4  -2 8.86735 2.50846   1
   1   4   2 12.9452 2.47902   3
  -1   4  -2 11.9994 1.93406   2
   1   4   2 10.8853 2.93827   1
  -1   4  -2 9.60926 2.26322   3
   1  -4   2 14.7439 2.26967   3
   1   4   2 15.3120 2.53290   1
   1  -4   2 12.8228 1.65076   2
   1   4   3 130.672 10.1711   1
   1  -4   3 118.127 9.72996   2
  -1   4  -3 141.733 10.0169   3
   1   4   3 132.115 9.99799   1
  -1   4  -3 136.978 9.82973   2
  -1   4  -3 137.247 10.0899   1
   1  -4   3 130.861 10.0999   1
   1   4   3 123.270 10.0513   3
   1  -4   3 131.668 9.97201   3
  -1   4  -4 19.1454 2.61328   3
  -1   4  -4 19.0673 2.28081   2
   1   4   4 18.7497 2.89771   3
  -1   4  -4 15.7143 2.72933   1
   1   4   4 19.0826 3.14790   1
   1  -4   4 17.2153 2.88769   1
   1   4   4 18.7293 2.74628   1
   1  -4   4 17.7609 2.48965   3
   1  -4   4 15.8646 2.15835   2
  -1   4  -5 14.0369 2.38555   3
   1  -4   5 15.9611 3.05067   1
  -1   4  -5 15.2815 2.12642   2
   1   4   5 12.7135 2.88219   3
   1  -4   5 11.5855 2.31615   3
   1  -4   5 11.6403 2.03740   2
   1   4   5 11.9805 2.72474   1
   1   4   5 13.9692 2.93426   1
  -1   4  -5 13.4219 2.65880   1
  -1  -4  -6 22.3557 1.65917   2
   1  -4   6 22.5102 2.60085   2
   1  -4   6 28.7853 3.44173   1
   1   4   6 26.7810 3.28949   1
  -1   4  -6 25.2602 2.56318   2
   1  -4   6 29.1046 2.77725   3
  -1   4  -6 33.5210 2.85850   3
  -1   4  -6 26.0796 2.97163   1
   1   4   6 30.6149 3.06951   1
  -1   4  -7 67.6775 5.24445   1
   1  -4   7 67.4764 5.05402   3
   1  -4   7 59.3895 5.04152   2
   1  -4   7 59.2292 5.44738   1
   1   4   7 71.1374 5.52303   1
   1   4   7 78.0349 5.31951   1
  -1  -4  -7 58.3711 4.48205   2
  -1   4  -7 68.1106 5.01673   2
   1   4   7 46.6164 4.51201   2
   1   4   8 26.2883 3.25301   1
   1   4   8 21.1701 3.49953   1
  -1   4  -8 22.3900 3.00169   2
   1  -4   8 24.5497 2.74668   3
   1   4   8 21.5161 2.17083   2
  -1   4  -8 22.4850 3.21196   1
   1   4   8 21.0400 3.04639   4
  -1  -4  -8 20.2034 2.02639   2
   1  -4   8 16.9260 3.35261   1
   1  -4   8 20.2679 2.92823   2
   1   4   8 22.8059 3.27595   3
   1  -4   9 20.6961 2.81025   3
  -1  -4  -9 18.5596 1.98375   2
   1  -4   9 18.6294 3.64956   1
   1   4   9 16.4226 3.32065   3
   1   4   9 18.1995 3.24350   1
  -1   4  -9 16.2615 2.81523   2
   1   4   9 15.8620 2.17037   2
  -1   4  -9 21.5878 3.20838   1
   1  -4   9 17.5184 2.95503   2
   1   4  10 15.7267 2.34987   2
   1  -4  10 17.0370 3.85569   1
   1  -4  10 20.3540 3.10141   2
   1  -4  10 18.6363 2.90364   3
  -1   4 -10 14.5269 3.19968   1
  -1  -4 -10 16.0872 2.03670   2
  -1   4 -10 17.3113 3.03191   2
   1   4  10 15.9078 3.40371   1
  -1  -4 -10 19.3986 3.52175   1
  -1   4 -11 17.4459 3.27359   2
   1  -4  11 17.7393 4.07857   1
   1   4  11 17.6056 3.62951   1
   1  -4  11 24.2974 2.98680   3
  -1  -4 -11 15.3338 2.22239   2
   1  -4  11 16.3761 3.25081   2
   1   4  11 17.0038 2.60039   2
  -1  -4 -12 58.5374 5.29217   2
   1  -4  12 72.6619 5.67490   3
   1  -4  12 65.3009 6.54950   1
   1   4  12 59.8623 5.47386   2
   1   4  12 83.4154 6.51585   1
  -1   4 -12 63.1068 5.88871   2
   1  -4  13 1.33623 4.02521   1
  -1  -4 -13 2.15311 2.02969   2
   1  -4  13-1.60712 2.71568   3
  -1   4 -13-1.78582 2.98845   2
   1   4  13 4.85155 4.18596   1
   1   4  14 1.44130 4.30038   1
  -1   4 -14 0.66819 3.14356   2
   1  -4  14 3.16136 2.75054   3
  -1  -4 -14 0.26478 2.16445   2
   1  -4  14 7.01014 4.31310   1
  -1  -4 -15 2.00052 2.39990   2
  -1   4 -15 0.91489 3.42936   2
   1   4  15 9.09492 4.44930   1
  -1   4 -16 7.34854 3.62106   2
   1  -4  16 5.43493 5.07423   1
   1   4  16 10.9924 4.90377   1
  -1   4 -17 14.9409 4.06244   2
   1   4  17 12.4033 5.46843   1
   1  -4  17 17.0486 5.42913   1
   1   4  18-0.24705 5.30401   1
   1  -4  18-2.76867 5.69529   1
  -1   4 -18 3.05904 3.98349   2
  -1   5  18 9.64694 5.77017   1
  -1   5  17 10.1390 5.83403   1
   1   5 -17 14.0105 4.01880   2
  -1  -5  16 12.6890 5.53047   1
   1   5 -16 8.35499 3.75616   2
  -1   5  16 10.4495 5.25930   1
  -1  -5  15 12.0635 5.33809   1
   1   5 -15 16.5573 3.82094   2
  -1   5  15 26.4635 5.15324   1
  -1   5  14 7.26206 4.41620   1
   1   5 -14 10.0300 3.41761   2
  -1  -5  14 2.35078 4.95789   1
  -1  -5  13 8.16140 4.82267   1
   1   5 -13-1.47359 3.05270   2
  -1   5  13 4.57246 4.14718   1
  -1  -5  12 8.48706 4.87015   1
  -1   5  12 17.4464 4.30899   1
   1   5 -12 12.4132 3.12834   2
   1   5 -11-0.96871 2.73862   2
  -1  -5  11 0.37580 4.56486   1
  -1   5  11 5.73711 3.54013   1
  -1  -5  11 2.77630 2.15771   3
  -1  -5  10 23.7367 3.21685   2
   1   5 -10 24.1215 3.24451   2
  -1   5  10 29.1757 3.91283   1
   1  -5 -10 22.5343 2.43620   2
  -1  -5  10 25.6495 3.06820   3
  -1  -5  10 19.4796 4.88361   1
  -1   5  10 20.4754 3.83292   4
  -1   5   9 25.4802 3.71528   1
  -1  -5   9 20.1120 2.89420   2
  -1   5   9 19.1302 3.65889   1
  -1  -5   9 19.2636 2.67038   3
   1  -5  -9 15.0691 2.09111   2
   1   5  -9 19.1411 2.82367   2
  -1  -5   9 17.2624 4.51545   1
   1  -5  -8 3.01070 1.27025   2
  -1  -5   8-0.81773 3.92256   1
  -1  -5   8 2.00206 2.22819   2
  -1   5   8 8.02043 3.16306   1
   1   5  -8 1.82414 2.16857   2
  -1  -5   8 1.40312 2.15624   3
  -1   5   8 2.30440 2.89856   1
  -1   5   7 92.3074 6.50592   1
   1  -5  -7 62.0749 5.68093   2
  -1  -5   7 74.9983 6.06347   2
   1   5  -7 80.8296 6.15932   3
  -1   5   7 80.4037 6.62342   1
  -1  -5   7 83.0186 6.99135   1
  -1  -5   7 70.8594 6.12518   3
   1  -5  -7 91.4743 5.79643   2
   1   5  -7 77.6912 6.11418   2
   1  -5  -6 32.7906 3.15045   2
   1  -5  -6 50.3377 3.23580   2
  -1  -5   6 48.6076 5.02769   1
  -1   5   6 43.3285 4.08730   1
  -1  -5   6 36.4916 3.62846   2
   1   5  -6 46.4622 3.81364   2
   1   5  -6 44.8294 4.65708   1
  -1   5   6 41.6015 4.54194   1
   1   5  -6 45.9923 4.05497   3
  -1  -5   6 35.1661 3.77542   3
  -1   5   5 14.9037 3.26196   1
   1   5  -5 10.0575 2.68958   3
  -1  -5   5 9.06552 2.26464   3
   1   5  -5 8.71127 1.89545   2
   1  -5  -5 7.21825 0.95035   2
  -1  -5   5 9.23143 1.68910   2
   1   5  -5 13.1995 3.64092   1
  -1  -5   5 3.64433 3.66218   1
  -1   5   5 12.0137 2.65434   1
  -1  -5   4 5.43167 3.60053   1
  -1   5   4 2.14916 2.45022   1
  -1  -5   4 3.86455 1.45627   2
   1   5  -4 3.50743 1.60568   2
  -1  -5   4-0.17478 2.28037   3
  -1   5   4 5.44877 3.08012   1
   1   5  -4 3.20418 3.42268   1
   1  -5  -4 2.66506 0.70707   2
  -1   5   4 5.06264 2.75706   3
   1  -5  -4 1.82169 2.74243   3
   1   5  -4 0.22611 2.28156   3
   1   5  -3 59.2904 3.78346   2
   1  -5  -3 31.9367 3.43938   2
  -1   5   3 57.4354 4.59084   1
   1   5  -3 56.0310 4.87266   1
   1  -5  -3 57.2054 4.49957   3
  -1  -5   3 50.7904 4.19874   3
  -1   5   3 67.9686 4.46516   1
  -1  -5   3 67.6073 5.18964   1
   1   5  -3 60.4970 4.40559   3
  -1  -5   3 54.0059 3.67061   2
  -1   5   3 60.8034 4.72147   3
   1   5  -2 33.3582 2.37574   2
  -1   5   2 37.2749 3.70944   1
   1  -5  -2 31.5786 3.41463   3
   1  -5  -2 22.4983 2.15400   2
   1   5  -2 35.1006 3.36036   3
  -1  -5   2 24.7120 2.19626   2
  -1   5   2 38.1544 3.32339   1
   1  -5  -2 24.1209 2.06137   2
  -1   5   2 37.0219 3.71173   3
  -1  -5   2 28.9057 3.18145   3
  -1  -5   2 33.2452 3.96936   1
   1   5  -2 30.0889 3.77697   1
  -1  -5   1 11.3848 2.37108   3
  -1   5   1 6.24835 2.47068   1
  -1   5   1 14.8982 2.92841   1
   1  -5  -1 10.4783 2.44741   3
   1  -5  -1 12.5545 1.04111   2
   1   5  -1 10.9959 2.70394   3
   1   5  -1 6.99138 2.94799   1
  -1   5   1 13.3748 2.94437   3
   1  -5  -1 10.6298 1.21155   2
  -1  -5   1 13.4349 3.10989   1
   1   5  -1 5.25398 0.70287   2
   1   5   0 14.4865 3.47868   1
   1   5   0 12.9957 2.80181   3
   1  -5   0 11.3261 1.43012   2
   1  -5   0 11.8515 2.95645   1
  -1   5   0 10.6630 2.86548   1
  -1  -5   0 13.3846 2.63143   3
  -1  -5   0 19.9814 3.35497   1
   1  -5   0 16.3858 2.75411   3
   1  -5   0 12.1383 1.89297   2
  -1   5   0 11.9817 2.84246   3
   1   5   1 2.10954 3.16500   1
   1  -5   1 4.20713 1.27467   2
   1  -5   1 0.92232 2.46450   3
  -1   5  -1 2.82251 2.61786   3
   1  -5   1 5.08818 2.70762   1
   1   5   1 3.55258 2.76127   3
  -1   5  -1 4.04446 2.86047   1
  -1   5  -1 6.05564 1.62449   2
   1   5   2 19.2544 3.21921   1
   1  -5   2 15.4911 3.25300   1
   1  -5   2 13.8493 1.97834   2
   1   5   2 17.5491 3.49058   1
   1  -5   2 22.1983 2.97112   3
   1   5   2 17.8809 3.05691   3
  -1   5  -2 16.4106 3.06299   1
  -1   5  -2 19.2552 3.03953   3
  -1   5  -2 23.6141 2.32343   2
   1  -5   3 28.3167 3.41911   3
   1  -5   3 24.9111 2.69627   2
   1   5   3 30.1574 3.73045   3
  -1   5  -3 29.7547 3.55201   3
  -1   5  -3 30.0794 3.00258   2
   1   5   3 31.1571 4.09951   1
  -1   5  -3 29.5423 3.81707   1
   1  -5   3 30.7376 4.02978   1
   1   5   3 27.8334 3.59971   1
  -1   5  -4 68.9190 5.75833   2
  -1   5  -4 72.5499 6.11085   3
   1  -5   4 72.0052 5.98474   3
   1   5   4 82.4882 6.19325   1
   1  -5   4 65.0841 5.60517   2
   1   5   4 65.4497 6.28082   3
   1   5   4 77.6912 6.48743   1
   1  -5   4 71.4162 6.34223   1
  -1   5  -4 69.2516 6.15685   1
  -1   5  -5 111.291 8.75311   2
   1  -5   5 113.429 8.87890   3
  -1   5  -5 115.340 8.94075   3
  -1   5  -5 113.724 9.02683   1
   1   5   5 117.310 9.33225   1
   1   5   5 118.477 9.19516   3
   1  -5   5 101.569 8.65740   2
   1   5   5 130.086 9.05658   1
   1  -5   5 106.496 9.21327   1
   1   5   6 97.9964 7.01498   1
  -1   5  -6 80.4273 6.66896   2
   1  -5   6 78.4517 6.78375   3
  -1   5  -6 80.5303 6.92169   1
   1  -5   6 71.8818 6.54690   2
  -1   5  -6 82.1110 6.80462   3
   1  -5   6 83.0391 7.24547   1
   1   5   6 92.0717 7.27398   1
   1  -5   7 24.7139 3.25124   3
   1  -5   7 17.4707 2.89525   2
  -1   5  -7 24.0236 3.11580   2
   1  -5   7 24.3915 4.11813   1
  -1   5  -7 22.1343 3.58432   1
   1   5   7 25.7062 3.44830   1
   1   5   7 21.5210 4.01528   1
   1  -5   8 1.76928 2.32816   2
  -1   5  -8 5.34915 2.41056   2
   1  -5   8 4.27256 2.71683   3
   1  -5   8 0.31260 3.81971   1
   1   5   8 0.63611 3.08901   1
  -1   5  -8-4.82444 3.13201   1
   1  -5   9 5.96656 2.55882   2
   1  -5   9 4.33765 4.04783   1
   1  -5   9 8.12361 2.66141   3
   1   5   9 1.08139 3.11994   1
   1   5   9 2.52594 2.95313   4
  -1   5  -9 5.77341 2.54925   2
   1   5  10 42.2238 4.94231   1
  -1   5 -10 41.0844 4.29173   2
   1  -5  10 41.2811 5.42664   1
   1  -5  10 43.4241 4.35226   3
   1  -5  10 32.1547 4.17939   2
   1  -5  11 36.5291 4.24901   3
  -1   5 -11 35.8511 4.32545   2
   1  -5  11 34.6150 5.20076   1
   1   5  11 47.5032 4.85974   1
   1  -5  12 18.1865 4.63266   1
   1   5  12 14.5795 4.15780   1
   1  -5  12 14.1779 3.02044   3
  -1   5 -12 17.7853 3.46352   2
   1  -5  13-1.35330 2.87251   3
  -1   5 -13 1.25311 3.31458   2
   1   5  13 3.24734 4.56344   1
   1  -5  13 6.33400 4.42900   1
   1  -5  14 16.8700 4.96775   1
  -1   5 -14 11.0914 3.64397   2
   1   5  14 13.4063 5.24948   1
   1   5  15 2.01013 5.05932   1
  -1   5 -15 13.2029 3.73289   2
   1  -5  15 8.16435 5.00771   1
   1   5  16 14.1441 5.58816   1
  -1   5 -16 13.1756 3.97815   2
   1  -5  16 0.90029 5.36409   1
  -1   5 -17 6.47639 4.18419   2
   1   5  17 6.84455 5.55442   1
   1  -5  17-4.27798 5.50681   1
  -1   6  16 17.2830 5.79298   1
   1   6 -16 18.0095 4.54041   2
  -1   6  15 5.93403 5.23980   1
   1   6 -15 9.90781 4.00732   2
  -1  -6  14 2.88161 5.97907   1
   1   6 -14 1.13625 3.60615   2
  -1   6  14 1.70305 4.79850   1
  -1  -6  13 7.56588 5.44003   1
   1   6 -13 8.59043 3.66980   2
  -1   6  13 5.47926 4.56482   1
  -1   6  12-7.53499 4.80605   1
   1   6 -12-2.12825 3.44627   2
  -1   6  11 22.4821 4.17475   1
   1   6 -11 18.1790 3.44355   2
  -1   6  11 14.2484 4.03472   4
  -1  -6  11 11.7333 5.16435   1
  -1   6  10 22.7999 4.14182   1
  -1   6  10 18.8028 3.98879   4
  -1  -6  10 20.9631 5.12655   1
   1   6 -10 13.2668 3.21712   2
  -1  -6   9 21.2635 5.15945   1
   1   6  -9 23.6230 3.40694   2
  -1   6   9 33.4842 4.17674   1
  -1  -6   9 19.7599 3.41496   3
  -1   6   8 27.4436 3.78805   1
  -1  -6   8 14.2315 4.88479   1
  -1  -6   8 23.2116 3.16825   3
   1   6  -8 17.8366 2.97232   2
  -1  -6   7 38.7198 4.12325   3
   1   6  -7 42.9379 4.30232   3
   1   6  -7 37.3370 3.81435   2
  -1   6   7 37.2586 4.55036   1
  -1  -6   7 44.1889 5.72890   1
  -1  -6   6 14.5674 3.12877   3
   1   6  -6 12.1873 3.26565   3
  -1   6   6 16.4530 3.88070   1
  -1   6   6 20.6964 3.34552   1
   1   6  -6 13.7775 2.61799   2
  -1   6   5 2.93383 3.27260   1
  -1  -6   5 3.24253 4.46637   1
   1   6  -5 7.87510 2.13776   2
   1   6  -5 5.22110 3.19054   3
  -1  -6   5 3.75026 2.62831   3
  -1   6   5 4.75729 3.30608   1
  -1  -6   4 41.6753 5.10985   1
  -1   6   4 34.4102 4.28793   1
   1  -6  -4 28.6617 4.22353   3
  -1  -6   4 32.5336 4.00124   3
  -1   6   4 36.5110 4.06059   1
   1   6  -4 36.0408 3.24358   2
   1   6  -4 33.5893 3.95160   3
  -1  -6   3 25.1305 4.37527   1
  -1  -6   3 19.7999 3.40893   3
   1   6  -3 24.5119 3.45966   3
   1  -6  -3 17.4223 3.48286   3
   1   6  -3 19.3905 2.09557   2
  -1   6   3 20.7703 3.88087   1
  -1   6   3 27.9434 3.42145   1
  -1  -6   2 19.7173 3.37772   3
  -1   6   2 23.1080 3.87318   1
  -1  -6   2 26.4513 4.07901   1
  -1   6   2 22.3588 3.42287   1
   1  -6  -2 19.2620 3.57643   3
  -1  -6   1 3.04123 2.90103   3
   1  -6  -1 5.64609 2.96899   3
  -1   6   1 5.12789 2.84893   1
  -1   6   1 4.98744 3.10291   1
  -1  -6   1 0.69336 3.59595   1
  -1   6   0 31.9820 4.11330   1
   1  -6   0 32.9587 4.11002   3
   1   6   1 11.3938 3.41918   1
   1  -6   1 13.7811 3.59087   1
  -1   6  -1 10.8817 3.35526   1
   1  -6   1 5.08200 1.77285   2
   1  -6   1 5.46136 2.87185   3
  -1   6  -2 7.82035 3.34541   1
   1  -6   2 6.85677 3.33122   1
   1   6   2 1.69431 3.28349   1
  -1   6  -2 4.30530 1.85847   2
   1  -6   2 5.04391 2.99015   3
   1  -6   3 3.62749 3.56393   1
  -1   6  -3 4.93831 3.40539   1
  -1   6  -3 1.99562 2.00628   2
   1  -6   3 5.52448 2.94528   3
   1   6   3-5.86799 3.27948   1
   1  -6   4 43.0179 5.27708   1
   1  -6   4 38.7572 4.66160   3
  -1   6  -4 45.5947 4.08109   2
  -1   6  -4 41.5317 4.73313   1
   1   6   4 45.3762 4.96297   1
   1  -6   5 19.8073 4.31612   1
   1  -6   5 16.3608 3.38517   3
   1   6   5 15.4092 3.76697   1
  -1   6  -5 13.3003 2.85043   2
   1  -6   6 10.7287 4.35476   1
   1   6   6 4.63148 3.59826   1
   1  -6   6 1.43906 3.20430   3
  -1   6  -6 4.16796 2.62576   2
   1  -6   7 23.5627 4.69345   1
   1  -6   7 15.5665 3.56654   3
  -1   6  -7 24.5744 3.32089   2
   1   6   7 21.6017 3.88833   1
   1  -6   8 45.1022 5.72726   1
   1  -6   8 44.6267 4.76065   3
   1   6   8 56.0162 5.40842   1
  -1   6  -8 40.0947 4.60403   2
   1  -6   9-0.81609 4.54828   1
   1   6   9 1.14406 3.96913   1
   1  -6   9 6.45408 3.06861   3
  -1   6  -9 3.90348 3.09046   2
  -1   6 -10 38.5416 4.41422   2
   1  -6  10 29.0073 5.48128   1
   1   6  10 47.1105 4.90099   1
   1   6  10 30.7921 4.61057   4
   1  -6  10 30.9381 4.09101   3
   1   6  11 11.9275 4.25963   1
   1  -6  11 9.97760 5.04315   1
   1  -6  11 1.93746 3.25941   3
  -1   6 -11 8.63780 3.42809   2
   1   6  12 9.04361 4.26422   1
  -1   6 -12-1.25295 3.45516   2
   1  -6  12 1.16901 5.40129   1
  -1   6 -13 0.40408 3.64688   2
   1  -6  13 1.37587 5.64243   1
   1   6  13 5.61475 4.65893   1
   1   6  14 2.87807 5.70477   1
  -1   6 -14 0.84509 3.58084   2
   1  -6  14-1.26205 5.84471   1
   1  -6  15 0.32858 5.92137   1
  -1   6 -15 1.90275 3.85430   2
   1   6  15-1.54523 5.63034   1
  -1   6 -16-2.59645 4.18107   2
  -1   7  11 15.3113 4.60438   4
  -1   7  11 16.1521 4.66136   1
  -1  -7  11 12.2647 6.05294   1
  -1  -7  10 13.8738 6.08299   1
  -1   7  10 0.38551 4.08140   1
  -1   7   9 16.8994 4.53854   1
  -1  -7   9 23.8609 5.99080   1
  -1   7   8 6.27795 3.70765   1
  -1  -7   8 5.39697 5.31073   1
  -1  -7   7 4.63825 3.42806   3
  -1   7   7 10.1226 3.68908   1
  -1   7   6 10.9707 3.45987   1
  -1  -7   6 10.9154 5.04458   1
  -1  -7   6 6.43931 3.16096   3
  -1  -7   5 11.6807 3.37408   3
  -1   7   5 13.8674 3.81805   1
  -1  -7   5 9.82488 4.95104   1
  -1  -7   4 5.16807 3.37368   3
  -1  -7   4 11.3421 4.72271   1
  -1   7   4 2.58741 3.45089   1
  -1  -7   3 27.4144 5.06395   1
   1  -7  -3 14.5579 3.99509   3
  -1   7   3 18.0741 3.97356   1
   1  -7  -2 34.2666 5.01402   3
  -1   7   2 45.2082 4.87548   1
  -1  -7   2 47.7892 5.78291   1
  -1   7   1 19.8435 3.77692   1
   1  -7  -1 20.3624 4.15403   3
  -1   7   0 19.1427 3.76066   1
   1   7   0 16.3492 4.18453   1
   1  -7   0 16.7051 4.03642   3
   1  -7   1 13.1292 3.85041   3
   1   7   1 18.0820 4.09308   1
   1  -7   2 1.21607 3.49247   3
   1   7   2 7.77795 3.70157   1
   1  -7   2 12.1653 4.35416   1
   1  -7   3 5.50916 4.14215   1
   1  -7   3 3.15819 3.31419   3
   1   7   3-3.27416 3.57538   1
   1  -7   4 9.45934 4.34422   1
   1  -7   4 9.95031 3.45891   3
   1   7   4 8.14506 3.96947   1
   1  -7   5 0.18670 3.18134   3
   1  -7   5 6.78124 4.54747   1
   1   7   5 2.22404 3.85157   1
   1   7   6 5.47022 3.93061   1
   1  -7   6 4.52776 4.76418   1
   1  -7   6 7.21291 3.27862   3
   1  -7   7 0.56459 3.31673   3
   1  -7   7 0.40481 5.21530   1
   1   7   7-1.67648 3.96743   1
   1  -7   8 9.18439 3.62708   3
   1  -7   8 13.0293 5.29815   1
   1   7   8 19.9027 4.29119   1
   1  -7   9 18.4818 5.67020   1
   1   7   9 13.8458 4.32725   1
   1  -7   9 9.45482 3.49574   3
   1   7  10 5.62441 4.26572   1
   1   7  10 0.39189 3.96050   4
   1  -7  10-2.18705 5.53686   1
   1   7  11-3.79917 4.40634   1
   1  -7  11-4.66118 5.48898   1
   1  -7  12 3.99593 5.71824   1
   1   7  12 14.4823 5.19212   1
  -1  -8   7 3.40701 5.66463   1
  -1  -8   6 3.98690 5.44318   1
  -1  -8   5 5.67740 5.56646   1
  -1  -8   4-3.61605 5.50128   1
  -1  -8   3 7.53243 5.27575   1
   1   8  -2-0.34131 4.34330   1
   1   8  -1 9.17310 4.26213   1
   1  -8  -1 5.48882 4.19279   3
   1  -8   0 8.41483 4.16053   3
   1   8   0 12.2481 4.13351   1
  -1   8   0 10.5616 3.96834   1
  -1   8  -1 5.59158 3.93652   1
   1  -8   1 1.66389 4.02766   3
   1   8   1 3.11803 4.16789   1
   1   8   2 11.6326 4.42240   1
   1  -8   2 13.5411 4.36824   3
  -1   8  -2 19.1044 4.29575   1
   1   8   3 19.9587 4.47615   1
   1  -8   3 5.70703 4.21290   3
   1  -8   4 8.23808 4.09757   3
   1  -8   4 22.4352 5.13571   1
   1   8   4 11.8097 4.23978   1
   1  -8   5 2.98578 5.05721   1
   1  -8   5-0.57057 3.90417   3
   1   8   5 1.11249 4.33496   1
   1  -8   6 4.62418 5.21147   1
   1  -8   6 6.95204 4.33214   3
   1   8   6 10.0726 4.27604   1
   1  -8   7 6.16624 5.45863   1
   1   8   7 6.27553 4.34633   1
   1  -8   8 6.01106 5.70207   1
   1   8   8 7.56003 4.58216   1
   1  -8   9 11.4813 6.23067   1
  -2   0  21 29.6090 5.70444   1
   2   0 -21 14.7695 4.23848   2
  -2   0  20 4.00163 5.17832   1
   2   0 -20 3.42279 3.53900   2
  -2   0  19 14.3951 4.72815   1
   2   0 -19 11.3902 3.62248   2
   2   0 -18 3.35068 3.25673   2
  -2   0  18 3.79555 4.18324   1
  -2   0  17 2.31739 3.99576   1
   2   0 -17 5.26913 3.12809   2
   2   0 -16 17.0120 3.23942   2
  -2   0  16 10.2025 3.89128   1
  -2   0  15 9.02337 1.84257   3
   2   0 -15 7.01681 2.86382   2
  -2   0  15 3.92831 3.29549   1
   2   0 -14 11.9068 2.82854   2
  -2   0  14 13.4829 3.46274   1
  -2   0  14 13.4503 1.91875   3
   2   0 -14 11.5240 3.38534   1
   2   0 -13 15.1754 2.84949   2
   2   0 -13 16.7336 3.43081   1
  -2   0  13 18.5981 3.09601   2
  -2   0  13 15.4976 2.03573   3
  -2   0  13 18.9670 3.19790   1
  -2   0  12 45.3551 4.40468   2
  -2   0  12 39.2444 3.65537   3
  -2   0  12 47.6048 4.36076   1
   2   0 -12 49.8666 4.45433   1
   2   0 -12 45.9121 4.18057   2
   2   0 -11 18.7562 2.74575   2
  -2   0  11 15.9875 1.97610   3
  -2   0  11 22.0911 2.94645   2
  -2   0  11 20.8647 2.89641   1
   2   0 -11 20.1643 3.10317   1
  -2   0  10-3.17068 2.20817   1
   2   0 -10-1.32389 1.79459   2
  -2   0  10-1.24747 1.21516   3
   2   0 -10 0.36923 2.32755   1
  -2   0  10 0.72967 2.11847   2
   2   0  -9 8.53710 2.33268   1
  -2   0   9 5.50409 1.29622   3
  -2   0   9 8.93616 2.25103   1
   2   0  -9 6.54441 2.00718   2
   2   0  -8 15.0548 2.49606   1
  -2   0   8 13.9766 1.62060   3
  -2   0   8 15.6771 2.34284   1
   2   0  -8 17.5480 2.18392   2
   2   0  -7 1170.95 81.8162   1
  -2   0   7 1081.06 81.7087   3
   2   0  -7 1122.11 81.8216   2
  -2   0   7 1141.05 81.8253   1
   2   0  -6 314.472 23.2870   2
  -2   0   6 321.107 23.2705   1
   2   0  -6 324.986 23.2714   1
  -2   0   6 309.787 23.1442   3
  -2   0   5 169.263 11.5768   1
   2   0  -5 142.003 11.5617   1
  -2   0   5 154.459 11.4201   3
  -2   0   4 1207.39 87.4344   1
   2   0  -4 1215.09 87.4264   1
   2   0  -4 1265.50 87.3635   3
  -2   0   4 1114.43 87.3599   3
   2   0  -3 33.6388 3.34210   1
  -2   0   3 36.6268 3.29438   1
  -2   0   3 42.8448 3.11108   3
   2   0  -3 41.3743 3.07748   3
  -2   0   2 2695.94 191.413   1
   2   0  -2 2565.02 191.395   3
   2   0  -2 2609.64 191.410   1
   2   0  -1 3890.40 278.874   1
  -2   0   1 3555.58 278.933   2
  -2   0   1 3863.43 278.878   1
  -2   0   0 632.557 49.0880   2
  -2   0   0 697.067 49.0322   1
   2   0   0 661.323 49.0393   1
  -2   0  -1 1727.20 126.801   1
   2   0   1 1760.01 126.803   1
  -2   0  -1 1698.60 126.855   2
  -2   0  -2 5771.44 390.928   1
   2   0   2 5136.70 390.920   1
  -2   0  -2 5075.58 390.963   2
   2   0   3 1084.70 81.5893   1
  -2   0  -3 1182.60 81.5863   1
   2   0   3 1045.03 81.6149   2
  -2   0  -3 1135.32 81.6195   2
   2   0   4 415.599 34.1367   2
   2   0   4 502.099 34.1574   1
  -2   0  -4 467.453 34.1169   1
  -2   0  -4 478.443 34.1477   2
  -2   0  -5 139.663 10.3179   1
   2   0   5 134.631 10.3570   1
  -2   0  -5 148.879 10.3567   2
   2   0   5 127.132 10.3358   2
  -2   0  -6 68.5978 5.16599   2
  -2   0  -6 64.4626 5.14930   1
   2   0   6 65.4157 5.19592   1
   2   0   6 58.3336 5.20323   2
  -2   0  -7 0.57431 1.55669   2
   2   0   7-0.51279 1.94336   2
   2   0   7 5.63461 2.24667   1
  -2   0  -7 0.10425 1.79987   1
  -2   0  -8 151.653 11.5376   1
   2   0   8 138.833 11.5734   2
   2   0   8 158.525 11.6189   1
  -2   0  -8 161.501 11.5490   2
   2   0   9 52.4853 4.74227   2
   2   0   9 58.1126 4.93809   1
  -2   0  -9 58.1491 4.75543   1
  -2   0  -9 54.7941 4.60771   2
  -2   0 -10-0.99131 1.78919   2
   2   0  10 0.21192 2.19551   2
   2   0  10 1.28327 2.42286   1
  -2   0 -10 2.32145 2.14138   1
   2   0  11 76.6322 6.34069   1
  -2   0 -11 75.9600 6.09741   1
  -2   0 -11 74.0239 6.03610   2
   2   0  11 68.4324 6.17650   2
   2   0  12 426.173 30.7196   1
   2   0  12 413.425 30.6691   2
  -2   0 -12 422.096 30.6300   1
  -2   0 -12 398.347 30.6248   2
   2   0  13 33.9961 4.08662   2
   2   0  13 37.2224 4.26960   1
  -2   0 -13 34.1299 3.82975   1
  -2   0 -13 36.6237 3.73553   2
   2   0  14 6.95349 3.45782   1
  -2   0 -14 3.37299 2.53559   2
  -2   0 -15 1.91788 2.89769   2
   2   0  15 5.60977 3.69126   1
   2   0  16-4.76530 4.03650   1
  -2   0 -16 1.88160 2.86996   2
  -2   0 -17 15.5401 3.45080   2
  -2   0 -18 23.8538 3.85336   2
  -2   0 -19-0.41506 3.56303   2
  -2   0 -20-2.20412 3.53480   2
  -2   0 -21 3.67967 3.84377   2
  -2   1  21 8.45716 5.33687   1
   2  -1 -21 6.28033 3.81871   2
   2  -1 -20-3.46413 3.66724   2
  -2  -1  20 8.37622 5.05556   1
  -2   1  20 7.11117 4.63755   1
   2   1 -20-1.69609 3.79349   2
   2  -1 -19 12.6943 3.46899   2
   2   1 -19 7.00453 3.66389   2
  -2  -1  19 24.2810 4.98446   1
  -2   1  19 18.7640 5.00503   1
   2   1 -18 21.6455 3.85665   2
  -2  -1  18 23.9820 4.90691   1
   2  -1 -18 20.3848 3.87400   2
  -2   1  18 17.9109 4.59845   1
  -2  -1  17 12.8095 4.13293   1
   2  -1 -17 10.2515 3.24560   2
  -2   1  17 5.83557 3.84743   1
  -2   1  16 28.3844 4.43171   1
  -2  -1  16 24.9216 4.41260   1
  -2   1  16 22.5464 2.88120   3
   2  -1 -16 16.1878 3.46507   2
  -2  -1  15 26.7265 4.38817   1
  -2   1  15 40.9494 4.42403   1
  -2   1  15 27.7278 3.34868   3
   2  -1 -15 31.2689 3.77500   2
   2  -1 -14 10.7287 2.78057   2
  -2  -1  14 7.41071 3.49687   1
   2  -1 -14 13.0236 3.13585   1
  -2   1  14 12.5464 3.39418   1
  -2   1  14 11.7085 3.09674   2
  -2  -1  14 8.31573 1.61153   3
  -2   1  14 12.4796 2.32248   3
  -2   1  13 42.7666 4.10968   1
  -2  -1  13 37.9102 4.39460   1
   2  -1 -13 39.1252 4.05110   1
   2  -1 -13 35.0899 3.80580   2
  -2   1  13 40.1508 3.52458   3
   2   1 -13 33.8353 4.31213   1
  -2  -1  13 33.6891 3.05536   3
  -2   1  13 37.9335 4.02719   2
   2  -1 -12 162.494 12.2118   2
  -2  -1  12 174.032 12.4493   1
  -2   1  12 157.458 12.0774   3
  -2  -1  12 159.253 12.3768   2
   2   1 -12 175.878 12.3760   1
  -2  -1  12 144.327 11.8754   3
  -2   1  12 175.494 12.3524   1
   2  -1 -12 176.396 12.2961   1
  -2   1  12 175.096 12.3097   2
  -2   1  11 14.2744 2.88281   1
   2  -1 -11 19.1967 2.77680   1
  -2  -1  11 11.1438 1.48124   3
  -2   1  11 14.3906 2.14315   3
   2   1 -11 16.0853 3.10935   1
  -2   1  11 21.7954 2.70276   2
   2  -1 -11 12.8462 2.36719   2
  -2  -1  11 15.4456 2.95425   1
  -2  -1  11 16.5799 2.66920   2
  -2   1  10 2.95376 2.17875   2
  -2  -1  10 5.20045 2.37431   1
  -2   1  10 1.97030 2.41704   1
  -2   1  10 1.11634 1.71964   3
   2   1 -10 0.85809 2.40161   1
   2  -1 -10 2.58840 1.79764   2
  -2  -1  10 1.73984 0.86323   3
  -2  -1  10 4.29416 2.33103   2
   2  -1 -10 0.80749 2.36322   1
   2   1  -9-1.78130 2.25594   1
  -2  -1   9 0.51222 2.20839   1
  -2  -1   9 2.10074 2.04408   2
  -2   1   9 0.24254 2.04526   2
  -2   1   9 0.21564 1.70519   3
   2  -1  -9 0.34002 2.25824   1
  -2   1   9 2.61814 1.99348   1
   2  -1  -9 0.38174 1.67758   2
   2   1  -8 31.7032 3.43880   1
  -2  -1   8 34.3377 3.33619   2
  -2   1   8 37.6322 3.25434   2
  -2   1   8 30.6242 3.00210   3
  -2   1   8 32.3017 3.24273   1
   2  -1  -8 33.9832 3.06515   2
   2   1  -8 33.6114 3.13810   2
  -2  -1   8 31.7843 3.41234   1
   2  -1  -8 36.3363 3.42098   1
   2  -1  -7 22.8615 3.00434   1
  -2   1   7 24.9066 2.83166   2
  -2   1   7 22.6460 2.57488   3
  -2  -1   7 28.9630 3.01970   1
   2   1  -7 25.3479 2.65717   2
  -2  -1   7 24.7688 2.82243   2
   2  -1  -7 29.7813 2.65022   2
   2   1  -7 26.9791 2.95177   1
  -2   1   7 30.8588 2.76767   1
   2   1  -6 80.9911 7.01556   1
  -2   1   6 79.3765 6.82567   3
   2  -1  -6 90.1845 6.79735   3
  -2  -1   6 92.1240 6.97342   2
  -2   1   6 89.6982 6.85576   1
   2  -1  -6 97.2434 6.94124   1
  -2   1   6 96.1660 6.97313   2
   2  -1  -6 90.4424 6.88107   2
   2   1  -6 88.1846 6.91248   2
  -2  -1   6 97.3553 7.10021   1
  -2  -1   5 335.043 21.3040   1
  -2  -1   5 289.679 21.1863   2
   2   1  -5 281.220 21.2303   1
  -2   1   5 291.060 21.2031   2
  -2   1   5 287.835 21.1385   1
   2  -1  -5 266.902 21.1259   3
  -2   1   5 282.718 21.1500   3
   2  -1  -5 286.044 21.1680   2
   2   1  -5 286.722 21.1909   2
   2  -1  -5 288.579 21.1426   1
   2  -1  -4 155.707 10.2676   3
   2   1  -4 153.115 10.2887   2
  -2   1   4 125.959 10.2177   1
  -2  -1   4 125.952 10.2959   2
   2  -1  -4 137.725 10.2718   2
   2  -1  -4 132.694 10.2191   1
  -2   1   4 136.391 10.2617   3
  -2   1   4 142.403 10.3247   2
  -2  -1   4 134.936 10.3849   1
   2   1  -4 131.838 10.4136   1
   2  -1  -3 278.773 20.6977   2
   2  -1  -3 264.347 20.6233   1
  -2   1   3 282.296 20.6897   3
  -2   1   3 289.141 20.7489   2
  -2  -1   3 285.895 20.7391   1
   2   1  -3 249.601 20.7728   1
  -2  -1   3 254.792 20.6938   2
   2   1  -3 327.307 20.7106   2
  -2   1   3 281.880 20.6208   1
   2  -1  -3 302.255 20.7033   3
  -2   1   2 613.277 44.1681   3
   2   1  -2 638.440 44.1554   2
   2   1  -2 506.612 44.1844   1
  -2   1   2 735.456 44.2558   2
  -2   1   2 611.370 44.0873   1
   2  -1  -2 562.440 44.0851   1
   2  -1  -2 632.046 44.1736   3
  -2  -1   2 612.345 44.1607   2
  -2  -1   2 585.182 44.2322   1
   2  -1  -2 627.899 44.1829   2
  -2  -1   1 167.394 13.6823   1
  -2   1   1 199.625 13.6498   3
   2   1  -1 177.823 13.5675   2
  -2  -1   1 193.588 13.5994   2
   2   1  -1 147.250 13.6947   1
   2  -1  -1 195.260 13.6976   2
   2  -1  -1 215.440 13.7224   2
   2  -1  -1 179.445 13.6047   3
   2  -1   0 976.718 64.6498   2
  -2   1   0 818.023 64.6420   2
  -2  -1   0 857.648 64.6508   1
  -2   1   0 915.569 64.6247   3
   2   1   0 841.456 64.5831   2
   2   1   0 903.710 64.5940   2
   2   1   1 826.199 64.2912   2
  -2   1  -1 773.178 64.3383   2
  -2   1  -1 1016.18 64.2433   1
  -2  -1  -1 784.400 64.2913   2
   2  -1   1 878.177 64.3427   2
   2  -1   1 838.269 64.2450   1
   2  -1   2 699.232 50.7584   1
  -2   1  -2 761.004 50.7533   1
  -2  -1  -2 652.292 50.8258   1
  -2  -1  -2 670.349 50.7888   2
   2  -1   2 670.004 50.8298   3
   2  -1   2 693.779 50.8339   2
   2   1   2 655.574 50.7780   2
   2  -1   3 238.282 15.9881   1
  -2  -1  -3 196.583 15.9665   2
  -2  -1  -3 203.801 16.0453   1
   2   1   3 216.563 15.9752   2
  -2   1  -3 221.869 15.9719   1
   2  -1   3 224.838 16.0680   2
   2  -1   4 22.9322 2.16122   1
   2  -1   4 18.2299 2.32393   2
  -2  -1  -4 20.4547 2.03507   2
  -2  -1  -4 19.6826 2.40204   1
  -2  -1  -4 18.8858 2.09991   4
  -2   1  -4 20.9083 2.16743   1
   2   1   4 20.1530 2.01054   2
   2   1   5 40.3833 3.50466   2
  -2  -1  -5 35.4100 3.58607   1
  -2  -1  -5 48.1205 3.41188   2
   2  -1   5 31.9522 3.50746   2
   2  -1   5 42.5385 3.49279   1
  -2   1  -5 41.9999 3.50881   1
   2  -1   6 89.3456 6.95261   1
  -2  -1  -6 93.0100 6.84444   2
  -2  -1  -6 90.9838 6.96219   1
   2   1   6 80.9915 6.87332   2
  -2   1  -6 94.4796 6.96351   1
  -2  -1  -7 219.469 16.8751   1
  -2  -1  -7 246.240 16.8555   2
   2   1   7 214.518 16.8554   2
   2  -1   7 216.873 16.8952   1
  -2   1  -7 237.388 16.9097   1
  -2   1  -8 76.3590 6.13722   1
   2  -1   8 80.4867 6.18341   1
   2   1   8 71.3866 6.08553   2
  -2  -1  -8 78.3214 5.97339   2
  -2  -1  -8 74.5449 6.07134   1
   2  -1   9 6.08439 2.25216   1
   2   1   9 5.77893 2.07100   2
  -2  -1  -9 5.71114 1.63873   2
  -2   1  -9 7.36273 2.31356   1
  -2  -1 -10 45.0332 4.05259   2
   2  -1  10 48.0144 4.46703   1
   2   1  10 49.1765 4.28686   2
  -2   1 -10 48.5991 4.33860   1
  -2   1 -11 15.9986 2.58787   2
  -2   1 -11 12.0508 2.84065   1
   2  -1  11 19.7131 2.83383   1
   2   1  11 15.0103 2.87269   2
  -2  -1 -11 14.6512 2.37401   2
   2   1  12 34.4309 3.73557   2
  -2   1 -12 42.1038 3.66098   2
   2  -1  12 28.4405 3.92355   1
  -2   1 -12 35.7859 3.95583   1
  -2  -1 -12 32.6783 3.47210   2
  -2  -1 -13 56.0444 5.07654   2
  -2   1 -13 58.7597 5.19586   2
  -2   1 -13 70.9448 5.67238   1
   2   1  13 52.2959 5.34009   2
   2  -1  13 60.5929 5.56457   1
   2  -1  14 161.186 12.6289   1
  -2   1 -14 152.697 12.4318   2
   2   1  14 168.379 12.4683   2
  -2  -1 -14 163.307 12.3260   2
   2  -1  15 37.0390 4.85234   1
  -2   1 -15 39.2092 4.33299   2
  -2  -1 -15 38.2474 4.16033   2
  -2  -1 -16 14.7889 3.32724   2
  -2   1 -16 16.3827 3.45011   2
   2  -1  16 25.2780 4.31148   1
  -2  -1 -17 24.7094 3.77363   2
  -2   1 -17 22.7333 3.81681   2
   2  -1  17 36.2697 4.92591   1
  -2  -1 -18 0.46090 3.16742   2
   2  -1  18 2.10530 4.44578   1
  -2   1 -18 1.64647 3.37444   2
  -2  -1 -19 1.87027 3.54722   2
  -2   1 -19 7.11244 3.57030   2
   2   1  19-8.32657 4.65801   1
   2  -1  19-1.73408 4.80287   1
   2  -1  20 0.42955 5.14931   1
  -2   1 -20 0.82614 3.72960   2
   2   1  20 7.24301 5.19880   1
  -2  -1 -20 1.25655 3.57187   2
  -2  -1 -21-8.58247 4.08245   2
   2  -2 -21-0.21192 3.85742   2
   2  -2 -20 0.78425 3.64542   2
   2   2 -20-0.11583 3.87751   2
  -2  -2  20 2.34912 5.66506   1
  -2   2  20 0.74183 4.81324   1
   2  -2 -19 2.75497 3.37551   2
   2   2 -19 5.72994 3.70183   2
  -2   2  19 9.96508 4.49001   1
   2  -2 -18 2.49764 3.14481   2
   2   2 -18 3.30175 3.60654   2
  -2   2  18 2.98269 4.19234   1
  -2  -2  18 11.5616 5.01444   1
   2  -2 -17 11.2746 3.43715   2
   2   2 -17 12.1094 3.47573   2
  -2  -2  17 13.7290 4.74375   1
  -2   2  17 15.8831 4.33929   1
  -2   2  16 45.6401 5.14285   1
  -2  -2  16 45.0110 5.55782   1
  -2   2  16 45.9799 4.41625   3
   2  -2 -16 41.6687 4.53956   2
   2   2 -16 41.2440 4.53619   2
  -2   2  15 112.727 8.88635   3
   2  -2 -15 107.357 8.93810   2
  -2   2  15 118.779 9.27571   1
  -2  -2  15 117.903 9.58809   1
   2   2 -15 106.670 9.02404   2
  -2  -2  14 36.4425 4.45521   1
   2  -2 -14 34.6214 3.79684   1
   2   2 -14 26.3325 3.66849   2
  -2   2  14 37.2837 4.10693   2
  -2   2  14 28.5159 4.09381   1
  -2  -2  14 28.3636 2.41059   3
  -2   2  14 28.9653 3.52056   3
   2  -2 -14 27.8790 3.62704   2
  -2   2  13 40.1629 3.93562   3
   2   2 -13 38.3860 4.10663   2
  -2  -2  13 45.5059 4.95646   1
  -2  -2  13 34.5810 2.99925   3
  -2   2  13 41.9915 4.24762   2
  -2  -2  13 44.1940 4.34167   2
   2  -2 -13 45.5645 4.11677   1
   2  -2 -13 43.9710 3.97733   2
  -2   2  13 45.3629 4.39911   1
   2   2 -12 73.3848 6.26651   2
  -2   2  12 87.4586 6.30709   3
   2  -2 -12 87.2917 6.30562   1
  -2  -2  12 68.8916 5.63634   3
  -2  -2  12 80.0964 6.45439   2
  -2  -2  12 93.2048 6.82244   1
  -2   2  12 82.6429 6.46329   2
   2  -2 -12 77.4858 6.27009   2
  -2   2  12 90.9336 6.61391   1
   2   2 -11 10.4876 2.33345   2
  -2   2  11 9.87238 2.87266   1
  -2  -2  11 10.6615 1.14061   3
  -2   2  11 13.0448 2.62186   2
   2  -2 -11 11.1134 2.49804   1
   2  -2 -11 11.8569 2.24462   2
  -2   2  11 9.99462 2.39749   3
  -2  -2  11 17.5252 3.26876   1
  -2  -2  11 12.7732 2.75758   2
   2  -2 -10 3.24268 2.07387   1
  -2  -2  10 2.35122 2.23511   2
  -2  -2  10 3.79426 0.74422   3
   2   2 -10 6.23944 2.07843   2
  -2  -2  10 7.02891 2.97072   1
  -2   2  10 3.76876 2.43418   1
  -2   2  10 6.03049 2.22250   2
  -2   2  10 4.86100 2.11451   3
   2  -2 -10 3.33913 1.91739   2
  -2   2   9 19.4427 2.58845   1
   2   2  -9 12.4124 2.30338   2
  -2  -2   9 15.9297 2.91741   1
  -2  -2   9 13.1093 1.23396   3
   2  -2  -9 17.6582 2.12260   2
  -2   2   9 17.7537 2.34330   3
  -2  -2   9 12.5730 2.41513   2
   2  -2  -9 17.6029 2.45527   1
  -2   2   9 13.8577 2.35308   2
   2  -2  -8 32.1897 3.03757   1
  -2   2   8 32.4884 3.01026   3
  -2   2   8 34.6656 3.06743   2
   2   2  -8 30.9140 2.93070   2
   2  -2  -8 33.2686 2.86581   2
  -2   2   8 42.0772 3.30236   1
  -2  -2   8 32.9994 3.12450   2
  -2  -2   8 26.9887 2.29753   3
  -2  -2   8 28.6649 3.50740   1
   2   2  -7-0.38426 1.68156   2
  -2   2   7 2.08504 1.78888   1
   2  -2  -7 0.51651 1.62678   3
  -2  -2   7-0.06152 0.58043   3
   2  -2  -7 0.94779 1.70368   1
  -2  -2   7-0.05730 2.11969   1
  -2   2   7 1.85541 1.84154   3
  -2   2   7 0.78729 1.93622   2
  -2  -2   7 0.60575 1.79426   2
   2  -2  -7-1.84745 1.52996   2
  -2  -2   6 55.1042 4.57930   2
  -2   2   6 59.7513 4.64062   3
   2  -2  -6 55.2780 4.56456   3
   2   2  -6 61.0017 4.54862   2
  -2   2   6 62.6641 4.57315   1
   2  -2  -6 58.9337 4.51040   1
   2  -2  -6 56.0008 4.46173   2
  -2  -2   6 50.1639 4.12558   3
  -2   2   6 66.2770 4.64470   2
   2   2  -5 184.214 14.2663   3
   2  -2  -5 200.689 14.3952   2
  -2   2   5 219.863 14.4595   2
  -2  -2   5 188.767 14.4261   2
  -2   2   5 240.822 14.4534   1
   2   2  -5 204.123 14.4033   2
   2  -2  -5 180.003 14.4272   3
   2  -2  -5 187.396 14.3675   1
  -2   2   5 202.467 14.4822   3
  -2  -2   5 182.099 14.2548   3
   2  -2  -4 93.3816 7.08617   2
   2  -2  -4 93.9118 7.07781   1
   2  -2  -4 97.2673 7.16484   3
  -2  -2   4 84.1145 7.09371   2
  -2   2   4 105.428 7.21271   2
   2   2  -4 81.9003 6.94939   3
  -2   2   4 97.4335 7.04170   1
   2   2  -4 101.440 7.05654   2
  -2   2   4 97.2695 7.22359   3
   2  -2  -3 202.788 14.5594   2
   2   2  -3 210.900 14.5314   2
  -2   2   3 208.951 14.6477   3
   2  -2  -3 198.113 14.5151   1
  -2   2   3 184.086 14.4875   1
   2  -2  -3 204.550 14.6243   3
  -2  -2   3 181.583 14.5161   2
   2   2  -3 194.763 14.4892   3
   2  -2  -2 480.900 33.4659   2
   2  -2  -2 456.886 33.4387   2
  -2  -2   2 425.875 33.3823   2
  -2   2   2 498.949 33.5041   3
   2   2  -2 491.565 33.3919   2
  -2   2   2 446.810 33.3580   1
   2   2  -2 449.228 33.3864   3
  -2   2   2 430.175 33.3746   1
   2  -2  -1 31.6866 2.83687   2
   2   2  -1 30.8289 2.32058   2
   2   2  -1 31.4409 2.52717   3
  -2   2   1 25.6940 2.39980   1
  -2  -2   1 28.4250 2.42505   2
  -2   2   1 23.4723 2.48430   1
   2   2   0-1.05941 1.46873   3
   2  -2   0-2.05084 1.71933   2
  -2   2   0 0.75862 1.57707   2
   2  -2   0-0.47494 1.33047   1
  -2   2   0 0.14115 1.25475   1
   2   2   0 0.55223 0.81548   2
   2   2   1 20.5340 1.60524   2
   2  -2   1 20.5717 2.13057   3
   2  -2   1 17.7220 2.14333   2
   2   2   1 10.8707 1.49676   2
  -2   2  -1 22.3457 2.10039   2
   2   2   1 19.9144 2.17896   3
   2  -2   1 16.9543 1.88572   1
  -2   2  -1 20.8187 1.93572   1
  -2   2  -2 2.75303 1.39076   1
   2  -2   2 4.39101 1.67101   2
   2   2   2 3.09022 0.87330   2
  -2  -2  -2 2.71167 0.95381   2
  -2   2  -2 5.54424 1.80325   3
   2  -2   2 2.57467 1.65032   3
  -2   2  -2 3.88168 1.62686   2
   2  -2   2 3.28844 1.36478   1
  -2   2  -3 43.1581 3.99642   1
  -2  -2  -3 51.5213 3.86074   2
   2  -2   3 47.0057 4.05716   1
   2  -2   3 55.4862 4.13939   3
   2   2   3 49.9077 3.76273   2
  -2   2  -3 46.8904 4.16502   2
   2  -2   3 49.2490 4.08311   2
  -2  -2  -4 71.0393 5.21479   2
   2  -2   4 77.3795 5.53301   3
   2   2   4 55.9204 5.43042   1
   2  -2   4 69.1066 5.45430   1
   2  -2   4 67.5186 5.43765   2
   2   2   4 67.6878 5.15755   2
  -2   2  -4 69.9720 5.37264   1
  -2   2  -4 69.4424 5.46927   2
  -2   2  -5 472.203 35.2779   1
  -2   2  -5 484.633 35.3407   2
   2   2   5 484.325 35.3550   1
   2  -2   5 497.948 35.3299   1
  -2  -2  -5 479.256 35.2297   2
   2  -2   5 507.541 35.3615   3
   2   2   5 464.127 35.2210   2
   2  -2   5 474.209 35.3238   2
   2   2   6 206.491 14.5283   1
   2  -2   6 194.756 14.5040   1
   2  -2   6 200.923 14.4800   3
  -2   2  -6 182.171 14.4400   1
  -2  -2  -6 204.579 14.3649   2
   2   2   6 182.675 14.3693   2
   2  -2   6 183.599 14.4913   2
  -2   2  -6 195.220 14.5088   2
   2   2   7 147.470 10.9006   1
   2  -2   7 127.997 10.8584   2
  -2   2  -7 141.194 10.8487   1
   2  -2   7 169.279 10.8918   3
  -2  -2  -7 144.008 10.7101   2
   2   2   7 132.183 10.7415   2
   2  -2   7 134.234 10.8901   1
  -2   2  -7 152.392 10.8963   2
   2  -2   8 43.2057 3.83016   1
   2   2   8 41.5866 3.78752   1
   2   2   8 36.4201 3.54049   2
   2  -2   8 45.1010 3.63528   3
  -2   2  -8 35.9751 3.72803   1
   2  -2   8 34.1705 3.70560   2
  -2   2  -8 36.4040 3.61793   2
  -2  -2  -8 39.1051 3.35150   2
   2   2   9 74.5274 6.10513   2
  -2   2  -9 70.2843 6.19157   2
   2  -2   9 86.5849 6.39405   1
   2   2   9 83.8544 6.34897   1
  -2  -2  -9 78.1125 5.98991   2
  -2   2  -9 72.1639 6.20408   1
   2  -2   9 70.0588 6.21321   2
   2  -2  10 22.3254 3.17088   1
  -2   2 -10 19.4423 2.62187   2
  -2   2 -10 18.1048 3.05783   1
   2   2  10 21.9244 3.19764   1
   2   2  10 20.7688 2.67859   2
  -2  -2 -10 15.2860 2.28664   2
   2  -2  10 13.7136 2.80410   2
   2  -2  11 30.0249 3.76042   2
   2  -2  11 34.4037 3.84780   1
   2   2  11 34.3661 4.02806   1
   2   2  11 32.7297 3.40614   2
  -2  -2 -11 30.7795 3.11783   2
  -2  -2 -11 37.8644 3.60164   1
  -2   2 -11 29.6107 3.76724   1
  -2   2 -11 28.4090 3.48042   2
  -2   2 -12 16.2470 3.25136   1
  -2  -2 -12 19.3126 2.63672   2
   2  -2  12 13.1942 3.33227   2
   2   2  12 19.1504 3.02718   2
   2   2  12 21.1261 3.84284   1
   2  -2  12 19.3772 3.38620   1
  -2  -2 -12 18.0871 3.09970   1
  -2   2 -12 16.1733 2.80498   2
  -2  -2 -13 1.30857 2.46876   2
  -2   2 -13 4.09517 2.67190   2
   2   2  13 7.23639 3.80424   1
   2   2  13 0.43840 2.74401   2
   2  -2  13 1.95466 3.37638   1
  -2   2 -13 2.69641 3.06852   1
   2  -2  14 17.9985 3.82374   1
  -2  -2 -14 11.6715 2.71591   2
   2   2  14 21.0812 4.17814   1
   2   2  14 16.8036 3.27822   2
  -2  -2 -15 5.74872 2.67376   2
   2  -2  15 6.30034 3.79210   1
   2   2  15-2.48609 4.21652   1
  -2  -2 -16 13.9911 3.33556   2
   2  -2  16 14.4447 4.39319   1
   2   2  16 26.2810 4.94640   1
  -2  -2 -17 5.43972 2.86880   2
   2   2  17 3.75679 4.78449   1
   2  -2  17 2.33433 4.29583   1
   2  -2  18 1.56890 4.63834   1
  -2  -2 -18 2.96134 3.19713   2
   2   2  18 1.21435 5.03519   1
   2  -2  19 3.36522 5.05765   1
  -2  -2 -19 2.97896 3.31478   2
   2  -2  20 30.7458 5.98860   1
   2   2  20 42.5749 6.15730   1
  -2  -2 -20 27.5186 4.76358   2
  -2  -2 -21 11.4402 4.13257   2
   2  -3 -21-1.32500 3.69277   2
   2  -3 -20 2.74893 3.75918   2
  -2   3  20 2.98568 5.02263   1
   2  -3 -19 9.58274 3.67990   2
   2   3 -19 8.89685 3.89303   2
  -2   3  19 4.25847 4.90738   1
   2   3 -18 23.4195 4.13993   2
  -2   3  18 36.0243 5.00550   1
   2  -3 -18 19.9273 3.83235   2
   2  -3 -17 2.57525 3.14629   2
   2   3 -17 4.64183 3.59796   2
  -2   3  17 11.6527 4.42934   1
   2   3 -16 7.35899 3.41848   2
  -2   3  16 9.98657 4.37119   1
   2  -3 -16 5.48052 2.79834   2
  -2   3  15-2.05768 3.88873   1
   2  -3 -15-1.70978 2.57680   2
   2   3 -15-0.26567 2.97107   2
  -2   3  14 5.03345 2.92838   3
   2  -3 -14 4.55707 2.76827   2
   2   3 -14 4.25585 2.87575   2
  -2   3  14-0.31713 3.75940   1
  -2   3  14 2.53194 3.19870   2
   2   3 -13 20.0301 3.14550   2
  -2   3  13 26.3019 3.32125   3
  -2   3  13 21.4848 3.84266   1
   2  -3 -13 23.1115 3.34042   1
  -2  -3  13 17.2493 1.71422   3
  -2   3  13 20.3011 3.38270   2
   2  -3 -13 21.2370 3.09458   2
   2  -3 -12 16.6326 2.60394   2
  -2   3  12 15.4604 3.01978   3
  -2  -3  12 11.8903 1.36541   3
   2   3 -12 7.79231 2.67244   2
   2  -3 -12 16.1834 3.05079   1
  -2   3  12 14.1624 3.34342   1
  -2   3  12 17.7507 3.07205   2
  -2  -3  12 11.6335 2.93529   2
  -2   3  11 102.535 8.06906   3
   2   3 -11 99.6543 8.18567   1
  -2   3  11 123.824 8.24503   1
  -2   3  11 118.343 8.01799   2
   2  -3 -11 111.863 7.99465   1
  -2  -3  11 96.2867 7.98878   2
   2  -3 -11 100.878 7.83000   2
  -2  -3  11 94.0704 7.41509   3
   2   3 -11 85.8498 7.87505   2
   2  -3 -10 12.6173 2.67607   1
  -2   3  10 13.8882 2.52082   2
   2  -3 -10 13.8031 2.21023   2
  -2   3  10 19.2669 3.06917   1
  -2   3  10 9.77315 2.73071   3
   2   3 -10 9.43228 3.03971   1
   2   3 -10 9.10116 2.40665   2
  -2  -3  10 11.9293 2.54801   2
  -2  -3  10 11.7026 1.39880   3
   2   3  -9 103.813 7.66350   1
  -2  -3   9 88.5979 7.01558   3
  -2   3   9 107.143 7.48161   2
  -2  -3   9 81.1837 7.41401   2
  -2   3   9 111.530 7.56178   1
   2  -3  -9 100.245 7.45999   1
   2  -3  -9 90.1640 7.28125   2
  -2   3   9 103.091 7.58037   3
   2   3  -9 87.6772 7.33738   2
   2   3  -8 11.7200 2.20030   2
  -2   3   8 22.5220 2.83793   1
  -2  -3   8 12.5862 1.55794   3
  -2   3   8 14.2353 2.65747   3
   2  -3  -8 15.6126 2.42393   1
  -2  -3   8 12.3098 2.36331   2
   2   3  -8 19.5531 3.03225   1
   2  -3  -8 12.8529 2.01530   2
  -2   3   8 19.3672 2.41218   2
   2   3  -7 1.96666 1.72039   2
   2  -3  -7 0.84835 2.05226   3
   2   3  -7 0.11934 2.60500   1
  -2   3   7-0.16482 1.95296   1
  -2  -3   7 2.52272 1.09121   3
  -2  -3   7 3.42430 1.92977   2
   2  -3  -7 2.06133 1.94243   1
   2  -3  -7 0.71264 1.55674   2
  -2   3   7 5.45901 2.20975   3
  -2   3   7 4.75677 2.06865   2
   2   3  -6 13.0638 1.71835   3
   2   3  -6 14.0593 2.79784   1
  -2  -3   6 12.6849 1.59642   3
   2  -3  -6 15.3034 2.20220   1
   2  -3  -6 12.1875 2.22611   3
  -2   3   6 15.3386 2.47625   3
   2   3  -6 15.7114 1.93061   2
  -2   3   6 18.5465 2.23154   2
   2  -3  -6 13.0822 1.81873   2
  -2  -3   6 13.6337 2.09451   2
  -2   3   6 15.3040 2.13306   1
   2   3  -5 108.848 7.62401   1
   2  -3  -5 85.9306 7.11180   2
  -2   3   5 125.238 7.41125   2
   2   3  -5 88.6873 7.07530   3
  -2  -3   5 88.8768 7.16362   2
  -2   3   5 93.5180 7.41870   3
   2  -3  -5 87.1445 7.29729   3
  -2   3   5 110.144 7.18746   1
   2   3  -5 88.5267 7.13847   2
  -2  -3   5 89.9181 7.06886   3
  -2  -3   4 125.818 9.82444   3
   2   3  -4 130.423 10.1904   1
  -2   3   4 134.651 10.0658   3
  -2   3   4 135.373 9.97355   1
   2  -3  -4 134.178 9.86059   2
   2  -3  -4 148.280 9.97429   2
   2  -3  -4 125.242 10.0089   3
  -2   3   4 135.682 9.87463   1
   2   3  -4 140.724 9.85689   2
  -2  -3   4 127.666 9.86403   2
   2   3  -4 114.103 9.88398   3
   2   3  -3 3.41833 1.20018   2
  -2  -3   3 0.67507 1.40642   3
   2   3  -3 7.83123 2.56364   1
  -2   3   3 1.87518 2.01821   3
   2   3  -3 5.67788 1.60607   3
   2  -3  -3 4.74288 1.75325   2
  -2   3   3 2.18144 1.86073   1
   2  -3  -3 2.26309 1.33207   2
  -2  -3   3 2.88247 1.24631   2
  -2   3   3 2.07212 1.45680   1
  -2   3   2 142.215 11.3667   1
   2  -3  -2 167.792 11.3797   2
   2  -3  -2 173.435 11.3369   2
  -2  -3   2 148.109 11.2356   2
   2   3  -2 143.593 11.3531   3
   2   3  -2 148.686 11.5658   1
   2   3  -2 140.243 11.2258   2
  -2   3   2 159.165 11.3084   1
   2  -3  -1 475.500 35.2246   3
  -2   3   1 467.391 35.1330   1
  -2  -3   1 510.116 35.3144   1
  -2  -3   1 469.963 35.0280   2
   2   3  -1 477.272 35.1590   3
   2  -3  -1 531.296 35.1528   2
   2   3  -1 479.345 35.3028   1
   2   3  -1 467.113 35.0142   2
  -2  -3   0 26.3554 3.04193   1
   2  -3   0 25.5707 2.37523   2
  -2   3   0 24.4272 2.43341   2
   2   3   0 25.3430 2.62370   3
   2   3   0 20.6616 1.86494   2
   2   3   0 22.0992 2.97598   1
  -2   3   0 25.5948 2.46469   1
   2  -3   0 25.5114 2.46301   1
   2   3   0 23.3263 1.81118   2
  -2   3   0 23.4753 2.77163   3
   2  -3   0 29.6567 2.66520   3
   2  -3   1 64.4012 5.27020   1
  -2   3  -1 60.8993 5.18938   1
  -2   3  -1 67.5765 5.21294   2
   2   3   1 67.1522 5.33009   3
   2  -3   1 67.1188 5.15806   2
   2   3   1 55.8823 5.59036   1
  -2  -3  -1 66.4956 5.50031   1
   2  -3   1 66.5196 5.35611   3
  -2   3  -1 69.8358 5.38610   3
   2  -3   2 3.26407 1.83572   3
  -2   3  -2 7.15168 1.84474   1
   2   3   2 6.01761 2.77634   1
  -2   3  -2 5.99249 1.84120   2
   2   3   2 7.97033 2.00149   1
   2  -3   2 2.68919 1.77933   1
   2  -3   2 2.20864 1.57703   2
  -2   3  -2 6.00543 2.07849   3
   2   3   2 5.00328 1.97256   3
  -2   3  -3 21.4581 2.54758   1
   2   3   3 23.8715 2.82396   3
   2  -3   3 25.0951 2.49052   2
  -2   3  -3 23.7469 2.68529   3
   2  -3   3 26.0320 2.76853   1
  -2   3  -3 23.4065 2.60555   2
   2  -3   3 22.1692 2.68624   3
   2   3   3 22.8193 3.02289   1
   2   3   3 23.7987 2.69132   1
   2  -3   4 91.6674 5.36918   3
  -2   3  -4 79.3475 5.27274   1
  -2  -3  -4 61.1923 4.82732   2
  -2   3  -4 85.7699 5.27987   2
   2   3   4 51.9381 4.79747   2
   2   3   4 88.1877 5.48077   1
   2  -3   4 72.2597 5.31760   1
   2   3   4 84.4172 5.59456   1
   2  -3   4 77.3547 5.21914   2
  -2   3  -4 84.3070 5.35795   3
   2   3   4 80.3154 5.45194   3
   2  -3   5 1.42039 1.78330   2
   2  -3   5 0.34796 1.87695   3
  -2   3  -5-0.67562 1.80630   2
   2   3   5 1.56883 0.93033   2
   2   3   5 3.60991 2.05474   1
  -2   3  -5-2.81525 1.86544   1
  -2  -3  -5 2.08367 0.97610   2
   2  -3   5 0.49073 2.12248   1
   2   3   5 3.54305 2.41328   1
  -2   3  -6 37.5704 3.14853   2
  -2  -3  -6 33.1561 2.60488   2
   2   3   6 26.9132 2.96937   4
   2  -3   6 33.5535 3.11297   3
   2   3   6 35.0429 3.25164   1
   2  -3   6 26.1044 3.23108   1
   2   3   6 28.4151 2.60859   2
   2  -3   6 26.5145 3.07070   2
  -2   3  -6 27.9885 3.09852   1
   2  -3   7 5.38818 2.06029   2
  -2   3  -7 3.10214 2.08606   1
  -2  -3  -7 6.19770 2.41572   1
   2  -3   7 1.66079 1.97216   3
   2  -3   7 1.13928 2.51049   1
   2   3   7 5.09277 1.35554   2
  -2  -3  -7 4.49825 1.27409   2
  -2   3  -7 2.25677 1.92502   2
   2  -3   8 3.21269 2.78594   1
  -2   3  -8-0.30520 2.09665   2
  -2  -3  -8 3.41876 1.44122   2
   2   3   8 4.96490 2.52811   3
   2   3   8 2.36484 1.63806   2
  -2   3  -8 5.16859 2.33513   1
   2  -3   8 4.77416 2.18185   2
  -2  -3  -8 5.06514 2.48639   1
   2   3   8 5.80001 2.45779   1
   2  -3   8 2.71124 2.08506   3
   2   3   9 0.82704 2.70977   1
  -2  -3  -9 1.86936 1.52349   2
  -2   3  -9 2.07557 2.22773   2
   2  -3   9 0.45550 2.42177   2
   2   3   9 0.11097 1.75188   2
   2   3   9 0.14075 2.47520   3
  -2   3  -9-2.06822 2.49577   1
  -2  -3  -9 0.54613 2.48639   1
   2  -3   9 2.73950 2.36486   3
   2  -3   9-0.82847 2.80114   1
   2  -3  10 13.4072 2.94276   2
   2  -3  10 18.1082 3.47563   1
   2   3  10 18.5264 3.08205   1
  -2  -3 -10 17.7304 2.21299   2
  -2   3 -10 15.0918 2.93766   2
  -2  -3 -10 18.2088 3.04240   1
   2   3  10 18.5939 2.51928   2
   2   3  10 13.9165 3.10286   3
  -2   3 -10 15.3810 3.09957   1
   2  -3  10 19.1271 2.81087   3
   2  -3  11 0.76661 2.80658   2
  -2  -3 -11 3.18169 1.89119   2
  -2   3 -11 3.79641 2.53125   2
   2  -3  11 4.57463 2.55802   3
   2   3  11 1.04080 2.22265   2
   2   3  11 4.62305 3.38207   1
  -2   3 -11 2.80262 3.07098   1
  -2  -3 -11 2.65511 2.74601   1
   2  -3  11-0.08538 3.17524   1
   2   3  11 3.55225 2.97571   3
  -2  -3 -12 6.58576 2.28536   2
   2   3  12 13.6441 3.99856   1
  -2   3 -12 12.3201 2.98200   2
   2   3  12 13.6994 2.76969   2
   2  -3  12 9.90660 3.64922   1
   2  -3  12 13.2630 2.80646   3
  -2   3 -12 6.17969 3.34174   1
   2  -3  13 13.6211 3.95986   1
  -2  -3 -13 14.9387 2.63369   2
  -2   3 -13 16.1427 3.35214   2
   2   3  13 16.1451 4.23799   1
   2  -3  13 23.8006 3.32659   3
   2   3  13 16.6656 3.06213   2
  -2  -3 -14 13.1009 2.64817   2
   2   3  14 19.1790 4.40997   1
   2   3  14 18.1165 3.44618   2
  -2   3 -14 14.9988 3.43569   2
   2  -3  14 8.97836 4.05029   1
   2  -3  14 17.7295 3.10705   3
   2  -3  15 2.47546 4.11149   1
  -2  -3 -15 1.17007 2.50044   2
  -2   3 -15 3.59476 3.31457   2
   2   3  15 13.9140 4.44585   1
   2  -3  15 3.72125 3.04895   3
   2   3  15 3.84172 3.19308   2
   2   3  16 8.57430 4.78169   1
   2  -3  16 9.55962 4.46619   1
  -2  -3 -16 10.3499 2.91869   2
   2  -3  16 9.40934 3.36506   3
  -2   3 -16 8.49244 3.62006   2
  -2  -3 -17 1.46946 2.91629   2
  -2   3 -17-4.46599 3.82612   2
   2   3  17 0.11548 4.97947   1
   2  -3  17 0.64895 4.60573   1
  -2  -3 -18 18.9437 3.59650   2
   2   3  18 19.1944 5.70216   1
   2  -3  18 20.2383 5.48957   1
  -2   3 -18 23.8673 4.48661   2
  -2  -3 -19 2.41613 3.40934   2
  -2   3 -19 2.21447 4.18220   2
   2  -3  19 1.81405 5.34814   1
  -2   4  19 12.6141 5.21212   1
   2   4 -18 29.5259 4.50928   2
  -2   4  18 34.6199 5.56245   1
  -2  -4  18 32.7852 6.33634   1
   2   4 -17 10.1336 3.61272   2
  -2   4  17 10.4476 4.62593   1
   2  -4 -17 3.06965 2.97542   2
  -2  -4  17 0.30747 5.42754   1
   2  -4 -16 3.50661 2.84631   2
   2   4 -16 5.84555 3.26450   2
  -2   4  16-2.71340 4.51671   1
  -2  -4  16 1.60180 5.24000   1
   2  -4 -15 1.02698 2.61121   2
   2   4 -15 1.73969 3.14253   2
  -2   4  15 8.86964 4.16550   1
  -2  -4  15 1.23737 4.80942   1
   2  -4 -14 2.57376 2.54683   2
   2   4 -14-3.76982 3.13197   2
  -2   4  14 3.98556 3.91607   1
  -2  -4  14 7.59136 4.53338   1
   2  -4 -13 19.6393 2.91394   2
  -2   4  13 21.7668 4.11075   1
  -2   4  13 25.1546 3.60070   2
   2   4 -13 15.6500 3.17022   2
  -2  -4  13 22.6988 4.45698   1
   2  -4 -12 5.75818 2.49070   2
   2   4 -12 4.69138 2.74554   2
  -2  -4  12 6.74379 1.40431   3
  -2   4  12 9.51705 3.09901   2
  -2  -4  12 3.23997 3.89285   1
  -2   4  12 7.44618 3.59791   1
   2  -4 -12 5.23540 3.18695   1
  -2  -4  11 15.0329 1.98427   3
  -2  -4  11 11.8042 3.95122   1
   2  -4 -11 19.9674 2.56713   2
  -2   4  11 16.6506 3.76367   1
   2   4 -11 15.8143 2.91323   2
   2  -4 -11 18.7866 3.15639   1
  -2  -4  11 18.1892 3.05340   2
  -2   4  11 19.9361 3.08279   2
  -2  -4  10 158.217 13.5516   3
  -2  -4  10 178.639 14.2724   1
  -2   4  10 190.859 14.1190   3
  -2  -4  10 187.612 13.9000   2
   2  -4 -10 197.410 13.9436   1
  -2   4  10 213.669 13.8690   2
   2   4 -10 163.973 13.8269   2
  -2   4  10 218.262 14.2207   4
   2  -4 -10 174.898 13.7112   2
  -2   4  10 227.823 14.0639   1
  -2  -4   9 5.02734 1.57303   3
  -2   4   9 8.86543 2.88602   1
   2   4  -9 6.71931 2.26693   2
  -2  -4   9 2.75899 3.60190   1
   2  -4  -9 1.08750 2.87230   1
  -2   4   9 5.51019 2.92948   3
   2   4  -9 6.30707 3.23249   1
  -2   4   9 9.25920 2.73786   4
  -2  -4   9 5.00034 2.36556   2
  -2   4   9 4.86862 2.34485   2
   2  -4  -9 4.61360 1.88927   2
  -2  -4   8 203.107 16.9149   3
   2   4  -8 246.346 17.3305   1
  -2   4   8 304.856 17.2139   2
  -2  -4   8 228.968 17.1026   2
  -2   4   8 271.859 17.1785   1
   2  -4  -8 208.209 16.9491   2
   2   4  -8 217.039 17.0737   2
  -2  -4   8 243.327 17.5360   1
  -2   4   8 216.201 17.2639   3
  -2   4   7 14.0218 2.83367   1
   2   4  -7 12.7613 1.99391   3
   2   4  -7 12.9744 2.14194   2
  -2   4   7 14.0403 2.62903   1
  -2  -4   7 16.7751 1.93888   3
  -2  -4   7 18.9790 3.67196   1
  -2  -4   7 9.19982 2.25345   2
   2  -4  -7 14.0597 2.66096   3
   2   4  -7 12.2942 3.10468   1
   2  -4  -7 13.4594 2.34910   2
   2  -4  -7 11.5680 1.94401   2
  -2   4   7 12.8001 2.90201   3
  -2  -4   6 11.0729 1.91160   3
   2  -4  -6 13.3360 2.15693   2
  -2   4   6 13.6956 2.81944   3
  -2  -4   6 10.5733 3.06644   1
   2  -4  -6 13.8174 2.57674   3
   2   4  -6 13.7085 2.07018   3
  -2   4   6 14.8905 2.30677   1
  -2   4   6 15.1374 2.57437   1
   2   4  -6 11.3533 3.18877   1
   2   4  -6 11.1100 1.99873   2
  -2  -4   6 10.2637 2.05559   2
   2  -4  -6 12.5233 1.81769   2
  -2  -4   5 103.628 8.11439   1
   2  -4  -5 86.7944 7.81186   3
   2  -4  -5 119.017 7.62405   2
  -2   4   5 114.166 7.64562   1
  -2   4   5 103.858 7.93068   3
  -2  -4   5 92.4744 7.54622   3
  -2   4   5 106.981 7.82251   1
   2   4  -5 108.099 8.16381   1
   2   4  -5 96.7918 7.59945   3
  -2  -4   5 94.6391 7.55066   2
   2   4  -5 98.9380 7.50772   2
   2  -4  -5 84.0614 7.46553   2
  -2  -4   4 41.2470 3.84643   1
   2  -4  -4 31.8292 2.76715   2
  -2  -4   4 22.5395 2.51785   2
  -2   4   4 33.0218 2.94003   1
   2  -4  -4 27.6781 2.56487   2
   2   4  -4 29.7871 2.94175   3
  -2   4   4 26.5481 3.22814   1
  -2   4   4 29.1890 3.38826   3
  -2  -4   4 23.3470 2.72133   3
   2   4  -4 28.6997 3.51713   1
   2   4  -4 26.7303 2.55431   2
  -2   4   3 41.7493 3.67187   1
  -2   4   3 39.5658 3.93101   1
  -2  -4   3 47.0275 4.41675   1
  -2  -4   3 40.5037 3.31965   2
  -2  -4   3 35.0835 3.55299   3
   2   4  -3 35.8933 3.69408   3
   2  -4  -3 42.7833 3.40692   2
   2   4  -3 45.4955 4.34873   1
   2   4  -3 37.2560 3.29381   2
   2  -4  -3 50.3650 3.56347   2
   2   4  -2 5.47312 2.66672   1
  -2  -4   2 4.51726 2.94013   1
   2   4  -2 4.05834 1.03637   2
   2  -4  -2 5.77631 1.60640   2
  -2   4   2 8.34999 2.18501   1
   2  -4  -2 6.59269 2.28862   3
   2  -4  -2 3.99152 1.55084   2
  -2   4   2 6.37653 1.92895   1
  -2  -4   2 4.39146 1.09562   2
   2   4  -2 5.69497 1.98307   3
  -2   4   1 65.1463 6.07484   1
   2  -4  -1 75.6979 6.11664   3
   2   4  -1 76.9793 6.08492   3
  -2   4   1 84.2969 5.98412   1
   2  -4  -1 94.9348 5.98296   2
   2  -4  -1 80.1894 5.80572   2
  -2   4   1 80.0036 6.16406   3
   2   4  -1 68.5290 6.38604   1
  -2  -4   1 79.5480 6.40316   1
   2   4  -1 69.4306 5.57176   2
   2  -4   0 8.17154 1.66494   2
  -2   4   0 9.32219 2.41728   3
   2   4   0 8.88587 2.32902   3
   2  -4   0 10.6558 2.19895   3
  -2   4   0 11.2460 1.89011   2
   2  -4   0 7.85498 2.23920   1
   2   4   0 7.31003 2.87175   1
  -2  -4   0 3.67607 2.67137   1
  -2   4   0 9.34076 2.13032   1
  -2   4  -1 11.2571 2.30801   1
   2   4   1 9.33229 2.85216   1
   2  -4   1 13.3019 2.46173   1
   2   4   1 11.7103 2.47054   3
  -2   4  -1 13.9051 2.09927   2
  -2  -4  -1 12.1597 2.81086   1
  -2   4  -1 12.3974 2.48951   3
   2  -4   1 14.4220 1.82315   2
   2  -4   1 11.4563 2.30766   3
   2  -4   2 15.2085 2.05994   2
  -2   4  -2 17.9552 2.32999   2
  -2   4  -2 15.6240 2.65006   1
   2  -4   2 16.8139 2.53762   3
  -2   4  -2 20.1935 2.84667   3
   2   4   2 17.9789 2.82190   3
   2   4   2 15.3414 3.18410   1
   2   4   2 22.4199 2.77748   1
   2  -4   2 14.6399 2.64319   1
   2  -4   3 18.1735 2.23844   2
   2   4   3 19.4591 3.33665   1
  -2   4  -3 16.1469 2.59136   1
   2  -4   3 21.9447 2.66563   3
  -2   4  -3 22.0281 2.51157   2
  -2   4  -3 18.5757 2.84162   3
   2   4   3 16.6290 2.92017   3
   2  -4   3 18.0291 2.86428   1
   2   4   3 20.5837 2.79836   1
  -2   4  -4 176.725 13.6660   3
  -2   4  -4 190.235 13.6291   2
   2  -4   4 197.318 13.7162   3
   2   4   4 184.800 13.8684   1
   2   4   4 165.751 13.7341   3
  -2   4  -4 172.548 13.6242   1
   2   4   4 203.895 13.8048   1
   2  -4   4 171.469 13.5327   2
   2  -4   4 167.342 13.6838   1
  -2   4  -5 154.092 11.2361   2
  -2   4  -5 146.908 11.2149   1
   2   4   5 171.657 11.4045   1
   2   4   5 137.690 11.4211   1
   2  -4   5 153.353 11.2986   3
   2  -4   5 140.197 11.1304   2
   2   4   5 135.889 11.3281   3
  -2   4  -5 147.419 11.2711   3
   2  -4   5 133.762 11.3748   1
  -2   4  -6 54.9299 3.85740   2
   2  -4   6 43.3595 4.13031   1
  -2   4  -6 53.2907 3.84482   1
   2  -4   6 53.6318 3.65187   2
  -2  -4  -6 32.3581 2.82810   2
   2   4   6 43.0390 4.04238   3
   2   4   6 60.2467 4.15038   1
   2   4   6 54.6605 4.27976   1
   2  -4   6 56.8957 3.85298   3
   2  -4   7 28.3627 3.52154   1
  -2  -4  -7 29.8144 2.23425   2
  -2   4  -7 32.5975 3.13763   2
   2  -4   7 38.1325 3.43086   3
   2   4   7 26.3666 3.70405   1
  -2   4  -7 32.3396 3.31913   1
   2   4   7 18.6434 2.19236   2
   2  -4   7 30.5482 3.10385   2
   2   4   7 31.4230 3.42222   1
  -2   4  -8 67.0975 5.59367   1
   2  -4   8 73.8332 5.58327   3
   2   4   8 71.6683 5.92298   1
  -2   4  -8 64.5654 5.53169   2
   2   4   8 51.2615 4.93057   2
   2  -4   8 64.7672 5.92634   1
   2   4   8 78.3130 5.82250   1
   2   4   8 79.9098 5.63052   4
   2  -4   8 61.4742 5.51719   2
  -2  -4  -8 65.1072 4.95919   2
   2  -4   9 3.21581 2.60888   2
   2   4   9 2.50829 1.55021   2
  -2   4  -9 5.81154 2.38392   2
  -2  -4  -9 4.24252 1.45324   2
   2   4   9 7.10823 2.95511   1
   2  -4   9 5.14531 2.55636   3
  -2   4  -9 5.42427 2.80437   1
   2  -4   9 0.33937 3.38549   1
   2  -4  10 1.09016 2.54986   3
   2   4  10 0.91713 3.20156   1
  -2   4 -10 0.35882 2.91675   1
   2   4  10-2.41012 1.82358   2
  -2   4 -10 0.07585 2.53321   2
   2  -4  10 0.81294 3.48586   1
  -2  -4 -10 1.73641 1.59816   2
   2  -4  10 3.47485 2.84232   2
   2  -4  11 14.0321 2.88137   3
  -2  -4 -11 6.76697 1.94510   2
   2   4  11 12.5528 3.62381   1
  -2   4 -11 10.8204 2.97556   2
   2  -4  11 3.56668 3.59551   1
   2   4  11 9.46920 2.22077   2
  -2   4 -12 1.95184 3.06165   2
   2   4  12 6.08137 3.77116   1
   2  -4  12 3.05875 3.78639   1
   2  -4  12 8.68985 2.62101   3
  -2  -4 -12 3.91716 2.03003   2
   2   4  13 40.0093 5.33923   1
   2  -4  13 31.8265 5.19569   1
   2  -4  13 40.3229 4.10855   3
  -2   4 -13 29.9203 4.25542   2
  -2  -4 -13 34.6314 3.51900   2
  -2  -4 -14 13.3371 2.67004   2
   2   4  14 13.5830 4.75985   1
   2  -4  14 10.2751 2.98363   3
   2  -4  14 13.7508 4.74331   1
  -2   4 -14 9.62413 3.56537   2
   2  -4  15 11.7606 5.27246   1
   2  -4  15 13.6854 3.48142   3
  -2   4 -15 16.9875 3.99482   2
   2   4  15 27.7785 5.00164   1
   2   4  16 25.3151 5.42936   1
  -2   4 -16 17.2091 4.14022   2
   2  -4  16 18.6820 5.67664   1
   2   4  17 9.35148 5.40254   1
   2  -4  17 11.0411 5.78019   1
  -2   4 -17 14.9380 4.02200   2
  -2   4 -18 4.67988 4.19619   2
   2  -4  18 11.9136 5.97117   1
   2   4  18 0.65507 5.68580   1
  -2   5  18 6.66840 5.36535   1
   2   5 -17-2.42890 3.79997   2
  -2   5  17-0.10841 5.07623   1
  -2  -5  16 1.74514 5.37715   1
   2   5 -16 7.84071 3.67472   2
  -2   5  16-4.52308 5.10476   1
   2   5 -15 6.30159 3.43517   2
  -2   5  15 3.01325 4.74432   1
  -2  -5  14 3.95235 5.22048   1
   2   5 -14 7.81704 3.21185   2
  -2   5  14 2.58003 4.38155   1
   2   5 -13-0.41898 2.97861   2
  -2  -5  13-2.98403 5.00866   1
  -2   5  13 4.29929 4.15933   1
  -2   5  12 6.84742 3.75185   1
   2   5 -12 9.62148 2.93888   2
  -2  -5  12 9.98346 5.09030   1
   2   5 -11 5.96854 2.57533   2
   2  -5 -11 4.51826 2.25886   2
  -2   5  11 6.83891 3.65374   1
  -2  -5  11 12.1054 4.86176   1
  -2   5  11 8.72208 3.76675   4
   2  -5 -10 8.62844 2.17409   2
  -2  -5  10 7.84667 2.65278   2
   2   5 -10 8.54333 2.62902   2
  -2   5  10 12.8795 3.49050   1
  -2   5  10 12.0743 3.39994   1
  -2  -5  10 12.2683 4.67769   1
  -2  -5  10 14.5165 2.24085   3
  -2   5  10 13.2818 3.57711   4
  -2  -5   9 4.60859 2.14291   3
   2   5  -9 9.13295 2.37799   2
  -2   5   9 13.2427 3.02217   1
  -2  -5   9 7.86071 4.13467   1
   2  -5  -9 8.85919 1.94856   2
  -2   5   9 11.3993 3.25739   1
  -2  -5   9 10.5681 2.42592   2
  -2   5   8 9.02920 3.16845   1
  -2   5   8 16.3704 2.81636   1
   2   5  -8 11.4368 2.35495   2
  -2  -5   8 11.7371 3.97650   1
  -2  -5   8 11.6803 2.28052   3
  -2  -5   8 10.6614 2.38350   2
   2   5  -8 12.1426 2.42978   3
   2  -5  -8 11.0770 1.94596   2
  -2  -5   7 7.06744 2.16575   2
  -2   5   7 13.7241 2.76812   1
   2   5  -7 13.8774 2.31685   2
   2  -5  -7 15.7676 3.17745   3
   2  -5  -7 10.4245 1.82572   2
  -2  -5   7 9.42646 2.23507   3
   2  -5  -7 16.5976 2.17145   2
   2   5  -7 13.3066 2.51674   3
  -2   5   7 11.6177 3.12551   1
  -2  -5   7 13.0376 3.94888   1
   2   5  -6 17.0754 2.42652   2
  -2   5   6 19.9094 3.44677   1
  -2   5   6 17.0670 2.80464   1
   2  -5  -6 19.7336 2.14244   2
  -2  -5   6 13.5643 2.27220   2
  -2  -5   6 15.9414 2.57257   3
   2   5  -6 20.5872 2.76364   3
  -2  -5   6 18.0900 4.18809   1
   2  -5  -6 20.9892 2.31991   2
   2   5  -5 13.6726 2.49627   3
   2   5  -5 13.9384 2.02978   2
  -2   5   5 13.7706 3.13296   1
   2  -5  -5 15.8615 2.00577   2
  -2  -5   5 12.3808 2.36450   3
  -2  -5   5 10.5715 3.86353   1
  -2  -5   5 12.0871 1.91605   2
   2   5  -5 16.9310 3.90318   1
   2  -5  -5 11.5110 1.82340   2
  -2   5   5 15.5176 2.60716   1
   2  -5  -4 27.4939 2.44974   2
   2  -5  -4 28.7418 2.52398   2
  -2   5   4 29.1227 3.05948   1
  -2  -5   4 22.1936 3.08656   3
  -2  -5   4 22.5624 2.43884   2
   2   5  -4 23.9248 3.86306   1
  -2   5   4 23.8206 3.39784   1
   2   5  -4 20.6950 3.08698   3
  -2  -5   4 28.2127 4.31271   1
   2   5  -4 26.0279 2.54568   2
   2  -5  -3 68.2857 4.71543   2
  -2   5   3 70.4017 5.13762   1
  -2   5   3 62.0592 5.59067   3
   2   5  -3 58.4606 5.21322   3
   2   5  -3 66.8268 5.75303   1
   2  -5  -3 63.3891 4.70028   2
  -2  -5   3 49.4228 4.59065   2
   2  -5  -3 57.2257 5.31014   3
  -2  -5   3 65.7150 5.95350   1
  -2   5   3 52.8697 5.22834   1
   2   5  -3 56.2284 4.65132   2
   2   5  -2 0.53804 2.55905   3
  -2   5   2 0.75174 2.75042   3
  -2   5   2 0.11854 2.68767   1
   2  -5  -2 0.37769 1.45557   2
  -2  -5   2 5.24681 3.45632   1
  -2  -5   2 0.67957 0.64325   2
   2  -5  -2 4.09534 2.59475   3
   2  -5  -2 0.92009 1.46361   2
  -2   5   2 0.74406 2.23139   1
   2   5  -2-0.18672 0.89647   2
   2   5  -2 6.84702 3.11399   1
   2   5  -1 28.9167 4.22197   1
   2  -5  -1 35.2055 3.14558   2
   2  -5  -1 31.9420 3.82330   3
   2   5  -1 34.4584 3.86668   3
  -2   5   1 31.6319 3.68058   1
  -2  -5   1 37.5453 4.36184   1
  -2   5   1 35.4765 3.87521   3
  -2   5   1 36.2437 3.57222   1
   2  -5  -1 36.0411 3.01293   2
   2  -5   0 4.98390 2.54135   1
   2  -5   0 0.52998 1.44096   2
   2   5   0 1.51820 2.63987   3
   2   5   0 3.07089 3.35039   1
   2  -5   0 3.77453 2.20833   2
  -2   5   0 4.43260 2.61959   3
   2  -5   0 6.17468 2.69819   3
  -2  -5   0 5.60825 3.23338   1
  -2   5   0 4.99516 2.61347   1
   2  -5   1 11.1761 2.71004   1
   2  -5   1 7.99186 1.65972   2
  -2   5  -1 9.84920 2.08003   2
   2   5   1 8.55153 2.86094   3
  -2   5  -1 8.61087 2.86702   3
   2  -5   1 7.17334 2.63563   3
  -2   5  -1 7.31480 2.56811   1
   2   5   1 8.39588 3.35732   1
   2  -5   2 11.7411 1.90912   2
   2   5   2 14.7247 3.46852   1
  -2   5  -2 7.96488 2.99057   3
  -2   5  -2 10.4329 2.90410   1
   2   5   2 15.8448 2.99036   1
   2  -5   2 10.1223 2.85339   3
   2  -5   2 12.3399 2.90897   1
  -2   5  -2 10.8939 2.26410   2
   2   5   2 11.5311 2.96905   3
  -2   5  -3 20.0735 3.14366   1
   2  -5   3 19.9107 2.41950   2
  -2   5  -3 24.5464 2.81942   2
   2   5   3 24.3167 3.35572   1
   2   5   3 19.0087 3.37571   3
   2  -5   3 20.2226 3.17427   3
  -2   5  -3 19.4638 3.34486   3
   2   5   3 20.3914 3.79820   1
   2  -5   3 17.0700 3.42899   1
   2  -5   4 3.58108 1.82968   2
  -2   5  -4-0.96974 2.68633   3
  -2   5  -4 3.74175 2.57893   1
  -2   5  -4 5.43451 2.36108   2
   2   5   4 1.18443 2.91977   3
   2  -5   4 3.99239 2.67535   3
   2  -5   4 4.66394 3.06454   1
   2   5   4 4.54738 2.94043   1
   2   5   4 2.53641 3.44028   1
  -2   5  -5 97.3696 7.34208   2
  -2   5  -5 92.8943 7.42431   1
   2   5   5 86.0275 7.92828   1
   2  -5   5 85.6006 7.67898   1
   2  -5   5 94.9342 7.56244   3
   2   5   5 106.502 7.70264   1
  -2   5  -5 84.8131 7.42517   3
   2  -5   5 79.2246 7.14917   2
  -2   5  -6 277.493 20.1512   2
  -2   5  -6 265.129 20.1344   1
   2  -5   6 275.855 20.2262   3
   2  -5   6 247.177 20.0243   2
   2   5   6 305.526 20.3134   1
   2  -5   6 247.861 20.2756   1
   2   5   7 92.2831 6.86483   1
  -2   5  -7 79.7023 6.54640   1
  -2   5  -7 72.1200 6.50714   2
   2  -5   7 75.6932 6.99563   1
   2  -5   7 65.6805 6.34338   2
   2  -5   7 82.7456 6.70763   3
   2  -5   8 11.5466 2.64750   2
  -2   5  -8 6.43182 2.84971   2
   2   5   8 9.68362 2.88158   4
   2  -5   8 10.6030 4.05270   1
   2  -5   8 7.80003 3.07008   3
   2   5   8 7.46212 3.38707   1
  -2   5  -8 6.08573 2.93234   1
   2  -5   9-1.67353 2.76129   2
   2  -5   9-3.19891 3.84263   1
   2   5   9-4.44414 3.56901   1
  -2   5  -9-0.39848 2.69037   2
   2  -5   9 4.24800 2.94039   3
   2   5   9-2.91617 2.92775   4
   2   5  10 9.47051 3.56181   1
   2  -5  10 4.34707 4.14034   1
   2  -5  10 11.8716 3.09937   3
  -2   5 -10 8.57199 3.12290   2
   2  -5  11 16.8721 4.33774   1
   2   5  11 20.7716 4.05899   1
  -2   5 -11 13.3585 3.43367   2
   2  -5  11 14.3062 3.39119   3
   2  -5  12 7.83355 4.31744   1
   2  -5  12 8.06756 3.11879   3
  -2   5 -12 6.16518 3.31234   2
   2   5  12 4.24164 4.11833   1
   2   5  13 42.3184 5.42850   1
  -2   5 -13 33.7893 4.54812   2
   2  -5  13 35.7653 4.29633   3
   2  -5  13 31.1847 5.33457   1
   2   5  14 5.16497 5.15489   1
  -2   5 -14-3.57217 3.52615   2
   2  -5  14 0.91985 4.78623   1
   2   5  15 0.77250 5.32076   1
   2  -5  15 2.08974 5.15800   1
  -2   5 -15 0.77703 3.71296   2
   2   5  16 7.15728 5.69233   1
   2  -5  16 0.30370 5.52390   1
  -2   5 -16-0.70351 3.83850   2
   2  -5  17-2.41690 5.92893   1
  -2   5 -17 16.3078 4.34521   2
   2   6 -15 11.2931 3.85522   2
   2   6 -14 15.2028 3.75931   2
  -2  -6  14 10.6645 5.89168   1
  -2   6  14 18.2551 5.16067   1
   2   6 -13 3.41159 3.30852   2
  -2   6  13 9.50414 4.80270   1
  -2  -6  13 0.15185 5.29989   1
  -2  -6  12 15.9858 5.26681   1
   2   6 -12 5.66141 3.24526   2
  -2   6  12 6.49214 4.17233   1
   2   6 -11 20.4236 3.47980   2
  -2   6  11 19.2123 4.49215   1
  -2   6  11 18.1550 4.43240   4
  -2  -6  11 25.0010 5.35206   1
  -2   6  10 7.36604 3.48873   1
   2   6 -10 2.70233 2.80869   2
   2   6  -9 17.8562 3.15683   2
  -2   6   9 25.7824 3.91530   1
  -2  -6   9 15.7843 5.22562   1
   2   6  -8 0.18158 2.55739   2
  -2  -6   8 0.97136 2.48238   3
  -2   6   8-0.28380 3.17154   1
  -2  -6   8 0.26612 4.65037   1
  -2  -6   7 4.99651 2.49360   3
   2   6  -7 4.60745 2.31970   2
  -2   6   7 3.50298 3.01965   1
  -2   6   6 12.4789 3.10310   1
  -2  -6   6 20.6002 4.78601   1
   2   6  -6 10.9998 3.03189   3
   2   6  -6 14.7057 2.34184   2
  -2   6   6 8.69279 3.39484   1
   2   6  -5 4.88806 1.88124   2
  -2  -6   5-1.11843 4.54417   1
   2   6  -5 4.01139 2.68300   3
   2  -6  -5 7.14261 3.33454   3
  -2   6   5 4.65396 3.08856   1
  -2   6   5 3.39728 2.70900   1
   2   6  -4-0.41531 1.49849   2
   2  -6  -4 3.87220 3.27542   3
  -2   6   4-0.59678 3.08968   1
   2   6  -4-1.14941 2.70759   3
  -2  -6   4 8.39769 4.30167   1
  -2   6   4 0.18503 2.75096   1
  -2   6   3 42.2288 4.33967   1
   2  -6  -3 29.5676 4.32727   3
  -2  -6   3 41.4864 5.02040   1
  -2   6   3 42.1207 4.25197   1
   2   6  -3 33.4586 4.21474   3
  -2   6   2 18.4606 3.19405   1
   2   6  -2 12.5674 3.68743   3
  -2   6   2 18.1045 3.38234   1
   2  -6  -2 19.8574 3.53136   3
  -2  -6   1 133.894 8.86970   1
   2  -6  -1 103.309 8.32834   3
  -2   6   1 112.746 8.14893   1
  -2   6   1 107.606 8.21027   1
   2  -6  -1 88.4751 7.60308   2
   2  -6   0 0.27244 3.12549   3
  -2   6   0 14.6693 3.07848   1
   2  -6   0 2.54876 1.87963   2
  -2   6   0 16.1834 2.98202   1
   2  -6   1 9.76666 2.48031   2
   2  -6   1 7.97920 3.11916   3
  -2   6  -1 7.05993 3.14986   1
   2  -6   1 11.3681 3.34131   1
   2   6   1 7.74704 3.48289   1
   2  -6   2 28.6074 3.79811   3
  -2   6  -2 20.2834 2.95501   2
  -2   6  -2 22.9132 3.75010   1
   2   6   2 28.9921 3.98555   1
   2  -6   2 23.9447 3.81813   1
  -2   6  -3 19.7114 3.32479   1
   2  -6   3 16.4992 3.80405   1
  -2   6  -3 20.2086 2.84234   2
   2  -6   3 17.6963 3.63670   3
   2   6   3 20.6100 3.84489   1
  -2   6  -4 31.4917 3.77613   2
   2  -6   4 41.3888 4.78023   1
   2  -6   4 30.5550 4.30398   3
  -2   6  -4 39.5180 4.13051   1
   2   6   4 40.2318 4.80872   1
  -2   6  -5 10.0572 2.99077   1
   2  -6   5 1.45058 3.94605   1
   2  -6   5 0.45304 3.08986   3
  -2   6  -5 6.25884 2.68127   2
   2   6   5 3.77181 3.51655   1
   2  -6   6 17.3301 4.33544   1
  -2   6  -6 8.86614 3.13168   2
   2  -6   6 8.93158 3.31666   3
   2   6   6 20.7113 3.76279   1
   2  -6   7 22.9268 4.09859   3
  -2   6  -7 25.0329 3.66486   2
   2  -6   7 24.6685 4.68147   1
   2   6   7 26.6601 4.19479   1
   2   6   8 3.49607 3.73370   1
  -2   6  -8 4.25778 3.08950   2
   2  -6   8 2.56616 4.22334   1
   2  -6   8 1.63597 3.29344   3
   2   6   9 9.79719 3.85221   1
   2   6   9-2.95399 3.40716   4
  -2   6  -9 0.08637 3.17554   2
   2  -6   9 5.42320 3.26284   3
   2  -6   9 4.20628 4.28848   1
   2   6  10 0.31204 3.82868   1
  -2   6 -10-0.18309 3.30594   2
   2  -6  10 3.62362 3.41034   3
   2  -6  10 3.70841 4.41555   1
   2   6  11 0.44207 4.53311   1
   2  -6  11 7.04095 4.91626   1
   2  -6  11 0.74513 3.36992   3
  -2   6 -11 1.95432 3.60987   2
   2   6  12 14.8500 4.65867   1
   2  -6  12 14.9536 3.88603   3
  -2   6 -12 18.8984 4.11172   2
   2  -6  12 16.6834 5.85813   1
   2  -6  13 4.45272 5.71983   1
   2   6  13 9.57965 4.68636   1
  -2   6 -13 1.41856 3.98846   2
   2   6  14 4.61845 5.32286   1
   2  -6  14 9.75541 5.94967   1
  -2   6 -14 6.11756 4.07686   2
   2  -6  15 6.69268 5.94029   1
  -2   6 -15 6.15874 4.27009   2
  -2  -7  10 7.76158 5.91857   1
  -2  -7   9 2.40171 5.53966   1
  -2  -7   8 10.7653 5.88126   1
  -2   7   7 4.19767 3.53924   1
  -2  -7   7 1.64651 5.39769   1
  -2   7   6 0.60517 3.41144   1
  -2  -7   6-1.55625 5.13068   1
   2  -7  -5 11.0366 3.97809   3
  -2  -7   5 13.9448 5.03447   1
  -2   7   5 10.9965 3.32967   1
   2  -7  -4-3.79123 3.73626   3
  -2  -7   4 5.16653 4.66366   1
  -2   7   4 0.29964 3.21000   1
   2  -7  -3-4.90657 3.62002   3
  -2   7   3-4.52084 3.20229   1
   2  -7  -2 31.3687 4.91994   3
  -2   7   2 43.1856 4.52911   1
  -2  -7   2 41.6929 5.69500   1
   2  -7  -1 5.98519 3.73699   3
  -2   7   1 10.1748 3.25784   1
   2  -7   0 7.70645 3.83636   3
  -2   7   0 8.59165 3.39279   1
   2   7   0 9.78716 4.05452   1
   2   7   1 17.3842 4.08660   1
   2  -7   1 13.0772 3.88574   3
  -2   7  -1 23.1437 3.74925   1
   2  -7   2 16.7303 4.14474   1
   2   7   2 11.6773 4.16050   1
   2  -7   2 8.73066 3.82101   3
   2   7   3-1.02964 4.03716   1
   2  -7   3 8.87810 3.61440   3
   2  -7   3-0.29389 4.01947   1
   2  -7   4 10.4306 3.78179   3
   2  -7   4 21.5628 4.44902   1
   2   7   4 20.0749 4.44262   1
   2   7   5 21.4078 4.35114   1
   2  -7   5 22.4193 4.07794   3
   2  -7   5 15.9821 4.75674   1
   2  -7   6 1.91479 3.88758   3
   2  -7   6 1.14638 4.53623   1
   2   7   6 3.22180 4.16771   1
   2  -7   7 24.6568 5.44192   1
   2  -7   7 21.6959 4.30704   3
   2   7   7 14.4416 4.47334   1
   2   7   8 9.53639 4.29399   1
   2  -7   8 8.48369 5.24824   1
   2  -7   8 12.6912 4.37507   3
   2  -7   9 7.11492 5.22754   1
   2   7   9 8.13192 4.47333   1
   2   7   9-0.95694 3.77462   4
   2  -7   9 3.42286 4.01608   3
   2   7  10-0.58008 4.45349   1
   2   7  10 0.85757 3.78021   4
   2  -7  10 13.0973 5.56494   1
   2  -7  11 11.1079 5.84707   1
   2   7  11 18.2581 5.07932   1
   2  -7  12-0.14794 5.63578   1
   2  -7  13 31.8944 6.44882   1
  -2  -8   5 14.7452 5.82149   1
  -2  -8   4 28.3526 6.15690   1
  -2  -8   3 41.8691 6.52073   1
   2   8  -2-1.08108 4.45075   1
   2   8  -1-2.62586 4.11326   1
   2  -8  -1 0.63493 4.18273   3
   2   8   0 0.22600 4.15883   1
   2  -8   0-1.79701 4.12394   3
   2   8   1 7.08298 4.17778   1
   2  -8   1-4.92870 4.38591   3
   2  -8   2 6.46483 4.19968   3
   2   8   2 10.7624 4.49734   1
   2  -8   3 17.1477 4.54613   3
   2   8   3 26.0182 4.81996   1
   2  -8   4-5.87037 4.22343   3
   2   8   4-0.23251 4.36973   1
   2  -8   5 8.74381 4.03410   3
   2   8   5 7.34565 4.35884   1
   2  -8   6 0.34595 4.16058   3
   2   8   6 9.74576 4.76861   1
   2  -8   7 2.59877 4.07778   3
  -3   0  21 1.41469 5.07724   1
  -3   0  20 11.0650 5.02332   1
   3   0 -20 0.21480 3.63094   2
   3   0 -19 38.3288 4.72143   2
  -3   0  19 37.4027 5.56860   1
   3   0 -18 15.9099 3.75975   2
  -3   0  18 19.7816 4.60480   1
  -3   0  17 17.0452 4.43034   1
   3   0 -17 14.9011 3.45912   2
   3   0 -16-0.69973 3.10341   2
  -3   0  16 3.04992 3.73628   1
  -3   0  15 2.26285 3.40835   1
   3   0 -15 5.23280 2.99544   2
   3   0 -14 3.00644 3.21361   1
   3   0 -14-0.46953 2.86232   2
  -3   0  14 4.98353 3.23866   1
  -3   0  14 0.06351 1.50833   3
  -3   0  13 37.2120 4.31836   1
  -3   0  13 34.6767 4.08998   2
   3   0 -13 36.5172 3.94725   2
   3   0 -13 37.3372 4.27703   1
  -3   0  13 36.2765 3.13706   3
  -3   0  12 11.7860 3.01316   1
  -3   0  12 11.1004 1.67744   3
   3   0 -12 13.7200 2.63668   2
  -3   0  12 17.8111 2.84003   2
   3   0 -12 14.4964 3.03145   1
  -3   0  11 16.5538 2.82329   2
  -3   0  11 20.0127 2.98842   1
  -3   0  11 14.2883 1.87279   3
   3   0 -11 18.9125 3.05005   1
   3   0 -11 18.9470 2.63979   2
   3   0 -10 41.2748 3.75084   2
  -3   0  10 41.6402 3.91850   1
  -3   0  10 40.5194 3.28836   3
   3   0 -10 39.3096 4.04613   1
  -3   0   9 1.71205 2.01860   1
  -3   0   9-1.83706 1.08127   3
   3   0  -9 0.80999 2.42824   1
   3   0  -9 2.77699 1.96055   2
  -3   0   8 59.3426 4.86429   1
   3   0  -8 57.4003 4.88970   2
  -3   0   8 57.4848 4.45815   3
   3   0  -8 60.5262 4.94634   1
  -3   0   7 137.319 8.95620   1
  -3   0   7 110.403 8.64852   3
   3   0  -7 116.349 8.91702   1
   3   0  -6 45.0810 4.09468   1
  -3   0   6 44.7114 3.73906   3
  -3   0   6 57.3109 4.14282   1
   3   0  -6 50.7179 3.73771   3
   3   0  -5 232.677 16.6202   3
   3   0  -5 228.928 16.7402   1
  -3   0   5 209.419 16.6233   3
  -3   0   5 238.830 16.7470   1
   3   0  -5 233.354 16.7688   4
   3   0  -4 2.56424 1.64678   1
   3   0  -4 3.67060 1.66790   4
   3   0  -4 3.54065 1.04861   3
  -3   0   4 2.49554 1.78012   1
   3   0  -3 92.5557 6.58795   1
  -3   0   3 78.6183 6.57271   1
   3   0  -3 86.7506 6.43214   3
   3   0  -2 108.369 7.78989   1
  -3   0   2 103.523 7.96216   2
   3   0  -2 99.2724 7.71383   3
  -3   0   2 105.055 7.79259   1
  -3   0   1 548.385 40.0856   1
   3   0  -1 545.654 40.0824   1
   3   0   0 127.060 9.38251   1
  -3   0   0 123.521 9.49831   2
  -3   0  -1 72.9698 5.52865   2
   3   0   1 69.4200 5.29153   1
   3   0   1 67.5339 5.33440   1
   3   0   2 11.7438 1.65893   1
   3   0   2 15.4985 2.32086   2
  -3   0  -2 14.5572 2.13403   2
  -3   0  -2 18.6478 1.78751   1
   3   0   3 11.5278 1.55010   1
   3   0   3 8.26338 2.18014   2
  -3   0  -3 12.4742 1.87667   2
  -3   0  -3 12.0892 1.68066   1
  -3   0  -4 11.9346 1.80695   1
   3   0   4 13.9591 1.87612   1
   3   0   4 9.74553 2.20606   2
  -3   0  -4 13.4720 2.02435   2
   3   0   5 24.3809 2.72695   1
  -3   0  -5 22.4032 2.44586   2
  -3   0  -5 22.5825 2.40532   1
   3   0   5 20.9836 2.53752   2
  -3   0  -6 58.3418 4.70475   2
   3   0   6 45.3308 4.71649   2
  -3   0  -6 62.5329 4.65423   1
   3   0   6 60.1759 4.75369   1
  -3   0  -7 67.7767 5.56251   2
  -3   0  -7 70.5168 5.53843   1
   3   0   7 75.8620 5.68926   1
   3   0   7 64.8908 5.64277   2
  -3   0  -8 11.6491 2.13938   1
   3   0   8 11.8291 2.36085   2
   3   0   8 18.1499 2.53316   1
  -3   0  -8 14.2530 2.22984   2
  -3   0  -9 1.04635 1.88222   2
  -3   0  -9 2.85205 1.95696   1
   3   0   9 0.64340 2.40359   1
   3   0   9 2.29034 2.10893   2
   3   0  10 56.6722 5.02171   1
   3   0  10 47.9222 4.79931   2
  -3   0 -10 54.7411 4.72493   1
  -3   0 -10 59.1687 4.73878   2
   3   0  11 24.3497 3.30294   2
  -3   0 -11 26.9607 3.11126   1
  -3   0 -11 26.9443 3.08087   2
   3   0  11 27.1824 3.67597   1
   3   0  12 296.627 23.0236   2
  -3   0 -12 304.087 22.9318   1
   3   0  12 318.706 23.1109   1
  -3   0 -12 311.880 22.9876   2
   3   0  13 8.61228 3.27514   2
  -3   0 -13 11.1600 2.67999   1
  -3   0 -13 10.2331 2.75254   2
   3   0  13 3.46707 3.62459   1
  -3   0 -14 0.47471 2.61100   2
   3   0  14 6.98653 3.69992   1
   3   0  15 71.6348 6.39408   1
  -3   0 -15 59.5389 5.92085   2
   3   0  16 204.181 15.6979   1
  -3   0 -16 198.585 15.4611   2
  -3   0 -17 14.1655 3.58917   2
   3   0  17 17.4571 4.56203   1
  -3   0 -18 16.7954 3.89822   2
   3   0  18 18.1465 4.91948   1
   3   0  19 4.18571 4.80686   1
  -3   0 -19 5.48968 3.79206   2
  -3   0 -20 16.5340 4.15933   2
   3   0  20 14.5461 5.23541   1
  -3   1  21 5.85533 5.35434   1
  -3   1  20 15.7288 5.07712   1
   3  -1 -20 8.50684 3.87817   2
   3   1 -20 14.9346 3.92236   2
  -3  -1  20 12.2827 5.01080   1
   3  -1 -19 7.89866 3.53956   2
   3   1 -19 3.24575 3.53589   2
  -3   1  19 4.78714 4.35119   1
  -3  -1  19 7.49233 4.73801   1
  -3   1  18 11.4635 4.06649   1
  -3  -1  18 5.37632 4.42637   1
   3  -1 -18 5.29780 3.42858   2
   3  -1 -17 23.7546 3.96456   2
  -3  -1  17 25.3686 4.84449   1
  -3   1  17 32.2667 4.64912   1
   3  -1 -16 5.22518 3.21537   2
  -3   1  16 3.12427 3.67278   1
  -3  -1  16-0.52299 3.91462   1
   3  -1 -15 4.71573 3.08733   2
  -3  -1  15-0.38812 3.62066   1
  -3   1  15 0.39860 2.03114   3
  -3   1  15 5.48903 3.43770   1
   3  -1 -14 21.2864 3.32775   2
  -3  -1  14 22.9706 4.01201   1
   3  -1 -14 15.7193 3.60031   1
  -3   1  14 23.3302 2.71532   3
  -3   1  14 23.7717 3.82127   1
   3  -1 -13 4.62674 2.73635   2
  -3   1  13 2.66529 1.88902   3
  -3  -1  13 4.05518 3.07209   1
   3  -1 -13 3.87211 2.81846   1
  -3   1  13 6.59434 3.02659   2
   3   1 -13 3.39765 3.33438   1
  -3  -1  13 4.19684 2.73459   2
  -3   1  13 3.69117 2.90005   1
   3   1 -12 20.0355 3.39176   1
  -3  -1  12 14.9033 1.21714   3
   3  -1 -12 16.3130 3.20776   1
  -3   1  12 16.1841 3.07632   2
  -3   1  12 13.3918 2.19501   3
  -3  -1  12 16.7042 2.89128   2
  -3   1  12 15.5728 2.99877   1
  -3  -1  12 12.0471 3.08245   1
   3  -1 -12 14.4472 2.63055   2
  -3   1  11 181.876 13.6838   1
   3   1 -11 172.332 13.7161   1
  -3   1  11 191.483 13.7671   2
  -3  -1  11 168.292 13.7266   2
   3  -1 -11 185.424 13.6758   2
   3  -1 -11 203.264 13.8036   1
  -3   1  11 173.032 13.5091   3
  -3  -1  11 177.365 13.7769   1
   3   1 -10 81.8484 6.05889   1
  -3   1  10 73.3885 5.91512   1
  -3  -1  10 74.7635 6.04928   2
  -3   1  10 69.2780 5.68499   3
  -3  -1  10 74.7794 6.19370   1
  -3   1  10 72.6514 6.11532   2
   3  -1 -10 69.6321 5.88991   2
   3   1 -10 65.3142 5.94796   2
   3  -1 -10 78.7085 6.09026   1
   3  -1  -9 14.1085 2.65788   1
  -3   1   9 14.6874 2.39391   1
  -3   1   9 18.0478 2.61054   2
  -3   1   9 15.0708 2.02600   3
  -3  -1   9 16.8862 2.78023   1
   3   1  -9 14.1276 2.66267   1
  -3  -1   9 16.5621 2.51648   2
   3  -1  -9 18.0015 2.41903   2
   3   1  -9 15.9938 2.42120   2
  -3   1   8 3.89266 1.55424   3
  -3   1   8 0.20271 2.17312   2
  -3  -1   8 0.54190 2.02146   2
  -3   1   8 2.20317 1.85123   1
   3   1  -8-2.25204 2.25456   1
  -3  -1   8-0.40455 2.29514   1
   3  -1  -8 0.04902 1.83320   2
   3   1  -8-0.14594 1.68170   2
   3  -1  -8-2.33740 2.08061   1
  -3   1   7 100.408 7.93379   1
   3   1  -7 101.826 8.07955   1
  -3  -1   7 128.368 8.29420   1
  -3   1   7 90.8763 7.86237   3
   3  -1  -7 99.6934 7.85757   3
  -3   1   7 110.814 8.10559   2
  -3  -1   7 92.1040 8.02489   2
   3  -1  -7 118.110 8.03989   2
   3   1  -7 110.734 8.01723   2
   3  -1  -7 107.549 7.97952   1
  -3   1   6 358.545 26.1765   1
   3   1  -6 356.153 26.2732   1
  -3  -1   6 343.974 26.2580   2
   3  -1  -6 356.581 26.1874   1
   3  -1  -6 335.305 26.1579   3
  -3  -1   6 358.107 26.3114   1
  -3   1   6 364.209 26.2969   2
  -3   1   6 352.370 26.1801   3
   3  -1  -6 375.904 26.2539   2
   3   1  -6 368.331 26.2638   2
   3   1  -5 139.554 11.0874   1
  -3   1   5 147.410 10.9266   1
   3  -1  -5 154.271 10.9657   3
  -3   1   5 155.116 11.0744   4
  -3   1   5 130.677 10.9440   3
   3   1  -5 144.149 11.0270   2
  -3  -1   5 160.693 11.1365   1
  -3   1   5 160.394 11.1479   2
  -3  -1   5 142.126 11.0506   2
   3  -1  -5 144.002 11.0056   2
   3  -1  -5 146.917 10.9640   1
  -3   1   4 33.9689 2.92597   1
  -3   1   4 32.7244 3.02534   3
   3  -1  -4 36.6689 3.00364   3
  -3  -1   4 35.0952 3.21441   2
   3   1  -4 35.4630 3.09623   2
  -3   1   4 34.3745 3.41714   2
   3   1  -4 35.6035 3.49170   1
   3  -1  -4 36.1585 2.98172   1
  -3  -1   4 34.6076 3.32597   1
   3  -1  -4 37.4362 3.14623   2
  -3   1   3 368.017 26.1744   1
   3  -1  -3 373.484 26.2682   3
   3   1  -3 368.862 26.2775   2
   3   1  -3 339.242 26.3173   1
  -3   1   3 390.519 26.3945   2
  -3   1   3 356.197 26.2668   3
   3  -1  -3 331.282 26.1680   1
  -3  -1   3 346.972 26.3058   2
   3  -1  -3 338.651 26.2993   2
  -3  -1   3 399.439 26.3576   1
   3  -1  -2 943.747 71.0516   1
   3   1  -2 1030.43 71.1660   2
   3   1  -2 993.648 71.1793   1
  -3   1   2 944.231 71.0553   1
  -3  -1   2 1014.12 71.1916   1
  -3  -1   2 934.639 71.1723   2
   3  -1  -2 1033.17 71.1621   3
  -3   1   2 1036.55 71.1651   3
   3  -1  -2 996.001 71.1983   2
   3  -1  -2 960.924 71.2174   2
  -3  -1   1 669.848 41.0041   1
   3  -1  -1 549.491 40.9923   2
   3  -1  -1 591.120 40.9428   3
  -3  -1   1 571.352 40.9742   2
   3   1  -1 504.577 40.9063   2
  -3   1   1 537.428 40.9223   3
   3   1  -1 522.691 40.9393   1
   3  -1  -1 563.481 41.0043   2
   3   1   0 538.946 37.3543   1
   3  -1   0 500.202 37.3829   2
   3   1   0 472.224 37.3234   2
   3  -1   0 491.342 37.3372   3
   3   1   0 485.980 37.3034   2
  -3  -1   0 574.797 37.3512   1
   3   1   1 965.299 73.7060   2
  -3  -1  -1 963.720 73.7079   2
   3  -1   1 1027.87 73.6004   1
   3   1   1 985.935 73.7168   1
  -3   1  -1 1003.20 73.5983   1
   3  -1   1 1028.94 73.7690   2
   3   1   1 1029.16 73.7262   1
   3  -1   2 111.380 9.24312   2
   3   1   2 99.4287 9.09994   2
  -3  -1  -2 112.557 9.12121   2
   3  -1   2 127.546 8.98898   1
   3   1   2 128.493 9.22261   1
  -3   1  -2 129.677 8.96821   1
   3   1   2 119.366 9.11147   1
   3  -1   3 135.994 10.7536   2
   3   1   3 135.199 10.6265   2
  -3  -1  -3 152.136 10.6766   2
  -3  -1  -3 143.703 10.7103   1
  -3   1  -3 158.633 10.5711   1
   3   1   3 129.945 10.6751   1
   3  -1   3 134.685 10.5824   1
  -3  -1  -4 365.448 26.0517   2
  -3  -1  -4 327.633 26.0478   1
  -3   1  -4 392.896 25.9960   1
   3  -1   4 311.746 26.1052   2
   3   1   4 357.921 26.0573   1
   3  -1   4 340.722 26.0009   1
   3   1   4 355.928 26.0317   2
  -3  -1  -5 245.280 17.3135   2
  -3  -1  -5 223.652 17.3063   1
  -3   1  -5 249.844 17.2715   1
   3   1   5 236.995 17.3211   1
   3   1   5 217.909 17.2778   2
   3  -1   5 226.016 17.2694   1
  -3   1  -6 76.2058 5.25111   1
  -3  -1  -6 60.4150 5.20285   1
  -3  -1  -6 63.2164 5.10016   2
   3   1   6 59.5878 5.15436   2
   3   1   6 67.9586 5.26533   1
   3  -1   6 59.9414 5.22153   1
  -3  -1  -7 123.426 9.38160   2
   3   1   7 127.136 9.48619   1
  -3  -1  -7 128.527 9.42818   1
   3   1   7 103.499 9.39296   2
  -3   1  -7 144.645 9.48083   1
   3  -1   7 119.525 9.41198   1
   3  -1   8 139.981 11.4085   1
  -3  -1  -8 145.034 11.3993   1
   3   1   8 173.732 11.5684   1
  -3   1  -8 166.906 11.4241   1
   3   1   8 129.851 11.3762   2
  -3  -1  -8 154.594 11.3871   2
   3  -1   9 61.5205 5.13629   1
  -3  -1  -9 60.1816 5.03788   1
  -3  -1  -9 57.5543 4.97215   2
  -3   1  -9 60.8974 5.08954   1
   3   1   9 50.7791 5.01274   2
   3   1   9 70.1283 5.32950   1
  -3   1  -9 57.8100 5.07059   2
  -3   1 -10 7.65069 2.44851   1
  -3  -1 -10 8.12409 2.14692   2
  -3   1 -10 6.79666 2.31015   2
   3   1  10 7.43452 2.27968   2
   3  -1  10 4.20385 2.51805   1
   3   1  10 7.06027 2.85259   1
  -3  -1 -10 7.00782 2.17120   1
   3   1  11 20.5597 3.02854   2
  -3   1 -11 24.6848 2.99347   1
  -3  -1 -11 18.1553 2.75261   2
   3   1  11 22.7127 3.43977   1
   3  -1  11 19.3180 3.22363   1
  -3   1 -11 20.1541 2.97269   2
  -3  -1 -11 22.6406 2.91316   1
   3  -1  12 39.8179 4.18377   1
  -3   1 -12 38.8342 3.87364   2
  -3  -1 -12 38.5933 3.80479   1
  -3   1 -12 31.8697 3.83908   1
   3   1  12 36.3975 4.42402   1
   3  -1  12 33.1743 3.98258   2
   3   1  12 36.9574 4.01125   2
  -3  -1 -12 32.8456 3.75244   2
   3  -1  13 86.6492 7.97555   1
  -3   1 -13 100.527 7.77998   2
  -3   1 -13 92.2485 7.69826   1
   3   1  13 92.1413 7.84906   2
   3   1  13 102.779 8.22901   1
  -3  -1 -13 93.1578 7.60179   2
   3   1  14 6.89846 3.52541   2
  -3  -1 -14 7.17646 2.77112   2
  -3   1 -14 6.83903 2.86408   2
   3   1  14 7.17773 3.85995   1
   3  -1  14 0.35869 3.52293   1
  -3  -1 -15 18.1755 3.37102   2
  -3   1 -15 19.8819 3.39569   2
   3   1  15 18.8200 4.61226   1
   3  -1  15 23.5983 4.15487   1
  -3  -1 -16 4.82732 2.96177   2
  -3   1 -16 7.81831 3.31420   2
   3  -1  16 1.70478 3.90520   1
  -3  -1 -17 4.60443 3.12287   2
  -3   1 -17 2.31517 3.40328   2
   3  -1  17-5.33184 4.31221   1
  -3  -1 -18 18.4588 3.65807   2
  -3   1 -18 19.5690 4.04121   2
   3  -1  18 6.92844 4.70403   1
  -3  -1 -19 13.4557 3.86502   2
  -3   1 -19 17.9277 4.20786   2
   3  -1  19 15.1370 5.12039   1
  -3  -1 -20 6.28925 3.94269   2
  -3   1 -20 6.52799 4.26603   2
   3  -1  20 4.06408 5.26341   1
  -3  -1 -21 0.35778 3.89828   2
  -3   2  21 21.0871 5.72610   1
   3  -2 -20 16.0580 3.82627   2
  -3  -2  20 17.5361 6.11102   1
  -3   2  20 8.06018 4.91054   1
   3  -2 -19 36.7744 4.70765   2
  -3  -2  19 48.9965 6.49890   1
   3   2 -19 32.1906 4.79642   2
  -3   2  19 30.7532 5.25499   1
   3  -2 -18 9.55276 3.46955   2
   3   2 -18 6.62241 3.47153   2
  -3  -2  18-4.19625 5.38034   1
  -3   2  18 7.13424 4.24062   1
   3  -2 -17 7.56730 3.40652   2
   3   2 -17 5.06715 3.35265   2
  -3   2  17 4.30895 4.02649   1
  -3  -2  17 12.1984 4.92225   1
   3  -2 -16-0.50117 3.15119   2
   3   2 -16-1.27943 3.07843   2
  -3   2  16 1.14895 3.59121   1
  -3  -2  16 6.21338 4.40737   1
   3  -2 -15 4.89869 3.08877   2
   3   2 -15 0.85043 2.91726   2
  -3   2  15 4.41473 3.41135   1
  -3  -2  15 7.82537 4.26223   1
  -3   2  15 3.32006 2.57312   3
  -3   2  14 50.5912 4.86197   3
  -3   2  14 57.8972 5.30975   1
   3  -2 -14 57.5330 5.09000   1
  -3  -2  14 64.6222 6.06688   1
   3  -2 -14 52.0315 5.15661   2
   3   2 -14 48.7593 5.10202   2
  -3   2  13 46.6110 4.81899   1
  -3  -2  13 52.4511 5.43195   1
  -3   2  13 52.7598 4.86872   2
   3  -2 -13 48.1427 4.65037   1
   3  -2 -13 45.7336 4.61217   2
   3   2 -13 44.1422 4.66034   2
  -3   2  13 50.8568 4.52259   3
  -3   2  12 162.488 11.5288   1
   3   2 -12 145.330 11.6194   1
  -3  -2  12 144.791 11.5631   2
  -3   2  12 146.122 11.4201   3
  -3  -2  12 166.602 11.9575   1
  -3   2  12 155.359 11.5904   2
   3  -2 -12 145.724 11.4163   1
   3  -2 -12 143.466 11.4349   2
   3   2 -12 140.093 11.5060   2
   3   2 -11 55.4087 5.09189   1
  -3   2  11 51.9064 4.64753   3
   3  -2 -11 51.2775 4.70427   2
  -3  -2  11 63.2127 5.36338   1
  -3   2  11 52.8968 4.98237   2
  -3  -2  11 50.7733 4.86382   2
   3  -2 -11 53.1178 4.71024   1
   3   2 -11 47.0562 4.75480   2
  -3   2  11 56.2015 4.74381   1
   3   2 -10 33.2668 3.84039   1
  -3   2  10 34.9857 3.66990   2
   3  -2 -10 36.3603 3.50789   1
  -3   2  10 31.0451 3.40767   3
  -3  -2  10 31.1855 4.08934   1
  -3  -2  10 35.3624 3.60370   2
   3  -2 -10 34.3318 3.51186   2
   3   2 -10 35.8131 3.57794   2
  -3   2  10 37.2093 3.56655   1
   3   2  -9 40.4069 4.16629   1
  -3  -2   9 37.6764 3.92898   2
  -3  -2   9 40.0900 4.20138   1
   3  -2  -9 43.2848 3.73653   1
   3  -2  -9 40.3416 3.77885   2
  -3   2   9 43.0596 3.92676   2
   3   2  -9 38.5595 3.78770   2
  -3   2   9 37.7740 3.74665   3
  -3   2   9 48.5448 3.93232   1
   3   2  -8 4.34797 2.54261   1
   3  -2  -8 6.46883 1.94695   1
  -3  -2   8 6.56644 2.62581   1
   3  -2  -8 6.58960 1.77541   3
  -3   2   8 7.33667 2.00695   1
  -3   2   8 8.22971 1.98922   3
  -3   2   8 10.7964 2.28347   2
  -3  -2   8 5.75696 2.08743   2
   3  -2  -8 12.5332 2.08048   2
   3   2  -8 6.39873 1.89152   2
   3  -2  -7 16.6858 2.20074   1
   3   2  -7 22.7985 2.88589   1
   3  -2  -7 14.8733 2.26721   3
  -3   2   7 17.4601 2.63453   4
  -3   2   7 19.5272 2.30148   1
  -3   2   7 18.1233 2.33735   3
  -3   2   7 24.9554 2.71106   2
  -3  -2   7 15.3949 2.37918   2
   3  -2  -7 19.9854 2.41386   2
  -3  -2   7 21.2423 2.91485   1
   3   2  -7 20.2164 2.29487   2
  -3   2   6 90.9395 7.14983   3
  -3   2   6 108.802 7.23883   2
   3  -2  -6 85.9746 7.04883   3
  -3  -2   6 89.7165 7.10545   2
   3  -2  -6 86.9047 6.99069   1
  -3  -2   6 89.9617 7.28978   1
   3   2  -6 87.4930 7.30451   1
   3   2  -6 91.4209 7.10144   2
   3  -2  -6 95.0029 7.08844   2
  -3   2   6 93.9710 7.00237   1
  -3   2   5 86.7410 6.02053   3
  -3  -2   5 79.5453 5.94635   2
   3  -2  -5 86.5748 5.93514   3
   3  -2  -5 78.7222 5.79779   1
   3   2  -5 87.8750 5.87827   2
   3   2  -5 59.0531 5.58833   3
  -3   2   5 79.8264 5.79261   1
  -3   2   5 95.3760 6.12638   2
  -3  -2   5 87.0355 6.26073   1
   3   2  -5 79.9020 6.25582   1
   3  -2  -5 83.3632 5.90872   2
   3   2  -4 14.6787 1.55149   3
  -3   2   4 19.2977 2.26396   3
   3  -2  -4 18.6225 2.10510   3
   3   2  -4 18.5581 2.03447   2
   3  -2  -4 17.4593 2.06701   2
  -3   2   4 23.2355 2.74307   2
   3   2  -4 18.5608 2.74125   1
  -3  -2   4 15.9692 2.15190   2
  -3   2   4 14.9953 1.79337   1
   3  -2  -4 16.6507 1.84742   1
  -3  -2   4 17.2255 2.73650   1
   3   2  -3 133.695 10.7195   3
  -3   2   3 146.065 10.7113   1
   3  -2  -3 162.762 11.0228   2
   3   2  -3 150.525 11.1026   1
  -3  -2   3 135.461 10.8395   2
   3  -2  -3 151.712 10.9107   3
   3  -2  -3 148.415 10.8885   2
   3   2  -3 151.578 10.8305   2
  -3   2   3 145.444 10.9178   3
  -3  -2   3 143.289 11.0201   1
  -3  -2   2 775.393 49.0613   1
  -3   2   2 594.050 48.7803   1
   3   2  -2 697.305 48.8419   3
   3  -2  -2 716.909 48.9661   2
  -3   2   2 706.471 48.9425   3
  -3  -2   2 699.368 48.8762   2
   3   2  -2 640.809 48.9718   1
   3   2  -2 686.477 48.8613   2
  -3   2   2 649.969 48.7673   1
   3  -2  -2 732.020 48.9463   2
   3  -2  -2 670.936 48.9371   3
   3  -2  -1 95.2409 6.57030   2
  -3  -2   1 105.329 6.72324   1
  -3  -2   1 99.9766 6.38694   2
   3   2  -1 93.2428 6.26313   2
  -3   2   1 72.3268 6.10834   1
  -3   2   1 102.339 6.57075   3
   3   2  -1 78.1345 6.65719   1
  -3   2   0 42.2338 3.88558   3
   3  -2   0 53.1953 4.06351   2
  -3   2   0 47.3994 3.30662   1
   3   2   0 44.9756 3.65643   2
  -3   2   0 49.0099 3.93359   2
  -3  -2   0 45.2362 3.99249   1
   3   2   0 38.6390 3.53670   2
   3  -2   0 39.2595 3.35360   1
   3   2   1 101.285 8.63694   2
  -3   2  -1 123.041 8.57388   1
   3   2   1 118.867 8.69620   2
  -3  -2  -1 126.568 8.95310   1
   3  -2   1 115.923 8.88310   2
  -3   2  -1 127.991 8.86450   2
   3  -2   1 108.888 8.61186   1
   3  -2   2 68.9665 5.61849   2
   3   2   2 71.9620 5.37213   2
   3  -2   2 63.7792 5.32687   1
  -3   2  -2 78.3614 5.58895   2
  -3  -2  -2 67.9423 5.34558   2
   3  -2   2 67.6452 5.54764   3
  -3   2  -2 70.8743 5.26326   1
   3  -2   3 281.493 22.3085   2
  -3   2  -3 305.548 22.3124   2
  -3  -2  -3 284.058 22.1839   2
   3  -2   3 282.251 22.1974   1
   3  -2   3 365.955 22.3841   3
  -3   2  -3 309.613 22.1577   1
   3   2   3 304.424 22.1688   2
  -3   2  -4 181.595 12.7563   2
  -3  -2  -4 175.048 12.5760   2
   3  -2   4 162.532 12.5918   1
   3  -2   4 160.133 12.7176   3
  -3   2  -4 170.293 12.5708   1
   3   2   4 164.827 12.5259   2
   3  -2   4 173.871 12.7458   2
  -3   2  -5 50.0109 4.28998   2
  -3  -2  -5 48.8981 4.01191   2
   3  -2   5 48.3263 4.17601   1
  -3  -2  -5 45.5131 4.34714   1
   3  -2   5 59.0564 4.28421   3
   3   2   5 45.0842 3.92644   2
  -3   2  -5 54.9200 4.18196   1
   3  -2   5 47.1624 4.33489   2
  -3   2  -6 94.7437 7.01099   2
   3  -2   6 92.3707 6.90850   1
   3  -2   6 96.8047 6.98198   3
  -3   2  -6 91.3037 6.83499   1
  -3  -2  -6 81.8324 6.97342   1
  -3  -2  -6 88.8612 6.78679   2
   3   2   6 79.2464 6.72703   2
   3  -2   6 82.6235 6.97695   2
   3  -2   7 4.04535 2.02816   1
   3   2   7 0.35502 1.57309   2
   3  -2   7 0.50509 2.10073   2
  -3  -2  -7 1.57910 1.47397   2
  -3   2  -7-1.81634 1.97378   1
   3  -2   7 1.42849 1.99660   3
  -3  -2  -7-0.39520 2.15091   1
  -3   2  -7 2.78056 1.94114   2
  -3   2  -8 28.7501 3.05013   2
   3  -2   8 23.7966 3.18530   2
  -3  -2  -8 31.4821 2.73035   2
  -3   2  -8 26.0491 3.03139   1
   3   2   8 26.5620 2.74798   2
  -3  -2  -8 25.4862 3.12132   1
   3  -2   8 26.3480 3.17841   1
  -3  -2  -9 41.8111 3.55261   2
  -3   2  -9 35.6632 3.82332   2
   3   2   9 31.9993 3.70388   2
  -3   2  -9 46.8953 3.89967   1
   3  -2   9 38.3088 3.91868   2
   3  -2   9 41.4286 3.98299   1
   3  -2  10 31.2458 3.79611   2
   3  -2  10 34.2200 3.78733   1
   3   2  10 34.0401 3.67525   2
  -3   2 -10 39.9176 3.77730   1
  -3  -2 -10 34.0505 3.36761   2
  -3   2 -10 34.1034 3.63169   2
   3  -2  11 21.7147 3.32937   1
   3   2  11 16.5833 3.03797   2
   3  -2  11 15.2193 3.18855   2
  -3  -2 -11 19.8547 2.63306   2
  -3   2 -11 25.1748 3.19449   1
  -3   2 -11 16.1641 2.95364   2
   3  -2  12 9.81750 3.08781   1
   3  -2  12 7.31374 3.12175   2
  -3  -2 -12 7.06940 2.46572   2
  -3   2 -12 9.95175 3.00932   1
   3   2  12 6.44799 2.63069   2
  -3  -2 -13 6.25577 2.41083   2
  -3   2 -13 7.75903 3.24774   1
   3  -2  13 7.75384 3.55397   1
   3   2  13 4.76934 2.90422   2
   3  -2  14 19.6242 4.03380   1
  -3  -2 -14 21.6217 3.04972   2
   3   2  14 15.2567 3.43217   2
   3  -2  15 11.7988 4.07592   1
  -3  -2 -15 10.0661 2.90365   2
   3  -2  16 4.45750 4.47007   1
  -3  -2 -16 5.00153 3.01390   2
   3  -2  17-0.61833 4.54194   1
  -3  -2 -17-0.26845 3.18140   2
   3  -2  18 5.99425 4.77414   1
  -3  -2 -18 3.91411 3.34167   2
   3  -2  19 29.7778 5.67726   1
  -3  -2 -19 21.7662 4.12712   2
   3   2  19 24.7372 5.85340   1
  -3  -2 -20 3.06587 3.67967   2
   3  -2  20 8.48095 5.34143   1
  -3  -2 -21 2.56939 4.07733   2
   3  -3 -20 26.9231 4.58568   2
  -3   3  20 34.8167 5.57597   1
   3   3 -19 32.6223 4.85720   2
   3  -3 -19 36.6395 4.81621   2
  -3  -3  19 42.9613 6.41911   1
  -3   3  19 29.6291 5.57699   1
   3   3 -18 14.8456 3.91051   2
   3  -3 -18 9.99486 3.54590   2
  -3  -3  18 25.6317 5.46098   1
  -3   3  18 17.2371 4.61782   1
   3  -3 -17 4.38257 3.22492   2
   3   3 -17 0.49903 3.35344   2
  -3  -3  17-5.66784 5.13388   1
  -3   3  17 8.24510 4.04539   1
   3  -3 -16 5.77403 3.18481   2
   3   3 -16 0.09259 3.13514   2
  -3  -3  16 6.12195 4.52275   1
  -3   3  16 3.14412 3.84639   1
  -3  -3  15 2.33265 4.35678   1
   3  -3 -15 0.38141 3.06725   2
   3   3 -15-1.39838 3.07750   2
  -3   3  15 2.44589 3.58542   1
  -3   3  14 0.46034 2.85500   3
   3   3 -14 1.62899 2.94328   2
  -3   3  14 2.14636 3.34044   1
   3  -3 -14 1.06826 2.90226   2
  -3  -3  14 11.6110 4.29303   1
   3   3 -13 20.8426 3.26042   2
  -3   3  13 18.3473 3.16249   3
  -3   3  13 15.7530 3.60047   1
  -3   3  13 17.4460 3.45680   2
  -3  -3  13 27.1687 4.35058   1
   3  -3 -13 23.2630 3.49998   1
   3  -3 -13 13.6947 2.94352   2
   3  -3 -12 69.3814 5.96962   1
  -3   3  12 69.6203 5.99723   3
  -3  -3  12 63.2758 6.05169   2
   3  -3 -12 68.7869 5.80961   2
   3   3 -12 62.1713 5.94027   2
  -3  -3  12 69.0149 6.68246   1
  -3   3  12 73.7360 6.18353   1
  -3   3  12 81.0798 6.22263   2
   3   3 -11 24.3128 3.22780   2
   3  -3 -11 26.8054 3.16204   2
  -3   3  11 24.4056 3.38116   3
  -3   3  11 28.8822 3.57230   1
  -3   3  11 27.4045 3.58677   2
  -3  -3  11 22.3340 3.40848   2
  -3  -3  11 26.7447 4.21159   1
   3  -3 -11 24.5940 3.33948   1
   3   3 -10 130.209 10.7572   2
  -3   3  10 160.690 10.9146   2
  -3   3  10 143.901 10.8571   3
  -3  -3  10 127.459 11.1050   1
   3  -3 -10 136.175 10.6939   1
  -3  -3  10 137.949 10.8195   2
   3  -3 -10 139.773 10.7149   2
  -3   3  10 149.291 10.8323   1
   3   3  -9 286.581 22.4895   2
  -3   3   9 307.394 22.6736   4
  -3   3   9 356.338 22.5932   2
  -3  -3   9 278.658 22.6542   1
   3  -3  -9 328.210 22.4586   2
   3  -3  -9 278.517 22.4843   3
   3  -3  -9 307.998 22.4453   1
  -3  -3   9 280.833 22.4878   2
  -3   3   9 295.548 22.5417   3
  -3   3   9 310.104 22.4706   1
   3  -3  -8 83.1397 7.08101   3
  -3  -3   8 75.5225 7.43840   1
   3  -3  -8 90.9682 7.00915   1
  -3  -3   8 81.8348 7.06801   2
   3  -3  -8 91.1708 7.02813   2
   3   3  -8 88.8359 7.08488   2
  -3   3   8 99.5094 7.09387   1
  -3   3   8 84.3446 7.17644   3
  -3   3   8 105.723 7.24497   2
   3  -3  -7 119.395 8.31060   2
  -3   3   7 105.227 8.43324   3
   3   3  -7 104.754 8.29702   2
  -3   3   7 132.652 8.51629   2
  -3  -3   7 101.324 8.30259   2
   3  -3  -7 109.863 8.27418   1
   3   3  -7 98.6542 8.00790   3
  -3   3   7 121.253 8.33027   1
   3  -3  -7 104.715 8.38064   3
   3   3  -6 48.6363 4.42352   3
  -3  -3   6 53.2236 4.71401   2
   3  -3  -6 55.7160 4.69585   1
   3  -3  -6 57.8745 4.83220   3
  -3   3   6 78.5888 5.18192   2
   3  -3  -6 58.5845 4.70245   2
  -3   3   6 63.1214 4.99798   3
   3   3  -6 56.0781 4.68957   2
  -3   3   6 68.2857 4.75069   1
   3   3  -5 53.6615 4.91777   3
   3  -3  -5 70.3380 5.34965   2
   3  -3  -5 68.4935 5.11408   2
  -3   3   5 72.1216 5.06290   1
   3  -3  -5 65.7121 5.26443   3
  -3   3   5 70.1653 5.40951   3
  -3  -3   5 60.7117 5.11205   2
   3   3  -5 58.8850 5.03866   2
   3  -3  -4 119.507 7.78185   2
   3  -3  -4 108.656 7.62531   2
  -3   3   4 98.9611 7.48534   1
   3   3  -4 82.4568 7.47464   3
  -3   3   4 108.099 7.82137   3
   3  -3  -4 105.353 7.77327   3
  -3   3   4 97.6087 7.55462   1
   3   3  -4 96.9388 7.53260   2
  -3  -3   4 97.0918 7.56239   2
  -3   3   3 18.6040 2.17818   1
   3  -3  -3 20.5858 2.59789   2
  -3   3   3 16.9178 2.45761   3
   3  -3  -3 19.2034 2.43904   3
   3   3  -3 17.4131 2.08088   3
   3  -3  -3 22.5229 2.36195   2
   3   3  -3 20.1698 1.97882   2
  -3  -3   3 18.0537 2.05112   2
  -3   3   3 16.0629 1.88114   1
   3  -3  -2 236.580 16.1090   2
  -3   3   2 213.304 16.1361   3
   3  -3  -2 249.077 16.0767   2
  -3  -3   2 232.087 15.9559   2
  -3   3   2 207.676 15.8990   1
   3   3  -2 207.803 15.9998   3
   3   3  -2 213.318 15.9244   2
  -3   3   2 190.047 15.9328   1
   3  -3  -1 113.694 7.19417   2
  -3   3   1 83.7676 6.87394   1
  -3   3   1 86.0512 6.84601   1
  -3  -3   1 114.887 6.92380   2
   3   3  -1 80.9285 6.80078   2
   3   3  -1 88.9981 6.97363   3
   3  -3   0 69.8380 5.07758   2
   3   3   0 64.1424 4.79565   2
  -3   3   0 64.7193 4.88633   1
   3   3   0 56.7082 5.08201   3
   3  -3   0 67.7393 4.87228   1
  -3   3   0 64.3729 5.11794   2
   3   3   0 56.4681 4.71005   2
   3  -3   1 54.0052 3.88848   2
   3   3   1 47.1241 3.34464   2
   3  -3   1 52.4169 3.64080   1
  -3   3  -1 48.8779 3.83044   2
   3   3   1 30.8649 3.27816   2
  -3   3  -1 46.9961 3.51296   1
   3   3   1 47.5372 3.86571   3
   3  -3   1 51.8089 3.93906   3
  -3   3  -2 12.1433 1.71234   1
   3   3   2 14.8154 2.19204   3
   3  -3   2 12.7933 2.02435   2
  -3   3  -2 10.5561 2.29866   3
  -3   3  -2 15.7105 2.20971   2
   3   3   2 7.66550 1.08432   2
   3  -3   2 13.8048 2.28789   3
   3  -3   2 9.59996 1.83665   1
   3   3   2 10.9778 1.11950   2
  -3   3  -3 20.6869 2.28693   1
  -3   3  -3 25.9474 2.70567   2
   3  -3   3 22.8182 2.65968   2
  -3   3  -3 23.1193 2.77170   3
   3  -3   3 22.9980 2.73698   3
   3   3   3 21.0187 1.84583   2
   3   3   3 16.1269 3.01181   1
   3   3   3 22.0068 2.76768   3
   3  -3   3 22.6147 2.48177   1
   3   3   3 21.7539 1.80887   2
   3   3   4 3.84063 0.87304   2
   3  -3   4 5.01244 2.00863   2
   3   3   4 2.36054 2.35861   3
  -3   3  -4 6.42860 1.63448   1
   3   3   4 6.01967 2.47909   1
  -3  -3  -4 6.02813 1.20502   2
  -3   3  -4 5.04652 2.06804   2
   3   3   4 5.89462 2.26828   1
   3  -3   4 5.84548 2.10990   3
   3  -3   4 5.68252 1.84838   1
  -3   3  -5 69.2566 5.59879   1
  -3   3  -5 70.5948 5.79177   2
  -3  -3  -5 72.1072 5.40652   2
   3  -3   5 80.9121 5.80869   3
   3   3   5 64.3405 5.54031   4
   3  -3   5 70.8592 5.75188   1
   3   3   5 74.2307 5.86246   1
   3   3   5 71.2507 6.00806   1
   3   3   5 67.5115 5.32208   2
   3  -3   5 72.3693 5.71863   2
   3   3   6 1.39503 1.31237   2
   3  -3   6 0.90706 2.06325   2
   3  -3   6 2.34483 2.28860   1
  -3   3  -6 5.60943 2.23795   2
  -3  -3  -6 3.15176 1.40723   2
   3   3   6 3.84825 2.74109   1
  -3   3  -6 3.13481 1.89156   1
   3  -3   6 1.63071 2.10489   3
   3   3   6 1.92344 2.31034   1
   3   3   7 5.53823 2.47773   1
   3   3   7 6.71385 1.57713   2
   3  -3   7 2.90944 2.20502   2
  -3   3  -7 6.72080 2.19587   2
  -3  -3  -7 6.75757 1.56877   2
   3  -3   7 5.99653 2.44288   3
   3  -3   7 8.67310 2.61641   1
  -3   3  -7 4.93304 2.14849   1
  -3  -3  -8 19.5018 2.20152   2
   3   3   8 22.8761 3.00286   1
   3  -3   8 17.8871 2.89389   2
   3   3   8 17.5900 2.24706   2
   3  -3   8 25.3919 2.99692   3
   3  -3   8 19.8099 3.20673   1
  -3   3  -8 17.6374 2.95666   1
  -3   3  -8 18.9753 2.85837   2
  -3   3  -9 9.86595 2.60940   2
   3  -3   9 7.03472 2.64447   2
   3   3   9 14.8675 2.92318   1
  -3  -3  -9 13.8900 1.97636   2
   3  -3   9 10.8039 2.76887   3
  -3   3  -9 15.4188 2.85396   1
   3  -3   9 8.48476 2.89988   1
   3   3   9 9.79765 2.10665   2
  -3  -3 -10 2.89019 1.84286   2
   3  -3  10-1.60238 2.62066   2
   3   3  10 8.69355 3.03809   1
   3  -3  10 4.19881 2.75906   3
   3   3  10 1.26207 2.04384   2
   3  -3  10-0.14821 2.96264   1
  -3   3 -10 2.95481 2.73966   1
  -3   3 -10 4.51370 2.53287   2
  -3  -3 -10 0.20122 2.75869   1
  -3   3 -11 8.97950 2.83621   2
   3  -3  11 13.6431 3.15305   2
   3   3  11 14.6653 3.71438   1
  -3  -3 -11 18.8336 2.37547   2
  -3   3 -11 15.3539 3.22173   1
   3  -3  11 16.8916 3.15796   3
   3  -3  11 16.5493 3.38989   1
   3   3  11 13.2859 2.58140   2
   3   3  12 1.70711 3.81451   1
  -3  -3 -12 2.09113 2.12288   2
   3  -3  12 0.61254 3.45384   1
  -3   3 -12 1.11088 2.84765   2
  -3   3 -12 0.98667 3.20021   1
   3  -3  12 10.0525 3.08577   3
   3   3  12 2.95413 2.58658   2
   3  -3  13 20.0153 3.96556   1
   3   3  13 15.0566 4.53603   1
   3  -3  13 20.7217 3.38350   3
  -3  -3 -13 19.1856 2.82627   2
  -3   3 -13 18.5710 3.41360   2
   3   3  13 20.4738 3.22876   2
  -3   3 -14 38.1234 4.50649   2
   3  -3  14 26.5678 4.91389   1
   3   3  14 36.7394 4.29537   2
   3   3  14 37.5204 5.31697   1
  -3  -3 -14 36.1837 4.04306   2
   3  -3  14 50.4483 4.51312   3
  -3   3 -15 5.73615 3.45520   2
  -3  -3 -15 6.10221 2.74621   2
   3   3  15 2.64883 4.54238   1
   3  -3  15 8.09958 3.50118   3
   3  -3  15 3.59959 4.11795   1
   3   3  16 13.6730 4.99319   1
  -3   3 -16 8.50724 3.71955   2
  -3  -3 -16 13.6984 3.29595   2
   3  -3  16 7.75029 4.51468   1
   3   3  17 11.6128 5.21191   1
  -3   3 -17 3.97047 3.79452   2
   3  -3  17-2.18735 4.74820   1
   3  -3  17 6.33375 3.56639   3
  -3  -3 -17 6.14572 3.26476   2
  -3  -3 -18 3.02830 3.38550   2
  -3   3 -18 0.98573 3.82969   2
   3   3  18 0.89638 5.39161   1
   3  -3  18 5.51352 4.87740   1
   3  -3  19 28.4117 5.84837   1
  -3   4  19-0.45007 4.96462   1
   3   4 -18 11.6375 3.98530   2
  -3   4  18 14.4017 4.70822   1
   3  -4 -17 18.0152 3.54070   2
   3   4 -17 13.4841 3.94471   2
  -3   4  17 16.2895 4.51996   1
   3  -4 -16 1.05124 3.04881   2
   3   4 -16 0.39921 3.41461   2
  -3   4  16 3.42148 4.34767   1
   3  -4 -15 8.15390 3.04143   2
   3   4 -15-2.72646 3.15937   2
  -3   4  15-1.27249 4.20792   1
   3  -4 -14 0.20451 3.03326   2
   3   4 -14 1.48105 3.01258   2
  -3   4  14 5.91101 3.90343   1
   3  -4 -13 1.97147 2.61640   2
   3   4 -13 4.36335 2.89814   2
  -3   4  13-0.08081 3.32945   2
  -3   4  13 0.57178 3.53358   1
   3   4 -12 7.25548 2.99626   2
   3  -4 -12 15.3728 3.31178   1
  -3   4  12 24.6733 3.56939   2
  -3   4  12 18.4900 3.75182   1
   3  -4 -12 17.7186 2.86293   2
   3   4 -11 17.7707 2.85957   2
  -3   4  11 16.1947 3.45351   1
  -3   4  11 20.8595 3.36611   2
   3  -4 -11 16.8702 3.13276   1
  -3  -4  11 15.7065 3.05907   2
   3  -4 -11 15.1424 2.76574   2
  -3   4  10 4.00795 2.97581   2
   3   4 -10 2.73466 2.42590   2
  -3   4  10-0.16807 2.80884   1
   3  -4 -10 1.05727 2.84182   1
  -3  -4  10 4.91521 2.43614   2
   3  -4 -10 1.31506 2.02515   2
   3   4  -9 9.21753 2.36491   2
  -3   4   9 14.8191 2.84635   1
  -3   4   9 13.5817 3.27072   2
   3  -4  -9 7.78587 2.76304   3
   3  -4  -9 12.9581 2.74551   1
  -3  -4   9 11.7055 2.45359   2
  -3   4   9 8.17674 2.96396   3
   3  -4  -9 12.3487 2.31986   2
   3  -4  -8 102.365 7.72515   2
   3   4  -8 88.0946 7.68582   2
   3  -4  -8 96.8030 7.99726   3
  -3   4   8 103.044 8.10547   3
  -3  -4   8 99.6245 7.79878   2
   3   4  -8 90.2414 8.21262   1
  -3   4   8 116.711 8.04478   1
   3   4  -7 38.6287 3.39151   3
  -3  -4   7 36.4974 3.59785   2
  -3   4   7 40.5122 4.12763   3
  -3   4   7 41.9870 3.85994   1
   3  -4  -7 37.9916 3.54251   2
  -3   4   7 40.4218 3.67877   1
   3   4  -7 34.0594 4.40759   1
   3   4  -7 33.8065 3.56082   2
   3  -4  -7 44.8894 3.86840   2
   3  -4  -7 37.0219 3.95064   3
   3   4  -6 8.70796 1.91224   2
  -3   4   6 10.6897 2.11201   1
  -3   4   6 9.82205 2.87596   3
  -3   4   6 12.1675 2.38986   1
   3   4  -6 9.81805 1.82434   3
   3   4  -6 10.7739 3.44698   1
   3  -4  -6 12.1488 2.47835   2
  -3  -4   6 8.26290 2.01441   2
   3  -4  -6 10.5487 1.91595   2
   3  -4  -6 12.9631 2.48480   3
   3  -4  -5 28.6974 2.83797   2
   3   4  -5 20.2833 2.37644   2
   3   4  -5 20.3661 2.45341   3
  -3   4   5 28.6064 3.37920   3
  -3   4   5 26.5587 2.85923   1
   3  -4  -5 15.8165 2.86772   3
  -3  -4   5 20.1898 2.43843   2
   3  -4  -5 24.1309 2.49053   2
  -3   4   5 20.6657 2.43879   1
   3   4  -5 24.4160 3.81286   1
  -3   4   4 11.5168 1.88461   1
  -3   4   4 7.94917 2.55142   3
   3   4  -4 9.98417 1.73116   2
   3  -4  -4 12.5659 2.35731   2
   3   4  -4 8.86191 2.03996   3
   3  -4  -4 12.8003 1.96026   2
  -3  -4   4 7.60437 1.74664   2
   3   4  -4 9.17313 3.03301   1
   3  -4  -4 9.46355 2.37046   3
  -3   4   4 9.37560 2.32699   1
  -3  -4   3 9.66074 3.13723   1
   3  -4  -3 12.5515 2.29680   2
  -3   4   3 10.6255 2.57298   3
  -3  -4   3 8.81796 1.60917   2
   3  -4  -3 13.8024 2.00071   2
   3   4  -3 7.08123 2.05924   3
  -3   4   3 9.84189 2.15803   1
  -3   4   3 12.4573 1.87767   1
   3   4  -3 10.9758 3.01886   1
   3   4  -3 9.22804 1.52987   2
   3  -4  -2 25.5192 2.70586   2
   3  -4  -2 28.6428 2.81592   2
   3   4  -2 22.8710 3.45059   1
  -3  -4   2 28.3939 3.57217   1
  -3   4   2 23.1577 2.78771   1
   3   4  -2 26.5250 2.87821   3
  -3   4   2 25.1266 2.51915   1
  -3  -4   2 26.3576 2.30539   2
   3   4  -2 22.3405 2.21375   2
   3   4  -1 7.06411 0.98963   2
  -3  -4   1 5.47728 2.89266   1
   3   4  -1 6.16313 2.98130   1
  -3   4   1 7.92800 1.71213   1
   3  -4  -1 1.43448 2.18881   3
   3   4  -1 7.31518 1.17467   2
   3   4  -1 5.66728 2.08584   3
   3  -4  -1 7.56592 2.30862   2
   3  -4  -1 10.7367 2.07960   2
  -3   4   1 9.11007 1.87179   1
   3  -4   0-1.84338 1.81188   1
   3   4   0-0.53622 2.21268   3
   3   4   0 0.20185 0.42627   2
  -3  -4   0-1.44321 2.73906   1
  -3   4   0-1.04498 1.96912   2
  -3   4   0-0.51671 2.34891   3
   3  -4   0 0.77173 2.17287   3
   3   4   0 0.45591 0.57782   2
   3   4   0-2.62984 2.79116   1
   3  -4   0-0.45697 1.86725   2
  -3   4   0-1.00712 1.82305   1
  -3  -4  -1 7.70453 2.85639   1
   3  -4   1 9.13737 1.98900   2
  -3   4  -1 3.90957 2.03389   1
   3  -4   1 5.53332 2.34089   3
  -3   4  -1 4.26460 2.48773   3
   3   4   1 5.30532 2.21427   3
   3  -4   1 5.18134 2.04601   1
   3   4   1 1.42726 2.92174   1
  -3   4  -1 7.32884 2.21424   2
   3  -4   2 61.8234 5.38883   1
  -3   4  -2 59.5056 5.51672   3
   3   4   2 66.5510 5.81965   1
   3   4   2 60.8506 5.45018   3
  -3   4  -2 64.5887 5.36970   2
   3   4   2 70.5925 5.64320   1
  -3   4  -2 61.8271 5.21483   1
   3  -4   2 68.7900 5.51909   3
   3  -4   2 67.4327 5.27872   2
   3  -4   3 76.7515 6.77759   1
  -3   4  -3 93.1392 6.84046   2
   3   4   3 85.3062 7.13318   1
  -3   4  -3 88.9680 6.63877   1
   3  -4   3 83.6362 6.83455   3
   3   4   3 75.4991 6.79747   3
   3   4   3 87.5902 6.89534   1
  -3   4  -3 82.3087 6.85980   3
   3  -4   3 84.4047 6.68440   2
   3   4   4 3.20708 3.07977   1
   3   4   4 9.78241 2.61158   1
   3  -4   4 4.82081 2.07412   2
   3  -4   4 6.15480 2.35217   1
  -3   4  -4 6.49347 2.43014   3
   3   4   4 3.82966 2.55478   3
   3  -4   4 8.64589 2.46708   3
  -3   4  -4 7.24760 2.39720   2
  -3   4  -4 7.83767 2.11162   1
  -3   4  -5 227.037 16.8206   1
   3   4   5 231.723 17.1071   1
   3  -4   5 249.788 17.0648   3
   3   4   5 208.201 17.0212   3
  -3   4  -5 222.494 16.9356   2
   3   4   5 244.380 17.0836   1
   3  -4   5 217.164 16.9581   1
   3  -4   5 208.792 16.8604   2
   3  -4   6-0.18372 2.54919   1
   3  -4   6 4.36607 2.29221   2
   3   4   6 4.01164 3.07989   1
  -3   4  -6 1.82941 2.52088   2
  -3  -4  -6 0.80380 0.76237   2
   3   4   6-1.32684 2.64067   3
   3  -4   6 4.34371 2.70242   3
  -3   4  -6 2.18318 2.20408   1
   3   4   6 1.98806 0.64948   2
   3   4   6 1.02450 2.76824   1
  -3   4  -7 32.6976 3.44407   1
  -3   4  -7 36.2445 3.61200   2
  -3  -4  -7 30.9799 2.67148   2
   3   4   7 38.0012 3.45565   4
   3  -4   7 34.1180 3.66978   3
   3   4   7 35.8383 4.02044   3
   3   4   7 41.2246 3.96480   1
   3   4   7 28.1824 2.63601   2
   3  -4   7 36.4482 3.56591   2
   3   4   7 30.5832 4.07589   1
   3  -4   7 28.8257 3.68536   1
   3  -4   8 2.44055 2.54877   2
   3  -4   8 0.43949 2.59160   3
  -3   4  -8 4.05072 2.45896   2
   3   4   8 3.09706 2.93337   1
  -3  -4  -8 0.80578 1.47333   2
  -3   4  -8 4.70296 2.51681   1
   3   4   8 1.47101 3.29246   1
   3  -4   8-1.36072 3.07068   1
   3   4   8 2.61329 1.32019   2
   3   4   9-4.22574 3.19032   1
   3  -4   9 0.72462 2.70180   2
  -3   4  -9-0.39964 2.73891   2
  -3  -4  -9 2.14825 1.63889   2
  -3   4  -9 2.23641 2.75820   1
   3  -4   9 0.30282 2.58238   3
   3  -4   9 4.46107 3.14122   1
   3   4   9 0.69082 1.61145   2
   3   4  10 26.6181 3.90056   1
   3  -4  10 18.8237 3.35510   3
  -3   4 -10 17.9190 3.39873   1
   3  -4  10 22.9108 3.98343   1
  -3   4 -10 26.5041 3.44547   2
   3   4  10 17.3366 2.53980   2
  -3  -4 -10 23.9011 2.51296   2
   3   4  11-1.33111 3.65461   1
  -3   4 -11 4.69085 2.87439   2
  -3  -4 -11 1.24311 1.97100   2
   3  -4  11 1.75916 2.96752   3
  -3   4 -11 7.66199 3.19641   1
   3  -4  11 5.26979 3.90861   1
   3   4  11 1.94446 2.09566   2
   3   4  12 14.1430 3.99088   1
  -3  -4 -12 11.3129 2.28755   2
  -3   4 -12 11.0100 3.18202   2
   3  -4  12 9.71918 4.12826   1
   3  -4  12 15.1433 3.14628   3
  -3   4 -13 18.8016 3.69613   2
   3   4  13 27.4792 4.75997   1
  -3  -4 -13 18.4401 2.72780   2
   3  -4  13 21.0016 3.72709   3
   3  -4  13 21.0394 4.91603   1
   3   4  14 8.23865 5.16230   1
   3  -4  14 7.58172 3.31431   3
  -3   4 -14 5.70619 3.54857   2
   3  -4  14 7.19055 4.86867   1
  -3   4 -15 7.77070 3.60309   2
   3  -4  15 8.68437 3.47027   3
   3  -4  15 11.3507 5.43756   1
   3   4  15 13.4454 4.97171   1
  -3   4 -16-1.27083 3.76853   2
   3   4  16 2.78331 5.14567   1
   3  -4  16 4.19186 5.34894   1
   3  -4  16 9.45913 3.63912   3
  -3   4 -17 4.86988 3.87340   2
   3  -4  17 1.85183 5.66601   1
   3   4  17 0.78759 5.54265   1
   3  -4  18 26.8042 6.52763   1
   3   5 -17 7.61942 3.76836   2
   3   5 -16 0.10075 3.51727   2
  -3   5  16 6.45654 4.90195   1
   3   5 -15 5.95436 3.37631   2
  -3  -5  15 4.31902 5.58997   1
  -3   5  15 0.26858 4.66827   1
   3   5 -14 21.0894 3.71140   2
  -3  -5  14 24.5210 5.68620   1
  -3   5  14 12.7298 4.33473   1
   3   5 -13 2.23376 3.05656   2
  -3  -5  13-1.50120 5.18333   1
  -3   5  13 1.30362 3.95904   1
   3   5 -12 2.07932 2.81073   2
  -3  -5  12-1.46809 5.10822   1
  -3   5  12 5.83146 3.65361   1
   3   5 -11 7.90489 2.76371   2
  -3  -5  11-0.67214 4.72971   1
  -3   5  11 4.92533 3.65834   4
  -3   5  11 4.89446 3.56450   1
   3  -5 -11 4.01681 2.28993   2
  -3  -5  10 46.5485 5.42152   1
  -3   5  10 38.3226 4.73839   4
   3  -5 -10 37.3458 3.68439   2
  -3  -5  10 33.0377 3.85792   2
  -3   5  10 40.4566 4.33028   1
   3   5 -10 34.7753 3.91374   2
  -3   5   9 28.1192 3.89554   1
   3  -5  -9 29.2849 3.28054   2
  -3  -5   9 33.7542 3.54263   2
  -3  -5   9 30.6587 5.02964   1
  -3   5   9 44.2423 4.33439   1
   3   5  -9 31.8971 3.55286   2
   3   5  -8-0.75353 2.16847   2
  -3  -5   8 0.68113 4.14258   1
  -3   5   8 1.54237 2.81306   1
   3  -5  -8 3.11168 3.04822   3
  -3  -5   8 0.53928 2.14040   2
  -3   5   8 3.13718 2.84671   1
   3  -5  -8 0.17737 1.91605   2
   3   5  -8 1.16111 2.09085   3
  -3   5   7 29.6558 3.61772   1
   3   5  -7 25.1270 2.93403   2
  -3   5   7 26.5275 3.22061   1
   3   5  -7 23.9860 2.98078   3
   3  -5  -7 26.8584 3.65960   3
   3  -5  -7 26.6240 3.07354   2
  -3  -5   7 25.5703 2.88820   2
  -3  -5   7 26.8270 4.76260   1
   3  -5  -7 24.0416 2.77560   2
   3   5  -6 2.44012 2.08336   3
  -3   5   6 4.98293 2.78407   1
  -3   5   6 8.64114 2.27228   1
   3   5  -6 5.48368 1.89953   2
   3  -5  -6 3.71534 2.79016   3
  -3  -5   6 9.29830 4.24316   1
  -3  -5   6 7.49603 1.98300   2
   3  -5  -6 5.37764 1.82842   2
   3  -5  -6 6.75322 2.26524   2
   3   5  -5 29.4864 3.50116   3
  -3   5   5 37.1574 3.81503   1
  -3  -5   5 31.5137 3.22188   2
   3  -5  -5 45.4135 3.55986   2
  -3  -5   5 33.4287 4.97477   1
   3  -5  -5 38.2728 3.27364   2
  -3   5   5 35.9069 3.57022   1
   3   5  -5 33.9467 3.21662   2
   3  -5  -4 34.7553 2.88693   2
  -3  -5   4 25.0471 2.51572   2
   3  -5  -4 28.6485 2.72093   2
  -3   5   4 25.8677 2.92083   1
  -3   5   4 24.7459 3.20576   1
  -3  -5   4 33.3776 4.76103   1
   3   5  -4 21.1105 2.45608   2
   3   5  -4 22.6021 3.09584   3
   3  -5  -3 23.8966 2.47123   2
   3   5  -3 16.1065 1.86474   2
  -3   5   3 17.0528 2.96148   1
   3   5  -3 15.5941 2.74870   3
  -3  -5   3 25.8825 4.00323   1
  -3  -5   3 14.6503 1.95728   2
   3  -5  -3 20.9257 2.31399   2
  -3   5   3 17.8313 2.50840   1
   3   5  -3 23.5875 3.86730   1
   3   5  -2 16.2197 3.39447   1
  -3   5   2 17.0081 2.59488   1
  -3  -5   2 19.6884 3.78398   1
   3  -5  -2 15.6188 2.17084   2
   3   5  -2 17.6226 2.93303   3
   3  -5  -2 15.5480 3.20517   3
   3  -5  -2 19.6295 2.39152   2
  -3   5   2 14.4390 2.63750   1
   3   5  -2 13.3052 1.48287   2
  -3   5   1 7.00569 2.94169   3
   3   5  -1 7.36800 3.54071   1
   3   5  -1 9.44076 2.73033   3
  -3   5   1 11.0504 2.31067   1
   3  -5  -1 12.6592 3.02482   3
   3  -5  -1 15.7498 2.24880   2
   3  -5  -1 10.9639 2.05614   2
  -3   5   1 9.18144 2.56821   1
  -3  -5   1 18.1821 3.69423   1
  -3   5   0 41.3454 4.33520   1
  -3   5   0 48.7772 4.83385   3
   3  -5   0 57.7040 4.45291   2
   3   5   0 40.6969 4.65235   3
   3  -5   0 48.6036 4.76317   3
  -3  -5   0 53.0863 5.21268   1
   3   5   0 50.9666 5.31774   1
   3  -5   0 45.2228 4.15302   2
  -3   5  -1 44.8417 4.69867   3
   3  -5   1 44.9674 4.55012   3
   3   5   1 39.8637 4.54340   3
  -3   5  -1 44.6960 4.29366   1
   3   5   1 38.2292 4.87582   1
   3  -5   1 47.9834 4.34775   1
  -3   5  -1 45.1518 4.27246   2
   3  -5   1 49.2849 4.00475   2
   3   5   2 12.7506 3.15035   1
   3   5   2 10.7291 3.49432   1
   3  -5   2 14.0151 2.13487   2
  -3   5  -2 10.1207 2.42050   1
  -3   5  -2 11.0730 3.03361   3
  -3   5  -2 10.9143 2.55447   2
   3  -5   2 9.21225 3.10677   3
   3   5   2 15.8760 2.99954   3
   3  -5   2 12.4875 2.72392   1
   3   5   3 48.6125 5.32457   1
  -3   5  -3 49.4370 4.52921   2
  -3   5  -3 48.6434 4.44489   1
  -3   5  -3 46.7295 4.72316   3
   3   5   3 42.9241 4.87946   3
   3  -5   3 48.6426 4.85633   3
   3   5   3 58.7849 5.02929   1
   3  -5   3 51.3202 4.85171   1
   3  -5   3 44.9658 4.24613   2
   3  -5   4 68.5049 6.50792   1
  -3   5  -4 78.1848 6.36219   2
  -3   5  -4 76.7892 6.23263   1
   3   5   4 86.7154 6.77393   1
   3  -5   4 74.3476 6.53023   3
  -3   5  -4 76.4573 6.55646   3
   3   5   4 68.0787 6.66999   3
   3  -5   4 75.6273 6.14188   2
   3  -5   5 238.657 19.6147   1
  -3   5  -5 263.517 19.6053   2
  -3   5  -5 259.071 19.4681   1
   3  -5   5 265.971 19.6782   3
   3   5   5 296.283 19.7647   1
  -3   5  -5 262.156 19.6359   3
   3  -5   5 247.684 19.4265   2
  -3   5  -6 52.2079 5.02722   1
  -3   5  -6 61.2948 5.28703   2
   3  -5   6 40.5007 5.37278   1
   3   5   6 68.9030 5.51158   1
   3  -5   6 58.4447 5.43135   3
   3  -5   6 53.4119 4.87625   2
   3  -5   7 5.01296 2.49394   2
  -3   5  -7 4.30291 2.94644   2
   3  -5   7 2.71922 3.00895   3
   3  -5   7 4.55120 3.57654   1
  -3   5  -7 3.09491 2.57433   1
   3   5   7 8.94801 3.39422   1
   3  -5   8 3.78573 2.59353   2
   3  -5   8 0.81794 3.67873   1
   3  -5   8-2.67016 3.06848   3
  -3   5  -8-0.35705 2.64124   1
   3   5   8 1.29531 2.75563   4
  -3   5  -8 0.66571 2.90802   2
   3   5   8 2.53138 3.39793   1
   3   5   9 13.3828 3.69321   1
   3  -5   9 11.0950 3.94717   1
   3  -5   9 13.1871 3.41401   3
  -3   5  -9 7.64988 2.98706   1
  -3   5  -9 13.3210 3.28875   2
   3   5  10 6.28160 3.71377   1
   3  -5  10 2.15566 3.85488   1
   3  -5  10 10.2306 3.42531   3
  -3   5 -10 5.03065 3.32293   2
   3  -5  11-6.12064 3.98132   1
   3   5  11-0.10536 3.95438   1
   3  -5  11 1.20800 3.39979   3
  -3   5 -11 0.19743 3.38529   2
   3   5  12-2.66742 4.17474   1
   3  -5  12 4.58378 3.50379   3
  -3   5 -12-2.07010 3.40885   2
   3  -5  12 1.40351 4.18027   1
   3   5  13 26.0421 5.17482   1
  -3   5 -13 26.5747 4.37426   2
   3  -5  13 32.4427 4.51977   3
   3  -5  13 23.6872 5.20894   1
   3   5  14 5.49701 4.87918   1
   3  -5  14 0.99786 3.63452   3
   3  -5  14-6.48580 5.03670   1
  -3   5 -14-0.45521 3.76420   2
  -3   5 -15 13.0727 4.27644   2
   3   5  15 10.5468 5.81498   1
   3  -5  15 19.8451 5.73548   1
  -3   5 -16 3.91328 4.18166   2
   3  -5  16 4.79361 5.59479   1
   3  -5  17-2.69960 5.90791   1
  -3  -6  13 7.07360 5.55859   1
   3   6 -12 19.0650 3.60712   2
  -3  -6  12 27.2798 5.78821   1
  -3   6  11 55.2660 6.42344   4
  -3  -6  11 57.9242 7.24100   1
   3   6 -11 61.8380 5.54684   2
   3   6 -10 9.54557 2.97655   2
  -3   6  10 13.3570 4.05788   1
  -3  -6  10 10.0993 5.29742   1
   3   6  -9 10.9229 2.72467   2
  -3   6   9 10.2897 3.57237   1
  -3  -6   9 17.3386 5.27516   1
  -3  -6   8 3.07987 5.07703   1
  -3   6   8 2.45057 2.91029   1
   3   6  -8 2.58855 2.30372   2
   3  -6  -8 5.51692 3.58219   3
  -3   6   7 4.81049 2.89711   1
  -3  -6   7-3.81144 5.04303   1
   3   6  -7-0.43740 2.10950   2
   3  -6  -7-0.85172 3.49882   3
  -3   6   6 28.7769 3.59846   1
  -3  -6   6 41.3564 5.66184   1
  -3   6   5 2.86833 2.52411   1
  -3  -6   5 5.50902 4.53405   1
   3  -6  -4 3.22831 3.15979   3
   3   6  -4 2.24516 2.66102   3
  -3  -6   4 7.59981 4.34591   1
  -3   6   4 5.57854 2.46176   1
  -3  -6   3 11.8572 4.13189   1
   3   6  -3 3.89964 3.11255   3
   3  -6  -3 8.00522 3.11858   3
  -3   6   3 10.7908 2.63765   1
   3   6  -2 17.2083 3.58920   3
   3  -6  -2 25.7088 3.71993   3
   3  -6  -2 21.8633 2.53149   2
  -3   6   2 14.9757 3.14862   1
  -3  -6   2 28.7359 4.54044   1
  -3  -6   1 36.5681 4.89809   1
   3  -6  -1 31.3440 3.23131   2
  -3   6   1 29.8780 3.62686   1
   3  -6  -1 31.6862 4.30545   3
  -3   6   0 16.6822 2.83906   1
   3  -6   0 13.3707 3.56161   3
   3  -6   0 6.08292 2.36215   2
   3  -6   1 19.7910 3.86767   3
   3  -6   1 25.8159 3.35642   2
   3   6   1 17.4600 3.88994   1
   3  -6   2 7.63451 3.58158   3
  -3   6  -2 12.8044 2.80156   2
   3  -6   2 14.5814 3.31298   1
   3   6   2 14.3650 3.63470   1
   3  -6   3 31.8868 4.03779   1
  -3   6  -3 31.4212 3.61778   2
   3  -6   3 27.0601 4.06167   3
   3   6   3 26.0905 4.30771   1
  -3   6  -4 46.0046 4.41646   2
   3  -6   4 37.4866 4.77311   3
   3  -6   4 42.0598 4.93712   1
   3   6   4 47.3766 5.15456   1
  -3   6  -5 5.89346 2.99799   2
   3  -6   5 6.21759 3.44799   3
   3  -6   5 1.64894 3.91571   1
   3   6   5 14.5687 3.82332   1
   3  -6   6 14.5371 4.12207   1
   3  -6   6 12.5814 3.50554   3
  -3   6  -6 11.6897 3.29790   2
   3   6   6 11.2530 3.76944   1
  -3   6  -7 12.2560 3.43692   2
   3  -6   7 11.1915 3.69025   3
   3  -6   7 18.7270 4.26845   1
   3   6   7 13.5407 3.98051   1
   3   6   8 12.9230 3.48483   4
   3  -6   8 12.9146 3.81214   3
  -3   6  -8 9.30656 3.65950   2
   3  -6   8 19.6971 4.32177   1
   3   6   8 12.8731 4.04311   1
   3   6   9 21.9372 4.48255   1
  -3   6  -9 17.6018 3.93158   2
   3  -6   9 21.5023 4.00339   3
   3  -6   9 26.5324 4.78900   1
   3  -6  10 25.4074 4.12745   3
   3   6  10 28.8214 4.82181   1
   3  -6  10 25.7056 4.88339   1
  -3   6 -10 16.7301 4.13167   2
   3  -6  11 7.61193 5.02922   1
  -3   6 -11 2.32747 3.71254   2
   3  -6  11 2.56752 3.70237   3
   3   6  11-3.93631 4.25999   1
   3  -6  12 43.0462 7.11517   1
  -3   6 -12 44.4789 5.88355   2
   3   6  12 66.8917 6.46162   1
   3  -6  12 62.0701 5.97244   3
   3   6  13 1.13721 4.74866   1
   3  -6  13 11.8760 5.66000   1
  -3   6 -13 2.43443 4.09683   2
   3  -6  14 18.8135 5.93322   1
  -3   6 -14 12.0951 4.44348   2
   3  -6  15 2.17399 5.84391   1
  -3   6 -15-1.54213 4.37717   2
  -3  -7   9-5.02003 6.00292   1
  -3  -7   8 8.84628 5.96541   1
  -3  -7   7 3.68565 5.45607   1
  -3  -7   6 4.84576 5.12722   1
  -3  -7   5 9.34228 5.05103   1
   3  -7  -5 6.13220 3.81839   3
   3  -7  -4 0.60544 3.73765   3
  -3  -7   4 4.64910 4.85467   1
  -3  -7   3 11.5714 4.90118   1
   3  -7  -3 9.37225 4.03854   3
   3  -7  -2 29.8719 4.70081   3
  -3  -7   2 39.5441 5.74949   1
   3  -7  -1 9.53304 3.84020   3
   3  -7   0 31.2395 4.86039   3
   3   7   0 46.2075 5.22038   1
   3   7   1 5.39912 3.91101   1
   3  -7   1 2.57517 3.62209   3
   3  -7   2-0.22218 3.65091   3
   3   7   2 1.60265 4.22452   1
   3  -7   3 19.2303 4.22180   1
   3  -7   3 17.0922 4.33481   3
   3   7   3 21.8913 4.36238   1
   3  -7   4 10.2181 4.08521   3
   3  -7   4 5.05605 3.96903   1
   3   7   4 0.11303 3.98512   1
   3  -7   5 10.4160 4.15446   3
   3  -7   5-0.48747 4.23782   1
   3   7   5 5.45080 4.05803   1
   3  -7   6 8.43914 4.05136   3
   3  -7   6 12.1566 4.49977   1
   3   7   6 7.77197 4.27775   1
   3  -7   7 3.71472 4.85451   1
   3  -7   7 2.86210 4.06772   3
   3   7   7 9.83729 4.38727   1
   3  -7   8 5.31830 4.96048   1
   3   7   8 10.3204 3.68640   4
   3  -7   8 7.96171 4.00142   3
   3   7   8-0.69436 4.17667   1
   3   7   9 3.62347 4.75505   1
   3   7   9 7.11957 3.72457   4
   3  -7   9 4.77204 3.94150   3
   3  -7   9 4.94546 5.12675   1
   3   7  10 14.9502 4.72081   1
   3  -7  10 7.60640 4.38415   3
   3   8  -2 18.2840 4.86875   1
   3   8  -1 5.04247 4.44993   1
   3   8   0-1.66566 4.27528   1
   3   8   1 19.0527 4.73910   1
   3   8   2 50.4317 6.28124   1
   3  -8   3 9.04757 4.27624   3
   3   8   3 11.0387 4.66053   1
   3  -8   4 9.12232 4.41559   3
   4   0 -20 14.2487 4.12109   2
  -4   0  20 10.1538 4.99962   1
   4   0 -19 1.15622 3.65450   2
  -4   0  19 9.07189 4.66954   1
   4   0 -18 18.9466 4.01792   2
  -4   0  18 17.6987 4.55911   1
   4   0 -17 6.78324 3.64725   2
  -4   0  17 13.2394 4.26856   1
   4   0 -16-1.12200 3.23619   2
  -4   0  16-7.81106 3.84274   1
   4   0 -15 15.5134 3.34975   2
  -4   0  15 10.3705 3.74157   1
  -4   0  14 6.02984 3.46695   1
   4   0 -14 2.33688 3.49758   1
  -4   0  14 2.87596 1.29453   3
   4   0 -14 2.61364 2.77942   2
  -4   0  13 60.8099 5.15211   1
   4   0 -13 63.2757 4.99073   4
  -4   0  13 47.9019 4.07860   3
   4   0 -13 48.4825 4.88232   2
   4   0 -13 56.4356 5.29231   1
   4   0 -12 31.0514 3.88009   1
  -4   0  12 25.5372 3.59768   1
   4   0 -12 26.2630 3.47148   4
  -4   0  12 29.2466 3.67585   2
  -4   0  12 25.2633 2.31285   3
   4   0 -12 29.8673 3.38210   2
   4   0 -11 20.7896 2.84595   4
  -4   0  11 15.1725 2.83313   1
  -4   0  11 14.6892 1.62631   3
   4   0 -11 15.8423 3.24505   1
   4   0 -11 17.7943 2.61885   2
  -4   0  10 5.00864 2.36130   1
  -4   0  10 0.61751 0.96450   3
   4   0 -10-0.09706 2.66469   1
   4   0 -10 0.42674 2.07857   4
   4   0 -10-2.87953 2.15373   2
  -4   0   9 124.624 8.83483   1
   4   0  -9 111.990 8.83270   4
  -4   0   9 110.809 8.44522   3
   4   0  -9 110.755 8.82369   1
  -4   0   8 7.27486 1.24675   3
   4   0  -8 10.3875 2.11194   4
  -4   0   8 8.59038 2.27209   1
   4   0  -8 9.79469 2.33200   1
   4   0  -7 3.89368 1.94538   4
   4   0  -7 0.22207 0.94010   3
  -4   0   7 0.66120 0.99668   3
  -4   0   7 0.43430 2.00439   1
   4   0  -7-2.31523 2.07196   1
  -4   0   6 0.99817 1.93585   1
   4   0  -6 2.09140 1.04334   3
   4   0  -6-0.22302 1.81426   1
   4   0  -5 693.521 49.5409   1
  -4   0   5 664.531 49.5425   1
   4   0  -5 671.570 49.4766   3
   4   0  -4 166.057 11.3844   1
   4   0  -4 150.770 11.2496   3
  -4   0   4 140.685 11.5238   2
  -4   0   4 149.031 11.3383   1
   4   0  -3 33.9840 3.09112   1
  -4   0   3 38.0440 3.70206   2
  -4   0   3 38.9886 3.24319   1
   4   0  -3 36.2168 3.00030   3
  -4   0   2 153.675 12.0353   1
   4   0  -2 172.471 12.0339   1
   4   0  -2 160.117 12.0370   3
  -4   0   1 2.90606 1.55708   1
   4   0  -1 2.06903 1.57354   1
   4   0   0 388.257 26.8430   1
   4   0   0 363.391 26.9658   2
   4   0   0 353.607 26.7949   1
  -4   0   0 357.212 26.9360   2
   4   0   1 44.0429 4.15670   2
  -4   0  -1 47.5392 4.02368   2
   4   0   1 44.7868 3.75277   1
   4   0   1 44.9340 3.66212   1
   4   0   2 192.585 14.9102   2
  -4   0  -2 199.830 14.8734   2
  -4   0  -2 203.745 14.7270   1
   4   0   2 197.295 14.7186   1
   4   0   3 828.312 64.0475   2
  -4   0  -3 859.633 64.0538   2
  -4   0  -3 884.455 63.9370   1
   4   0   3 891.821 63.9376   1
   4   0   4 9.41435 1.66623   1
  -4   0  -4 13.4430 2.08927   2
   4   0   4 9.33681 2.27041   2
  -4   0  -4 11.0210 1.77257   1
  -4   0  -5 263.302 19.0235   2
  -4   0  -5 269.776 18.9179   1
   4   0   5 251.604 18.9502   1
   4   0   5 229.691 19.0399   2
   4   0   6 0.79569 2.11088   2
  -4   0  -6 1.73215 1.93133   2
   4   0   6 2.66838 2.08157   1
  -4   0  -6 3.86346 1.69036   1
  -4   0  -7 1.01043 1.72186   1
   4   0   7 1.43557 2.13061   2
   4   0   7 2.70263 2.17667   1
  -4   0  -7 3.29403 1.92221   2
  -4   0  -8 3.43972 1.95548   1
   4   0   8 3.58359 2.28031   2
  -4   0  -8 1.25540 1.95538   2
   4   0   8 0.15428 2.30294   1
  -4   0  -9-1.06076 2.00153   1
   4   0   9 1.02569 2.25442   2
   4   0   9 0.34162 2.57489   1
  -4   0  -9 0.23740 2.03902   2
  -4   0 -10 52.6888 4.67596   2
  -4   0 -10 53.0507 4.60913   1
   4   0  10 48.1192 4.69850   2
   4   0  10 55.4322 4.95492   1
  -4   0 -11 209.467 15.2413   2
  -4   0 -11 206.238 15.1908   1
   4   0  11 168.925 15.2259   2
   4   0  11 217.334 15.4152   1
  -4   0 -12 1.36924 2.51014   1
   4   0  12 0.76920 2.79731   2
  -4   0 -12 4.00107 2.48186   2
   4   0  12 6.03999 3.59468   1
  -4   0 -13 46.2648 4.75856   2
   4   0  13 51.3628 5.46121   1
   4   0  14-0.09113 3.79362   1
  -4   0 -14 1.35206 2.78618   2
  -4   0 -15 9.90968 3.22059   2
   4   0  15 17.5611 4.28452   1
   4   0  16 24.9121 4.74123   1
  -4   0 -16 27.2037 3.88762   2
  -4   0 -17 11.8980 3.48170   2
   4   0  17 10.9631 4.58551   1
  -4   0 -18 3.87950 3.57191   2
   4   0  18 1.37084 4.87744   1
  -4   0 -19 16.0375 3.95392   2
   4   0  19 17.4264 5.20951   1
  -4   0 -20 7.33188 4.03065   2
   4   0  20 13.6309 5.56838   1
  -4   1  21 4.55038 5.14357   1
   4  -1 -20 2.05350 3.86295   2
  -4   1  20-0.99569 4.82349   1
  -4  -1  20-5.57623 5.62024   1
   4  -1 -19 13.3486 3.78991   2
  -4   1  19 6.33061 4.61215   1
  -4  -1  19 6.60891 4.97220   1
   4  -1 -18 16.7614 4.09963   2
  -4   1  18 26.6318 4.96623   1
  -4  -1  18 24.8618 5.18633   1
  -4   1  17 11.7503 4.31130   1
   4  -1 -17 10.9109 3.55812   2
  -4  -1  17 3.73032 4.46663   1
   4  -1 -16 6.38953 3.39526   2
  -4   1  16 8.22623 3.79056   1
  -4  -1  16 11.4359 4.52686   1
   4  -1 -15 10.1235 3.25442   2
  -4   1  15 13.4311 3.52161   1
  -4  -1  15 4.06663 4.04359   1
   4  -1 -14 16.1395 3.52864   1
  -4   1  14 15.5089 3.48211   1
  -4  -1  14 12.8814 3.80034   1
  -4   1  14 11.0397 2.06206   3
   4  -1 -14 7.46892 2.88770   2
  -4   1  13 64.2860 5.78437   1
   4  -1 -13 66.4394 5.88447   1
  -4   1  13 58.7095 5.07330   3
   4  -1 -13 64.3128 5.58323   2
  -4  -1  13 67.9054 6.04478   1
   4   1 -13 56.5359 6.02019   1
  -4   1  12 16.4191 3.02021   1
   4  -1 -12 19.8705 3.46755   1
  -4  -1  12 17.7031 3.61250   1
   4   1 -12 18.2790 3.38669   1
  -4   1  12 17.6920 2.19759   3
  -4   1  12 18.7742 3.16248   2
  -4  -1  12 18.9282 3.27875   2
   4  -1 -12 14.1867 2.83116   2
   4   1 -12 13.5516 2.87512   2
  -4   1  11 39.6777 3.80715   1
  -4   1  11 39.1571 4.18643   2
  -4   1  11 38.4024 3.38051   3
  -4  -1  11 39.6142 4.03709   2
  -4  -1  11 41.6614 4.46700   1
   4  -1 -11 39.1567 3.99653   1
   4  -1 -11 35.6669 3.81392   2
   4   1 -11 30.8787 3.76161   2
   4   1 -11 36.0326 4.01871   1
  -4   1  10 2.98486 2.19916   1
   4  -1 -10 2.20573 2.45271   1
  -4   1  10 0.66667 1.63710   3
  -4  -1  10-4.97673 2.76741   1
   4   1 -10-0.05435 2.52533   1
  -4   1  10 3.64922 2.61840   2
  -4  -1  10 2.95859 2.46133   2
   4  -1 -10-3.04721 2.38003   2
   4   1 -10-4.18171 2.21321   2
  -4   1   9 12.8982 2.28285   1
  -4   1   9 13.7579 1.81656   3
  -4  -1   9 16.5663 2.98209   1
   4  -1  -9 9.13095 2.40210   1
   4  -1  -9 8.87575 1.75147   3
  -4   1   9 6.93642 2.66857   2
  -4  -1   9 8.34876 2.54851   2
   4   1  -9 11.2077 2.69062   1
   4  -1  -9 12.0205 2.30217   2
   4   1  -9 12.7476 2.26486   2
  -4   1   8 4.86582 1.86616   1
  -4  -1   8 10.0706 2.38098   1
  -4   1   8 5.38670 1.54878   3
   4  -1  -8 5.37475 1.46246   3
   4  -1  -8 4.48269 2.09594   1
  -4   1   8 9.25864 2.46269   2
  -4  -1   8 1.87067 2.29349   2
   4  -1  -8 7.11970 1.93940   2
   4   1  -8 2.99827 2.30620   1
   4   1  -8 6.36679 2.13109   2
  -4   1   7 9.64906 1.85553   1
  -4   1   7 9.59063 1.76209   3
   4  -1  -7 12.5672 1.74694   3
  -4   1   7 14.1884 2.65667   2
  -4  -1   7 11.9564 2.33382   2
  -4  -1   7 14.8921 2.48301   1
   4  -1  -7 10.8948 2.07979   2
   4  -1  -7 11.9316 2.11335   1
   4   1  -7 9.84697 2.01165   2
   4   1  -7 13.1520 2.49288   1
  -4   1   6 92.4955 7.53197   1
   4   1  -6 105.201 7.77377   1
  -4   1   6 102.089 7.57170   3
   4  -1  -6 97.9090 7.52593   3
  -4   1   6 116.918 7.84469   2
  -4  -1   6 89.7752 7.75593   2
   4  -1  -6 97.8928 7.66761   2
  -4  -1   6 105.107 7.79751   1
   4   1  -6 106.897 7.67071   2
   4  -1  -6 90.6110 7.54997   1
   4   1  -5 38.5994 3.70741   3
  -4   1   5 53.4273 3.98422   1
  -4   1   5 56.8327 4.20083   4
   4   1  -5 54.7875 4.37786   1
   4   1  -5 61.1370 4.19903   2
  -4  -1   5 55.0800 4.36738   2
  -4   1   5 61.3864 4.42654   2
  -4  -1   5 54.3843 4.37097   1
   4  -1  -5 58.4165 4.27156   2
   4  -1  -5 63.2259 4.03254   3
   4  -1  -5 49.4241 4.01503   1
  -4   1   5 56.4780 4.13794   3
   4   1  -4 145.457 10.9121   2
   4   1  -4 154.014 11.0639   1
  -4   1   4 144.360 10.7809   1
  -4   1   4 137.118 10.8597   3
   4  -1  -4 134.132 10.9581   2
  -4  -1   4 143.165 11.0089   2
  -4   1   4 172.767 11.1502   2
  -4  -1   4 154.012 11.0644   1
   4  -1  -4 137.205 10.7695   1
   4  -1  -4 154.253 10.8523   3
  -4   1   3 321.817 23.1152   3
   4   1  -3 335.072 23.1828   1
  -4  -1   3 309.773 23.1929   2
  -4   1   3 298.855 22.9875   1
   4  -1  -3 317.919 23.1785   2
   4  -1  -3 345.284 23.1203   3
   4   1  -3 329.649 23.1478   2
   4  -1  -3 290.524 22.9728   1
  -4  -1   3 363.885 23.1956   1
  -4   1   2 218.388 19.5388   1
  -4  -1   2 355.286 19.8479   1
   4  -1  -2 333.136 19.7363   3
   4  -1  -2 335.870 19.8991   2
   4  -1  -2 294.788 19.8014   2
   4   1  -2 308.419 19.7498   2
   4   1  -2 350.319 19.7942   1
  -4  -1   2 345.433 19.9310   2
   4  -1  -2 252.321 19.5322   1
   4  -1  -1 122.392 10.0929   2
   4  -1  -1 127.157 10.1614   2
   4  -1  -1 140.628 9.97768   3
   4   1  -1 127.011 10.0140   2
   4   1  -1 121.932 9.93726   2
  -4  -1   1 145.425 10.0368   1
   4   1  -1 139.615 9.99871   1
   4   1   0 220.961 15.3266   1
   4  -1   0 195.207 15.4400   2
   4   1   0 182.337 15.2987   2
   4  -1   0 208.094 15.3182   3
   4   1   0 189.204 15.2950   2
  -4  -1   0 242.233 15.3596   1
  -4   1  -1 52.7147 3.93062   1
   4  -1   1 55.6488 4.69702   2
   4   1   1 52.2673 4.34677   2
   4  -1   1 52.3615 4.32448   3
  -4  -1  -1 46.4460 4.31794   2
   4   1   1 52.5345 4.23348   1
   4   1   1 60.1997 4.44190   1
   4  -1   1 50.7001 3.94764   1
   4  -1   2 360.586 28.9388   2
   4   1   2 398.791 28.8729   2
  -4  -1  -2 392.945 28.8830   2
   4   1   2 417.661 28.8579   1
  -4   1  -2 394.120 28.7092   1
   4   1   2 412.975 28.8409   1
   4  -1   2 376.660 28.7155   1
   4   1   3 597.571 45.4712   2
  -4  -1  -3 618.753 45.4824   2
   4   1   3 660.254 45.4691   1
  -4   1  -3 632.744 45.3551   1
   4  -1   3 593.104 45.3686   1
   4   1   4 77.0115 6.32444   2
  -4  -1  -4 85.3654 6.39600   2
  -4   1  -4 83.4399 6.17124   1
   4   1   4 78.4418 6.31688   1
  -4  -1  -4 80.0233 6.33877   1
   4  -1   4 81.0265 6.26908   1
  -4  -1  -5 223.074 15.5785   2
  -4  -1  -5 206.345 15.5366   1
   4   1   5 201.964 15.5274   1
  -4   1  -5 212.544 15.4426   1
   4  -1   5 207.621 15.4895   1
   4   1   5 198.472 15.5490   2
  -4  -1  -6 43.1330 3.70470   2
  -4  -1  -6 40.9463 3.70671   1
   4   1   6 41.9457 3.71071   1
  -4   1  -6 39.1751 3.49856   1
   4   1   6 33.6952 3.62853   2
   4  -1   6 42.2666 3.70020   1
  -4   1  -7 13.7738 2.14501   1
   4   1   7 16.4607 2.49741   1
   4   1   7 12.5771 2.24232   2
  -4   1  -7 12.9397 2.42532   2
   4  -1   7 14.4692 2.38428   1
  -4  -1  -7 16.8351 2.26681   2
  -4  -1  -7 16.6101 2.37739   1
   4   1   8 9.52219 2.32428   2
  -4   1  -8 10.4299 2.13078   1
   4   1   8 15.5631 2.62912   1
  -4   1  -8 13.9708 2.40229   2
  -4  -1  -8 12.1677 2.26264   2
   4  -1   8 13.2322 2.52469   1
  -4  -1  -8 13.6259 2.33343   1
   4   1   9 19.4605 2.93999   2
   4   1   9 27.1474 3.58175   1
  -4   1  -9 20.6272 2.96207   2
  -4  -1  -9 25.5381 2.89973   2
   4  -1   9 24.4263 3.01255   1
  -4   1  -9 26.2007 2.78542   1
  -4  -1  -9 21.4180 2.85154   1
  -4   1 -10 40.9261 3.88042   2
  -4  -1 -10 37.9994 3.82537   2
  -4   1 -10 44.8667 3.90928   1
   4   1  10 43.7599 4.40856   1
   4   1  10 34.0804 3.90658   2
   4  -1  10 41.3746 4.16558   2
  -4  -1 -10 40.5967 3.92370   1
   4  -1  10 36.7469 4.05574   1
   4   1  11 7.37751 2.74859   2
   4  -1  11 5.04774 2.87711   2
  -4   1 -11 5.71295 2.45234   1
   4   1  11 6.77572 3.26687   1
  -4   1 -11 4.49626 2.50036   2
   4  -1  11 14.3126 2.90349   1
  -4  -1 -11 9.06180 2.34361   2
  -4  -1 -11 8.96601 2.59413   1
  -4  -1 -12 97.5443 8.41077   2
  -4   1 -12 116.284 8.54991   2
   4  -1  12 111.700 8.68388   1
  -4  -1 -12 108.100 8.44726   1
  -4   1 -12 102.584 8.39014   1
   4   1  12 94.3209 8.53065   2
   4  -1  12 103.218 8.59842   2
   4   1  12 114.123 8.90048   1
  -4  -1 -13 61.3167 5.27218   2
  -4   1 -13 50.4703 5.40398   2
   4  -1  13 64.6773 5.77149   1
  -4   1 -13 58.2460 5.27919   1
   4   1  13 50.0428 5.60760   2
   4   1  13 64.9495 5.94965   1
  -4  -1 -14 15.0744 2.93462   2
   4   1  14 10.3519 4.08436   1
  -4   1 -14 8.62535 3.12162   2
   4  -1  14 6.20003 3.81975   1
   4   1  15 12.4285 4.46515   1
  -4  -1 -15 7.25617 3.03436   2
  -4   1 -15 5.29350 3.07775   2
   4  -1  15 11.1974 3.93319   1
  -4  -1 -16 12.3255 3.49323   2
  -4   1 -16 12.3279 3.61592   2
   4  -1  16 18.9157 4.44198   1
  -4   1 -17 33.3448 4.85883   2
  -4  -1 -17 39.2466 4.93860   2
   4  -1  17 38.4610 5.58295   1
  -4  -1 -18 8.00144 3.56397   2
  -4   1 -18 6.73872 3.66326   2
   4   1  18 5.13845 4.97422   1
   4  -1  18 8.53642 4.67937   1
  -4   1 -19 9.82990 3.99963   2
  -4  -1 -19 7.83429 3.67668   2
   4   1  19 5.55848 5.21853   1
   4  -1  19 8.55235 4.91998   1
  -4  -1 -20 9.17999 3.79514   2
   4  -1  20-3.53779 5.31824   1
  -4   2  21 7.92648 5.19322   1
  -4   2  20 41.1730 6.06400   1
   4  -2 -20 35.1056 5.05110   2
  -4   2  19 22.6631 4.93930   1
   4  -2 -19 16.2325 4.18646   2
   4   2 -19 18.5810 4.23505   2
  -4  -2  19 22.7384 6.03455   1
   4  -2 -18 17.6219 3.88874   2
  -4  -2  18 13.3885 5.38946   1
   4   2 -18 13.4590 3.91639   2
  -4   2  18 9.09233 4.46155   1
   4  -2 -17 1.32219 3.67085   2
   4   2 -17 6.02925 3.54503   2
  -4  -2  17 6.56513 5.00044   1
  -4   2  17 0.57230 3.73775   1
   4  -2 -16 9.46617 3.54977   2
   4   2 -16 3.38046 3.46125   2
  -4   2  16 9.23592 3.63562   1
   4   2 -15 2.34887 3.22823   2
  -4  -2  15 5.53003 4.42149   1
  -4   2  15 4.74121 3.62392   1
   4  -2 -15 7.75278 3.17262   2
   4   2 -14 4.12238 3.11845   2
   4  -2 -14 11.6289 3.05108   1
  -4  -2  14 3.74866 4.20325   1
  -4   2  14 9.19127 2.36765   3
  -4   2  14 9.94005 3.17085   1
   4  -2 -14 11.0865 3.06268   2
   4   2 -13 17.4154 3.31314   2
   4  -2 -13 18.6235 3.14217   1
  -4  -2  13 10.4793 4.06401   1
  -4   2  13 18.0273 2.69443   3
  -4   2  13 17.5729 3.41634   1
   4  -2 -13 21.4253 3.18277   2
   4   2 -12 3.68710 2.75680   2
   4  -2 -12 3.78380 2.51311   1
  -4   2  12 0.59512 2.09256   3
  -4  -2  12-4.43330 3.33433   1
   4   2 -12 2.95356 3.04553   1
  -4   2  12 1.10176 3.09000   2
  -4  -2  12-0.37830 2.69787   2
  -4   2  12 0.82510 2.63923   1
   4  -2 -12-0.06809 2.35373   2
  -4   2  11 105.734 8.26235   1
   4   2 -11 102.922 8.42959   1
  -4   2  11 101.132 8.13567   3
  -4  -2  11 102.871 8.64777   1
  -4   2  11 109.194 8.49197   2
  -4  -2  11 100.964 8.36360   2
   4  -2 -11 107.430 8.13716   1
   4  -2 -11 111.099 8.35986   2
   4   2 -11 95.1222 8.27906   2
  -4   2  10 37.4400 3.85371   1
   4   2 -10 43.4456 4.26594   1
  -4   2  10 46.6009 4.29359   2
  -4   2  10 40.5202 3.75330   3
  -4  -2  10 43.9427 4.41247   1
  -4  -2  10 40.8110 4.03404   2
   4  -2 -10 36.2780 3.85111   2
   4  -2 -10 40.4486 3.77739   1
   4   2 -10 35.6426 3.83011   2
   4  -2  -9 11.1811 2.12068   1
  -4   2   9 8.70919 2.76325   2
  -4  -2   9 9.53798 2.47826   2
  -4   2   9 9.70386 2.15820   3
  -4   2   9 4.21135 2.06774   1
   4  -2  -9 6.05537 2.02688   3
   4  -2  -9 9.67037 2.19695   2
  -4  -2   9 9.86402 3.01144   1
   4   2  -9 5.49891 2.28865   2
   4   2  -9 2.08655 2.83974   1
  -4   2   8 40.1059 3.61181   1
   4   2  -8 41.3892 4.16835   1
   4  -2  -8 35.2344 3.58892   3
  -4   2   8 47.5417 3.74930   3
  -4  -2   8 39.3022 3.90102   2
   4  -2  -8 41.6184 3.80954   2
  -4  -2   8 38.8646 4.02633   1
   4  -2  -8 37.7982 3.56443   1
   4   2  -8 44.4233 3.76385   2
  -4   2   8 43.7617 4.16249   2
   4  -2  -7 5.59176 1.59903   1
  -4  -2   7 5.17333 2.10547   2
  -4  -2   7 3.64636 2.50234   1
   4   2  -7 7.33402 2.53294   1
  -4   2   7 3.08588 2.32607   4
   4  -2  -7 4.76143 1.82377   3
  -4   2   7 6.47359 1.85605   3
   4  -2  -7 2.66020 1.74128   2
  -4   2   7 5.30326 2.45435   2
  -4   2   7 2.71835 1.61099   1
   4   2  -7 4.29939 1.91130   2
  -4   2   6 96.5441 7.56405   1
  -4  -2   6 117.786 8.08640   1
   4  -2  -6 103.075 7.75616   2
  -4   2   6 123.229 7.98978   2
   4  -2  -6 96.9184 7.72128   3
   4   2  -6 102.725 7.92734   1
  -4  -2   6 94.0759 7.76686   2
   4  -2  -6 90.5168 7.53989   1
   4   2  -6 106.695 7.76603   2
  -4   2   6 94.5119 7.68659   3
  -4   2   5 217.387 15.6408   1
   4   2  -5 180.844 15.5643   3
   4  -2  -5 205.364 15.6399   1
   4  -2  -5 232.465 15.8434   3
  -4   2   5 285.373 16.1085   2
  -4  -2   5 225.724 15.8215   2
   4  -2  -5 240.301 15.8646   2
   4   2  -5 225.120 15.8041   2
  -4   2   5 212.695 15.8048   3
   4   2  -5 253.854 16.0251   1
  -4  -2   5 255.340 16.0558   1
  -4   2   4 430.840 32.6800   1
  -4   2   4 489.961 32.8891   3
   4  -2  -4 473.642 32.8797   3
   4  -2  -4 500.509 32.9767   2
   4   2  -4 431.958 32.9115   1
  -4  -2   4 468.103 32.8678   2
   4  -2  -4 481.572 32.8866   2
   4   2  -4 425.473 32.6940   3
   4   2  -4 476.788 32.8408   2
   4  -2  -4 420.957 32.6792   1
  -4  -2   4 457.750 32.9438   1
  -4  -2   3 67.7587 5.06480   1
  -4   2   3 53.1088 4.32596   1
  -4   2   3 66.2545 4.89939   3
   4  -2  -3 60.7327 4.80833   3
   4  -2  -3 58.2486 4.81117   2
  -4  -2   3 63.0261 4.75183   2
   4   2  -3 65.5716 5.07588   1
   4   2  -3 64.9785 4.64648   2
   4  -2  -3 67.0299 5.05659   2
   4  -2  -2 65.8275 5.29859   2
  -4  -2   2 59.6812 5.18478   1
   4  -2  -2 58.6441 4.94841   2
   4   2  -2 60.0266 4.70596   2
  -4  -2   2 61.3380 4.96067   2
   4  -2  -2 59.2961 4.94463   3
   4   2  -2 61.5056 5.19842   1
  -4   2   2 56.7908 4.92842   3
   4  -2  -1 205.581 15.6061   2
  -4   2   1 195.555 15.5043   3
   4  -2  -1 211.556 15.5096   3
   4   2  -1 190.582 15.4575   2
   4  -2  -1 228.972 15.6099   2
   4   2  -1 203.476 15.3949   2
  -4  -2   1 228.250 15.6213   1
   4   2  -1 212.324 15.6071   1
   4  -2   0 35.0558 3.31441   2
   4   2   0 29.6099 2.82920   2
  -4   2   0 30.0587 2.96236   2
  -4   2   0 22.6265 2.95608   3
   4  -2   0 25.4974 2.85066   3
   4   2   0 24.4989 2.55528   2
  -4  -2   0 35.5901 3.19126   1
   4   2   0 26.4520 3.25217   1
   4  -2   1 156.126 9.27363   2
   4   2   1 158.142 9.07589   2
   4   2   1 151.292 9.34030   1
  -4   2  -1 168.037 9.28402   2
   4   2   1 145.370 9.01058   2
   4  -2   2 561.955 39.4819   2
   4   2   2 521.186 39.3525   2
  -4   2  -2 540.131 39.4816   2
   4  -2   2 476.687 39.2603   1
   4   2   2 552.532 39.4363   1
   4   2   2 563.935 39.4799   1
  -4   2  -2 571.584 39.2469   1
   4  -2   3 30.0950 3.41865   2
   4   2   3 32.2702 3.02073   2
  -4   2  -3 34.7377 3.39904   2
  -4  -2  -3 36.2617 3.09502   2
   4  -2   3 39.1000 3.41280   3
   4  -2   3 31.5803 2.86163   1
   4   2   3 35.2864 3.50816   1
   4   2   3 33.9315 3.31181   1
  -4   2  -3 31.8097 2.79953   1
  -4   2  -4 111.103 8.20776   2
  -4  -2  -4 106.716 7.98573   2
   4  -2   4 94.8283 7.89643   1
   4   2   4 104.894 8.21430   1
   4   2   4 101.146 8.09163   1
   4  -2   4 102.418 8.13045   3
  -4   2  -4 107.466 7.87322   1
   4   2   4 107.824 7.95463   2
   4  -2   4 109.912 8.22264   2
  -4   2  -5 28.5395 3.01229   2
  -4  -2  -5 26.2713 2.71540   2
   4  -2   5 23.9246 2.68356   1
   4   2   5 27.3941 3.08912   1
   4  -2   5 30.1336 3.02713   3
  -4   2  -5 26.2855 2.60100   1
   4   2   5 24.5503 2.48670   2
   4  -2   5 31.0825 3.17187   2
   4   2   6 1.05616 2.14728   1
   4   2   6 3.11684 1.49101   2
   4  -2   6 4.01343 2.22640   2
   4  -2   6 1.01184 2.03719   3
  -4   2  -6 2.18894 2.18070   2
  -4  -2  -6 0.67675 1.71386   2
  -4  -2  -6 1.92283 2.16735   1
  -4   2  -6 2.70747 1.81945   1
   4  -2   6 1.47963 1.89569   1
   4   2   7 5.93223 2.39473   1
   4   2   7 3.76477 1.77015   2
   4  -2   7 3.93254 2.31496   2
   4  -2   7 11.1337 2.46495   3
  -4   2  -7 9.02898 2.36196   2
  -4  -2  -7 7.20983 1.90417   2
  -4  -2  -7 10.0336 2.40280   1
  -4   2  -7 6.72116 2.04949   1
   4  -2   7 10.1070 2.12504   1
   4   2   8 2.08825 1.95410   2
   4   2   8-1.95960 2.47468   1
   4  -2   8 1.57753 2.28696   2
  -4   2  -8 1.77937 2.10222   1
  -4  -2  -8 1.24746 1.87111   2
  -4   2  -8 0.76764 2.24112   2
  -4  -2  -8 2.73781 2.24786   1
   4  -2   8 0.78997 2.14263   1
  -4  -2  -9 26.9166 2.81416   2
   4   2   9 21.8326 2.86646   2
   4  -2   9 23.8578 3.21998   2
   4   2   9 28.4254 3.41999   1
  -4   2  -9 27.3319 3.22104   2
  -4   2  -9 22.9125 3.12094   1
  -4  -2  -9 26.9694 3.21881   1
   4  -2   9 20.2091 3.21957   1
   4   2  10 4.36802 2.26025   2
   4  -2  10 7.97766 2.64824   2
   4   2  10 7.50548 3.04515   1
  -4  -2 -10 3.14939 2.08126   2
  -4   2 -10 3.82973 2.63900   1
  -4  -2 -10 3.33319 2.64629   1
  -4   2 -10 0.45905 2.50579   2
   4  -2  10 3.44234 2.76577   1
   4   2  11 10.2597 2.77650   2
   4  -2  11 9.79268 3.10181   2
   4   2  11 15.7657 3.64994   1
  -4   2 -11 17.2116 3.22186   1
  -4  -2 -11 12.2496 2.88876   1
  -4  -2 -11 9.49414 2.31891   2
   4  -2  11 10.3499 3.10811   1
   4   2  12 25.3279 3.74250   2
  -4   2 -12 29.8549 3.76521   1
  -4  -2 -12 28.0966 3.39216   2
   4   2  12 35.8668 4.56125   1
   4  -2  12 23.9059 3.94942   1
   4   2  13 1.37381 3.19982   2
  -4  -2 -13 1.27913 2.50591   2
   4   2  13 3.06543 3.86481   1
   4  -2  13 1.59900 3.42334   1
   4   2  14 0.44230 3.34403   2
   4   2  14 3.62862 4.32164   1
  -4  -2 -14 4.20142 2.56291   2
   4  -2  14-2.71745 3.68211   1
   4  -2  15 3.90523 3.90297   1
  -4  -2 -15 7.74690 2.95057   2
   4  -2  16 25.2639 4.82590   1
  -4  -2 -16 24.1859 3.69968   2
   4  -2  17-1.11083 4.56466   1
  -4  -2 -17 4.32871 3.20526   2
   4  -2  18 8.72314 4.97849   1
  -4  -2 -18 7.04090 3.52639   2
   4  -2  19 0.72145 5.14838   1
  -4   2 -19 4.26613 3.98820   2
  -4  -2 -19 7.98711 3.62819   2
  -4  -2 -20 4.74946 3.71509   2
   4  -3 -20 3.26387 3.88050   2
  -4   3  20 3.88166 4.83162   1
   4  -3 -19 17.3370 4.01409   2
  -4   3  19 13.3499 4.75750   1
   4  -3 -18 9.10045 3.69573   2
   4   3 -18 4.71374 3.75074   2
  -4  -3  18 13.7017 5.49947   1
  -4   3  18 12.4531 4.69125   1
   4  -3 -17 5.94561 3.60347   2
   4   3 -17 6.65367 3.59231   2
  -4   3  17 11.4734 4.09587   1
  -4  -3  17 9.96917 5.13270   1
   4  -3 -16 10.2398 3.47392   2
   4   3 -16 10.4741 3.48634   2
  -4   3  16 2.82123 3.75909   1
  -4  -3  16 15.3547 4.91638   1
   4  -3 -15 4.87045 3.26445   2
   4   3 -15 7.22705 3.24013   2
  -4   3  15 6.96031 3.74580   1
  -4  -3  15 10.2322 4.80152   1
   4   3 -14-0.25265 3.01254   2
  -4   3  14 4.91125 2.70361   3
  -4   3  14 1.50274 3.17969   1
  -4  -3  14 5.18504 4.36117   1
   4  -3 -14 6.36974 3.11430   1
   4  -3 -14 2.13431 3.11967   2
   4   3 -13 2.98290 2.98414   2
  -4   3  13 1.43619 2.73435   3
  -4   3  13 9.29666 3.22936   1
  -4  -3  13 4.87533 4.25524   1
   4  -3 -13-2.54412 2.87507   1
   4  -3 -13 5.50625 2.75128   2
   4   3 -12 27.9541 3.73968   2
  -4   3  12 27.8294 3.44359   3
  -4   3  12 39.3282 4.10894   2
  -4   3  12 22.5494 3.48929   1
   4  -3 -12 28.1021 3.30399   2
   4  -3 -12 28.1890 3.50486   1
  -4  -3  12 22.7404 4.24160   1
  -4   3  11 58.1949 5.17415   3
  -4   3  11 61.2344 5.48946   2
  -4  -3  11 57.8796 5.23660   2
   4  -3 -11 56.3484 4.98602   1
  -4  -3  11 48.1194 5.66224   1
   4  -3 -11 58.6430 5.11094   2
   4   3 -11 57.8653 5.19030   2
  -4   3  11 54.0425 5.15886   1
   4   3 -10 95.4829 7.56422   1
   4  -3 -10 78.0641 7.15353   3
  -4   3  10 88.2287 7.27076   3
  -4   3  10 105.610 7.47161   2
   4  -3 -10 90.6176 7.16483   1
  -4  -3  10 83.1782 7.27758   2
   4  -3 -10 90.6507 7.18808   2
  -4  -3  10 90.6894 7.66732   1
   4   3 -10 90.7903 7.25250   2
  -4   3  10 86.4623 7.17821   1
   4   3  -9 30.4764 4.04770   1
  -4  -3   9 28.7961 4.44253   1
  -4   3   9 33.3226 3.76884   4
  -4   3   9 33.1491 3.61259   3
   4  -3  -9 28.1314 3.38100   3
   4  -3  -9 36.9655 3.49138   2
   4  -3  -9 33.3797 3.24062   1
  -4   3   9 27.8861 3.82564   2
   4   3  -9 27.9621 3.37283   2
  -4  -3   9 27.0096 3.47530   2
  -4   3   9 29.9201 3.45047   1
   4   3  -8 153.448 12.1092   1
  -4   3   8 157.873 12.0060   3
   4  -3  -8 137.149 11.8870   3
   4  -3  -8 176.189 11.9291   2
  -4   3   8 196.373 12.1716   2
   4  -3  -8 158.042 11.7861   1
  -4  -3   8 153.000 11.9475   2
   4   3  -8 145.663 11.8788   2
  -4  -3   8 168.311 12.3016   1
  -4   3   8 148.552 11.8373   1
   4   3  -7 25.4645 2.19600   3
   4   3  -7 21.8844 3.60417   1
  -4  -3   7 27.6043 3.93194   1
   4  -3  -7 33.4313 2.90438   1
  -4   3   7 27.5864 3.20028   3
  -4   3   7 39.3118 3.71976   2
   4  -3  -7 31.8691 3.14071   3
  -4  -3   7 31.5226 3.19365   2
   4  -3  -7 29.8274 2.96467   2
   4   3  -7 28.1674 3.03627   2
  -4   3   7 26.4066 2.83938   1
  -4  -3   6 6.42868 2.79327   1
  -4   3   6 6.54593 1.75343   1
  -4   3   6 8.15479 2.31206   3
   4   3  -6 6.44675 3.17933   1
   4   3  -6 7.09234 1.20350   3
   4  -3  -6 13.0528 2.27189   3
   4  -3  -6 9.14058 1.75177   1
  -4  -3   6 8.54393 2.11496   2
   4  -3  -6 9.82189 2.17769   2
   4  -3  -6 8.35963 2.64099   2
   4   3  -6 8.80279 2.03090   2
   4  -3  -5 4.56323 2.19962   3
   4  -3  -5 12.4108 2.54381   2
  -4   3   5 9.83612 1.70555   1
   4   3  -5 9.38434 3.00612   1
  -4  -3   5 6.04944 2.68318   1
  -4  -3   5 9.39274 1.93880   2
   4  -3  -5 8.82321 2.04920   2
   4   3  -5 7.26371 1.41168   3
  -4   3   5 7.15012 1.59846   1
   4   3  -5 7.17782 1.76235   2
  -4   3   5 6.24482 2.20863   3
  -4  -3   4 46.3345 4.40190   1
   4  -3  -4 41.6369 3.78096   3
   4  -3  -4 50.1945 4.02922   2
   4   3  -4 46.3006 4.26607   1
  -4  -3   4 36.1090 3.56624   2
   4  -3  -4 41.4054 3.60551   2
  -4   3   4 35.6689 3.30632   1
   4   3  -4 37.9599 3.46568   2
   4   3  -4 36.4457 3.26545   3
  -4   3   4 41.1955 3.22238   1
  -4   3   4 37.1591 3.75268   3
  -4   3   3 11.9644 2.42067   3
  -4  -3   3 12.4559 2.89103   1
   4   3  -3 8.13627 1.58394   3
   4  -3  -3 14.6831 2.62679   2
   4  -3  -3 11.1028 2.33728   3
  -4  -3   3 12.9872 1.98848   2
   4  -3  -3 9.70728 2.08380   2
  -4   3   3 11.2185 1.48745   1
  -4   3   3 11.4454 1.36107   1
   4   3  -3 14.8646 1.77361   2
   4   3  -3 11.6729 2.65635   1
   4  -3  -2 41.2137 3.63733   2
  -4   3   2 40.6680 3.60524   3
   4  -3  -2 38.1840 3.51066   3
   4  -3  -2 38.7773 3.48096   2
  -4  -3   2 42.3668 3.30329   2
  -4   3   2 35.1073 2.80111   1
   4   3  -2 37.2049 2.99610   2
  -4   3   2 31.9225 2.76296   1
   4   3  -2 35.7311 3.93733   1
   4   3  -2 34.8012 3.11047   3
  -4  -3   2 45.1900 4.09423   1
   4  -3  -1 95.4625 6.60088   2
   4   3  -1 78.1924 6.25788   3
   4  -3  -1 112.785 6.65802   2
  -4  -3   1 85.0612 6.70179   1
   4   3  -1 86.2245 6.24955   2
  -4   3   1 65.2022 5.96640   1
   4   3  -1 82.2673 6.12413   2
  -4   3   1 88.3396 5.98325   1
  -4   3   1 92.6094 6.56831   3
   4   3  -1 85.6604 6.75797   1
   4  -3   0 43.5118 3.73527   2
  -4   3   0 41.8512 2.99908   1
   4   3   0 39.7915 3.34159   2
   4   3   0 37.0121 3.44946   3
   4   3   0 28.6584 3.13572   2
  -4   3   0 46.0263 3.79558   2
  -4  -3   0 41.2007 3.98484   1
  -4  -3  -1 88.1520 5.84898   1
   4  -3   1 73.7203 5.64147   2
  -4   3  -1 68.1606 5.11618   1
   4   3   1 73.0070 5.28625   2
  -4   3  -1 69.6049 5.61777   2
   4  -3   1 62.3326 5.16995   1
   4   3   1 60.9305 5.17164   2
   4   3   2 17.7174 1.83170   2
   4  -3   2 13.7216 2.53183   2
   4  -3   2 15.4201 1.91282   1
   4  -3   2 18.6883 2.49934   3
   4   3   2 15.7386 1.75677   2
  -4   3  -2 18.5722 2.64796   2
  -4   3  -2 15.0931 1.76036   1
   4  -3   3 98.8138 8.21518   2
  -4   3  -3 104.666 8.24154   2
   4  -3   3 113.618 8.28184   3
   4   3   3 108.664 7.90304   2
   4  -3   3 95.5112 7.99030   1
  -4   3  -3 101.342 7.89391   1
   4   3   3 110.587 7.90540   2
  -4   3  -4 82.7197 5.97808   2
   4   3   4 59.0429 5.50171   4
   4  -3   4 82.1684 5.96443   3
  -4  -3  -4 73.5567 5.51572   2
   4  -3   4 63.6424 5.65197   1
   4   3   4 76.4352 5.43689   2
  -4   3  -4 65.8874 5.55245   1
   4  -3   4 73.8566 5.91270   2
   4  -3   5 23.9161 2.95503   2
  -4  -3  -5 23.1288 2.31403   2
  -4   3  -5 23.5554 3.01538   2
  -4   3  -5 19.5847 2.53436   1
   4  -3   5 19.7762 2.62126   1
   4  -3   5 27.6027 3.05623   3
   4   3   5 20.0151 2.11189   2
  -4   3  -6 43.9419 4.05418   2
   4  -3   6 43.3960 4.08306   3
  -4  -3  -6 45.2571 3.52650   2
   4  -3   6 42.2705 3.89591   1
   4   3   6 36.1190 3.30381   2
  -4   3  -6 35.4706 3.60769   1
   4  -3   6 35.9467 3.92461   2
  -4  -3  -7 23.7152 2.52241   2
   4  -3   7 20.7245 3.01539   2
   4  -3   7 27.8633 3.41203   3
   4  -3   7 20.4881 3.13406   1
  -4   3  -7 21.5180 2.78441   1
   4   3   7 21.7634 2.40096   2
  -4   3  -7 21.9320 3.05848   2
   4   3   8 5.25246 1.96713   2
   4  -3   8 2.93328 2.65481   2
   4  -3   8 7.77206 2.65658   1
  -4   3  -8 6.13266 2.42152   1
  -4  -3  -8 8.21575 1.95824   2
   4  -3   8 10.8667 2.81988   3
  -4   3  -8 7.25170 2.72615   2
   4   3   9 2.24679 2.12607   2
   4  -3   9-3.59440 2.82150   2
   4  -3   9-0.57010 2.63693   3
   4  -3   9 6.22592 2.62364   1
  -4   3  -9-4.08419 2.75387   2
  -4  -3  -9 1.02320 1.91026   2
  -4   3  -9 3.56125 2.55037   1
   4   3  10 12.7419 2.56930   2
   4  -3  10 17.6604 3.17876   2
   4  -3  10 9.08883 3.18019   1
  -4   3 -10 11.8061 2.97036   2
  -4   3 -10 17.9279 2.98421   1
  -4  -3 -10 16.6540 2.44125   2
   4  -3  10 15.9110 3.20908   3
   4   3  11 2.64121 2.44091   2
   4  -3  11 2.89844 3.17187   1
  -4   3 -11-1.25151 2.99228   2
  -4   3 -11 1.24603 2.82394   1
  -4  -3 -11 1.21664 2.22946   2
   4  -3  11-0.17186 2.99599   3
  -4   3 -12 44.3684 4.80655   2
  -4  -3 -12 41.6769 4.12087   2
   4  -3  12 35.9419 4.92732   1
   4  -3  12 51.8869 4.89871   3
   4   3  12 44.6816 4.30202   2
  -4   3 -12 41.3676 4.53220   1
   4  -3  13 21.4623 4.26166   1
  -4   3 -13 21.2910 3.60565   2
  -4  -3 -13 21.9778 3.03080   2
   4  -3  13 21.8340 3.76070   3
   4   3  13 19.1007 3.44873   2
   4  -3  14 9.33930 4.17127   1
  -4   3 -14 12.1001 3.50685   2
   4  -3  14 11.4457 3.71968   3
  -4  -3 -14 13.9908 3.00414   2
   4   3  14 11.9388 3.36823   2
   4  -3  15 10.4351 4.32911   1
  -4   3 -15 12.3491 3.69422   2
  -4  -3 -15 12.5422 3.02289   2
   4  -3  15 4.26134 3.63803   3
   4  -3  16 9.17393 4.80708   1
  -4   3 -16 0.57104 3.73626   2
  -4  -3 -16 8.44600 3.17218   2
   4  -3  16-0.41109 3.79462   3
   4  -3  17 0.26093 4.90855   1
  -4   3 -17 1.68402 3.82978   2
   4  -3  17 4.20104 3.90667   3
  -4  -3 -17 5.09824 3.04739   2
   4  -3  18 0.13983 5.16109   1
  -4   3 -18-2.40426 4.14804   2
   4  -3  18 4.22256 4.00606   3
   4   3  18-3.91798 5.72314   1
   4  -3  19 0.14782 5.51246   1
   4   4 -18 7.86990 3.96494   2
   4  -4 -17 7.90973 3.59647   2
  -4  -4  17 14.9997 5.33661   1
   4   4 -17 5.70659 3.77948   2
  -4   4  17 6.45520 4.11833   1
   4  -4 -16 4.59567 3.42039   2
  -4  -4  16 6.15849 4.98355   1
   4   4 -16 9.75095 3.55239   2
  -4   4  16 1.02805 4.03208   1
   4  -4 -15 11.2091 3.44611   2
  -4  -4  15 15.3322 5.11299   1
   4   4 -15 16.4475 3.58363   2
  -4   4  15 15.4231 4.15718   1
   4   4 -14 17.7780 3.60096   2
  -4  -4  14 15.9124 5.02475   1
  -4   4  14 26.0808 4.08307   1
   4  -4 -14 22.9266 3.53898   2
   4   4 -13 31.5213 4.05565   2
  -4  -4  13 39.4596 5.51250   1
  -4   4  13 34.5384 4.36839   1
   4  -4 -13 34.6308 4.11626   2
   4   4 -12 20.7362 3.41939   2
  -4  -4  12 26.3198 4.90300   1
  -4   4  12 24.4753 4.25874   2
  -4   4  12 19.9319 3.71474   1
   4  -4 -12 24.6995 3.46084   1
   4  -4 -12 20.5650 3.32755   2
   4   4 -11 32.2819 4.14181   2
  -4  -4  11 50.5930 5.77373   1
  -4   4  11 60.5857 4.91330   2
   4  -4 -11 34.9249 4.08556   1
   4  -4 -11 44.1916 4.23131   2
  -4   4  11 36.5317 4.39618   1
   4   4 -10 7.14991 2.53269   2
  -4   4  10 8.10790 2.80757   1
   4  -4 -10 3.86179 2.84823   3
  -4   4  10 15.9157 3.80965   2
   4  -4 -10 10.2895 2.88507   1
  -4  -4  10 12.1497 4.31827   1
  -4   4  10 4.05680 3.11671   4
  -4  -4  10 7.45398 2.69840   2
   4  -4 -10 6.13739 2.78961   2
   4  -4  -9 38.8181 4.45874   3
   4  -4  -9 47.0512 4.40712   1
  -4  -4   9 42.7659 4.23936   2
   4  -4  -9 46.3102 4.22951   2
   4   4  -9 42.4541 4.18314   2
  -4  -4   9 34.6021 5.42338   1
  -4   4   9 49.4803 4.27580   1
  -4   4   8 113.234 8.78916   3
   4  -4  -8 102.134 8.69509   3
  -4  -4   8 111.608 8.50818   2
   4  -4  -8 131.891 8.78452   2
   4  -4  -8 111.682 8.47799   2
  -4   4   8 122.962 8.52139   1
   4   4  -8 103.035 8.44734   2
   4   4  -8 101.112 8.09754   3
  -4   4   8 111.565 8.45493   1
   4  -4  -7 52.0185 4.39004   2
  -4   4   7 47.4671 4.50199   3
   4  -4  -7 39.6897 4.29613   3
  -4   4   7 44.9204 4.03604   1
  -4  -4   7 43.1665 4.05640   2
   4  -4  -7 49.1537 4.04066   2
   4   4  -7 43.1450 4.04117   2
  -4   4   7 41.8158 4.04429   1
   4   4  -7 40.9781 3.66643   3
   4  -4  -6 191.448 11.5036   2
  -4   4   6 141.474 11.1743   1
   4  -4  -6 145.280 11.4061   3
  -4  -4   6 143.878 11.2155   2
   4  -4  -6 160.733 11.2598   2
  -4   4   6 151.941 11.4606   3
  -4   4   6 165.860 11.2035   1
   4   4  -6 134.515 11.1906   2
   4   4  -6 128.493 11.0402   3
  -4   4   5 59.5629 5.03120   1
   4  -4  -5 73.5459 5.41290   2
  -4   4   5 62.4337 5.39595   3
   4   4  -5 53.8778 4.88161   3
  -4  -4   5 59.9321 5.00738   2
   4  -4  -5 67.6518 5.15212   2
   4  -4  -5 61.7424 5.33808   3
  -4   4   5 60.4922 4.89265   1
   4   4  -5 56.8776 4.99000   2
   4   4  -4 12.3066 1.93361   2
  -4   4   4 11.4928 1.74465   1
   4  -4  -4 11.8781 2.60603   2
   4   4  -4 8.71543 2.08396   3
   4  -4  -4 11.1945 2.77378   3
  -4   4   4 10.0173 2.02916   1
  -4  -4   4 9.62683 2.00135   2
   4  -4  -4 14.1575 2.37087   2
  -4   4   4 12.8029 2.78951   3
   4  -4  -3 70.6082 5.24625   2
  -4   4   3 59.5070 5.25285   3
   4   4  -3 47.1898 4.81577   3
  -4   4   3 55.6962 4.59923   1
  -4  -4   3 61.1964 4.75969   2
   4  -4  -3 62.3160 5.24629   3
   4  -4  -3 64.4748 4.98151   2
   4   4  -3 55.9912 4.67443   2
  -4   4   3 60.7275 4.77061   1
   4   4  -2 16.9798 2.51735   3
   4  -4  -2 19.0160 2.77450   2
  -4  -4   2 20.4011 2.24221   2
   4  -4  -2 18.0208 2.68559   2
  -4   4   2 15.5876 2.11162   1
  -4   4   2 19.3693 2.96561   3
  -4   4   2 14.9175 1.94686   1
   4   4  -2 17.1337 1.92418   2
   4  -4  -1 21.1828 2.88849   2
   4  -4  -1 16.3180 2.63242   2
   4   4  -1 16.5982 1.96953   2
  -4   4   1 17.7427 2.06368   1
   4   4  -1 15.1804 2.49724   3
   4   4  -1 13.3222 1.64511   2
  -4   4   1 14.9761 1.84397   1
   4  -4   0 93.3076 6.91109   2
   4   4   0 89.1768 6.50252   2
  -4   4   0 93.1124 6.57421   1
   4  -4   0 84.6287 7.04439   3
  -4   4   0 90.7360 6.94234   2
   4   4   0 73.2222 6.85612   3
  -4   4   0 89.3186 6.57190   1
   4   4   0 79.8407 6.43340   2
  -4   4  -1 14.6476 1.76093   1
   4  -4   1 12.2493 2.61444   3
   4   4   1 9.34099 1.18235   2
  -4   4  -1 12.0301 2.52749   2
   4  -4   1 11.7695 1.92917   1
   4   4   1 13.9834 2.41429   3
   4   4   1 8.92127 1.03011   2
   4  -4   1 9.70864 2.29888   2
  -4   4  -1 11.0783 2.69334   3
   4   4   2 82.6650 7.16920   1
  -4   4  -2 100.450 6.46801   1
  -4   4  -2 95.4868 6.90987   2
   4  -4   2 91.3607 6.62762   1
  -4   4  -2 94.4477 6.95619   3
   4  -4   2 96.4463 6.94300   3
   4   4   2 84.6449 6.86865   3
   4   4   2 76.5117 6.19212   2
   4   4   2 83.1145 6.19139   2
   4  -4   2 105.791 6.84334   2
   4  -4   3 98.7053 6.62198   1
  -4   4  -3 109.477 6.44140   1
   4   4   3 110.144 7.22008   1
  -4   4  -3 109.693 6.86515   2
  -4   4  -3 113.588 6.99452   3
   4  -4   3 129.901 7.11110   3
   4   4   3 102.738 6.97531   1
   4   4   3 92.5438 6.85727   3
   4   4   3 91.1568 6.10363   2
   4  -4   3 108.649 6.78227   2
  -4   4  -4 152.789 9.12007   1
  -4   4  -4 162.055 9.44494   2
   4  -4   4 180.271 9.64945   3
   4   4   4 172.788 9.62320   1
   4   4   4 170.202 9.86992   1
   4   4   4 148.559 9.52710   3
   4   4   4 131.034 8.79490   2
   4  -4   4 136.022 9.21398   1
   4  -4   4 158.156 9.37675   2
  -4   4  -5 60.4745 4.23905   1
  -4   4  -5 67.9354 4.78256   2
   4  -4   5 66.0407 4.78570   3
   4   4   5 53.2832 4.82520   3
   4   4   5 61.0591 5.11449   1
   4   4   5 37.4743 3.67409   2
   4   4   5 74.0218 5.00128   1
   4   4   5 47.2762 3.68326   2
   4  -4   5 53.7383 4.54005   1
   4  -4   5 64.8487 4.54713   2
   4   4   6 188.932 12.0558   1
  -4   4  -6 185.193 12.0728   2
   4   4   6 169.128 11.7496   4
   4  -4   6 165.261 11.9678   3
   4   4   6 146.910 12.1100   1
   4  -4   6 147.728 11.8759   1
   4   4   6 137.139 11.4238   2
   4   4   6 153.468 12.0603   3
   4  -4   6 167.547 11.8783   2
  -4   4  -6 156.251 11.6878   1
  -4   4  -7 46.3384 4.35570   2
  -4  -4  -7 40.5971 3.33272   2
   4  -4   7 40.4646 4.28684   3
   4   4   7 47.3332 4.50313   1
   4   4   7 36.0164 3.26034   2
   4  -4   7 46.6707 4.13115   2
  -4   4  -7 35.2369 3.87662   1
   4  -4   7 28.7806 4.08383   1
   4  -4   8 27.1392 3.66089   2
  -4  -4  -8 26.2449 2.75111   2
   4  -4   8 28.8060 3.70689   3
  -4   4  -8 29.3768 3.62452   2
  -4   4  -8 25.0942 3.38026   1
   4   4   8 37.3660 3.90959   1
   4   4   8 24.5247 2.62971   2
   4  -4   8 23.8404 3.76166   1
  -4   4  -9 41.5270 4.44096   2
  -4  -4  -9 41.3236 3.60048   2
   4  -4   9 44.4458 4.47822   3
   4   4   9 45.5784 4.76210   1
   4   4   9 37.3018 3.48671   2
   4  -4   9 32.8864 4.50431   1
  -4   4  -9 30.2901 4.15577   1
   4   4  10 1.76255 3.30240   1
  -4   4 -10 1.75326 2.93522   1
  -4   4 -10 1.12357 3.10837   2
   4  -4  10 4.08968 3.39165   1
   4  -4  10 0.44143 3.01433   3
  -4  -4 -10 2.10975 2.10971   2
   4   4  10 1.70226 1.93712   2
   4   4  11 9.01434 3.76471   1
  -4   4 -11 10.3426 3.20486   1
  -4  -4 -11 9.36198 2.29068   2
   4  -4  11 9.94932 3.49100   3
  -4   4 -11 13.3531 3.46263   2
   4  -4  11 11.3274 3.89558   1
   4   4  12 9.14919 3.87607   1
  -4  -4 -12 2.83036 2.29879   2
  -4   4 -12 3.50892 3.34223   2
   4  -4  12-1.60880 4.27399   1
   4  -4  12 8.26100 3.40225   3
   4   4  13 3.61062 4.36455   1
  -4   4 -13 10.7866 3.58374   2
   4  -4  13 8.34962 3.55853   3
   4  -4  13 2.19778 4.46794   1
   4   4  14 14.1603 5.00791   1
  -4   4 -14 11.0276 3.95700   2
   4  -4  14 16.8495 5.02668   1
   4  -4  14 15.8706 3.97686   3
   4   4  15 16.7370 5.32688   1
  -4   4 -15 14.5084 4.17071   2
   4  -4  15 13.1361 5.30805   1
   4  -4  15 14.8490 4.20994   3
   4   4  16 4.80797 5.51532   1
  -4   4 -16 10.5004 4.12844   2
   4  -4  16 21.3187 4.29721   3
   4  -4  16 16.5227 5.72228   1
  -4   4 -17 6.43383 4.22481   2
   4  -4  17 5.83670 5.82565   1
   4  -4  18 9.33747 6.18066   1
   4   5 -17-0.64720 3.90100   2
   4   5 -16 9.07662 3.71433   2
   4   5 -15 13.9095 3.64579   2
   4   5 -14 20.4110 3.75604   2
   4   5 -13 4.61612 3.15293   2
   4   5 -12-0.31494 2.90838   2
  -4   5  12 2.46931 3.69023   1
   4  -5 -12 2.03197 2.85900   2
   4   5 -11 8.51350 2.92886   2
  -4   5  11 10.2218 3.37701   1
   4  -5 -11 7.49306 2.70094   2
   4   5 -10 9.05386 2.73382   2
  -4   5  10 9.08579 3.25830   1
   4  -5 -10 7.96389 3.36830   3
   4  -5 -10 9.81863 2.49683   2
   4   5  -9 3.30441 2.49038   2
  -4   5   9 2.33010 2.76489   1
   4  -5  -9 2.97416 3.10980   3
   4  -5  -9 2.55558 2.23707   2
   4   5  -8 18.0850 2.83544   2
  -4   5   8 28.9019 3.15209   1
  -4  -5   8 22.6342 2.90965   2
   4  -5  -8 22.9699 2.90425   2
   4  -5  -7 14.2314 3.26048   3
   4   5  -7 13.7959 2.34449   2
  -4   5   7 17.6016 2.92832   1
   4  -5  -7 17.6689 2.94640   2
  -4  -5   7 12.4410 2.44759   2
   4  -5  -7 13.9976 2.56008   2
   4   5  -6 0.34820 2.08952   3
   4   5  -6 2.60756 1.90501   2
  -4   5   6 3.00028 2.19058   1
   4  -5  -6 5.37875 2.86579   3
   4  -5  -6 1.68705 2.50949   2
  -4  -5   6 4.78805 2.04626   2
  -4   5   6 6.63366 2.49238   1
   4  -5  -6 1.58281 1.99924   2
   4   5  -5 3.47163 2.40047   3
   4   5  -5 3.45664 1.79257   2
  -4   5   5 1.53675 1.98699   1
   4  -5  -5 1.85514 2.49283   2
  -4   5   5 2.93268 2.23098   1
   4  -5  -5 0.98166 2.79933   3
  -4  -5   5 1.97664 1.90401   2
   4  -5  -5 2.27559 2.08074   2
  -4   5   4 6.21846 1.99186   1
   4   5  -4 4.27880 1.68784   2
  -4   5   4 5.65281 2.35323   1
  -4  -5   4 1.45179 4.09031   1
   4  -5  -4 5.68823 2.42132   2
   4   5  -4 4.46584 2.28911   3
   4  -5  -4 4.23477 2.95522   3
  -4  -5   4 5.53903 1.79950   2
   4  -5  -4 5.66048 2.17322   2
  -4   5   3 4.89411 2.12106   1
   4   5  -3 4.99500 1.52550   2
   4  -5  -3 10.8146 2.43426   2
   4   5  -3 4.93627 2.59116   3
  -4  -5   3 5.15109 1.95549   2
   4  -5  -3 11.3082 2.36063   2
  -4  -5   3 3.98743 3.83825   1
  -4   5   3 7.87771 1.87462   1
   4   5  -2 5.53088 1.17533   2
   4  -5  -2 7.53227 2.33369   2
   4   5  -2 6.57865 2.64121   3
   4   5  -2 4.77444 1.41278   2
  -4  -5   2 8.09197 3.80980   1
  -4   5   2 5.51783 2.10318   1
   4  -5  -2 13.0438 2.40183   2
  -4   5   2 5.76407 1.82577   1
   4  -5  -1 6.90987 2.17125   2
   4   5  -1 6.28490 0.77959   2
  -4  -5   1 15.5977 3.60901   1
   4  -5  -1 8.95285 3.09007   3
   4   5  -1 3.94634 0.92096   2
   4   5  -1 5.17242 2.60494   3
  -4   5   1 8.13999 2.21494   1
   4  -5  -1 2.40658 2.46382   2
  -4   5   1 7.60751 1.96599   1
  -4  -5   0 7.46512 3.70177   1
  -4   5   0 3.76021 2.02293   1
   4  -5   0 8.06656 2.97700   3
   4   5   0 4.42242 2.84346   3
   4  -5   0 2.00567 2.94689   2
   4  -5   0 4.99519 2.25736   2
  -4   5   0 3.62356 1.92268   1
  -4   5  -1 18.6717 2.45427   1
   4  -5   1 19.6079 2.79172   2
   4  -5   1 15.0191 3.56768   3
   4   5   1 20.2319 3.35284   3
  -4   5  -1 17.2716 3.11001   2
   4   5   1 22.0362 3.49100   1
  -4   5  -2 16.3491 2.55747   1
   4  -5   2 18.0071 2.79062   2
   4  -5   2 20.1013 2.84427   1
   4  -5   2 24.9284 3.49518   3
   4   5   2 18.3758 3.32693   3
  -4   5  -2 18.7382 3.15271   2
   4   5   2 23.9566 3.49963   1
   4  -5   3 12.9883 2.66823   2
   4  -5   3 18.0164 3.51858   3
   4  -5   3 18.1506 2.92564   1
  -4   5  -3 11.9921 3.09821   2
   4   5   3 15.3676 3.29038   3
   4   5   3 19.9919 3.52496   1
  -4   5  -3 14.1907 2.38762   1
   4  -5   4 9.95143 3.12487   1
   4  -5   4 14.5709 2.66069   2
  -4   5  -4 18.1044 3.15966   2
   4  -5   4 17.5435 3.52975   3
   4   5   4 23.0694 3.59539   1
  -4   5  -4 11.9960 2.46451   1
   4  -5   5 114.739 9.40542   1
  -4   5  -5 112.935 9.10741   1
  -4   5  -5 120.448 9.50009   2
   4   5   5 134.155 9.70919   1
   4  -5   5 118.588 9.54499   3
   4  -5   5 112.175 9.23927   2
  -4   5  -6 118.795 9.32290   1
  -4   5  -6 127.501 9.71145   2
   4  -5   6 136.043 9.80184   3
   4   5   6 132.679 9.82094   1
   4  -5   6 103.970 9.44397   2
   4  -5   6 103.430 9.58269   1
   4   5   7 35.8912 3.86967   4
   4  -5   7 41.4587 4.59227   3
  -4   5  -7 38.0417 4.49337   2
   4  -5   7 39.1323 4.10299   2
   4   5   7 46.2083 4.96531   1
   4  -5   7 31.1659 4.61484   1
  -4   5  -7 32.1703 3.83802   1
  -4   5  -8 45.9804 5.05824   2
   4  -5   8 49.3031 5.10629   3
   4   5   8 54.1889 5.22100   1
   4  -5   8 44.1747 5.20571   1
  -4   5  -8 40.2640 4.52479   1
   4   5   9 1.93540 3.74175   1
   4  -5   9-1.71529 3.64605   1
  -4   5  -9 2.24932 3.36660   2
   4  -5   9 5.58024 3.40996   3
  -4   5  -9 2.22540 2.87575   1
   4   5  10 5.20200 3.95052   1
   4  -5  10 3.67066 3.90245   1
   4  -5  10 10.5438 3.63245   3
  -4   5 -10 4.58673 3.46504   2
   4  -5  11 15.1790 4.37041   1
   4   5  11 16.4259 4.36220   1
  -4   5 -11 17.6458 3.99123   2
   4  -5  11 19.0239 4.33074   3
   4   5  12 3.73648 4.39866   1
  -4   5 -12 2.88808 3.67713   2
   4  -5  12 1.81702 3.80801   3
   4  -5  12 2.38847 4.17546   1
  -4   5 -13 1.98649 3.86603   2
   4   5  13 13.5775 4.59151   1
   4  -5  13 10.3520 3.88530   3
   4  -5  13 8.71719 4.75015   1
   4   5  14 0.26218 4.99963   1
  -4   5 -14 6.01892 4.16242   2
   4  -5  14 6.66228 3.91061   3
   4  -5  14-2.97696 5.05406   1
   4   5  15 21.8639 6.36965   1
   4  -5  15 19.6869 4.28103   3
  -4   5 -15 10.9678 4.51850   2
   4  -5  15 11.6214 5.49887   1
   4  -5  16-3.66669 5.55748   1
   4  -5  17-2.18105 5.81320   1
  -4  -6  12 7.46938 5.53044   1
  -4  -6  11 22.5876 5.97061   1
  -4  -6  10 20.8878 5.74352   1
  -4  -6   9 4.20815 5.29715   1
   4  -6  -9 8.28989 3.79397   3
  -4  -6   8 2.92424 5.07784   1
   4  -6  -8 6.46181 3.63210   3
   4  -6  -7-5.71355 3.68107   3
  -4  -6   7 8.30929 5.05423   1
  -4  -6   6-3.44119 4.94958   1
   4  -6  -6 2.62686 3.46556   3
  -4  -6   5 15.6829 5.02269   1
  -4   6   4-0.85624 2.25819   1
  -4  -6   4 4.65436 4.24847   1
   4  -6  -3 16.1237 2.68335   2
   4   6  -3 14.8784 3.14586   3
  -4  -6   3 18.1100 4.37505   1
  -4   6   3 11.6162 2.49849   1
   4   6  -2 4.60334 2.94874   3
  -4  -6   2 9.54048 4.27569   1
   4  -6  -2 2.36889 3.49310   3
   4  -6  -2 2.05144 2.36280   2
  -4   6   2-0.92266 2.20997   1
   4  -6  -1 10.1814 3.93148   3
   4  -6  -1 22.7049 2.97144   2
  -4   6   1 17.0493 2.75639   1
  -4  -6   1 21.1033 4.39278   1
   4  -6   0 2.25696 3.53023   3
   4  -6   0 7.74507 2.75366   2
  -4   6   0 2.86486 2.33281   1
   4  -6   1 105.621 8.82174   3
   4  -6   1 123.498 8.69821   2
  -4   6  -1 98.1444 8.22092   1
   4   6   1 97.0169 8.78687   1
   4  -6   2 19.5397 4.11317   3
  -4   6  -2 27.0536 3.50980   2
   4  -6   2 26.2284 3.55000   1
   4   6   2 17.0079 3.99342   1
   4  -6   3 23.7413 3.49121   1
   4   6   3 16.2871 4.06066   1
  -4   6  -3 21.6388 3.43198   2
   4  -6   3 17.4250 3.98876   3
   4  -6   4 2.71530 3.59272   3
  -4   6  -4 0.32411 3.10640   2
   4   6   4-0.52526 3.72198   1
   4  -6   4-0.28339 3.24412   1
   4  -6   5 5.43925 3.66862   1
  -4   6  -5 6.12744 3.29064   2
   4  -6   5 0.44212 3.70080   3
   4   6   5 5.02710 3.86032   1
   4  -6   6 0.25788 3.87859   1
   4  -6   6 5.95299 3.59560   3
  -4   6  -6 7.75290 3.39717   2
   4   6   6-2.10051 3.74532   1
   4   6   7 14.2722 3.21182   4
  -4   6  -7 13.0337 3.65099   2
   4  -6   7 12.5368 3.88607   3
   4  -6   7 14.8725 4.23274   1
   4   6   7 18.5662 4.36708   1
  -4   6  -8-0.40049 3.66621   2
   4  -6   8 0.77173 3.62183   3
   4  -6   8 0.37810 4.04680   1
   4   6   8 0.32557 3.94475   1
   4   6   9 13.7811 4.44874   1
  -4   6  -9 14.8187 4.16475   2
   4  -6   9 8.93833 3.94373   3
   4  -6   9 21.9567 4.67485   1
   4   6  10 27.8194 4.89659   1
  -4   6 -10 25.5195 4.69839   2
   4  -6  10 17.2687 4.73111   1
   4  -6  10 22.8857 4.44529   3
   4   6  11 23.7965 4.78056   1
   4  -6  11 24.6734 5.35368   1
   4  -6  11 13.0984 4.17886   3
  -4   6 -11 11.6704 4.22746   2
   4   6  12-2.83347 4.84294   1
   4  -6  12-4.26963 5.29179   1
   4  -6  12 1.15108 4.01922   3
  -4   6 -12 0.12060 4.16748   2
   4  -6  13 11.0505 5.54402   1
   4  -6  13 5.17935 4.10310   3
  -4   6 -13 8.80306 4.44988   2
  -4   6 -14 15.5539 4.67791   2
   4  -7  -8 5.27119 4.23899   3
  -4  -7   8-5.66476 5.83196   1
   4  -7  -7 7.42334 4.14472   3
  -4  -7   7 7.83455 5.51312   1
  -4  -7   6 15.1764 5.43596   1
  -4  -7   5 7.16718 5.18764   1
   4  -7  -4-0.74491 3.97388   3
  -4  -7   4 6.34108 5.14725   1
   4  -7  -3 5.87471 3.81993   3
  -4  -7   3-3.75343 4.93564   1
   4  -7  -2 0.83479 3.75370   3
  -4  -7   2 8.09001 4.96825   1
   4  -7  -1 2.63460 3.77126   3
   4   7  -1 10.4361 4.33989   1
   4  -7   0 28.0423 4.74717   3
   4   7   0 35.1008 4.93798   1
   4  -7   1 12.2476 4.34806   3
   4   7   1 15.4086 4.23698   1
   4  -7   2 3.74816 4.03093   3
   4   7   2 11.1295 4.24111   1
   4  -7   3 38.0186 5.21690   3
   4   7   3 40.9569 5.48071   1
   4  -7   4 4.19048 3.98912   3
   4   7   4-3.94681 4.27918   1
   4  -7   5 9.42256 4.08840   3
   4   7   5 8.12173 4.29610   1
   4  -7   6 14.2031 4.46543   3
   4   7   6 5.34787 4.32322   1
   4  -7   7 8.98394 4.18685   3
   4   7   7 5.95041 4.63248   1
   4  -7   8 7.66892 4.31591   3
   4   7   8 6.00270 4.37096   1
   4  -7   9 4.35727 4.52135   3
   4  -7  10 28.2868 5.17219   3
   4  -7  11 23.4377 4.81431   3
  -5   0  20-0.94336 5.00780   1
   5   0 -19 14.7703 4.10054   2
  -5   0  19 5.80003 4.97403   1
   5   0 -18 25.2157 4.44952   2
  -5   0  18 22.2813 5.01644   1
   5   0 -17-1.03914 3.66695   2
  -5   0  17 3.22436 4.19345   1
   5   0 -16 8.62147 3.49099   2
  -5   0  16 6.38368 4.08305   1
  -5   0  15 2.12389 3.79757   1
   5   0 -15 2.00682 3.12766   2
  -5   0  14 40.0105 4.53651   1
   5   0 -14 31.8560 4.11841   2
  -5   0  13-1.17825 3.41128   1
   5   0 -13-2.30451 3.48368   1
  -5   0  13 3.36047 0.94463   3
   5   0 -13 1.31333 2.76415   2
  -5   0  12 56.9787 4.86240   1
   5   0 -12 55.0839 4.56286   2
  -5   0  12 40.6931 3.51850   3
   5   0 -12 48.4257 4.80186   1
  -5   0  11 7.67324 1.22206   3
   5   0 -11 9.94513 2.97908   1
  -5   0  11 8.11042 2.85363   1
   5   0 -11 10.1624 2.71583   2
  -5   0  10 11.8510 2.90565   1
   5   0 -10 10.9338 2.91231   1
  -5   0   9 23.5569 3.30114   1
   5   0  -9 21.8205 3.07284   1
   5   0  -8 26.8278 2.97787   1
   5   0  -8 26.0208 2.30083   3
  -5   0   8 28.9214 3.16067   1
   5   0  -7 12.2318 1.53034   3
  -5   0   7 14.7036 2.35037   1
   5   0  -7 12.8494 2.27607   1
   5   0  -6 37.2269 3.53022   1
  -5   0   6 32.7659 3.87590   2
  -5   0   6 38.2172 3.61555   1
   5   0  -6 42.1459 3.20997   3
   5   0  -5 92.0836 6.82205   1
   5   0  -5 92.1528 6.63196   3
  -5   0   5 76.3455 6.80636   1
  -5   0   5 85.6529 7.07129   2
   5   0  -4 33.3713 2.94251   1
  -5   0   4 31.4945 3.69839   2
   5   0  -4 32.0099 2.72992   3
  -5   0   4 31.4485 3.05918   1
   5   0  -3-0.33853 1.14499   3
  -5   0   3-0.39230 1.67863   1
   5   0  -3 0.25473 1.53342   1
   5   0  -2 47.7443 3.76867   3
  -5   0   2 48.6298 3.85045   1
   5   0  -2 47.9354 4.32052   2
   5   0  -2 47.0690 3.86276   1
   5   0  -2 36.1066 3.93045   2
   5   0  -1 14.9706 2.04048   1
  -5   0   1 11.8639 1.82426   1
   5   0  -1 13.7416 2.70045   2
   5   0  -1 10.5680 2.23722   2
   5   0   0 7.78131 2.23910   2
   5   0   0 12.9316 2.60136   2
   5   0   0 10.1804 1.89233   1
   5   0   0 8.35428 1.52740   1
   5   0   1 111.814 8.88984   2
  -5   0  -1 113.357 8.76092   2
   5   0   1 112.147 8.52369   1
   5   0   1 116.923 8.61853   1
   5   0   2 160.633 12.4483   2
  -5   0  -2 177.130 12.4180   2
   5   0   2 160.815 12.2049   1
   5   0   2 160.679 12.1512   1
   5   0   3-0.93882 1.42979   1
   5   0   3 0.42522 2.28232   2
  -5   0  -3 0.60792 2.18751   2
  -5   0  -3-0.20214 1.57136   1
   5   0   4 93.8087 8.28505   2
  -5   0  -4 107.413 8.26957   2
  -5   0  -4 111.489 8.04899   1
   5   0   4 105.363 8.01049   1
   5   0   5 1.87593 2.23141   2
   5   0   5 1.45824 1.77687   1
  -5   0  -5 3.10733 1.79418   1
  -5   0  -5 2.72756 2.20494   2
   5   0   6 20.5976 3.14115   2
  -5   0  -6 25.2362 2.97980   2
   5   0   6 31.5581 3.15446   1
  -5   0  -6 23.7998 2.65477   1
   5   0   7 3.40592 2.30942   2
   5   0   7 2.96041 2.26552   1
  -5   0  -7 3.87504 1.86366   1
  -5   0  -7 1.27632 2.16139   2
  -5   0  -8 190.448 13.2789   2
  -5   0  -8 179.664 13.0783   1
   5   0   8 174.525 13.2157   1
   5   0   8 145.603 13.1962   2
  -5   0  -9 32.5704 3.40057   2
   5   0   9 23.7590 3.43982   2
   5   0   9 29.3256 3.62810   1
  -5   0  -9 31.8047 3.26270   1
   5   0  10 12.3027 3.04966   2
  -5   0 -10 13.4673 2.75659   2
   5   0  10 9.09512 3.19202   1
  -5   0 -10 17.8546 2.53266   1
  -5   0 -11 288.552 20.9161   2
  -5   0 -11 279.917 20.7479   1
   5   0  11 261.753 20.8849   2
   5   0  11 279.279 20.9474   1
   5   0  12 20.8704 4.22360   1
  -5   0 -12 22.8008 3.40948   2
  -5   0 -12 22.0772 3.19580   1
  -5   0 -13 1.12811 2.95763   2
   5   0  13-2.82530 3.95068   1
  -5   0 -14 5.43107 3.22060   2
   5   0  14 8.10924 3.98558   1
  -5   0 -15 19.2592 3.66581   2
   5   0  15 23.0698 4.61781   1
  -5   0 -16-1.21683 3.31873   2
   5   0  16 1.95857 4.36101   1
  -5   0 -17 13.1774 3.99065   2
   5   0  17 18.8013 4.78292   1
   5   0  18 100.945 8.63526   1
  -5   0 -18 80.8030 7.93256   2
  -5   0 -19 18.6745 4.27561   2
   5   0  19 20.5463 5.49399   1
  -5   1  20 7.31082 5.04038   1
  -5  -1  20 6.11064 5.54647   1
   5  -1 -19 7.05985 4.18836   2
  -5   1  19 4.76808 4.58234   1
  -5  -1  19 9.06399 5.35193   1
   5  -1 -18 29.1437 4.72754   2
  -5   1  18 38.8251 5.27262   1
  -5  -1  18 27.9316 5.61183   1
   5  -1 -17-1.73057 3.65974   2
  -5   1  17-2.49723 4.05061   1
  -5  -1  17 1.13724 4.87810   1
  -5   1  16 9.32079 3.81798   1
  -5  -1  16 1.18178 4.70505   1
   5  -1 -16 2.08762 3.40866   2
  -5   1  15 86.1111 7.59183   1
  -5  -1  15 95.3131 7.97347   1
   5  -1 -15 80.3980 7.42945   2
  -5   1  14 102.839 8.08897   1
  -5  -1  14 96.3773 8.54074   1
   5  -1 -14 96.4583 8.03503   2
   5   1 -14 85.2077 8.00230   2
   5  -1 -14 106.823 8.19691   1
  -5   1  13 21.1788 3.60310   1
   5  -1 -13 15.9181 3.82271   1
  -5   1  13 19.4651 2.22193   3
  -5  -1  13 21.3297 4.07583   1
   5  -1 -13 17.3379 3.21624   2
   5   1 -13 13.3805 3.19839   2
  -5   1  12 8.70383 2.89651   1
   5  -1 -12 10.1636 3.08495   1
  -5   1  12 6.82239 1.76056   3
  -5  -1  12 7.64666 3.46661   1
   5   1 -12 6.40062 3.13623   1
   5  -1 -12 5.43674 2.75132   2
   5   1 -12 6.57135 2.76104   2
  -5   1  11 13.0941 2.79726   1
   5  -1 -11 16.5761 2.98092   1
  -5   1  11 16.4323 2.11167   3
  -5  -1  11 14.4392 3.39701   1
   5   1 -11 14.4542 3.16827   1
  -5   1  11 14.3452 3.41158   2
  -5  -1  11 11.0633 3.13941   2
   5  -1 -11 18.4206 2.91772   2
   5   1 -11 17.0303 2.84648   2
  -5   1  10 8.39968 2.42317   1
  -5   1  10 12.1932 1.84294   3
   5  -1 -10 9.32668 1.78713   3
   5  -1 -10 9.80645 2.65955   1
  -5   1  10 14.0316 3.15652   2
  -5  -1  10 4.62420 2.87537   1
   5   1 -10 8.65217 2.86766   1
  -5  -1  10 8.99264 2.88059   2
   5  -1 -10 12.0297 2.60556   2
   5   1 -10 12.4296 2.58254   2
  -5   1   9 15.1664 2.45519   1
  -5   1   9 11.8727 2.02048   3
  -5   1   9 20.0306 3.00550   2
  -5  -1   9 11.7392 2.70711   2
  -5  -1   9 10.5782 3.02642   1
   5   1  -9 13.6056 2.73842   1
   5  -1  -9 19.6785 2.58457   2
   5   1  -9 13.4223 2.47519   2
   5  -1  -9 13.2513 1.92784   3
   5  -1  -9 10.4760 2.49427   1
  -5   1   8 12.1431 2.14319   1
  -5   1   8 13.1191 1.93203   3
   5  -1  -8 13.8885 1.82939   3
   5  -1  -8 12.6050 2.33506   1
  -5   1   8 17.2650 2.88742   2
  -5  -1   8 12.2654 2.73544   2
   5  -1  -8 9.30061 2.41903   2
   5   1  -8 12.9532 2.36013   2
  -5  -1   8 10.2781 2.73851   1
   5   1  -8 7.48277 2.57535   1
  -5  -1   7 12.7741 2.40261   1
  -5   1   7 8.50036 1.77694   3
   5   1  -7 8.11945 2.51608   1
   5  -1  -7 7.13216 2.02657   1
   5  -1  -7 8.45828 1.67428   3
  -5   1   7 9.81969 2.67980   2
  -5  -1   7 11.7608 2.57249   2
   5  -1  -7 7.92073 2.09949   2
  -5   1   7 8.31076 1.95209   1
   5   1  -7 10.5868 2.18610   2
  -5  -1   6 17.5247 2.64751   1
   5   1  -6 14.7376 2.49485   1
   5   1  -6 12.3548 1.21886   3
  -5   1   6 14.6143 1.94713   3
   5  -1  -6 15.6057 1.92674   3
  -5   1   6 12.5869 2.02910   1
  -5   1   6 15.7677 2.90613   2
  -5  -1   6 14.1825 2.57989   2
   5  -1  -6 17.9328 2.38207   2
   5   1  -6 12.8844 2.20099   2
   5  -1  -6 13.6228 1.95991   1
  -5   1   5 460.844 34.0977   4
   5   1  -5 522.375 34.1303   1
   5  -1  -5 478.137 34.0381   3
  -5   1   5 422.575 33.9657   1
  -5   1   5 591.639 34.3477   2
  -5  -1   5 476.763 34.1824   2
   5  -1  -5 476.953 34.1525   2
   5   1  -5 471.216 34.1144   2
   5   1  -5 436.495 33.9208   3
  -5   1   5 466.571 34.0415   3
  -5  -1   5 540.995 34.2014   1
   5  -1  -5 432.934 33.9534   1
   5  -1  -4 135.015 9.34088   3
   5   1  -4 146.133 9.58228   1
  -5  -1   4 123.984 9.53413   2
   5   1  -4 123.548 9.22119   4
   5  -1  -4 131.905 9.49140   2
   5   1  -4 136.906 9.43439   2
  -5   1   4 97.7725 9.18314   1
   5  -1  -4 122.796 9.19460   1
  -5  -1   4 135.167 9.47135   1
  -5  -1   3 202.930 12.9786   1
   5  -1  -3 197.673 13.1058   2
  -5  -1   3 198.438 13.1428   2
   5   1  -3 197.855 12.9713   1
   5  -1  -3 177.699 12.9408   2
   5   1  -3 186.425 12.9065   2
   5  -1  -3 182.884 12.8484   3
   5  -1  -3 165.273 12.6463   1
  -5   1   3 146.335 12.6609   1
   5  -1  -2 226.570 15.4687   1
   5  -1  -2 222.313 15.9156   2
  -5  -1   2 259.304 15.8329   1
   5  -1  -2 242.520 15.7383   3
   5   1  -2 208.773 15.7027   2
   5  -1  -2 213.263 15.7820   2
  -5   1   2 172.744 15.4723   1
   5   1  -2 237.923 15.8401   2
   5   1  -2 230.844 15.7066   1
   5  -1  -1 253.991 17.3359   2
   5  -1  -1 263.915 17.1745   3
   5  -1  -1 259.023 16.8947   1
  -5  -1   1 279.857 17.1866   1
   5  -1  -1 258.788 17.3181   2
   5   1  -1 226.919 17.1474   2
   5   1  -1 251.860 17.2356   2
   5   1  -1 298.788 17.2049   1
   5   1   0 447.398 28.4100   1
   5  -1   0 377.643 28.5017   2
   5   1   0 383.359 28.4315   2
   5  -1   0 417.806 28.4221   3
   5   1   0 381.255 28.3932   2
   5  -1   0 412.576 28.1841   1
   5  -1   0 317.516 28.1903   1
  -5  -1   0 461.945 28.4272   1
   5   1   1 34.0172 3.43056   2
   5   1   1 40.6157 3.44289   1
   5   1   1 36.3393 3.16227   1
   5  -1   1 30.4967 2.88260   1
   5  -1   1 39.7905 2.89027   1
   5  -1   1 36.6511 3.41467   3
   5   1   2 61.0865 5.04306   2
  -5  -1  -2 61.1680 5.02222   2
   5   1   2 64.7160 4.94819   1
  -5   1  -2 60.5119 4.60059   1
   5   1   2 63.1096 4.84938   1
   5  -1   2 55.8829 4.62411   1
   5   1   3 183.363 14.3640   2
  -5  -1  -3 207.022 14.4219   2
  -5   1  -3 190.173 14.1626   1
   5   1   3 191.817 14.3411   1
   5   1   3 195.481 14.2961   1
   5  -1   3 188.103 14.1835   1
   5   1   4 294.444 22.6364   2
  -5  -1  -4 314.476 22.6575   2
  -5   1  -4 317.306 22.4831   1
   5   1   4 301.270 22.5886   1
   5  -1   4 295.776 22.5066   1
   5   1   5 55.2789 5.28795   2
  -5  -1  -5 72.0882 5.34780   2
  -5  -1  -5 63.2269 5.20355   1
  -5   1  -5 63.2019 4.99020   1
   5   1   5 63.2123 5.21721   1
   5  -1   5 64.6143 5.14293   1
   5   1   6 24.5710 2.74436   1
   5   1   6 19.7357 2.77514   2
  -5   1  -6 22.4519 2.99276   2
  -5  -1  -6 22.4890 2.75301   2
  -5  -1  -6 25.1065 2.66822   1
  -5   1  -6 20.4375 2.32136   1
   5  -1   6 18.6979 2.59952   1
  -5   1  -7 28.0014 3.21117   2
  -5  -1  -7 30.2869 3.16476   2
   5   1   7 30.6187 3.21019   1
   5   1   7 25.2168 3.10333   2
   5  -1   7 23.7641 3.09012   1
  -5   1  -7 28.9222 2.80056   1
  -5  -1  -7 24.8789 3.02898   1
  -5   1  -8 14.5611 2.69769   2
  -5   1  -8 12.2353 2.17915   1
   5   1   8 6.92861 2.46873   2
   5   1   8 15.0296 2.75916   1
  -5  -1  -8 17.1882 2.57341   2
   5  -1   8 10.4573 2.65382   1
  -5  -1  -8 11.3424 2.52644   1
  -5   1  -9 98.4813 7.38122   2
  -5  -1  -9 88.7976 7.26198   2
  -5  -1  -9 85.8865 7.19113   1
  -5   1  -9 89.0847 7.09318   1
   5   1   9 106.004 7.51657   1
   5   1   9 73.1073 7.24247   2
   5  -1   9 84.1787 7.32846   2
   5  -1   9 91.2238 7.31073   1
  -5   1 -10 11.1741 2.54478   1
   5   1  10 9.81839 2.78002   2
   5  -1  10 14.5969 3.15194   2
   5   1  10 14.5681 3.42485   1
   5  -1  10 19.8553 3.14182   1
  -5   1 -10 16.4967 3.00664   2
  -5  -1 -10 16.7731 2.78376   2
  -5  -1 -10 13.1665 2.65135   1
   5   1  11 24.8334 3.58333   2
   5  -1  11 29.7611 3.83158   2
   5   1  11 27.0488 4.15157   1
  -5   1 -11 31.8671 3.70404   2
   5  -1  11 26.0852 3.86823   1
  -5   1 -11 29.4214 3.27572   1
  -5  -1 -11 30.3446 3.42772   1
  -5  -1 -11 28.0276 3.47703   2
  -5   1 -12 8.46693 2.67893   1
   5   1  12 8.31248 3.18152   2
  -5  -1 -12 12.6890 2.84852   2
   5   1  12 8.04248 3.78824   1
  -5   1 -12 3.77538 2.94311   2
   5  -1  12 11.6061 3.39534   1
  -5   1 -13 2.32320 3.06808   2
  -5  -1 -13 0.97001 2.88185   2
   5   1  13 7.13512 3.93894   1
   5  -1  13 8.89568 3.70086   1
  -5  -1 -14 9.20583 3.11872   2
   5   1  14 4.79541 4.17014   1
  -5   1 -14 2.65704 3.17412   2
   5  -1  14 1.59799 3.97904   1
  -5   1 -15 9.80490 3.49656   2
  -5  -1 -15 10.0502 3.29705   2
   5   1  15 12.3539 4.51784   1
   5  -1  15 5.36552 4.14011   1
  -5   1 -16 4.96039 3.55843   2
  -5  -1 -16-0.09686 3.47619   2
   5   1  16 4.02178 4.76021   1
  -5   1 -17 21.5958 4.25651   2
  -5  -1 -17 19.8444 4.07640   2
   5   1  17 29.7231 5.72848   1
   5  -1  17 29.4894 5.09991   1
  -5   1 -18 6.22342 3.88663   2
  -5  -1 -18 15.0079 3.97929   2
   5   1  18 11.3173 5.27117   1
   5  -1  18 7.63159 4.84968   1
  -5   1 -19 3.52217 4.19577   2
  -5  -1 -19 9.47645 3.96183   2
   5   1  19 4.26733 5.54111   1
   5  -1  19 9.39711 5.21896   1
  -5  -1 -20 2.76260 3.93008   2
  -5   2  20 40.0751 5.94337   1
   5  -2 -19 2.41406 4.05179   2
   5   2 -19 0.45712 4.03379   2
  -5   2  19 3.11562 4.87679   1
  -5  -2  19 7.26120 5.30644   1
   5  -2 -18 5.89347 3.87831   2
   5   2 -18 12.1946 3.88718   2
  -5   2  18 13.8164 4.26224   1
  -5  -2  18 11.6514 4.86407   1
   5  -2 -17 9.87200 3.90635   2
   5   2 -17 2.40897 3.66178   2
  -5   2  17 6.85473 4.04506   1
  -5  -2  17 9.30330 4.79416   1
   5   2 -16 2.63032 3.47210   2
  -5   2  16 5.06967 3.78587   1
  -5  -2  16 5.13429 4.63559   1
   5  -2 -16 4.57262 3.47811   2
   5   2 -15 7.70265 3.49284   2
  -5   2  15 9.89879 3.66336   1
  -5  -2  15 7.01721 4.40073   1
   5  -2 -15 2.43805 3.12696   2
   5   2 -14 10.1577 3.33321   2
  -5   2  14 6.05886 3.13697   1
   5  -2 -14 8.25875 2.91699   1
  -5  -2  14 0.10844 4.09129   1
   5  -2 -14 7.64172 3.03257   2
  -5   2  13 65.8144 6.06037   1
  -5  -2  13 70.7555 6.57098   1
   5  -2 -13 68.4165 5.85320   1
   5  -2 -13 72.2572 6.00495   2
  -5   2  13 64.6294 5.56813   3
   5   2 -13 61.5412 6.03610   2
  -5   2  12 100.011 8.45600   1
  -5  -2  12 101.526 8.93619   1
  -5   2  12 103.128 8.21584   3
   5  -2 -12 113.120 8.41989   1
   5  -2 -12 113.389 8.59414   2
   5   2 -12 102.605 8.51738   2
  -5   2  11 29.9727 3.63118   1
  -5   2  11 34.1297 3.34079   3
   5  -2 -11 32.4894 3.62315   1
  -5   2  11 36.4807 4.40327   2
   5   2 -11 34.5351 3.85773   2
  -5  -2  11 31.7359 4.03202   2
   5   2 -11 35.1281 4.15977   1
   5  -2 -11 31.2376 3.76506   2
  -5  -2  11 36.6271 4.41956   1
  -5  -2  10 27.3132 4.39192   1
   5   2 -10 41.2785 4.40438   1
  -5   2  10 40.2782 3.82584   1
  -5   2  10 41.0834 3.63949   3
   5  -2 -10 30.1299 3.58975   3
  -5   2  10 46.0713 4.56473   2
  -5  -2  10 39.8673 4.08503   2
   5  -2 -10 44.4213 4.02360   2
   5  -2 -10 40.3411 3.80260   1
   5   2 -10 38.3969 3.92564   2
  -5   2   9 49.5215 4.56561   1
   5   2  -9 60.8332 5.12377   1
  -5   2   9 51.0799 4.63161   3
   5  -2  -9 59.1583 4.85708   2
  -5   2   9 63.4129 5.29511   2
   5  -2  -9 50.2639 4.59713   3
  -5  -2   9 56.3899 5.02664   2
   5  -2  -9 45.9320 4.53494   1
  -5  -2   9 61.6604 5.18971   1
   5   2  -9 58.3689 4.87127   2
  -5   2   8 53.1739 4.67019   1
   5   2  -8 58.6408 5.28504   1
   5  -2  -8 51.1697 4.74722   3
  -5   2   8 55.9330 4.81158   3
  -5   2   8 76.3465 5.43701   2
  -5  -2   8 58.3022 5.06427   2
   5  -2  -8 57.0660 4.96767   2
   5  -2  -8 52.0355 4.64008   1
   5   2  -8 60.4083 4.95373   2
  -5  -2   8 70.7219 5.51858   1
  -5   2   7 209.581 17.0868   1
  -5   2   7 233.854 17.3671   4
   5   2  -7 241.646 17.3942   1
  -5   2   7 245.109 17.2723   3
  -5   2   7 291.605 17.6020   2
  -5  -2   7 230.848 17.3344   2
   5  -2  -7 243.470 17.3179   2
   5  -2  -7 207.760 17.0801   1
   5   2  -7 241.589 17.2979   2
  -5  -2   7 252.137 17.4753   1
   5  -2  -7 230.561 17.2425   3
  -5   2   6 114.164 8.00804   1
  -5   2   6 125.036 8.30291   3
   5  -2  -6 124.802 8.27000   3
   5   2  -6 88.9541 7.81573   3
  -5   2   6 167.146 8.83383   2
  -5  -2   6 135.312 8.44728   2
   5  -2  -6 137.940 8.36204   2
   5  -2  -6 109.502 7.97608   1
   5   2  -6 128.697 8.29606   2
   5   2  -6 129.908 8.52833   1
  -5  -2   6 138.225 8.63277   1
  -5   2   5 35.9767 3.31624   1
  -5   2   5 47.4583 3.88171   3
   5  -2  -5 44.9250 3.80480   3
   5  -2  -5 54.6842 4.33295   2
   5   2  -5 37.7155 3.26711   3
   5   2  -5 50.5585 4.45336   1
   5  -2  -5 54.0936 3.99886   2
   5  -2  -5 39.1177 3.30446   1
   5   2  -5 49.0651 3.75066   2
  -5  -2   5 50.4013 3.98096   2
  -5  -2   5 47.2210 4.19055   1
  -5  -2   4 203.070 11.2046   1
  -5   2   4 181.246 10.9850   3
   5  -2  -4 216.896 11.2454   2
   5  -2  -4 185.754 10.9666   3
  -5   2   4 117.370 10.5950   1
   5   2  -4 193.722 11.1684   1
  -5  -2   4 185.010 11.0499   2
   5  -2  -4 127.646 10.5864   1
   5  -2  -4 193.530 11.0923   2
   5   2  -4 181.175 10.9238   2
  -5  -2   3 206.078 13.0367   1
   5  -2  -3 185.705 13.0574   2
   5  -2  -3 174.875 12.8461   3
  -5  -2   3 178.613 12.9043   2
   5  -2  -3 162.936 12.8738   2
   5   2  -3 158.364 12.7517   2
   5   2  -3 160.490 12.9076   1
  -5   2   3 156.299 12.7970   3
  -5  -2   2 61.4266 4.65682   1
   5  -2  -2 55.8664 4.69234   2
   5   2  -2 47.2664 4.31832   2
   5  -2  -2 50.4551 4.42543   2
   5   2  -2 44.7224 4.05517   2
   5  -2  -2 47.4061 4.26853   3
   5   2  -2 52.8893 4.67285   1
  -5   2   2 45.1625 4.31781   3
  -5  -2   1 3.58636 2.46849   1
   5  -2  -1 1.91547 1.85017   3
   5   2  -1 4.03875 2.15749   2
   5  -2  -1 3.50437 2.60728   2
   5  -2  -1 3.61297 2.32374   2
   5   2  -1 2.58787 1.38376   2
   5   2  -1 7.22891 2.55243   1
   5   2   0 99.7667 8.14608   1
  -5   2   0 110.747 8.23745   2
   5  -2   0 110.705 8.37667   2
   5   2   0 104.570 8.08354   2
   5  -2   0 97.3467 8.08070   3
   5   2   0 93.1165 7.92501   2
  -5  -2   0 130.688 8.30246   1
   5  -2   1 110.455 8.16111   2
   5   2   1 123.179 8.11515   1
   5   2   1 94.7613 7.90619   2
  -5   2  -1 107.407 8.10047   2
   5  -2   1 104.340 8.02710   3
   5   2   1 99.8785 7.95498   1
   5   2   1 90.5217 7.76415   2
  -5   2  -2 10.5022 2.37249   2
   5  -2   2 5.93938 2.61488   2
   5   2   2 12.3771 2.72473   1
   5   2   2 9.73009 2.14961   2
   5  -2   2 6.17846 1.25605   1
   5   2   2 8.17128 2.06214   2
  -5   2  -2 13.2231 1.03738   1
   5   2   2 11.0212 2.22109   1
   5  -2   3 129.640 9.54498   2
   5   2   3 135.196 9.32244   2
  -5   2  -3 135.684 9.52510   2
   5  -2   3 94.6795 9.08795   1
  -5  -2  -3 140.669 9.33802   2
   5   2   3 140.781 9.52058   1
   5   2   3 123.937 9.41377   1
  -5   2  -3 122.882 9.04145   1
   5   2   4 309.763 22.7363   2
   5  -2   4 307.681 22.8858   2
  -5   2  -4 339.360 22.9546   2
   5  -2   4 276.503 22.6371   1
  -5  -2  -4 319.872 22.7976   2
   5   2   4 317.984 22.8737   1
   5   2   4 333.665 22.8411   1
  -5   2  -4 302.307 22.6046   1
   5  -2   4 310.182 22.8882   3
   5  -2   5 23.9521 3.11563   2
  -5   2  -5 21.0956 3.03224   2
   5  -2   5 24.0598 3.03778   3
  -5  -2  -5 23.3069 2.64127   2
  -5   2  -5 19.2427 2.20369   1
   5   2   5 24.4205 3.15433   1
   5   2   5 20.8614 2.79032   1
   5  -2   5 17.8122 2.39964   1
   5   2   5 21.8649 2.45215   2
   5   2   6 11.2986 2.46802   1
  -5   2  -6 8.25466 1.82978   1
   5   2   6 10.6044 1.96538   2
   5  -2   6 6.80197 2.69449   2
  -5   2  -6 11.9539 2.60909   2
   5  -2   6 10.6163 2.69676   3
  -5  -2  -6 9.89694 2.16029   2
   5  -2   6 15.0934 2.12192   1
   5   2   7 19.7997 2.83443   1
  -5   2  -7 16.1032 2.28236   1
   5   2   7 18.9551 2.40745   2
   5  -2   7 12.6304 2.93169   2
   5  -2   7 20.1936 3.06644   3
  -5   2  -7 15.5624 3.01173   2
  -5  -2  -7 18.3630 2.54768   2
  -5  -2  -7 15.1321 2.83813   1
   5  -2   7 16.5614 2.57893   1
   5   2   8 0.76433 2.55082   1
   5   2   8 2.81604 2.20178   2
  -5   2  -8 0.91124 1.94524   1
   5  -2   8 2.41404 2.70476   2
  -5   2  -8-1.58316 2.52383   2
  -5  -2  -8 2.53183 2.18888   2
  -5  -2  -8 1.36381 2.38362   1
   5  -2   8 4.76063 2.32338   1
   5   2   9 7.58746 2.43325   2
   5   2   9 8.50647 2.91816   1
   5  -2   9 8.24204 2.89908   2
  -5   2  -9 13.1631 2.28662   1
  -5  -2  -9 7.93251 2.37162   2
  -5  -2  -9 8.99370 2.72692   1
   5  -2   9 11.4745 2.79890   1
   5   2  10 2.20806 2.51349   2
   5  -2  10 5.33872 3.02802   2
  -5   2 -10 5.17075 2.38416   1
   5   2  10 3.01095 3.20037   1
  -5  -2 -10 2.95750 2.39548   2
  -5  -2 -10 5.66918 2.71408   1
   5  -2  10 6.35187 2.88647   1
   5   2  11 1.51133 2.90706   2
  -5   2 -11 9.44874 2.55104   1
   5   2  11 11.7174 3.65564   1
  -5  -2 -11 9.16597 2.76078   2
   5  -2  11 2.30950 2.95197   1
   5   2  12 2.06018 2.96521   2
  -5   2 -12 1.56084 2.58593   1
   5   2  12 5.50112 4.04560   1
  -5  -2 -12 2.16330 2.46327   2
   5  -2  12 5.41888 3.32477   1
   5   2  13 5.62643 3.37303   2
  -5  -2 -13 0.76870 2.94984   2
   5  -2  13 4.67307 3.49933   1
   5   2  14 2.02531 4.38804   1
  -5  -2 -14 3.97796 2.94564   2
   5  -2  14 5.01110 3.76888   1
  -5  -2 -15 5.05031 2.99212   2
   5  -2  15-4.38332 4.26454   1
   5   2  15-7.29321 4.74977   1
   5  -2  16 10.5298 4.45929   1
  -5  -2 -16 3.90904 3.33339   2
   5   2  16-1.42383 4.86670   1
   5  -2  17 18.6086 5.11769   1
  -5   2 -17 16.5577 4.32235   2
  -5  -2 -17 19.9195 3.91866   2
   5   2  17 25.2868 5.53694   1
   5  -2  18 19.3543 5.26554   1
  -5   2 -18 13.7839 4.34454   2
  -5  -2 -18 11.7527 3.91265   2
   5   2  18 24.6370 5.90010   1
   5  -2  19-8.18114 5.52011   1
  -5  -2 -19 4.81069 3.92330   2
  -5  -2 -20 0.11331 3.86063   2
   5  -3 -19 6.50656 4.06021   2
   5  -3 -18 0.10278 3.87746   2
   5   3 -18-1.99030 3.85289   2
  -5  -3  18 0.14924 5.41378   1
  -5   3  18 0.19742 4.34949   1
   5  -3 -17-1.66071 3.58822   2
   5   3 -17 1.04785 3.59423   2
  -5   3  17 2.09590 4.07981   1
  -5  -3  17 3.39967 5.00263   1
   5   3 -16 27.3983 4.27544   2
  -5   3  16 29.3355 4.61388   1
  -5  -3  16 31.5544 5.28077   1
   5  -3 -16 26.7965 4.23659   2
  -5  -3  15 3.03350 4.35979   1
   5   3 -15-0.09522 3.47384   2
  -5   3  15 3.44466 3.35987   1
   5  -3 -15 5.59167 3.10611   2
  -5  -3  14 36.8831 5.13991   1
   5   3 -14 29.4332 4.33919   2
  -5   3  14 31.9337 4.15891   1
   5  -3 -14 37.0514 4.23988   2
   5   3 -13 5.36440 3.21840   2
  -5  -3  13 3.23537 4.22522   1
  -5   3  13 7.18491 2.78016   3
  -5   3  13 2.43642 2.88565   1
   5  -3 -13 7.86536 2.80271   2
   5  -3 -13 1.30594 2.83063   1
  -5   3  12 53.8819 5.17456   1
  -5   3  12 60.9659 5.21763   3
   5  -3 -12 62.8174 5.19833   1
   5  -3 -12 53.8263 5.41448   2
  -5  -3  12 66.0965 6.21114   1
   5   3 -12 57.6469 5.44883   2
   5   3 -11 9.98132 2.96117   2
  -5  -3  11 9.68726 4.09094   1
  -5   3  11 7.04499 2.57028   3
   5  -3 -11 4.80462 2.62291   3
  -5   3  11 12.0103 3.56091   2
  -5   3  11 10.1885 2.62105   1
   5  -3 -11 10.3471 2.85329   2
   5  -3 -11 9.61432 2.47545   1
  -5   3  10 40.1991 4.20471   1
  -5   3  10 44.4488 4.36528   3
   5  -3 -10 42.2001 4.35163   3
  -5   3  10 63.9586 5.12462   2
  -5  -3  10 50.7576 4.67062   2
   5  -3 -10 45.5335 4.14518   1
   5  -3 -10 54.5901 4.56353   2
   5   3 -10 40.7085 4.46894   2
  -5  -3  10 43.9098 5.25608   1
   5   3  -9 18.9140 3.71492   1
  -5  -3   9 26.6188 4.27067   1
  -5   3   9 26.0183 3.15038   3
   5  -3  -9 22.2839 3.11357   3
  -5   3   9 34.8864 4.35888   2
  -5   3   9 26.8159 3.66544   4
  -5   3   9 18.0644 2.82350   1
  -5  -3   9 24.2434 3.33465   2
   5  -3  -9 27.8116 3.17807   2
   5  -3  -9 20.6456 2.76632   1
   5   3  -9 25.6370 3.15726   2
  -5   3   8 37.2967 3.70748   1
   5   3  -8 45.4944 4.74104   1
  -5   3   8 42.5952 4.15400   3
  -5   3   8 53.1122 5.01450   2
  -5   3   8 35.7263 4.34907   4
   5  -3  -8 38.4998 4.09843   3
   5  -3  -8 43.0711 3.79641   1
  -5  -3   8 48.5369 4.27647   2
   5  -3  -8 46.8470 4.11916   2
   5   3  -8 46.5373 4.13894   2
  -5  -3   8 57.3354 5.09498   1
  -5   3   7 212.552 13.9075   1
  -5   3   7 228.764 14.2210   3
   5  -3  -7 293.486 14.5075   2
   5  -3  -7 214.709 13.9170   1
  -5  -3   7 246.677 14.2378   2
   5  -3  -7 263.074 14.2492   2
   5   3  -7 218.914 14.1193   2
   5   3  -7 259.677 14.4549   1
   5  -3  -7 235.981 14.2629   3
   5   3  -7 147.352 13.7161   3
  -5  -3   7 258.919 14.5102   1
  -5   3   6 107.937 8.43469   1
  -5  -3   6 133.095 9.16792   1
   5  -3  -6 152.922 9.11926   2
   5  -3  -6 111.171 8.83705   3
   5   3  -6 125.631 9.19679   1
  -5  -3   6 122.639 8.83813   2
   5  -3  -6 124.127 8.77724   2
   5   3  -6 96.1741 8.35868   3
   5   3  -6 122.254 8.71525   2
  -5   3   6 123.094 8.85069   3
  -5   3   5 35.2229 3.00878   1
  -5  -3   5 43.0591 4.36372   1
  -5  -3   5 39.8641 3.71866   2
   5  -3  -5 45.5751 4.16255   2
  -5   3   5 39.4464 3.85062   3
   5  -3  -5 42.2498 3.75374   3
   5   3  -5 38.2165 3.05725   3
  -5   3   5 32.1972 3.04369   1
   5   3  -5 48.3270 4.29625   1
   5  -3  -5 45.5504 3.77085   2
   5   3  -5 36.3573 3.56315   2
   5  -3  -4 14.0500 2.55793   3
  -5   3   4 12.2613 1.25042   1
  -5  -3   4 21.0566 3.58165   1
  -5   3   4 19.5631 2.81100   3
   5  -3  -4 17.2121 3.04098   2
   5   3  -4 13.1937 1.69139   3
  -5  -3   4 16.1638 2.43150   2
   5  -3  -4 17.4682 2.49782   2
   5   3  -4 18.6744 3.27112   1
   5   3  -4 15.5626 2.07324   2
   5   3  -3 13.6452 2.87377   1
  -5  -3   3 18.7657 3.47717   1
   5  -3  -3 15.0908 2.92480   2
   5  -3  -3 12.2330 2.47815   3
  -5   3   3 17.6783 2.65124   3
  -5  -3   3 14.1311 2.48702   2
   5   3  -3 10.2675 1.76980   3
   5  -3  -3 16.9186 2.61577   2
   5   3  -3 11.6310 1.89434   2
   5  -3  -2 58.2440 4.80168   2
  -5   3   2 50.3729 4.52873   3
   5  -3  -2 48.6744 4.53723   3
   5   3  -2 48.7388 4.37084   2
  -5  -3   2 58.7115 4.93323   1
   5   3  -2 40.5488 4.12959   3
   5  -3  -2 59.5449 4.62154   2
   5   3  -2 49.8658 4.09123   2
   5   3  -2 57.5496 4.92146   1
   5   3  -1 26.4583 3.03974   2
   5  -3  -1 32.9779 3.40393   3
   5  -3  -1 31.1056 3.62998   2
  -5  -3   1 36.5964 3.65629   1
  -5   3   1 29.5301 3.33225   3
   5  -3  -1 33.1740 3.57890   2
   5   3  -1 30.2366 2.74393   2
   5   3  -1 24.0548 3.91102   1
   5  -3   0 59.9375 5.02028   2
   5   3   0 55.7530 4.59276   2
  -5   3   0 53.1481 4.82890   3
  -5   3   0 57.4996 4.94551   2
   5   3   0 47.7320 4.38246   2
  -5  -3   0 66.9239 5.11235   1
   5   3   0 57.7509 5.01833   1
   5   3   1 97.3881 4.78084   1
   5  -3   1 99.5964 4.67950   2
   5   3   1 103.227 4.04002   2
  -5   3  -1 98.1263 4.55922   2
   5   3   1 75.9002 3.78394   2
   5  -3   2 51.2565 5.44480   1
   5  -3   2 88.8956 6.13854   2
   5   3   2 84.8941 5.71682   2
   5   3   2 88.6216 6.34902   1
  -5   3  -2 88.8047 6.13067   2
   5   3   2 79.2373 6.05354   1
   5   3   2 74.6188 5.61951   2
  -5   3  -2 74.5359 5.40923   1
   5  -3   3 125.280 9.33662   2
   5   3   3 124.132 9.03043   2
  -5   3  -3 138.556 9.44890   2
   5   3   3 131.279 9.59922   1
   5  -3   3 138.513 9.41260   3
   5   3   3 128.896 9.03481   2
   5   3   3 126.079 9.34273   1
   5  -3   3 98.0236 8.96537   1
  -5   3  -3 109.400 8.91413   1
   5   3   4 6.95628 1.70987   2
   5  -3   4 4.57310 2.51529   2
  -5   3  -4 4.51353 1.56891   1
   5  -3   4-0.46212 2.61073   3
  -5   3  -4 4.81961 2.73075   2
   5   3   4 2.28307 3.01393   1
   5  -3   4 2.57390 1.87063   1
   5   3   4 3.13317 2.52633   1
  -5   3  -5 42.6219 4.26498   2
  -5  -3  -5 44.8545 3.63477   2
   5   3   5 34.3614 4.31201   1
   5  -3   5 38.3780 4.22566   3
   5  -3   5 37.2664 3.76707   1
   5   3   5 46.0835 4.16343   1
  -5   3  -5 37.4816 3.52811   1
   5   3   5 41.9639 3.56214   2
   5  -3   5 42.3762 4.19941   2
   5  -3   6 14.0981 3.20935   2
  -5   3  -6 17.6696 2.50455   1
   5  -3   6 18.0069 3.14944   3
   5  -3   6 22.5237 2.95643   1
  -5  -3  -6 21.2148 2.60115   2
  -5   3  -6 23.0649 3.25180   2
   5   3   6 18.8250 2.20760   2
   5   3   6 31.3170 3.28429   1
   5   3   6 14.7091 3.33720   1
  -5   3  -7 50.8600 4.69770   2
  -5  -3  -7 44.2487 4.09461   2
   5  -3   7 59.1745 4.91209   3
   5   3   7 45.2262 4.57218   1
   5   3   7 42.1038 4.82048   1
   5  -3   7 43.2319 4.33859   1
  -5   3  -7 48.6070 4.09788   1
   5   3   7 42.1541 3.95085   2
   5  -3   7 40.9190 4.56962   2
   5   3   8 12.9707 3.18095   1
   5   3   8 12.3838 2.27139   2
   5  -3   8 16.2829 3.02651   2
  -5   3  -8 15.4681 2.60763   1
   5  -3   8 16.0109 2.83640   1
  -5   3  -8 18.5526 3.29715   2
  -5  -3  -8 14.4986 2.49333   2
   5  -3   8 19.6818 3.55321   3
   5   3   8 16.5314 3.46334   1
  -5   3  -9 83.9133 7.00847   2
  -5  -3  -9 83.0157 6.51371   2
   5  -3   9 92.5828 6.97047   3
   5   3   9 90.4822 7.01725   1
  -5   3  -9 79.7654 6.54483   1
   5   3   9 67.9628 6.43063   2
   5  -3   9 68.7689 6.72290   1
  -5  -3 -10 34.0613 3.58821   2
   5   3  10 40.0081 4.46155   1
   5  -3  10 28.4354 4.08251   1
  -5   3 -10 30.7202 3.66682   1
   5  -3  10 34.1632 4.11542   3
  -5   3 -10 28.7885 4.12455   2
   5   3  10 31.3020 3.53451   2
   5   3  11 8.09611 2.82605   2
   5   3  11 14.3816 3.73239   1
   5  -3  11 4.22168 3.46858   1
  -5   3 -11 6.02138 2.98660   1
   5  -3  11 10.9618 3.70666   3
  -5   3 -11 4.94492 3.15901   2
  -5  -3 -11 1.06315 2.58926   2
   5   3  12 10.7883 3.02816   2
   5  -3  12 10.0596 3.69248   1
   5   3  12 14.3782 3.99239   1
  -5   3 -12 7.76383 3.10966   1
   5  -3  12 10.2648 3.63252   3
  -5   3 -12 13.1259 3.53111   2
  -5  -3 -12 8.18916 2.72420   2
   5  -3  13 11.6123 3.67630   3
   5  -3  13 0.09720 4.02854   1
   5   3  13 2.35494 4.56236   1
  -5   3 -13 13.7833 3.68852   2
  -5  -3 -13 7.64934 2.75981   2
   5  -3  14 6.57261 3.66931   3
   5  -3  14 9.93024 4.33058   1
   5   3  14 14.0578 4.88516   1
  -5   3 -14 5.29165 3.68447   2
  -5  -3 -14 4.65413 3.12936   2
   5  -3  15-3.43231 4.29676   1
   5  -3  15 6.59689 3.95405   3
  -5  -3 -15 11.3041 3.15424   2
  -5   3 -15 3.47191 3.77860   2
  -5  -3 -16-1.02466 3.24698   2
   5  -3  16 2.34579 4.64634   1
   5  -3  16-1.73763 4.43057   3
  -5   3 -16 2.01099 3.95383   2
   5  -3  17 6.86080 5.10897   1
  -5   3 -17 10.9688 4.11629   2
   5  -3  17 7.90381 4.61501   3
   5  -3  18 5.66096 5.35300   1
   5  -3  18 7.63728 4.38829   3
   5  -4 -17 6.71663 3.85958   2
   5   4 -17 5.93103 3.81735   2
   5  -4 -16 8.40458 3.53050   2
   5   4 -16 14.9580 3.85885   2
  -5  -4  16 4.29391 5.42385   1
   5   4 -15 6.08574 3.53805   2
  -5  -4  15 6.65914 5.34843   1
   5  -4 -15 5.00761 3.41246   2
   5   4 -14 8.76338 3.43995   2
  -5  -4  14 10.2538 5.24628   1
  -5   4  14 7.47150 3.40366   1
   5  -4 -14 13.4018 3.34098   2
   5   4 -13 6.17714 3.23662   2
  -5  -4  13 12.9105 5.09611   1
  -5   4  13 7.47368 3.09653   1
   5  -4 -13 11.4395 3.06474   2
   5   4 -12 8.44228 3.12069   2
  -5  -4  12 13.5174 4.93256   1
  -5   4  12 8.92485 3.03389   1
   5  -4 -12 15.2789 3.19768   2
   5   4 -11 16.1062 3.20263   2
  -5  -4  11 11.5898 4.87151   1
   5  -4 -11 14.8026 3.31466   3
  -5   4  11 16.8188 2.92816   1
   5  -4 -11 16.9201 3.18248   2
   5   4 -10 13.5366 3.08526   2
  -5   4  10 19.1752 3.68971   4
  -5  -4  10 10.6170 4.43108   1
   5  -4 -10 14.1058 3.18728   3
   5  -4 -10 21.5393 3.63791   2
  -5   4  10 12.5445 2.83056   1
  -5  -4  10 20.4431 3.15556   2
   5  -4 -10 23.1725 3.09836   2
   5   4  -9 8.33177 2.75531   2
  -5  -4   9 13.3946 4.11015   1
   5  -4  -9 1.74539 2.87627   3
   5  -4  -9 10.3699 3.25387   2
  -5   4   9 7.73266 2.43357   1
  -5  -4   9 6.19131 2.66525   2
   5  -4  -9 8.54156 2.62103   2
   5   4  -8 1.58331 2.33426   2
   5   4  -8 5.13041 0.95802   3
   5  -4  -8 2.93398 3.00405   2
   5  -4  -8-1.72510 2.62424   3
  -5   4   8 4.18133 2.23127   1
  -5  -4   8 6.13081 3.89362   1
  -5  -4   8 5.19262 2.50586   2
   5  -4  -8 5.95261 2.53137   2
  -5   4   8 3.65815 2.15642   1
   5   4  -7 14.5385 2.51972   2
   5   4  -7 8.62224 1.54889   3
  -5   4   7 12.9661 2.92893   3
  -5   4   7 8.81781 2.28545   1
   5  -4  -7 17.5495 3.23326   2
  -5  -4   7 14.5360 2.56003   2
   5  -4  -7 13.2575 2.87916   3
  -5  -4   7 11.1890 4.14392   1
   5  -4  -7 9.15487 2.69747   2
  -5   4   7 12.1455 2.18871   1
  -5   4   6 1.73987 1.96401   1
   5   4  -6 2.91261 1.60645   3
  -5   4   6 5.25565 1.88560   1
   5  -4  -6 4.11156 2.93589   2
   5  -4  -6 1.57427 2.71044   3
  -5   4   6-0.07496 2.70435   3
  -5  -4   6 1.12575 2.23832   2
   5  -4  -6 1.49405 2.50982   2
  -5  -4   6 9.12144 3.68830   1
   5   4  -6 3.40276 2.10596   2
   5   4  -5 69.1480 6.08824   3
  -5  -4   5 93.8796 7.18422   1
   5  -4  -5 94.9483 6.73253   2
  -5   4   5 83.8876 6.67973   3
   5  -4  -5 78.8722 6.63677   3
   5   4  -5 78.4933 6.95768   1
  -5  -4   5 88.8910 6.32787   2
   5  -4  -5 93.2596 6.48499   2
   5   4  -5 76.2187 6.23553   2
  -5   4   5 74.8425 5.97889   1
  -5   4   5 66.2452 6.01083   1
  -5   4   4 12.0474 1.64455   1
  -5   4   4 9.89661 1.56927   1
  -5  -4   4 17.9361 3.91191   1
  -5   4   4 15.0906 3.12009   3
   5  -4  -4 13.9844 3.03855   2
   5   4  -4 12.6667 2.07945   3
   5  -4  -4 11.2579 2.85258   3
  -5  -4   4 16.8797 2.30006   2
   5  -4  -4 15.8202 2.56063   2
   5   4  -4 11.7269 3.48588   1
   5   4  -4 12.8042 2.18160   2
  -5   4   3 1.20502 1.09100   1
  -5   4   3 3.69478 2.85938   3
   5  -4  -3-1.84425 2.96943   2
   5  -4  -3 3.85967 2.74056   3
  -5  -4   3 6.56981 2.35211   2
  -5  -4   3-4.70618 3.58195   1
   5  -4  -3 1.65700 2.48242   2
   5   4  -3 1.02708 1.64023   2
   5   4  -3 3.59723 2.00792   3
   5   4  -3-2.61516 3.02596   1
   5   4  -2 7.65340 3.20234   1
  -5   4   2 5.05081 0.88126   1
  -5  -4   2 8.34887 3.41180   1
  -5   4   2 6.18771 2.72093   3
   5  -4  -2 4.07805 2.81768   2
   5  -4  -2 10.5154 2.75119   3
   5   4  -2 5.62012 2.09883   3
   5   4  -2 6.20871 2.01032   2
   5  -4  -2 9.37401 2.46220   2
   5   4  -2 7.77706 1.45788   2
   5  -4  -1 47.3448 3.79849   2
   5   4  -1 43.8379 3.06529   2
   5   4  -1 38.6727 3.22670   3
  -5   4   1 36.9537 3.68626   3
   5  -4  -1 55.5466 4.05054   2
  -5  -4   1 55.1381 4.34384   1
  -5   4   1 29.4169 2.42399   1
   5   4  -1 42.5247 2.76671   2
   5   4  -1 46.2698 4.35148   1
   5   4   0 11.5317 2.70235   3
  -5   4   0 20.1871 1.42856   1
   5  -4   0 11.5397 2.96878   2
   5   4   0 11.5314 2.07532   2
  -5  -4   0 19.7430 3.64372   1
  -5   4   0 9.69046 1.43685   1
   5   4   0 13.5866 1.71164   2
   5  -4   1 4.81096 2.62118   2
   5   4   1 4.10525 1.52822   2
  -5   4  -1 5.17676 2.62756   2
   5   4   1 3.67551 2.48600   3
  -5   4  -1 4.38643 1.18654   1
   5   4   1 6.24053 1.35345   2
   5   4   2 1.75915 1.23547   2
   5  -4   2 2.19646 2.53867   2
   5  -4   2 4.68849 2.86905   3
  -5   4  -2 3.17604 2.74356   2
   5   4   2 0.12775 2.57154   3
  -5   4  -2 3.47116 1.37873   1
   5  -4   2 2.82964 1.70975   1
   5   4   2 4.67537 1.15103   2
   5  -4   3 29.3001 3.17665   1
  -5   4  -3 38.5089 3.85954   2
   5  -4   3 33.9933 3.89325   3
   5   4   3 23.7469 3.64529   3
   5   4   3 31.7716 2.66459   2
  -5   4  -3 30.9405 2.90366   1
   5   4   3 31.6054 2.68443   2
   5  -4   3 35.5080 3.82258   2
   5   4   4 71.4517 6.22201   4
  -5   4  -4 84.2140 6.83291   2
   5  -4   4 93.7761 6.90794   3
   5   4   4 78.8732 6.80399   3
   5   4   4 82.8116 6.06838   2
   5   4   4 82.6326 6.07137   2
  -5   4  -4 76.8339 6.26891   1
   5  -4   4 68.7959 6.36887   1
   5  -4   4 89.0248 6.78554   2
  -5   4  -5 37.3947 4.01422   2
   5  -4   5 34.9344 3.96973   3
  -5   4  -5 29.1586 3.31334   1
   5   4   5 31.5198 3.99736   3
   5   4   5 34.4624 2.90194   2
   5  -4   5 34.0210 3.68370   1
   5   4   5 33.6987 2.83070   2
   5  -4   5 35.2505 3.88858   2
  -5   4  -6 79.1503 6.83808   2
   5  -4   6 91.5320 6.86256   3
   5   4   6 91.1968 6.19706   2
   5  -4   6 71.3966 6.45550   1
   5   4   6 73.0481 6.00790   2
  -5   4  -6 72.1041 6.27559   1
   5  -4   6 78.3284 6.70116   2
  -5   4  -7 56.3874 5.08076   2
  -5  -4  -7 50.6322 4.07324   2
   5  -4   7 60.5481 4.95446   3
   5  -4   7 41.4498 4.62226   1
   5   4   7 41.9283 3.92456   2
  -5   4  -7 43.8390 4.31778   1
   5  -4   7 42.3919 4.70067   2
   5   4   8 10.5514 2.12907   2
  -5   4  -8 7.47720 2.64322   1
  -5   4  -8 16.8007 3.44319   2
  -5  -4  -8 11.6320 2.22740   2
   5  -4   8 15.1157 3.41015   1
   5  -4   8 10.9636 3.33692   3
  -5   4  -9 18.1229 3.05865   1
  -5   4  -9 19.5781 3.78182   2
   5  -4   9 22.4697 3.85645   3
  -5  -4  -9 20.5178 2.65382   2
   5  -4   9 16.9323 3.53434   1
   5  -4  10 2.21283 3.41599   3
  -5   4 -10 5.66750 3.29845   2
  -5   4 -10 4.19577 2.68196   1
  -5  -4 -10 1.53548 2.24013   2
  -5   4 -11 12.8168 3.14283   1
  -5   4 -11 11.8943 3.80709   2
   5  -4  11 24.1295 3.96587   3
  -5  -4 -11 15.9536 2.79945   2
   5  -4  11 14.1298 4.27957   1
   5  -4  12 3.15564 4.31645   1
  -5   4 -12 8.62806 3.91820   2
   5  -4  12 3.98692 3.79070   3
  -5   4 -13 4.32208 3.80899   2
   5  -4  13-1.37023 3.99987   3
   5  -4  13-1.82547 4.55865   1
  -5   4 -14 1.96027 4.06670   2
   5  -4  14 5.07863 4.14346   3
   5  -4  14 1.23231 4.80285   1
   5  -4  15 19.8081 4.62688   3
  -5   4 -15 9.88977 4.25793   2
   5  -4  15 13.3344 5.48217   1
   5  -4  16 1.74847 4.44034   3
  -5   4 -16-0.13448 4.36961   2
   5  -4  16-5.29741 5.71558   1
   5  -4  17 9.09682 4.81658   3
   5  -4  17 6.90046 5.96889   1
   5  -4  18 34.2207 7.03189   1
   5   5 -16 10.4278 3.83611   2
   5   5 -15 10.4070 3.76399   2
   5   5 -14 13.1927 3.50637   2
  -5  -5  14 17.4482 5.54202   1
   5   5 -13 14.4412 3.58262   2
  -5  -5  13 21.8841 5.38533   1
   5   5 -12 11.5459 3.17519   2
  -5  -5  12 15.4036 4.84975   1
   5  -5 -12 12.5649 3.10034   2
   5   5 -11-2.54384 2.86752   2
   5  -5 -11 0.10388 3.54376   3
  -5  -5  11-3.01892 4.80423   1
  -5   5  11 5.11851 3.86962   4
   5  -5 -11-2.36902 2.89300   2
   5   5 -10 7.20140 2.80250   2
  -5   5  10 5.95490 3.89437   4
   5  -5 -10 11.7561 3.47401   3
  -5  -5  10 7.90534 4.63244   1
   5  -5 -10 9.39791 2.89051   2
   5   5  -9 3.71905 2.57438   2
   5  -5  -9 7.36716 3.41876   3
  -5  -5   9 2.38390 4.52372   1
   5  -5  -9 3.14925 2.72714   2
   5   5  -8 4.40055 2.41514   2
   5  -5  -8 5.59317 3.26851   3
   5  -5  -8 1.03333 2.49496   2
   5  -5  -7 48.6217 5.13399   3
   5  -5  -7 55.9081 4.75814   2
   5   5  -7 46.4091 4.60386   2
  -5   5   7 55.4364 4.59228   1
   5   5  -6 12.8194 2.41704   2
  -5   5   6 12.1546 2.40341   1
   5  -5  -6 17.9347 3.20730   2
   5  -5  -6 17.7254 3.31606   3
   5  -5  -6 20.4021 2.86179   2
   5   5  -5 1.24184 1.92525   2
  -5   5   5 1.65079 1.92262   1
   5  -5  -5 0.89416 2.93637   2
   5   5  -5 1.45437 2.24833   3
   5  -5  -5 1.56918 3.16870   3
   5  -5  -5 1.24635 2.43231   2
   5   5  -4 0.03611 1.80514   2
  -5   5   4-0.07826 1.62060   1
   5  -5  -4-2.76991 2.79658   2
   5   5  -4-1.66406 2.29158   3
   5  -5  -4-6.45586 3.32146   3
   5  -5  -4-1.50884 2.42797   2
   5   5  -3 17.6672 2.32848   2
   5  -5  -3 30.7091 3.28935   2
   5   5  -3 17.6565 3.09620   3
   5  -5  -3 17.4404 3.55865   3
   5   5  -3 22.1332 2.65795   2
  -5   5   3 20.9357 2.18045   1
   5  -5  -3 25.8428 3.10503   2
   5  -5  -2 54.0585 4.64067   2
   5   5  -2 49.3312 3.99043   2
   5   5  -2 42.1569 4.53373   3
   5  -5  -2 53.0764 4.60227   2
  -5   5   2 45.0781 3.85563   1
   5   5  -2 46.7120 3.85228   2
   5   5  -1 4.37244 1.18404   2
   5  -5  -1 5.79875 2.66871   2
   5   5  -1 4.80622 1.50987   2
   5   5  -1 7.28813 2.96446   3
   5  -5  -1 9.89119 2.95029   2
  -5   5   1 7.87163 1.54353   1
   5  -5   0 29.0918 3.10924   2
   5   5   0 20.3609 1.81982   2
  -5   5   0 24.4331 2.27384   1
   5   5   0 25.3856 3.32091   3
   5  -5   0 24.5336 3.75146   3
  -5   5   0 24.4335 2.31235   1
   5  -5   0 32.6452 3.80743   2
   5   5   0 19.3265 1.76549   2
  -5   5  -1 32.5190 2.93804   1
  -5   5  -1 33.9753 3.91655   2
   5   5   1 24.6870 3.75378   3
   5  -5   1 28.8815 4.10492   3
  -5   5  -1 32.6354 2.97985   1
   5  -5   1 32.0032 3.72814   2
  -5   5  -2 59.5320 5.49647   2
   5  -5   2 60.3530 5.77836   3
   5   5   2 45.5820 5.45651   3
   5   5   2 54.4821 5.67958   1
   5  -5   2 63.0471 4.99874   1
   5  -5   2 67.1792 5.43403   2
   5  -5   3 16.4696 3.09546   2
   5  -5   3 21.5699 3.67208   3
  -5   5  -3 23.7867 3.51059   2
   5   5   3 19.2197 3.57743   1
   5  -5   3 14.9646 2.85354   1
   5  -5   4 26.7492 3.58658   1
   5  -5   4 30.1645 3.66996   2
   5  -5   4 33.8483 4.12815   3
  -5   5  -4 28.5607 3.98883   2
   5   5   4 33.9220 4.37047   1
   5  -5   5 20.0235 3.22901   2
   5   5   5 20.5032 2.72917   4
   5  -5   5 13.0874 3.69975   3
  -5   5  -5 22.2130 3.63369   2
   5  -5   5 19.9621 3.42431   1
   5   5   5 22.8365 3.94343   1
  -5   5  -6 12.3483 3.33593   2
   5  -5   6 3.19162 3.13576   1
   5  -5   6 5.26737 3.43567   3
   5   5   6 9.77530 3.75879   1
  -5   5  -7 23.5499 4.04098   2
   5  -5   7 25.4502 4.29282   3
   5  -5   7 23.6294 3.87673   1
   5   5   7 30.9037 4.48378   1
   5  -5   8 18.9929 4.15076   1
  -5   5  -8 20.2445 4.02823   2
   5  -5   8 29.7233 4.26955   3
   5   5   8 21.7908 4.17623   1
   5   5   9 4.11144 3.87557   1
   5  -5   9 5.21533 3.72876   1
  -5   5  -9 4.07362 3.92152   2
   5  -5   9 2.35021 3.76364   3
   5   5  10-5.31480 4.03600   1
   5  -5  10-0.44945 3.82076   1
  -5   5 -10 1.82255 3.93213   2
   5  -5  10-0.11231 3.97002   3
   5  -5  11 11.0938 4.36615   1
   5   5  11 19.6108 4.54241   1
  -5   5 -11 20.1240 4.20316   2
   5  -5  11 19.9630 4.24715   3
   5   5  12 22.9427 4.89402   1
   5  -5  12 23.2512 4.46555   3
  -5   5 -12 21.5639 4.49116   2
   5  -5  12 15.0733 4.56132   1
   5   5  13 5.76503 4.82251   1
  -5   5 -13 2.41614 4.19466   2
   5  -5  13 6.49030 4.36659   3
   5  -5  13-5.95174 4.70225   1
   5   5  14-3.27131 5.16769   1
  -5   5 -14 8.96434 4.39033   2
   5  -5  14-2.24793 4.11481   3
   5  -5  14-1.13938 4.94166   1
   5  -5  15 24.2624 4.96247   3
  -5   5 -15 25.1514 5.01489   2
   5  -5  15 20.0385 5.94621   1
  -5   6  11 7.13128 4.35388   4
   5  -6 -10 13.9253 4.07288   3
   5  -6  -9 21.3234 4.26809   3
   5  -6  -8 21.2626 4.17706   3
   5  -6  -7 2.63508 3.56725   3
   5  -6  -6-1.43591 3.54682   3
  -5  -6   6 10.4976 4.96001   1
   5  -6  -5 10.3786 3.81726   3
  -5  -6   5 17.4618 4.94178   1
   5  -6  -4 1.98276 3.57402   3
   5  -6  -4 2.08705 2.58425   2
  -5  -6   4-3.25534 4.65579   1
   5  -6  -3 5.35744 2.70301   2
  -5  -6   3 14.5360 4.60554   1
   5  -6  -2 6.30336 2.97078   2
  -5  -6   2 4.65192 4.45805   1
   5  -6  -1 7.16322 3.68286   3
  -5  -6   1 13.3816 4.59587   1
   5  -6  -1 5.85352 2.93477   2
   5  -6   0 26.2566 4.32950   3
   5  -6   0 25.6495 3.65669   2
   5   6   0 25.7841 4.47661   1
   5  -6   1 21.0829 4.25037   3
   5  -6   1 24.4541 4.29784   2
   5   6   1 26.3126 4.27733   1
   5  -6   2 14.2767 4.03978   3
  -5   6  -2 14.8539 3.41761   2
   5   6   2 19.4314 3.97306   1
   5  -6   3 15.7388 4.17972   3
  -5   6  -3 20.5471 3.70937   2
   5   6   3 12.4090 4.28144   1
   5  -6   4 12.8924 4.12453   3
  -5   6  -4 15.0530 3.67133   2
   5   6   4 25.1275 4.31910   1
   5  -6   5-0.11664 3.81159   3
  -5   6  -5-0.85323 3.66757   2
   5   6   5-0.33298 4.05818   1
   5  -6   6-2.59464 3.86166   3
  -5   6  -6 2.36650 3.66607   2
   5   6   6 4.19004 2.64811   4
   5   6   6-3.33691 4.00628   1
  -5   6  -7-0.82041 3.67894   2
   5  -6   7-0.59738 4.12359   3
   5   6   7 0.11916 4.37657   1
  -5   6  -8 11.3682 4.04378   2
   5  -6   8 15.4498 4.41859   3
   5   6   8 10.7917 4.19092   1
   5   6   9 6.86301 4.22589   1
  -5   6  -9 6.44121 3.86098   2
   5  -6   9 3.62424 4.03302   3
   5   6  10 6.60085 4.64219   1
  -5   6 -10 2.75178 4.06822   2
   5  -6  10-2.79698 4.25146   3
   5   6  11 55.3232 6.34405   1
   5  -6  11 53.5914 5.98021   3
  -5   6 -11 44.2629 6.06841   2
  -5   6 -12 44.4778 5.88525   2
   5  -6  12 41.2865 5.68227   3
  -5   6 -13 1.36774 4.62604   2
   5  -6  13 6.12163 4.51219   3
  -5  -7   6 31.5797 6.05158   1
   5  -7  -6 30.4370 4.97602   3
  -5  -7   5-1.67838 5.21946   1
  -5  -7   4 4.54175 5.20735   1
   5  -7  -3 11.9521 4.09201   3
  -5  -7   3 9.57169 5.25197   1
  -5  -7   2-0.88423 4.98658   1
   5  -7  -2 3.79670 3.99466   3
   5  -7  -1 2.19040 3.98402   3
   5   7  -1-0.73754 4.36006   1
   5  -7   0 20.3123 4.51632   3
   5   7   0 17.8800 4.42858   1
   5  -7   1 3.74937 4.39188   3
   5   7   1 12.7768 4.28730   1
   5  -7   2 10.0626 4.36364   3
   5   7   2 11.8199 4.34289   1
   5  -7   3 11.2366 4.37130   3
   5   7   3 13.7678 4.43920   1
   5  -7   4 23.0127 4.72199   3
   5   7   4 25.9430 5.00197   1
   5  -7   5 7.25450 4.41416   3
   5   7   5 5.45623 4.47727   1
   5  -7   6 9.82659 4.53230   3
   5   7   6 12.1406 4.72468   1
   5  -7   7 4.72033 4.54491   3
   5  -7   8 9.17494 4.60087   3
   5  -7   9 9.22465 4.99344   3
  -6   0  20 23.2873 5.74946   1
   6   0 -19 1.56299 4.01121   2
  -6   0  19-1.48117 5.38563   1
   6   0 -18 16.7450 4.10731   2
  -6   0  18 17.7651 5.39545   1
   6   0 -17 20.4197 4.06657   2
  -6   0  17 16.8231 4.78650   1
  -6   0  16 15.3389 4.80707   1
   6   0 -16 19.9151 3.94913   2
  -6   0  15 2.95341 4.02772   1
   6   0 -15 1.08744 3.12825   2
  -6   0  14 49.2114 5.37083   1
   6   0 -14 43.4684 4.80143   2
  -6   0  13 157.709 12.1042   1
   6   0 -13 143.096 11.8586   2
   6   0 -13 162.062 11.9667   1
   6   0 -12 27.1766 4.11043   1
  -6   0  12 28.1141 4.08837   1
  -6   0  11 68.3434 6.05673   1
   6   0 -11 61.4962 5.84120   1
   6   0 -10 7.61072 2.97382   1
  -6   0  10 6.13722 2.86982   1
   6   0  -9 2.32387 1.22190   3
   6   0  -9 1.24304 2.40602   1
  -6   0   9 1.27670 2.59846   1
   6   0  -8 102.985 8.51494   1
   6   0  -8 115.397 8.25454   3
  -6   0   8 123.577 8.92710   2
  -6   0   8 95.1408 8.56840   1
   6   0  -7 56.7487 5.26873   1
   6   0  -7 67.9321 4.96668   3
  -6   0   7 65.2000 5.68568   2
  -6   0   7 58.6582 5.34041   1
  -6   0   6 4.61432 2.13270   1
   6   0  -6 1.34993 1.36588   3
  -6   0   6 0.14730 2.74738   2
   6   0  -6 1.26511 1.92288   1
   6   0  -5 9.53640 2.11914   1
  -6   0   5 13.6286 2.26840   1
   6   0  -5 15.1330 1.73961   3
  -6   0   5 17.7194 3.44961   2
  -6   0   4 319.302 24.9915   1
   6   0  -4 323.448 24.9523   1
   6   0  -4 364.492 24.9790   3
   6   0  -4 350.495 25.2151   2
  -6   0   3 39.0495 3.55011   1
   6   0  -3 34.7763 3.18750   3
   6   0  -3 44.3089 4.07002   2
   6   0  -3 38.7144 3.38080   1
   6   0  -3 36.4973 3.63383   2
  -6   0   2 17.0444 2.19830   1
   6   0  -2 21.3564 2.19735   3
   6   0  -2 16.6007 3.04455   2
   6   0  -2 18.6563 2.25783   1
   6   0  -2 16.5383 2.49309   2
   6   0  -1 146.923 11.0257   2
   6   0  -1 137.449 10.6354   1
   6   0  -1 126.274 10.8273   2
   6   0  -1 161.202 10.7016   1
   6   0   0 311.224 23.1273   2
   6   0   0 313.074 23.1299   2
   6   0   0 299.744 22.8406   1
   6   0   0 322.042 22.8683   1
   6   0   1 34.0654 3.21319   1
  -6   0  -1 32.4319 3.59567   2
   6   0   1 32.4885 2.92326   1
   6   0   1 31.0377 3.69174   2
   6   0   2 106.088 8.27552   2
  -6   0  -2 104.002 8.21485   2
   6   0   2 102.113 7.94311   1
   6   0   2 103.745 7.86054   1
   6   0   3-1.86205 1.51609   1
   6   0   3-0.95047 2.49272   2
  -6   0  -3 0.80119 2.18356   2
   6   0   3 0.36010 1.83648   1
   6   0   4 37.0648 4.35069   2
  -6   0  -4 48.0575 4.31168   2
  -6   0  -4 43.1624 3.84981   1
   6   0   4 46.8408 3.77536   1
   6   0   5 77.8217 7.34809   2
  -6   0  -5 104.543 7.36407   2
   6   0   5 86.5723 7.05326   1
  -6   0  -5 92.7178 7.05814   1
  -6   0  -6 55.2481 4.85498   2
  -6   0  -6 49.8635 4.45857   1
   6   0   6 58.8294 4.70090   1
   6   0   6 44.0576 4.88695   2
   6   0   7 17.0624 3.14566   2
   6   0   7 21.8472 3.05584   1
  -6   0  -7 17.2752 3.13881   2
  -6   0  -7 17.0576 2.53994   1
  -6   0  -8 49.6075 4.36087   2
  -6   0  -8 40.1939 3.81540   1
   6   0   8 39.1985 4.27135   1
   6   0   8 36.2229 4.17143   2
  -6   0  -9 61.0101 5.36714   2
  -6   0  -9 56.2951 4.96431   1
   6   0   9 56.1703 5.42625   1
   6   0   9 56.5723 5.32033   2
  -6   0 -10 104.477 8.47451   2
  -6   0 -10 100.812 8.13869   1
   6   0  10 110.543 8.55487   1
   6   0  10 94.5405 8.34452   2
  -6   0 -11 75.4918 6.10553   2
  -6   0 -11 64.1298 5.82045   1
   6   0  11 62.5429 6.33730   1
  -6   0 -12 123.025 9.68317   2
   6   0  12 115.126 9.89560   1
  -6   0 -13 5.74646 3.21477   2
   6   0  13 2.93726 4.00054   1
  -6   0 -14-0.10089 3.45659   2
   6   0  14 6.20179 4.18396   1
  -6   0 -15 12.6388 3.70747   2
   6   0  15 4.45310 4.52569   1
  -6   0 -16 4.80013 3.63349   2
   6   0  16 4.41897 4.61056   1
  -6   0 -17-1.40750 3.91081   2
   6   0  17 3.09317 4.72921   1
  -6   0 -18-1.23167 4.05151   2
   6   0  18 5.32861 5.17724   1
  -6   0 -19 4.38861 4.41880   2
   6   0  19 17.3446 5.53915   1
  -6   1  20 29.4461 5.77826   1
   6  -1 -19 8.41364 4.39565   2
  -6   1  19 4.24902 5.01330   1
  -6  -1  19 9.95651 5.34121   1
   6  -1 -18 15.3213 4.14677   2
  -6   1  18 9.05722 4.37406   1
  -6  -1  18 7.24470 4.98631   1
  -6   1  17 4.80571 4.17198   1
  -6  -1  17 11.5018 4.57721   1
   6  -1 -17 11.6540 3.87860   2
   6   1 -16 15.5933 3.74329   2
  -6   1  16 14.8193 3.89537   1
  -6  -1  16 10.3538 4.32930   1
   6  -1 -16 9.32424 3.65429   2
  -6   1  15 11.3191 3.63702   1
  -6  -1  15 0.73246 4.21487   1
   6  -1 -15 7.08449 3.55103   2
   6   1 -15 3.23409 3.35963   2
   6  -1 -14 20.5739 4.04711   1
  -6   1  14 12.7813 3.74928   1
  -6  -1  14 9.89925 4.05867   1
   6  -1 -14 20.2839 3.35499   2
   6   1 -14 12.2087 3.50578   2
   6  -1 -13 9.08781 3.46786   1
  -6  -1  13 7.64118 3.83940   1
   6  -1 -13 12.5472 3.12950   2
  -6   1  13 8.67893 3.11263   1
   6   1 -13 11.5472 3.17668   2
   6   1 -12 3.82730 2.80202   4
  -6   1  12 8.34295 1.83511   3
   6  -1 -12 9.15782 3.23110   1
  -6   1  12 7.25329 3.02920   1
   6   1 -12 3.04018 3.35119   1
  -6  -1  12 9.62672 3.82009   1
   6  -1 -12 7.83984 3.03825   2
   6   1 -12 7.46272 2.97639   2
   6   1 -11 14.2296 2.87232   4
   6  -1 -11 7.81194 3.12549   1
  -6   1  11 9.36269 1.86392   3
  -6   1  11 9.35848 2.85870   1
   6   1 -11 10.4631 3.19652   1
  -6  -1  11 6.02531 3.34760   1
   6  -1 -11 11.4828 3.00246   2
   6   1 -11 9.18530 2.88249   2
   6   1 -10 17.5631 2.80407   4
  -6   1  10 19.1922 2.23097   3
   6  -1 -10 21.1134 2.98674   1
  -6   1  10 18.2730 3.07128   1
   6  -1 -10 17.0205 2.25729   3
  -6   1  10 24.9591 3.72239   2
  -6  -1  10 14.1200 3.25518   2
   6   1 -10 13.9214 3.29265   1
   6  -1 -10 15.8913 3.00946   2
   6   1 -10 18.8613 3.08258   2
  -6  -1  10 24.3064 3.41519   1
  -6  -1   9 17.7914 3.23124   1
  -6   1   9 18.7309 2.22494   3
   6  -1  -9 16.2157 2.92020   1
  -6   1   9 16.4050 2.84723   1
   6  -1  -9 17.0485 2.22074   3
  -6   1   9 21.4253 3.31899   2
  -6  -1   9 15.5875 3.25584   2
   6   1  -9 18.6356 2.51970   4
   6  -1  -9 20.3170 2.99630   2
   6   1  -9 19.0320 3.30374   1
   6   1  -9 18.6729 2.84825   2
  -6  -1   8 24.0211 2.98242   1
   6   1  -8 15.2537 2.25883   4
  -6   1   8 22.7473 2.14412   3
   6  -1  -8 20.6695 2.08640   3
   6   1  -8 11.0472 1.08992   3
   6  -1  -8 18.2624 2.60236   1
  -6   1   8 17.7388 2.44386   1
  -6   1   8 20.3568 3.13123   2
  -6  -1   8 19.3150 3.16646   2
   6  -1  -8 21.2508 2.69708   2
   6   1  -8 19.9759 2.63844   2
   6   1  -8 17.1994 2.91762   1
   6   1  -7 60.3258 5.33589   1
   6   1  -7 58.2654 5.14331   4
   6   1  -7 59.5722 4.68824   3
   6  -1  -7 70.5350 5.08893   3
  -6   1   7 53.1920 5.08822   1
  -6   1   7 82.4004 5.83636   2
  -6  -1   7 66.5793 5.57155   2
   6  -1  -7 68.7968 5.41656   2
   6   1  -7 66.8709 5.29333   2
  -6  -1   7 73.2663 5.54730   1
   6  -1  -7 58.8119 5.09763   1
   6   1  -6 2.74606 2.33520   1
  -6  -1   6 4.94458 2.57338   1
   6   1  -6 1.52855 0.99319   3
   6  -1  -6 1.41790 1.61378   3
   6  -1  -6-0.02585 1.76196   1
  -6   1   6-1.65221 3.17556   2
  -6  -1   6 3.84488 2.66698   2
   6  -1  -6 1.38640 2.07877   2
   6   1  -6 2.51837 2.09620   2
  -6   1   6 2.57836 1.65402   1
   6   1  -5 63.1027 4.91105   3
   6  -1  -5 68.1289 5.16993   3
   6   1  -5 70.3289 5.44081   1
   6  -1  -5 80.2165 5.82009   2
  -6  -1   5 69.5259 5.64630   2
   6  -1  -5 69.5601 5.43219   2
   6   1  -5 61.3498 5.29109   2
  -6   1   5 57.4207 5.05114   1
   6  -1  -5 56.7606 4.99323   1
  -6  -1   5 63.8166 5.44887   1
  -6   1   4 67.6783 6.01900   1
  -6  -1   4 87.8276 6.45210   1
   6  -1  -4 85.8386 6.20274   3
   6  -1  -4 91.7287 6.68954   2
   6   1  -4 96.6606 6.47967   1
  -6  -1   4 92.1555 6.75736   2
   6  -1  -4 81.3745 6.38033   2
   6   1  -4 75.1053 6.32448   2
   6  -1  -4 73.0923 5.97455   1
   6  -1  -3 55.5822 4.27047   1
  -6  -1   3 62.0506 4.98604   1
   6  -1  -3 65.3800 5.21911   2
   6  -1  -3 63.8397 4.62990   3
   6   1  -3 61.9430 5.01692   2
   6   1  -3 67.7601 4.74455   1
   6  -1  -3 56.2802 4.84515   2
   6   1  -3 57.2662 4.74225   2
  -6   1   3 46.7239 4.28002   1
   6  -1  -2 44.1833 3.13222   1
   6  -1  -2 39.7789 4.27363   2
   6   1  -2 50.9423 4.10677   2
   6  -1  -2 49.8186 3.73537   3
  -6  -1   2 47.7106 3.86039   1
   6  -1  -2 33.2194 3.11194   1
   6  -1  -2 46.7806 3.99640   2
   6   1  -2 41.4931 3.71465   2
   6   1  -2 44.1736 3.70606   1
   6   1  -1 18.8466 2.55611   1
   6  -1  -1 18.5874 1.52024   1
   6  -1  -1 16.4527 3.00382   2
   6   1  -1 17.0789 2.77178   2
  -6  -1   1 18.7143 2.49832   1
   6  -1  -1 13.0107 1.40844   1
   6  -1  -1 15.7378 2.62623   2
   6   1  -1 17.1118 2.41048   2
   6  -1  -1 20.1935 2.29765   3
   6   1   0 44.5192 3.71464   1
   6   1   0 44.6644 4.03153   2
   6  -1   0 45.1732 3.85439   3
   6   1   0 36.6147 3.79203   2
   6  -1   0 44.5022 3.21437   1
   6  -1   0 35.2111 3.25890   1
   6   1   0 45.9325 3.78188   1
   6  -1   1 109.377 9.52914   1
   6   1   1 140.203 9.82468   1
   6   1   1 128.518 9.94589   2
   6   1   1 126.677 9.91536   2
   6   1   1 123.768 9.71357   1
   6  -1   1 141.312 9.53620   1
   6  -1   1 136.318 9.86621   3
   6   1   2 78.9515 6.60696   2
   6   1   2 89.2975 6.52998   1
  -6  -1  -2 92.3225 6.63476   2
   6  -1   2 69.7567 6.17222   1
   6   1   2 82.0596 6.35588   1
   6  -1   2 84.1029 6.16638   1
   6   1   3 26.3436 3.28095   2
  -6  -1  -3 28.7441 3.18064   2
   6   1   3 27.6449 2.89803   1
  -6   1  -3 27.1473 2.50997   1
   6   1   3 29.6443 2.80372   1
   6  -1   3 27.9183 2.58838   1
   6   1   4 16.1706 2.60645   2
   6  -1   4 13.2401 1.97063   1
  -6   1  -4 11.0428 2.63277   2
  -6  -1  -4 16.7828 2.59246   2
   6   1   4 11.8572 2.22059   1
  -6   1  -4 12.5516 1.79935   1
   6   1   4 14.3910 2.03856   1
   6   1   5 159.231 13.5896   2
  -6   1  -5 200.131 13.7418   2
  -6  -1  -5 204.726 13.6565   2
  -6   1  -5 176.092 13.3854   1
   6   1   5 178.503 13.5446   1
   6  -1   5 170.181 13.4327   1
  -6   1  -6 65.4231 5.09984   2
  -6  -1  -6 61.9732 4.86132   2
  -6  -1  -6 57.9358 4.76382   1
  -6   1  -6 50.0566 4.44092   1
   6   1   6 54.6566 4.71239   1
   6  -1   6 47.0514 4.67671   1
   6   1   6 50.3365 4.88476   2
   6   1   7 15.7005 2.75399   1
   6   1   7 13.5513 2.73070   2
   6  -1   7 12.3637 2.81197   2
  -6   1  -7 14.5427 2.82094   2
  -6  -1  -7 9.54431 2.73853   2
   6  -1   7 10.2800 2.68808   1
  -6  -1  -7 13.8551 2.43191   1
  -6   1  -7 11.0445 2.12244   1
  -6  -1  -8 37.6807 3.67303   2
   6   1   8 28.4339 3.73489   1
   6   1   8 30.4913 3.68248   2
   6  -1   8 28.6000 3.85557   2
  -6   1  -8 31.4272 3.80608   2
   6  -1   8 29.5651 3.66522   1
  -6  -1  -8 32.1277 3.42126   1
  -6   1  -8 31.7711 3.15183   1
  -6   1  -9 55.9169 4.85573   2
  -6  -1  -9 48.0979 4.61862   2
  -6  -1  -9 44.6031 4.44963   1
  -6   1  -9 41.0356 4.12304   1
   6   1   9 51.9090 4.87637   1
   6   1   9 41.1901 4.52353   2
   6  -1   9 46.6622 4.69459   2
   6  -1   9 44.1778 4.61971   1
  -6   1 -10 111.126 9.00979   2
  -6  -1 -10 115.514 8.92196   2
  -6  -1 -10 110.705 8.79578   1
  -6   1 -10 106.201 8.63720   1
   6   1  10 127.640 9.24216   1
   6   1  10 104.774 8.95549   2
   6  -1  10 104.751 8.95850   1
  -6   1 -11 25.7185 3.17315   1
   6   1  11 22.9867 3.81761   2
   6   1  11 27.9322 4.34473   1
  -6   1 -11 24.6006 3.91204   2
  -6  -1 -11 27.6515 3.63367   2
   6  -1  11 28.6274 3.94137   1
  -6   1 -12 30.2534 3.39544   1
   6   1  12 28.6045 4.61554   1
  -6   1 -12 27.6666 4.00112   2
  -6  -1 -12 24.1236 3.92766   2
   6  -1  12 32.7235 4.25829   1
  -6   1 -13 0.81974 3.31243   2
  -6  -1 -13 4.65224 3.11243   2
   6   1  13 8.76173 4.19420   1
   6  -1  13 3.32472 3.66368   1
  -6  -1 -14-5.00302 3.36680   2
   6   1  14-7.79406 4.45551   1
   6  -1  14 0.19190 3.77812   1
  -6   1 -15 19.2277 4.05314   2
  -6  -1 -15 18.5137 3.82429   2
   6   1  15 11.4887 4.97778   1
   6  -1  15 10.5287 4.42277   1
  -6   1 -16 12.1098 4.09096   2
  -6  -1 -16 11.8527 3.66216   2
   6   1  16 15.7609 5.49763   1
   6  -1  16 16.8267 4.69010   1
  -6   1 -17 17.4221 4.38388   2
   6   1  17 17.3794 5.55932   1
  -6  -1 -17 14.3570 3.97665   2
   6  -1  17 13.3355 4.91507   1
  -6   1 -18 1.17367 4.28568   2
  -6  -1 -18-1.74145 3.83534   2
   6   1  18 8.82064 5.55286   1
   6  -1  18 4.89131 5.23025   1
  -6  -1 -19 15.1102 4.46174   2
   6  -1  19 23.2113 5.77834   1
   6  -2 -18 15.6690 4.45653   2
   6   2 -18 10.7504 4.26597   2
  -6   2  18 7.61187 4.56879   1
  -6  -2  18 16.0111 5.60834   1
   6   2 -17 8.39052 3.85087   2
  -6   2  17 9.28973 4.24904   1
  -6  -2  17 5.76437 5.01481   1
   6  -2 -17 3.97588 3.66959   2
   6   2 -16-2.12966 3.65287   2
  -6   2  16 4.47869 3.63624   1
  -6  -2  16-3.91809 4.90970   1
   6  -2 -16 3.97032 3.63549   2
   6   2 -15 6.04773 3.58426   2
  -6   2  15 8.05091 3.63540   1
  -6  -2  15-1.85791 4.55003   1
   6  -2 -15 5.68644 3.34212   2
  -6   2  14 29.2328 4.57157   1
   6  -2 -14 45.7159 4.73042   2
  -6  -2  14 48.8078 5.56298   1
   6   2 -14 45.3736 4.77219   2
   6  -2 -13 33.6766 3.94545   1
  -6   2  13 29.7808 4.07233   1
   6  -2 -13 36.7659 4.33896   2
   6   2 -13 36.9886 4.19796   2
  -6  -2  13 31.0807 4.78464   1
  -6   2  12 33.6921 4.31052   1
  -6   2  12 46.6152 4.00496   3
   6  -2 -12 42.7898 4.56047   2
   6  -2 -12 42.3780 4.25374   1
  -6  -2  12 43.4257 5.08856   1
   6   2 -12 43.7938 4.58067   2
  -6  -2  11 5.47598 3.77543   1
   6  -2 -11 8.38690 2.57494   1
  -6   2  11 11.0155 2.64242   1
  -6   2  11 12.6949 2.38708   3
   6  -2 -11 4.82454 2.36033   3
   6  -2 -11 13.9144 3.13283   2
   6   2 -11 9.87821 2.94376   2
   6  -2 -10 4.50787 2.24218   1
  -6  -2  10 4.90752 3.37555   1
  -6   2  10 3.87300 2.26320   1
  -6   2  10 5.01435 2.26756   3
   6  -2 -10 1.86228 2.10707   3
  -6   2  10 1.57155 3.51254   2
  -6  -2  10 6.21835 2.90271   2
   6  -2 -10 7.81569 2.72979   2
   6   2 -10 4.88522 2.69299   2
   6   2 -10 5.46262 3.12790   1
   6   2  -9 160.870 12.1711   1
  -6   2   9 168.003 11.9292   3
  -6   2   9 130.840 11.7746   1
   6  -2  -9 140.379 11.8355   3
  -6  -2   9 170.221 12.2012   2
   6  -2  -9 165.141 12.0663   2
   6  -2  -9 153.547 11.7707   1
   6   2  -9 158.562 12.0679   2
  -6  -2   9 173.101 12.3670   1
   6   2  -8 45.1264 4.51808   1
  -6   2   8 46.6051 4.02403   3
  -6   2   8 33.9511 3.73597   1
   6  -2  -8 44.2497 3.99907   3
  -6   2   8 70.4667 5.41943   2
  -6  -2   8 41.1791 4.46696   2
   6  -2  -8 39.8325 4.24828   2
   6  -2  -8 40.6334 3.70038   1
   6   2  -8 46.2554 4.21797   2
  -6  -2   8 52.7615 4.97083   1
  -6   2   7 67.4235 5.29976   2
  -6   2   7 48.0419 4.26189   3
   6   2  -7 51.0457 4.71910   1
   6  -2  -7 45.3003 4.22081   3
  -6   2   7 42.4295 4.03065   1
  -6  -2   7 53.4059 4.66856   2
   6  -2  -7 50.4109 4.48280   2
   6  -2  -7 41.2461 3.87010   1
   6   2  -7 51.2150 4.34706   2
  -6   2   7 46.3823 4.39945   4
  -6  -2   7 48.3712 4.82110   1
  -6   2   6 97.8085 6.94293   3
   6  -2  -6 110.704 7.42307   2
   6  -2  -6 91.0382 6.91394   3
   6   2  -6 107.313 7.33745   1
  -6   2   6 66.2236 6.55797   1
  -6  -2   6 97.3611 7.15344   2
   6  -2  -6 100.075 7.09615   2
   6  -2  -6 82.4945 6.54361   1
   6   2  -6 96.0479 6.99975   2
  -6  -2   6 103.111 7.33196   1
  -6  -2   5 95.7277 5.84240   1
  -6   2   5 83.4557 5.43774   3
   6  -2  -5 98.5550 5.93911   2
   6  -2  -5 88.1513 5.44174   3
   6   2  -5 95.9564 5.90416   1
  -6  -2   5 87.0731 5.69331   2
   6  -2  -5 94.2006 5.54293   2
   6  -2  -5 55.4897 4.80054   1
   6   2  -5 78.8015 5.39541   2
  -6  -2   4 63.5774 5.58048   1
   6  -2  -4 73.0743 5.73315   2
  -6   2   4 53.9952 5.19588   3
   6  -2  -4 63.3677 5.14786   3
   6   2  -4 59.1278 5.38453   1
  -6  -2   4 66.5664 5.55336   2
   6  -2  -4 63.3750 5.33199   2
   6   2  -4 57.2516 5.09365   2
  -6  -2   3 11.6005 3.11282   1
   6  -2  -3 15.9378 3.18150   2
   6   2  -3 9.42267 2.25643   2
   6  -2  -3 15.5880 2.57305   2
   6  -2  -3 14.0500 2.33665   3
   6   2  -3 12.2127 2.09736   2
   6   2  -3 13.7952 2.91010   1
  -6  -2   2 7.50661 2.67699   1
   6   2  -2 7.78890 2.61577   1
   6   2  -2 4.72335 0.74015   4
   6  -2  -2 7.89797 2.79735   2
   6   2  -2 7.74491 2.14050   2
   6  -2  -2 10.5825 2.15251   3
   6  -2  -2 7.20759 2.47446   2
   6   2  -2 7.22752 1.74388   2
  -6  -2   1 20.7386 3.08172   1
   6   2  -1 20.6396 3.20803   1
   6  -2  -1 19.5067 2.63440   3
   6  -2  -1 18.9874 3.18541   2
   6   2  -1 18.5336 2.73429   2
   6  -2  -1 16.5317 3.10245   2
   6   2  -1 16.7274 2.22529   2
   6  -2   0 36.3394 4.00177   2
   6  -2   0 34.8161 3.43436   3
   6   2   0 30.4883 3.36484   2
  -6   2   0 33.0705 3.68283   2
   6   2   0 26.2262 3.47418   1
   6   2   0 28.7130 2.97204   2
  -6  -2   0 36.6411 3.56931   1
   6   2   1 30.3735 3.22114   1
   6  -2   1 28.4144 3.14795   3
   6  -2   1 22.5075 3.37660   2
   6   2   1 26.3045 2.96217   2
  -6   2  -1 27.0635 3.30361   2
   6   2   1 20.2938 2.64055   2
   6   2   1 22.4114 2.80161   1
   6  -2   2 71.9234 5.68927   2
   6   2   2 81.2123 5.36280   2
   6   2   2 89.3841 5.67334   1
  -6   2  -2 92.2758 5.67909   2
   6  -2   2 96.3368 5.62583   3
   6   2   2 74.8879 5.28646   2
   6   2   2 78.0103 5.36409   1
   6  -2   3 7.00070 1.38291   1
   6  -2   3 8.93022 2.96777   2
   6   2   3 7.08659 2.22292   2
  -6   2  -3 7.19421 2.62628   2
  -6  -2  -3 7.02840 2.15984   2
   6   2   3 6.73537 2.72482   1
  -6   2  -3 7.74366 1.20288   1
   6   2   3 8.04287 2.34584   1
   6  -2   4 144.854 12.0817   2
   6   2   4 160.699 11.8995   2
   6  -2   4 132.661 11.6736   1
  -6   2  -4 174.794 12.1328   2
  -6  -2  -4 163.939 11.9452   2
   6   2   4 181.232 12.0576   1
   6   2   4 179.936 12.0068   1
  -6   2  -4 157.159 11.6408   1
   6   2   5 73.8560 6.30125   2
   6  -2   5 76.6473 6.73780   2
   6  -2   5 72.9041 6.17633   1
  -6   2  -5 85.7487 6.69675   2
  -6  -2  -5 90.6052 6.46182   2
   6   2   5 77.4905 6.58172   1
   6  -2   5 87.4223 6.62537   3
   6   2   5 93.6020 6.61650   1
  -6   2  -5 70.4619 6.04773   1
   6  -2   6 149.986 12.5285   1
  -6   2  -6 181.853 12.9218   2
  -6  -2  -6 171.219 12.7121   2
   6  -2   6 184.538 12.9186   3
   6   2   6 171.060 12.7664   1
  -6   2  -6 158.650 12.4434   1
   6   2   6 185.443 12.8504   1
   6   2   6 163.142 12.6187   2
   6  -2   6 170.931 12.9636   2
   6   2   7 30.9850 3.36439   1
   6   2   7 18.3237 2.77252   2
   6  -2   7 25.3275 3.50357   2
   6  -2   7 26.3272 3.55011   3
  -6  -2  -7 25.5875 3.18091   2
  -6   2  -7 23.2487 2.50971   1
   6  -2   7 17.5432 2.83752   1
  -6   2  -8 6.65107 1.92290   1
   6   2   8 5.23103 2.84654   1
   6   2   8 6.90845 2.34485   2
   6  -2   8 7.68189 2.86492   2
  -6  -2  -8 4.61793 2.63076   2
  -6  -2  -8 7.82203 2.87757   1
   6  -2   8 6.03347 2.49785   1
  -6   2  -9-0.47469 1.98726   1
   6   2   9 3.17184 3.06382   1
   6   2   9 4.12665 2.76520   2
  -6  -2  -9 2.70129 2.75152   2
  -6  -2  -9 0.80103 2.79341   1
   6  -2   9 5.31276 2.80100   1
  -6   2 -10 12.9873 2.37996   1
   6   2  10 13.5271 3.15284   2
   6   2  10 17.0120 3.68897   1
  -6  -2 -10 10.4658 2.91642   2
   6  -2  10 13.7915 3.13912   1
  -6   2 -11 3.85375 2.28623   1
   6   2  11 6.94437 2.91616   2
   6   2  11 3.56138 3.64206   1
  -6  -2 -11 1.84531 2.90296   2
   6  -2  11 6.55868 3.23974   1
   6   2  12 9.25979 3.23844   2
  -6   2 -12 7.70189 2.54179   1
   6   2  12 13.1511 4.56058   1
  -6  -2 -12 7.98608 2.95159   2
   6  -2  12 11.8023 3.48326   1
   6   2  13 4.19560 4.38497   1
  -6  -2 -13 7.01658 3.25696   2
   6  -2  13 2.92486 3.73795   1
   6   2  14 33.7098 5.36856   1
  -6  -2 -14 35.4516 4.26369   2
   6  -2  14 28.7672 4.80813   1
  -6   2 -15 3.12806 3.72414   2
  -6  -2 -15 2.26970 3.39745   2
   6   2  15 3.17872 4.92074   1
   6  -2  15 1.40793 4.21805   1
   6   2  16 35.1234 5.86901   1
  -6   2 -16 27.3551 4.74438   2
  -6  -2 -16 26.2272 4.33036   2
   6  -2  16 22.5385 5.24332   1
   6  -2  17 2.15303 4.91674   1
  -6   2 -17 3.56494 4.14013   2
  -6  -2 -17-0.30940 3.79559   2
   6   2  17 4.98273 5.51959   1
   6  -2  18 0.40845 5.05105   1
  -6  -2 -18-2.49616 3.88123   2
   6  -2  19 14.7459 5.75034   1
  -6  -2 -19 7.29440 3.99668   2
   6  -3 -18 5.66197 4.42170   2
   6   3 -17-1.08817 3.85573   2
  -6  -3  17 3.80118 4.87433   1
   6  -3 -17 6.16570 3.73349   2
   6   3 -16 6.34195 3.80179   2
  -6  -3  16 2.03518 4.78559   1
   6  -3 -16 1.80565 3.55316   2
   6   3 -15 8.45353 3.84651   2
  -6  -3  15 3.15136 5.08842   1
   6  -3 -15 6.38260 3.46762   2
   6   3 -14 17.3868 3.79511   2
  -6   3  14 19.0577 3.76331   1
  -6  -3  14 20.2904 4.99655   1
   6  -3 -14 19.7513 3.66976   2
   6   3 -13 7.91434 3.22992   2
  -6   3  13 0.66455 2.90500   1
  -6  -3  13-3.54373 4.54900   1
   6  -3 -13 6.58556 3.25089   2
  -6   3  12 21.7840 3.28974   1
  -6  -3  12 28.8819 4.88304   1
  -6   3  12 29.2918 3.36513   3
   6  -3 -12 17.8423 3.45543   3
   6  -3 -12 34.2927 3.81194   2
   6   3 -12 23.4866 3.73793   2
  -6   3  11 15.6047 2.91372   1
  -6  -3  11 22.1953 4.56479   1
  -6   3  11 21.3152 3.14753   3
   6  -3 -11 18.1759 3.09591   3
   6  -3 -11 24.6762 3.40613   2
   6   3 -11 18.1232 3.31983   2
  -6   3  10 46.9531 4.72903   1
  -6   3  10 56.8674 5.04333   3
   6  -3 -10 55.5195 5.00466   3
   6  -3 -10 54.8304 4.68763   1
   6  -3 -10 57.6026 5.23027   2
   6   3 -10 53.5710 5.10291   2
  -6  -3  10 69.0682 6.16089   1
  -6   3   9 3.69318 1.96815   1
  -6   3   9 1.54259 3.14177   4
  -6   3   9 3.41265 2.64416   3
  -6  -3   9 0.60003 3.69300   1
   6  -3  -9 1.53136 2.35446   3
  -6  -3   9 1.69609 2.93550   2
   6  -3  -9 3.85037 2.09253   1
   6  -3  -9 4.65874 2.65647   2
   6   3  -9-2.11852 2.64110   2
  -6   3   8 120.158 11.0680   1
  -6   3   8 155.393 11.6656   4
  -6   3   8 170.010 11.5121   3
   6  -3  -8 187.138 11.7745   2
   6  -3  -8 144.448 11.4049   3
   6  -3  -8 138.997 11.0520   1
  -6  -3   8 170.456 11.5443   2
   6  -3  -8 175.659 11.4657   2
   6   3  -8 140.361 11.3527   2
  -6  -3   8 161.587 11.8009   1
  -6  -3   7 48.4015 4.59908   1
  -6   3   7 31.3934 2.96860   1
  -6   3   7 42.7751 3.94177   3
   6  -3  -7 55.6130 4.48840   2
   6   3  -7 29.6036 2.63973   3
   6  -3  -7 47.7653 3.89772   3
   6   3  -7 47.9149 4.39265   1
   6  -3  -7 34.1405 2.97968   1
  -6  -3   7 49.2291 4.00437   2
   6  -3  -7 43.7694 3.86639   2
   6   3  -7 45.8848 3.69269   2
  -6  -3   6 50.2120 4.71439   1
   6  -3  -6 63.7775 4.60135   2
  -6   3   6 44.2635 4.01271   3
  -6   3   6 28.7342 2.93549   1
   6  -3  -6 50.9965 3.96550   3
   6   3  -6 39.5030 2.98949   3
   6   3  -6 50.2183 4.70324   1
  -6   3   6 30.2580 2.88713   1
  -6  -3   6 51.5810 4.08763   2
   6  -3  -6 59.4608 4.06151   2
   6   3  -6 44.8315 3.80092   2
  -6  -3   5 23.5117 4.06380   1
  -6   3   5 12.4419 2.78959   3
   6  -3  -5 20.9024 2.94021   3
   6  -3  -5 22.0660 3.54879   2
   6   3  -5 13.5243 1.86105   3
   6   3  -5 17.9991 3.45419   1
  -6  -3   5 18.8804 2.90846   2
   6  -3  -5 21.6089 3.08974   2
   6   3  -5 14.8757 2.48422   2
  -6  -3   4 26.7375 4.02744   1
  -6   3   4 20.7396 3.00754   3
   6  -3  -4 28.3736 3.04186   3
   6  -3  -4 21.4193 3.48124   2
   6   3  -4 19.2023 2.34561   3
  -6  -3   4 27.6135 3.44619   2
   6  -3  -4 18.7428 3.03890   2
   6   3  -4 18.2061 3.66204   1
   6   3  -4 17.7121 2.68178   2
   6  -3  -3 17.4568 3.28276   2
   6  -3  -3 14.5714 2.66094   3
  -6   3   3 13.2016 2.70173   3
   6   3  -3 16.5131 2.59564   2
   6   3  -3 13.9599 2.14829   3
  -6  -3   3 18.6946 3.43976   1
   6  -3  -3 16.5294 2.77907   2
   6   3  -3 11.3759 2.03553   2
   6   3  -3 14.6945 3.09486   1
   6   3  -2 11.3436 3.25294   1
  -6  -3   2 16.3548 3.24023   1
  -6   3   2 14.0248 2.66185   3
   6  -3  -2 11.2732 3.13621   2
   6  -3  -2 16.0087 2.73357   3
   6   3  -2 10.8443 2.52121   2
   6  -3  -2 10.4651 2.70890   2
   6   3  -2 11.2615 1.82442   2
  -6  -3   1 16.5833 3.22350   1
   6  -3  -1 15.3996 2.88019   3
   6   3  -1 9.83593 3.32523   1
   6  -3  -1 15.5635 3.21779   2
   6   3  -1 11.5231 2.54255   2
   6  -3  -1 16.6438 3.07589   2
   6   3  -1 11.7264 1.97292   2
   6  -3   0 34.2050 4.00720   2
   6   3   0 32.2605 3.44674   2
   6  -3   0 36.4686 3.67278   3
   6   3   0 35.4843 3.96624   1
  -6   3   0 33.7840 3.88406   2
   6   3   0 30.1610 3.12272   2
  -6  -3   0 41.8552 4.13207   1
   6  -3   1 13.4070 3.16418   2
   6   3   1 14.7491 2.56533   2
   6  -3   1 11.5799 2.77201   3
  -6   3  -1 13.1794 2.99666   2
   6   3   1 12.0034 2.85421   1
   6   3   1 9.91130 3.20333   1
   6   3   1 16.7811 2.06660   2
   6  -3   2 233.351 8.78400   2
   6   3   2 212.406 8.25360   2
   6   3   2 241.497 8.84914   1
  -6   3  -2 226.770 8.74624   2
   6   3   2 217.919 8.56647   1
   6   3   2 200.154 8.09233   2
   6  -3   3 99.5129 7.29025   2
   6   3   3 107.348 6.86762   2
   6   3   3 90.2361 7.38527   1
  -6   3  -3 105.388 7.27540   2
   6   3   3 100.200 6.78100   2
   6   3   3 102.493 7.16377   1
  -6   3  -3 81.9925 6.41605   1
   6  -3   3 69.3929 6.49702   1
   6  -3   4 27.8347 3.49808   3
   6   3   4 22.9789 2.72100   2
   6  -3   4 25.5708 3.47086   2
  -6   3  -4 23.1779 3.53025   2
   6   3   4 27.0731 3.73562   1
   6   3   4 23.1964 2.87924   2
  -6   3  -4 20.6915 2.17075   1
   6  -3   4 20.5205 2.50549   1
   6   3   4 28.7317 3.32264   1
  -6   3  -5 75.6829 6.08419   2
   6  -3   5 79.2725 6.20677   3
  -6  -3  -5 69.9375 5.61433   2
   6   3   5 67.2443 6.13528   1
   6  -3   5 62.0325 5.48279   1
   6   3   5 76.7946 5.92123   1
  -6   3  -5 56.6619 5.22630   1
   6   3   5 72.1190 5.49868   2
   6  -3   5 67.5680 6.10869   2
  -6   3  -6 12.0575 1.93716   1
   6   3   6 10.0631 2.06482   2
   6  -3   6 4.07846 3.27141   2
   6   3   6 13.2206 3.36427   1
   6  -3   6 16.1485 3.29740   3
   6  -3   6 9.90624 2.56465   1
  -6   3  -6 19.5395 3.36508   2
  -6  -3  -6 10.3406 2.48185   2
   6   3   6 19.0529 3.24946   1
  -6   3  -7 79.8118 6.75817   2
  -6  -3  -7 77.7777 6.22958   2
   6  -3   7 93.4187 6.85499   3
   6  -3   7 67.3991 6.30858   1
   6   3   7 91.1254 6.59025   1
  -6   3  -7 67.9768 5.96977   1
   6   3   7 69.4117 6.02338   2
   6  -3   7 68.7007 6.61926   2
  -6   3  -8 80.2159 6.61750   2
  -6  -3  -8 76.9050 5.97015   2
   6  -3   8 86.4119 6.66450   3
   6  -3   8 58.3688 6.04959   1
   6   3   8 81.9471 6.45440   1
  -6   3  -8 65.4421 5.77122   1
   6   3   8 63.8834 5.88956   2
   6   3   9 19.6065 3.71347   1
   6   3   9 17.1817 2.80002   2
  -6   3  -9 18.5983 2.58684   1
   6  -3   9 18.4820 3.29331   1
   6  -3   9 20.9296 3.93925   3
  -6   3  -9 15.4283 3.78769   2
  -6  -3  -9 15.8155 2.83005   2
   6   3  10 11.4034 2.76438   2
   6   3  10 15.7551 3.69552   1
  -6   3 -10 14.1923 2.59971   1
   6  -3  10 14.0638 3.39350   1
   6  -3  10 17.2620 3.91890   3
  -6   3 -10 15.3439 3.70265   2
  -6  -3 -10 13.7649 2.86342   2
   6   3  11 11.5022 2.98181   2
   6   3  11 14.0833 4.05037   1
  -6   3 -11 13.8560 2.55777   1
   6  -3  11 4.98828 3.51707   1
   6  -3  11 13.5982 3.83327   3
  -6   3 -11 4.72120 3.49776   2
  -6  -3 -11 11.6968 2.97703   2
  -6   3 -12 0.77130 2.56037   1
   6  -3  12 1.15033 3.58924   1
   6   3  12 4.31755 4.04390   1
   6  -3  12 3.34685 3.67184   3
  -6   3 -12 7.16544 3.76538   2
  -6  -3 -12-1.60240 2.95476   2
   6  -3  13 3.29071 3.97262   1
   6   3  13-0.49679 4.60948   1
   6  -3  13-0.11589 4.09930   3
  -6   3 -13 0.35396 3.78035   2
  -6  -3 -13 8.39980 3.12358   2
   6  -3  14 0.73757 4.29086   1
   6   3  14 7.26306 5.04086   1
   6  -3  14 5.77121 4.00482   3
  -6   3 -14 5.98056 4.06249   2
  -6  -3 -14 3.16097 3.16950   2
   6  -3  15 3.42777 4.63347   1
   6   3  15-1.43606 5.17188   1
   6  -3  15-4.98438 4.24711   3
  -6   3 -15-0.63899 3.84990   2
  -6  -3 -15-3.15429 3.39992   2
   6  -3  16 7.67410 5.02076   1
   6  -3  16 16.8944 4.60686   3
   6   3  16 13.8735 5.57700   1
  -6   3 -16 9.62103 4.28891   2
   6  -3  17-1.99807 5.23108   1
   6  -3  17-6.66107 4.57282   3
   6  -3  18 6.38715 5.60844   1
   6  -3  18 0.13911 4.82040   3
   6   4 -17 2.18825 3.77082   2
   6  -4 -17-1.91854 4.02838   2
   6   4 -16 11.5211 3.83044   2
  -6  -4  16 14.1999 5.99009   1
   6  -4 -16 5.69086 3.88141   2
   6   4 -15 14.0789 3.79964   2
  -6  -4  15 18.2449 5.86439   1
   6  -4 -15 11.4007 3.69938   2
   6   4 -14 13.8958 3.74692   2
  -6  -4  14 21.3951 5.86544   1
   6  -4 -14 12.9066 3.51660   2
   6   4 -13 13.7594 3.75991   2
  -6  -4  13 19.4583 5.31231   1
   6  -4 -13 16.5570 3.76284   2
   6   4 -12 0.68583 3.15492   2
  -6  -4  12 1.71092 4.74548   1
   6  -4 -12 1.80292 3.06780   3
   6  -4 -12 8.30177 3.28213   2
   6   4 -11 1.70319 3.11440   2
  -6  -4  11 4.66103 4.44694   1
   6  -4 -11 4.61226 3.07694   3
   6  -4 -11 3.21014 2.89891   2
   6   4 -10 9.51415 3.11879   2
  -6   4  10 15.5691 3.74755   4
   6  -4 -10 9.03799 3.15217   3
  -6  -4  10 15.4803 4.48443   1
   6  -4 -10 10.6883 3.04871   2
   6   4  -9 8.87919 2.87252   2
  -6   4   9 9.95969 3.55595   4
   6  -4  -9 9.57699 2.96312   3
  -6  -4   9 11.1546 4.37034   1
  -6  -4   9 13.4578 3.08148   2
   6  -4  -9 12.8386 3.04859   2
   6  -4  -8 7.32427 3.49017   2
   6  -4  -8 6.00117 2.85182   3
  -6  -4   8 4.92798 2.80055   2
   6  -4  -8 0.07275 2.72304   2
  -6   4   8 1.04491 1.78962   1
  -6  -4   8 6.20481 4.38137   1
   6   4  -8 5.55445 2.54360   2
   6  -4  -7 16.2349 3.54762   2
   6  -4  -7 7.61700 3.06674   3
  -6  -4   7 11.1763 2.82031   2
   6  -4  -7 18.7320 2.85512   2
  -6   4   7 5.57875 1.51939   1
  -6  -4   7 16.0217 4.29652   1
   6   4  -7 10.6486 2.55937   2
  -6   4   6 23.3577 2.57505   1
  -6  -4   6 45.7057 5.30814   1
   6  -4  -6 56.7807 4.41042   2
   6   4  -6 35.6944 2.95417   3
   6  -4  -6 43.1976 4.04497   3
  -6  -4   6 47.4068 3.75684   2
   6  -4  -6 43.0230 3.77031   2
   6   4  -6 37.4373 3.48240   2
   6  -4  -5 53.5063 3.93965   2
  -6  -4   5 66.2103 4.92392   1
   6   4  -5 38.2187 2.60692   3
   6  -4  -5 49.6933 3.74407   3
  -6  -4   5 55.9442 3.49891   2
   6  -4  -5 47.5440 3.46034   2
   6   4  -5 42.7531 2.98083   2
   6  -4  -4 5.88063 3.22707   2
   6  -4  -4 2.19292 2.95465   3
   6   4  -4 4.82534 1.86840   3
  -6  -4   4 9.41857 3.83119   1
  -6  -4   4 5.07763 2.65794   2
   6  -4  -4 3.39377 2.75777   2
   6   4  -4 4.88646 2.09032   2
  -6  -4   3 22.3173 4.05837   1
   6  -4  -3 21.7580 3.66897   2
   6  -4  -3 18.6891 3.25216   3
   6   4  -3 13.5433 2.23150   3
   6   4  -3 13.4764 2.84317   2
   6  -4  -3 19.7405 3.12196   2
   6   4  -3 15.6969 2.34778   2
   6  -4  -2 64.6269 5.27870   2
   6   4  -2 55.9851 4.67490   2
   6  -4  -2 47.3934 5.06889   3
   6   4  -2 40.3720 4.39328   3
  -6  -4   2 62.7390 5.56028   1
   6  -4  -2 58.4735 4.96313   2
   6   4  -2 48.0033 4.23231   2
   6  -4  -1 82.5681 6.50225   2
   6   4  -1 76.7143 5.98063   2
   6  -4  -1 69.1193 6.39860   3
   6   4  -1 60.0528 5.93187   3
   6  -4  -1 88.5355 6.61604   2
  -6  -4   1 75.7296 6.72798   1
   6   4  -1 70.4653 5.74045   2
   6  -4   0 41.7127 4.48448   2
   6   4   0 46.2448 3.79122   2
   6   4   0 35.4073 3.91346   3
  -6  -4   0 50.2947 4.73730   1
   6  -4   0 38.9303 4.47301   2
   6   4   0 34.9227 3.38969   2
   6  -4   1 44.0208 4.91857   2
   6   4   1 55.8005 4.18148   2
  -6   4  -1 52.2092 4.97285   2
   6   4   1 43.7105 4.49665   3
   6   4   1 51.5385 4.87751   1
   6   4   1 43.0901 3.97300   2
   6  -4   2 35.9513 4.20219   2
   6   4   2 42.8322 3.42247   2
  -6   4  -2 38.5527 4.29996   2
   6   4   2 30.7609 4.06052   3
   6   4   2 45.0944 4.32828   1
   6   4   2 32.7605 3.26972   2
   6  -4   3 92.3237 7.20587   2
   6  -4   3 67.6470 6.37357   1
  -6   4  -3 97.5782 7.27461   2
   6  -4   3 92.8759 7.24946   3
   6   4   3 80.5026 6.99497   3
   6   4   3 97.2119 7.17486   1
   6   4   3 92.9019 6.44555   2
  -6   4  -3 75.3235 6.29296   1
   6   4   3 95.4678 6.53292   2
   6   4   4 3.04516 1.77309   2
   6  -4   4 7.09322 3.35454   2
  -6   4  -4 2.61023 1.54855   1
   6  -4   4 7.39429 3.19060   3
  -6   4  -4 5.59632 3.18704   2
   6  -4   4 4.29185 1.99642   1
   6   4   4 1.38976 1.63804   2
   6   4   4 4.17373 3.16549   1
   6  -4   5 4.24715 2.97400   3
   6   4   5 3.73046 1.67205   2
   6  -4   5 5.45875 3.06699   2
   6  -4   5 5.53430 2.49328   1
  -6   4  -5 4.44199 1.79893   1
  -6   4  -5 0.94036 3.19839   2
   6   4   5 5.42467 1.80969   2
   6   4   5 5.76041 3.21259   1
   6  -4   6-0.87676 2.58642   1
   6   4   6 5.99212 1.65021   2
  -6   4  -6 0.84065 1.91851   1
   6  -4   6 9.19007 3.23455   3
  -6   4  -6 9.52231 3.50829   2
   6   4   6 6.29204 1.98760   2
   6   4   6 5.90623 3.42732   1
   6  -4   7 36.5617 4.35917   3
  -6   4  -7 31.5375 4.32807   2
   6   4   7 38.3584 4.31762   1
   6  -4   7 23.3459 3.62574   1
  -6   4  -8 52.9298 5.42598   2
  -6  -4  -8 52.1408 4.54205   2
   6  -4   8 58.5576 5.46487   3
   6   4   8 51.2527 5.44470   1
   6  -4   8 40.5034 5.04721   1
   6   4   9 38.6686 4.74646   1
  -6  -4  -9 33.6474 3.63246   2
   6  -4   9 40.5896 4.85245   3
  -6   4  -9 35.0551 4.85016   2
   6  -4   9 27.9926 4.32682   1
   6   4  10 16.4998 4.05207   1
   6  -4  10 24.5243 4.19630   3
  -6   4 -10 19.0098 4.29978   2
   6  -4  10 15.0543 3.92970   1
   6   4  11 18.5709 4.19092   1
   6  -4  11 12.0973 4.22352   3
  -6   4 -11 6.66605 3.94305   2
   6  -4  11 14.6934 4.30475   1
   6   4  12 13.2786 4.60369   1
   6  -4  12 17.7319 4.69689   3
  -6   4 -12 8.26421 4.11663   2
   6  -4  12 14.6175 4.60313   1
   6   4  13 11.8464 4.72688   1
   6  -4  13 7.53688 4.42452   3
  -6   4 -13 2.55557 4.12183   2
   6  -4  13 2.80470 4.62312   1
   6   4  14 8.32557 5.13680   1
   6  -4  14-10.2110 4.69862   3
   6  -4  14-0.12209 5.02144   1
  -6   4 -14 4.49637 4.23924   2
  -6   4 -15 11.7143 4.50330   2
   6  -4  15 4.91355 4.58380   3
   6  -4  15-4.74369 5.39851   1
   6  -4  16 30.0100 5.78023   3
   6  -4  16 14.6007 5.91735   1
   6  -4  17 10.8486 5.26982   3
   6  -4  17 6.38176 6.02733   1
   6   5 -16 2.15306 3.81269   2
   6   5 -15 22.3959 4.25990   2
   6   5 -14 12.3010 3.75208   2
   6   5 -13 10.1276 3.54253   2
  -6  -5  13 6.85813 5.26379   1
   6   5 -12 3.96610 3.32867   2
  -6  -5  12 5.65370 5.18937   1
   6  -5 -12 6.32629 3.20692   2
   6   5 -11 7.46609 3.16497   2
  -6   5  11 11.2985 4.14785   4
   6  -5 -11 5.03855 3.62513   3
  -6  -5  11 14.8409 5.32261   1
   6  -5 -11 8.42364 3.17663   2
   6   5 -10 7.09259 2.93138   2
  -6   5  10 4.53685 3.99388   4
   6  -5 -10 9.64343 3.57188   3
   6  -5 -10 8.89494 3.16701   2
  -6  -5  10 9.89839 5.15177   1
   6   5  -9 0.87392 2.80392   2
   6  -5  -9 1.96406 3.46910   3
   6  -5  -9 6.98541 3.08325   2
  -6  -5   9 11.4331 5.22398   1
   6   5  -8 18.3498 3.12963   2
  -6  -5   8 17.4273 5.14856   1
   6  -5  -8 15.4857 3.61102   3
   6  -5  -8 26.1409 3.50076   2
   6   5  -7 4.41830 2.54066   2
  -6  -5   7 11.1840 4.88289   1
   6  -5  -7 6.93333 3.27019   3
   6  -5  -7 7.63897 2.84780   2
   6   5  -6 10.7141 2.57640   2
   6  -5  -6 12.0801 3.38833   2
  -6  -5   6 16.1778 4.87572   1
   6  -5  -6 8.03145 3.41845   3
   6  -5  -6 6.68747 2.92360   2
   6   5  -5 1.44813 2.26639   2
   6  -5  -5 5.60329 3.31377   2
   6  -5  -5 6.13849 3.34549   3
  -6  -5   5-1.11038 4.34344   1
   6  -5  -5 4.03870 2.82464   2
   6   5  -4 3.24269 2.03698   2
  -6  -5   4 3.09606 4.30288   1
   6  -5  -4 5.77018 3.13906   2
   6  -5  -4 5.86970 3.29015   3
   6  -5  -4 4.79298 2.80918   2
   6  -5  -3 35.5696 3.98172   2
   6   5  -3 24.2191 3.37804   3
   6  -5  -3 32.1044 4.19916   3
  -6  -5   3 36.0830 4.80239   1
   6  -5  -3 28.9531 3.93672   2
   6   5  -3 27.1978 2.97214   2
   6  -5  -2 24.2408 3.56880   2
  -6  -5   2 21.0352 4.49616   1
   6   5  -2 21.9688 3.19181   3
   6  -5  -2 22.2711 3.94893   3
   6  -5  -2 24.6075 3.59414   2
   6   5  -2 19.2169 2.37983   2
  -6  -5   1 8.52264 4.08479   1
   6  -5  -1 2.21305 2.96210   2
   6   5  -1 0.59733 2.81059   3
   6  -5  -1 3.38030 3.12997   2
   6   5  -1 1.35025 1.48337   2
   6  -5   0 1.54365 2.96383   2
   6   5   0 0.06794 2.74562   3
   6  -5   0 2.58807 3.32995   2
   6   5   0-1.41774 1.16844   2
   6  -5   1 53.7255 4.86905   2
   6  -5   1 53.2796 5.23904   3
   6   5   1 36.8210 4.79135   3
   6   5   1 48.5571 3.75409   2
   6  -5   2 7.42765 3.06675   2
   6  -5   2 12.7124 3.74930   3
  -6   5  -2 9.36140 3.44973   2
   6  -5   3 13.4109 3.70485   3
  -6   5  -3 14.6837 3.48681   2
   6  -5   3 13.1574 2.11282   1
   6   5   4 4.98541 2.03171   4
   6  -5   4 11.6001 3.64727   3
   6  -5   4 3.12923 2.35568   1
  -6   5  -4 6.27832 3.54018   2
  -6   5  -5 7.04718 3.59182   2
   6  -5   5 3.06996 3.64669   3
   6  -5   5-0.09939 2.70550   1
   6  -5   6-0.11815 3.99146   3
  -6   5  -6-1.24723 3.58218   2
   6  -5   6 2.06700 2.88032   1
   6  -5   7 4.41881 3.09571   1
   6  -5   7 4.20775 4.01305   3
  -6   5  -7 3.44719 3.61674   2
   6  -5   8 2.22789 3.72401   1
  -6   5  -8 3.77950 3.87426   2
   6  -5   9 21.8633 4.24963   1
   6  -5   9 29.2481 4.55146   3
  -6   5  -9 24.9372 4.56925   2
  -6   5 -10 0.49363 4.11787   2
   6  -5  10-4.02074 4.01487   3
  -6   5 -11 1.16322 4.48438   2
   6  -5  11 5.52378 4.13144   3
  -6   5 -12 3.38338 4.32891   2
   6  -5  12 7.05936 4.30687   3
  -6   5 -13 8.18501 4.61790   2
   6  -5  13 3.73681 4.52090   3
  -6   5 -14 0.57053 4.69849   2
   6  -5  14-3.29324 4.54748   3
   6  -5  15 17.2142 4.94274   3
   6  -6 -11 14.9804 4.29636   3
  -6  -6  10 10.3350 5.86139   1
   6  -6 -10 7.78281 4.06645   3
   6  -6  -9 10.3342 4.16948   3
   6  -6  -8 8.09892 4.03330   3
   6  -6  -7 6.16469 3.77581   3
   6  -6  -6 3.65065 3.71662   3
   6  -6  -5 6.87764 3.91418   3
   6  -6  -4-4.17143 4.03322   3
   6  -6  -4 1.83909 2.96713   2
   6  -6  -3 11.4783 4.00537   3
   6  -6  -3 4.72397 2.95174   2
   6  -6  -2 19.8589 3.58683   2
   6  -6  -1 14.8552 3.82561   2
   6  -6   0 30.2246 4.63680   3
   6  -6   0 29.1445 4.26049   2
   6  -6   1 20.5357 4.52990   3
   6   6   1 20.9817 4.49773   1
   6  -6   2 9.74169 4.06382   3
   6   6   2 8.59417 4.04243   1
   6  -6   3 3.96610 4.01792   3
  -6   6  -3-0.39157 3.58326   2
   6   6   3 0.90295 3.97638   1
   6  -6   4 7.27300 4.04538   3
  -6   6  -4 4.92980 3.80088   2
   6   6   4 5.16017 4.16756   1
   6  -6   5 12.4565 4.46937   3
  -6   6  -5 8.90620 3.97256   2
   6   6   5 15.5604 4.27314   1
   6  -6   6 7.31307 4.04863   3
  -6   6  -6 6.79935 3.95027   2
   6   6   6 6.70559 4.24615   1
   6  -6   7 2.56661 4.34988   3
  -6   6  -7 0.11317 4.12710   2
   6   6   7 2.51270 4.39386   1
   6  -6   8 12.9269 4.41755   3
  -6   6  -8 15.6800 4.42945   2
   6   6   8 16.0927 4.43870   1
   6   6   9 15.2095 4.64453   1
   6  -6   9 12.5515 4.56927   3
  -6   6  -9 19.5261 4.62171   2
  -6   6 -10 9.83961 4.43347   2
   6  -6  10 3.77788 4.65430   3
  -6   6 -11 3.70747 4.59191   2
   6  -6  11-2.60269 4.68619   3
  -6   6 -12 7.66327 4.77312   2
   6  -6  12 6.34151 4.73033   3
  -6  -7   3 16.4025 5.61712   1
   6  -7  -1 1.97511 4.57743   3
   6   7  -1 8.35229 4.30236   1
   6  -7   0 0.70952 4.62411   3
   6   7   0 27.0752 4.69678   1
   6  -7   1 13.6760 4.62344   3
   6   7   1 19.2481 4.57222   1
   6  -7   2 14.0311 4.68799   3
   6   7   2 13.0850 4.57890   1
   6  -7   3 19.4132 5.01234   3
   6   7   3 25.6613 5.04885   1
   6  -7   4-1.27042 4.60619   3
   6  -7   5 5.73398 4.63165   3
  -7   0  20 17.5268 5.70706   1
  -7   0  19-5.46333 5.16930   1
   7   0 -18 2.62350 4.19573   2
  -7   0  18 5.36740 4.88708   1
  -7   0  17-0.86525 4.33486   1
   7   0 -17 0.45327 3.80206   2
  -7   0  16 4.14343 4.09513   1
   7   0 -16 5.73567 3.77295   2
  -7   0  15 4.14888 3.88906   1
   7   0 -15 0.94024 3.45949   2
  -7   0  14 6.85612 3.90067   1
   7   0 -13 6.79947 3.83463   1
  -7   0  13 4.40756 3.59108   1
   7   0 -12 17.1476 3.71868   1
  -7   0  12 15.1592 3.53514   1
   7   0 -11 0.39817 3.20777   1
  -7   0  11 2.59753 3.27685   1
   7   0 -10 2.99790 1.36178   3
   7   0 -10 4.47685 2.92906   1
  -7   0  10 2.94041 2.76917   1
   7   0  -9 47.6318 3.79916   3
  -7   0   9 43.4505 4.45641   1
   7   0  -9 43.3605 4.49915   1
  -7   0   8 7.18848 2.74077   1
   7   0  -8 11.2057 1.73035   3
  -7   0   8 7.20199 3.31387   2
   7   0  -8 5.72209 2.57864   1
  -7   0   7 21.6798 3.20640   1
   7   0  -7 25.3745 2.42547   3
  -7   0   7 24.2481 4.04150   2
   7   0  -7 21.4522 3.03702   1
   7   0  -6 12.3435 1.80826   3
  -7   0   6 10.9632 2.38247   1
  -7   0   6 12.4487 3.51625   2
   7   0  -6 11.2569 2.42975   1
  -7   0   5 30.2655 3.33276   1
   7   0  -5 28.5264 3.12464   1
   7   0  -5 34.3377 2.87506   3
   7   0  -5 40.4068 3.98659   2
   7   0  -5 26.6469 3.40175   2
   7   0  -4 16.6008 2.07844   1
  -7   0   4 15.0235 2.57897   1
   7   0  -4 16.4924 2.05563   3
   7   0  -4 12.8436 3.17561   2
   7   0  -4 17.3840 2.64692   2
  -7   0   3-1.76820 1.84887   1
   7   0  -3-1.07718 1.56135   3
   7   0  -3 1.93903 1.96701   1
   7   0  -3-0.07684 2.97224   2
   7   0  -3-2.96164 2.31832   2
   7   0  -2 36.4824 3.35319   3
   7   0  -2 34.5134 4.18763   2
   7   0  -2 42.8920 3.53112   1
   7   0  -2 30.9606 3.74614   2
  -7   0   2 38.0266 3.38525   1
   7   0  -1 26.4627 3.62504   2
   7   0  -1 22.6445 2.48960   1
   7   0  -1 24.8855 3.17574   2
   7   0  -1 29.4561 2.68720   1
   7   0   0 185.485 14.9654   2
   7   0   0 185.837 14.9480   2
   7   0   0 194.858 14.6224   1
   7   0   0 212.026 14.6884   1
   7   0   1 0.07687 2.96879   2
   7   0   1 3.67344 2.08550   1
   7   0   1-1.77242 1.71464   1
   7   0   2 1.87227 1.66535   1
   7   0   2-0.87129 2.29537   1
   7   0   2-2.40949 2.88774   2
  -7   0  -2 3.80474 2.66221   2
   7   0   3 99.6015 8.34858   2
  -7   0  -3 114.970 8.28129   2
   7   0   3 95.7017 7.92815   1
   7   0   3 101.123 7.83552   1
   7   0   4 13.2251 2.04962   1
   7   0   4 15.4288 3.06615   2
  -7   0  -4 14.9477 2.99975   2
   7   0   4 12.8710 2.40055   1
   7   0   5 4.56970 1.96991   1
   7   0   5 4.65700 2.87914   2
  -7   0  -5 6.08427 2.59923   2
   7   0   6 55.4646 6.01869   2
  -7   0  -6 77.4016 5.98684   2
  -7   0  -6 68.3870 5.52381   1
   7   0   6 64.6898 5.74054   1
   7   0   7 13.1272 3.15564   2
   7   0   7 8.87659 2.81587   1
  -7   0  -7 13.9107 2.97017   2
  -7   0  -7 11.5326 2.33011   1
   7   0   8 23.6418 3.77038   2
   7   0   8 29.5262 3.71775   1
  -7   0  -8 28.7539 3.76043   2
  -7   0  -8 29.2833 3.17987   1
  -7   0  -9 56.1568 5.12130   2
  -7   0  -9 47.8660 4.62663   1
   7   0   9 51.5352 5.07355   1
   7   0   9 41.3592 5.07032   2
  -7   0 -10 40.1273 4.57954   2
   7   0  10 34.4472 4.58595   1
  -7   0 -10 34.5005 3.83526   1
  -7   0 -11 81.5544 6.73676   2
  -7   0 -11 72.8379 6.26411   1
   7   0  11 67.0082 6.91666   1
  -7   0 -12 7.05076 3.57120   2
   7   0  12 6.51571 3.99337   1
  -7   0 -13 44.8922 5.03238   2
   7   0  13 39.4617 5.50856   1
  -7   0 -14 1.43017 3.64424   2
   7   0  14 0.72756 4.56200   1
  -7   0 -15-1.03576 4.00658   2
   7   0  15 5.05638 4.66876   1
  -7   0 -16 8.35927 3.92230   2
   7   0  16-5.14929 4.94488   1
  -7   0 -17 0.12486 4.22727   2
   7   0  17 7.60589 5.14523   1
  -7   0 -18-0.26347 4.29690   2
   7   0  18-1.47044 5.39941   1
  -7  -1  19 11.4386 5.55081   1
  -7   1  18-2.55513 4.71962   1
  -7  -1  18-3.38264 5.24774   1
   7  -1 -18 5.74546 4.13140   2
   7   1 -17 15.6317 4.25364   2
  -7   1  17 16.8555 4.98091   1
  -7  -1  17 12.9376 5.16650   1
   7  -1 -17 19.3907 4.17474   2
  -7   1  16 89.0052 7.89867   1
  -7  -1  16 86.5768 8.23399   1
   7  -1 -16 88.5961 7.65182   2
   7   1 -16 75.6176 7.61868   2
  -7   1  15 11.4909 4.19805   1
  -7  -1  15 10.7861 4.73767   1
   7  -1 -15 19.0349 3.70184   2
   7   1 -15 9.62723 3.73511   2
  -7   1  14-3.40940 3.72045   1
   7  -1 -14 3.16671 3.29681   2
  -7  -1  14 5.27849 3.97525   1
   7   1 -14 4.69671 3.42475   2
   7  -1 -13 11.1090 3.49656   1
  -7   1  13 13.4656 3.87870   1
   7  -1 -13 15.6010 3.61881   2
   7   1 -13 13.6675 3.32785   2
  -7  -1  13 15.7248 3.86974   1
  -7  -1  12 11.5723 3.56384   1
   7  -1 -12 11.9772 3.47930   1
  -7   1  12 13.1406 3.55660   1
   7  -1 -12 15.9961 3.39075   2
   7   1 -12 12.3419 3.32441   2
   7   1 -11 39.4721 4.37340   1
  -7  -1  11 34.9487 4.43837   1
   7  -1 -11 32.5302 3.39822   3
  -7   1  11 26.9509 4.01028   1
   7  -1 -11 50.1206 4.36613   2
   7   1 -11 35.0779 4.21926   2
   7  -1 -11 40.7900 4.02278   1
   7   1 -10 96.4792 7.49645   1
   7  -1 -10 84.0105 6.93070   3
  -7   1  10 74.6022 7.25040   1
   7  -1 -10 106.706 7.57889   2
   7   1 -10 94.2595 7.47792   2
  -7  -1  10 93.7871 7.64506   1
   7  -1 -10 87.9013 7.28546   1
  -7  -1   9 17.5277 3.54542   1
   7  -1  -9 11.0833 2.80945   1
   7  -1  -9 14.2278 2.24088   3
   7  -1  -9 11.2838 2.94957   2
  -7   1   9 13.2405 2.64836   1
   7   1  -9 14.1710 2.96938   2
   7   1  -9 11.0316 3.09930   1
   7   1  -8 54.6876 5.01937   1
   7   1  -8 52.1100 4.19165   3
   7  -1  -8 58.7092 4.63129   3
  -7   1   8 83.9019 6.01698   2
  -7  -1   8 62.5826 5.35842   2
   7  -1  -8 61.1534 5.08708   2
   7   1  -8 56.1078 5.09063   2
  -7   1   8 43.2184 4.72727   1
  -7  -1   8 69.8096 5.40800   1
   7  -1  -8 55.3946 4.79442   1
   7   1  -7 148.187 10.9581   1
   7   1  -7 151.540 10.5172   3
   7  -1  -7 141.017 10.7606   3
  -7   1   7 192.658 11.6309   2
  -7  -1   7 157.211 11.2892   2
   7  -1  -7 164.242 11.0479   2
   7   1  -7 132.238 10.9079   2
  -7   1   7 110.340 10.7141   1
   7  -1  -7 126.669 10.6982   1
  -7  -1   7 135.993 11.0302   1
  -7  -1   6 165.976 13.6851   1
   7   1  -6 186.122 13.6593   1
   7   1  -6 192.551 13.3708   3
   7  -1  -6 186.311 13.5456   3
   7  -1  -6 216.533 14.0204   2
  -7  -1   6 217.673 14.0842   2
   7  -1  -6 207.609 13.7949   2
   7   1  -6 168.337 13.6719   2
  -7   1   6 142.368 13.4353   1
   7  -1  -6 172.883 13.4371   1
  -7   1   5 118.267 10.9173   1
  -7  -1   5 156.217 11.2874   1
   7   1  -5 162.265 11.2184   1
   7   1  -5 148.476 10.9019   3
   7  -1  -5 171.789 11.5706   2
   7  -1  -5 161.766 11.1063   3
  -7  -1   5 176.734 11.5858   2
   7  -1  -5 155.544 11.2916   2
   7   1  -5 149.255 11.1866   2
   7  -1  -5 129.492 10.8703   1
  -7  -1   4 48.4329 4.04730   1
  -7   1   4 29.6416 3.43767   4
   7  -1  -4 45.5014 4.40841   2
   7  -1  -4 39.8331 3.55595   3
   7   1  -4 45.7767 4.18157   2
  -7   1   4 32.9983 3.14916   1
   7   1  -4 44.1886 3.88434   1
   7  -1  -4 41.4477 3.89131   2
   7   1  -4 38.3233 3.75786   2
   7  -1  -4 35.4003 3.10254   1
   7  -1  -3 238.655 18.5717   1
   7  -1  -3 289.932 19.1629   2
   7  -1  -3 272.979 18.8666   3
  -7  -1   3 277.754 18.9081   1
   7   1  -3 278.882 18.8728   1
   7  -1  -3 218.902 18.9279   2
   7   1  -3 247.962 18.8916   2
   7   1  -3 276.926 19.0601   2
   7  -1  -2 59.1070 3.75557   1
   7   1  -2 61.1848 4.87296   2
   7  -1  -2 58.5021 4.44413   3
   7   1  -2 45.2789 4.33469   2
  -7  -1   2 53.7820 4.40437   1
   7  -1  -2 37.1064 3.70349   1
   7   1  -2 52.4359 4.25955   1
   7   1  -1 42.6522 4.52145   2
   7  -1  -1 49.4487 4.22696   3
   7  -1  -1 57.3447 3.63140   1
   7   1  -1 43.2685 4.21376   2
   7  -1  -1 38.7984 3.54384   1
   7   1  -1 53.9055 4.22199   1
   7   1   0 52.8487 4.94417   2
   7  -1   0 51.9313 4.49140   3
   7   1   0 49.0768 4.37561   1
   7   1   0 43.2578 4.55544   2
   7  -1   0 46.2258 3.94002   1
   7  -1   0 55.7127 3.93946   1
   7   1   0 54.9955 4.50700   1
   7   1   1 107.969 7.86217   1
   7   1   1 85.2673 8.01056   2
   7  -1   1 107.367 7.93809   3
   7   1   1 97.7894 7.98680   2
   7   1   1 104.015 7.76364   1
   7  -1   1 111.361 7.49922   1
   7  -1   1 81.8990 7.48510   1
   7   1   2 18.5557 2.68486   1
   7  -1   2 15.1567 1.93560   1
   7  -1   2 12.5075 2.01998   1
   7   1   2 14.0734 2.90554   2
  -7   1  -2 16.2388 3.05111   2
   7   1   2 13.7910 2.24262   1
   7  -1   3 15.2418 2.14414   1
   7   1   3 19.4530 3.11865   2
  -7   1  -3 20.7105 3.36744   2
  -7  -1  -3 24.8010 2.95558   2
   7   1   3 19.1205 2.72016   1
   7  -1   3 16.7253 2.21487   1
   7   1   3 18.1617 2.42304   1
  -7  -1  -4 33.0265 3.53686   2
   7   1   4 24.0800 3.60551   2
  -7   1  -4 32.3318 3.65600   2
   7   1   4 36.7205 3.37304   1
  -7   1  -4 29.4945 2.84554   1
   7   1   4 29.9197 3.08242   1
   7  -1   4 28.5821 2.95062   1
   7   1   5 20.3973 2.69456   1
   7  -1   5 11.5932 3.30324   2
   7   1   5 17.4616 3.10613   2
   7  -1   5 19.2958 2.53739   1
   7   1   5 16.8412 2.71489   1
  -7   1  -5 25.0727 3.34264   2
  -7  -1  -5 23.1428 3.12153   2
  -7   1  -5 15.9804 2.23146   1
  -7   1  -6 34.6513 3.98664   2
  -7  -1  -6 45.4392 3.87632   2
   7  -1   6 27.0432 4.12823   2
  -7   1  -6 31.5887 3.28094   1
   7   1   6 34.5145 3.63577   1
   7   1   6 35.9860 3.58277   1
   7  -1   6 31.5762 3.59908   1
   7   1   6 35.1666 3.92857   2
  -7   1  -7 228.967 16.0805   2
  -7  -1  -7 232.819 15.9653   2
  -7  -1  -7 227.429 15.8340   1
  -7   1  -7 199.873 15.6382   1
   7   1   7 217.211 15.8674   1
   7  -1   7 186.957 15.7731   1
   7   1   7 188.666 15.9143   2
   7  -1   7 206.386 16.0902   2
  -7   1  -8 41.0062 4.33187   2
  -7  -1  -8 37.2235 3.95593   2
   7   1   8 33.0479 4.11119   1
   7   1   8 30.5494 4.01287   2
   7  -1   8 29.9563 3.96124   1
  -7  -1  -8 35.6919 3.76387   1
  -7   1  -8 29.0342 3.31028   1
  -7   1  -9 43.5000 4.79088   2
  -7  -1  -9 41.1769 4.51855   2
   7   1   9 37.9036 4.47523   2
   7  -1   9 37.7716 4.46961   1
  -7  -1  -9 37.4613 4.09601   1
  -7   1  -9 37.3632 3.78871   1
   7   1   9 49.1010 4.73183   1
   7   1  10 21.5906 3.60490   2
   7   1  10 18.1001 4.09433   1
  -7   1 -10 20.4949 3.86360   2
  -7  -1 -10 22.8034 3.78103   2
   7  -1  10 21.3876 3.73850   1
  -7  -1 -10 20.1818 3.19646   1
  -7   1 -10 18.5378 2.83981   1
  -7   1 -11 2.21119 3.48197   2
  -7  -1 -11 1.22976 3.26599   2
   7  -1  11 1.28549 3.43346   1
   7   1  11-4.55487 3.75709   1
  -7   1 -11 2.60279 2.41576   1
   7   1  12-1.52822 4.04215   1
  -7   1 -12 1.30390 3.40024   2
  -7  -1 -12 1.92430 3.60352   2
   7  -1  12 2.18917 3.50503   1
  -7   1 -13 2.37505 3.72758   2
   7   1  13 6.35900 4.31069   1
  -7  -1 -13 0.90048 3.51890   2
   7  -1  13 8.67725 3.92163   1
  -7   1 -14 4.68688 3.96261   2
  -7  -1 -14 9.28321 3.68679   2
   7   1  14 13.6144 4.74167   1
   7  -1  14 7.99431 4.19566   1
  -7   1 -15 5.70540 4.07321   2
  -7  -1 -15 3.26818 3.81046   2
   7   1  15-0.90353 5.09918   1
   7  -1  15 9.89905 4.42794   1
  -7   1 -16 5.83202 4.15820   2
  -7  -1 -16 6.79090 4.08560   2
   7   1  16 6.40504 5.25753   1
   7  -1  16 4.10523 4.73206   1
  -7   1 -17 35.3005 5.41568   2
  -7  -1 -17 43.6926 5.31694   2
   7   1  17 39.3377 6.69019   1
   7  -1  17 33.5362 5.95009   1
  -7  -1 -18 21.3723 4.60007   2
   7  -1  18 15.4067 5.55421   1
  -7  -2  18 24.9262 5.45785   1
   7   2 -17 15.9496 4.37597   2
  -7  -2  17 12.3655 5.24449   1
   7  -2 -17 18.1661 4.31660   2
   7   2 -16 20.0260 4.32344   2
  -7  -2  16 18.6361 4.94147   1
   7  -2 -16 22.2626 4.31534   2
  -7  -2  15 14.1855 4.73363   1
  -7   2  15 6.28241 3.92880   1
   7  -2 -15 14.3877 3.73105   2
   7   2 -15 10.5418 3.78701   2
  -7  -2  14 35.9442 5.58068   1
  -7   2  14 41.9406 4.89754   1
   7  -2 -14 46.7525 5.08508   2
   7   2 -14 45.0866 4.91729   2
  -7  -2  13 3.82711 4.22072   1
  -7   2  13 5.63797 3.05662   1
   7  -2 -13 1.99145 3.44932   2
   7   2 -13 3.32594 3.35270   2
  -7  -2  12 10.6009 4.33411   1
  -7   2  12 1.48585 2.87167   1
   7  -2 -12 3.73111 2.37111   3
   7  -2 -12 11.6906 3.37308   2
   7   2 -12 4.84501 3.06644   2
  -7  -2  11 4.66100 3.94262   1
  -7   2  11 2.69482 2.16925   3
  -7   2  11 4.86325 2.83134   1
   7  -2 -11 2.62708 2.31763   3
   7  -2 -11-0.36631 3.10797   2
   7   2 -11-1.74549 3.00954   2
   7  -2 -10 4.84984 2.26824   1
  -7  -2  10 7.92583 4.09606   1
  -7   2  10 4.95970 2.24433   3
   7  -2 -10 3.92366 2.23321   3
  -7   2  10 7.12363 2.63957   1
   7  -2 -10 5.75055 3.16202   2
   7   2 -10 6.75023 2.87725   2
   7   2  -9 37.0123 4.40103   1
  -7   2   9 37.9915 3.67122   3
   7  -2  -9 36.7138 3.73511   3
  -7  -2   9 35.2468 4.55324   1
  -7   2   9 29.9690 3.52939   1
   7  -2  -9 46.7864 4.20492   2
   7  -2  -9 32.4846 3.40209   1
   7   2  -9 39.6082 4.12470   2
   7  -2  -8 8.67753 1.86013   1
   7   2  -8 13.2039 3.41464   1
  -7   2   8 9.58220 2.36107   3
   7  -2  -8 10.1713 2.33532   3
  -7  -2   8 7.17138 3.63841   1
  -7  -2   8 11.5845 3.27999   2
  -7   2   8 5.04621 2.00863   1
   7  -2  -8 11.2986 2.94679   2
   7   2  -8 6.03733 2.75651   2
  -7  -2   7 202.822 12.1671   1
  -7   2   7 194.956 11.7771   3
   7   2  -7 142.319 11.2657   3
   7   2  -7 196.953 11.9995   1
   7  -2  -7 225.310 12.2849   2
   7  -2  -7 175.431 11.7486   3
   7   2  -7 138.514 11.2667   3
  -7  -2   7 198.758 12.0573   2
   7  -2  -7 209.280 12.0008   2
   7   2  -7 179.737 11.8369   2
   7  -2  -7 153.824 11.3722   1
  -7   2   7 133.928 11.3987   1
  -7  -2   6 160.498 10.0268   1
  -7   2   6 133.107 9.58727   4
   7   2  -6 138.823 9.26481   4
   7   2  -6 138.743 9.12909   3
   7  -2  -6 178.296 10.1109   2
   7  -2  -6 143.947 9.53901   3
   7   2  -6 160.321 9.82879   1
  -7  -2   6 184.121 10.0347   2
   7  -2  -6 168.679 9.76772   2
   7  -2  -6 101.466 9.03376   1
   7   2  -6 149.594 9.58947   2
  -7   2   6 87.4194 9.05890   1
  -7  -2   5 34.9747 4.07395   1
   7   2  -5 22.3454 2.44197   4
   7  -2  -5 27.8968 3.09420   3
   7  -2  -5 28.9581 4.06669   2
   7   2  -5 27.5987 3.83075   1
  -7  -2   5 31.9985 4.11059   2
   7  -2  -5 26.2979 3.39244   2
   7   2  -5 26.4195 3.09005   2
   7  -2  -4 125.817 9.62548   2
  -7  -2   4 129.655 9.64384   1
   7  -2  -4 120.758 9.30402   3
   7   2  -4 109.410 9.33077   2
   7   2  -4 121.141 9.46542   1
   7  -2  -4 121.878 9.41605   2
   7   2  -4 110.835 9.22778   2
   7  -2  -3 12.2331 3.37878   2
   7   2  -3 12.7669 2.57892   2
   7  -2  -3 10.0590 2.49976   3
   7  -2  -3 9.74977 2.90083   2
   7   2  -3 15.1040 2.33836   2
  -7  -2   3 14.5356 3.03869   1
   7   2  -3 18.7103 3.00103   1
   7  -2  -2 38.7221 4.35007   2
   7   2  -2 32.6237 3.63131   2
   7  -2  -2 31.6514 3.56260   3
  -7  -2   2 34.1954 3.91241   1
   7  -2  -2 37.9449 3.87461   2
   7   2  -2 31.1702 3.31473   2
   7   2  -2 37.8996 3.86821   1
   7  -2  -1 143.068 10.7042   2
   7   2  -1 126.611 10.3484   2
   7  -2  -1 127.458 10.3526   3
   7  -2  -1 137.286 10.5995   2
   7   2  -1 119.677 10.2018   2
  -7  -2   1 153.640 10.5103   1
   7   2  -1 150.102 10.4846   1
   7  -2   0 61.6526 5.53383   2
   7   2   0 51.9438 4.73858   2
   7  -2   0 54.5264 4.91870   3
   7  -2   0 62.6262 5.23339   2
   7   2   0 57.7259 4.74376   1
   7   2   0 44.6084 4.55108   2
   7   2   0 58.0586 4.90418   1
   7  -2   1 26.8455 3.35341   3
   7  -2   1 15.7856 3.74656   2
   7   2   1 25.1129 2.99908   2
  -7   2  -1 25.4497 3.52079   2
   7   2   1 17.2478 2.58501   2
   7   2   1 28.7312 3.27646   1
   7   2   1 21.3555 2.75915   1
   7   2   2 5.14793 2.63066   1
   7  -2   2 1.01742 0.60488   1
   7  -2   2 1.94402 2.53464   3
   7  -2   2 2.57191 3.18218   2
   7   2   2-0.70467 2.33509   2
  -7   2  -2 2.69497 2.80665   2
   7   2   2 0.88190 2.09079   2
   7   2   2 8.12579 2.31728   1
   7  -2   2 1.27148 0.67253   1
   7  -2   3 64.1705 6.03412   2
   7   2   3 67.5670 5.40808   2
   7  -2   3 48.8621 4.85522   1
  -7   2  -3 75.8288 5.86044   2
   7   2   3 82.3214 5.77963   1
   7   2   3 74.1801 5.53056   2
   7   2   3 74.0314 5.49686   1
   7  -2   3 81.1992 5.74581   3
   7   2   4 35.4283 3.62116   2
   7  -2   4 28.5767 3.03307   1
  -7  -2  -4 40.3124 3.83231   2
   7  -2   4 27.0323 4.26970   2
   7   2   4 42.1734 3.97470   1
  -7   2  -4 34.5475 4.13237   2
  -7   2  -4 32.4093 2.88528   1
   7   2   4 42.4333 3.66977   1
   7   2   5 19.0461 3.18229   1
   7   2   5 20.2072 2.72928   2
   7  -2   5 16.5863 3.44256   2
  -7   2  -5 14.2142 3.42266   2
  -7  -2  -5 23.3222 3.18444   2
  -7   2  -5 17.9814 2.08219   1
   7  -2   5 19.4677 2.38768   1
   7   2   5 17.6795 3.04687   1
   7  -2   6 117.592 10.0522   1
  -7  -2  -6 146.808 10.4001   2
   7   2   6 145.884 10.4394   1
  -7   2  -6 121.285 9.92689   1
   7   2   6 149.945 10.3953   1
   7   2   6 140.777 10.2840   2
   7  -2   6 135.768 10.6308   2
   7   2   7 23.8180 3.60220   1
   7   2   7 27.8012 3.34691   2
   7  -2   7 35.6125 4.24069   3
  -7  -2  -7 28.0923 3.50760   2
   7   2   7 26.3584 3.69564   1
   7  -2   7 24.7955 3.19816   1
  -7   2  -7 20.2673 2.67327   1
   7   2   8 32.8724 4.14394   1
   7   2   8 29.0345 3.70164   2
  -7  -2  -8 35.4785 3.85297   2
   7  -2   8 38.2076 4.32909   3
  -7   2  -8 29.8225 3.12623   1
   7   2   8 34.5518 4.13096   1
   7  -2   8 30.2136 3.64338   1
   7  -2   9 33.6447 3.73478   1
   7   2   9 29.8275 4.21901   1
   7   2   9 25.5690 3.65610   2
  -7  -2  -9 29.5879 3.80773   2
  -7   2  -9 27.1553 3.02960   1
  -7   2 -10 0.33872 2.07623   1
   7   2  10 0.41899 2.91134   2
   7   2  10 4.47293 3.50804   1
  -7  -2 -10 0.65312 2.86041   2
   7  -2  10-0.48077 3.04323   1
  -7   2 -11-2.12422 2.22956   1
   7   2  11 4.36412 3.77876   1
  -7  -2 -11 0.95017 3.14321   2
   7  -2  11-4.57511 3.34478   1
   7   2  12 6.13954 4.61736   1
  -7  -2 -12 11.1546 3.40716   2
   7  -2  12 3.54571 3.57920   1
   7   2  13-2.49879 4.58908   1
  -7  -2 -13 4.24230 3.45844   2
   7  -2  13 3.52852 3.81265   1
   7   2  14 6.13754 4.83821   1
  -7   2 -14-1.50873 3.90027   2
  -7  -2 -14 4.87546 3.74625   2
   7  -2  14-4.65343 4.08412   1
   7   2  15 8.85676 5.16035   1
  -7   2 -15 5.45867 4.18431   2
  -7  -2 -15 8.86040 3.92867   2
   7  -2  15 0.98706 4.36210   1
  -7   2 -16 27.4991 4.93536   2
  -7  -2 -16 18.2466 4.43713   2
   7   2  16 30.5308 5.96893   1
   7  -2  16 20.9009 5.26226   1
   7  -2  17 17.1661 5.33136   1
  -7  -2 -17 15.8834 4.22532   2
   7   2  17 29.7137 6.21699   1
   7  -2  18-1.92879 5.45661   1
  -7  -2 -18 0.46805 4.10989   2
  -7  -3  17 4.56312 5.79363   1
   7  -3 -17-3.47607 4.11467   2
   7   3 -16-0.22433 4.02517   2
  -7  -3  16-0.87756 5.63778   1
   7  -3 -16 7.71051 3.86356   2
   7   3 -15 13.9903 4.00826   2
  -7  -3  15 12.2580 5.24363   1
   7  -3 -15 15.2157 3.91902   2
   7   3 -14 6.06845 3.70004   2
  -7  -3  14-3.83617 5.06292   1
   7  -3 -14 0.72372 3.63146   2
  -7  -3  13 31.2948 5.75727   1
   7  -3 -13 25.5224 4.22700   2
   7   3 -13 25.1581 3.98243   2
  -7  -3  12 3.52643 4.74984   1
   7  -3 -12 7.41490 2.89141   3
   7  -3 -12 5.97119 3.28069   2
   7   3 -12 6.64777 3.23385   2
  -7   3  11 5.35140 2.71047   3
  -7  -3  11 5.35507 4.37185   1
   7  -3 -11 5.54169 2.80639   3
   7  -3 -11 5.32356 3.16761   2
   7   3 -11 4.30568 3.11236   2
  -7   3  10 44.3067 4.29543   3
   7  -3 -10 36.9456 4.25444   3
  -7  -3  10 43.2077 5.28260   1
   7  -3 -10 47.1102 4.64114   2
   7   3 -10 39.3203 4.41857   2
  -7   3   9 3.39826 2.66358   3
  -7   3   9 0.74862 2.08538   1
   7  -3  -9-0.07495 2.65896   3
  -7  -3   9 5.03896 4.07268   1
   7  -3  -9 9.60410 3.00982   2
   7   3  -9 7.54385 2.81863   2
  -7   3   8 43.0104 4.33854   4
  -7   3   8 40.6782 4.02012   3
   7  -3  -8 39.1004 4.15389   3
  -7   3   8 25.7037 3.11955   1
  -7  -3   8 54.0180 4.51502   2
   7  -3  -8 48.6659 4.34452   2
   7   3  -8 45.5513 4.12081   2
  -7  -3   8 44.0248 5.05405   1
  -7  -3   7 86.4369 6.05879   1
  -7   3   7 74.6508 5.04543   3
   7   3  -7 57.7879 3.95590   3
   7  -3  -7 76.0128 5.12190   3
  -7  -3   7 87.6457 5.34674   2
   7  -3  -7 89.2027 5.31408   2
   7   3  -7 67.2607 4.95854   2
  -7  -3   6 19.7832 4.00219   1
  -7   3   6 12.5488 2.86288   3
   7  -3  -6 14.0681 2.99341   3
   7   3  -6 18.0006 3.97632   1
   7  -3  -6 19.6073 3.95418   2
   7   3  -6 12.7832 1.63188   3
  -7  -3   6 13.7613 3.33128   2
   7  -3  -6 17.7565 3.09735   2
   7   3  -6 11.6895 2.64904   2
  -7   3   5 36.6752 3.87394   3
  -7  -3   5 43.0180 4.85966   1
   7   3  -5 26.2988 2.95454   3
   7  -3  -5 30.8657 3.75031   3
   7  -3  -5 38.9102 4.48535   2
  -7  -3   5 40.1217 4.24587   2
   7  -3  -5 38.8322 3.97475   2
   7   3  -5 30.4983 4.31373   1
   7   3  -5 30.2451 3.49148   2
   7  -3  -4 92.1339 7.09811   2
  -7   3   4 87.0877 6.67813   3
   7  -3  -4 78.6551 6.65835   3
   7   3  -4 81.9745 6.57345   2
  -7  -3   4 91.1410 7.13156   1
   7   3  -4 58.3147 6.16548   3
   7   3  -4 83.6589 7.06209   1
   7  -3  -4 96.3668 6.84917   2
   7   3  -4 76.1857 6.41637   2
  -7  -3   3 11.0534 3.46487   1
   7  -3  -3 8.75370 3.53657   2
   7  -3  -3 10.2075 2.81542   3
   7   3  -3 5.77186 2.60837   2
   7  -3  -3 3.82457 2.83772   2
   7   3  -3 5.11059 1.94307   2
   7   3  -3 9.18697 3.12635   1
   7   3  -2 14.5068 3.53172   1
   7  -3  -2 9.97031 3.57526   2
   7  -3  -2 12.7015 2.99836   3
   7   3  -2 12.0038 2.86506   2
   7  -3  -2 14.4900 3.17690   2
   7   3  -2 9.17021 2.06494   2
  -7  -3   2 11.2426 3.43168   1
   7   3  -1 14.2589 3.51149   1
   7  -3  -1 12.1373 3.62915   2
   7  -3  -1 13.5460 2.81886   3
   7   3  -1 9.05030 2.66173   2
  -7  -3   1 10.3701 3.54585   1
   7  -3  -1 9.57325 3.30964   2
   7   3  -1 9.38547 2.06866   2
   7  -3   0 127.903 10.0684   2
   7   3   0 125.818 9.73598   2
   7  -3   0 128.926 9.85295   3
   7   3   0 126.364 9.87354   1
   7  -3   0 143.518 10.1929   2
   7   3   0 111.062 9.52727   2
   7   3   0 130.374 10.0561   1
   7  -3   1 51.5982 5.18588   2
   7   3   1 55.5482 4.61178   2
   7  -3   1 50.4623 4.85548   3
  -7   3  -1 50.5138 4.97854   2
   7   3   1 47.0869 4.70704   1
   7   3   1 45.7328 4.28290   2
   7   3   1 47.7240 5.09740   1
   7  -3   2 9.73475 3.30910   2
   7   3   2 7.49511 2.48966   2
   7  -3   2 11.5057 2.84394   3
  -7   3  -2 4.93915 3.21611   2
   7   3   2 11.2009 2.19969   2
   7   3   2 10.2652 2.88614   1
   7   3   2 12.1470 3.35273   1
   7   3   3 28.4235 3.52133   1
   7  -3   3 31.2985 3.70114   2
   7   3   3 28.2490 2.69397   2
  -7   3  -3 34.0741 3.62128   2
   7   3   3 25.6501 2.50617   2
   7   3   3 27.5939 3.23881   1
   7   3   4 6.89238 3.60612   1
   7   3   4 9.33692 2.48457   2
   7  -3   4 9.22939 3.28581   2
  -7   3  -4 6.19879 3.21451   2
   7   3   4 10.8796 2.38714   2
  -7   3  -4 4.72005 1.06873   1
   7  -3   4 5.20312 1.35654   1
   7   3   4 7.85801 3.06061   1
   7   3   5 10.6285 2.56859   2
   7  -3   5 14.5105 3.41722   3
  -7   3  -5 5.53210 3.40606   2
   7  -3   5 7.84431 2.13080   1
   7   3   5 8.54602 3.13452   1
  -7   3  -5 8.03881 1.49581   1
  -7  -3  -6 38.7791 3.83042   2
   7  -3   6 42.1890 4.58407   3
   7  -3   6 30.4126 3.59201   1
  -7   3  -6 32.9636 4.32853   2
  -7   3  -6 33.3939 2.97649   1
   7   3   6 33.3755 3.47301   2
   7   3   6 27.4217 4.12336   1
  -7   3  -7 88.4947 7.45404   2
  -7  -3  -7 94.3091 7.08076   2
   7  -3   7 108.505 7.70288   3
   7  -3   7 74.3636 6.92119   1
   7   3   7 93.8861 7.39670   1
  -7   3  -7 75.5972 6.62206   1
   7   3   7 83.6097 6.83999   2
   7   3   8 10.4924 3.58422   1
  -7   3  -8 6.18973 1.99883   1
   7   3   8 8.98306 2.38886   2
   7  -3   8 9.43435 2.78313   1
   7  -3   8 11.2926 3.74852   3
  -7   3  -8 12.0823 3.61744   2
  -7  -3  -8 10.8131 2.89180   2
   7   3   9 29.1688 4.12653   1
   7  -3   9 26.2926 3.78260   1
   7  -3   9 36.9464 4.59708   3
  -7   3  -9 21.3718 4.20954   2
  -7  -3  -9 26.8035 3.69090   2
   7   3   9 27.3626 3.44894   2
   7   3  10 22.5290 3.67702   2
   7   3  10 38.6151 4.60297   1
   7  -3  10 27.2141 4.15479   1
   7  -3  10 30.6391 4.69309   3
  -7   3 -10 36.6181 4.75132   2
  -7  -3 -10 30.9390 3.84743   2
   7   3  11 1.52175 4.09508   1
   7  -3  11 8.69892 3.57350   1
   7  -3  11 5.91765 3.95857   3
  -7   3 -11 10.2774 3.95848   2
  -7  -3 -11 1.56262 3.11096   2
   7  -3  12 4.40491 3.77081   1
   7   3  12 8.42400 4.41332   1
   7  -3  12 3.83281 4.10969   3
  -7   3 -12 5.57376 4.12051   2
  -7  -3 -12 0.63980 3.07180   2
   7  -3  13 9.65528 4.10529   1
   7   3  13 7.18301 4.91662   1
   7  -3  13 10.9001 4.23084   3
  -7   3 -13 8.01868 4.11966   2
  -7  -3 -13 7.98718 3.41565   2
   7  -3  14 3.15925 4.35438   1
   7   3  14 8.98682 5.52050   1
   7  -3  14 12.4904 4.60831   3
  -7   3 -14 4.43806 4.18704   2
  -7  -3 -14 2.45900 3.58182   2
   7  -3  15 2.85630 4.82173   1
   7   3  15 1.77433 5.34226   1
   7  -3  15 7.28938 4.72049   3
  -7   3 -15 9.05706 4.42073   2
   7  -3  16-1.23857 4.99104   1
   7  -3  16 6.96148 4.76209   3
   7  -3  17 6.93189 5.38976   1
   7  -3  17 3.95928 5.30945   3
   7  -4 -17 2.59492 4.14720   2
   7   4 -16 22.2110 4.47709   2
   7  -4 -16 23.8596 4.47776   2
   7   4 -15 11.5294 4.04696   2
  -7  -4  15 11.6484 5.70670   1
   7  -4 -15 14.2178 4.02927   2
   7   4 -14 0.80651 3.83872   2
  -7  -4  14-0.14210 5.31712   1
   7  -4 -14 3.12349 3.67252   2
   7   4 -13 11.0656 3.73022   2
  -7  -4  13 9.62508 4.88381   1
   7  -4 -13 6.68344 3.60503   2
   7   4 -12 5.36401 3.46920   2
   7  -4 -12 6.66521 3.36292   3
  -7  -4  12 13.8740 5.00745   1
   7  -4 -12 10.6465 3.40546   2
   7   4 -11 5.81546 3.30533   2
   7  -4 -11-2.03465 3.17202   3
  -7  -4  11 2.31736 4.88818   1
   7  -4 -11 3.24149 3.36646   2
  -7   4  10 2.99428 3.76524   4
   7  -4 -10-6.66859 3.16698   3
  -7  -4  10 2.67006 4.54080   1
   7  -4 -10-1.07682 3.35055   2
   7   4 -10 2.06313 2.92682   2
  -7   4   9 1.61592 3.50739   4
   7  -4  -9-0.17962 3.05569   3
   7  -4  -9 4.41638 3.17337   2
  -7  -4   9 0.75239 4.75303   1
   7   4  -9 4.48898 2.85625   2
  -7  -4   8 48.6742 5.83298   1
   7  -4  -8 43.4450 4.85253   3
  -7  -4   8 50.0990 4.66742   2
   7  -4  -8 47.1932 4.68862   2
   7   4  -8 37.8302 4.43788   2
  -7  -4   7 52.3772 5.44270   1
   7  -4  -7 26.1670 4.10334   3
  -7  -4   7 41.8167 4.13510   2
   7  -4  -7 37.7114 4.20820   2
   7   4  -7 28.6757 3.64782   2
  -7  -4   6 6.06735 4.39448   1
   7  -4  -6 4.43523 3.02330   3
  -7  -4   6 6.19382 3.34215   2
   7  -4  -6 3.29748 2.90866   2
   7   4  -6 4.16887 2.52994   2
   7  -4  -5 6.43360 3.13158   3
  -7  -4   5 1.56795 4.15745   1
   7  -4  -5 3.31811 2.84549   2
   7   4  -5 6.71177 2.44786   2
  -7  -4   4 7.71587 3.99064   1
   7  -4  -4 6.62624 3.63319   2
   7  -4  -4 2.86229 3.23604   3
   7   4  -4 3.09221 1.72320   3
   7   4  -4 1.01961 2.97177   2
   7  -4  -4 8.39406 3.04475   2
   7   4  -4 3.43424 2.24484   2
   7  -4  -3 21.3772 3.91198   2
   7  -4  -3 15.0921 3.35568   3
   7   4  -3 16.5208 3.02908   2
   7   4  -3 11.4007 2.13194   3
  -7  -4   3 17.2414 4.25817   1
   7  -4  -3 17.0181 3.40373   2
   7   4  -3 14.6348 2.29851   2
   7   4  -2 38.5056 4.07403   2
   7  -4  -2 37.0852 4.41810   3
   7  -4  -2 45.1439 4.92280   2
   7   4  -2 29.6973 3.65897   3
   7  -4  -2 43.5845 4.49252   2
  -7  -4   2 53.7997 5.04021   1
   7   4  -2 36.6485 3.56245   2
   7  -4  -1 17.0303 3.71139   2
  -7  -4   1 21.3897 4.05613   1
   7   4  -1 15.8194 2.81510   2
   7  -4  -1 16.4065 3.43021   3
   7   4  -1 9.40143 2.46191   3
   7  -4  -1 14.2205 3.66147   2
   7   4  -1 16.6859 2.18900   2
   7  -4   0 5.49166 3.43170   2
   7   4   0 13.5002 2.71824   2
   7  -4   0 7.72967 3.20989   3
   7   4   0 7.06360 2.42455   3
   7  -4   0 11.1648 3.97388   2
   7   4   0 6.67086 3.26863   1
   7   4   0 6.81900 1.88692   2
   7  -4   1 4.40189 3.31375   2
   7   4   1 2.59350 2.22286   2
   7  -4   1-0.20760 3.28754   3
  -7   4  -1-6.59489 3.28725   2
   7   4   1 1.21573 2.49274   3
   7   4   1 1.99080 3.10553   1
   7   4   1 3.13248 1.84743   2
   7   4   2 33.1685 3.24228   2
  -7   4  -2 25.1234 4.16572   2
   7   4   2 28.1389 2.97865   2
   7   4   2 31.3502 4.11413   1
   7   4   3 29.4943 3.17864   2
  -7   4  -3 34.8057 4.40000   2
   7   4   3 28.1914 3.03401   2
   7   4   3 33.5591 4.12780   1
   7   4   4 12.6612 2.35952   2
   7  -4   4 9.64898 3.54094   3
  -7   4  -4 7.37635 3.69476   2
   7   4   4 7.63377 2.06767   2
   7   4   4 8.63027 3.65665   1
   7  -4   4 4.46731 1.48722   1
  -7   4  -5 46.2674 4.58630   2
   7  -4   5 23.7046 3.25146   1
   7  -4   5 42.4283 4.66622   3
   7   4   5 37.0087 3.47737   2
   7   4   5 47.6644 4.56260   1
  -7   4  -6 51.5159 5.44031   2
   7  -4   6 62.9843 5.54679   3
   7   4   6 49.1593 4.43790   2
   7   4   6 55.3300 5.33128   1
   7  -4   6 39.4038 4.53134   1
   7  -4   7 8.98405 3.70162   3
  -7   4  -7 16.6480 3.85633   2
   7   4   7 12.8293 2.80108   2
   7  -4   7 7.63046 2.71213   1
   7   4   7 17.2340 3.66222   1
   7   4   8 43.5873 5.29575   1
  -7   4  -8 56.3107 5.41107   2
   7  -4   8 57.1008 5.60696   3
   7  -4   8 34.0627 4.72103   1
   7   4   9 23.7488 4.29248   1
   7  -4   9 18.8549 4.28102   3
  -7   4  -9 15.6302 4.19719   2
   7  -4   9 7.23462 3.48646   1
   7   4  10 22.5708 4.42018   1
   7  -4  10 24.9438 4.75562   3
  -7   4 -10 22.7786 4.60793   2
   7  -4  10 23.1946 4.17183   1
   7   4  11 4.63085 4.39628   1
   7  -4  11 0.13299 4.30473   3
  -7   4 -11 4.42898 4.19202   2
   7  -4  11-2.58083 3.93736   1
   7   4  12 14.1000 4.89555   1
   7  -4  12 14.8041 4.74416   3
  -7   4 -12 11.7304 4.58026   2
   7   4  13 11.5210 4.96541   1
   7  -4  13 17.6376 4.97874   3
  -7   4 -13 7.95565 4.55446   2
   7  -4  14-1.46414 4.86112   3
  -7   4 -14 1.74371 4.63820   2
   7  -4  15 3.31250 5.06822   3
   7   5 -15 6.28149 3.94783   2
   7   5 -14 16.9809 3.98479   2
   7   5 -13 5.32999 3.44762   2
   7   5 -12 2.05970 3.44775   2
   7  -5 -12 2.86235 3.80485   3
  -7  -5  12-2.05752 5.62822   1
   7  -5 -12 1.98180 3.62900   2
   7   5 -11-0.82463 3.28120   2
  -7   5  11 2.12052 4.12859   4
   7  -5 -11 2.62501 3.64784   3
   7  -5 -11 1.36256 3.40226   2
  -7  -5  11 8.01966 5.49178   1
   7   5 -10 0.31190 3.04502   2
  -7  -5  10-9.81873 5.44584   1
  -7   5  10 2.19443 4.33805   4
   7  -5 -10 2.61383 3.53420   3
   7  -5 -10 2.22640 3.33649   2
   7   5  -9 0.80935 3.17852   2
  -7  -5   9 7.80254 5.33937   1
   7  -5  -9-1.57440 3.48633   3
   7  -5  -9 4.11610 3.21023   2
   7   5  -8 33.3601 4.15079   2
  -7  -5   8 41.6209 6.08583   1
   7  -5  -8 39.4804 4.81782   3
   7  -5  -8 38.5607 4.32556   2
   7   5  -7 15.1054 3.05650   2
  -7  -5   7 24.7438 5.38942   1
   7  -5  -7 11.0169 3.81401   3
   7  -5  -7 22.7520 3.61606   2
   7   5  -6 8.08664 2.55781   2
   7  -5  -6 6.35853 3.81801   3
  -7  -5   6 6.74469 4.79443   1
   7  -5  -6 10.0211 3.21500   2
  -7  -5   5 7.14229 4.39618   1
   7  -5  -5 2.75560 3.57212   3
   7  -5  -5 0.43129 3.29437   2
   7   5  -5 3.23815 2.32882   2
  -7  -5   4 1.34831 4.50546   1
   7  -5  -4 6.47835 3.55683   3
   7  -5  -4 3.76606 3.15520   2
   7   5  -4 2.00023 2.19116   2
  -7  -5   3 4.79213 4.58370   1
   7  -5  -3 2.79421 3.57961   3
   7  -5  -3-0.08959 3.53965   2
   7   5  -3 1.05635 2.05287   2
  -7  -5   2 14.1250 4.55545   1
   7  -5  -2 7.46480 3.82129   3
   7   5  -2 14.3754 2.20204   2
   7  -5  -1 17.7637 3.90765   3
   7   5  -1 11.4003 2.92609   3
   7  -5  -1 17.1799 3.88042   2
   7   5   0 30.1463 4.20589   3
   7   5   0 44.8736 4.98971   1
   7  -5   0 44.6313 4.96067   2
   7  -5   1-3.79041 4.12292   2
   7   5   1 5.00031 3.43661   1
  -7   5  -2 3.09535 3.60705   2
   7   5   2 4.87971 3.61170   1
   7  -5   3 11.2831 3.96949   3
  -7   5  -3 8.15432 3.82136   2
   7   5   3 10.7545 3.82485   1
   7  -5   4 10.9908 4.04877   3
  -7   5  -4 16.5608 3.90414   2
   7   5   4 7.95788 3.92755   1
   7  -5   5-1.50724 4.04466   3
  -7   5  -5 0.34140 3.83011   2
   7   5   5 3.13176 3.70849   1
   7  -5   6 1.80791 4.20274   3
  -7   5  -6-2.41868 3.98464   2
   7   5   6 5.36835 3.96092   1
   7  -5   7 1.29801 4.14987   3
  -7   5  -7 9.59981 3.91910   2
   7   5   7 1.96027 4.17615   1
   7   5   8 22.4843 4.44914   1
   7  -5   8 18.1171 4.57189   3
  -7   5  -8 19.0901 4.47133   2
   7   5   9 5.54362 4.22560   1
   7  -5   9-0.78483 4.13356   3
  -7   5  -9 2.01693 4.22137   2
   7   5  10 5.62742 4.40543   1
   7  -5  10 1.84675 4.24931   3
  -7   5 -10 9.59978 4.38234   2
   7   5  11 5.81663 4.61919   1
   7  -5  11 1.21876 4.48390   3
  -7   5 -11-3.93049 4.43503   2
   7  -5  12 11.6352 4.58077   3
  -7   5 -12 4.40893 4.71588   2
   7  -5  13 9.80967 4.88258   3
   7  -6 -10 3.33935 4.18008   3
   7  -6  -9 2.78339 4.02954   3
   7  -6  -8 28.1649 4.88078   3
  -7  -6   8 43.1573 6.36714   1
   7  -6  -7 11.9459 4.08683   3
  -7  -6   7 11.8105 5.61591   1
  -7  -6   6 15.8425 5.41276   1
   7  -6  -6 11.3157 4.16026   3
   7  -6  -5 4.74165 4.08189   3
  -7  -6   5 6.37778 5.01103   1
  -7  -6   4 6.19945 5.11923   1
   7  -6  -4 7.32284 4.20447   3
   7  -6  -4-4.84300 3.52580   2
  -7  -6   3 6.84969 4.98363   1
   7  -6  -3 12.7123 4.18782   3
   7  -6  -3 7.35512 3.59582   2
  -7  -6   2 15.0867 5.09518   1
   7  -6  -2 7.01858 4.06180   3
   7  -6  -2 16.3927 3.96221   2
   7  -6  -1 11.3750 3.99068   2
   7  -6   0-1.90031 3.83569   2
   7  -6   1 15.7828 4.64011   3
   7  -6   1 21.3483 4.49049   2
   7  -6   2 28.4310 4.95801   3
   7  -6   2 33.4837 5.26483   2
   7  -6   3 3.88252 4.32649   3
  -7   6  -3 1.74259 3.71487   2
   7  -6   4 27.0096 5.02224   3
  -7   6  -4 29.2007 4.75066   2
   7  -6   5-3.70082 4.36082   3
  -7   6  -5 5.76791 3.98449   2
   7  -6   6 15.7871 4.72043   3
  -7   6  -6 10.1690 4.37339   2
   7  -6   7 2.21236 4.34609   3
  -7   6  -7 4.48693 4.34830   2
   7  -6   8 9.90676 4.56376   3
  -7   6  -8 5.50190 4.45190   2
   7  -6   9 1.59045 4.75183   3
  -7   6  -9-3.43674 4.71105   2
  -7   6 -10 14.8233 4.81949   2
  -8   0  17 8.56652 4.61291   1
   8   0 -17 11.9434 4.12965   2
  -8   0  16 4.53646 4.34838   1
   8   0 -16 1.52828 3.78060   2
  -8   0  15-2.78640 4.25453   1
  -8   0  14 10.2551 3.81387   1
  -8   0  13-1.75830 3.53725   1
  -8   0  12-1.97810 3.39733   1
   8   0 -12 0.55478 3.40315   1
  -8   0  11-0.37059 3.37672   1
   8   0 -11 0.87685 3.45964   1
  -8   0  10 12.5052 3.38706   1
   8   0 -10 11.3940 1.77151   3
   8   0 -10 16.0289 3.21518   1
   8   0  -9 347.653 24.8380   3
  -8   0   9 313.438 25.1357   1
   8   0  -9 330.945 25.0142   1
   8   0  -8 0.30112 1.72266   3
  -8   0   8 1.03322 2.57466   1
   8   0  -8 0.32790 2.50926   1
   8   0  -7 6.44356 1.89645   3
  -8   0   7 5.77139 2.65571   1
   8   0  -7 7.02978 2.87754   2
   8   0  -7 8.59389 2.51267   1
   8   0  -6 69.3150 5.86028   1
  -8   0   6 67.9813 6.07333   1
   8   0  -6 71.6507 5.69267   3
   8   0  -6 82.0467 6.59548   2
   8   0  -6 71.8926 6.17388   2
   8   0  -5 14.7093 2.26320   1
  -8   0   5 9.06271 2.70691   1
   8   0  -5 12.1943 2.02261   3
   8   0  -5 18.6013 3.59326   2
   8   0  -5 11.9480 2.78728   2
  -8   0   4-0.82790 2.15750   1
   8   0  -4 1.95020 1.86389   1
   8   0  -4-0.44321 1.96688   3
   8   0  -4 5.23790 3.37873   2
   8   0  -4 1.93607 2.58035   2
   8   0  -3 122.664 9.24145   2
   8   0  -3 113.763 8.64730   3
   8   0  -3 123.528 8.67095   1
   8   0  -3 112.285 8.94314   2
  -8   0   3 98.7393 8.62224   1
   8   0  -2 549.554 39.9868   2
   8   0  -2 558.201 39.7679   3
   8   0  -2 580.935 39.6813   1
   8   0  -2 532.965 39.6403   1
   8   0  -2 466.429 39.8402   2
   8   0  -1-1.80107 3.09862   2
   8   0  -1 4.86474 2.56655   2
   8   0  -1-1.94290 1.80622   1
   8   0  -1 1.86662 1.93223   1
   8   0   0 34.9284 4.43557   2
   8   0   0 35.2029 4.19165   2
   8   0   0 39.5691 3.48467   1
   8   0   0 42.9123 3.75498   1
   8   0   1 57.4871 5.31187   2
   8   0   1 43.1869 4.98540   2
   8   0   1 52.3847 4.28086   1
   8   0   1 50.9930 4.43415   1
   8   0   2 9.94291 2.10311   1
   8   0   2 10.4937 3.37702   2
  -8   0  -2 15.4436 3.14832   2
   8   0   2 6.13776 2.51786   1
   8   0   3 13.6140 2.23185   1
   8   0   3 11.0787 3.44135   2
   8   0   3 11.7859 2.73125   1
  -8   0  -3 16.4851 3.22835   2
   8   0   4 140.077 12.3174   2
  -8   0  -4 175.370 12.3382   2
   8   0   4 155.047 11.9914   1
   8   0   4 154.404 11.8633   1
   8   0   5 19.8334 2.90432   1
   8   0   5 20.4485 2.74427   1
   8   0   5 18.6666 3.77506   2
  -8   0  -5 25.2473 3.76051   2
   8   0   6 25.4730 4.34702   2
  -8   0  -6 41.2310 4.39811   2
   8   0   6 36.0765 3.74994   1
   8   0   6 31.4758 3.72831   1
   8   0   7 1.36310 2.97089   1
  -8   0  -7 2.36883 3.18601   2
  -8   0  -7 1.10702 2.30534   1
  -8   0  -8 153.865 10.8701   2
  -8   0  -8 125.290 10.3377   1
   8   0   8 129.625 10.5935   1
   8   0   9 0.36290 3.32321   1
  -8   0  -9 3.19028 3.51547   2
  -8   0  -9-0.62471 2.33777   1
  -8   0 -10 41.3444 4.69980   2
   8   0  10 34.9475 4.71212   1
  -8   0 -10 28.6830 3.80463   1
  -8   0 -11 1.85254 3.75462   2
   8   0  11 7.13262 4.03477   1
  -8   0 -12 3.88930 3.83367   2
   8   0  12 5.72641 4.18875   1
  -8   0 -13 19.0384 4.28960   2
   8   0  13 12.6314 4.74851   1
  -8   0 -14 0.99302 4.03092   2
   8   0  14 8.51041 4.89009   1
  -8   0 -15 1.52640 4.12468   2
   8   0  15 11.9275 5.05262   1
  -8   0 -16-1.83053 4.39662   2
   8   0  16 0.24134 5.13212   1
  -8   0 -17 5.70753 4.63782   2
   8   0  17-3.27996 5.20252   1
  -8  -1  18 35.8922 5.88028   1
  -8  -1  17 0.58398 4.65459   1
   8  -1 -17 7.29619 4.22640   2
  -8  -1  16 6.73768 4.52405   1
   8  -1 -16 3.67544 3.80867   2
   8   1 -16 0.46853 4.05055   2
  -8  -1  15 32.4602 5.24378   1
   8  -1 -15 41.4461 4.98736   2
   8   1 -15 34.7222 4.82366   2
  -8  -1  14 5.24196 4.27358   1
  -8   1  14 4.01227 3.69319   1
   8  -1 -14 11.2340 3.94674   2
   8   1 -14 11.3646 3.61575   2
  -8  -1  13 0.59123 4.11575   1
  -8   1  13 3.28287 3.47570   1
   8  -1 -13 2.87276 3.47741   2
   8   1 -13 0.83635 3.27712   2
  -8  -1  12-1.04292 4.02345   1
   8  -1 -12-0.88578 1.92779   3
   8  -1 -12-1.13494 3.39844   2
  -8   1  12-1.06182 3.08374   1
   8   1 -12 0.20466 3.29324   2
  -8  -1  11 5.79099 4.15792   1
   8  -1 -11 1.05818 1.93730   3
   8   1 -11 0.13546 3.28417   1
   8  -1 -11 8.76499 3.31934   2
   8   1 -11 5.82919 3.26533   2
  -8   1  11 6.69662 2.90654   1
  -8   1  10 21.4651 3.47845   1
  -8  -1  10 26.2016 4.23736   1
   8  -1 -10 25.5442 2.98233   3
   8   1 -10 27.9315 4.00596   1
   8  -1 -10 30.4456 3.54374   1
   8  -1 -10 30.6552 3.83333   2
   8   1 -10 26.9926 3.79003   2
  -8   1   9 3.28997 2.68251   1
   8  -1  -9 0.23733 2.54638   1
  -8  -1   9 1.35604 3.08122   1
   8  -1  -9 5.03076 2.05417   3
   8   1  -9 1.29218 0.84891   3
   8  -1  -9-0.62255 3.01642   2
   8   1  -9-0.44192 2.86846   2
   8   1  -9 3.00784 3.08697   1
   8   1  -8 20.5730 1.99646   3
  -8   1   8 21.1960 2.92887   1
   8  -1  -8 18.6240 2.90295   1
   8  -1  -8 22.0085 2.70984   3
  -8  -1   8 20.7147 3.44803   1
   8  -1  -8 21.3984 3.32171   2
   8   1  -8 20.2483 3.27142   2
   8   1  -8 21.3814 3.47212   1
   8   1  -7 7.64425 2.90630   1
   8   1  -7 11.0926 1.52024   3
   8  -1  -7 7.79239 2.28027   1
   8  -1  -7 8.10133 2.27535   3
  -8   1   7 6.96319 2.28618   1
   8  -1  -7 11.2381 2.87121   2
  -8  -1   7 7.46239 3.28551   1
   8   1  -7 11.9069 2.79452   2
  -8   1   6 3.95886 2.06121   1
  -8  -1   6 3.61817 3.29562   1
   8   1  -6 0.39837 2.62783   1
   8   1  -6 3.64914 1.48926   3
   8  -1  -6 1.18910 2.10033   3
   8  -1  -6-1.24335 2.06632   1
   8   1  -6 1.47254 3.41874   2
   8  -1  -6 1.83779 2.67761   2
   8   1  -6 1.24257 2.57333   2
  -8  -1   5 43.7904 4.32944   1
   8   1  -5 35.7059 3.31844   3
   8  -1  -5 41.9057 3.65987   3
   8   1  -5 41.4737 4.57829   2
   8   1  -5 36.6120 3.89794   1
  -8   1   5 32.1367 3.28996   1
   8  -1  -5 40.7039 4.60373   2
   8  -1  -5 36.5823 4.01576   2
   8   1  -5 37.8820 3.97144   2
   8  -1  -5 33.1899 3.22444   1
   8   1  -4 0.13691 1.81112   3
   8  -1  -4 4.36090 2.21302   3
   8   1  -4-1.81695 2.41419   1
   8   1  -4 0.58254 3.20799   2
   8  -1  -4-0.17518 1.34413   1
   8   1  -4 2.30117 2.40374   2
  -8  -1   4-1.35138 2.70924   1
   8  -1  -3 28.0372 2.38590   1
  -8   1   3 26.2719 2.91401   4
   8  -1  -3 32.2320 3.24758   3
   8   1  -3 31.2561 4.10413   2
   8   1  -3 34.6560 3.14334   1
  -8  -1   3 35.0089 3.51270   1
   8  -1  -3 23.7751 2.39837   1
   8   1  -3 32.5940 3.36605   2
   8  -1  -2 20.1432 1.80279   1
  -8  -1   2 20.4648 3.20512   1
   8  -1  -2 21.4862 2.90579   3
   8   1  -2 19.5461 3.60638   2
   8  -1  -2 17.0554 1.77462   1
   8   1  -2 19.9257 2.99619   2
   8   1  -2 20.1351 2.72985   1
   8  -1  -1 4.28373 1.13685   1
   8   1  -1 7.74756 2.67183   1
   8  -1  -1 7.92467 1.32146   1
   8  -1  -1 8.84400 2.44515   3
   8   1  -1 4.59533 3.16650   2
   8   1  -1 12.2506 2.68444   2
   8   1  -1 7.92712 2.21781   1
   8   1   0 49.0249 4.84698   2
   8  -1   0 50.4141 4.54778   3
   8  -1   0 47.8059 3.80489   1
   8   1   0 40.2623 4.50274   2
   8   1   0 46.1399 4.25266   1
   8  -1   0 47.2214 3.71768   1
   8   1   0 51.4237 4.56034   1
   8  -1   1 3.42738 1.70722   1
   8  -1   1 3.47787 1.64802   1
   8  -1   1 4.45268 2.56015   3
   8   1   1 7.47079 3.26345   2
   8   1   1 4.45188 2.68793   1
   8   1   1 4.46757 2.58490   2
   8   1   1 2.65250 2.27218   1
   8  -1   2 16.1296 2.16962   1
   8  -1   2 16.1522 3.06437   3
   8   1   2 14.9708 3.38671   2
  -8   1  -2 17.0216 3.37968   2
   8   1   2 20.0072 3.23436   2
   8  -1   2 13.4158 2.27441   1
   8   1   2 14.7221 2.53905   1
   8   1   2 16.6746 3.10904   1
   8   1   3 9.10567 2.94140   1
   8  -1   3 4.40063 1.84998   1
   8  -1   3-0.27026 3.19240   2
   8   1   3 4.65991 3.19964   2
   8  -1   3 5.62011 2.08729   1
  -8   1  -3 5.54044 3.07879   2
  -8  -1  -3 8.50841 3.01944   2
   8   1   3 5.80136 2.06238   1
   8  -1   4 51.7426 5.84603   2
   8   1   4 61.0623 5.61761   2
  -8   1  -4 64.5175 5.72780   2
  -8  -1  -4 70.1914 5.64878   2
   8   1   4 67.4299 5.38384   1
   8  -1   4 52.8779 4.88006   1
   8   1   4 57.7669 5.07933   1
   8  -1   4 57.3690 4.91431   1
   8   1   5 20.8211 2.73395   1
   8   1   5 23.1527 3.03241   1
   8   1   5 18.1024 3.54376   2
   8  -1   5 16.3410 2.86538   1
  -8   1  -5 24.2418 3.68424   2
  -8  -1  -5 21.8180 3.61008   2
   8   1   6 6.17017 2.60978   1
   8   1   6 3.58694 2.45134   1
   8   1   6 3.28834 3.14385   2
   8  -1   6 3.36570 2.54431   1
  -8   1  -6-0.29706 3.30112   2
  -8  -1  -6 4.18026 3.13816   2
  -8   1  -6 3.07392 1.87275   1
  -8   1  -7 116.008 7.46331   2
  -8  -1  -7 103.753 7.15099   2
  -8   1  -7 88.6210 6.49326   1
   8   1   7 100.246 6.99057   1
   8   1   7 98.9246 6.86244   1
   8  -1   7 92.0424 6.87357   1
   8   1   7 87.9441 7.24759   2
  -8   1  -8 47.9680 5.09500   2
  -8  -1  -8 46.9386 4.73458   2
   8  -1   8 36.2391 4.57612   1
  -8   1  -8 39.5997 3.93137   1
   8   1   8 44.8828 4.65815   1
  -8  -1  -9 38.3489 4.37565   2
   8   1   9 38.6351 4.72318   1
  -8   1  -9 38.6608 4.61448   2
   8  -1   9 27.7887 4.29311   1
  -8   1  -9 29.4794 3.49000   1
   8   1  10 7.12327 4.01975   1
  -8   1 -10 10.8836 3.83920   2
  -8  -1 -10 6.56313 3.39483   2
   8  -1  10 11.9904 3.63646   1
  -8   1 -10 6.65178 2.45499   1
   8   1  11 8.08151 4.29417   1
  -8   1 -11 5.60039 3.73807   2
  -8  -1 -11 3.73314 3.54469   2
   8  -1  11 2.73705 3.58077   1
  -8   1 -11 4.09502 2.42078   1
   8   1  12 25.0682 4.88957   1
  -8   1 -12 23.1182 4.52748   2
  -8  -1 -12 26.8423 4.17637   2
   8  -1  12 21.3288 4.22712   1
   8   1  13-2.63925 4.72615   1
  -8   1 -13-4.82809 4.05299   2
  -8  -1 -13 1.43946 3.89930   2
   8  -1  13-4.50960 4.02877   1
  -8   1 -14 35.6109 5.22712   2
  -8  -1 -14 36.0543 4.92590   2
   8   1  14 40.3361 5.83216   1
   8  -1  14 26.4394 5.11250   1
  -8   1 -15 0.13340 4.23193   2
  -8  -1 -15 13.0596 4.23036   2
   8   1  15 6.10590 5.23488   1
   8  -1  15 1.32296 4.52000   1
  -8   1 -16 17.3096 4.71117   2
  -8  -1 -16 19.2095 4.70315   2
   8   1  16 16.3493 5.77278   1
   8  -1  16 5.75752 5.16880   1
  -8  -1 -17 0.51825 4.28503   2
   8   1  17 1.23197 6.08294   1
   8  -1  17 4.34353 5.21359   1
  -8  -2  17 12.2753 5.47523   1
  -8  -2  16 34.1308 5.66387   1
   8  -2 -16 23.8925 4.55206   2
   8   2 -16 27.6517 4.63651   2
  -8  -2  15 14.1342 5.09634   1
   8  -2 -15 9.49728 3.88565   2
   8   2 -15 5.85405 3.81661   2
  -8  -2  14 11.3709 4.79476   1
   8  -2 -14 9.14447 4.00170   2
   8   2 -14 15.2742 3.92748   2
  -8  -2  13 8.22935 4.92274   1
   8  -2 -13-1.26300 3.44442   2
   8   2 -13 0.20133 3.28295   2
  -8  -2  12-6.47069 4.49027   1
   8  -2 -12-0.12226 2.38443   3
   8  -2 -12 2.09450 3.44037   2
   8   2 -12 1.87135 3.21636   2
  -8  -2  11 23.4309 4.51939   1
   8  -2 -11 20.1532 2.94231   3
   8  -2 -11 25.8893 3.91015   2
   8   2 -11 15.7084 3.80533   2
   8  -2 -10 24.5481 3.17325   3
  -8  -2  10 26.2852 4.46200   1
   8  -2 -10 28.1973 3.88452   2
   8   2 -10 22.3437 3.68934   2
  -8   2   9 22.1421 3.12062   1
   8  -2  -9 29.3043 3.46570   3
  -8  -2   9 31.0473 4.68078   1
   8  -2  -9 33.1224 4.00836   2
   8   2  -9 32.6257 3.82957   2
   8   2  -8 11.4745 3.54061   1
  -8   2   8 10.7843 1.91822   1
   8   2  -8 8.00262 0.79257   3
   8  -2  -8 6.61473 2.52218   3
   8  -2  -8 9.55582 3.17367   2
  -8  -2   8 6.36005 3.65089   1
   8   2  -8 14.8265 2.90998   2
  -8   2   7 23.2608 2.57589   1
   8   2  -7 32.8210 2.51809   3
   8   2  -7 40.9260 4.14765   1
   8  -2  -7 36.1026 3.51228   3
   8  -2  -7 25.2720 2.46343   1
   8   2  -7 36.0182 3.76482   2
   8  -2  -7 34.7495 3.96908   2
  -8  -2   7 37.7866 4.78914   1
  -8  -2   6 19.1970 4.02689   1
  -8   2   6 18.3892 2.74684   4
   8   2  -6 20.0141 1.86450   3
   8   2  -6 20.1103 3.59966   1
   8  -2  -6 16.1880 2.78703   3
   8  -2  -6 24.0822 3.26594   2
   8   2  -6 18.1270 2.82639   2
   8  -2  -5 27.8484 3.30357   3
  -8  -2   5 27.4661 4.20784   1
   8   2  -5 29.4911 4.13858   1
   8   2  -5 28.2365 3.69974   2
   8  -2  -5 29.6240 3.58277   2
   8   2  -5 25.5511 3.46566   2
   8   2  -4 89.0070 7.30437   2
   8  -2  -4 84.6497 7.26939   3
  -8  -2   4 93.1044 7.54645   1
   8   2  -4 83.1975 7.35245   1
   8  -2  -4 97.2860 7.46238   2
   8   2  -4 83.0478 7.21708   2
   8  -2  -3 11.5093 2.69416   3
   8  -2  -3 12.8339 3.79906   2
   8   2  -3 10.8084 2.93268   2
  -8  -2   3 10.4208 3.23459   1
   8  -2  -3 9.99563 3.02875   2
   8   2  -3 8.30376 2.52098   2
   8   2  -3 9.70289 3.03777   1
   8  -2  -2 42.1875 5.17124   2
   8   2  -2 48.4074 4.59197   2
   8  -2  -2 45.6317 4.59895   3
   8  -2  -2 50.2379 4.89577   2
   8   2  -2 46.6674 4.47344   2
   8   2  -2 50.9465 4.71528   1
  -8  -2   2 55.2513 4.95463   1
   8  -2  -1 178.085 13.0432   2
   8   2  -1 151.128 12.6246   2
   8  -2  -1 162.492 12.6948   3
   8  -2  -1 169.643 12.8426   2
   8   2  -1 158.879 12.5389   2
   8   2  -1 177.956 12.6506   1
   8   2   0 1.52677 2.78308   1
   8  -2   0 7.55358 2.92575   3
   8  -2   0 1.27250 3.60705   2
   8   2   0 5.90128 2.63653   2
   8  -2   0 2.99907 3.44121   2
   8   2   0 4.73456 2.04731   2
   8   2   0 2.29700 2.07683   1
   8  -2   1 10.5251 3.13504   3
   8  -2   1 4.60027 3.46777   2
   8   2   1 7.60901 2.82627   2
   8   2   1 8.45318 2.59826   1
   8   2   1 7.57250 2.11062   2
   8   2   1 8.08572 2.30983   1
   8  -2   2 13.8555 3.70670   2
   8  -2   2 26.5139 3.54659   3
   8   2   2 17.2007 3.10234   2
  -8   2  -2 23.6741 3.79587   2
   8   2   2 18.1809 2.72466   2
   8   2   2 23.3231 3.28748   1
   8   2   2 18.7345 2.85116   1
   8  -2   3 1.85891 1.14022   1
   8   2   3 2.03804 2.74588   1
   8  -2   3 1.94003 1.23409   1
   8   2   3 5.54780 2.49872   2
   8  -2   3-1.10296 2.91382   3
  -8   2  -3 2.98822 3.04718   2
   8   2   3 0.31343 2.33414   2
   8   2   3 5.01037 2.44920   1
   8   2   4 80.7851 6.36361   2
   8  -2   4 63.1947 5.78500   1
   8   2   4 100.191 6.65875   1
   8  -2   4 101.087 6.74707   3
   8  -2   4 60.6443 5.77913   1
   8   2   4 103.667 6.46733   1
   8   2   5 9.87524 2.74031   2
  -8  -2  -5 12.8004 3.20263   2
   8   2   5 16.3795 3.09798   1
  -8   2  -5 12.6353 1.79160   1
   8  -2   5 11.6355 2.23456   1
   8   2   5 14.2425 2.81823   1
   8  -2   6 37.6130 3.88583   1
  -8  -2  -6 49.2200 4.48292   2
   8   2   6 47.9894 4.43696   1
  -8   2  -6 37.4099 3.56116   1
   8   2   6 45.8166 4.48975   1
   8   2   6 40.4311 4.45130   2
   8   2   7 22.2361 3.66355   1
   8   2   7 20.4496 3.48400   2
  -8  -2  -7 28.4331 3.64544   2
   8  -2   7 17.3940 2.98292   1
  -8   2  -7 19.2291 2.46723   1
   8  -2   8 42.4747 4.80616   1
  -8  -2  -8 55.0179 5.25061   2
   8  -2   8 60.2472 5.65158   3
   8   2   8 56.1369 5.37721   1
   8   2   8 49.4179 5.16119   2
   8  -2   9 51.6136 5.68000   1
  -8  -2  -9 69.7372 5.88256   2
   8  -2   9 70.7449 6.45043   3
   8   2   9 63.8780 6.13527   1
   8   2  10 2.73146 3.92423   1
  -8  -2 -10 0.99122 3.35713   2
   8  -2  10 1.74072 3.19630   1
   8   2  11 3.77036 4.23599   1
  -8  -2 -11-0.18738 3.37944   2
   8  -2  11 3.86450 3.45097   1
   8   2  12-0.23903 4.66426   1
  -8   2 -12 3.10790 3.91767   2
  -8  -2 -12 1.54822 3.43714   2
   8  -2  12 6.50320 3.80843   1
   8   2  13 4.27009 4.99983   1
  -8   2 -13 10.0884 4.27963   2
  -8  -2 -13 9.34178 3.91833   2
   8  -2  13 3.94919 4.06923   1
   8   2  14 23.9425 5.53143   1
  -8   2 -14 18.8991 4.69333   2
  -8  -2 -14 19.0520 4.37693   2
   8  -2  14 10.6441 4.60694   1
   8   2  15 14.8762 5.54902   1
  -8   2 -15 6.58239 4.61715   2
  -8  -2 -15 6.83413 4.15605   2
   8  -2  15 6.76862 4.71391   1
   8   2  16 10.2164 5.77960   1
  -8  -2 -16 10.3715 4.17260   2
   8  -2  16 9.38186 5.17521   1
   8  -2  17 3.23868 5.17325   1
  -8  -2 -17 2.44350 4.41717   2
  -8  -3  16-7.57626 6.03211   1
   8  -3 -16 11.8296 4.11535   2
   8   3 -15 25.1461 4.70795   2
  -8  -3  15 36.9995 5.93418   1
   8  -3 -15 32.4357 4.71898   2
  -8  -3  14 2.68163 4.89053   1
   8  -3 -14 7.34953 4.00505   2
   8   3 -14 1.57622 3.76726   2
  -8  -3  13 22.4599 5.16037   1
   8  -3 -13 26.6138 3.78192   3
   8  -3 -13 35.4587 4.54310   2
   8   3 -13 24.1030 4.30876   2
   8  -3 -12 8.64111 3.12286   3
  -8  -3  12 13.0746 4.67586   1
   8  -3 -12 14.5893 3.95876   2
   8   3 -12 10.4793 3.55930   2
   8  -3 -11-1.54430 2.92182   3
  -8  -3  11 4.87923 4.29962   1
   8  -3 -11-3.44325 3.63011   2
   8   3 -11 2.81835 3.19933   2
   8  -3 -10 8.98776 2.92235   3
  -8  -3  10 10.7557 4.23464   1
   8  -3 -10 6.35541 3.29411   2
   8   3 -10 6.29765 3.09170   2
   8  -3  -9 20.0451 3.60919   3
   8  -3  -9 21.1791 3.83335   2
  -8  -3   9 28.8212 4.78802   1
   8   3  -9 27.2503 3.77195   2
  -8  -3   8 24.1691 4.61148   1
  -8   3   8 23.9890 3.63926   4
   8  -3  -8 14.2691 3.31965   3
   8  -3  -8 25.4396 3.69966   2
   8   3  -8 19.9786 3.50766   2
  -8  -3   7 45.1761 5.51728   1
  -8   3   7 36.9114 4.48777   4
   8  -3  -7 40.7791 4.39939   3
   8  -3  -7 46.4512 4.59728   2
   8   3  -7 37.1673 4.33395   2
  -8  -3   6 12.0829 4.40203   1
   8  -3  -6 4.16883 2.98760   3
   8  -3  -6 8.52242 3.15476   2
   8   3  -6 4.02438 2.70783   2
   8   3  -5 35.8689 3.98280   2
   8   3  -5 28.2267 3.16674   3
   8  -3  -5 35.2065 4.24353   3
   8  -3  -5 45.8598 4.40539   2
   8   3  -5 34.0170 3.79185   2
  -8  -3   5 34.6534 4.86455   1
  -8  -3   4 17.6854 4.11833   1
   8  -3  -4 15.8837 3.22021   3
   8   3  -4 21.9804 3.27922   2
   8  -3  -4 20.4152 3.60599   2
   8   3  -4 16.0810 2.83276   2
   8  -3  -3 16.1308 3.18636   3
   8   3  -3 14.3449 3.31665   2
   8  -3  -3 13.2012 3.40971   2
  -8  -3   3 12.3035 3.81994   1
   8   3  -3 12.6262 2.49921   2
   8   3  -3 12.2961 3.75522   1
   8   3  -2 41.8295 4.99346   1
   8  -3  -2 43.0855 4.61727   3
   8   3  -2 34.5451 4.44534   2
   8  -3  -2 45.8950 4.89568   2
   8   3  -2 38.1565 3.90198   2
  -8  -3   2 55.9203 5.18055   1
   8   3  -1 12.2467 3.67918   1
   8  -3  -1 12.7809 3.15705   3
   8   3  -1 17.1278 3.28256   2
   8  -3  -1 12.4410 3.52970   2
   8   3  -1 8.92652 2.17437   2
   8   3   0 86.5940 7.43492   2
   8  -3   0 82.0015 7.48485   3
   8  -3   0 88.2263 7.95077   2
   8   3   0 94.0478 7.36981   1
   8   3   0 85.2290 7.02003   2
   8   3   0 102.102 7.83241   1
   8   3   1 68.6110 6.62159   2
   8  -3   1 75.2768 6.77444   3
   8   3   1 79.8986 6.65816   1
   8   3   1 77.8589 6.31592   2
   8   3   1 88.1801 6.90283   1
   8  -3   2 41.8931 4.42650   3
   8   3   2 31.5578 4.19402   2
  -8   3  -2 36.8069 4.69061   2
   8   3   2 30.4830 3.55694   2
   8   3   2 39.4000 4.20209   1
   8   3   3 19.2583 3.20455   2
   8  -3   3 20.7281 3.69555   3
  -8   3  -3 13.9780 3.80273   2
   8   3   3 21.4927 2.86337   2
   8   3   3 18.7432 3.44596   1
   8   3   4 33.2122 3.05979   2
  -8   3  -4 34.7628 4.06959   2
   8   3   4 35.2777 2.99304   2
   8   3   4 35.5506 3.55095   1
   8   3   5 26.2672 3.05737   2
  -8   3  -5 28.4090 4.14429   2
   8   3   5 30.0957 3.37530   2
   8  -3   5 12.2799 2.26332   1
   8   3   5 24.9684 3.72351   1
   8   3   6 14.9882 2.70798   2
   8  -3   6 20.1231 3.95663   3
   8  -3   6 9.13647 2.64311   1
  -8   3  -6 20.3847 4.04033   2
   8   3   6 20.6272 3.61125   1
  -8   3  -7 61.0823 5.77391   2
   8  -3   7 63.4752 5.90769   3
  -8  -3  -7 61.7735 5.23603   2
   8  -3   7 38.1932 4.81494   1
   8   3   7 52.7918 5.46063   1
   8   3   7 53.3551 4.83302   2
   8   3   8 2.34722 3.64647   1
   8   3   8 1.36106 2.57777   2
   8  -3   8 4.05919 2.77770   1
   8  -3   8 7.17237 4.17590   3
  -8   3  -8 1.18245 3.67111   2
  -8  -3  -8-1.31204 2.99221   2
   8  -3   9 30.7282 4.26811   1
   8  -3   9 48.1282 5.27707   3
  -8   3  -9 34.1354 5.13444   2
  -8  -3  -9 37.4550 4.56969   2
   8   3   9 44.1506 4.95998   1
  -8   3 -10 64.9949 6.53147   2
  -8  -3 -10 62.1769 5.91500   2
   8  -3  10 48.4833 5.83474   1
   8  -3  10 76.4664 6.71246   3
   8   3  10 61.2952 6.43483   1
   8   3  11 18.4497 4.50766   1
   8  -3  11 6.79539 3.69887   1
   8  -3  11 15.9529 4.41935   3
  -8   3 -11 14.8783 4.31812   2
  -8  -3 -11 5.93715 3.42072   2
   8  -3  12 2.35525 3.84365   1
   8   3  12 3.36901 4.58447   1
   8  -3  12 0.13774 4.50448   3
  -8   3 -12 2.87232 4.31214   2
  -8  -3 -12-2.14034 3.40465   2
   8   3  13 20.3931 5.67309   1
   8  -3  13 23.2374 5.17480   3
  -8   3 -13 20.3768 5.10204   2
   8   3  14 7.26565 5.51920   1
   8  -3  14 4.72053 4.89559   3
  -8   3 -14 12.4185 4.89261   2
   8  -3  15 6.55753 5.20426   3
   8   4 -15 22.4906 4.49745   2
   8  -4 -15 10.3132 4.32222   2
   8   4 -14-0.63872 3.87170   2
  -8  -4  14 3.55647 5.22898   1
   8  -4 -14 0.44931 4.08214   2
   8   4 -13 0.70579 3.77115   2
   8  -4 -13 3.52567 3.53273   3
  -8  -4  13 1.59105 5.44468   1
   8  -4 -13 5.32583 3.97083   2
   8   4 -12 8.93801 3.68439   2
   8  -4 -12 5.01723 3.47162   3
  -8  -4  12 11.9912 5.28934   1
   8  -4 -12 9.92807 3.92863   2
   8  -4 -11 4.08272 3.43291   3
   8  -4 -11-0.20393 3.74958   2
  -8  -4  11 2.50675 5.17231   1
   8   4 -11 5.46480 3.39100   2
   8  -4 -10 17.0995 3.46662   3
   8  -4 -10 20.3633 3.87662   2
  -8  -4  10 26.1904 5.63703   1
   8   4 -10 9.71574 3.47356   2
  -8  -4   9 32.8312 5.51858   1
  -8   4   9 35.6963 5.15405   4
   8  -4  -9 22.4879 4.14903   3
   8  -4  -9 37.1507 4.27547   2
   8   4  -9 27.4800 3.96764   2
  -8  -4   8 11.0788 5.16301   1
   8  -4  -8 5.39333 3.51718   3
   8  -4  -8 12.1204 3.42395   2
   8   4  -8 11.2924 3.08776   2
  -8  -4   7 6.91537 4.69128   1
   8  -4  -7 5.54505 3.35209   3
   8  -4  -7 6.95588 3.59237   2
   8   4  -7 8.95586 2.89221   2
   8  -4  -6 10.3186 3.39337   3
   8   4  -6 8.46568 3.29696   2
  -8  -4   6 5.47829 4.39260   1
   8  -4  -6 9.67807 3.61276   2
   8   4  -6 8.01414 2.83107   2
  -8  -4   5 6.42595 4.38431   1
   8  -4  -5 4.48823 3.49705   3
   8   4  -5 5.95557 3.18551   2
   8  -4  -5 8.91151 3.48869   2
   8   4  -5 3.77119 2.61395   2
   8  -4  -4 5.37369 3.50555   3
  -8  -4   4 4.74110 4.06240   1
   8   4  -4 1.44952 2.99604   2
   8  -4  -4 4.70187 3.26478   2
   8   4  -4 5.34707 2.41122   2
  -8  -4   3 23.9780 4.37457   1
   8  -4  -3 17.4183 3.72988   3
   8   4  -3 17.2449 3.50106   2
   8  -4  -3 21.5636 3.86897   2
   8   4  -3 12.8470 2.48158   2
   8  -4  -2-1.13175 3.32976   3
   8   4  -2 5.83945 3.16223   2
   8   4  -2 1.29049 2.06514   3
   8  -4  -2 2.48280 3.54936   2
  -8  -4   2-2.19286 4.19314   1
   8   4  -2 0.80520 1.90737   2
   8   4  -1 27.9819 3.61267   2
   8  -4  -1 21.4434 3.90998   3
   8   4  -1 21.5092 3.01380   3
   8   4  -1 25.9886 2.81314   2
   8  -4  -1 21.7255 4.07169   2
   8  -4   0 33.8566 4.53281   3
   8   4   0 32.2753 3.34504   2
   8  -4   0 38.1065 4.84050   2
   8   4   0 33.9438 4.36560   1
   8  -4   1 15.7634 3.89456   3
   8  -4   1 16.3378 4.31424   2
   8   4   1 16.4480 3.62636   1
   8   4   1 14.8476 2.48478   2
   8  -4   2 14.7901 3.82103   3
  -8   4  -2 16.6010 4.00426   2
   8   4   2 13.5709 2.50390   2
   8   4   2 18.8516 3.71536   1
  -8   4  -3 15.3875 4.02405   2
   8   4   3 11.4265 2.46078   2
   8   4   3 18.3821 3.72219   1
  -8   4  -4 6.61863 3.84856   2
   8   4   4 3.84971 2.26354   2
   8   4   4 5.51202 3.61610   1
   8  -4   5 20.6236 4.16705   3
  -8   4  -5 18.4877 4.35197   2
   8   4   5 19.9668 2.84042   2
   8   4   5 20.9530 3.98006   1
   8  -4   6 4.08971 3.79433   3
  -8   4  -6 1.56017 4.01719   2
   8   4   6 4.41728 2.48033   2
   8   4   6-0.63953 3.72134   1
   8  -4   7 3.70510 3.85099   3
  -8   4  -7 8.70129 4.13950   2
   8   4   7 2.84186 2.54397   2
   8   4   7 3.51109 3.78259   1
   8   4   8 1.97402 3.95550   1
   8  -4   8-3.08729 4.19061   3
  -8   4  -8 5.89162 4.03152   2
   8   4   9 5.38437 4.09011   1
   8  -4   9 4.16981 4.30000   3
  -8   4  -9 0.38843 4.18574   2
   8   4  10 6.52103 4.29659   1
   8  -4  10 10.4470 4.67752   3
  -8   4 -10 5.49638 4.32051   2
   8   4  11 35.4076 5.54038   1
   8  -4  11 42.6369 5.68627   3
  -8   4 -11 25.8005 5.21095   2
   8   4  12 3.16599 4.87114   1
   8  -4  12-2.25417 4.97745   3
  -8   4 -12 8.82806 4.63798   2
   8  -4  13 7.95236 5.19336   3
   8  -5 -13 3.53510 4.04182   3
   8  -5 -12 8.61986 4.00066   3
   8  -5 -12 12.1265 3.92232   2
  -8  -5  11-5.96594 5.82211   1
   8  -5 -11 2.05308 3.83298   3
   8  -5 -11 5.24950 3.66601   2
  -8  -5  10 6.92854 5.76288   1
  -8   5  10 14.6971 4.43006   4
   8  -5 -10 12.2895 4.01233   3
   8  -5 -10 8.28154 3.84368   2
   8   5  -9 2.19967 3.17321   2
  -8   5   9 1.89544 4.36660   4
  -8  -5   9 0.63404 5.60792   1
   8  -5  -9 0.21999 3.61203   3
   8  -5  -9 2.38441 3.32808   2
   8   5  -8 2.34011 3.00230   2
   8  -5  -8 1.66912 3.70049   3
  -8  -5   8 2.82100 5.42748   1
   8  -5  -8-2.35952 3.48777   2
   8  -5  -7 39.7375 5.38849   3
   8  -5  -7 45.7655 5.05582   2
  -8  -5   7 52.5192 6.48231   1
  -8  -5   6 13.3367 5.13925   1
   8  -5  -6 11.5391 3.95253   3
   8  -5  -6 8.95660 3.61234   2
   8  -5  -5 8.48738 3.80545   3
  -8  -5   5 13.4617 5.00873   1
   8  -5  -5 12.7011 3.70197   2
  -8  -5   4 8.20689 4.72804   1
   8  -5  -4 8.94160 3.84344   3
   8  -5  -4 8.72763 3.54056   2
  -8  -5   3 21.2291 4.87256   1
   8  -5  -3 18.0894 4.30902   3
   8  -5  -3 10.3529 3.80365   2
  -8  -5   2 8.45734 4.62734   1
   8  -5  -2 5.39277 3.94742   3
   8  -5  -2 6.66227 3.73480   2
   8  -5  -1-1.57662 3.82522   3
   8  -5  -1 5.99751 3.80348   2
   8   5  -1-0.54728 3.87053   1
   8  -5   0 8.35357 4.07074   3
   8  -5   0-0.79139 4.06946   2
   8   5   0-3.26124 3.74035   1
   8  -5   1 5.63117 4.18759   2
   8   5   1 4.73129 3.78817   1
   8  -5   2 9.10300 4.55515   2
   8   5   2 1.73346 3.83077   1
  -8   5  -3 12.6889 4.06344   2
   8   5   3 2.70453 4.03755   1
   8  -5   4 11.1327 4.36379   3
  -8   5  -4-2.19217 4.12540   2
   8   5   4 5.10966 4.05711   1
   8  -5   5 17.5331 4.75207   3
  -8   5  -5 18.7522 4.35465   2
   8   5   5 7.78368 4.22332   1
   8  -5   6 0.27728 4.40996   3
  -8   5  -6-5.14975 4.40923   2
   8   5   6 3.80698 4.18875   1
   8  -5   7 7.64977 4.35529   3
  -8   5  -7 7.94763 4.35603   2
   8   5   7-4.27644 4.21902   1
   8   5   8 5.34295 4.23243   1
   8  -5   8 5.72492 4.49484   3
  -8   5  -8 3.19033 4.31784   2
   8   5   9 11.7294 4.59200   1
   8  -5   9 6.19190 4.51096   3
  -8   5  -9 11.0758 4.60365   2
   8   5  10 0.13104 4.59141   1
   8  -5  10-7.36717 4.89686   3
  -8   5 -10-1.40069 4.66556   2
   8  -5  11 7.09402 4.89714   3
  -8   5 -11-2.46500 4.72892   2
   8  -6  -7 5.80744 4.19978   3
   8  -6  -6 10.6802 4.31061   3
  -8  -6   6 6.28795 5.27198   1
  -8  -6   5 3.05087 5.24884   1
   8  -6  -5 5.19858 4.35009   3
  -8  -6   4-3.81536 5.39840   1
   8  -6  -4 6.56094 4.28470   3
   8  -6  -3 6.34792 4.24026   3
   8  -6  -3 9.36036 3.88800   2
  -8  -6   3 12.9587 5.24969   1
   8  -6  -2 11.9967 4.38678   3
   8   6  -2 10.2727 4.49186   1
   8  -6  -2 10.5205 4.21903   2
   8  -6  -1 46.0110 5.49590   3
   8  -6  -1 31.4846 4.91787   2
   8   6  -1 29.7848 5.29248   1
   8  -6   0 7.23943 4.20814   2
   8   6   0 7.57542 4.12440   1
   8  -6   1 5.17238 4.14364   2
   8   6   1 1.07862 4.11156   1
   8  -6   2 6.24489 4.44071   3
   8  -6   2-3.89420 5.10529   2
   8   6   2-1.10368 4.34267   1
   8  -6   3-0.28884 4.52921   3
   8  -6   3-0.70416 4.94120   2
   8   6   3 7.12004 4.57488   1
   8  -6   4 21.0204 5.06919   3
  -8   6  -4 19.0602 4.74633   2
   8   6   4 19.2510 4.75902   1
   8  -6   5-1.16934 4.59662   3
  -8   6  -5 1.54372 4.48181   2
   8   6   5 10.0028 4.47958   1
  -8   6  -6 0.52081 4.54936   2
  -8   6  -7 5.01756 4.80292   2
  -8   6  -8-5.64363 4.91013   2
  -8   6  -9 8.74475 4.88205   2
  -9   0  13 16.3144 4.13813   1
  -9   0  12 1.30944 3.96266   1
  -9   0  11-2.88817 3.40204   1
  -9   0  10 24.2070 3.85843   1
   9   0  -9 0.51187 1.86245   3
  -9   0   9-0.45832 3.22274   1
   9   0  -9-0.09587 3.03837   2
   9   0  -8 55.5571 5.35324   1
  -9   0   8 56.2775 5.57554   1
   9   0  -8 63.7695 4.96862   3
   9   0  -8 57.2623 5.57140   2
  -9   0   7 8.10397 3.07000   1
   9   0  -7 6.78975 2.13287   3
   9   0  -7 4.25709 3.06446   2
   9   0  -7 5.75023 2.72225   1
   9   0  -6 8.63332 2.05868   3
  -9   0   6 8.38496 2.83782   1
   9   0  -6 7.90617 3.04491   2
   9   0  -6 8.37674 2.45602   1
   9   0  -5 4.01892 2.22785   1
  -9   0   5 4.93935 2.46882   1
   9   0  -5 4.47580 2.09798   3
   9   0  -5 0.90300 2.87969   2
   9   0  -4 3.32228 2.01910   1
   9   0  -4 0.75313 2.10722   3
   9   0  -4 6.37341 2.87803   2
  -9   0   4 3.58616 2.44433   1
   9   0  -3 11.7231 2.39533   1
   9   0  -3 11.6910 2.36921   3
   9   0  -3 11.9434 2.19857   1
   9   0  -3 11.7242 3.16040   2
   9   0  -2 22.8010 2.79756   3
   9   0  -2 24.8210 2.84798   1
   9   0  -2 13.0277 3.21889   2
   9   0  -2 18.6160 2.49895   1
   9   0  -1 164.069 11.5324   3
   9   0  -1 125.210 11.6701   2
   9   0  -1 154.322 11.4280   1
   9   0  -1 150.081 11.2991   1
   9   0   0 28.2048 3.15802   1
   9   0   0 29.3056 2.85228   1
   9   0   0 16.7799 3.52140   2
   9   0   1 17.5529 2.50271   1
   9   0   1 21.7768 2.90709   1
   9   0   1 15.1715 3.62943   2
   9   0   2 1.29662 2.03160   1
   9   0   2 3.21812 3.25596   2
   9   0   2-0.13983 2.50289   1
   9   0   3 35.7956 3.83555   1
  -9   0  -3 35.0783 4.51797   2
   9   0   3 36.2314 3.61179   1
   9   0   4 16.0600 2.62174   1
   9   0   4 15.2051 3.25328   1
  -9   0  -4 16.5315 3.80588   2
  -9   0  -5 57.3028 5.62833   2
   9   0   5 56.9449 5.15951   1
   9   0   5 51.8382 4.86700   1
   9   0   6 2.34141 2.95686   1
  -9   0  -6 0.63697 3.64980   2
   9   0   6-1.13962 2.66020   1
   9   0   7 12.8949 3.34631   1
  -9   0  -7 12.4378 3.65525   2
   9   0   7 12.2200 3.28192   1
   9   0   8-3.70852 3.26698   1
  -9   0  -8 4.87307 3.58076   2
   9   0   9 2.27672 3.58027   1
  -9   0  -9 5.31181 3.71167   2
  -9   0  -9 3.14859 2.58831   1
   9   0  10 2.84901 3.95496   1
  -9   0 -10 10.9911 3.92812   2
   9   0  11 4.46097 4.34273   1
  -9   0 -11 4.47899 3.86051   2
  -9   0 -12 18.2833 4.24664   2
   9   0  12 14.2706 4.65055   1
  -9   0 -13 21.9080 4.55949   2
   9   0  13 16.4854 5.20836   1
  -9   0 -14 10.6202 4.35009   2
   9   0  14 8.34491 5.07913   1
  -9   0 -15 0.81368 4.35680   2
   9   0  15 0.23404 5.11847   1
   9   0  16 1.85966 5.34443   1
  -9  -1  16 10.5684 5.05905   1
  -9  -1  15 7.66969 4.82562   1
   9  -1 -15 3.35232 4.11324   2
   9   1 -15 1.75637 3.98005   2
  -9  -1  14 14.9166 4.72029   1
   9  -1 -14 18.7058 4.22685   2
   9   1 -14 14.4261 4.04643   2
  -9  -1  13-0.32031 4.44160   1
   9  -1 -13 4.51718 3.63748   2
   9   1 -13-1.02930 3.77008   2
  -9  -1  12 8.89063 4.02805   1
   9  -1 -12 4.38473 3.56069   2
   9   1 -12 9.74945 3.63865   2
  -9  -1  11 2.64101 3.75736   1
   9  -1 -11-1.18097 3.52579   2
   9   1 -11 2.28430 3.36276   2
   9  -1 -10-1.10789 2.21257   3
  -9  -1  10 4.38107 3.57180   1
   9   1 -10 0.46852 3.41996   1
   9  -1 -10 1.93213 3.34302   2
   9   1 -10 5.24562 3.33179   2
   9  -1  -9 8.50918 2.41653   3
  -9   1   9 9.34162 2.89407   1
  -9  -1   9 9.27770 3.67004   1
   9  -1  -9 10.6285 3.19832   2
   9   1  -9 13.5519 3.35879   2
   9   1  -9 4.02202 3.22415   1
  -9   1   8 64.8089 6.87973   1
  -9  -1   8 87.5758 7.54189   1
   9   1  -8 80.7078 7.18341   1
   9   1  -8 90.5903 6.49883   3
   9  -1  -8 87.3714 6.86257   3
   9  -1  -8 91.6006 7.27203   2
   9   1  -8 79.0265 7.23735   2
   9   1  -7 14.5598 3.35279   1
  -9  -1   7 10.0796 3.59255   1
  -9   1   7 11.3935 2.61268   1
   9   1  -7 10.7246 1.67475   3
   9  -1  -7 9.33885 2.54328   3
   9  -1  -7 12.5368 3.30802   2
   9   1  -7 12.4596 3.08491   2
  -9   1   6 25.4193 3.01953   1
   9   1  -6 39.3091 3.88774   1
   9   1  -6 30.7143 2.90164   3
   9  -1  -6 34.0475 3.49676   3
  -9  -1   6 31.6641 4.08063   1
   9   1  -6 33.7602 3.87427   2
   9  -1  -6 27.4182 3.06741   1
   9   1  -5 80.5101 5.93632   3
   9  -1  -5 72.5052 6.17488   3
   9   1  -5 75.0418 6.17166   1
  -9  -1   5 74.2575 6.50505   1
   9   1  -5 75.3454 6.38524   2
   9  -1  -5 68.1681 5.73652   1
   9   1  -4 24.5772 2.54787   3
   9  -1  -4 17.9210 2.91084   3
   9   1  -4 22.2389 3.18883   1
   9  -1  -4 17.3912 1.95097   1
   9  -1  -4 16.3209 1.99261   1
   9   1  -4 24.8404 3.23981   2
  -9  -1   4 20.0611 3.27579   1
   9  -1  -3 72.6186 5.60247   1
   9  -1  -3 83.8065 6.24119   3
   9   1  -3 85.5155 6.24385   1
   9   1  -3 81.6245 6.40045   2
   9  -1  -3 67.2715 5.59572   1
  -9  -1   3 86.6176 6.35736   1
   9  -1  -2 32.0291 2.49106   1
   9  -1  -2 35.2407 3.80951   3
   9   1  -2 31.7709 4.26096   2
   9   1  -2 35.0533 3.49306   1
   9   1  -2 30.7962 3.73954   2
   9   1  -2 32.9685 3.49220   1
   9  -1  -2 24.8720 2.46500   1
   9   1  -1 32.4459 3.38433   1
   9  -1  -1 29.7976 2.41385   1
   9  -1  -1 27.0253 3.54657   3
   9   1  -1 21.7358 4.23350   2
   9  -1  -1 26.5261 2.36810   1
   9   1  -1 23.6451 3.53921   2
   9   1  -1 26.3135 3.26184   1
   9   1   0 124.506 9.83661   2
   9  -1   0 119.297 9.43888   3
   9  -1   0 115.442 8.88986   1
   9   1   0 94.8448 9.37272   2
   9   1   0 126.375 9.26218   1
   9  -1   0 121.963 8.87548   1
   9   1   0 130.932 9.41870   1
   9  -1   1 34.5885 3.97419   3
   9   1   1 30.5100 4.44379   2
   9   1   1 32.1650 3.63009   1
   9   1   1 31.5449 3.46245   1
   9  -1   1 26.0760 2.82508   1
   9   1   1 29.3042 3.84499   2
   9  -1   1 33.2576 2.88056   1
   9   1   2 61.9724 4.96371   1
   9   1   2 55.2380 5.57825   2
   9  -1   2 62.2532 5.14778   3
   9   1   2 57.1785 5.29842   2
   9   1   2 49.6726 4.68256   1
   9  -1   2 47.8139 4.24362   1
   9  -1   2 40.3716 4.24393   1
   9  -1   3 34.9640 4.01289   3
   9  -1   3 23.6851 2.84654   1
   9   1   3 33.8175 4.22054   2
  -9   1  -3 28.7913 4.26472   2
   9   1   3 24.2976 3.93706   2
   9   1   3 26.9880 3.16193   1
   9  -1   3 22.8779 3.02340   1
   9   1   3 30.1581 3.92216   1
   9   1   4 11.9301 2.47179   1
   9   1   4 14.7840 3.39038   1
   9  -1   4 15.5742 2.40928   1
   9  -1   4 12.5421 2.58585   1
  -9   1  -4 10.9904 3.78336   2
  -9  -1  -4 14.2899 3.55398   2
  -9   1  -5 165.447 11.4765   2
  -9  -1  -5 160.062 11.4102   2
   9   1   5 160.742 11.1157   1
   9  -1   5 130.249 10.7513   1
   9   1   5 142.979 10.8931   1
   9  -1   5 123.910 10.7592   1
   9   1   6 24.5714 3.73219   1
   9   1   6 25.5687 3.39220   1
   9  -1   6 24.0640 3.30420   1
  -9   1  -6 28.6426 4.31283   2
  -9  -1  -6 24.8950 3.91660   2
   9  -1   6 18.6813 3.23367   1
   9   1   7 14.0556 3.12099   1
  -9   1  -7 15.3089 3.90177   2
   9  -1   7 12.6238 3.17626   1
  -9  -1  -7 15.3726 3.87742   2
   9   1   7 11.9615 3.06498   1
   9   1   8 31.2134 3.96944   1
  -9   1  -8 22.8738 4.40347   2
  -9  -1  -8 22.2347 4.09679   2
   9  -1   8 24.1267 3.88741   1
   9   1   9 1.87944 3.89241   1
  -9   1  -9 2.10821 3.95213   2
  -9  -1  -9 0.62600 3.66758   2
   9  -1   9-1.76575 3.49656   1
   9   1  10 12.5532 4.27806   1
  -9   1 -10 9.78112 4.26882   2
  -9  -1 -10 10.3766 3.66605   2
   9  -1  10 8.27574 3.76930   1
   9   1  11 27.2114 4.97899   1
  -9   1 -11 31.4046 4.68338   2
  -9  -1 -11 22.4919 4.44989   2
   9  -1  11 22.6262 4.39716   1
   9   1  12 18.0314 4.91585   1
  -9   1 -12 21.2763 4.48101   2
  -9  -1 -12 13.5120 4.15938   2
   9  -1  12 13.9958 4.25159   1
   9   1  13 15.0427 5.16492   1
  -9   1 -13 7.94075 4.30752   2
  -9  -1 -13 14.2384 4.18473   2
   9  -1  13 2.66344 4.29059   1
  -9   1 -14 0.41694 4.38031   2
   9   1  14-9.51906 5.33985   1
  -9  -1 -14 4.88878 4.00172   2
   9  -1  14-2.28007 4.47530   1
  -9   1 -15 3.17444 4.60395   2
  -9  -1 -15 1.13394 4.27097   2
   9   1  15 2.91701 5.44452   1
   9  -1  15 0.22605 4.60628   1
  -9  -1 -16 6.60839 4.85881   2
   9   1  16 8.17854 6.07369   1
   9  -1  16 8.79760 5.21342   1
   9  -1  17 2.07772 5.44480   1
  -9  -2  16 14.2371 5.98561   1
  -9  -2  15-0.13096 5.09642   1
   9  -2 -15 7.65524 4.27913   2
   9   2 -15-3.49340 4.07049   2
  -9  -2  14 0.36474 4.85956   1
   9  -2 -14 4.06876 3.97551   2
   9   2 -14 4.97172 3.85651   2
  -9  -2  13 14.2105 4.87430   1
   9  -2 -13 13.9868 3.94652   2
   9   2 -13 10.5916 3.73610   2
  -9  -2  12 2.93506 4.56910   1
   9  -2 -12 7.35270 3.89175   2
   9   2 -12 2.16305 3.63408   2
   9  -2 -11 3.54604 2.52442   3
  -9  -2  11 4.63695 4.07955   1
   9  -2 -11 2.60344 3.83380   2
   9   2 -11 10.2727 3.55027   2
   9  -2 -10 6.31518 2.81408   3
  -9  -2  10 3.30672 4.42357   1
   9  -2 -10 14.2436 3.58691   2
   9   2 -10 2.52296 3.17584   2
  -9  -2   9 60.6726 6.22389   1
   9  -2  -9 53.6113 5.09532   3
   9  -2  -9 57.9063 5.63602   2
   9   2  -9 52.5421 5.52463   2
  -9  -2   8 8.14096 4.06218   1
   9  -2  -8 0.43707 2.67981   3
   9  -2  -8 1.71359 3.29286   2
   9   2  -8 4.46712 3.13092   2
  -9  -2   7 16.6924 4.28963   1
   9   2  -7 16.4502 1.94862   3
   9  -2  -7 17.7536 3.12582   3
   9  -2  -7 21.3997 3.75818   2
   9   2  -7 14.4911 3.29380   2
   9   2  -6 20.5765 3.85575   1
   9   2  -6 19.1534 2.32979   3
   9  -2  -6 19.7202 3.17713   3
  -9  -2   6 13.0318 4.17406   1
   9  -2  -6 17.9983 3.69924   2
   9   2  -6 19.4004 3.16255   2
  -9  -2   5 17.1652 3.82020   1
  -9   2   5 18.6415 3.18950   4
   9   2  -5 21.2898 2.64443   3
   9  -2  -5 20.8217 3.35430   3
   9   2  -5 25.0982 3.95658   1
   9  -2  -5 22.6263 3.58521   2
   9   2  -5 22.7288 3.28653   2
   9  -2  -4 63.4638 5.97997   3
   9   2  -4 71.2088 6.15830   1
  -9  -2   4 68.9895 6.22707   1
   9  -2  -4 68.1920 6.19308   2
   9   2  -4 64.3567 5.88225   2
   9   2  -3 43.0982 4.58072   2
   9  -2  -3 36.0767 4.19844   3
   9   2  -3 46.8413 4.47807   1
   9   2  -3 37.2515 4.22368   2
  -9  -2   3 50.7588 4.88828   1
   9  -2  -3 38.0739 4.71882   2
   9   2  -2 174.900 13.3635   2
   9  -2  -2 167.409 13.3096   3
   9  -2  -2 168.805 13.5081   2
   9   2  -2 176.719 13.3000   2
   9   2  -2 179.927 13.2453   1
   9   2  -1 10.9112 2.98095   1
   9  -2  -1 8.60302 3.08189   3
   9   2  -1 13.3536 3.15943   2
   9  -2  -1 7.44198 3.42537   2
   9   2  -1 13.6269 2.77788   2
   9   2  -1 11.7688 2.54388   1
   9   2   0 18.5153 3.20953   1
   9  -2   0 12.9605 3.37597   3
   9   2   0 11.0754 3.21153   2
   9  -2   0 15.1378 3.79118   2
   9   2   0 14.3910 2.70505   2
   9   2   0 15.6654 2.68520   1
   9  -2   1 3.09970 3.25956   3
   9   2   1-1.04820 3.02881   2
   9   2   1-0.36548 2.84408   1
   9  -2   1 1.42065 3.74355   2
   9   2   1-7.03638 2.40497   2
   9   2   1 2.04763 2.34258   1
   9  -2   2 6.47801 3.51768   3
   9   2   2-1.43648 2.88489   2
   9   2   2-0.28989 2.72507   1
   9   2   2-0.47523 2.31386   2
   9   2   2 5.55437 2.51860   1
   9  -2   3-0.33659 0.85763   1
   9   2   3 3.08978 2.93220   2
   9  -2   3 5.88582 3.27803   3
   9   2   3-0.32988 2.45263   2
   9   2   3-1.46207 2.91310   1
   9   2   3-0.21891 2.47527   1
   9   2   4 2.71794 2.88998   1
   9   2   4 7.71666 2.89115   2
   9  -2   4 10.8957 3.62872   3
   9   2   4 2.56901 2.81872   2
   9  -2   4 0.91883 1.49467   1
   9   2   4 7.78916 2.72057   1
   9   2   5 43.1976 4.51780   2
   9  -2   5 33.4959 3.67183   1
   9  -2   5 47.5865 4.93456   3
   9   2   5 51.1341 4.41921   1
   9  -2   6 42.9881 4.84029   3
  -9  -2  -6 39.0064 4.40757   2
   9   2   6 37.6660 4.22223   1
   9  -2   6 26.4994 3.50838   1
   9  -2   7 68.0306 6.44080   1
  -9  -2  -7 87.1510 7.15470   2
   9   2   7 86.0532 6.94934   1
   9   2   8 15.3127 3.83942   1
  -9  -2  -8 14.1078 3.80415   2
   9  -2   8 14.1022 3.09849   1
   9   2   9 1.56694 3.79196   1
   9  -2   9 3.78915 4.09563   3
  -9  -2  -9-1.29624 3.83111   2
   9  -2   9 0.74897 3.02799   1
   9   2  10 14.9797 4.29288   1
   9  -2  10 11.9744 4.46496   3
  -9   2 -10 12.4362 4.15820   2
  -9  -2 -10 7.12680 3.87150   2
   9  -2  10 4.90425 3.35489   1
   9   2  11 21.3613 5.09082   1
   9  -2  11 25.6006 4.83815   3
  -9   2 -11 20.3435 4.54668   2
  -9  -2 -11 16.0784 4.03074   2
   9  -2  11 11.1840 3.89522   1
   9   2  12 5.32310 4.93343   1
   9  -2  12-3.40159 4.75213   3
  -9   2 -12 2.26987 4.19703   2
  -9  -2 -12-0.74298 3.72605   2
   9  -2  12 2.93215 3.91345   1
   9   2  13 7.05955 5.23489   1
   9  -2  13 8.90741 4.91307   3
  -9   2 -13 2.10920 4.54139   2
  -9  -2 -13 5.46373 4.07718   2
   9  -2  14 5.88868 5.39449   3
   9   2  14 21.4687 5.76983   1
  -9   2 -14 20.4446 4.93869   2
  -9  -2 -14 15.7609 4.46965   2
   9   2  15 11.3023 6.02604   1
  -9  -2 -15 22.6619 4.78334   2
  -9  -2 -16 0.24143 4.34170   2
  -9  -3  15 0.83641 5.48334   1
  -9  -3  14 12.9679 5.24346   1
   9  -3 -14 9.13763 4.01978   2
   9   3 -14 7.77973 3.95060   2
  -9  -3  13 14.8452 5.30255   1
   9  -3 -13 5.59602 4.17573   2
   9   3 -13 8.24255 3.95343   2
   9  -3 -12 1.29688 3.03755   3
  -9  -3  12 0.51254 4.81291   1
   9  -3 -12 2.27342 3.72346   2
   9   3 -12 4.93610 3.47974   2
   9  -3 -11 49.9993 5.03557   3
   9  -3 -11 57.1044 5.68826   2
   9   3 -11 51.2856 5.44716   2
  -9  -3  11 48.7004 6.33499   1
   9  -3 -10 11.9667 3.45845   3
   9  -3 -10 23.6975 4.12528   2
   9   3 -10 16.1572 3.85366   2
  -9  -3  10 17.1172 4.87393   1
  -9  -3   9 42.4790 6.12604   1
   9  -3  -9 43.6264 4.88851   3
   9  -3  -9 50.6609 5.12401   2
   9   3  -9 42.4711 4.92209   2
  -9  -3   8 6.43560 4.66888   1
   9  -3  -8 1.39427 3.02325   3
   9  -3  -8-1.03801 3.41863   2
   9   3  -8 0.61248 3.00738   2
  -9   3   7 15.3625 3.83551   4
   9  -3  -7 21.5723 3.53741   3
  -9  -3   7 27.9659 4.89796   1
   9  -3  -7 14.4070 3.88956   2
   9   3  -7 16.5051 3.48665   2
   9  -3  -6 11.8921 3.45907   3
   9  -3  -6 22.8149 3.87748   2
  -9  -3   6 20.0839 4.41950   1
   9   3  -6 17.3684 3.22327   2
  -9  -3   5 4.08602 3.94531   1
   9  -3  -5 6.76997 3.28859   3
   9  -3  -5 10.8450 3.42894   2
   9   3  -5 10.1408 2.87403   2
   9  -3  -4 28.5994 3.97647   3
   9  -3  -4 41.2548 4.51705   2
   9   3  -4 29.6706 3.72701   2
  -9  -3   4 35.2330 4.81494   1
   9  -3  -3 9.30461 3.31922   3
   9   3  -3 9.41788 3.31237   2
   9  -3  -3 5.48814 3.42620   2
   9   3  -3 4.54419 2.58620   2
  -9  -3   3 17.0812 4.25573   1
   9  -3  -2 10.9116 3.45888   3
   9   3  -2 13.3705 3.45626   2
   9  -3  -2 19.0699 3.79039   2
   9   3  -2 7.96386 2.37709   2
   9  -3  -1 38.1524 4.60598   3
   9   3  -1 40.6008 4.59987   2
   9   3  -1 40.7370 4.27633   1
   9  -3  -1 44.3673 4.79661   2
   9   3  -1 35.3858 3.77090   2
   9   3   0 121.403 9.40315   2
   9  -3   0 114.468 9.33580   3
   9  -3   0 111.840 9.55739   2
   9   3   0 117.422 9.12596   1
   9   3   0 108.514 8.89363   2
   9   3   1 29.4660 4.19729   2
   9  -3   1 31.2162 4.30947   3
   9   3   1 34.2659 4.02995   1
   9   3   1 36.2521 3.60747   2
   9  -3   1 30.9942 4.99142   2
   9   3   2 9.37372 3.26935   2
   9  -3   2-0.64022 3.48126   3
  -9   3  -2 3.04401 3.87367   2
   9   3   2 8.62426 2.46023   2
   9   3   2 7.98687 3.08899   1
   9   3   3 6.18396 2.96908   2
   9  -3   3 16.0546 3.72275   3
  -9   3  -3 9.98060 3.88100   2
   9   3   3 6.32236 2.65114   2
   9   3   3 11.3302 3.26928   1
   9   3   4 0.65018 2.69667   2
   9  -3   4 5.01813 3.74279   3
  -9   3  -4-1.19958 3.79757   2
   9   3   4 0.95399 2.50818   2
   9   3   4 0.62112 3.14388   1
   9   3   5 15.0121 3.08391   2
  -9   3  -5 15.1119 4.14394   2
   9   3   5 12.7909 3.04520   2
   9   3   5 17.2833 3.67695   1
  -9   3  -6 10.0279 4.22685   2
   9   3   6 4.30245 3.29114   2
   9   3   6 3.91877 3.50005   1
   9   3   7-2.38282 3.70427   1
  -9   3  -7 2.28527 3.92386   2
   9   3   8 11.7139 4.07590   1
   9  -3   8 16.2494 4.68498   3
  -9   3  -8 15.1553 4.52110   2
  -9  -3  -8 12.6235 3.58400   2
   9   3   9 6.40646 4.11425   1
   9  -3   9 3.79487 4.66012   3
  -9   3  -9 1.98726 4.43551   2
  -9  -3  -9 4.87966 3.55574   2
   9   3  10 29.3737 4.82716   1
   9  -3  10 29.3729 5.14451   3
  -9   3 -10 15.5877 4.78093   2
  -9  -3 -10 24.9582 4.22587   2
   9   3  11 18.5339 4.84998   1
   9  -3  11 23.3656 4.99713   3
  -9   3 -11 10.8396 4.61298   2
  -9  -3 -11 15.2727 4.18863   2
   9   3  12 25.2278 5.44497   1
   9  -3  12 31.7094 5.36852   3
  -9   3 -12 17.1805 4.93319   2
   9   3  13-0.30176 5.92796   1
   9  -3  13 5.62155 5.00305   3
   9   4 -13 9.47919 4.02904   2
   9  -4 -13 3.57696 4.04970   2
   9  -4 -12 7.45537 3.56438   3
   9  -4 -12 0.80585 4.07661   2
   9   4 -12 1.79672 3.76478   2
  -9  -4  12 1.06992 5.52522   1
  -9  -4  11 1.90502 5.42649   1
   9  -4 -11-0.09806 3.37366   3
   9  -4 -11 4.15109 4.03181   2
   9   4 -11 4.01697 3.52428   2
  -9  -4  10 53.9949 6.77537   1
   9  -4 -10 35.6761 4.87580   3
   9  -4 -10 47.9499 5.12191   2
   9   4 -10 33.9123 4.77439   2
  -9   4   9 22.5758 4.38015   4
  -9  -4   9 25.5672 5.84365   1
   9  -4  -9 14.9250 4.04087   3
   9  -4  -9 31.9596 4.44929   2
   9   4  -9 21.9540 3.79414   2
  -9   4   8 10.2441 4.05716   4
   9  -4  -8 12.8779 3.73974   3
  -9  -4   8 9.54321 5.02115   1
   9  -4  -8 13.7015 3.87251   2
   9   4  -8 9.83700 3.25619   2
   9  -4  -7 1.88281 3.45712   3
   9  -4  -7 4.88264 3.81605   2
  -9  -4   7-0.50633 4.72577   1
   9   4  -7 0.83357 3.09788   2
  -9  -4   6 42.1699 5.46404   1
   9  -4  -6 32.3131 4.72622   3
   9  -4  -6 43.2969 4.75738   2
   9   4  -6 29.4371 4.18935   2
   9  -4  -5 1.88716 3.78664   3
  -9  -4   5 14.2716 4.53750   1
   9  -4  -5 6.39173 3.62349   2
   9   4  -5 9.79939 2.88917   2
  -9  -4   4 1.41719 4.27992   1
   9  -4  -4-1.31048 3.53950   3
   9  -4  -4-0.96590 3.56334   2
   9   4  -4-1.16187 2.62251   2
   9  -4  -3-2.77981 3.44643   3
  -9  -4   3 4.09172 4.41333   1
   9  -4  -3 4.02483 3.73421   2
   9   4  -3-0.61828 2.31283   2
   9  -4  -2 9.96336 3.62732   3
   9  -4  -2 3.22165 4.01991   2
   9   4  -2 6.27218 2.14012   2
   9  -4  -1 3.35372 3.69056   3
   9  -4  -1 0.45212 4.12641   2
   9   4  -1 6.31079 3.45451   1
   9   4  -1 3.47881 2.04338   2
   9  -4   0 18.3722 4.00995   3
   9  -4   0 12.1561 4.39036   2
   9   4   0 12.4147 3.74725   1
   9   4   0 16.0015 2.55613   2
   9  -4   1 46.7201 5.27471   3
   9   4   1 34.6190 3.92968   2
   9  -4   1 42.5564 5.82854   2
   9   4   1 40.3082 4.81877   1
   9  -4   2 7.09388 3.77738   3
   9  -4   2-4.19779 4.56516   2
   9   4   2 3.00296 2.36005   2
   9   4   2 3.90127 3.55106   1
   9  -4   3 5.08668 3.91197   3
  -9   4  -3 14.1762 4.27027   2
   9   4   3 6.23033 2.49509   2
   9   4   3 4.88527 3.72507   1
  -9   4  -4 0.89695 4.07973   2
   9   4   4 4.17921 2.54380   2
   9   4   4 4.30300 3.79657   1
  -9   4  -5 25.6961 4.72582   2
   9   4   5 24.6403 4.45255   1
   9  -4   6 26.9527 4.83689   3
  -9   4  -6 27.1777 4.83038   2
   9   4   6 19.4068 4.37903   1
   9   4   7 15.5751 4.23726   1
   9  -4   7 7.15611 4.44454   3
  -9   4  -7 8.34931 4.57462   2
   9   4   8-1.16117 4.18346   1
   9  -4   8 4.91904 4.56398   3
  -9   4  -8-0.41216 4.46579   2
   9   4   9 3.47070 4.32195   1
   9  -4   9-2.64394 4.64484   3
  -9   4  -9 6.73814 4.62407   2
   9   4  10 53.7182 6.39048   1
   9  -4  10 64.7052 6.78455   3
  -9   4 -10 45.3030 6.31868   2
   9   4  11 13.3187 4.87492   1
   9  -4  11-1.90292 4.97787   3
  -9   4 -11 10.6079 4.73429   2
   9  -5 -12 0.58329 4.04116   3
   9  -5 -11 11.1446 4.13085   3
   9  -5 -11 1.00823 4.10669   2
  -9   5  10 6.52788 4.42988   4
   9  -5 -10 1.48326 3.91591   3
   9  -5 -10-0.97449 3.82746   2
  -9   5   9 15.6226 4.47637   4
   9  -5  -9 16.1042 4.21297   3
  -9  -5   9 14.8590 5.76266   1
   9  -5  -9 18.3791 4.22742   2
   9  -5  -8 7.04240 4.10722   3
   9  -5  -8 10.3587 3.88389   2
  -9  -5   8 8.14032 5.29399   1
  -9  -5   7 21.1711 5.75266   1
   9  -5  -7 21.4823 4.58462   3
   9  -5  -7 25.6076 4.35359   2
   9  -5  -6 9.01756 4.16826   3
  -9  -5   6 15.1236 5.10406   1
   9  -5  -6 13.9857 4.15296   2
  -9  -5   5 10.1333 5.04717   1
   9  -5  -5 10.3943 4.14496   3
   9  -5  -5 6.50586 3.94511   2
  -9  -5   4 11.8099 5.17675   1
   9  -5  -4 12.2882 4.18271   3
   9  -5  -4 7.64933 3.82222   2
   9  -5  -3 28.3641 4.95294   3
   9  -5  -3 33.1339 4.94767   2
  -9  -5   3 30.9302 5.76127   1
   9  -5  -2 12.3340 4.24513   3
   9  -5  -2 16.3076 4.17699   2
   9   5  -2 18.3640 4.38166   1
   9  -5  -1 9.67542 4.27336   3
   9  -5  -1 8.91659 4.21278   2
   9   5  -1 12.1467 4.01292   1
   9  -5   0 7.53282 4.21377   3
   9  -5   0 1.20191 4.22134   2
   9   5   0 6.88349 3.92904   1
   9  -5   1 11.1919 4.34029   3
   9  -5   1 14.7726 4.74071   2
   9   5   1 8.70662 4.19038   1
   9  -5   2 11.3947 4.48225   3
   9  -5   2 15.4920 5.33457   2
   9   5   2 16.3193 4.23845   1
   9   5   3-1.30202 4.08273   1
  -9   5  -4 10.4126 4.65680   2
   9   5   4 5.84854 4.06689   1
   9  -5   5 45.1648 5.91402   3
  -9   5  -5 32.3409 5.51007   2
   9   5   5 31.9897 5.19940   1
   9  -5   6 9.92323 4.77782   3
  -9   5  -6 8.61213 4.67001   2
   9   5   6 16.5758 4.64161   1
   9  -5   7 14.1932 4.96920   3
  -9   5  -7 20.3382 5.12603   2
   9   5   7 14.1419 4.52991   1
   9   5   8 7.40561 4.65936   1
  -9   5  -8 7.95087 4.91106   2
  -9   5  -9 16.7267 5.13635   2
   9  -6  -3 11.5908 4.26030   2
   9  -6  -2 23.1654 4.86011   2
   9  -6  -1 7.03030 4.24256   2
   9  -6   0 9.01849 4.41338   2
   9  -6   1 17.3327 4.90633   2
   9  -6   2 2.37231 4.98398   2
   9  -6   3-5.75702 5.58633   2
   9  -6   4-5.23351 5.81527   2
  -9   6  -5 0.55398 4.89490   2
  -9   6  -6 7.61352 4.99727   2
  10   0 -11 1.02921 3.77159   2
  10   0 -10 1.65391 3.62989   2
  10   0  -9 8.02927 3.37929   2
  10   0  -8 30.9377 3.10215   3
 -10   0   8 21.7817 3.99983   1
  10   0  -8 23.4497 4.04455   2
  10   0  -7 0.39425 2.25046   3
  10   0  -7 5.80610 3.26641   2
 -10   0   7-3.57700 3.02793   1
  10   0  -6 16.3347 2.54057   3
 -10   0   6 13.0317 3.17682   1
  10   0  -6 19.1755 3.61801   2
  10   0  -5 0.99321 2.27533   3
  10   0  -5 2.85068 3.15009   2
  10   0  -4 27.2402 3.13688   3
  10   0  -4 21.2332 2.79638   1
  10   0  -4 20.0122 3.71977   2
  10   0  -3-0.67557 2.49684   3
  10   0  -3 0.77868 3.11935   2
  10   0  -3-3.85766 2.19079   1
  10   0  -2 25.2810 3.19111   3
  10   0  -2 18.0274 3.64136   2
  10   0  -2 20.7655 2.77329   1
  10   0  -1 12.7405 2.79496   3
  10   0  -1 14.8716 2.75844   1
  10   0  -1 11.1501 3.47809   2
  10   0  -1 11.6500 2.33585   1
  10   0   0 14.2095 3.13423   3
  10   0   0 12.5912 3.45721   2
  10   0   0 16.8417 2.66321   1
  10   0   0 16.0481 2.42093   1
  10   0   1 25.4604 3.01873   1
  10   0   1 27.9184 3.37781   1
  10   0   1 22.0680 3.95146   2
  10   0   2 40.8571 5.76187   2
  10   0   2 56.5694 4.78940   1
  10   0   2 59.8179 5.02342   1
  10   0   3 137.814 10.4161   1
  10   0   3 126.110 10.9886   2
  10   0   3 135.650 10.3569   1
  10   0   4-0.32564 2.42981   1
 -10   0  -4 1.91629 3.76631   2
  10   0   5 2.35908 2.70700   1
 -10   0  -5 7.60360 3.78902   2
 -10   0  -6 53.6291 5.50170   2
  10   0   6 42.5097 4.73222   1
  10   0   7 5.90977 3.19379   1
 -10   0  -7-2.36207 3.93395   2
  10   0   8 3.76044 3.46521   1
 -10   0  -8 6.93352 4.11825   2
  10   0   9 2.28968 3.95637   1
 -10   0  -9 9.89601 4.19221   2
  10   0  10 36.1342 5.15507   1
 -10   0 -10 32.7355 5.18453   2
  10   0  11 4.65882 4.37284   1
 -10   0 -11 1.14822 4.08303   2
 -10   0 -12-2.21395 4.34984   2
  10   0  12-6.88492 4.85761   1
 -10   0 -13-0.53537 4.47271   2
  10   0  13 9.14963 5.10615   1
 -10   0 -14 7.18371 4.57296   2
  10   0  14-3.85621 5.26617   1
  10   0  15 8.73281 5.33751   1
  10  -1 -13 7.75517 4.06148   2
  10   1 -13 5.14562 4.09844   2
 -10  -1  12 27.2625 5.01525   1
  10  -1 -12 35.2045 4.71706   2
  10   1 -12 31.2704 4.58861   2
 -10  -1  11 15.9373 4.51620   1
  10  -1 -11 12.4762 3.96262   2
  10   1 -11 14.0629 3.99504   2
  10  -1 -10 11.5542 3.63372   2
  10   1 -10 1.30402 3.49287   2
 -10  -1  10 12.5433 4.52003   1
 -10  -1   9 10.3598 4.14377   1
  10  -1  -9 11.7406 2.58229   3
  10  -1  -9 2.46791 3.47557   2
  10   1  -9 9.62283 3.54523   2
 -10  -1   8 8.75041 4.11194   1
  10  -1  -8 7.27525 2.59419   3
  10  -1  -8 4.04389 3.41479   2
  10   1  -8 3.76875 3.15269   2
  10  -1  -7 3.89780 2.53093   3
 -10  -1   7 5.12528 3.49441   1
  10   1  -7 3.57009 3.06939   2
 -10  -1   6 1.75013 3.22768   1
  10   1  -6 0.59194 1.74467   3
  10  -1  -6 2.97410 2.72685   3
  10   1  -6-3.56144 3.04868   2
 -10  -1   5 15.4397 3.52773   1
  10   1  -5 15.3285 3.14510   1
  10   1  -5 18.0575 2.43239   3
  10  -1  -5 17.1968 2.97588   3
  10   1  -5 9.76139 3.38268   2
  10   1  -4 8.45391 2.17602   3
  10   1  -4 5.73169 2.79437   1
  10  -1  -4 9.07703 2.87111   3
  10   1  -4 2.41133 3.14086   2
  10   1  -3 79.5194 6.90593   3
  10  -1  -3 92.1965 7.24861   3
  10   1  -3 92.7948 7.15560   1
  10   1  -3 85.6691 7.06162   1
  10   1  -3 84.3924 7.28936   2
  10  -1  -2 5.52586 3.13298   3
  10   1  -2 3.94405 2.89885   2
  10   1  -2 9.51878 2.88599   1
  10   1  -2 8.41984 2.56358   1
  10  -1  -1 4.74955 1.26305   1
  10  -1  -1 1.02314 3.11306   3
  10   1  -1 1.02149 3.03999   2
  10   1  -1 4.17974 2.52556   1
  10   1  -1 1.83779 2.86410   1
  10   1   0 5.82749 2.96769   1
  10  -1   0 4.17611 1.53867   1
  10  -1   0 5.94433 3.14554   3
  10   1   0 4.03728 3.08837   2
  10   1   0 4.11855 2.67221   1
  10   1   1 19.3302 3.43830   1
  10  -1   1 16.3329 2.05873   1
  10  -1   1 16.3674 3.36389   3
  10  -1   1 11.0583 3.94076   2
  10   1   1 9.98420 3.27960   2
  10   1   1 11.6419 2.90176   1
  10  -1   2 2.49030 3.29562   3
  10  -1   2-0.02873 1.91834   1
  10   1   2 2.53165 3.07442   1
  10  -1   2 10.3607 4.04456   2
  10   1   2 5.21574 3.18002   2
  10   1   2 0.48884 2.63191   1
  10   1   3 18.3451 2.97557   1
  10  -1   3 16.2536 3.67855   3
  10  -1   3 12.6075 2.37705   1
  10   1   3 15.1152 3.90939   2
  10   1   3 14.6997 3.37037   1
  10   1   4 44.4068 4.78803   1
  10  -1   4 45.5306 4.85858   3
 -10   1  -4 37.8186 5.05038   2
  10   1   4 39.4238 4.77027   2
  10   1   4 34.5837 3.86574   1
  10  -1   4 34.7296 3.67316   1
  10   1   5 52.8437 5.07412   1
 -10   1  -5 50.7611 5.42872   2
 -10  -1  -5 53.2678 5.24699   2
  10   1   5 45.2181 4.36101   1
  10  -1   5 36.2837 4.25668   1
  10   1   6 27.7849 3.46534   1
  10   1   6 21.9747 4.00359   1
  10  -1   6 16.2609 3.42161   1
 -10   1  -6 25.0132 4.47127   2
 -10  -1  -6 23.5776 4.31382   2
  10   1   7 9.27472 3.19627   1
 -10   1  -7 5.56625 4.02400   2
  10  -1   7 2.78670 3.04881   1
 -10  -1  -7 1.43765 3.72749   2
  10   1   8 9.45991 3.81252   1
 -10   1  -8 11.0601 4.35779   2
 -10  -1  -8 13.8403 4.16375   2
  10  -1   8 3.27850 3.47321   1
  10   1   9 8.34756 4.39607   1
 -10   1  -9 2.83684 4.29051   2
 -10  -1  -9-5.97245 4.21179   2
  10  -1   9 3.38435 3.57359   1
  10   1  10-2.87165 4.43306   1
 -10   1 -10-1.58291 4.20998   2
 -10  -1 -10 2.48023 4.11303   2
  10  -1  10 3.23891 3.88888   1
  10   1  11 25.9438 5.27834   1
 -10   1 -11 27.8855 5.03745   2
 -10  -1 -11 26.4628 4.75149   2
  10   1  12 11.3265 5.25403   1
 -10   1 -12 3.30761 4.34594   2
 -10  -1 -12 6.29520 4.22484   2
  10   1  13 8.96913 5.28717   1
 -10   1 -13-0.71078 4.47207   2
 -10  -1 -13-6.20034 4.59146   2
  10   1  14 5.63483 5.56183   1
 -10  -1 -14-0.38909 4.58523   2
  10   1  15 5.38776 5.86161   1
 -10  -2  14 5.17585 5.02850   1
 -10  -2  13 0.11964 4.85033   1
  10  -2 -13 2.65275 4.22570   2
  10   2 -13-1.40616 3.91755   2
 -10  -2  12 6.20582 5.05845   1
  10  -2 -12 5.23777 4.15399   2
  10   2 -12 13.1576 3.93723   2
  10  -2 -11 13.6265 3.94938   2
  10   2 -11 7.95408 3.62793   2
 -10  -2  11 9.36432 4.97286   1
 -10  -2  10 10.0164 4.60532   1
  10  -2 -10 0.74275 2.84878   3
  10  -2 -10 0.22437 3.66334   2
  10   2 -10-0.10615 3.55957   2
 -10  -2   9 14.4496 4.86515   1
  10  -2  -9 14.1472 3.16539   3
  10  -2  -9 11.4748 3.87492   2
  10   2  -9 13.6496 3.73835   2
  10  -2  -8 9.32686 3.05402   3
 -10  -2   8 4.28797 4.35172   1
  10  -2  -8 7.09183 3.58898   2
  10   2  -8 10.7413 3.43068   2
  10  -2  -7 3.32769 2.97713   3
  10  -2  -7 6.14185 3.56519   2
 -10  -2   7 4.29506 4.13823   1
  10   2  -7 0.09413 3.03357   2
 -10  -2   6 32.3215 4.91309   1
  10  -2  -6 31.8241 4.09978   3
  10  -2  -6 44.5177 4.64483   2
  10   2  -6 33.4757 4.26781   2
  10   2  -5 11.6700 2.33894   3
  10  -2  -5 6.95681 3.09943   3
  10  -2  -5 17.5605 3.66624   2
  10   2  -5 10.5725 3.25286   2
 -10  -2   5 7.19078 3.92881   1
 -10   2   4 28.4283 3.90276   4
  10  -2  -4 35.8838 4.44448   3
  10   2  -4 45.5561 4.79740   1
  10   2  -4 36.3849 4.29386   2
  10  -2  -4 39.8525 4.69414   2
 -10  -2   4 44.0559 4.78075   1
  10  -2  -3 12.8496 3.43888   3
  10  -2  -3 14.4556 3.85209   2
  10   2  -3 20.0273 3.48276   1
  10   2  -3 17.5289 3.25827   2
  10  -2  -2 74.0542 6.99082   3
  10   2  -2 76.9535 6.80204   1
  10  -2  -2 85.8299 7.33222   2
  10   2  -2 80.6199 6.93241   2
  10   2  -2 93.0048 7.00715   1
  10   2  -1 24.2278 3.47355   1
  10  -2  -1 20.9861 3.64733   3
  10  -2  -1 18.1516 4.03958   2
  10   2  -1 15.7813 3.27859   2
  10   2  -1 19.2908 3.20624   1
  10   2   0 9.40196 3.02837   1
  10  -2   0 11.2384 3.53244   3
  10  -2   0 1.26005 3.63955   2
  10   2   0 7.61082 2.84997   2
  10   2   0 9.52669 2.66812   1
  10  -2   1 43.4627 4.85777   3
  10   2   1 43.5825 4.57078   1
  10   2   1 39.5560 4.26896   2
  10   2   1 39.6353 4.16312   1
  10  -2   1 36.7829 5.26047   2
  10  -2   2 19.2655 4.00236   3
  10  -2   2 20.8195 4.38046   2
  10   2   2 12.2935 2.87494   2
  10   2   2 12.8851 2.90939   1
  10  -2   3 35.5409 4.77430   3
  10   2   3 29.1729 3.72680   2
  10   2   3 33.5958 3.78735   1
  10  -2   4 2.83438 3.66645   3
  10   2   4 8.52858 2.73507   2
  10   2   4 3.56301 2.71942   1
  10   2   5 26.9929 3.74609   1
  10  -2   5 29.3623 4.54312   3
  10   2   5 23.2846 3.79720   2
  10   2   6 6.45491 3.28284   1
  10  -2   6 15.2433 4.05991   3
 -10  -2  -7 48.1888 5.66216   2
  10  -2   7 50.5943 5.84199   3
  10   2   7 51.7924 5.29404   1
  10   2   8 12.4800 3.88321   1
 -10  -2  -8 6.19255 4.13339   2
  10   2   9 14.5360 4.14605   1
 -10   2  -9 8.18356 4.36294   2
 -10  -2  -9 12.2786 4.02658   2
  10   2  10 3.83042 4.52930   1
  10  -2  10 16.5119 4.94499   3
 -10   2 -10 7.95055 4.50656   2
 -10  -2 -10 4.42637 4.09756   2
  10   2  11 63.1416 7.14176   1
  10  -2  11 57.3800 6.71059   3
 -10   2 -11 48.7281 6.57929   2
 -10  -2 -11 52.9797 6.17416   2
  10   2  12 21.9136 5.58677   1
  10  -2  12 12.4217 5.13363   3
 -10   2 -12 15.1530 4.73950   2
 -10  -2 -12 10.3380 4.39933   2
  10   2  13 0.89219 5.47669   1
 -10  -2 -13 5.22163 4.37894   2
 -10  -2 -14-4.87435 4.51298   2
 -10  -3  14-1.44293 5.43770   1
 -10  -3  13 26.1888 6.18116   1
  10   3 -13 31.7800 4.79482   2
 -10  -3  12 3.14200 5.26650   1
  10  -3 -12 2.96184 4.16481   2
  10   3 -12 5.88071 3.85732   2
 -10  -3  11 9.40533 5.30167   1
  10  -3 -11 7.46957 3.97530   2
  10   3 -11 3.98296 3.72307   2
 -10  -3  10 13.9731 5.19461   1
  10  -3 -10 12.2744 3.49759   3
  10  -3 -10 9.51976 3.79832   2
  10   3 -10 15.5785 4.00184   2
 -10  -3   9 14.9401 5.12433   1
  10  -3  -9 15.0476 3.62172   3
  10  -3  -9 20.1424 4.17621   2
  10   3  -9 13.6519 3.85064   2
  10  -3  -8 2.05459 3.32310   3
 -10  -3   8 5.39153 4.67501   1
  10  -3  -8 8.44371 3.75543   2
  10   3  -8 4.62515 3.29807   2
  10  -3  -7 7.70186 3.52520   3
  10  -3  -7 11.8004 4.00725   2
  10   3  -7 9.74228 3.32296   2
 -10  -3   7 8.20291 4.45941   1
 -10   3   6 3.62537 3.46944   4
 -10  -3   6 11.7111 4.29194   1
  10  -3  -6 9.11449 3.47978   3
  10  -3  -6 9.12683 3.93384   2
  10   3  -6 6.03421 3.21881   2
 -10  -3   5 8.88789 4.30433   1
  10  -3  -5 8.22902 3.53893   3
  10  -3  -5 8.59317 3.76557   2
  10   3  -5 8.43259 3.17399   2
 -10  -3   4 13.1057 4.35086   1
  10  -3  -4 6.49047 3.41681   3
  10  -3  -4 8.19779 3.79751   2
  10   3  -4 12.0049 2.95107   2
  10  -3  -3 65.0573 6.12400   3
  10  -3  -3 62.5391 6.28044   2
  10   3  -3 58.5233 5.61401   2
  10  -3  -2 9.35072 3.64560   3
  10  -3  -2 1.52104 3.97669   2
  10   3  -2-3.92487 2.74427   1
  10   3  -2 3.94423 2.58825   2
  10  -3  -1 54.4994 5.56923   3
  10   3  -1 50.4025 4.93575   1
  10  -3  -1 53.7457 5.86957   2
  10   3  -1 51.5223 4.78455   2
  10  -3   0 9.04156 3.60389   3
  10  -3   0 9.60506 3.97406   2
  10   3   0 4.01421 2.38733   2
  10   3   0 2.61760 2.76596   1
  10  -3   1 8.64140 3.78052   3
  10  -3   1 8.28791 4.26788   2
  10   3   1 8.69851 2.60795   2
  10   3   1 11.7561 3.18946   1
  10  -3   2 13.2029 3.97572   3
  10  -3   2 15.1679 4.82520   2
  10   3   2 13.3546 2.88773   2
  10   3   2 13.6748 3.38252   1
  10  -3   3 14.2383 4.19159   3
 -10   3  -3 13.1753 4.49114   2
  10   3   3 10.4770 2.88169   2
  10   3   3 12.8686 3.38184   1
  10  -3   4 47.2766 5.40049   3
 -10   3  -4 30.1150 5.26216   2
  10   3   4 30.4625 4.06583   2
  10   3   4 38.8330 4.60051   1
  10  -3   5 19.8554 4.65809   3
 -10   3  -5 21.7210 4.49371   2
  10   3   5 12.4829 3.16106   2
  10   3   5 11.7259 3.57713   1
  10   3   6 2.38849 3.64301   1
  10  -3   6 5.53955 4.39438   3
 -10   3  -6-2.43784 4.23569   2
  10   3   6 0.96842 3.02753   2
  10   3   7 2.61708 3.91487   1
 -10   3  -7 4.33181 4.55838   2
  10   3   7 1.26510 3.40343   2
  10   3   8 13.4985 4.22488   1
 -10   3  -8 9.94466 4.80505   2
  10   3   8 12.0618 3.80267   2
  10   3   9 18.5533 4.80373   1
 -10   3  -9 11.2568 4.77721   2
  10   3  10 6.74419 4.63656   1
  10  -3  10 8.53320 4.81402   3
 -10   3 -10 1.17858 4.82952   2
  10   3  11 14.6396 5.03748   1
  10   3  12 66.5914 7.65151   1
  10   4 -12 17.2528 4.23916   2
 -10  -4  11 16.4744 6.23083   1
  10  -4 -11 22.8540 4.51954   2
  10   4 -11 9.85917 4.03910   2
  10  -4 -10 4.63988 3.67025   3
 -10  -4  10 10.8502 5.64869   1
  10  -4 -10 3.04216 3.93785   2
  10   4 -10 5.05020 3.59191   2
  10  -4  -9-1.10246 3.63695   3
 -10  -4   9 2.77964 5.25341   1
  10  -4  -9 0.46194 3.89127   2
  10   4  -9 5.35047 3.45643   2
 -10   4   8 1.41685 3.76732   4
  10  -4  -8 2.56368 3.85707   3
  10  -4  -8 3.15577 3.92896   2
  10   4  -8-1.40796 3.41658   2
 -10  -4   8-3.08594 5.10931   1
 -10   4   7 0.22823 4.12316   4
 -10  -4   7 5.28086 5.05041   1
  10  -4  -7 8.13736 3.89884   3
  10  -4  -7 6.67161 4.12170   2
  10   4  -7 8.26470 3.40392   2
  10  -4  -6 9.05341 3.87063   3
  10  -4  -6-3.35965 4.00648   2
 -10  -4   6-3.79203 4.94566   1
  10   4  -6 1.70163 3.14215   2
  10  -4  -5 33.9698 4.97065   3
 -10  -4   5 40.6094 5.58256   1
  10  -4  -5 34.5239 4.99979   2
  10   4  -5 30.1282 4.15194   2
  10  -4  -4 28.3421 4.24819   3
  10  -4  -4 11.2886 4.33789   2
  10   4  -4 11.9113 3.25822   2
 -10  -4   4 25.8200 5.10257   1
  10  -4  -3 18.6677 4.36465   3
  10  -4  -3 22.8163 4.50267   2
  10   4  -3 13.4967 2.89402   2
  10  -4  -2 44.4415 5.34725   3
  10   4  -2 44.3873 5.07229   1
  10  -4  -2 52.3207 5.64000   2
  10   4  -2 38.6597 4.17210   2
  10  -4  -1 6.25886 4.06930   3
  10  -4  -1 10.6675 4.31579   2
  10   4  -1 6.85765 3.52376   1
  10   4  -1-0.98469 2.21679   2
  10  -4   0 10.1503 4.32785   3
  10  -4   0 7.30523 4.45407   2
  10   4   0 17.0129 3.79592   1
  10   4   0 11.3411 2.64977   2
  10  -4   1 12.6013 4.38953   3
  10  -4   1 11.8609 4.56405   2
  10   4   1 6.21648 2.52072   2
  10   4   1 4.94658 3.71733   1
  10  -4   2 14.3463 4.52286   3
  10  -4   2 19.1548 5.36401   2
  10   4   2 9.22967 4.06358   1
  10  -4   3 0.78951 4.16787   3
  10  -4   3 4.09313 4.87249   2
  10   4   3 3.49832 3.82777   1
  10  -4   4 1.90263 4.17761   3
 -10   4  -4 0.55342 4.30564   2
  10   4   4 4.72660 3.92401   1
 -10   4  -5 5.25101 4.55815   2
  10   4   5 7.46440 4.20798   1
 -10   4  -6 5.42983 4.75932   2
  10   4   6 21.4905 4.31801   1
  10   4   7 6.44039 4.29452   1
  10  -4   7 7.03849 4.54303   3
 -10   4  -7 4.11247 4.65931   2
  10   4   8 16.3196 4.65582   1
  10  -4   8 18.9160 5.10054   3
 -10   4  -8 14.2483 4.98828   2
  10   4   9-1.35518 4.51555   1
  10  -5  -9-0.81098 4.24683   2
 -10   5   8 10.2064 4.55012   4
  10  -5  -8 6.52419 4.32692   3
  10  -5  -8 13.4055 4.25357   2
  10  -5  -7 1.84453 4.34482   3
  10  -5  -7-0.23745 4.16799   2
  10  -5  -6 11.6747 4.55124   3
 -10  -5   6 17.0899 5.58694   1
  10  -5  -6 9.75560 4.21875   2
  10  -5  -5 2.36823 4.31745   3
 -10  -5   5-1.01484 5.32081   1
  10  -5  -5 3.14456 4.21143   2
  10  -5  -4 12.6580 4.54711   3
  10  -5  -4 19.5501 4.48934   2
 -10  -5   4 21.8865 5.43328   1
  10  -5  -3 40.6821 5.48650   3
  10   5  -3 37.3305 5.18914   1
  10  -5  -3 31.4670 5.45731   2
  10  -5  -2 21.4182 4.66334   3
  10  -5  -2 18.6473 4.65055   2
  10   5  -2 13.6204 4.29817   1
  10  -5  -1 5.46197 4.31356   3
  10  -5  -1 2.07302 4.37826   2
  10   5  -1 2.26243 4.02442   1
  10  -5   0 15.9972 4.59439   3
  10  -5   0 4.26453 4.86457   2
  10   5   0 16.5074 4.27098   1
  10  -5   1-3.53828 4.45523   3
  10  -5   1 2.60738 4.72410   2
  10   5   1 1.52367 4.08833   1
  10  -5   2-1.02239 4.64822   3
  10  -5   2 4.04488 5.07949   2
  10   5   2 3.40269 4.27429   1
  10  -5   3 4.26018 4.83540   3
  10  -5   3-5.53266 5.51064   2
  10   5   3 2.17830 4.30293   1
  10   5   4 33.6612 5.12673   1
 -10   5  -5 7.45785 4.96410   2
  10   5   5 14.2552 4.76145   1
 -10   5  -6 8.28183 5.02638   2
  10  -6  -1 3.41129 4.80463   2
  10  -6   0 14.9496 5.24067   2
  10  -6   1 2.81310 5.01937   2
  10  -6   2 6.26382 5.34284   2
  11   0 -11 19.9502 4.48312   2
  11   0 -10 7.18035 3.93103   2
  11   0  -9 17.8875 4.08118   2
  11   0  -8-1.99974 3.46319   2
  11   0  -7 1.55876 3.49118   2
  11   0  -6 27.9747 3.42855   3
  11   0  -6 27.3757 4.35555   2
  11   0  -5 0.20835 2.50135   3
  11   0  -5 2.59472 3.41131   2
  11   0  -4 20.6496 3.10142   3
  11   0  -4 14.3887 3.86668   2
  11   0  -3 1.54948 2.86564   3
  11   0  -3 2.33306 3.26204   2
  11   0  -2 121.479 9.61524   3
  11   0  -2 118.901 9.88996   2
  11   0  -1 30.0976 3.89076   3
  11   0  -1 33.3691 4.44915   2
  11   0   0 3.29466 3.04080   3
  11   0   0 3.40746 3.55338   2
  11   0   1 16.7323 3.55928   3
  11   0   1 7.89072 3.64557   2
  11   0   2 27.2411 4.64080   2
  11   0   2 34.5412 3.60935   1
  11   0   3 5.29548 2.69888   1
  11   0   3 2.03795 4.19877   2
  11   0   4 7.46962 2.85247   1
  11   0   4 10.8874 4.29066   2
  11   0   5 12.1133 3.11912   1
 -11   0  -5 9.91067 4.36486   2
  11   0   6 18.0567 3.49177   1
 -11   0  -6 22.8258 4.66312   2
 -11   0  -7 20.1666 4.75733   2
 -11   0  -8 3.62894 4.29242   2
 -11   0  -9 4.94644 4.57964   2
 -11   0 -10 11.9937 4.94792   2
 -11   0 -11 12.6460 4.74511   2
 -11   0 -12 2.54455 4.53477   2
  11  -1 -11 16.2446 4.35952   2
  11   1 -11 11.3776 4.20522   2
  11  -1 -10 21.7089 4.27220   2
  11   1 -10 23.2015 4.30600   2
  11   1  -9 4.92008 3.68072   2
  11   1  -8 5.90918 3.57769   2
  11  -1  -7 20.8435 3.25663   3
  11   1  -7 16.6389 3.87556   2
  11  -1  -6 12.1564 3.22801   3
  11   1  -6 14.0235 3.58740   2
  11   1  -5 37.5406 3.54299   3
  11  -1  -5 31.3812 4.15282   3
  11   1  -5 32.3674 4.44293   2
  11   1  -4-0.42037 2.17993   3
  11  -1  -4-0.75291 3.01707   3
  11   1  -4 3.01495 2.68571   1
  11   1  -4 3.03517 3.24917   2
  11   1  -3 24.1128 3.09286   3
  11  -1  -3 25.7568 3.73232   3
  11   1  -3 16.7443 3.89739   2
  11   1  -3 27.1700 3.32503   1
  11   1  -2 47.7728 4.47111   3
  11  -1  -2 48.0667 5.02309   3
  11   1  -2 49.5062 4.60078   1
  11   1  -2 41.5966 5.06138   2
  11  -1  -1 34.2934 4.32164   3
  11  -1  -1 26.8201 4.56743   2
  11   1  -1 25.5757 4.22798   2
  11   1  -1 32.7332 3.75454   1
  11  -1   0 30.8219 4.25868   3
  11  -1   0 25.4742 4.37515   2
  11   1   0 18.5217 3.95923   2
  11   1   0 24.5686 3.38765   1
  11  -1   1 20.6408 3.87933   3
  11  -1   1 17.2721 4.07712   2
  11   1   1 17.0539 3.86695   2
  11   1   1 22.3216 3.26171   1
  11   1   2 6.38034 2.86488   1
  11  -1   2 8.90156 3.67348   3
  11  -1   2-3.88662 4.12163   2
  11   1   2 6.83646 3.56349   2
  11   1   3 3.39775 2.91332   1
  11  -1   3 2.62642 3.72599   3
  11  -1   3 5.42923 4.42422   2
  11   1   3 4.85542 3.60482   2
  11   1   4 29.8053 3.70552   1
  11  -1   4 35.4865 4.82751   3
  11   1   4 28.3425 4.64240   2
  11   1   5 16.2887 3.12414   1
  11  -1   5 19.2010 4.50303   3
 -11   1  -5 20.4551 4.51489   2
  11   1   5 11.3148 4.34682   2
  11   1   6-3.62166 3.10349   1
  11  -1   6 7.41588 4.15026   3
 -11   1  -6 3.10430 4.48084   2
  11   1   7 8.14466 3.50345   1
 -11   1  -7 12.6714 4.48763   2
 -11  -1  -7 5.93763 4.31397   2
  11   1   8 8.00070 4.35940   1
 -11   1  -8 6.38747 4.58929   2
 -11  -1  -8 14.3650 4.59481   2
  11   1   9 29.3744 4.94093   1
 -11   1  -9 22.7308 5.09002   2
 -11  -1  -9 25.7979 5.05553   2
  11   1  10 4.37436 4.63982   1
 -11   1 -10 2.91644 4.66151   2
 -11  -1 -10-2.57499 4.37407   2
  11   1  11 6.66509 4.97410   1
 -11   1 -11 12.2755 4.98373   2
 -11  -1 -11 6.30842 4.63900   2
  11   1  12 12.8723 5.46685   1
 -11  -1 -12 17.9504 4.88403   2
  11   1  13-0.11668 5.57016   1
  11   2 -11 5.04381 3.93987   2
  11  -2 -10 15.0984 4.14947   2
  11   2 -10 15.8286 4.13484   2
 -11  -2   9-1.79292 4.54214   1
  11  -2  -9 10.4453 3.90469   2
  11   2  -9 4.47150 3.68432   2
 -11  -2   8 9.38712 4.45094   1
  11  -2  -8 4.09458 3.36635   3
  11  -2  -8 12.0891 4.09427   2
  11   2  -8 10.5795 3.67494   2
  11  -2  -7 25.6593 3.79427   3
 -11  -2   7 21.3141 4.60798   1
  11  -2  -7 24.4881 4.40722   2
  11   2  -7 20.6172 3.99997   2
 -11  -2   6 3.73902 4.05229   1
  11  -2  -6-1.88712 3.19764   3
  11  -2  -6-2.01114 3.90120   2
  11   2  -6-0.98668 3.28294   2
 -11  -2   5 42.0463 5.00906   1
  11  -2  -5 31.0134 4.35460   3
  11  -2  -5 32.2167 4.69212   2
  11   2  -5 27.3257 4.29887   2
  11  -2  -4 63.9120 6.14013   3
  11   2  -4 65.3565 5.98138   1
  11  -2  -4 62.9654 6.47692   2
  11   2  -4 62.3816 6.07928   2
  11  -2  -3 19.0221 3.93168   3
  11  -2  -3 22.6178 4.36087   2
  11   2  -3 27.1789 3.69919   1
  11   2  -3 25.2440 3.88702   2
  11  -2  -2 1.11916 3.40168   3
  11  -2  -2 1.44322 3.88338   2
  11   2  -2 0.96429 3.25719   2
  11   2  -2 3.30164 3.11731   1
  11  -2  -1 36.4795 4.92821   3
  11   2  -1 49.2252 4.61411   1
  11  -2  -1 36.8198 5.23215   2
  11   2  -1 42.2961 4.63536   2
  11  -2   0 2.68562 3.68922   3
  11  -2   0 2.72664 3.95628   2
  11   2   0 0.18938 3.08366   2
  11   2   0 5.15635 3.06313   1
  11  -2   1 5.81306 3.91731   3
  11  -2   1 10.0190 4.28992   2
  11   2   1 5.01194 3.01903   2
  11   2   1 3.27043 2.97374   1
  11  -2   2 18.2986 4.31281   3
  11  -2   2 6.12836 4.87131   2
  11   2   2 9.11313 3.05564   2
  11   2   2 10.0543 3.06091   1
  11  -2   3 23.8338 4.62526   3
  11   2   3 19.2667 3.22460   2
  11   2   3 15.4563 3.10567   1
  11   2   4 14.4898 3.10378   1
  11  -2   4 20.5165 4.49722   3
  11   2   4 10.0541 3.06484   2
  11   2   5 14.1813 3.41044   1
  11  -2   5 17.2555 4.53275   3
  11   2   5 20.4413 3.40986   2
  11  -2   6 67.1422 6.44329   3
  11   2   6 50.8497 5.63040   2
  11   2   6 53.9915 5.56504   1
  11   2   7 4.15829 3.60345   1
  11  -2   7-0.13990 4.38772   3
 -11   2  -7-0.14188 4.47407   2
  11   2   7 6.46625 3.26581   2
  11   2   8 4.33578 4.00504   1
  11  -2   8 8.28678 4.67677   3
 -11   2  -8 14.1817 4.81772   2
 -11  -2  -8 8.53034 4.31974   2
  11   2   9 19.3822 4.81149   1
 -11   2  -9 22.4480 5.24369   2
 -11  -2  -9 24.9899 4.95806   2
  11   2  10 2.92709 4.90403   1
 -11  -2 -10 1.33084 4.29592   2
  11   2  11-2.70714 5.59587   1
 -11  -2 -11-0.84818 4.50374   2
  11   2  12 3.04561 5.51035   1
 -11  -2 -12-1.60951 4.44265   2
 -11  -3  12 59.2607 7.73422   1
 -11  -3  11 47.4523 6.42721   1
  11   3 -11 41.8332 5.44887   2
 -11  -3  10 8.83566 5.35866   1
  11   3 -10 8.85745 4.06304   2
  11  -3  -9 5.66278 3.50881   3
  11  -3  -9 0.73964 4.11672   2
  11   3  -9 1.60604 3.74286   2
 -11  -3   9 3.32571 5.18572   1
 -11  -3   8 20.3743 5.34236   1
  11  -3  -8 19.1404 3.95178   3
  11  -3  -8 20.1869 4.48081   2
  11   3  -8 25.9206 4.21875   2
  11  -3  -7 14.7081 4.00751   3
 -11  -3   7 15.0812 5.27051   1
  11  -3  -7 21.8331 4.49282   2
  11   3  -7 14.4530 3.92233   2
  11  -3  -6 6.84024 3.67361   3
 -11  -3   6 8.12855 4.52968   1
  11  -3  -6 11.0497 4.01041   2
  11   3  -6 7.37057 3.47416   2
 -11  -3   5 10.2005 4.70690   1
 -11   3   5 4.86510 3.24864   4
  11  -3  -5 8.86767 3.77896   3
  11  -3  -5 11.5433 4.17438   2
  11   3  -5 2.80232 3.21429   2
  11  -3  -4 48.2305 5.33682   3
  11  -3  -4 54.8797 5.65482   2
  11   3  -4 42.0611 4.88197   2
  11  -3  -3 1.38607 3.83034   3
  11  -3  -3 2.40817 4.07275   2
  11   3  -3 5.46178 2.83190   1
  11   3  -3 9.23111 3.17473   2
  11  -3  -2 30.8040 4.77892   3
  11  -3  -2 35.3847 4.93271   2
  11   3  -2 27.3175 3.75927   1
  11   3  -2 27.7481 3.82119   2
  11  -3  -1 7.68749 3.90780   3
  11  -3  -1 5.41561 4.36310   2
  11   3  -1 5.37543 2.66856   2
  11   3  -1 9.69703 2.92436   1
  11  -3   0 0.95897 3.87096   3
  11  -3   0 2.09527 4.30070   2
  11   3   0-1.59221 2.52836   2
  11   3   0-0.36977 2.83581   1
  11  -3   1 3.83250 3.94196   3
  11  -3   1 7.99669 4.46694   2
  11   3   1-4.84091 2.55057   2
  11   3   1-4.35434 2.91560   1
  11  -3   2 17.8086 4.23700   3
  11  -3   2 9.23642 4.93106   2
  11   3   2 9.61108 2.73455   2
  11   3   2 11.8476 3.19041   1
  11  -3   3 47.3222 5.67231   3
  11   3   3 37.7677 4.39864   2
  11   3   3 47.4512 4.90796   1
  11  -3   3 41.1225 6.38650   2
  11  -3   4 29.2953 5.06978   3
  11   3   4 23.7117 3.71056   2
  11   3   4 36.2994 4.28382   1
  11   3   5 4.92930 3.65670   1
  11  -3   5 9.23098 4.62015   3
 -11   3  -5 5.53149 4.47991   2
  11   3   5 2.93266 2.83984   2
  11   3   6 7.29144 3.86756   1
  11  -3   6 8.22971 4.96634   3
 -11   3  -6 12.0870 4.99187   2
  11   3   6 4.21190 3.12115   2
  11   3   7 4.95096 4.06107   1
  11  -3   7-1.27220 4.88725   3
 -11   3  -7 3.74922 4.73470   2
  11   3   7 5.35309 3.21942   2
  11   3   8 6.85479 4.53018   1
  11   3   9 5.03053 4.67183   1
  11   3  10 7.55371 5.02773   1
  11   4 -10 7.15399 3.78321   2
 -11  -4   9 7.73985 5.56198   1
  11  -4  -9-0.81279 4.12801   3
  11   4  -9 3.58133 3.68253   2
  11  -4  -8 6.76845 4.02541   3
 -11  -4   8 2.83924 5.04749   1
  11   4  -8-2.54140 3.69960   2
 -11  -4   7 0.67410 5.02158   1
 -11   4   7 0.11501 4.17415   4
  11  -4  -7 2.95014 3.94983   3
  11  -4  -7-4.22355 4.59000   2
  11   4  -7-0.48761 3.52486   2
 -11   4   6-0.44618 3.93099   4
  11  -4  -6 5.72402 4.06625   3
  11  -4  -6 4.51994 4.19805   2
  11   4  -6 1.65132 3.41495   2
 -11  -4   6 1.88310 5.07405   1
  11  -4  -5 11.1217 4.32560   3
  11  -4  -5 12.7737 4.60366   2
  11   4  -5 13.7915 3.59803   2
 -11  -4   5 13.7445 5.00068   1
  11  -4  -4 22.1493 4.86422   3
  11   4  -4 31.3938 4.19166   1
  11  -4  -4 26.5865 4.98478   2
  11   4  -4 24.5271 3.87800   2
  11  -4  -3 7.57162 4.33089   3
  11  -4  -3 10.8862 4.49904   2
  11   4  -3 3.47254 3.37716   1
  11  -4  -2 2.05426 4.07990   3
  11  -4  -2 2.11805 4.39166   2
  11   4  -2 5.04794 3.38937   1
  11  -4  -1 7.40954 4.23084   3
  11  -4  -1 6.10224 4.64124   2
  11   4  -1 8.84914 3.63452   1
  11  -4   0 1.68350 4.41040   3
  11  -4   0-1.94490 4.59947   2
  11   4   0-1.38267 3.61236   1
  11  -4   1 5.20989 4.56901   3
  11  -4   1 5.41451 4.70473   2
  11   4   1 10.6835 3.91638   1
  11  -4   2 19.2214 4.99023   3
  11  -4   2 15.7133 5.26398   2
  11   4   2 25.8901 4.35855   1
  11  -4   3 36.5453 5.39452   3
  11  -4   3 32.4009 6.30479   2
  11   4   3 33.3511 4.93825   1
  11  -4   4 3.36599 4.68545   3
  11  -4   4 5.05048 5.48250   2
  11   4   4 13.2432 4.46646   1
 -11   4  -5 20.0941 5.33213   2
  11   4   5 21.9744 4.62916   1
  11   4   6 22.4000 4.81850   1
  11   4   7-2.35587 4.54459   1
  11  -5  -3 20.0703 4.99365   2
  11  -5  -2 45.0571 6.14368   2
  11  -5  -1 11.1308 4.92628   2
  12   0  -9 28.2253 4.67093   2
  12   0  -8-4.57129 3.82581   2
  12   0  -7 16.9312 4.13508   2
  12   0  -6 34.4663 4.78967   2
  12   0  -5 23.2457 4.20333   2
  12   0  -4-2.30999 2.89826   3
  12   0  -4-1.17709 3.70267   2
  12   0  -3 2.29464 3.10909   3
  12   0  -3-4.85218 3.66345   2
  12   0  -2 7.57975 3.37636   3
  12   0  -2 5.90427 3.68654   2
  12   0  -1 0.49560 3.22187   3
  12   0  -1-2.02432 3.72317   2
  12   0   0 0.71010 3.44290   3
  12   0   0 2.37340 3.73724   2
  12   0   1 6.23701 3.53405   3
  12   0   1 5.07426 3.97347   2
  12   0   2 75.0765 6.65847   3
  12   0   2 58.1748 6.59140   2
  12   0   3 6.76736 4.05872   3
  12   0   3 7.98058 4.13635   2
  12   0   4 19.2036 4.83236   2
  12   0   5 8.95345 4.70370   2
  12   0   6-1.02978 4.53601   2
 -12   0  -7 2.36942 4.48672   2
 -12   0  -8 16.0444 4.94884   2
 -12   0  -9 0.58103 4.62686   2
  12   1  -9-2.04807 3.85292   2
  12   1  -8 3.48245 3.70488   2
  12   1  -7 10.5070 3.80429   2
  12   1  -6 14.7707 3.95991   2
  12  -1  -5 52.2695 5.14086   3
  12   1  -5 43.1794 5.44040   2
  12  -1  -4 22.5184 3.75366   3
  12   1  -4 17.1333 4.02769   2
  12   1  -3 3.07295 2.52462   3
  12  -1  -3 5.35121 3.41599   3
  12  -1  -3 6.28218 4.01325   2
  12   1  -3-2.58447 3.69794   2
  12   1  -2 18.4355 3.16229   3
  12  -1  -2 20.3331 4.04865   3
  12  -1  -2 22.5006 4.43033   2
  12   1  -2 19.5278 3.97809   2
  12   1  -1 21.6982 3.46965   3
  12  -1  -1 23.9300 4.33063   3
  12  -1  -1 19.7560 4.35542   2
  12   1  -1 26.7732 4.20737   2
  12  -1   0 22.9731 4.37410   3
  12  -1   0 10.1833 4.18288   2
  12   1   0 12.4220 3.95195   2
  12  -1   1 14.4695 4.17428   3
  12  -1   1 15.3027 4.42453   2
  12   1   1 12.0284 3.95637   2
  12  -1   2 3.16016 3.97706   3
  12  -1   2 3.96758 3.92548   2
  12   1   2-0.80155 3.87012   2
  12  -1   3 2.99390 4.03945   3
  12  -1   3 8.30032 4.55710   2
  12   1   3 4.76697 3.86292   2
  12  -1   4 37.7738 5.08249   3
  12  -1   4 26.9767 5.76260   2
  12   1   4 34.7523 4.99758   2
  12  -1   5 8.88502 4.38294   3
  12  -1   5 10.5161 5.01803   2
  12   1   5 9.32521 4.40067   2
  12  -1   6 2.41059 4.52735   3
 -12   1  -6 3.91985 4.48974   2
  12   1   6 9.43359 4.70887   2
  12  -1   7 9.32914 4.80816   3
 -12   1  -7 9.45414 4.87586   2
  12   1   7 13.9091 4.60074   2
  12  -1   8 5.38793 4.71353   3
 -12   1  -8 8.90505 4.79450   2
 -12  -1  -8-5.21222 4.59120   2
 -12  -1  -9-0.13635 4.66828   2
 -12  -1 -10 8.19763 5.04855   2
  12   2  -9 2.86160 3.95178   2
  12   2  -8 1.86288 3.87949   2
  12  -2  -7 86.2432 7.61371   2
  12   2  -7 71.0369 7.18864   2
  12  -2  -6 21.0408 3.84456   3
  12  -2  -6 17.8531 4.35132   2
  12   2  -6 12.8535 4.00585   2
  12  -2  -5 0.61544 3.65118   3
  12  -2  -5-3.22484 4.06390   2
  12   2  -5 4.56875 3.54844   2
  12  -2  -4 17.8388 4.08409   3
  12  -2  -4 17.5209 4.35387   2
  12   2  -4 17.3394 3.98503   2
  12  -2  -3 19.6038 4.24080   3
  12  -2  -3 19.6624 4.61531   2
  12   2  -3 18.1362 3.92526   2
  12   2  -3 23.4265 3.78087   1
  12  -2  -2 12.1154 3.82607   3
  12  -2  -2 6.97208 4.28030   2
  12   2  -2 4.78032 3.54692   2
  12   2  -2 4.90844 3.38080   1
  12  -2  -1 41.8094 4.98899   3
  12   2  -1 41.5187 4.67978   1
  12  -2  -1 40.0632 5.55703   2
  12   2  -1 36.8824 4.81148   2
  12  -2   0 14.1825 4.03867   3
  12  -2   0 6.99657 4.30949   2
  12   2   0 12.0302 3.50394   2
  12   2   0 12.2342 3.34928   1
  12  -2   1 7.18845 4.25201   3
  12   2   1 1.79137 3.37005   2
  12   2   1 7.41576 3.26337   1
  12  -2   2 26.6349 5.04627   3
  12   2   2 24.9006 3.96066   2
  12   2   2 31.0589 3.94035   1
  12  -2   3 49.5793 5.69188   3
  12   2   3 39.5878 4.34978   1
  12   2   3 32.6375 4.56671   2
  12   2   4 21.2854 3.61125   1
  12  -2   4 29.9868 5.00024   3
  12   2   4 16.3230 3.57779   2
  12   2   5 9.57795 3.22622   1
  12  -2   5 16.7722 4.95900   3
  12   2   5 10.4898 3.16633   2
  12   2   6 0.96562 3.41029   1
  12  -2   6-0.89903 4.54179   3
 -12   2  -6 6.23671 4.74740   2
  12   2   6 1.04951 3.05568   2
  12   2   7-1.53228 3.76398   1
  12   2   7 2.35609 3.24374   2
  12   2   8 4.03133 4.16937   1
  12   2   8 2.74752 3.58626   2
  12   2   9 0.27037 3.56220   2
 -12  -2 -10 0.38611 4.56230   2
  12   3  -8 8.72245 4.01324   2
  12  -3  -7-3.04012 4.09558   3
  12   3  -7-1.96338 3.73883   2
  12  -3  -6 1.34921 3.94573   3
  12   3  -6-0.84442 3.71640   2
  12  -3  -5 5.79799 3.95097   3
  12   3  -5 7.30822 3.35177   1
  12   3  -5 4.66979 3.54924   2
  12  -3  -4 28.1371 4.90997   3
  12   3  -4 42.2802 4.49265   1
  12  -3  -4 43.6799 5.37980   2
  12   3  -4 34.2937 4.63165   2
  12  -3  -3 16.0191 4.27611   3
  12  -3  -3 8.84602 4.41989   2
  12   3  -3 7.81290 3.14438   1
  12   3  -3 7.29494 3.43274   2
  12  -3  -2 6.51945 4.39806   3
  12  -3  -2 10.3479 4.48600   2
  12   3  -2 5.75186 3.28032   2
  12   3  -2 6.85773 3.06664   1
  12  -3  -1 12.9209 4.54608   3
  12  -3  -1 14.9381 4.79474   2
  12   3  -1 15.4875 3.23921   2
  12   3  -1 10.6688 3.32133   1
  12  -3   0 7.35327 4.25388   3
  12  -3   0 6.38121 4.50083   2
  12   3   0 7.93421 3.02064   2
  12   3   0 13.5894 3.30054   1
  12  -3   1 14.0349 4.63623   3
  12  -3   1 21.8739 5.16767   2
  12   3   1 24.6527 3.45470   2
  12   3   1 30.0879 3.76407   1
  12  -3   2 17.9933 4.74912   3
  12  -3   2 12.2878 5.25848   2
  12   3   2 22.5803 3.25966   2
  12   3   2 23.1338 3.74126   1
  12  -3   3 6.36682 4.50339   3
  12   3   3 3.20702 2.91138   2
  12   3   3 4.59733 3.20433   1
  12   3   4 7.64125 3.43147   1
  12  -3   4 12.6852 4.69827   3
  12   3   4 10.8529 3.04293   2
  12   3   5 6.18567 3.70841   1
  12   3   6 1.86012 3.93774   1
  12   3   7 2.70634 4.20163   1
  12   3   8-2.25300 4.57045   1
  12   4  -5 39.4433 4.64937   1
  12   4  -4 19.0007 3.60086   1
  12   4  -3 15.3762 3.51898   1
  12   4  -2 9.59433 3.43108   1
  12   4  -1 1.09641 3.43345   1
  12   4   0 51.0171 5.62096   1
  12   4   1-3.02563 3.70630   1
  12   4   2 2.12482 3.68745   1
  12   4   3-0.23464 3.97741   1
  13   0  -4 8.34452 4.15415   2
  13   0  -3 4.80038 3.87581   2
  13   0  -2-0.42571 3.61131   3
  13   0  -2 5.39731 4.05975   2
  13   0  -1 14.5535 3.96217   3
  13   0  -1 9.65267 4.15477   2
  13   0   0 45.3828 5.17838   3
  13   0   0 35.9654 5.40007   2
  13   0   1 16.1307 4.21707   3
  13   0   1 12.0016 4.43036   2
  13   0   2 13.2632 4.31711   3
  13   0   2 6.99776 4.38062   2
  13   0   3 64.1817 6.44506   3
  13   0   3 50.8503 6.35861   2
  13   0   4 5.67852 4.49269   3
  13   0   4 3.58822 4.22548   2
  13   0   5-1.70266 4.68902   3
  13   1  -5 34.4541 4.95523   2
  13   1  -4 9.95667 3.98803   2
  13  -1  -3 26.3948 4.23776   3
  13   1  -3 17.6227 4.36203   2
  13  -1  -2 14.7982 4.05643   3
  13   1  -2 11.2548 4.00145   2
  13   1  -1 11.0178 3.14574   3
  13  -1  -1 1.50810 3.98871   3
  13  -1  -1 9.93256 4.36754   2
  13   1  -1 7.20841 3.80561   2
  13   1   0 33.1495 4.33931   3
  13  -1   0 41.8327 5.20014   3
  13  -1   0 35.7909 5.28891   2
  13   1   0 28.1321 4.87721   2
  13   1   1 1.81202 3.44573   3
  13  -1   1 3.62175 4.56186   3
  13  -1   1 3.47055 4.36327   2
  13   1   1 3.06642 3.95514   2
  13  -1   2 51.0181 6.13477   3
  13   1   2 46.3799 5.76662   2
  13  -1   3 42.4353 5.47752   3
  13   1   3 27.8182 5.13567   2
  13  -1   4 2.10788 4.39791   3
  13   1   4-1.79445 4.12706   2
  13   1   5 12.4450 4.32598   2
  13   2  -5 9.14168 3.86684   2
  13  -2  -4 28.0439 4.71035   3
  13   2  -4 23.8340 4.46421   2
  13  -2  -3 7.07181 4.14112   3
  13   2  -3 7.79892 3.88087   2
  13  -2  -2 7.91786 4.00926   3
  13   2  -2 3.39738 3.84933   2
  13  -2  -1 21.7002 4.69907   3
  13   2  -1 23.9519 4.35313   2
  13  -2   0 6.24453 4.25243   3
  13   2   0 2.23524 3.65787   2
  13  -2   1 11.2131 4.54358   3
  13   2   1 10.2683 3.63838   2
  13  -2   2 51.6687 5.99867   3
  13   2   2 34.1940 4.94185   2
  13   2   3 5.77928 3.60968   2
  13   2   4 8.75521 3.51235   2
  13   2   5-4.87220 3.37884   2
  13   2   6-0.12127 3.19694   2
  13  -3  -5-1.11017 4.24952   3
  13  -3  -4 14.8226 4.55569   3
  13   3  -4 17.7449 3.97934   2
  13  -3  -3 1.29907 4.22620   3
  13   3  -3-0.31475 3.60873   2
  13   3  -2 2.32719 3.42571   2
  13   3  -1 4.72615 3.33078   2
  14   0   0 9.88046 4.35098   3
  14   0   1 37.7765 5.45872   3
  14  -1  -1 7.61011 4.25357   3
  14  -1   0 25.8941 5.13074   3
  14   1   2 0.25195 4.08776   3
   0   0   0    0.00    0.00   0
TITL CG3_49 in P2(1)/m
REM P2(1)/m (#11 in standard setting)
CELL 0.71073  10.109434   6.167524  16.247688  90.0000  91.5840  90.0000
ZERR    2.00   0.000570   0.000425   0.001199   0.0000   0.0059   0.0000
LATT  1
SYMM -x, y+1/2,-z
SFAC C H O
UNIT 40.00 40.00 4.00
TREF
HKLF 4
END
;
_shelx_hkl_checksum              1086
loop_
_space_group_symop_operation_xyz
'x, y, z'
'-x, y+1/2, -z'
loop_
_atom_site_label
_atom_site_type_symbol
_atom_site_fract_x
_atom_site_fract_y
_atom_site_fract_z
_atom_site_U_iso_or_equiv
_atom_site_adp_type
_atom_site_occupancy
_atom_site_site_symmetry_order
_atom_site_calc_flag
_atom_site_refinement_flags_posn
_atom_site_refinement_flags_adp
C1 C 1.0888(3) 0.7285(7) 0.2924(2) 0.0329(9) Uani 1 1 d . .
H1A H 1.1443 0.6043 0.2847 0.049 Uiso 1 1 calc R U
H1B H 1.1189 0.8065 0.3405 0.049 Uiso 1 1 calc R U
H1C H 1.0929 0.8214 0.2451 0.049 Uiso 1 1 calc R U
C2 C 0.9460(3) 0.6544(6) 0.3034(2) 0.0227(8) Uani 1 1 d . .
C3 C 0.9243(3) 0.5303(6) 0.3874(2) 0.0259(8) Uani 1 1 d . .
H3A H 0.8780 0.3932 0.3814 0.031 Uiso 1 1 calc R U
H3B H 1.0034 0.5160 0.4221 0.031 Uiso 1 1 calc R U
C4 C 0.8367(3) 0.7198(5) 0.4091(2) 0.0213(7) Uani 1 1 d . .
C5 C 0.8548(3) 0.8249(6) 0.3380(2) 0.0236(7) Uani 1 1 d . .
H5 H 0.8227 0.9559 0.3173 0.028 Uiso 1 1 calc R U
C6 C 0.8961(3) 0.5328(5) 0.2275(2) 0.0205(7) Uani 1 1 d . .
C7 C 0.8037(3) 0.6251(5) 0.1727(2) 0.0210(7) Uani 1 1 d . .
H7 H 0.7695 0.7617 0.1837 0.025 Uiso 1 1 calc R U
C8 C 0.7624(3) 0.5161(6) 0.1024(2) 0.0210(7) Uani 1 1 d . .
H8 H 0.6997 0.5810 0.0674 0.025 Uiso 1 1 calc R U
C9 C 0.8110(3) 0.3133(5) 0.0820(2) 0.0210(7) Uani 1 1 d . .
C10 C 0.9022(3) 0.2200(5) 0.1376(2) 0.0229(7) Uani 1 1 d . .
H10 H 0.9357 0.0827 0.1268 0.027 Uiso 1 1 calc R U
C11 C 0.9441(3) 0.3286(5) 0.2089(2) 0.0227(7) Uani 1 1 d . .
H11 H 1.0053 0.2628 0.2446 0.027 Uiso 1 1 calc R U
C12 C 0.7631(3) 0.1966(5) 0.0035(2) 0.0206(7) Uani 1 1 d . .
C13 C 0.6279(3) 0.0903(6) 0.0198(2) 0.0267(8) Uani 1 1 d . .
H13A H 0.5951 0.0207 -0.0295 0.040 Uiso 1 1 calc R U
H13B H 0.5663 0.1995 0.0362 0.040 Uiso 1 1 calc R U
H13C H 0.6384 -0.0154 0.0629 0.040 Uiso 1 1 calc R U
C14 C 0.7460(4) 0.3553(6) -0.0680(2) 0.0298(8) Uani 1 1 d . .
H14A H 0.7242 0.2767 -0.1175 0.045 Uiso 1 1 calc R U
H14B H 0.8269 0.4338 -0.0749 0.045 Uiso 1 1 calc R U
H14C H 0.6760 0.4552 -0.0566 0.045 Uiso 1 1 calc R U
C15 C 0.8599(3) 0.0207(6) -0.0228(2) 0.0279(8) Uani 1 1 d . .
H15A H 0.8295 -0.0414 -0.0741 0.042 Uiso 1 1 calc R U
H15B H 0.8651 -0.0903 0.0186 0.042 Uiso 1 1 calc R U
H15C H 0.9459 0.0834 -0.0294 0.042 Uiso 1 1 calc R U
C16 C 0.7614(3) 0.7614(5) 0.4836(2) 0.0221(7) Uani 1 1 d . .
C17 C 0.7543(5) 0.6094(7) 0.5442(3) 0.0502(13) Uani 1 1 d . .
H17 H 0.7966 0.4768 0.5377 0.060 Uiso 1 1 calc R U
C18 C 0.6855(5) 0.6481(7) 0.6153(3) 0.0500(13) Uani 1 1 d . .
H18 H 0.6828 0.5400 0.6551 0.060 Uiso 1 1 calc R U
C19 C 0.6212(3) 0.8397(6) 0.6292(2) 0.0218(7) Uani 1 1 d . .
C20 C 0.6251(4) 0.9900(7) 0.5670(2) 0.0376(10) Uani 1 1 d . .
H20 H 0.5801 1.1204 0.5729 0.045 Uiso 1 1 calc R U
C21 C 0.6942(5) 0.9530(6) 0.4954(2) 0.0382(10) Uani 1 1 d . .
H21 H 0.6950 1.0594 0.4549 0.046 Uiso 1 1 calc R U
C22 C 0.5448(3) 0.8758(6) 0.7086(2) 0.0221(7) Uani 1 1 d . .
C23 C 0.4098(3) 0.7636(6) 0.7002(2) 0.0318(9) Uani 1 1 d . .
H23A H 0.3599 0.8266 0.6552 0.048 Uiso 1 1 calc R U
H23B H 0.3626 0.7822 0.7502 0.048 Uiso 1 1 calc R U
H23C H 0.4224 0.6118 0.6901 0.048 Uiso 1 1 calc R U
C24 C 0.6200(4) 0.7803(6) 0.7830(2) 0.0302(8) Uani 1 1 d . .
H24A H 0.6267 0.6259 0.7767 0.045 Uiso 1 1 calc R U
H24B H 0.5735 0.8129 0.8322 0.045 Uiso 1 1 calc R U
H24C H 0.7072 0.8420 0.7867 0.045 Uiso 1 1 calc R U
C25 C 0.5223(3) 1.1179(6) 0.7247(2) 0.0268(8) Uani 1 1 d . .
H25A H 0.6058 1.1922 0.7259 0.040 Uiso 1 1 calc R U
H25B H 0.4806 1.1360 0.7766 0.040 Uiso 1 1 calc R U
H25C H 0.4665 1.1772 0.6815 0.040 Uiso 1 1 calc R U
loop_
_atom_site_aniso_label
_atom_site_aniso_U_11
_atom_site_aniso_U_22
_atom_site_aniso_U_33
_atom_site_aniso_U_23
_atom_site_aniso_U_13
_atom_site_aniso_U_12
C1 0.0149(15) 0.052(2) 0.032(2) -0.0101(18) 0.0030(14) -0.0077(17)
C2 0.0108(14) 0.0316(19) 0.0257(18) -0.0005(15) 0.0002(12) 0.0020(13)
C3 0.0154(15) 0.036(2) 0.0262(18) -0.0005(16) 0.0001(13) 0.0043(15)
C4 0.0127(14) 0.0244(17) 0.0266(18) 0.0008(14) -0.0023(12) 0.0007(14)
C5 0.0167(15) 0.0243(18) 0.0295(19) -0.0027(15) -0.0016(13) 0.0006(14)
C6 0.0117(14) 0.0280(18) 0.0221(17) 0.0021(14) 0.0037(12) -0.0019(14)
C7 0.0122(14) 0.0197(17) 0.0313(19) -0.0016(14) 0.0024(13) 0.0008(13)
C8 0.0141(14) 0.0255(18) 0.0234(17) 0.0025(15) -0.0009(12) 0.0000(14)
C9 0.0129(13) 0.0260(18) 0.0244(17) 0.0024(14) 0.0042(12) -0.0052(13)
C10 0.0150(14) 0.0217(17) 0.0322(19) 0.0005(15) 0.0043(13) 0.0020(14)
C11 0.0140(14) 0.0286(19) 0.0255(18) 0.0047(15) 0.0009(13) 0.0034(14)
C12 0.0140(14) 0.0238(18) 0.0240(17) -0.0043(14) 0.0016(12) -0.0027(13)
C13 0.0142(15) 0.030(2) 0.036(2) -0.0050(16) 0.0023(14) -0.0018(14)
C14 0.0299(19) 0.032(2) 0.0270(19) -0.0032(17) -0.0028(15) -0.0016(17)
C15 0.0187(16) 0.032(2) 0.033(2) -0.0076(17) 0.0023(14) -0.0003(16)
C16 0.0131(14) 0.0293(19) 0.0239(18) 0.0004(14) -0.0019(12) 0.0007(13)
C17 0.069(3) 0.041(2) 0.042(2) 0.016(2) 0.028(2) 0.033(2)
C18 0.077(3) 0.038(2) 0.037(2) 0.018(2) 0.030(2) 0.028(2)
C19 0.0104(13) 0.0293(19) 0.0255(17) -0.0038(15) 0.0005(12) -0.0001(14)
C20 0.045(2) 0.037(2) 0.031(2) 0.0046(17) 0.0071(17) 0.022(2)
C21 0.057(3) 0.036(2) 0.0221(19) 0.0095(16) 0.0074(18) 0.018(2)
C22 0.0132(15) 0.0274(19) 0.0259(18) -0.0021(15) 0.0041(13) -0.0012(13)
C23 0.0168(15) 0.037(2) 0.042(2) -0.0110(18) 0.0072(15) -0.0040(15)
C24 0.0257(18) 0.037(2) 0.0283(19) -0.0026(15) 0.0031(15) 0.0030(15)
C25 0.0194(16) 0.0301(19) 0.0312(19) -0.0039(15) 0.0056(14) -0.0023(14)
loop_
_atom_type_symbol
_atom_type_description
_atom_type_scat_dispersion_real
_atom_type_scat_dispersion_imag
_atom_type_scat_source
C C 0.0033 0.0016 'International Tables Vol C Tables 4.2.6.8 and 6.1.1.4'
H H 0.0000 0.0000 'International Tables Vol C Tables 4.2.6.8 and 6.1.1.4'
loop_
_geom_angle_atom_site_label_1
_geom_angle_atom_site_label_2
_geom_angle_atom_site_label_3
_geom_angle
C5 C2 C6 116.9(3)
C5 C2 C1 114.9(3)
C6 C2 C1 110.3(3)
C5 C2 C3 85.2(2)
C6 C2 C3 114.2(3)
C1 C2 C3 113.5(3)
C4 C3 C2 85.6(3)
C5 C4 C16 135.3(3)
C5 C4 C3 94.5(3)
C16 C4 C3 130.2(3)
C4 C5 C2 94.7(3)
C11 C6 C7 117.6(3)
C11 C6 C2 121.1(3)
C7 C6 C2 121.3(3)
C8 C7 C6 120.8(3)
C7 C8 C9 122.4(3)
C8 C9 C10 116.7(3)
C8 C9 C12 121.1(3)
C10 C9 C12 122.2(3)
C11 C10 C9 121.3(3)
C6 C11 C10 121.2(3)
C14 C12 C15 107.6(3)
C14 C12 C9 111.1(3)
C15 C12 C9 112.1(3)
C14 C12 C13 108.7(3)
C15 C12 C13 108.8(3)
C9 C12 C13 108.5(3)
C17 C16 C21 116.9(3)
C17 C16 C4 120.9(3)
C21 C16 C4 122.2(3)
C16 C17 C18 121.4(4)
C19 C18 C17 122.5(4)
C18 C19 C20 115.9(3)
C18 C19 C22 121.0(3)
C20 C19 C22 123.0(3)
C19 C20 C21 122.0(3)
C16 C21 C20 121.2(3)
C24 C22 C23 108.6(3)
C24 C22 C25 108.3(3)
C23 C22 C25 108.6(3)
C24 C22 C19 110.9(3)
C23 C22 C19 109.1(3)
C25 C22 C19 111.3(3)
loop_
_geom_bond_atom_site_label_1
_geom_bond_atom_site_label_2
_geom_bond_distance
C1 C2 1.529(5)
C2 C5 1.517(5)
C2 C6 1.518(5)
C2 C3 1.585(5)
C3 C4 1.514(5)
C4 C5 1.341(5)
C4 C16 1.471(5)
C6 C11 1.386(5)
C6 C7 1.394(5)
C7 C8 1.380(5)
C8 C9 1.387(5)
C9 C10 1.397(5)
C9 C12 1.532(5)
C10 C11 1.394(5)
C12 C14 1.525(5)
C12 C15 1.529(5)
C12 C13 1.546(4)
C16 C17 1.363(5)
C16 C21 1.380(5)
C17 C18 1.386(6)
C18 C19 1.370(5)
C19 C20 1.373(5)
C19 C22 1.537(5)
C20 C21 1.392(6)
C22 C24 1.527(5)
C22 C23 1.533(5)
C22 C25 1.534(5)
loop_
_geom_torsion_atom_site_label_1
_geom_torsion_atom_site_label_2
_geom_torsion_atom_site_label_3
_geom_torsion_atom_site_label_4
_geom_torsion
C5 C2 C3 C4 -0.1(2)
C6 C2 C3 C4 -117.4(3)
C1 C2 C3 C4 115.0(3)
C2 C3 C4 C5 0.1(3)
C2 C3 C4 C16 -180.0(3)
C16 C4 C5 C2 180.0(4)
C3 C4 C5 C2 -0.1(3)
C6 C2 C5 C4 114.8(3)
C1 C2 C5 C4 -113.6(3)
C3 C2 C5 C4 0.1(3)
C5 C2 C6 C11 -155.9(3)
C1 C2 C6 C11 70.4(4)
C3 C2 C6 C11 -58.8(4)
C5 C2 C6 C7 26.2(4)
C1 C2 C6 C7 -107.5(4)
C3 C2 C6 C7 123.3(3)
C11 C6 C7 C8 -0.2(4)
C2 C6 C7 C8 177.7(3)
C6 C7 C8 C9 -0.9(5)
C7 C8 C9 C10 1.7(4)
C7 C8 C9 C12 180.0(3)
C8 C9 C10 C11 -1.4(4)
C12 C9 C10 C11 -179.7(3)
C7 C6 C11 C10 0.5(4)
C2 C6 C11 C10 -177.5(3)
C9 C10 C11 C6 0.4(5)
C8 C9 C12 C14 39.6(4)
C10 C9 C12 C14 -142.3(3)
C8 C9 C12 C15 160.0(3)
C10 C9 C12 C15 -21.8(4)
C8 C9 C12 C13 -79.8(4)
C10 C9 C12 C13 98.3(3)
C5 C4 C16 C17 174.3(4)
C3 C4 C16 C17 -5.6(6)
C5 C4 C16 C21 -5.2(6)
C3 C4 C16 C21 174.9(4)
C21 C16 C17 C18 -1.6(7)
C4 C16 C17 C18 178.9(4)
C16 C17 C18 C19 -0.2(8)
C17 C18 C19 C20 2.1(7)
C17 C18 C19 C22 179.5(4)
C18 C19 C20 C21 -2.3(6)
C22 C19 C20 C21 -179.5(4)
C17 C16 C21 C20 1.4(6)
C4 C16 C21 C20 -179.1(4)
C19 C20 C21 C16 0.5(7)
C18 C19 C22 C24 40.0(5)
C20 C19 C22 C24 -142.9(4)
C18 C19 C22 C23 -79.6(4)
C20 C19 C22 C23 97.6(4)
C18 C19 C22 C25 160.7(4)
C20 C19 C22 C25 -22.2(5)
