#------------------------------------------------------------------------------
#$Date: 2016-03-24 03:00:20 +0200 (Thu, 24 Mar 2016) $
#$Revision: 179608 $
#$URL: svn://www.crystallography.net/cod/cif/4/50/72/4507223.cif $
#------------------------------------------------------------------------------
#
# This file is available in the Crystallography Open Database (COD),
# http://www.crystallography.net/
#
# All data on this site have been placed in the public domain by the
# contributors.
#
data_4507223
loop_
_publ_author_name
'Stefanoski, S.'
'Blosser, M. C.'
'Nolas, G. S.'
_publ_section_title
;
 Pressure Effects on the Size of Type-I and Type-II Si-Clathrates
 Synthesized by Spark Plasma Sintering
;
_journal_issue                   1
_journal_name_full               'Crystal Growth &amp; Design'
_journal_page_first              195
_journal_paper_doi               10.1021/cg3013443
_journal_volume                  13
_journal_year                    2013
_chemical_formula_sum            'Na4 Si23'
_chemical_formula_weight         732.22
_chemical_name_systematic        ' ?'
_space_group_IT_number           223
_symmetry_cell_setting           cubic
_symmetry_space_group_name_Hall  '-P 4n 2 3'
_symmetry_space_group_name_H-M   'P m -3 n'
_audit_creation_date             2012-09-10T10:25
_audit_creation_method           'from EXP file using GSAS2CIF'
_audit_update_record
' 2012-09-10T10:25  Initial CIF as created by GSAS2CIF'
_cell_angle_alpha                90.0
_cell_angle_beta                 90.0
_cell_angle_gamma                90.0
_cell_formula_units_Z            2
_cell_length_a                   10.19979(12)
_cell_length_b                   10.19979
_cell_length_c                   10.19979
_cell_volume                     1061.142(12)
_computing_structure_refinement  GSAS
_diffrn_radiation_probe          x-ray
_exptl_absorpt_correction_T_max  1.00000
_exptl_absorpt_correction_T_min  1.00000
_exptl_absorpt_process_details
;   GSAS Absorption/surface roughness correction: function number 0
 No correction is applied.
;
_pd_block_id                     2012-09-10T10:25|MCB92SPSTYPEI_1|Mike|1
_pd_calc_method                  'Rietveld Refinement'
_pd_instr_location               ' ?'
_pd_meas_2theta_range_inc        0.00997
_pd_meas_2theta_range_max        119.99504
_pd_meas_2theta_range_min        12.0
_pd_meas_number_of_points        10833
_pd_phase_name                   Na8Si46
_pd_proc_2theta_range_inc        0.00997
_pd_proc_2theta_range_max        119.99504
_pd_proc_2theta_range_min        12.0
_pd_proc_info_datetime           2012-09-10T10:25:26
_pd_proc_info_excluded_regions   ' ?'
_pd_proc_ls_background_function
;   GSAS Background function number 1 with 20 terms.
 Shifted Chebyshev function of 1st kind
      1:    152.675     2:   -166.490     3:    134.806     4:   -91.5245    
      5:    66.2306     6:   -50.8591     7:    37.6062     8:   -30.8411    
      9:    26.1226    10:   -22.1911    11:    17.1105    12:   -13.1813    
     13:    10.3683    14:   -10.3013    15:    7.45623    16:   -5.72706    
     17:    1.70335    18:   -1.77144    19:    1.32271    20:   -1.22506    
;
_pd_proc_ls_peak_cutoff          0.00100
_pd_proc_ls_profile_function
;
 CW Profile function number 3 with  19 terms
 Pseudovoigt profile coefficients as parameterized in
 P. Thompson, D.E. Cox & J.B. Hastings (1987). J. Appl. Cryst.,20,79-83.
 Asymmetry correction of L.W. Finger, D.E. Cox & A. P. Jephcoat (1994).
 J. Appl. Cryst.,27,892-900.
 Peak tails are ignored  where the intensity is below 0.0010 times the peak
   Aniso. broadening axis   0.0   0.0   1.0
;
_pd_proc_ls_prof_R_factor        0.0809
_pd_proc_ls_prof_wR_expected     0.0922
_pd_proc_ls_prof_wR_factor       0.1056
_pd_proc_number_of_points        10833
_pd_spec_mounting                ' ?'
_refine_ls_goodness_of_fit_all   1.15
_refine_ls_matrix_type           full
_refine_ls_number_parameters     31
_refine_ls_number_restraints     0
_refine_ls_R_Fsqd_factor         0.23702
_refine_ls_shift/su_max          0.04
_refine_ls_shift/su_mean         0.00
_reflns_d_resolution_high        0.891
_reflns_d_resolution_low         7.212
_reflns_limit_h_max              11
_reflns_limit_h_min              1
_reflns_limit_k_max              8
_reflns_limit_k_min              0
_reflns_limit_l_max              6
_reflns_limit_l_min              0
_reflns_number_total             322
_cod_data_source_file            cg3013443_si_001.cif
_cod_data_source_block           MCB92SPSTYPEI_1_publ
_cod_original_cell_volume        1061.14(4)
_cod_database_code               4507223
#BEGIN Tags that were not found in dictionaries:
_gsas_exptl_extinct_corr_t_min   1.00000
_gsas_exptl_extinct_corr_t_max   1.00000
#END Tags that were not found in dictionaries
loop_
_symmetry_equiv_pos_site_id
_symmetry_equiv_pos_as_xyz
1 +x,+y,+z
2 +z,+x,+y
3 +y,+z,+x
4 +x,+y,-z
5 -z,+x,+y
6 +y,-z,+x
7 -z,+x,-y
8 -y,-z,+x
9 +y,-z,-x
10 -x,+y,-z
11 -z,-x,+y
12 +x,-y,-z
13 +y+1/2,+x+1/2,+z+1/2
14 +z+1/2,+y+1/2,+x+1/2
15 +x+1/2,+z+1/2,+y+1/2
16 +y+1/2,+x+1/2,-z+1/2
17 -z+1/2,+y+1/2,+x+1/2
18 +x+1/2,-z+1/2,+y+1/2
19 -z+1/2,+y+1/2,-x+1/2
20 -x+1/2,-z+1/2,+y+1/2
21 +x+1/2,-z+1/2,-y+1/2
22 -y+1/2,+x+1/2,-z+1/2
23 -z+1/2,-y+1/2,+x+1/2
24 +y+1/2,-x+1/2,-z+1/2
-1 -x,-y,-z
-2 -z,-x,-y
-3 -y,-z,-x
-4 -x,-y,+z
-5 +z,-x,-y
-6 -y,+z,-x
-7 +z,-x,+y
-8 +y,+z,-x
-9 -y,+z,+x
-10 +x,-y,+z
-11 +z,+x,-y
-12 -x,+y,+z
-13 -y+1/2,-x+1/2,-z+1/2
-14 -z+1/2,-y+1/2,-x+1/2
-15 -x+1/2,-z+1/2,-y+1/2
-16 -y+1/2,-x+1/2,+z+1/2
-17 +z+1/2,-y+1/2,-x+1/2
-18 -x+1/2,+z+1/2,-y+1/2
-19 +z+1/2,-y+1/2,+x+1/2
-20 +x+1/2,+z+1/2,-y+1/2
-21 -x+1/2,+z+1/2,+y+1/2
-22 +y+1/2,-x+1/2,+z+1/2
-23 +z+1/2,+y+1/2,-x+1/2
-24 -y+1/2,+x+1/2,+z+1/2
loop_
_atom_site_type_symbol
_atom_site_label
_atom_site_fract_x
_atom_site_fract_y
_atom_site_fract_z
_atom_site_occupancy
_atom_site_thermal_displace_type
_atom_site_U_iso_or_equiv
_atom_site_symmetry_multiplicity
Na Na1 0.0 0.0 0.0 1.0 Uiso 0.00995 2
Na Na2 0.5 0.0 0.25 1.0 Uiso 0.07136 6
Si Si1 0.30817 0.1203 0.0 1.0 Uiso 0.01752 24
Si Si3 0.5 0.25 0.0 1.0 Uiso 0.01786 6
Si Si2 0.18049 0.18049 0.18049 1.0 Uiso 0.01223 16
loop_
_atom_type_symbol
_atom_type_number_in_cell
_atom_type_scat_dispersion_real
_atom_type_scat_dispersion_imag
_atom_type_scat_Cromer_Mann_a1
_atom_type_scat_Cromer_Mann_a2
_atom_type_scat_Cromer_Mann_a3
_atom_type_scat_Cromer_Mann_a4
_atom_type_scat_Cromer_Mann_b1
_atom_type_scat_Cromer_Mann_b2
_atom_type_scat_Cromer_Mann_b3
_atom_type_scat_Cromer_Mann_b4
_atom_type_scat_Cromer_Mann_c
_atom_type_scat_source
Na 8.0 0.000 0.000 4.76260 3.28500 3.17360 8.84220 1.26740 0.31360 1.11280
129.424 0.67600 International_Tables_Vol_C
Si 46.0 0.000 0.000 6.29150 2.43860 3.03530 32.3337 1.98910 0.67850 1.54100
81.6937 1.14070 International_Tables_Vol_C
loop_
_diffrn_radiation_wavelength
_diffrn_radiation_wavelength_wt
_diffrn_radiation_type
_diffrn_radiation_wavelength_id
1.540600 1.000 K\a~1~ 1
1.544400 0.500 K\a~2~ 2
loop_
_pd_meas_counts_total
_pd_proc_ls_weight
_pd_proc_intensity_bkg_calc
_pd_calc_intensity_total
838.0 0.001193 849.51343 852.73145
880.0 0.001136 845.59320 849.03363
823.0 0.001215 841.70001 845.38672
845.0 0.001183 837.83484 841.79498
851.0 0.001175 833.99603 838.26129
880.0 0.001136 830.18457 834.79132
876.0 0.001142 826.39825 831.38928
824.0 0.001214 822.64032 828.06555
881.0 0.001135 818.90753 824.82599
878.0 0.001139 815.20099 821.68298
897.0 0.001115 811.52075 818.65027
870.0 0.001149 807.86591 815.74481
904.0 0.001106 804.23688 812.98926
850.0 0.001176 800.63239 810.41156
803.0 0.001245 797.05475 808.05103
803.0 0.001245 793.50110 805.95557
815.0 0.001227 789.97247 804.19330
843.0 0.001186 786.46924 802.85669
842.0 0.001188 782.98975 802.07446
816.0 0.001225 779.53522 802.03339
848.0 0.001179 776.10413 803.01337
837.0 0.001195 772.69861 805.46155
795.0 0.001258 769.31622 810.15942
801.0 0.001248 765.95673 818.55902
860.0 0.001163 762.62238 833.30194
854.0 0.001171 759.31073 858.76318
853.0 0.001172 756.02258 900.94495
865.0 0.001156 752.75708 965.66809
859.0 0.001164 749.51544 1051.03198
835.0 0.001198 746.29663 1128.65149
869.0 0.001151 743.09924 1148.50891
848.0 0.001179 739.92609 1114.31262
882.0 0.001134 736.77417 1065.36377
842.0 0.001188 733.64508 1003.48517
814.0 0.001229 730.53741 931.17261
779.0 0.001284 727.45239 868.24713
772.0 0.001295 724.38898 822.55371
738.0 0.001355 721.34662 791.44257
772.0 0.001295 718.32703 770.34839
787.0 0.001271 715.32794 755.52295
700.0 0.001429 712.35022 744.48236
764.0 0.001309 709.39307 735.74506
753.0 0.001328 706.45764 728.48798
798.0 0.001253 703.54279 722.23816
776.0 0.001289 700.64807 716.71088
747.0 0.001339 697.77466 711.72363
724.0 0.001381 694.92102 707.14618
748.0 0.001337 692.08826 702.88995
732.0 0.001366 689.27435 698.88690
733.0 0.001364 686.48187 695.09143
689.0 0.001451 683.70862 691.46405
696.0 0.001437 680.95471 687.97681
726.0 0.001377 678.22089 684.60907
688.0 0.001453 675.50604 681.34229
720.0 0.001389 672.81061 678.16339
711.0 0.001406 670.13483 675.06195
726.0 0.001377 667.47760 672.02771
694.0 0.001441 664.83929 669.05414
676.0 0.001479 662.21948 666.13470
739.0 0.001353 659.61896 663.26544
695.0 0.001439 657.03644 660.44086
693.0 0.001443 654.47223 657.65802
686.0 0.001458 651.92706 654.91461
636.0 0.001572 649.39935 652.20654
711.0 0.001406 646.88983 649.53259
698.0 0.001433 644.39740 646.88977
666.0 0.001502 641.92413 644.27850
718.0 0.001393 639.46765 641.69525
719.0 0.001391 637.02875 639.13947
709.0 0.001410 634.60760 636.61047
649.0 0.001541 632.20337 634.10651
728.0 0.001374 629.81671 631.62726
689.0 0.001451 627.44617 629.17072
610.0 0.001639 625.09369 626.73834
649.0 0.001541 622.75732 624.32745
703.0 0.001422 620.43774 621.93829
605.0 0.001653 618.13501 619.57056
633.0 0.001580 615.84839 617.22302
678.0 0.001475 613.57831 614.89594
610.0 0.001639 611.32397 612.58789
649.0 0.001541 609.08667 610.30023
616.0 0.001623 606.86469 608.03082
654.0 0.001529 604.65863 605.78003
640.0 0.001563 602.46869 603.54791
616.0 0.001623 600.29407 601.33350
601.0 0.001664 598.13525 599.13696
618.0 0.001618 595.99133 596.95740
611.0 0.001637 593.86365 594.79596
633.0 0.001580 591.75079 592.65112
574.0 0.001742 589.65234 590.52222
596.0 0.001678 587.57013 588.41113
637.0 0.001570 585.50201 586.31549
605.0 0.001653 583.44910 584.23639
575.0 0.001739 581.41034 582.17273
575.0 0.001739 579.38690 580.12555
584.0 0.001712 577.37781 578.09387
619.0 0.001616 575.38232 576.07678
601.0 0.001664 573.40222 574.07605
583.0 0.001715 571.43573 572.08984
598.0 0.001672 569.48352 570.11865
605.0 0.001653 567.54492 568.16205
546.0 0.001832 565.62061 566.22046
577.0 0.001733 563.70996 564.29321
546.0 0.001832 561.81268 562.38000
561.0 0.001783 559.92975 560.48175
535.0 0.001869 558.05988 558.59729
544.0 0.001838 556.20331 556.72668
572.0 0.001748 554.35999 554.86981
531.0 0.001883 552.53021 553.02698
528.0 0.001894 550.71338 551.19763
597.0 0.001675 548.90936 549.38165
572.0 0.001748 547.11865 547.57935
533.0 0.001876 545.34039 545.78992
560.0 0.001786 543.57507 544.01379
553.0 0.001808 541.82263 542.25098
555.0 0.001802 540.08246 540.50079
543.0 0.001842 538.35486 538.76355
555.0 0.001802 536.63940 537.03870
578.0 0.001730 534.93665 535.32697
488.0 0.002049 533.24567 533.62732
535.0 0.001869 531.56702 531.69269
561.0 0.001783 529.90070 530.02362
471.0 0.002123 528.24585 528.36609
520.0 0.001923 526.60315 526.60449
518.0 0.001931 524.97180 524.97321
533.0 0.001876 523.35254 523.35394
464.0 0.002155 521.74475 521.74622
563.0 0.001776 520.14832 520.14978
493.0 0.002028 518.56372 518.56519
523.0 0.001912 516.99011 516.99158
519.0 0.001927 515.42792 515.42938
545.0 0.001835 513.87634 513.87793
505.0 0.001980 512.33673 512.33826
519.0 0.001927 510.80771 510.80927
532.0 0.001880 509.28958 509.29117
497.0 0.002012 507.78259 507.78418
511.0 0.001957 506.28607 506.28769
479.0 0.002088 504.80051 504.80212
484.0 0.002066 503.32504 503.32669
481.0 0.002079 501.86087 501.86252
495.0 0.002020 500.40671 500.40839
489.0 0.002045 498.96289 498.96457
493.0 0.002028 497.52960 497.53128
517.0 0.001934 496.10638 496.10809
445.0 0.002247 494.69333 494.69504
459.0 0.002179 493.29016 493.29190
484.0 0.002066 491.89755 491.89932
470.0 0.002128 490.51465 490.51642
527.0 0.001898 489.14127 489.14304
479.0 0.002088 487.77808 487.77988
443.0 0.002257 486.42435 486.42615
470.0 0.002128 485.08038 485.08218
483.0 0.002070 483.74570 483.74753
451.0 0.002217 482.42105 482.42288
479.0 0.002088 481.10550 481.10733
450.0 0.002222 479.79910 479.80093
415.0 0.002410 478.50250 478.50436
490.0 0.002041 477.21472 477.21658
449.0 0.002227 475.93628 475.93817
472.0 0.002119 474.66656 474.66846
455.0 0.002198 473.40628 473.40820
499.0 0.002004 472.15488 472.15680
462.0 0.002165 470.91196 470.91388
467.0 0.002141 469.67850 469.68045
438.0 0.002283 468.45334 468.45529
425.0 0.002353 467.23697 467.23892
462.0 0.002165 466.02905 466.03101
445.0 0.002247 464.82993 464.83188
441.0 0.002268 463.63916 463.64114
437.0 0.002288 462.45667 462.45865
446.0 0.002242 461.28287 461.28485
433.0 0.002309 460.11707 460.11905
441.0 0.002268 458.95966 458.96164
459.0 0.002179 457.81018 457.81216
461.0 0.002169 456.66904 456.67105
440.0 0.002273 455.53589 455.53790
433.0 0.002309 454.41049 454.41251
411.0 0.002433 453.29337 453.29541
489.0 0.002045 452.18387 452.18588
436.0 0.002294 451.08215 451.08420
424.0 0.002358 449.98846 449.99051
434.0 0.002304 448.90216 448.90424
433.0 0.002309 447.82355 447.82562
437.0 0.002288 446.75238 446.75443
448.0 0.002232 445.68893 445.69098
411.0 0.002433 444.63275 444.63483
437.0 0.002288 443.58398 443.58606
397.0 0.002519 442.54272 442.54483
433.0 0.002309 441.50858 441.51065
440.0 0.002273 440.48166 440.48373
439.0 0.002278 439.46182 439.46390
403.0 0.002481 438.44928 438.45135
456.0 0.002193 437.44363 437.44571
446.0 0.002242 436.44501 436.44708
402.0 0.002488 435.45346 435.45557
419.0 0.002387 434.46857 434.47067
404.0 0.002475 433.49066 433.49277
422.0 0.002370 432.51926 432.52136
433.0 0.002309 431.55502 431.55713
429.0 0.002331 430.59726 430.59937
456.0 0.002193 429.64606 429.64816
421.0 0.002375 428.70160 428.70370
434.0 0.002304 427.76343 427.76553
431.0 0.002320 426.83197 426.83408
411.0 0.002433 425.90652 425.90863
457.0 0.002188 424.98795 424.99005
386.0 0.002591 424.07541 424.07751
413.0 0.002421 423.16916 423.17126
430.0 0.002326 422.26917 422.27127
441.0 0.002268 421.37531 421.37744
426.0 0.002347 420.48764 420.48975
430.0 0.002326 419.60583 419.60794
406.0 0.002463 418.73041 418.73251
430.0 0.002326 417.86075 417.86285
427.0 0.002342 416.99698 416.99908
439.0 0.002278 416.13910 416.14124
435.0 0.002299 415.28714 415.28925
404.0 0.002475 414.44095 414.44305
392.0 0.002551 413.60019 413.60229
392.0 0.002551 412.76569 412.76776
412.0 0.002427 411.93655 411.93866
418.0 0.002392 411.11276 411.11484
447.0 0.002237 410.29498 410.29706
357.0 0.002801 409.48254 409.48462
395.0 0.002532 408.67557 408.67767
386.0 0.002591 407.87384 407.87592
385.0 0.002597 407.07776 407.07983
394.0 0.002538 406.28702 406.28909
386.0 0.002591 405.50125 405.50333
367.0 0.002725 404.72113 404.72321
429.0 0.002331 403.94604 403.94812
388.0 0.002577 403.17621 403.17828
394.0 0.002538 402.41129 402.41336
418.0 0.002392 401.65167 401.65372
425.0 0.002353 400.89709 400.89917
392.0 0.002551 400.14737 400.14941
347.0 0.002882 399.40277 399.40482
425.0 0.002353 398.66299 398.66504
374.0 0.002674 397.92819 397.93024
375.0 0.002667 397.19809 397.20013
396.0 0.002525 396.47290 396.47491
367.0 0.002725 395.75250 395.75452
407.0 0.002457 395.03668 395.03873
415.0 0.002410 394.32568 394.32770
390.0 0.002564 393.61929 393.62131
396.0 0.002525 392.91748 392.91949
401.0 0.002494 392.22040 392.22238
396.0 0.002525 391.52771 391.52969
349.0 0.002865 390.83954 390.84152
403.0 0.002481 390.15573 390.15771
390.0 0.002564 389.47656 389.47855
424.0 0.002358 388.80167 388.80365
382.0 0.002618 388.13107 388.13303
392.0 0.002551 387.46494 387.46689
365.0 0.002740 386.80295 386.80490
413.0 0.002421 386.14523 386.14719
385.0 0.002597 385.49176 385.49371
357.0 0.002801 384.84247 384.84442
357.0 0.002801 384.19724 384.19916
386.0 0.002591 383.55615 383.55807
351.0 0.002849 382.91922 382.92114
383.0 0.002611 382.28625 382.28818
364.0 0.002747 381.65735 381.65927
396.0 0.002525 381.03217 381.03409
415.0 0.002410 380.41129 380.41318
369.0 0.002710 379.79413 379.79602
378.0 0.002646 379.18082 379.18271
381.0 0.002625 378.57141 378.57327
379.0 0.002639 377.96579 377.96765
361.0 0.002770 377.36398 377.36584
399.0 0.002506 376.76575 376.76761
395.0 0.002532 376.17151 376.17334
378.0 0.002646 375.58078 375.58261
412.0 0.002427 374.99368 374.99551
404.0 0.002475 374.41025 374.41205
400.0 0.002500 373.83041 373.83221
364.0 0.002747 373.25409 373.25589
376.0 0.002660 372.68121 372.68301
356.0 0.002809 372.11209 372.11389
374.0 0.002674 371.54626 371.54803
390.0 0.002564 370.98386 370.98560
395.0 0.002532 370.42487 370.42664
363.0 0.002755 369.86926 369.87103
424.0 0.002358 369.31711 369.31885
355.0 0.002817 368.76807 368.76981
369.0 0.002710 368.22260 368.22433
358.0 0.002793 367.68024 367.68195
368.0 0.002717 367.14096 367.14267
368.0 0.002717 366.60516 366.60687
397.0 0.002519 366.07245 366.07416
373.0 0.002681 365.54294 365.54462
352.0 0.002841 365.01642 365.01810
379.0 0.002639 364.49310 364.49475
400.0 0.002500 363.97290 363.97455
383.0 0.002611 363.45557 363.45721
356.0 0.002809 362.94147 362.94312
398.0 0.002513 362.43024 362.43185
380.0 0.002632 361.92200 361.92361
352.0 0.002841 361.41669 361.41830
362.0 0.002762 360.91437 360.91595
376.0 0.002660 360.41489 360.41647
348.0 0.002874 359.91821 359.91980
374.0 0.002674 359.42453 359.42612
353.0 0.002833 358.93356 358.93512
387.0 0.002584 358.44540 358.44696
354.0 0.002825 357.95993 357.96146
373.0 0.002681 357.47733 357.47888
378.0 0.002646 356.99744 356.99896
338.0 0.002959 356.52014 356.52164
344.0 0.002907 356.04565 356.04715
375.0 0.002667 355.57370 355.57520
375.0 0.002667 355.10437 355.10587
347.0 0.002882 354.63779 354.63925
369.0 0.002710 354.17368 354.17514
348.0 0.002874 353.71213 353.71356
374.0 0.002674 353.25305 353.25449
388.0 0.002577 352.79660 352.79803
373.0 0.002681 352.34256 352.34396
408.0 0.002451 351.89102 351.89243
353.0 0.002833 351.44199 351.44339
330.0 0.003030 350.99524 350.99661
358.0 0.002793 350.55103 350.55240
353.0 0.002833 350.10910 350.11047
350.0 0.002857 349.66956 349.67090
325.0 0.003077 349.23236 349.23370
343.0 0.002915 348.79749 348.79883
338.0 0.002959 348.36496 348.36630
365.0 0.002740 347.93466 347.93597
328.0 0.003049 347.50662 347.50793
344.0 0.002907 347.08069 347.08197
320.0 0.003125 346.65720 346.65848
355.0 0.002817 346.23581 346.23706
354.0 0.002825 345.81656 345.81781
339.0 0.002950 345.39954 345.40079
319.0 0.003135 344.98459 344.98584
359.0 0.002786 344.57184 344.57309
343.0 0.002915 344.16098 344.16220
356.0 0.002809 343.75247 343.75366
338.0 0.002959 343.34592 343.34711
365.0 0.002740 342.94131 342.94250
312.0 0.003205 342.53888 342.54007
354.0 0.002825 342.13837 342.13956
309.0 0.003236 341.73984 341.74100
348.0 0.002874 341.34320 341.34433
365.0 0.002740 340.94873 340.94986
362.0 0.002762 340.55609 340.55722
349.0 0.002865 340.16525 340.16638
367.0 0.002725 339.77646 339.77759
365.0 0.002740 339.38950 339.39059
364.0 0.002747 339.00439 339.00546
354.0 0.002825 338.62112 338.62219
348.0 0.002874 338.23975 338.24081
338.0 0.002959 337.86014 337.86118
360.0 0.002778 337.48218 337.48322
369.0 0.002710 337.10626 337.10727
359.0 0.002786 336.73199 336.73300
332.0 0.003012 336.35947 336.36047
352.0 0.002841 335.98868 335.98965
333.0 0.003003 335.61957 335.62054
345.0 0.002899 335.25223 335.25320
364.0 0.002747 334.88651 334.88748
361.0 0.002770 334.52252 334.52347
346.0 0.002890 334.16016 334.16107
381.0 0.002625 333.79938 333.80029
351.0 0.002849 333.44022 333.44113
331.0 0.003021 333.08273 333.08365
317.0 0.003155 332.72681 332.72769
324.0 0.003086 332.37244 332.37332
361.0 0.002770 332.01968 332.02057
336.0 0.002976 331.66846 331.66928
306.0 0.003268 331.31873 331.31958
320.0 0.003125 330.97058 330.97141
356.0 0.002809 330.62387 330.62466
334.0 0.002994 330.27869 330.27948
346.0 0.002890 329.93497 329.93576
322.0 0.003106 329.59271 329.59351
329.0 0.003040 329.25189 329.25269
331.0 0.003021 328.91251 328.91327
341.0 0.002933 328.57462 328.57538
368.0 0.002717 328.23807 328.23880
301.0 0.003322 327.90295 327.90369
340.0 0.002941 327.56912 327.56982
331.0 0.003021 327.23676 327.23746
330.0 0.003030 326.90573 326.90643
300.0 0.003333 326.57599 326.57669
331.0 0.003021 326.24768 326.24835
308.0 0.003247 325.92062 325.92130
328.0 0.003049 325.59491 325.59555
321.0 0.003115 325.27042 325.27106
360.0 0.002778 324.94727 324.94791
336.0 0.002976 324.62537 324.62598
316.0 0.003165 324.30472 324.30530
341.0 0.002933 323.98532 323.98590
342.0 0.002924 323.66714 323.66776
305.0 0.003279 323.35022 323.35080
314.0 0.003185 323.03436 323.03494
306.0 0.003268 322.71994 322.72049
347.0 0.002882 322.40656 322.40710
326.0 0.003067 322.09436 322.09488
323.0 0.003096 321.78339 321.78391
365.0 0.002740 321.47351 321.47403
339.0 0.002950 321.16479 321.16528
337.0 0.002967 320.85709 320.85757
335.0 0.002985 320.55069 320.55118
318.0 0.003145 320.24536 320.24582
327.0 0.003058 319.94104 319.94150
303.0 0.003300 319.63788 319.63834
332.0 0.003012 319.33578 319.33621
366.0 0.002732 319.03470 319.03513
328.0 0.003049 318.73465 318.73508
292.0 0.003425 318.43579 318.43622
304.0 0.003289 318.13794 318.13831
320.0 0.003125 317.84103 317.84140
328.0 0.003049 317.54520 317.54556
332.0 0.003012 317.25031 317.25067
297.0 0.003367 316.95648 316.95682
300.0 0.003333 316.66357 316.66391
312.0 0.003205 316.37170 316.37204
323.0 0.003096 316.08075 316.08109
320.0 0.003125 315.79077 315.79108
316.0 0.003165 315.50174 315.50204
348.0 0.002874 315.21371 315.21399
300.0 0.003333 314.92651 314.92679
327.0 0.003058 314.64029 314.64053
324.0 0.003086 314.35498 314.35522
283.0 0.00353 314.07059 314.07080
332.0 0.003012 313.78705 313.78729
333.0 0.003003 313.50443 313.50464
312.0 0.003205 313.22266 313.22287
289.0 0.003460 312.94177 312.94199
302.0 0.003311 312.66171 312.66190
318.0 0.003145 312.38257 312.38275
318.0 0.003145 312.10425 312.10443
291.0 0.003436 311.82672 311.82687
326.0 0.003067 311.55005 311.55020
349.0 0.002865 311.27423 311.27435
329.0 0.003040 310.99915 310.99927
292.0 0.003425 310.72495 310.72507
338.0 0.002959 310.45151 310.45160
350.0 0.002857 310.17883 310.17892
321.0 0.003115 309.90686 309.90695
304.0 0.003289 309.63586 309.63593
333.0 0.003003 309.36554 309.36560
292.0 0.003425 309.09592 309.09598
317.0 0.003155 308.82709 308.82712
298.0 0.003356 308.55899 308.55902
309.0 0.003236 308.29166 308.29169
322.0 0.003106 308.02496 308.02496
340.0 0.002941 307.75909 307.75912
330.0 0.003030 307.49396 307.49396
310.0 0.003226 307.22940 307.22940
290.0 0.003448 306.96564 307.02283
291.0 0.003436 306.70258 306.76105
300.0 0.003333 306.44012 306.49991
286.0 0.003497 306.17834 306.23947
311.0 0.003215 305.91736 305.97989
288.0 0.003472 305.65698 305.72095
311.0 0.003215 305.39719 305.46268
274.0 0.00365 305.13815 305.20520
293.0 0.003413 304.87973 304.94839
297.0 0.003367 304.62189 304.69223
315.0 0.003175 304.36469 304.43674
272.0 0.00368 304.10822 304.18207
317.0 0.003155 303.85229 303.92804
313.0 0.003195 303.59702 303.67468
293.0 0.003413 303.34235 303.42203
316.0 0.003165 303.08823 303.17001
311.0 0.003215 302.83478 302.91873
304.0 0.003289 302.58182 302.66806
305.0 0.003279 302.32956 302.41815
305.0 0.003279 302.07785 302.16888
307.0 0.003257 301.82666 301.92029
328.0 0.003049 301.57608 301.67239
275.0 0.00364 301.32605 301.42517
298.0 0.003356 301.07660 301.17865
323.0 0.003096 300.82764 300.93271
330.0 0.003030 300.57932 300.68759
272.0 0.00368 300.33151 300.44315
273.0 0.00366 300.08417 300.19931
321.0 0.003115 299.83749 299.95627
282.0 0.00355 299.59125 299.71384
291.0 0.003436 299.34552 299.47214
278.0 0.00360 299.10031 299.23117
294.0 0.003401 298.85565 298.99097
275.0 0.00364 298.61145 298.75146
302.0 0.003311 298.36777 298.51270
319.0 0.003135 298.12457 298.27469
316.0 0.003165 297.88193 298.03751
298.0 0.003356 297.63968 297.80106
303.0 0.003300 297.39792 297.56546
322.0 0.003106 297.15674 297.33072
320.0 0.003125 296.91595 297.09677
285.0 0.00351 296.67566 296.86374
291.0 0.003436 296.43579 296.63156
266.0 0.00376 296.19638 296.40036
291.0 0.003436 295.95749 296.17017
287.0 0.003484 295.71899 295.94098
304.0 0.003289 295.48099 295.71286
282.0 0.00355 295.24341 295.48581
310.0 0.003226 295.00623 295.26001
267.0 0.00375 294.76950 295.03537
294.0 0.003401 294.53320 294.81210
281.0 0.00356 294.29733 294.59024
288.0 0.003472 294.06189 294.36987
287.0 0.003484 293.82687 294.15109
299.0 0.003344 293.59225 293.93405
305.0 0.003279 293.35797 293.71881
296.0 0.003378 293.12424 293.50574
291.0 0.003436 292.89081 293.29483
283.0 0.00353 292.65784 293.08640
289.0 0.003460 292.42523 292.88058
295.0 0.003390 292.19296 292.67780
295.0 0.003390 291.96118 292.47836
276.0 0.00362 291.72964 292.28253
291.0 0.003436 291.49863 292.09103
287.0 0.003484 291.26791 291.90424
312.0 0.003205 291.03760 291.72281
287.0 0.003484 290.80765 291.54767
292.0 0.003425 290.57803 291.37958
282.0 0.00355 290.34885 291.21991
301.0 0.003322 290.11990 291.06992
289.0 0.003460 289.89145 290.93149
284.0 0.00352 289.66330 290.80676
309.0 0.003236 289.43549 290.69839
294.0 0.003401 289.20804 290.60999
307.0 0.003257 288.98090 290.54590
279.0 0.00358 288.75409 290.51196
277.0 0.00361 288.52759 290.51584
285.0 0.00351 288.30157 290.56772
313.0 0.003195 288.07574 290.68140
319.0 0.003135 287.85031 290.87622
292.0 0.003425 287.62518 291.17941
337.0 0.002967 287.40036 291.63248
330.0 0.003030 287.17590 292.30167
340.0 0.002941 286.95166 293.30380
351.0 0.002849 286.72784 294.85199
348.0 0.002874 286.50430 297.32742
341.0 0.002933 286.28104 301.34171
362.0 0.002762 286.05814 307.71240
329.0 0.003040 285.83548 317.26178
335.0 0.002985 285.61316 330.16214
369.0 0.002710 285.39108 344.20465
340.0 0.002941 285.16940 352.44824
392.0 0.002551 284.94794 348.05588
319.0 0.003135 284.72678 334.65961
334.0 0.002994 284.50592 320.42249
336.0 0.002976 284.28531 309.14127
287.0 0.003484 284.06503 301.23660
288.0 0.003472 283.84497 296.01178
334.0 0.002994 283.62524 292.61029
269.0 0.00372 283.40579 290.33228
299.0 0.003344 283.18658 288.71722
287.0 0.003484 282.96765 287.49954
283.0 0.00353 282.74899 286.53302
297.0 0.003367 282.53061 285.73691
283.0 0.00353 282.31247 285.06232
292.0 0.003425 282.09460 284.47784
291.0 0.003436 281.87704 283.96146
264.0 0.00379 281.65970 283.49750
264.0 0.00379 281.44263 283.07477
261.0 0.00383 281.22577 282.68460
274.0 0.00365 281.00919 282.32071
264.0 0.00379 280.79285 281.97812
274.0 0.00365 280.57678 281.65305
255.0 0.00392 280.36096 281.34253
275.0 0.00364 280.14536 281.04410
258.0 0.00388 279.92999 280.75592
271.0 0.00369 279.71490 280.47647
256.0 0.00391 279.50006 280.20444
285.0 0.00351 279.28543 279.93884
270.0 0.00370 279.07101 279.67874
237.0 0.00422 278.85687 279.42352
286.0 0.003497 278.64288 279.17245
285.0 0.00351 278.42923 278.92529
299.0 0.003344 278.21576 278.68130
309.0 0.003236 278.00250 278.44031
252.0 0.00397 277.78952 278.20193
266.0 0.00376 277.57672 277.96594
247.0 0.00405 277.36417 277.73203
270.0 0.00370 277.15173 277.49994
278.0 0.00360 276.93967 277.26978
285.0 0.00351 276.72778 277.04114
281.0 0.00356 276.51605 276.81390
277.0 0.00361 276.30460 276.58807
289.0 0.003460 276.09332 276.36343
295.0 0.003390 275.88229 276.13992
278.0 0.00360 275.67139 275.91739
294.0 0.003401 275.46082 275.69598
280.0 0.00357 275.25037 275.47537
265.0 0.00377 275.04016 275.25565
271.0 0.00369 274.83017 275.03674
278.0 0.00360 274.62033 274.81848
281.0 0.00356 274.41074 274.60101
257.0 0.00389 274.20129 274.38416
280.0 0.00357 273.99216 274.16800
240.0 0.00417 273.78314 273.95239
268.0 0.00373 273.57431 273.73730
267.0 0.00375 273.36575 273.52283
265.0 0.00377 273.15732 273.30878
266.0 0.00376 272.94910 273.09528
272.0 0.00368 272.74100 272.88214
242.0 0.00413 272.53323 272.66959
260.0 0.00385 272.32559 272.45743
285.0 0.00351 272.11813 272.24561
263.0 0.00380 271.91089 272.03424
288.0 0.003472 271.70383 271.82327
254.0 0.00394 271.49692 271.61261
296.0 0.003378 271.29022 271.40234
262.0 0.00382 271.08374 271.19247
248.0 0.00403 270.87741 270.98285
291.0 0.003436 270.67126 270.77359
276.0 0.00362 270.46530 270.56467
259.0 0.00386 270.25952 270.35602
250.0 0.00400 270.05389 270.14771
260.0 0.00385 269.84848 269.93964
270.0 0.00370 269.64328 269.73193
266.0 0.00376 269.43820 269.52444
268.0 0.00373 269.23328 269.31720
261.0 0.00383 269.02859 269.11026
274.0 0.00365 268.82407 268.90363
244.0 0.00410 268.61969 268.69720
254.0 0.00394 268.41550 268.49103
300.0 0.003333 268.21152 268.28516
254.0 0.00394 268.00769 268.07947
272.0 0.00368 267.80399 267.87402
271.0 0.00369 267.60049 267.66882
252.0 0.00397 267.39722 267.46387
278.0 0.00360 267.19400 267.25909
270.0 0.00370 266.99106 267.05460
221.0 0.00452 266.78824 266.85028
244.0 0.00410 266.58557 266.64624
267.0 0.00375 266.38312 266.44235
255.0 0.00392 266.18079 266.23871
252.0 0.00397 265.97867 265.97760
254.0 0.00394 265.77667 265.77560
267.0 0.00375 265.57486 265.57379
265.0 0.00377 265.37320 265.37213
245.0 0.00408 265.17172 265.17065
296.0 0.003378 264.97034 264.96924
255.0 0.00392 264.76923 264.76816
240.0 0.00417 264.56821 264.56714
238.0 0.00420 264.36737 264.36630
258.0 0.00388 264.16672 264.16565
239.0 0.00418 263.96619 263.96509
275.0 0.00364 263.76584 263.76477
246.0 0.00407 263.56558 263.56451
260.0 0.00385 263.36560 263.36453
252.0 0.00397 263.16577 263.16467
246.0 0.00407 262.96600 262.96490
268.0 0.00373 262.76648 262.76538
265.0 0.00377 262.56708 262.56598
242.0 0.00413 262.36783 262.36673
240.0 0.00417 262.16867 262.16760
255.0 0.00392 261.96982 261.96872
267.0 0.00375 261.77103 261.76993
252.0 0.00397 261.57239 261.57132
249.0 0.00402 261.37396 261.37286
260.0 0.00385 261.17566 261.17456
254.0 0.00394 260.97748 260.97641
255.0 0.00392 260.77945 261.28540
260.0 0.00385 260.58167 261.09897
250.0 0.00400 260.38397 260.91302
264.0 0.00379 260.18643 260.72760
245.0 0.00408 259.98907 260.54282
214.0 0.00467 259.79181 260.60559
290.0 0.003448 259.59479 260.42752
272.0 0.00368 259.39783 260.25027
248.0 0.00403 259.20108 260.07388
280.0 0.00357 259.00446 259.89838
220.0 0.00455 258.80801 259.72385
289.0 0.003460 258.61172 259.55023
232.0 0.00431 258.41553 259.37759
277.0 0.00361 258.21954 259.20605
240.0 0.00417 258.02368 259.03561
242.0 0.00413 257.82797 258.86627
245.0 0.00408 257.63242 258.69818
232.0 0.00431 257.43701 258.53131
254.0 0.00394 257.24179 258.36578
261.0 0.00383 257.04666 258.20157
267.0 0.00375 256.85172 258.03882
266.0 0.00376 256.65689 257.87759
235.0 0.00426 256.46225 257.71796
213.0 0.00469 256.26776 257.56006
257.0 0.00389 256.07339 257.40384
261.0 0.00383 255.87923 257.24957
266.0 0.00376 255.68515 257.09720
230.0 0.00435 255.49126 256.94693
244.0 0.00410 255.29749 256.79889
262.0 0.00382 255.10393 256.65317
255.0 0.00392 254.91046 256.50992
242.0 0.00413 254.71715 256.36932
253.0 0.00395 254.52399 256.23148
262.0 0.00382 254.33099 256.09665
243.0 0.00412 254.13811 255.96494
264.0 0.00379 253.94543 255.83669
253.0 0.00395 253.75288 255.71201
254.0 0.00394 253.56046 255.59119
234.0 0.00427 253.36818 255.47452
216.0 0.00463 253.17610 255.36234
245.0 0.00408 252.98412 255.25488
235.0 0.00426 252.79230 255.15260
232.0 0.00431 252.60065 255.05588
283.0 0.00353 252.40915 254.96515
244.0 0.00410 252.21777 254.88091
247.0 0.00405 252.02649 254.80363
253.0 0.00395 251.83548 254.73407
284.0 0.00352 251.64459 254.67282
264.0 0.00379 251.45378 254.62053
270.0 0.00370 251.26320 254.57817
264.0 0.00379 251.07271 254.54660
258.0 0.00388 250.88239 254.52687
256.0 0.00391 250.69217 254.52020
254.0 0.00394 250.50218 254.52792
267.0 0.00375 250.31230 254.55151
219.0 0.00457 250.12256 254.59270
264.0 0.00379 249.93300 254.65338
246.0 0.00407 249.74358 254.73589
243.0 0.00412 249.55428 254.84274
242.0 0.00413 249.36511 254.97693
230.0 0.00435 249.17618 255.14183
267.0 0.00375 248.98735 255.34152
270.0 0.00370 248.79868 255.58057
249.0 0.00402 248.61015 255.86438
261.0 0.00383 248.42175 256.19958
278.0 0.00360 248.23354 256.59375
271.0 0.00369 248.04541 257.05612
266.0 0.00376 247.85753 257.59744
252.0 0.00397 247.66977 258.23126
268.0 0.00373 247.48212 258.97394
263.0 0.00380 247.29466 259.84494
286.0 0.003497 247.10732 260.86963
287.0 0.003484 246.92015 262.07855
242.0 0.00413 246.73309 263.51160
284.0 0.00352 246.54623 265.21799
258.0 0.00388 246.35953 267.26355
292.0 0.003425 246.17296 269.73431
303.0 0.003300 245.98653 272.74255
298.0 0.003356 245.80026 276.44510
282.0 0.00355 245.61414 281.05682
270.0 0.00370 245.42816 286.89380
309.0 0.003236 245.24236 294.43890
313.0 0.003195 245.05672 304.51135
334.0 0.002994 244.87119 318.56363
375.0 0.002667 244.68587 339.14905
411.0 0.002433 244.50063 370.48032
400.0 0.002500 244.31558 418.53705
521.0 0.001919 244.13066 490.25385
558.0 0.001792 243.94592 590.55377
692.0 0.001445 243.76134 714.66791
841.0 0.001189 243.57689 830.97870
894.0 0.001119 243.39259 879.76135
919.0 0.001088 243.20847 842.70068
775.0 0.001290 243.02449 775.19867
731.0 0.001368 242.84064 724.79321
658.0 0.001520 242.65700 689.96313
660.0 0.001515 242.47348 639.83606
583.0 0.001715 242.29010 563.93616
510.0 0.001961 242.10690 484.40521
418.0 0.002392 241.92386 418.97006
352.0 0.002841 241.74094 371.05475
350.0 0.002857 241.55820 337.89413
312.0 0.003205 241.37564 315.44702
311.0 0.003215 241.19319 300.13553
295.0 0.003390 241.01091 289.32739
253.0 0.00395 240.82878 281.34793
237.0 0.00422 240.64682 275.20078
244.0 0.00410 240.46501 270.31329
249.0 0.00402 240.28337 266.33832
252.0 0.00397 240.10187 263.04742
252.0 0.00397 239.92055 260.28491
252.0 0.00397 239.73929 257.93622
280.0 0.00357 239.55832 255.91840
278.0 0.00360 239.37746 254.16621
273.0 0.00366 239.19673 252.63103
245.0 0.00408 239.01620 251.27493
243.0 0.00412 238.83580 250.06709
277.0 0.00361 238.65561 248.98398
280.0 0.00357 238.47545 248.00571
265.0 0.00377 238.29558 247.11731
233.0 0.00429 238.11581 246.30528
248.0 0.00403 237.93619 245.55919
237.0 0.00422 237.75677 244.87036
262.0 0.00382 237.57748 244.23111
250.0 0.00400 237.39835 243.63531
263.0 0.00380 237.21936 243.07764
253.0 0.00395 237.04060 242.55386
256.0 0.00391 236.86194 242.05975
245.0 0.00408 236.68344 241.59218
236.0 0.00424 236.50514 241.14839
251.0 0.00398 236.32698 240.72566
234.0 0.00427 236.14897 240.32195
214.0 0.00467 235.97108 239.93529
212.0 0.00472 235.79346 239.56425
205.0 0.00488 235.61595 239.20717
252.0 0.00397 235.43858 238.86270
230.0 0.00435 235.26140 238.52991
235.0 0.00426 235.08437 238.20760
247.0 0.00405 234.90749 237.89493
216.0 0.00463 234.73076 237.59108
267.0 0.00375 234.55424 237.29543
219.0 0.00457 234.37785 237.00719
233.0 0.00429 234.20164 236.72581
265.0 0.00377 234.02559 236.45082
256.0 0.00391 233.84969 236.18167
255.0 0.00392 233.67398 235.91800
252.0 0.00397 233.49841 235.65933
230.0 0.00435 233.32304 235.40543
233.0 0.00429 233.14780 235.15584
236.0 0.00424 232.97272 234.91032
252.0 0.00397 232.79784 234.66869
229.0 0.00437 232.62308 234.43053
234.0 0.00427 232.44850 234.19572
236.0 0.00424 232.27408 233.96405
254.0 0.00394 232.09985 233.73535
229.0 0.00437 231.92580 233.50938
243.0 0.00412 231.75186 233.28600
226.0 0.00442 231.57811 233.06506
261.0 0.00383 231.40454 232.84645
268.0 0.00373 231.23116 232.63005
231.0 0.00433 231.05788 232.41565
227.0 0.00441 230.88480 232.20323
233.0 0.00429 230.71190 231.99269
233.0 0.00429 230.53915 231.78387
215.0 0.00465 230.36658 231.57674
233.0 0.00429 230.19417 231.61954
230.0 0.00435 230.02193 231.41994
239.0 0.00418 229.84985 231.22188
229.0 0.00437 229.67796 231.02533
235.0 0.00426 229.50623 230.83017
237.0 0.00422 229.33466 230.63641
259.0 0.00386 229.16325 230.53560
221.0 0.00452 228.99205 230.34615
251.0 0.00398 228.82097 230.15790
259.0 0.00386 228.65010 229.97098
254.0 0.00394 228.47939 229.78526
252.0 0.00397 228.30882 229.60071
247.0 0.00405 228.13840 229.41727
234.0 0.00427 227.96822 229.23503
229.0 0.00437 227.79820 229.05391
249.0 0.00402 227.62833 228.87383
223.0 0.00448 227.45865 228.69485
215.0 0.00465 227.28911 228.01537
228.0 0.00439 227.11981 227.84929
248.0 0.00403 226.95053 227.68376
233.0 0.00429 226.78156 227.51901
238.0 0.00420 226.61272 227.10674
248.0 0.00403 226.44406 226.94873
240.0 0.00417 226.27557 226.79124
217.0 0.00461 226.10724 226.63429
226.0 0.00442 225.93910 226.47791
238.0 0.00420 225.77106 226.32202
208.0 0.00481 225.60330 226.16681
217.0 0.00461 225.43564 226.01215
222.0 0.00450 225.26823 225.85820
217.0 0.00461 225.10095 225.70483
215.0 0.00465 224.93382 225.55214
246.0 0.00407 224.76689 225.40015
226.0 0.00442 224.60017 225.24892
231.0 0.00433 224.43355 225.09837
216.0 0.00463 224.26707 224.94858
206.0 0.00485 224.10089 224.79968
211.0 0.00474 223.93481 224.65160
222.0 0.00450 223.76892 224.50436
227.0 0.00441 223.60321 224.35806
238.0 0.00420 223.43768 224.21271
266.0 0.00376 223.27229 224.06833
209.0 0.00478 223.10706 223.92499
223.0 0.00448 222.94211 223.78282
213.0 0.00469 222.77725 223.64172
204.0 0.00490 222.61259 223.50182
231.0 0.00433 222.44812 223.36322
237.0 0.00422 222.28380 223.22589
259.0 0.00386 222.11964 223.08992
252.0 0.00397 221.95564 222.95543
256.0 0.00391 221.79193 222.82257
226.0 0.00442 221.62834 222.69130
234.0 0.00427 221.46487 222.56168
257.0 0.00389 221.30164 222.43391
222.0 0.00450 221.13855 222.30807
262.0 0.00382 220.97566 222.18430
226.0 0.00442 220.81288 222.06261
234.0 0.00427 220.65039 221.94334
220.0 0.00455 220.48801 221.82648
227.0 0.00441 220.32582 221.71223
239.0 0.00418 220.16380 221.60081
215.0 0.00465 220.00200 221.49239
216.0 0.00463 219.84033 221.38715
213.0 0.00469 219.67880 221.28532
208.0 0.00481 219.51759 221.18733
214.0 0.00467 219.35643 221.09317
228.0 0.00439 219.19550 221.00337
227.0 0.00441 219.03473 220.91821
213.0 0.00469 218.87416 220.83806
242.0 0.00413 218.71375 220.76334
229.0 0.00437 218.55347 220.69453
223.0 0.00448 218.39351 220.63220
249.0 0.00402 218.23363 220.57684
211.0 0.00474 218.07393 220.52916
230.0 0.00435 217.91441 220.48987
241.0 0.00415 217.75510 220.45982
241.0 0.00415 217.59595 220.43996
240.0 0.00417 217.43692 220.43126
226.0 0.00442 217.27823 220.43503
220.0 0.00455 217.11958 220.45251
216.0 0.00463 216.96115 220.48534
211.0 0.00474 216.80290 220.53525
221.0 0.00452 216.64484 220.60440
209.0 0.00478 216.48695 220.69510
206.0 0.00485 216.32919 220.81015
214.0 0.00467 216.17177 220.95268
210.0 0.00476 216.01437 221.12653
236.0 0.00424 215.85721 221.33623
215.0 0.00465 215.70023 221.58690
249.0 0.00402 215.54343 221.88501
211.0 0.00474 215.38681 222.23805
220.0 0.00455 215.23032 222.65524
221.0 0.00452 215.07416 223.14723
220.0 0.00455 214.91801 223.72806
231.0 0.00433 214.76213 224.41443
211.0 0.00474 214.60641 225.22701
218.0 0.00459 214.45090 226.19261
217.0 0.00461 214.29555 227.34453
216.0 0.00463 214.14032 228.72638
223.0 0.00448 213.98543 230.39304
225.0 0.00444 213.83058 232.42148
241.0 0.00415 213.67593 234.91357
231.0 0.00433 213.52151 238.01419
253.0 0.00395 213.36726 241.94231
245.0 0.00408 213.21320 247.03821
249.0 0.00402 213.05923 253.85318
254.0 0.00394 212.90558 263.25439
254.0 0.00394 212.75206 276.57703
293.0 0.003413 212.59869 295.65222
315.0 0.003175 212.44554 322.71414
292.0 0.003425 212.29259 360.00421
400.0 0.002500 212.13976 408.58514
441.0 0.002268 211.98709 465.41565
492.0 0.002033 211.83472 517.96985
477.0 0.002096 211.68246 544.65411
462.0 0.002165 211.53040 534.15576
470.0 0.002128 211.37852 501.12442
414.0 0.002415 211.22684 467.04694
397.0 0.002519 211.07529 440.54791
380.0 0.002632 210.92390 417.08130
360.0 0.002778 210.77280 388.90790
298.0 0.003356 210.62184 356.01059
271.0 0.00369 210.47104 324.42139
251.0 0.00398 210.32045 298.22809
248.0 0.00403 210.17003 278.10925
249.0 0.00402 210.01978 263.21423
245.0 0.00408 209.86967 252.34338
248.0 0.00403 209.71986 244.40173
232.0 0.00431 209.57019 238.49759
244.0 0.00410 209.42067 233.99416
245.0 0.00408 209.27138 230.45720
213.0 0.00469 209.12221 227.60175
216.0 0.00463 208.97327 225.24583
222.0 0.00450 208.82443 223.26758
221.0 0.00452 208.67592 221.58485
241.0 0.00415 208.52751 220.13483
216.0 0.00463 208.37927 218.87309
234.0 0.00427 208.23128 217.76520
249.0 0.00402 208.08339 216.78360
258.0 0.00388 207.93571 215.90712
234.0 0.00427 207.78828 215.11949
241.0 0.00415 207.64095 214.40604
226.0 0.00442 207.49382 213.75612
240.0 0.00417 207.34686 213.16054
233.0 0.00429 207.20016 212.61195
210.0 0.00476 207.05356 212.10376
211.0 0.00474 206.90712 211.63080
194.0 0.00515 206.76097 211.18906
212.0 0.00472 206.61496 210.77429
215.0 0.00465 206.46912 210.38348
215.0 0.00465 206.32347 210.01395
224.0 0.00446 206.17804 209.66335
186.0 0.00538 206.03273 209.32951
192.0 0.00521 205.88757 209.01071
229.0 0.00437 205.74271 208.70569
212.0 0.00472 205.59798 208.41277
212.0 0.00472 205.45343 208.13087
244.0 0.00410 205.30905 207.85899
220.0 0.00455 205.16492 207.59627
206.0 0.00485 205.02089 207.34174
214.0 0.00467 204.87701 207.09471
204.0 0.00490 204.73344 206.85477
201.0 0.00498 204.59000 206.62108
218.0 0.00459 204.44672 206.39320
211.0 0.00474 204.30363 206.17068
238.0 0.00420 204.16078 205.95320
227.0 0.00441 204.01804 205.74019
228.0 0.00439 203.87544 205.53139
224.0 0.00446 203.73315 205.32664
203.0 0.00493 203.59097 205.12550
213.0 0.00469 203.44899 204.92773
232.0 0.00431 203.30721 204.73317
242.0 0.00413 203.16559 204.54155
221.0 0.00452 203.02415 204.35271
247.0 0.00405 202.88286 204.16640
199.0 0.00503 202.74182 203.98264
211.0 0.00474 202.60098 203.80113
207.0 0.00483 202.46025 203.62170
216.0 0.00463 202.31973 203.44435
220.0 0.00455 202.17938 203.26889
205.0 0.00488 202.03925 203.09528
213.0 0.00469 201.89922 202.92326
199.0 0.00503 201.75949 202.75299
217.0 0.00461 201.61992 202.58421
222.0 0.00450 201.48047 202.41684
223.0 0.00448 201.34120 202.25085
196.0 0.00510 201.20216 202.08621
206.0 0.00485 201.06329 201.92281
204.0 0.00490 200.92455 201.76054
179.0 0.00559 200.78612 201.59953
200.0 0.00500 200.64777 201.43953
198.0 0.00505 200.50961 201.28053
193.0 0.00518 200.37163 201.12256
204.0 0.00490 200.23386 200.96556
234.0 0.00427 200.09625 200.80945
211.0 0.00474 199.95880 200.65417
197.0 0.00508 199.82162 200.49985
210.0 0.00476 199.68454 200.34624
204.0 0.00490 199.54768 200.19345
188.0 0.00532 199.41098 200.04140
187.0 0.00535 199.27448 199.89008
198.0 0.00505 199.13814 199.73946
219.0 0.00457 199.00195 199.58943
204.0 0.00490 198.86607 199.44023
209.0 0.00478 198.73024 199.29150
210.0 0.00476 198.59464 199.14345
221.0 0.00452 198.45924 198.99602
176.0 0.00568 198.32397 198.84909
206.0 0.00485 198.18892 198.70276
204.0 0.00490 198.05400 198.55690
228.0 0.00439 197.91937 198.41171
215.0 0.00465 197.78482 198.26692
204.0 0.00490 197.65048 198.12265
188.0 0.00532 197.51633 197.97887
203.0 0.00493 197.38232 197.83554
201.0 0.00498 197.24852 197.69269
191.0 0.00524 197.11488 197.55026
194.0 0.00515 196.98154 197.40839
198.0 0.00505 196.84824 197.26680
206.0 0.00485 196.71515 197.12570
193.0 0.00518 196.58226 196.98500
212.0 0.00472 196.44954 196.84470
216.0 0.00463 196.31700 196.70477
185.0 0.00541 196.18460 196.56522
186.0 0.00538 196.05249 196.42613
193.0 0.00518 195.92047 196.28731
208.0 0.00481 195.78864 196.14888
215.0 0.00465 195.65700 195.75845
188.0 0.00532 195.52554 195.62517
187.0 0.00535 195.39426 195.49208
199.0 0.00503 195.26309 195.35915
220.0 0.00455 195.13226 195.22661
183.0 0.00546 195.00146 195.09416
191.0 0.00524 194.87090 194.87106
183.0 0.00546 194.74052 194.74068
195.0 0.00513 194.61032 194.61049
194.0 0.00515 194.48026 194.48042
180.0 0.00556 194.35036 194.35052
217.0 0.00461 194.22072 194.22089
193.0 0.00518 194.09123 194.09140
181.0 0.00552 193.96190 193.96208
208.0 0.00481 193.83276 193.83293
192.0 0.00521 193.70383 193.70401
193.0 0.00518 193.57500 193.57518
204.0 0.00490 193.44633 193.44653
175.0 0.00571 193.31795 193.31813
204.0 0.00490 193.18968 193.18988
211.0 0.00474 193.06160 193.06180
207.0 0.00483 192.93370 192.93390
189.0 0.00529 192.80597 192.80618
217.0 0.00461 192.67841 192.67860
202.0 0.00495 192.55099 192.55119
200.0 0.00500 192.42383 192.42404
195.0 0.00513 192.29680 192.29701
191.0 0.00524 192.16994 192.17015
180.0 0.00556 192.04330 192.04352
195.0 0.00513 191.91676 191.91699
189.0 0.00529 191.79045 191.79068
210.0 0.00476 191.66425 191.66447
186.0 0.00538 191.53831 191.53854
191.0 0.00524 191.41254 191.41278
201.0 0.00498 191.28690 191.28714
185.0 0.00541 191.16148 191.16173
191.0 0.00524 191.03618 191.03642
169.0 0.00592 190.91109 190.91133
174.0 0.00575 190.78610 190.78635
184.0 0.00543 190.66139 190.66164
193.0 0.00518 190.53683 190.53708
200.0 0.00500 190.41243 190.41267
182.0 0.00549 190.28822 190.28848
195.0 0.00513 190.16414 190.16440
189.0 0.00529 190.04025 190.04051
185.0 0.00541 189.91658 189.91684
173.0 0.00578 189.79301 189.79327
187.0 0.00535 189.66965 189.66992
193.0 0.00518 189.54646 189.54672
198.0 0.00505 189.42346 189.42374
204.0 0.00490 189.30060 189.30087
208.0 0.00481 189.17787 189.17816
188.0 0.00532 189.05542 189.05569
174.0 0.00575 188.93309 188.93336
176.0 0.00568 188.81094 188.81122
195.0 0.00513 188.68895 188.68924
191.0 0.00524 188.56717 188.56746
179.0 0.00559 188.44550 188.44579
177.0 0.00565 188.32401 188.32430
215.0 0.00465 188.20273 188.20303
191.0 0.00524 188.08160 188.08189
173.0 0.00578 187.96063 187.96094
165.0 0.00606 187.83984 187.84015
173.0 0.00578 187.71927 187.71957
177.0 0.00565 187.59880 187.59911
158.0 0.00633 187.47847 187.47878
182.0 0.00549 187.35841 187.35873
173.0 0.00578 187.23848 187.23880
186.0 0.00538 187.11870 187.11902
183.0 0.00546 186.99910 186.99942
180.0 0.00556 186.87973 186.88005
188.0 0.00532 186.76042 186.76074
202.0 0.00495 186.64130 186.64162
188.0 0.00532 186.52242 186.52275
177.0 0.00565 186.40370 186.40402
172.0 0.00581 186.28506 186.28540
195.0 0.00513 186.16667 186.16699
181.0 0.00552 186.04842 186.04875
178.0 0.00562 185.93033 185.93066
177.0 0.00565 185.81239 185.81273
187.0 0.00535 185.69469 185.69502
195.0 0.00513 185.57713 185.57748
189.0 0.00529 185.45970 185.46005
199.0 0.00503 185.34245 185.34280
175.0 0.00571 185.22537 185.22572
182.0 0.00549 185.10847 185.10883
156.0 0.00641 184.99168 184.99203
194.0 0.00515 184.87518 184.87553
189.0 0.00529 184.75877 184.75912
196.0 0.00510 184.64250 184.64285
161.0 0.00621 184.52643 184.52678
189.0 0.00529 184.41051 184.41087
191.0 0.00524 184.29477 184.29514
189.0 0.00529 184.17915 184.17950
173.0 0.00578 184.06380 184.06416
176.0 0.00568 183.94852 183.94888
180.0 0.00556 183.83344 183.83380
184.0 0.00543 183.71851 183.71887
176.0 0.00568 183.60376 183.60413
192.0 0.00521 183.48915 183.48953
201.0 0.00498 183.37469 183.37508
180.0 0.00556 183.26050 183.26088
165.0 0.00606 183.14636 183.14674
161.0 0.00621 183.03244 183.03281
179.0 0.00559 182.91866 182.91902
178.0 0.00562 182.80504 182.80542
191.0 0.00524 182.69160 182.69199
216.0 0.00463 182.57828 182.57866
191.0 0.00524 182.46523 182.46561
181.0 0.00552 182.35223 182.35262
185.0 0.00541 182.23941 182.23981
179.0 0.00559 182.12682 182.12721
197.0 0.00508 182.01431 182.01469
166.0 0.00602 181.90201 181.90240
184.0 0.00543 181.78981 181.79021
182.0 0.00549 181.67789 181.67828
177.0 0.00565 181.56602 181.56642
205.0 0.00488 181.45436 181.45476
175.0 0.00571 181.34285 181.34325
178.0 0.00562 181.23149 181.23190
167.0 0.00599 181.12030 181.12070
186.0 0.00538 181.00925 181.00964
161.0 0.00621 180.89844 180.89885
188.0 0.00532 180.78769 180.78810
167.0 0.00599 180.67715 180.67757
179.0 0.00559 180.56676 180.56717
181.0 0.00552 180.45653 180.45694
182.0 0.00549 180.34647 180.34686
197.0 0.00508 180.23651 180.23691
204.0 0.00490 180.12682 180.12723
199.0 0.00503 180.01718 180.01759
177.0 0.00565 179.90776 179.90817
170.0 0.00588 179.79848 179.79889
170.0 0.00588 179.68935 179.68976
166.0 0.00602 179.58037 179.58078
180.0 0.00556 179.47153 179.47194
190.0 0.00526 179.36295 179.36337
166.0 0.00602 179.25443 179.25484
152.0 0.00658 179.14607 179.14648
162.0 0.00617 179.03790 179.03833
167.0 0.00599 178.92990 178.93033
179.0 0.00559 178.82201 178.82242
175.0 0.00571 178.71425 178.71468
164.0 0.00610 178.60674 178.60715
190.0 0.00526 178.49933 178.49976
175.0 0.00571 178.39209 178.39250
193.0 0.00518 178.28499 178.28540
182.0 0.00549 178.17807 178.17850
199.0 0.00503 178.07126 178.07169
185.0 0.00541 177.96460 177.96503
183.0 0.00546 177.85815 177.85858
177.0 0.00565 177.75185 177.75227
193.0 0.00518 177.64568 177.64610
173.0 0.00578 177.53969 177.54012
199.0 0.00503 177.43384 177.43427
169.0 0.00592 177.32808 177.32852
183.0 0.00546 177.22250 177.22293
226.0 0.00442 177.11714 177.11757
196.0 0.00510 177.01189 177.01231
186.0 0.00538 176.90678 176.90721
175.0 0.00571 176.80188 176.80231
158.0 0.00633 176.69704 176.69748
151.0 0.00662 176.59241 176.59283
200.0 0.00500 176.48788 176.48831
173.0 0.00578 176.38359 176.38402
173.0 0.00578 176.27939 176.27982
184.0 0.00543 176.17535 176.17578
158.0 0.00633 176.07150 176.07193
160.0 0.00625 175.96773 175.96817
181.0 0.00552 175.86414 175.86458
199.0 0.00503 175.76074 175.76117
181.0 0.00552 175.65744 175.65787
151.0 0.00662 175.55429 175.55473
173.0 0.00578 175.45131 175.45174
199.0 0.00503 175.34850 175.34894
175.0 0.00571 175.24577 175.24622
195.0 0.00513 175.14323 175.14368
184.0 0.00543 175.04088 175.04132
217.0 0.00461 174.93861 174.93906
201.0 0.00498 174.83652 174.83696
183.0 0.00546 174.73456 174.73500
173.0 0.00578 174.63278 174.63322
147.0 0.00680 174.53111 174.53156
190.0 0.00526 174.42958 174.43001
184.0 0.00543 174.32826 174.32870
154.0 0.00649 174.22705 174.22748
180.0 0.00556 174.12598 174.12642
177.0 0.00565 174.02507 174.02550
165.0 0.00606 173.92432 173.92476
204.0 0.00490 173.82367 173.82410
174.0 0.00575 173.72316 173.72359
150.0 0.00667 173.62285 173.62329
176.0 0.00568 173.52266 173.52310
156.0 0.00641 173.42262 173.42305
185.0 0.00541 173.32272 173.32315
168.0 0.00595 173.22299 173.22343
181.0 0.00552 173.12335 173.12379
142.0 0.00704 173.02386 173.02429
192.0 0.00521 172.92458 172.92502
169.0 0.00592 172.82544 172.82587
165.0 0.00606 172.72636 172.72679
178.0 0.00562 172.62747 172.62790
167.0 0.00599 172.52875 172.52917
177.0 0.00565 172.43013 172.43056
190.0 0.00526 172.33162 172.33206
175.0 0.00571 172.23334 172.23378
154.0 0.00649 172.13519 172.13564
178.0 0.00562 172.03712 172.03755
184.0 0.00543 171.93924 171.93967
180.0 0.00556 171.84149 171.84192
203.0 0.00493 171.74387 171.74431
180.0 0.00556 171.64638 171.64680
152.0 0.00658 171.54909 171.54951
166.0 0.00602 171.45192 171.45235
170.0 0.00588 171.35484 171.35527
160.0 0.00625 171.25795 171.25838
148.0 0.00676 171.16116 171.16162
180.0 0.00556 171.06453 171.06499
159.0 0.00629 170.96803 170.96848
163.0 0.00613 170.87173 170.87219
160.0 0.00625 170.77553 170.77599
182.0 0.00549 170.67943 170.67990
168.0 0.00595 170.58351 170.58398
182.0 0.00549 170.48772 170.48819
183.0 0.00546 170.39207 170.39256
174.0 0.00575 170.29654 170.29701
165.0 0.00606 170.20122 170.20169
186.0 0.00538 170.10596 170.10640
169.0 0.00592 170.01085 170.01131
182.0 0.00549 169.91588 169.91635
166.0 0.00602 169.82106 169.82152
169.0 0.00592 169.72636 169.72679
166.0 0.00602 169.63179 169.63222
169.0 0.00592 169.53743 169.53786
150.0 0.00667 169.44312 169.44353
186.0 0.00538 169.34898 169.34940
185.0 0.00541 169.25499 169.25542
184.0 0.00543 169.16110 169.16151
174.0 0.00575 169.06735 169.06778
165.0 0.00606 168.97374 168.97415
171.0 0.00585 168.88031 168.88072
150.0 0.00667 168.78696 168.78737
158.0 0.00633 168.69377 168.69418
164.0 0.00610 168.60074 168.60115
156.0 0.00641 168.50778 168.50818
169.0 0.00592 168.41501 168.41542
172.0 0.00581 168.32230 168.32269
167.0 0.00599 168.22981 168.23022
164.0 0.00610 168.13739 168.13780
167.0 0.00599 168.04512 168.04553
172.0 0.00581 167.95300 167.95341
168.0 0.00595 167.86101 167.86142
190.0 0.00526 167.76915 167.76955
160.0 0.00625 167.67740 167.67780
178.0 0.00562 167.58585 167.58624
170.0 0.00588 167.49435 167.49475
169.0 0.00592 167.40302 167.40341
140.0 0.00714 167.31180 167.31219
165.0 0.00606 167.22073 167.22113
162.0 0.00617 167.12978 167.13017
164.0 0.00610 167.03896 167.03934
165.0 0.00606 166.94832 166.94870
146.0 0.00685 166.85774 166.85812
178.0 0.00562 166.76732 166.76772
153.0 0.00654 166.67702 166.67741
143.0 0.00699 166.58688 166.58727
164.0 0.00610 166.49681 166.49721
148.0 0.00676 166.40688 166.40726
170.0 0.00588 166.31717 166.31755
169.0 0.00592 166.22749 166.22787
148.0 0.00676 166.13797 166.13835
185.0 0.00541 166.04858 166.04897
177.0 0.00565 165.95937 165.95975
140.0 0.00714 165.87019 165.87056
161.0 0.00621 165.78116 165.78152
171.0 0.00585 165.69231 165.69267
176.0 0.00568 165.60355 165.60391
148.0 0.00676 165.51492 165.51530
162.0 0.00617 165.42645 165.42682
162.0 0.00617 165.33809 165.33846
170.0 0.00588 165.24982 165.25018
151.0 0.00662 165.16167 165.16202
182.0 0.00549 165.07370 165.07407
162.0 0.00617 164.98584 164.98619
166.0 0.00602 164.89809 164.89844
152.0 0.00658 164.81050 164.81085
136.0 0.00735 164.72301 164.72336
156.0 0.00641 164.63560 164.63596
145.0 0.00690 164.54832 164.54869
150.0 0.00667 164.46124 164.46159
172.0 0.00581 164.37427 164.37460
164.0 0.00610 164.28738 164.28773
138.0 0.00725 164.20065 164.20100
158.0 0.00633 164.11401 164.11436
157.0 0.00637 164.02751 164.02786
161.0 0.00621 163.94110 163.94145
160.0 0.00625 163.85487 163.85522
187.0 0.00535 163.76874 163.76909
164.0 0.00610 163.68274 163.68307
140.0 0.00714 163.59688 163.59720
151.0 0.00662 163.51109 163.51143
159.0 0.00629 163.42545 163.42578
173.0 0.00578 163.33995 163.34027
140.0 0.00714 163.25452 163.25485
171.0 0.00585 163.16924 163.16957
158.0 0.00633 163.08408 163.08441
152.0 0.00658 162.99907 162.99939
163.0 0.00613 162.91412 162.91444
159.0 0.00629 162.82933 162.82965
165.0 0.00606 162.74467 162.74500
162.0 0.00617 162.66011 162.66042
169.0 0.00592 162.57568 162.57599
157.0 0.00637 162.49133 162.49165
166.0 0.00602 162.40717 162.40747
153.0 0.00654 162.32307 162.32338
171.0 0.00585 162.23907 162.23938
153.0 0.00654 162.15526 162.15556
138.0 0.00725 162.07153 162.07184
161.0 0.00621 161.98793 161.98824
138.0 0.00725 161.90443 161.90474
146.0 0.00685 161.82109 161.82140
155.0 0.00645 161.73784 161.73813
161.0 0.00621 161.65465 161.65494
163.0 0.00613 161.57167 161.57196
144.0 0.00694 161.48880 161.48909
160.0 0.00625 161.40599 161.40628
165.0 0.00606 161.32332 161.32361
166.0 0.00602 161.24078 161.24107
166.0 0.00602 161.15833 161.15862
177.0 0.00565 161.07597 161.07625
156.0 0.00641 160.99380 160.99408
168.0 0.00595 160.91174 160.91202
150.0 0.00667 160.82974 160.83002
169.0 0.00592 160.74789 160.74815
176.0 0.00568 160.66617 160.66643
179.0 0.00559 160.58450 160.58478
140.0 0.00714 160.50296 160.50323
190.0 0.00526 160.42159 160.42184
166.0 0.00602 160.34033 160.34059
157.0 0.00637 160.25914 160.25940
154.0 0.00649 160.17807 160.17833
156.0 0.00641 160.09714 160.09738
162.0 0.00617 160.01630 160.01656
145.0 0.00690 159.93555 159.93581
172.0 0.00581 159.85500 159.85524
135.0 0.00741 159.77451 159.77475
153.0 0.00654 159.69409 159.69434
150.0 0.00667 159.61383 159.61406
146.0 0.00685 159.53366 159.53389
176.0 0.00568 159.45363 159.45386
161.0 0.00621 159.37366 159.37389
153.0 0.00654 159.29390 159.29413
165.0 0.00606 159.21419 159.21440
171.0 0.00585 159.13455 159.13478
149.0 0.00671 159.05505 159.05528
155.0 0.00645 158.97568 158.97591
155.0 0.00645 158.89641 158.89662
139.0 0.00719 158.81721 158.81743
150.0 0.00667 158.73822 158.73843
124.0 0.00806 158.65926 158.65947
182.0 0.00549 158.58041 158.58063
147.0 0.00680 158.50171 158.50191
168.0 0.00595 158.42308 158.42329
189.0 0.00529 158.34459 158.34479
167.0 0.00599 158.26616 158.26636
161.0 0.00621 158.18793 158.18813
164.0 0.00610 158.10971 158.10991
163.0 0.00613 158.03165 158.03183
161.0 0.00621 157.95370 157.95389
146.0 0.00685 157.87582 157.87601
155.0 0.00645 157.79808 157.79826
143.0 0.00699 157.72041 157.72060
146.0 0.00685 157.64291 157.64310
146.0 0.00685 157.56548 157.56564
143.0 0.00699 157.48816 157.48833
169.0 0.00592 157.41096 157.41113
177.0 0.00565 157.33383 157.33400
173.0 0.00578 157.25684 157.25700
158.0 0.00633 157.17990 157.18005
160.0 0.00625 157.10316 157.10333
188.0 0.00532 157.02644 157.02660
175.0 0.00571 156.94987 156.95003
162.0 0.00617 156.87338 156.87354
183.0 0.00546 156.79703 156.79716
171.0 0.00585 156.72075 156.72089
151.0 0.00662 156.64456 156.64470
165.0 0.00606 156.56856 156.56870
159.0 0.00629 156.49258 156.49272
183.0 0.00546 156.41673 156.41687
168.0 0.00595 156.34097 156.34111
173.0 0.00578 156.26535 156.26549
161.0 0.00621 156.18979 156.18991
173.0 0.00578 156.11435 156.11447
158.0 0.00633 156.03903 156.03915
189.0 0.00529 155.96378 155.96390
171.0 0.00585 155.88866 155.88876
174.0 0.00575 155.81361 155.81372
189.0 0.00529 155.73872 155.73883
170.0 0.00588 155.66386 155.66397
179.0 0.00559 155.58911 155.58922
170.0 0.00588 155.51454 155.51465
193.0 0.00518 155.44000 155.44009
177.0 0.00565 155.36557 155.36568
169.0 0.00592 155.29128 155.29138
194.0 0.00515 155.21706 155.21715
160.0 0.00625 155.14290 155.14299
194.0 0.00515 155.06888 155.06897
193.0 0.00518 154.99496 154.99506
196.0 0.00510 154.92116 154.92125
172.0 0.00581 154.84744 154.84752
195.0 0.00513 154.77383 154.77391
199.0 0.00503 154.70032 154.70039
193.0 0.00518 154.62688 154.62694
168.0 0.00595 154.55353 154.55359
158.0 0.00633 154.48033 154.48039
164.0 0.00610 154.40720 154.40726
196.0 0.00510 154.33417 154.33423
198.0 0.00505 154.26126 154.26131
186.0 0.00538 154.18842 154.18848
161.0 0.00621 154.11566 154.11571
186.0 0.00538 154.04300 154.04305
200.0 0.00500 153.97049 153.97054
168.0 0.00595 153.89804 153.89807
182.0 0.00549 153.82568 153.82573
175.0 0.00571 153.75346 153.75351
185.0 0.00541 153.68129 153.68132
165.0 0.00606 153.60922 153.60925
180.0 0.00556 153.53728 153.53731
129.0 0.00775 153.46539 153.46541
169.0 0.00592 153.39362 153.42368
143.0 0.00699 153.32195 153.35265
168.0 0.00595 153.25038 153.28178
168.0 0.00595 153.17888 153.21100
158.0 0.00633 153.10748 153.14034
150.0 0.00667 153.03621 153.06981
174.0 0.00575 152.96498 152.99939
139.0 0.00719 152.89391 152.92912
137.0 0.00730 152.82286 152.85893
135.0 0.00741 152.75197 152.78893
164.0 0.00610 152.68112 152.71899
156.0 0.00641 152.61038 152.64919
165.0 0.00606 152.53976 152.57956
138.0 0.00725 152.46919 152.51001
160.0 0.00625 152.39877 152.44064
159.0 0.00629 152.32838 152.37135
136.0 0.00735 152.25815 152.30228
136.0 0.00735 152.18793 152.23325
152.0 0.00658 152.11783 152.16440
136.0 0.00735 152.04785 152.09572
160.0 0.00625 151.97797 152.02719
146.0 0.00685 151.90816 151.95879
155.0 0.00645 151.83844 151.89053
149.0 0.00671 151.76883 151.82246
141.0 0.00709 151.69928 151.75450
145.0 0.00690 151.62981 151.68672
139.0 0.00719 151.56047 151.61914
160.0 0.00625 151.49123 151.55174
152.0 0.00658 151.42203 151.48447
135.0 0.00741 151.35295 151.41740
154.0 0.00649 151.28397 151.35056
157.0 0.00637 151.21504 151.28384
164.0 0.00610 151.14621 151.21736
155.0 0.00645 151.07750 151.15112
151.0 0.00662 151.00890 151.08510
157.0 0.00637 150.94032 151.01926
142.0 0.00704 150.87186 150.95367
136.0 0.00735 150.80351 150.88840
153.0 0.00654 150.73520 150.82329
133.0 0.00752 150.66699 150.75848
153.0 0.00654 150.59892 150.69402
140.0 0.00714 150.53091 150.62981
166.0 0.00602 150.46295 150.56590
138.0 0.00725 150.39511 150.50238
170.0 0.00588 150.32735 150.43919
134.0 0.00746 150.25967 150.37640
153.0 0.00654 150.19206 150.31401
160.0 0.00625 150.12462 150.25212
169.0 0.00592 150.05721 150.19067
139.0 0.00719 149.98987 150.12971
160.0 0.00625 149.92262 150.06932
129.0 0.00775 149.85547 150.00954
122.0 0.00820 149.78839 149.95038
148.0 0.00676 149.72141 149.89195
146.0 0.00685 149.65454 149.83434
172.0 0.00581 149.58774 149.77754
131.0 0.00763 149.52098 149.72166
143.0 0.00699 149.45433 149.66685
169.0 0.00592 149.38779 149.61324
155.0 0.00645 149.32130 149.56088
146.0 0.00685 149.25490 149.50996
161.0 0.00621 149.18863 149.46071
165.0 0.00606 149.12239 149.41327
125.0 0.00800 149.05626 149.36792
139.0 0.00719 148.99022 149.32497
143.0 0.00699 148.92424 149.28471
154.0 0.00649 148.85834 149.24763
160.0 0.00625 148.79253 149.21417
149.0 0.00671 148.72684 149.18501
140.0 0.00714 148.66118 149.16081
145.0 0.00690 148.59563 149.14256
181.0 0.00552 148.53015 149.13136
148.0 0.00676 148.46475 149.12862
125.0 0.00800 148.39946 149.13618
140.0 0.00714 148.33418 149.15630
152.0 0.00658 148.26907 149.19199
167.0 0.00599 148.20398 149.24713
132.0 0.00758 148.13899 149.32701
151.0 0.00662 148.07413 149.43877
150.0 0.00667 148.00926 149.59273
148.0 0.00676 147.94455 149.80466
134.0 0.00746 147.87984 150.10033
152.0 0.00658 147.81529 150.52368
139.0 0.00719 147.75076 151.15073
158.0 0.00633 147.68634 152.10353
156.0 0.00641 147.62199 153.55870
157.0 0.00637 147.55775 155.73653
163.0 0.00613 147.49355 158.84923
183.0 0.00546 147.42944 162.99246
150.0 0.00667 147.36543 167.88887
203.0 0.00493 147.30147 172.42952
192.0 0.00521 147.23758 174.51059
179.0 0.00559 147.17378 172.73116
184.0 0.00543 147.11009 168.23434
186.0 0.00538 147.04643 163.16998
168.0 0.00595 146.98288 158.78389
150.0 0.00667 146.91942 155.42375
171.0 0.00585 146.85599 153.01717
165.0 0.00606 146.79266 151.36008
161.0 0.00621 146.72940 150.23038
176.0 0.00568 146.66624 149.44434
158.0 0.00633 146.60313 148.87366
179.0 0.00559 146.54008 148.43782
171.0 0.00585 146.47717 148.09007
167.0 0.00599 146.41429 147.80246
153.0 0.00654 146.35150 147.55859
168.0 0.00595 146.28880 147.34770
147.0 0.00680 146.22617 147.16219
177.0 0.00565 146.16357 146.99667
140.0 0.00714 146.10106 146.84709
143.0 0.00699 146.03867 146.71051
156.0 0.00641 145.97632 146.58438
146.0 0.00685 145.91406 146.46692
152.0 0.00658 145.85188 146.35670
154.0 0.00649 145.78976 146.25246
128.0 0.00781 145.72771 146.15331
147.0 0.00680 145.66571 146.05847
141.0 0.00709 145.60384 145.96741
129.0 0.00775 145.54201 145.87949
134.0 0.00746 145.48027 145.79437
128.0 0.00781 145.41861 145.71165
138.0 0.00725 145.35701 145.63103
154.0 0.00649 145.29546 145.55225
154.0 0.00649 145.23398 145.47510
154.0 0.00649 145.17261 145.39948
113.0 0.00885 145.11130 145.32509
160.0 0.00625 145.05006 145.25188
138.0 0.00725 144.98891 145.17973
116.0 0.00862 144.92780 145.10849
136.0 0.00735 144.86676 145.03812
129.0 0.00775 144.80583 144.96855
133.0 0.00752 144.74493 144.89964
145.0 0.00690 144.68414 144.83142
125.0 0.00800 144.62338 144.76375
122.0 0.00820 144.56273 144.69666
123.0 0.00813 144.50211 144.63002
143.0 0.00699 144.44159 144.56389
120.0 0.00833 144.38113 144.49818
161.0 0.00621 144.32074 144.43285
121.0 0.00826 144.26044 144.36792
143.0 0.00699 144.20018 144.30331
130.0 0.00769 144.14001 144.23906
139.0 0.00719 144.07988 144.17508
128.0 0.00781 144.01984 144.11140
142.0 0.00704 143.95988 144.04802
133.0 0.00752 143.89996 143.98486
133.0 0.00752 143.84015 143.92197
153.0 0.00654 143.78036 143.85928
129.0 0.00775 143.72067 143.79684
175.0 0.00571 143.66104 143.73457
146.0 0.00685 143.60146 143.67252
127.0 0.00787 143.54196 143.61067
138.0 0.00725 143.48257 143.54903
127.0 0.00787 143.42319 143.48750
139.0 0.00719 143.36389 143.42618
159.0 0.00629 143.30470 143.36504
149.0 0.00671 143.24551 143.30400
141.0 0.00709 143.18640 143.24312
139.0 0.00719 143.12740 143.18240
134.0 0.00746 143.06847 143.12186
139.0 0.00719 143.00955 143.06140
153.0 0.00654 142.95073 143.00110
146.0 0.00685 142.89198 142.94092
148.0 0.00676 142.83327 142.88084
147.0 0.00680 142.77463 142.82089
138.0 0.00725 142.71609 142.76111
132.0 0.00758 142.65761 142.70140
137.0 0.00730 142.59915 142.64178
136.0 0.00735 142.54079 142.58231
130.0 0.00769 142.48248 142.52293
154.0 0.00649 142.42422 142.46365
167.0 0.00599 142.36604 142.40448
147.0 0.00680 142.30797 142.34544
136.0 0.00735 142.24992 142.28647
126.0 0.00794 142.19191 142.22757
126.0 0.00794 142.13400 142.16879
154.0 0.00649 142.07614 142.11011
164.0 0.00610 142.01836 142.05153
156.0 0.00641 141.96060 141.99300
134.0 0.00746 141.90297 141.93462
130.0 0.00769 141.84537 141.87628
149.0 0.00671 141.78781 141.81804
129.0 0.00775 141.73033 141.72978
156.0 0.00641 141.67291 141.67236
125.0 0.00800 141.61557 141.61501
134.0 0.00746 141.55826 141.55769
114.0 0.00877 141.50105 141.50049
122.0 0.00820 141.44388 141.44333
146.0 0.00685 141.38675 141.38618
145.0 0.00690 141.32971 141.32913
132.0 0.00758 141.27272 141.27216
138.0 0.00725 141.21581 141.21523
139.0 0.00719 141.15892 141.15834
123.0 0.00813 141.10214 141.10156
142.0 0.00704 141.04539 141.04482
126.0 0.00794 140.98871 140.98811
141.0 0.00709 140.93210 140.93150
152.0 0.00658 140.87552 140.87492
144.0 0.00694 140.81905 140.81845
160.0 0.00625 140.76254 140.76195
130.0 0.00769 140.70621 140.70561
152.0 0.00658 140.64986 140.64926
125.0 0.00800 140.59360 140.59299
141.0 0.00709 140.53741 140.53680
110.0 0.00909 140.48125 140.48064
141.0 0.00709 140.42517 140.42456
156.0 0.00641 140.36909 140.36848
124.0 0.00806 140.31316 140.31255
120.0 0.00833 140.25723 140.25661
136.0 0.00735 140.20137 140.20074
153.0 0.00654 140.14558 140.14496
135.0 0.00741 140.08986 140.08922
152.0 0.00658 140.03415 140.03352
141.0 0.00709 139.97850 139.97786
150.0 0.00667 139.92296 139.92232
143.0 0.00699 139.86743 139.86679
140.0 0.00714 139.81198 139.81133
148.0 0.00676 139.75658 139.75592
118.0 0.00847 139.70125 139.70059
126.0 0.00794 139.64595 139.64529
142.0 0.00704 139.59071 139.59006
153.0 0.00654 139.53555 139.53490
122.0 0.00820 139.48041 139.47975
132.0 0.00758 139.42534 139.42468
146.0 0.00685 139.37035 139.36967
121.0 0.00826 139.31540 139.31473
153.0 0.00654 139.26048 139.25981
128.0 0.00781 139.20564 139.20497
136.0 0.00735 139.15086 139.15019
142.0 0.00704 139.09612 139.09543
127.0 0.00787 139.04143 139.04074
129.0 0.00775 138.98683 138.98613
127.0 0.00787 138.93225 138.93156
156.0 0.00641 138.87772 138.87701
153.0 0.00654 138.82324 138.82254
153.0 0.00654 138.76886 138.76816
138.0 0.00725 138.71449 138.71378
135.0 0.00741 138.66019 138.65947
146.0 0.00685 138.60594 138.60524
139.0 0.00719 138.55174 138.55104
145.0 0.00690 138.49757 138.49687
154.0 0.00649 138.44347 138.44275
144.0 0.00694 138.38943 138.38872
134.0 0.00746 138.33545 138.33473
137.0 0.00730 138.28152 138.28079
148.0 0.00676 138.22766 138.22693
148.0 0.00676 138.17381 138.17308
128.0 0.00781 138.12003 138.11929
114.0 0.00877 138.06627 138.45171
134.0 0.00746 138.01260 138.40491
144.0 0.00694 137.95898 138.35834
124.0 0.00806 137.90541 138.31203
146.0 0.00685 137.85190 138.26596
139.0 0.00719 137.79842 138.22014
155.0 0.00645 137.74498 138.17459
168.0 0.00595 137.69162 138.12932
141.0 0.00709 137.63828 138.18253
128.0 0.00781 137.58501 138.13957
150.0 0.00667 137.53178 138.09695
148.0 0.00676 137.47862 138.05473
137.0 0.00730 137.42548 138.01282
145.0 0.00690 137.37241 137.97133
160.0 0.00625 137.31938 137.93024
138.0 0.00725 137.26639 137.88950
158.0 0.00633 137.21349 137.84926
132.0 0.00758 137.16058 137.80940
126.0 0.00794 137.10777 137.77005
116.0 0.00862 137.05496 137.73109
123.0 0.00813 137.00224 137.69269
159.0 0.00629 136.94955 137.65479
136.0 0.00735 136.89690 137.61736
132.0 0.00758 136.84433 137.58054
114.0 0.00877 136.79176 137.54425
122.0 0.00820 136.73929 137.50859
132.0 0.00758 136.68683 137.47350
150.0 0.00667 136.63441 137.43907
140.0 0.00714 136.58209 137.40533
131.0 0.00763 136.52977 137.37227
142.0 0.00704 136.47751 137.33997
133.0 0.00752 136.42528 137.30838
135.0 0.00741 136.37312 137.27760
171.0 0.00585 136.32098 137.24767
152.0 0.00658 136.26888 137.21858
131.0 0.00763 136.21687 137.19044
119.0 0.00840 136.16490 137.16327
139.0 0.00719 136.11295 137.13707
138.0 0.00725 136.06104 137.11195
127.0 0.00787 136.00922 137.08794
138.0 0.00725 135.95738 137.06506
143.0 0.00699 135.90561 137.04343
132.0 0.00758 135.85393 137.02312
148.0 0.00676 135.80226 137.00412
136.0 0.00735 135.75061 136.98657
143.0 0.00699 135.69904 136.97055
125.0 0.00800 135.64751 136.95612
137.0 0.00730 135.59599 136.94336
139.0 0.00719 135.54453 136.93240
162.0 0.00617 135.49316 136.92337
139.0 0.00719 135.44179 136.91634
161.0 0.00621 135.39046 136.91141
148.0 0.00676 135.33917 136.90877
142.0 0.00704 135.28796 136.90857
147.0 0.00680 135.23676 136.91089
126.0 0.00794 135.18558 136.91597
148.0 0.00676 135.13451 136.92398
127.0 0.00787 135.08344 136.93513
146.0 0.00685 135.03239 136.94958
150.0 0.00667 134.98141 136.96767
159.0 0.00629 134.93048 136.98953
128.0 0.00781 134.87958 137.01555
122.0 0.00820 134.82872 137.04604
133.0 0.00752 134.77792 137.08122
144.0 0.00694 134.72716 137.12161
135.0 0.00741 134.67641 137.16753
121.0 0.00826 134.62572 137.21945
138.0 0.00725 134.57507 137.27791
113.0 0.00885 134.52446 137.34341
141.0 0.00709 134.47388 137.41666
160.0 0.00625 134.42339 137.49821
125.0 0.00800 134.37288 137.58896
131.0 0.00763 134.32242 137.68967
143.0 0.00699 134.27203 137.80133
129.0 0.00775 134.22165 137.92500
130.0 0.00769 134.17134 138.06197
132.0 0.00758 134.12100 138.21353
128.0 0.00781 134.07079 138.38115
114.0 0.00877 134.02057 138.56674
160.0 0.00625 133.97040 138.77229
151.0 0.00662 133.92027 138.99997
131.0 0.00763 133.87016 139.25256
148.0 0.00676 133.82013 139.53307
138.0 0.00725 133.77007 139.84503
123.0 0.00813 133.72012 140.19228
138.0 0.00725 133.67017 140.57994
137.0 0.00730 133.62027 141.01349
144.0 0.00694 133.57042 141.49944
145.0 0.00690 133.52057 142.04579
151.0 0.00662 133.47079 142.66190
156.0 0.00641 133.42101 143.35905
133.0 0.00752 133.37132 144.15018
143.0 0.00699 133.32162 145.05264
145.0 0.00690 133.27197 146.08641
143.0 0.00699 133.22240 147.27615
132.0 0.00758 133.17282 148.65373
159.0 0.00629 133.12329 150.25832
152.0 0.00658 133.07378 152.14076
148.0 0.00676 133.02432 154.36467
145.0 0.00690 132.97488 157.02045
162.0 0.00617 132.92549 160.22905
159.0 0.00629 132.87613 164.16571
176.0 0.00568 132.82683 169.09741
178.0 0.00562 132.77753 175.42958
189.0 0.00529 132.72829 183.78307
219.0 0.00457 132.67909 195.05428
203.0 0.00493 132.62990 210.50330
221.0 0.00452 132.58075 231.69778
265.0 0.00377 132.53166 260.38678
307.0 0.003257 132.48259 298.18292
371.0 0.002695 132.43353 345.76523
443.0 0.002257 132.38452 401.23480
492.0 0.002033 132.33556 456.94958
469.0 0.002132 132.28661 497.57953
527.0 0.001898 132.23770 506.54733
475.0 0.002105 132.18884 481.71451
406.0 0.002463 132.14001 438.15289
400.0 0.002500 132.09119 393.35330
371.0 0.002695 132.04240 357.07629
360.0 0.002778 131.99370 331.63409
342.0 0.002924 131.94498 314.25671
294.0 0.003401 131.89630 299.16422
285.0 0.00351 131.84767 281.11707
278.0 0.00360 131.79906 259.42999
264.0 0.00379 131.75047 237.13203
202.0 0.00495 131.70190 217.08725
194.0 0.00515 131.65341 200.48926
171.0 0.00585 131.60493 187.85808
184.0 0.00543 131.55649 177.68893
165.0 0.00606 131.50807 169.91782
171.0 0.00585 131.45969 163.97812
144.0 0.00694 131.41132 159.39362
162.0 0.00617 131.36298 155.79021
159.0 0.00629 131.31471 152.89835
161.0 0.00621 131.26645 150.52417
141.0 0.00709 131.21822 148.73067
144.0 0.00694 131.17003 147.05061
161.0 0.00621 131.12186 145.60841
150.0 0.00667 131.07370 144.35876
136.0 0.00735 131.02560 143.26846
150.0 0.00667 130.97749 142.30942
151.0 0.00662 130.92947 141.46126
159.0 0.00629 130.88144 140.70686
164.0 0.00610 130.83345 140.03268
142.0 0.00704 130.78548 139.42714
136.0 0.00735 130.73755 138.88091
131.0 0.00763 130.68965 138.38666
116.0 0.00862 130.64177 137.93735
152.0 0.00658 130.59393 137.52771
129.0 0.00775 130.54610 137.15305
139.0 0.00719 130.49832 136.80954
166.0 0.00602 130.45055 136.49356
113.0 0.00885 130.40282 136.20229
123.0 0.00813 130.35513 135.93338
142.0 0.00704 130.30745 135.68440
109.0 0.00917 130.25980 135.45352
116.0 0.00862 130.21216 135.23909
115.0 0.00870 130.16458 135.03978
135.0 0.00741 130.11700 134.85411
140.0 0.00714 130.06947 134.68109
137.0 0.00730 130.02196 134.51978
119.0 0.00840 129.97449 134.36925
125.0 0.00800 129.92702 134.22868
121.0 0.00826 129.87956 134.09747
106.0 0.00943 129.83217 133.97510
116.0 0.00862 129.78477 133.86090
124.0 0.00806 129.73741 133.75449
127.0 0.00787 129.69009 133.65552
121.0 0.00826 129.64282 133.56355
153.0 0.00654 129.59552 133.47827
117.0 0.00855 129.54828 133.39952
138.0 0.00725 129.50105 133.32700
116.0 0.00862 129.45384 133.26053
118.0 0.00847 129.40666 133.19998
125.0 0.00800 129.35954 133.14525
117.0 0.00855 129.31241 133.09621
128.0 0.00781 129.26530 133.05283
131.0 0.00763 129.21823 133.01506
140.0 0.00714 129.17119 132.98289
131.0 0.00763 129.12415 132.95636
135.0 0.00741 129.07713 132.93556
136.0 0.00735 129.03020 132.92055
111.0 0.00901 128.98323 132.91139
116.0 0.00862 128.93629 132.90826
140.0 0.00714 128.88939 132.91133
136.0 0.00735 128.84251 132.92084
140.0 0.00714 128.79565 132.93695
114.0 0.00877 128.74881 132.95999
114.0 0.00877 128.70203 132.99026
113.0 0.00885 128.65523 133.02814
151.0 0.00662 128.60846 133.07399
127.0 0.00787 128.56171 133.12831
132.0 0.00758 128.51498 133.19156
137.0 0.00730 128.46829 133.26439
136.0 0.00735 128.42162 133.34740
136.0 0.00735 128.37498 133.44127
130.0 0.00769 128.32835 133.54691
134.0 0.00746 128.28174 133.66518
144.0 0.00694 128.23515 133.79709
146.0 0.00685 128.18858 133.94376
142.0 0.00704 128.14204 134.10655
139.0 0.00719 128.09550 134.28690
138.0 0.00725 128.04903 134.48630
163.0 0.00613 128.00256 134.70682
152.0 0.00658 127.95609 134.95045
155.0 0.00645 127.90966 135.21959
167.0 0.00599 127.86323 135.51701
151.0 0.00662 127.81685 135.84589
162.0 0.00617 127.77045 136.20979
140.0 0.00714 127.72413 136.61255
136.0 0.00735 127.67777 137.05940
166.0 0.00602 127.63146 137.55574
150.0 0.00667 127.58519 138.10791
156.0 0.00641 127.53889 138.72379
136.0 0.00735 127.49266 139.41225
155.0 0.00645 127.44639 140.18405
157.0 0.00637 127.40021 141.05112
156.0 0.00641 127.35400 142.02960
155.0 0.00645 127.30782 143.13750
148.0 0.00676 127.26168 144.39671
164.0 0.00610 127.21555 145.83521
137.0 0.00730 127.16944 147.48640
168.0 0.00595 127.12331 149.39284
157.0 0.00637 127.07725 151.60535
154.0 0.00649 127.03117 154.19386
161.0 0.00621 126.98513 157.24411
138.0 0.00725 126.93913 160.86861
159.0 0.00629 126.89311 164.83325
175.0 0.00571 126.84713 170.13092
174.0 0.00575 126.80115 176.67773
179.0 0.00559 126.75520 184.94907
195.0 0.00513 126.70925 195.75064
199.0 0.00503 126.66333 210.41486
229.0 0.00437 126.61745 231.10786
287.0 0.003484 126.57156 261.10947
332.0 0.003012 126.52568 304.69434
427.0 0.002342 126.47983 367.03561
542.0 0.001845 126.43402 452.15671
640.0 0.001563 126.38818 560.85699
695.0 0.001439 126.34238 684.47455
695.0 0.001439 126.29663 795.37671
704.0 0.001420 126.25085 847.79144
715.0 0.001399 126.20509 815.41235
688.0 0.001453 126.15936 725.67273
593.0 0.001686 126.11366 627.20770
569.0 0.001757 126.06795 550.21417
490.0 0.002041 126.02225 504.34229
483.0 0.002070 125.97659 486.14719
476.0 0.002101 125.93095 481.67566
455.0 0.002198 125.88529 469.36841
474.0 0.002110 125.83965 436.29663
377.0 0.002653 125.79408 384.91544
332.0 0.003012 125.74847 331.42990
253.0 0.00395 125.70290 285.08865
208.0 0.00481 125.65735 248.60539
191.0 0.00524 125.61181 221.42125
192.0 0.00521 125.56626 201.81691
167.0 0.00599 125.52072 187.83075
202.0 0.00495 125.47523 177.75378
167.0 0.00599 125.42974 171.00909
175.0 0.00571 125.38427 165.27695
153.0 0.00654 125.33882 160.72609
166.0 0.00602 125.29337 157.01497
191.0 0.00524 125.24792 153.93079
173.0 0.00578 125.20252 151.33464
163.0 0.00613 125.15710 149.12341
163.0 0.00613 125.11172 147.22491
166.0 0.00602 125.06633 145.58286
164.0 0.00610 125.02097 144.15376
168.0 0.00595 124.97563 142.90233
160.0 0.00625 124.93027 141.80099
158.0 0.00633 124.88496 140.82829
166.0 0.00602 124.83962 139.96481
137.0 0.00730 124.79435 139.19614
155.0 0.00645 124.74904 138.50977
176.0 0.00568 124.70378 137.89560
139.0 0.00719 124.65850 137.34460
147.0 0.00680 124.61325 136.84958
167.0 0.00599 124.56802 136.40477
115.0 0.00870 124.52279 136.00435
117.0 0.00855 124.47758 135.64407
123.0 0.00813 124.43237 135.32007
134.0 0.00746 124.38719 135.02908
156.0 0.00641 124.34199 134.76810
127.0 0.00787 124.29682 134.53474
138.0 0.00725 124.25166 134.32701
122.0 0.00820 124.20654 134.14291
138.0 0.00725 124.16140 133.98087
128.0 0.00781 124.11626 133.83954
130.0 0.00769 124.07116 133.71777
123.0 0.00813 124.02605 133.61449
156.0 0.00641 123.98096 133.52892
126.0 0.00794 123.93587 133.46031
110.0 0.00909 123.89082 133.40807
131.0 0.00763 123.84576 133.37172
124.0 0.00806 123.80070 133.35086
144.0 0.00694 123.75568 133.34526
144.0 0.00694 123.71062 133.35466
130.0 0.00769 123.66560 133.37906
104.0 0.00962 123.62062 133.41835
136.0 0.00735 123.57560 133.47261
128.0 0.00781 123.53063 133.54205
116.0 0.00862 123.48563 133.62682
126.0 0.00794 123.44068 133.72723
136.0 0.00735 123.39570 133.84367
129.0 0.00775 123.35074 133.97673
152.0 0.00658 123.30582 134.12672
145.0 0.00690 123.26088 134.29451
133.0 0.00752 123.21597 134.48076
151.0 0.00662 123.17103 134.68631
116.0 0.00862 123.12614 134.91211
142.0 0.00704 123.08122 135.15930
137.0 0.00730 123.03634 135.42918
132.0 0.00758 122.99147 135.72273
143.0 0.00699 122.94659 136.04190
127.0 0.00787 122.90173 136.38823
134.0 0.00746 122.85686 136.76358
146.0 0.00685 122.81202 137.16995
139.0 0.00719 122.76717 137.60992
137.0 0.00730 122.72234 138.08614
147.0 0.00680 122.67754 138.60100
132.0 0.00758 122.63269 139.15836
123.0 0.00813 122.58790 139.76172
130.0 0.00769 122.54308 140.41515
125.0 0.00800 122.49830 141.12311
157.0 0.00637 122.45350 141.89111
140.0 0.00714 122.40871 142.72516
155.0 0.00645 122.36395 143.63101
149.0 0.00671 122.31917 144.61731
173.0 0.00578 122.27443 145.69229
183.0 0.00546 122.22967 146.86548
160.0 0.00625 122.18493 148.14879
159.0 0.00629 122.14019 149.55492
175.0 0.00571 122.09545 151.09930
177.0 0.00565 122.05073 152.79776
142.0 0.00704 122.00600 154.67265
178.0 0.00562 121.96130 156.74698
168.0 0.00595 121.91657 159.04808
191.0 0.00524 121.87189 161.61031
182.0 0.00549 121.82719 164.47244
187.0 0.00535 121.78247 167.68248
188.0 0.00532 121.73781 171.29388
185.0 0.00541 121.69312 175.37978
216.0 0.00463 121.64845 180.02284
203.0 0.00493 121.60377 185.32545
198.0 0.00505 121.55913 191.41943
190.0 0.00526 121.51448 198.46559
196.0 0.00510 121.46980 206.67197
215.0 0.00465 121.42518 216.29492
219.0 0.00457 121.38051 227.69499
243.0 0.00412 121.33588 241.34262
244.0 0.00410 121.29124 257.90753
253.0 0.00395 121.24664 278.40573
259.0 0.00386 121.20201 304.40808
296.0 0.003378 121.15737 337.89014
328.0 0.003049 121.11278 383.81531
416.0 0.002404 121.06816 447.48959
519.0 0.001927 121.02355 536.79742
695.0 0.001439 120.97895 661.27997
842.0 0.001188 120.93437 830.78973
1077.0 0.000929 120.88978 1052.21753
1226.0 0.000816 120.84516 1323.18176
1444.0 0.000693 120.80061 1617.89502
1669.0 0.000599 120.75601 1870.99475
1915.0 0.000522 120.71143 1986.36218
2222.0 0.000450 120.66688 1917.14124
2012.0 0.000497 120.62229 1722.63000
1675.0 0.000597 120.57774 1504.90295
1376.0 0.000727 120.53315 1332.40186
1036.0 0.000965 120.48862 1230.20093
965.0 0.001036 120.44405 1193.25037
992.0 0.001008 120.39949 1191.98230
1059.0 0.000944 120.35497 1175.88599
1123.0 0.000890 120.31040 1101.23657
1106.0 0.000904 120.26587 969.10626
982.0 0.001018 120.22131 815.40460
752.0 0.001330 120.17680 672.00153
509.0 0.001965 120.13224 552.55127
425.0 0.002353 120.08772 459.20355
329.0 0.003040 120.04319 388.99188
299.0 0.003344 119.99865 337.25418
274.0 0.00365 119.95414 299.31573
249.0 0.00402 119.90958 271.17068
235.0 0.00426 119.86509 249.80951
239.0 0.00418 119.82056 233.09544
233.0 0.00429 119.77604 219.65327
268.0 0.00373 119.73154 208.59265
234.0 0.00427 119.68701 199.32600
221.0 0.00452 119.64252 191.46132
241.0 0.00415 119.59798 184.71568
250.0 0.00400 119.55350 178.88577
245.0 0.00408 119.50900 173.80354
223.0 0.00448 119.46449 169.34604
207.0 0.00483 119.41999 165.41386
207.0 0.00483 119.37547 161.92432
204.0 0.00490 119.33098 158.81203
199.0 0.00503 119.28647 156.02585
179.0 0.00559 119.24199 153.51779
171.0 0.00585 119.19750 151.25220
190.0 0.00526 119.15299 149.19791
157.0 0.00637 119.10851 147.32919
160.0 0.00625 119.06400 145.62288
154.0 0.00649 119.01951 144.06010
138.0 0.00725 118.97501 142.62598
143.0 0.00699 118.93053 141.30475
121.0 0.00826 118.88605 140.08496
141.0 0.00709 118.84154 138.95607
110.0 0.00909 118.79707 137.90916
136.0 0.00735 118.75256 136.93559
114.0 0.00877 118.70807 136.02843
138.0 0.00725 118.66357 135.18216
140.0 0.00714 118.61911 134.39029
127.0 0.00787 118.57462 133.64828
116.0 0.00862 118.53013 132.95178
154.0 0.00649 118.48565 132.29709
138.0 0.00725 118.44115 131.68033
132.0 0.00758 118.39666 131.09846
148.0 0.00676 118.35217 130.54918
123.0 0.00813 118.30770 130.02933
142.0 0.00704 118.26320 129.53682
125.0 0.00800 118.21870 129.06961
134.0 0.00746 118.17423 128.62595
128.0 0.00781 118.12973 128.20387
104.0 0.00962 118.08524 127.80191
118.0 0.00847 118.04076 127.41895
137.0 0.00730 117.99627 127.05326
130.0 0.00769 117.95177 126.70385
115.0 0.00870 117.90726 126.36961
126.0 0.00794 117.86279 126.04967
109.0 0.00917 117.81828 125.74290
135.0 0.00741 117.77379 125.44852
115.0 0.00870 117.72931 125.16602
124.0 0.00806 117.68479 124.89427
131.0 0.00763 117.64030 124.63285
133.0 0.00752 117.59579 124.38108
120.0 0.00833 117.55131 124.13847
126.0 0.00794 117.50678 123.90436
116.0 0.00862 117.46228 123.67831
121.0 0.00826 117.41779 123.46002
112.0 0.00893 117.37328 123.24884
124.0 0.00806 117.32878 123.04450
115.0 0.00870 117.28426 122.84658
110.0 0.00909 117.23976 122.65482
108.0 0.00926 117.19523 122.46877
115.0 0.00870 117.15073 122.28821
116.0 0.00862 117.10622 122.11293
130.0 0.00769 117.06168 121.94253
122.0 0.00820 117.01718 121.77683
123.0 0.00813 116.97264 121.61557
100.0 0.01000 116.92814 121.45861
124.0 0.00806 116.88359 121.30563
133.0 0.00752 116.83906 121.15651
131.0 0.00763 116.79456 121.01114
109.0 0.00917 116.75000 120.86919
133.0 0.00752 116.70548 120.73060
122.0 0.00820 116.66093 120.59516
102.0 0.00980 116.61640 120.46282
98.0 0.01020 116.57186 120.33337
101.0 0.00990 116.52731 120.20666
109.0 0.00917 116.48277 120.08270
121.0 0.00826 116.43822 119.96121
114.0 0.00877 116.39367 119.84219
111.0 0.00901 116.34910 119.72549
114.0 0.00877 116.30457 119.61106
121.0 0.00826 116.26000 119.49876
116.0 0.00862 116.21542 119.38847
141.0 0.00709 116.17088 119.28025
102.0 0.00980 116.12630 119.17387
118.0 0.00847 116.08173 119.06932
114.0 0.00877 116.03716 118.96655
109.0 0.00917 115.99260 118.86543
120.0 0.00833 115.94801 118.76595
119.0 0.00840 115.90340 118.66796
111.0 0.00901 115.85885 118.57158
102.0 0.00980 115.81424 118.47657
135.0 0.00741 115.76966 118.38297
122.0 0.00820 115.72505 118.29070
123.0 0.00813 115.68047 116.53693
109.0 0.00917 115.63588 116.47621
118.0 0.00847 115.59124 116.41589
123.0 0.00813 115.54666 116.35607
113.0 0.00885 115.50203 116.29662
100.0 0.01000 115.45742 116.23758
128.0 0.00781 115.41280 116.17893
120.0 0.00833 115.36819 116.12067
110.0 0.00909 115.32356 116.18064
121.0 0.00826 115.27892 115.39791
114.0 0.00877 115.23431 115.35547
109.0 0.00917 115.18965 115.31303
112.0 0.00893 115.14503 115.27069
111.0 0.00901 115.10039 115.22839
109.0 0.00917 115.05574 115.18616
137.0 0.00730 115.01109 115.14400
104.0 0.00962 114.96641 115.10186
109.0 0.00917 114.92178 115.10842
119.0 0.00840 114.87711 115.06731
135.0 0.00741 114.83244 115.02632
107.0 0.00935 114.78778 114.98544
129.0 0.00775 114.74309 114.94463
122.0 0.00820 114.69843 114.90398
110.0 0.00909 114.65372 114.86339
129.0 0.00775 114.60906 114.82298
111.0 0.00901 114.56435 114.78265
120.0 0.00833 114.51966 114.74247
106.0 0.00943 114.47498 114.70244
104.0 0.00962 114.43027 114.66252
97.0 0.01031 114.38557 114.62278
97.0 0.01031 114.34084 114.58315
112.0 0.00893 114.29615 114.54375
112.0 0.00893 114.25141 114.50446
106.0 0.00943 114.20670 114.46538
112.0 0.00893 114.16198 114.42648
122.0 0.00820 114.11723 114.38776
122.0 0.00820 114.07252 114.34927
122.0 0.00820 114.02774 114.31094
123.0 0.00813 113.98302 114.27289
114.0 0.00877 113.93826 114.23505
128.0 0.00781 113.89351 114.19745
127.0 0.00787 113.84877 114.16013
121.0 0.00826 113.80399 114.12304
149.0 0.00671 113.75922 114.08626
116.0 0.00862 113.71445 114.04977
108.0 0.00926 113.66969 114.01362
105.0 0.00952 113.62491 113.97778
104.0 0.00962 113.58011 113.94227
117.0 0.00855 113.53533 113.90716
121.0 0.00826 113.49053 113.87242
120.0 0.00833 113.44572 113.83808
133.0 0.00752 113.40092 113.80418
119.0 0.00840 113.35612 113.77075
97.0 0.01031 113.31132 113.73779
121.0 0.00826 113.26648 113.70531
112.0 0.00893 113.22167 113.67342
91.0 0.01099 113.17684 113.64207
117.0 0.00855 113.13200 113.61134
133.0 0.00752 113.08717 113.58125
137.0 0.00730 113.04234 113.55187
115.0 0.00870 112.99749 113.52321
128.0 0.00781 112.95263 113.49531
109.0 0.00917 112.90778 113.46826
130.0 0.00769 112.86292 113.44208
110.0 0.00909 112.81805 113.41685
114.0 0.00877 112.77318 113.39264
116.0 0.00862 112.72832 113.36951
118.0 0.00847 112.68343 113.34755
114.0 0.00877 112.63853 113.32681
119.0 0.00840 112.59367 113.30744
112.0 0.00893 112.54875 113.28948
120.0 0.00833 112.50385 113.27309
108.0 0.00926 112.45897 113.25838
107.0 0.00935 112.41405 113.24547
96.0 0.01042 112.36914 113.23453
113.0 0.00885 112.32421 113.22569
116.0 0.00862 112.27930 113.21917
127.0 0.00787 112.23435 113.21513
127.0 0.00787 112.18942 113.21387
123.0 0.00813 112.14450 113.21555
111.0 0.00901 112.09955 113.22051
127.0 0.00787 112.05461 113.22906
111.0 0.00901 112.00964 113.24149
113.0 0.00885 111.96469 113.25826
127.0 0.00787 111.91972 113.27980
120.0 0.00833 111.87475 113.30664
111.0 0.00901 111.82979 113.33929
95.0 0.01053 111.78479 113.37844
114.0 0.00877 111.73983 113.42487
134.0 0.00746 111.69482 113.47941
111.0 0.00901 111.64984 113.54304
121.0 0.00826 111.60483 113.61694
123.0 0.00813 111.55983 113.70249
129.0 0.00775 111.51484 113.80112
108.0 0.00926 111.46981 113.91476
124.0 0.00806 111.42480 114.04562
108.0 0.00926 111.37977 114.19617
107.0 0.00935 111.33475 114.36954
94.0 0.01064 111.28971 114.56942
98.0 0.01020 111.24467 114.80038
101.0 0.00990 111.19964 115.06756
112.0 0.00893 111.15459 115.37801
113.0 0.00885 111.10954 115.73994
108.0 0.00926 111.06448 116.16371
115.0 0.00870 111.01942 116.66237
140.0 0.00714 110.97436 117.25299
138.0 0.00725 110.92926 117.95758
109.0 0.00917 110.88421 118.80460
124.0 0.00806 110.83911 119.83552
113.0 0.00885 110.79404 121.10918
108.0 0.00926 110.74893 122.71702
119.0 0.00840 110.70385 124.80927
147.0 0.00680 110.65874 127.63128
152.0 0.00658 110.61363 131.57564
163.0 0.00613 110.56853 137.21718
162.0 0.00617 110.52340 145.33286
166.0 0.00602 110.47829 156.80203
168.0 0.00595 110.43315 172.40884
190.0 0.00526 110.38804 192.45978
216.0 0.00463 110.34290 215.95532
260.0 0.00385 110.29775 239.45248
261.0 0.00383 110.25262 254.81984
245.0 0.00408 110.20745 255.21346
218.0 0.00459 110.16232 241.52350
222.0 0.00450 110.11715 221.92445
183.0 0.00546 110.07199 203.90645
168.0 0.00595 110.02682 191.14003
162.0 0.00617 109.98163 184.51433
155.0 0.00645 109.93648 183.21455
225.0 0.00444 109.89128 184.95297
214.0 0.00467 109.84609 185.50681
171.0 0.00585 109.80090 181.27762
186.0 0.00538 109.75571 172.05547
157.0 0.00637 109.71053 160.71524
144.0 0.00694 109.66529 149.93501
130.0 0.00769 109.62010 140.94173
139.0 0.00719 109.57487 133.95259
121.0 0.00826 109.52966 128.76091
133.0 0.00752 109.48445 125.00040
102.0 0.00980 109.43922 122.28869
133.0 0.00752 109.39400 120.30450
118.0 0.00847 109.34872 118.80875
108.0 0.00926 109.30350 117.64207
121.0 0.00826 109.25826 116.70105
113.0 0.00885 109.21301 115.92303
145.0 0.00690 109.16776 115.26783
97.0 0.01031 109.12251 114.70813
121.0 0.00826 109.07725 114.22498
123.0 0.00813 109.03195 113.80405
117.0 0.00855 108.98671 113.43486
147.0 0.00680 108.94143 113.10834
104.0 0.00962 108.89614 112.81792
120.0 0.00833 108.85088 112.55824
96.0 0.01042 108.80557 112.32468
99.0 0.01010 108.76030 112.11381
121.0 0.00826 108.71497 111.92248
107.0 0.00935 108.66971 111.74850
109.0 0.00917 108.62438 111.58952
115.0 0.00870 108.57908 111.44395
104.0 0.00962 108.53378 111.31036
105.0 0.00952 108.48845 111.18742
125.0 0.00800 108.44315 111.07417
101.0 0.00990 108.39780 110.96962
108.0 0.00926 108.35250 110.87318
111.0 0.00901 108.30716 110.78403
119.0 0.00840 108.26182 110.70173
91.0 0.01099 108.21650 110.62576
96.0 0.01042 108.17114 110.55573
127.0 0.00787 108.12582 110.49133
106.0 0.00943 108.08044 110.43219
114.0 0.00877 108.03511 110.37820
105.0 0.00952 107.98976 110.32910
86.0 0.01163 107.94438 110.28474
107.0 0.00935 107.89904 110.24504
103.0 0.00971 107.85367 110.20990
129.0 0.00775 107.80829 110.17931
103.0 0.00971 107.76292 110.15319
116.0 0.00862 107.71756 110.13165
123.0 0.00813 107.67217 110.11465
129.0 0.00775 107.62679 110.10233
111.0 0.00901 107.58141 110.09476
108.0 0.00926 107.53600 110.09206
110.0 0.00909 107.49062 110.09449
115.0 0.00870 107.44522 110.10213
99.0 0.01010 107.39984 110.11536
111.0 0.00901 107.35444 110.13435
94.0 0.01064 107.30902 110.15945
132.0 0.00758 107.26363 110.19105
97.0 0.01031 107.21820 110.22954
122.0 0.00820 107.17279 110.27544
106.0 0.00943 107.12738 110.32919
111.0 0.00901 107.08197 110.39153
113.0 0.00885 107.03655 110.46306
124.0 0.00806 106.99112 110.54457
111.0 0.00901 106.94570 110.63694
112.0 0.00893 106.90026 110.74120
97.0 0.01031 106.85483 110.85851
111.0 0.00901 106.80939 110.98997
129.0 0.00775 106.76398 111.13731
136.0 0.00735 106.71854 111.30208
119.0 0.00840 106.67308 111.48618
134.0 0.00746 106.62765 111.69186
124.0 0.00806 106.58218 111.92168
121.0 0.00826 106.53674 112.17873
118.0 0.00847 106.49130 112.46609
133.0 0.00752 106.44586 112.78820
127.0 0.00787 106.40040 113.14960
109.0 0.00917 106.35493 113.55591
124.0 0.00806 106.30949 114.01363
120.0 0.00833 106.26401 114.53084
132.0 0.00758 106.21856 115.11719
167.0 0.00599 106.17310 115.78340
143.0 0.00699 106.12765 116.54429
138.0 0.00725 106.08218 117.41669
145.0 0.00690 106.03669 118.42177
130.0 0.00769 105.99124 119.58576
144.0 0.00694 105.94576 120.94259
117.0 0.00855 105.90028 122.53511
113.0 0.00885 105.85482 124.41683
160.0 0.00625 105.80933 126.66350
133.0 0.00752 105.76386 129.37553
156.0 0.00641 105.71837 132.69995
153.0 0.00654 105.67290 136.86197
152.0 0.00658 105.62741 142.22878
138.0 0.00725 105.58193 149.39969
144.0 0.00694 105.53646 159.31882
169.0 0.00592 105.49097 173.41768
214.0 0.00467 105.44550 193.60565
230.0 0.00435 105.39999 222.12263
263.0 0.00380 105.35452 261.26172
323.0 0.003096 105.30904 311.75595
392.0 0.002551 105.26353 372.13135
423.0 0.002364 105.21806 434.51300
489.0 0.002045 105.17255 481.66150
436.0 0.002294 105.12708 492.95200
396.0 0.002525 105.08157 464.10553
323.0 0.003096 105.03609 413.22330
288.0 0.003472 104.99060 361.37573
272.0 0.00368 104.94510 320.69101
264.0 0.00379 104.89962 295.38611
292.0 0.003425 104.85411 284.71063
289.0 0.003460 104.80863 284.84555
292.0 0.003425 104.76312 288.16699
293.0 0.003413 104.71764 284.72476
251.0 0.00398 104.67216 268.76440
208.0 0.00481 104.62665 243.73544
203.0 0.00493 104.58118 216.79616
175.0 0.00571 104.53567 192.69279
164.0 0.00610 104.49020 173.14822
158.0 0.00633 104.44468 158.19409
135.0 0.00741 104.39921 147.15257
156.0 0.00641 104.35373 139.14444
137.0 0.00730 104.30821 133.32430
152.0 0.00658 104.26274 129.01405
163.0 0.00613 104.21724 125.71694
133.0 0.00752 104.17178 123.11026
143.0 0.00699 104.12627 120.98886
111.0 0.00901 104.08080 119.22260
123.0 0.00813 104.03532 117.72815
117.0 0.00855 103.98981 116.44788
139.0 0.00719 103.94435 115.34144
123.0 0.00813 103.89886 114.37617
127.0 0.00787 103.85337 113.52844
122.0 0.00820 103.80791 112.77925
111.0 0.00901 103.76244 112.11297
130.0 0.00769 103.71696 111.51734
112.0 0.00893 103.67146 110.98215
138.0 0.00725 103.62602 110.49957
110.0 0.00909 103.58053 110.06204
109.0 0.00917 103.53506 109.66412
113.0 0.00885 103.48961 109.30096
96.0 0.01042 103.44415 108.96838
95.0 0.01053 103.39867 108.66292
114.0 0.00877 103.35320 108.38158
92.0 0.01087 103.30777 108.12206
112.0 0.00893 103.26229 107.88184
112.0 0.00893 103.21685 107.65919
117.0 0.00855 103.17140 107.45248
93.0 0.01075 103.12596 107.26020
120.0 0.00833 103.08051 107.08117
121.0 0.00826 103.03504 106.91423
119.0 0.00840 102.98962 106.75866
94.0 0.01064 102.94418 106.61338
90.0 0.01111 102.89873 106.47778
97.0 0.01031 102.85332 106.35126
111.0 0.00901 102.80788 106.23322
96.0 0.01042 102.76246 106.12324
112.0 0.00893 102.71700 106.02084
102.0 0.00980 102.67162 105.92584
100.0 0.01000 102.62618 105.83779
122.0 0.00820 102.58077 105.75655
113.0 0.00885 102.53538 105.68192
96.0 0.01042 102.48995 105.61373
95.0 0.01053 102.44456 105.55195
85.0 0.01176 102.39915 105.49648
107.0 0.00935 102.35378 105.44736
116.0 0.00862 102.30838 105.40459
98.0 0.01020 102.26298 105.36827
97.0 0.01031 102.21761 105.33857
117.0 0.00855 102.17222 105.31563
109.0 0.00917 102.12684 105.29971
111.0 0.00901 102.08150 105.29111
101.0 0.00990 102.03613 105.29015
112.0 0.00893 101.99076 105.29727
96.0 0.01042 101.94539 105.31300
98.0 0.01020 101.90005 105.33787
114.0 0.00877 101.85468 105.37260
100.0 0.01000 101.80934 105.41801
123.0 0.00813 101.76401 105.47495
97.0 0.01031 101.71869 105.54457
108.0 0.00926 101.67336 105.62807
107.0 0.00935 101.62802 105.72688
118.0 0.00847 101.58271 105.84268
104.0 0.00962 101.53739 105.97749
109.0 0.00917 101.49208 106.13362
110.0 0.00909 101.44678 106.31357
110.0 0.00909 101.40150 106.52081
122.0 0.00820 101.35621 106.75900
103.0 0.00971 101.31091 107.03263
129.0 0.00775 101.26564 107.34707
112.0 0.00893 101.22035 107.70898
120.0 0.00833 101.17509 108.12637
111.0 0.00901 101.12983 108.60840
113.0 0.00885 101.08459 109.16766
103.0 0.00971 101.03934 109.81879
113.0 0.00885 100.99408 110.58045
121.0 0.00826 100.94886 111.47616
115.0 0.00870 100.90362 112.53692
112.0 0.00893 100.85839 113.80324
128.0 0.00781 100.81319 115.32867
98.0 0.01020 100.76797 117.19365
108.0 0.00926 100.72278 119.51682
137.0 0.00730 100.67757 122.48819
126.0 0.00794 100.63239 126.41608
127.0 0.00787 100.58720 131.79648
116.0 0.00862 100.54202 139.37628
147.0 0.00680 100.49687 150.17172
152.0 0.00658 100.45171 165.43840
198.0 0.00505 100.40656 186.42606
191.0 0.00524 100.36140 213.98421
267.0 0.00375 100.31628 247.75511
335.0 0.002985 100.27113 284.63092
354.0 0.002825 100.22601 316.52170
345.0 0.002899 100.18092 331.35410
301.0 0.003322 100.13582 322.49832
299.0 0.003344 100.09072 296.56555
240.0 0.00417 100.04562 266.32074
223.0 0.00448 100.00055 240.56177
206.0 0.00485 99.95547 223.87831
201.0 0.00498 99.91040 216.65712
213.0 0.00469 99.86536 217.52321
234.0 0.00427 99.82030 222.93576
229.0 0.00437 99.77528 226.86401
200.0 0.00500 99.73024 222.95653
213.0 0.00469 99.68524 209.70030
200.0 0.00500 99.64021 191.28357
163.0 0.00613 99.59522 172.53677
160.0 0.00625 99.55025 156.40945
144.0 0.00694 99.50525 143.54955
133.0 0.00752 99.46030 133.81592
132.0 0.00758 99.41531 126.68145
104.0 0.00962 99.37038 121.52470
128.0 0.00781 99.32544 117.77458
132.0 0.00758 99.28049 114.98505
131.0 0.00763 99.23559 112.84321
129.0 0.00775 99.19067 111.14007
115.0 0.00870 99.14577 109.74709
121.0 0.00826 99.10090 108.58282
111.0 0.00901 99.05600 107.59339
110.0 0.00909 99.01114 106.74242
133.0 0.00752 98.96626 106.00301
126.0 0.00794 98.92142 105.35565
113.0 0.00885 98.87658 104.78382
98.0 0.01020 98.83177 104.27550
82.0 0.01220 98.78693 103.82076
97.0 0.01031 98.74214 103.41143
111.0 0.00901 98.69736 103.04099
121.0 0.00826 98.65256 102.70396
102.0 0.00980 98.60780 102.39614
113.0 0.00885 98.56303 102.11341
112.0 0.00893 98.51830 101.85275
118.0 0.00847 98.47356 101.61153
116.0 0.00862 98.42885 101.38737
113.0 0.00885 98.38414 101.17838
103.0 0.00971 98.33942 100.98282
109.0 0.00917 98.29475 100.79944
101.0 0.00990 98.25006 100.62673
89.0 0.01124 98.20542 100.46374
111.0 0.00901 98.16077 100.30947
95.0 0.01053 98.11613 100.16306
99.0 0.01010 98.07151 100.02380
101.0 0.00990 98.02687 99.89097
109.0 0.00917 97.98231 99.76417
96.0 0.01042 97.93771 99.64265
90.0 0.01111 97.89313 99.52607
91.0 0.01099 97.84859 99.41405
92.0 0.01087 97.80405 99.30614
93.0 0.01075 97.75951 99.20203
89.0 0.01124 97.71497 99.10140
106.0 0.00943 97.67049 99.00410
90.0 0.01111 97.62600 98.90973
107.0 0.00935 97.58151 98.81814
105.0 0.00952 97.53706 98.72916
85.0 0.01176 97.49263 98.64256
99.0 0.01010 97.44820 98.55817
97.0 0.01031 97.40375 98.47581
88.0 0.01136 97.35937 98.39546
80.0 0.01250 97.31496 98.31686
96.0 0.01042 97.27059 98.23998
98.0 0.01020 97.22624 98.16468
99.0 0.01010 97.18190 98.09084
84.0 0.01190 97.13757 98.01840
82.0 0.01220 97.09323 97.94723
100.0 0.01000 97.04896 97.87734
105.0 0.00952 97.00465 97.80857
93.0 0.01075 96.96038 97.74090
104.0 0.00962 96.91615 97.67428
108.0 0.00926 96.87190 97.60860
101.0 0.00990 96.82769 97.54384
88.0 0.01136 96.78346 97.47992
100.0 0.01000 96.73930 97.41688
97.0 0.01031 96.69512 97.35458
91.0 0.01099 96.65096 97.29300
103.0 0.00971 96.60683 97.23215
96.0 0.01042 96.56269 97.17194
89.0 0.01124 96.51860 97.11238
98.0 0.01020 96.47448 97.05338
93.0 0.01075 96.43044 96.99503
107.0 0.00935 96.38638 96.93716
102.0 0.00980 96.34232 96.87981
109.0 0.00917 96.29832 96.82299
102.0 0.00980 96.25430 96.76659
84.0 0.01190 96.21031 96.71066
89.0 0.01124 96.16637 96.65521
105.0 0.00952 96.12241 96.60012
88.0 0.01136 96.07847 96.54543
100.0 0.01000 96.03453 96.49110
101.0 0.00990 95.99065 96.43719
104.0 0.00962 95.94675 96.38357
104.0 0.00962 95.90290 96.33030
94.0 0.01064 95.85905 96.30939
93.0 0.01075 95.81524 96.25733
97.0 0.01031 95.77143 96.20556
84.0 0.01190 95.72763 96.15410
95.0 0.01053 95.68388 96.10293
94.0 0.01064 95.64011 96.05202
87.0 0.01149 95.59637 96.00140
117.0 0.00855 95.55267 95.95104
75.0 0.01333 95.50899 95.90096
101.0 0.00990 95.46532 95.85109
111.0 0.00901 95.42164 95.82381
103.0 0.00971 95.37802 95.77485
95.0 0.01053 95.33439 95.72608
95.0 0.01053 95.29079 95.67755
78.0 0.01282 95.24723 95.62926
87.0 0.01149 95.20368 95.58120
90.0 0.01111 95.16015 95.33689
98.0 0.01020 95.11662 95.29266
102.0 0.00980 95.07313 95.24857
94.0 0.01064 95.02965 95.20458
98.0 0.01020 94.98620 95.16074
106.0 0.00943 94.94279 95.11700
96.0 0.01042 94.89937 95.07338
70.0 0.01429 94.85598 95.02988
80.0 0.01250 94.81259 94.98650
117.0 0.00855 94.76926 94.94324
113.0 0.00885 94.72591 94.80978
107.0 0.00935 94.68261 94.76835
95.0 0.01053 94.63934 94.72701
77.0 0.01299 94.59608 94.68575
93.0 0.01075 94.55284 94.64457
105.0 0.00952 94.50961 94.60348
104.0 0.00962 94.46643 94.56251
104.0 0.00962 94.42324 94.52161
112.0 0.00893 94.38009 94.48083
119.0 0.00840 94.33697 94.44017
93.0 0.01075 94.29387 94.39961
114.0 0.00877 94.25079 94.35918
88.0 0.01136 94.20771 94.31886
107.0 0.00935 94.16469 94.27869
95.0 0.01053 94.12165 94.23862
91.0 0.01099 94.07867 94.19872
108.0 0.00926 94.03571 94.15897
106.0 0.00943 93.99275 94.11935
104.0 0.00962 93.94984 94.07992
86.0 0.01163 93.90693 94.04063
95.0 0.01053 93.86407 94.00153
90.0 0.01111 93.82122 93.96262
105.0 0.00952 93.77838 93.92390
102.0 0.00980 93.73559 93.88539
93.0 0.01075 93.69279 93.84708
88.0 0.01136 93.65005 93.80903
108.0 0.00926 93.60732 93.77119
89.0 0.01124 93.56463 93.73364
99.0 0.01010 93.52194 93.69635
79.0 0.01266 93.47928 93.65933
97.0 0.01031 93.43666 93.62263
86.0 0.01163 93.39404 93.58623
85.0 0.01176 93.35147 93.55020
96.0 0.01042 93.30892 93.51453
101.0 0.00990 93.26639 93.47925
96.0 0.01042 93.22388 93.44439
98.0 0.01020 93.18139 93.40996
96.0 0.01042 93.13895 93.37603
76.0 0.01316 93.09653 93.34261
91.0 0.01099 93.05413 93.30972
96.0 0.01042 93.01174 93.27743
88.0 0.01136 92.96941 93.24580
90.0 0.01111 92.92709 93.21484
77.0 0.01299 92.88477 93.18462
90.0 0.01111 92.84251 93.15523
86.0 0.01163 92.80028 93.12670
91.0 0.01099 92.75806 93.09914
77.0 0.01299 92.71587 93.07260
86.0 0.01163 92.67371 93.04722
107.0 0.00935 92.63157 93.02308
87.0 0.01149 92.58946 93.00031
104.0 0.00962 92.54740 92.97906
89.0 0.01124 92.50534 92.95944
104.0 0.00962 92.46332 92.94168
109.0 0.00917 92.42132 92.92596
81.0 0.01235 92.37936 92.91250
94.0 0.01064 92.33742 92.90159
82.0 0.01220 92.29548 92.89351
79.0 0.01266 92.25363 92.88866
101.0 0.00990 92.21176 92.88738
105.0 0.00952 92.16994 92.89019
87.0 0.01149 92.12815 92.89767
104.0 0.00962 92.08639 92.91046
115.0 0.00870 92.04464 92.92935
117.0 0.00855 92.00291 92.95530
93.0 0.01075 91.96126 92.98941
94.0 0.01064 91.91959 93.03308
92.0 0.01087 91.87796 93.08798
87.0 0.01149 91.83638 93.15617
83.0 0.01205 91.79483 93.24024
79.0 0.01266 91.75330 93.34334
68.0 0.01471 91.71175 93.46956
90.0 0.01111 91.67032 93.62408
76.0 0.01316 91.62886 93.81396
87.0 0.01149 91.58745 94.04875
76.0 0.01316 91.54607 94.34222
89.0 0.01124 91.50473 94.83538
85.0 0.01176 91.46340 95.32497
102.0 0.00980 91.42209 95.98302
86.0 0.01163 91.38085 96.89317
91.0 0.01099 91.33961 98.17938
90.0 0.01111 91.29841 100.00393
113.0 0.00885 91.25726 102.55450
104.0 0.00962 91.21612 106.01094
102.0 0.00980 91.17502 110.47468
113.0 0.00885 91.13393 115.84533
144.0 0.00694 91.09291 121.56786
125.0 0.00800 91.05190 126.43652
143.0 0.00699 91.01091 128.52266
130.0 0.00769 90.96998 127.07654
143.0 0.00699 90.92907 123.19763
140.0 0.00714 90.88818 118.79654
107.0 0.00935 90.84736 115.25041
109.0 0.00917 90.80653 113.19234
120.0 0.00833 90.76574 112.79083
101.0 0.00990 90.72498 113.89602
119.0 0.00840 90.68428 116.00705
119.0 0.00840 90.64359 118.12197
111.0 0.00901 90.60294 118.83427
114.0 0.00877 90.56234 117.21941
104.0 0.00962 90.52174 113.69856
109.0 0.00917 90.48119 109.46992
118.0 0.00847 90.44067 105.46699
106.0 0.00943 90.40020 102.10412
100.0 0.01000 90.35975 99.46471
102.0 0.00980 90.31933 97.48261
87.0 0.01149 90.27895 96.03442
106.0 0.00943 90.23861 94.98384
89.0 0.01124 90.19830 94.21414
85.0 0.01176 90.15801 93.63527
87.0 0.01149 90.11779 93.18485
71.0 0.01408 90.07758 92.82207
106.0 0.00943 90.03740 92.52145
94.0 0.01064 89.99727 92.26713
91.0 0.01099 89.95717 92.04823
90.0 0.01111 89.91710 91.85751
96.0 0.01042 89.87705 91.68969
115.0 0.00870 89.83707 91.54076
108.0 0.00926 89.79710 91.40749
92.0 0.01087 89.75717 91.28746
74.0 0.01351 89.71729 91.17875
104.0 0.00962 89.67744 91.07967
87.0 0.01149 89.63762 90.98897
99.0 0.01010 89.59784 90.90562
110.0 0.00909 89.55811 90.82871
88.0 0.01136 89.51839 90.75751
83.0 0.01205 89.47871 90.69147
82.0 0.01220 89.43908 90.63007
102.0 0.00980 89.39949 90.57292
94.0 0.01064 89.35992 90.51963
99.0 0.01010 89.32040 90.46997
98.0 0.01020 89.28091 90.42368
72.0 0.01389 89.24146 90.38058
78.0 0.01282 89.20203 90.34052
92.0 0.01087 89.16267 90.30341
103.0 0.00971 89.12334 90.26911
77.0 0.01299 89.08404 90.23758
89.0 0.01124 89.04477 90.20879
106.0 0.00943 89.00555 90.18276
95.0 0.01053 88.96636 90.15944
91.0 0.01099 88.92721 90.13891
85.0 0.01176 88.88811 90.12124
101.0 0.00990 88.84905 90.10647
95.0 0.01053 88.81001 90.09472
94.0 0.01064 88.77100 90.08609
93.0 0.01075 88.73206 90.08078
79.0 0.01266 88.69314 90.07893
107.0 0.00935 88.65426 90.08077
101.0 0.00990 88.61543 90.08652
91.0 0.01099 88.57661 90.09648
74.0 0.01351 88.53787 90.11098
104.0 0.00962 88.49915 90.13034
71.0 0.01408 88.46047 90.15501
79.0 0.01266 88.42182 90.18548
100.0 0.01000 88.38322 90.22227
92.0 0.01087 88.34467 90.26598
106.0 0.00943 88.30613 90.31738
78.0 0.01282 88.26767 90.37729
85.0 0.01176 88.22923 90.44659
75.0 0.01333 88.19083 90.52644
86.0 0.01163 88.15247 90.61810
96.0 0.01042 88.11414 90.72308
84.0 0.01190 88.07587 90.87669
84.0 0.01190 88.03763 91.01423
94.0 0.01064 87.99944 91.17126
93.0 0.01075 87.96130 91.35062
97.0 0.01031 87.92316 91.55576
113.0 0.00885 87.88509 91.79079
95.0 0.01053 87.84705 92.06080
100.0 0.01000 87.80908 92.37151
102.0 0.00980 87.77112 92.73071
100.0 0.01000 87.73322 93.14761
107.0 0.00935 87.69535 93.63358
98.0 0.01020 87.65753 94.20372
94.0 0.01064 87.61976 94.87707
92.0 0.01087 87.58201 95.67966
73.0 0.01370 87.54433 96.68710
92.0 0.01087 87.50667 97.87348
102.0 0.00980 87.46906 99.35902
100.0 0.01000 87.43149 101.26896
95.0 0.01053 87.39397 103.79695
97.0 0.01031 87.35648 107.22533
119.0 0.00840 87.31904 111.94190
114.0 0.00877 87.28165 118.42060
117.0 0.00855 87.24429 127.19136
147.0 0.00680 87.20699 138.71078
159.0 0.00629 87.16972 153.17332
220.0 0.00455 87.13250 170.13699
177.0 0.00565 87.09531 187.79170
229.0 0.00437 87.05816 202.25906
215.0 0.00465 87.02109 208.54256
209.0 0.00478 86.98404 204.41843
168.0 0.00595 86.94703 192.89378
171.0 0.00585 86.91008 179.36346
146.0 0.00685 86.87318 167.90262
122.0 0.00820 86.83630 160.52496
147.0 0.00680 86.79945 157.84039
149.0 0.00671 86.76270 159.56017
176.0 0.00568 86.72596 164.50488
162.0 0.00617 86.68925 170.25406
184.0 0.00543 86.65262 173.18221
185.0 0.00541 86.61602 170.18777
147.0 0.00680 86.57946 161.37318
147.0 0.00680 86.54293 149.50616
135.0 0.00741 86.50648 137.48390
118.0 0.00847 86.47007 126.88333
127.0 0.00787 86.43369 118.23468
101.0 0.00990 86.39736 111.50964
98.0 0.01020 86.36110 106.43838
99.0 0.01010 86.32485 102.67980
114.0 0.00877 86.28864 99.89954
106.0 0.00943 86.25252 97.79631
97.0 0.01031 86.21642 96.20094
119.0 0.00840 86.18035 94.94241
89.0 0.01124 86.14436 93.92183
86.0 0.01163 86.10840 93.07423
89.0 0.01124 86.07249 92.35767
110.0 0.00909 86.03660 91.74330
102.0 0.00980 86.00081 91.21142
103.0 0.00971 85.96503 90.74624
95.0 0.01053 85.92931 90.33651
105.0 0.00952 85.89364 89.97323
83.0 0.01205 85.85799 89.64897
97.0 0.01031 85.82240 89.35791
104.0 0.00962 85.78690 89.09554
89.0 0.01124 85.75140 88.85754
78.0 0.01282 85.71597 88.64084
92.0 0.01087 85.68056 88.44268
85.0 0.01176 85.64523 88.26086
88.0 0.01136 85.60993 88.09336
85.0 0.01176 85.57468 87.93853
96.0 0.01042 85.53949 87.79516
79.0 0.01266 85.50434 87.66184
97.0 0.01031 85.46923 87.53764
84.0 0.01190 85.43417 87.42168
85.0 0.01176 85.39916 87.31322
92.0 0.01087 85.36421 87.21159
90.0 0.01111 85.32932 87.11626
96.0 0.01042 85.29445 87.02663
73.0 0.01370 85.25965 86.94238
79.0 0.01266 85.22488 86.86307
74.0 0.01351 85.19016 86.78841
92.0 0.01087 85.15550 86.71817
105.0 0.00952 85.12091 86.65209
80.0 0.01250 85.08634 86.58995
88.0 0.01136 85.05183 86.53163
78.0 0.01282 85.01736 86.47698
86.0 0.01163 84.98294 86.42593
106.0 0.00943 84.94858 86.37839
81.0 0.01235 84.91425 86.33436
93.0 0.01075 84.88000 86.29382
93.0 0.01075 84.84580 86.25679
78.0 0.01282 84.81163 86.22329
86.0 0.01163 84.77753 86.19348
103.0 0.00971 84.74347 86.16740
98.0 0.01020 84.70944 86.14524
85.0 0.01176 84.67551 86.12723
88.0 0.01136 84.64159 86.11356
89.0 0.01124 84.60773 86.10455
68.0 0.01471 84.57391 86.10057
80.0 0.01250 84.54017 86.10206
81.0 0.01235 84.50645 86.10947
72.0 0.01389 84.47279 86.12345
103.0 0.00971 84.43919 86.14470
85.0 0.01176 84.40565 86.17408
82.0 0.01220 84.37215 86.21262
78.0 0.01282 84.33868 86.26155
76.0 0.01316 84.30531 86.32236
83.0 0.01205 84.27196 86.39680
91.0 0.01099 84.23866 86.48710
77.0 0.01299 84.20544 86.59584
92.0 0.01087 84.17224 86.72644
77.0 0.01299 84.13909 86.88300
93.0 0.01075 84.10601 87.07088
75.0 0.01333 84.07298 87.29697
80.0 0.01250 84.04000 87.57070
91.0 0.01099 84.00706 87.90536
83.0 0.01205 83.97419 88.32039
90.0 0.01111 83.94138 88.84466
91.0 0.01099 83.90860 89.52217
102.0 0.00980 83.87589 90.41614
71.0 0.01408 83.84322 91.61430
80.0 0.01250 83.81062 93.22964
79.0 0.01266 83.77806 95.39449
100.0 0.01000 83.74556 98.24300
102.0 0.00980 83.71313 101.88668
86.0 0.01163 83.68072 106.34814
112.0 0.00893 83.64837 111.45225
105.0 0.00952 83.61608 116.63331
112.0 0.00893 83.58385 120.79916
124.0 0.00806 83.55165 122.69349
138.0 0.00725 83.51952 121.89420
128.0 0.00781 83.48746 119.31694
123.0 0.00813 83.45545 116.44484
124.0 0.00806 83.42348 114.43820
107.0 0.00935 83.39156 113.92152
88.0 0.01136 83.35970 115.12356
94.0 0.01064 83.32790 117.96819
94.0 0.01064 83.29614 122.00232
111.0 0.00901 83.26447 126.20287
111.0 0.00901 83.23283 128.91512
99.0 0.01010 83.20124 128.55357
124.0 0.00806 83.16971 124.84612
99.0 0.01010 83.13824 118.90453
95.0 0.01053 83.10680 112.55036
80.0 0.01250 83.07543 106.68648
104.0 0.00962 83.04415 101.74171
92.0 0.01087 83.01289 97.78466
95.0 0.01053 82.98169 94.72812
92.0 0.01087 82.95054 92.41857
70.0 0.01429 82.91945 90.69029
80.0 0.01250 82.88841 89.39277
90.0 0.01111 82.85744 88.40427
104.0 0.00962 82.82652 87.63265
83.0 0.01205 82.79565 86.93626
91.0 0.01099 82.76485 86.42967
103.0 0.00971 82.73409 86.00467
90.0 0.01111 82.70339 85.64207
84.0 0.01190 82.67274 85.32855
95.0 0.01053 82.64214 85.05458
82.0 0.01220 82.61164 84.81310
92.0 0.01087 82.58116 84.59832
90.0 0.01111 82.55074 84.40600
106.0 0.00943 82.52038 84.23265
104.0 0.00962 82.49007 84.07541
87.0 0.01149 82.45981 83.93196
100.0 0.01000 82.42964 83.80046
104.0 0.00962 82.39950 83.67915
100.0 0.01000 82.36942 83.56680
73.0 0.01370 82.33940 83.46225
95.0 0.01053 82.30943 83.36457
65.0 0.01538 82.27952 83.27294
73.0 0.01370 82.24967 83.18669
83.0 0.01205 82.21987 83.10519
83.0 0.01205 82.19015 83.02799
107.0 0.00935 82.16048 82.95457
91.0 0.01099 82.13085 82.88458
84.0 0.01190 82.10128 82.81766
88.0 0.01136 82.07177 82.75353
101.0 0.00990 82.04233 82.69193
81.0 0.01235 82.01294 82.63264
100.0 0.01000 81.98360 82.57544
74.0 0.01351 81.95434 82.52014
85.0 0.01176 81.92511 82.46658
83.0 0.01205 81.89595 82.41463
80.0 0.01250 81.86685 82.39865
79.0 0.01266 81.83780 82.35004
94.0 0.01064 81.80881 82.30270
81.0 0.01235 81.77990 82.25656
88.0 0.01136 81.75103 82.21148
95.0 0.01053 81.72222 82.16742
76.0 0.01316 81.69346 82.12428
89.0 0.01124 81.66476 82.08205
98.0 0.01020 81.63614 82.04063
76.0 0.01316 81.60757 82.00000
89.0 0.01124 81.57904 81.96006
73.0 0.01370 81.55059 81.92083
73.0 0.01370 81.52219 81.89970
80.0 0.01250 81.49384 81.86195
97.0 0.01031 81.46555 81.82478
79.0 0.01266 81.43734 81.78816
85.0 0.01176 81.40917 81.75207
82.0 0.01220 81.38107 81.71645
74.0 0.01351 81.35303 81.68130
105.0 0.00952 81.32503 81.64659
105.0 0.00952 81.29710 81.61231
90.0 0.01111 81.26923 81.57844
99.0 0.01010 81.24142 81.54496
79.0 0.01266 81.21369 81.51186
92.0 0.01087 81.18599 81.47910
83.0 0.01205 81.15836 81.44669
91.0 0.01099 81.13079 81.41462
88.0 0.01136 81.10327 81.38287
81.0 0.01235 81.07582 81.35142
73.0 0.01370 81.04843 81.32027
84.0 0.01190 81.02110 81.28944
84.0 0.01190 80.99383 81.25887
74.0 0.01351 80.96662 81.22857
90.0 0.01111 80.93948 81.19855
88.0 0.01136 80.91237 81.16876
98.0 0.01020 80.88534 81.13926
79.0 0.01266 80.85838 81.11001
68.0 0.01471 80.83147 81.08100
85.0 0.01176 80.80461 81.05221
97.0 0.01031 80.77782 81.02367
84.0 0.01190 80.75110 80.99538
92.0 0.01087 80.72443 80.96729
86.0 0.01163 80.69781 80.93943
80.0 0.01250 80.67125 80.91180
111.0 0.00901 80.64478 80.88441
91.0 0.01099 80.61835 80.85722
86.0 0.01163 80.59197 80.83025
88.0 0.01136 80.56568 80.80351
76.0 0.01316 80.53943 80.77698
82.0 0.01220 80.51324 80.75066
81.0 0.01235 80.48712 80.72458
95.0 0.01053 80.46106 80.69870
89.0 0.01124 80.43506 80.67303
73.0 0.01370 80.40910 80.64758
77.0 0.01299 80.38325 80.62239
88.0 0.01136 80.35741 80.59739
84.0 0.01190 80.33166 80.57262
97.0 0.01031 80.30595 80.54807
82.0 0.01220 80.28033 80.52377
80.0 0.01250 80.25475 80.49970
77.0 0.01299 80.22924 80.47585
97.0 0.01031 80.20380 80.45229
85.0 0.01176 80.17840 80.42892
85.0 0.01176 80.15307 80.40584
85.0 0.01176 80.12782 80.38302
73.0 0.01370 80.10262 80.36046
92.0 0.01087 80.07746 80.33815
94.0 0.01064 80.05238 80.31615
80.0 0.01250 80.02737 80.29442
98.0 0.01020 80.00240 80.27299
76.0 0.01316 79.97750 80.25187
80.0 0.01250 79.95266 80.23106
74.0 0.01351 79.92792 80.21062
74.0 0.01351 79.90320 80.19048
95.0 0.01053 79.87855 80.17071
92.0 0.01087 79.85395 80.15131
73.0 0.01370 79.82943 80.13230
97.0 0.01031 79.80496 80.11369
87.0 0.01149 79.78057 80.09552
95.0 0.01053 79.75623 80.07777
87.0 0.01149 79.73196 80.06052
69.0 0.01449 79.70774 80.04374
85.0 0.01176 79.68359 80.02747
76.0 0.01316 79.65951 80.01177
72.0 0.01389 79.63547 79.99663
75.0 0.01333 79.61150 79.98210
68.0 0.01471 79.58761 79.96824
64.0 0.01563 79.56377 79.95507
91.0 0.01099 79.53999 79.94262
82.0 0.01220 79.51627 79.93097
80.0 0.01250 79.49262 79.92017
92.0 0.01087 79.46902 79.91026
92.0 0.01087 79.44550 79.90131
87.0 0.01149 79.42204 79.89342
90.0 0.01111 79.39864 79.82929
91.0 0.01099 79.37531 79.82452
85.0 0.01176 79.35202 79.82106
105.0 0.00952 79.32880 79.81900
66.0 0.01515 79.30565 79.81848
81.0 0.01235 79.28255 79.81965
66.0 0.01515 79.25955 79.82265
100.0 0.01000 79.23657 79.82765
94.0 0.01064 79.21368 79.83488
78.0 0.01282 79.19083 79.84454
116.0 0.00862 79.16806 79.85691
79.0 0.01266 79.14535 79.87227
90.0 0.01111 79.12271 79.89095
72.0 0.01389 79.10013 79.91336
67.0 0.01493 79.07759 79.93993
93.0 0.01075 79.05514 79.97118
81.0 0.01235 79.03273 80.00769
75.0 0.01333 79.01041 80.05020
97.0 0.01031 78.98814 80.09949
92.0 0.01087 78.96592 80.15656
93.0 0.01075 78.94379 80.22250
78.0 0.01282 78.92171 80.29875
78.0 0.01282 78.89969 80.38693
85.0 0.01176 78.87773 80.48901
83.0 0.01205 78.85583 80.60743
86.0 0.01163 78.83401 80.74518
74.0 0.01351 78.81226 80.96272
80.0 0.01250 78.79055 81.15207
83.0 0.01205 78.76892 81.37500
80.0 0.01250 78.74733 81.63934
88.0 0.01136 78.72582 81.95580
84.0 0.01190 78.70437 82.33957
78.0 0.01282 78.68298 82.81303
75.0 0.01333 78.66167 83.40987
88.0 0.01136 78.64042 84.18010
65.0 0.01538 78.61923 85.19789
87.0 0.01149 78.59809 86.56441
95.0 0.01053 78.57703 88.41035
84.0 0.01190 78.55602 90.91696
106.0 0.00943 78.53509 94.18522
79.0 0.01266 78.51421 98.36757
87.0 0.01149 78.49340 103.50160
100.0 0.01000 78.47264 109.40264
115.0 0.00870 78.45196 115.45920
94.0 0.01064 78.43133 120.43936
103.0 0.00971 78.41077 122.77630
100.0 0.01000 78.39028 121.64366
104.0 0.00962 78.36985 117.76591
79.0 0.01266 78.34948 112.77275
91.0 0.01099 78.32918 108.05607
87.0 0.01149 78.30894 104.39187
88.0 0.01136 78.28876 102.08035
95.0 0.01053 78.26865 101.14472
94.0 0.01064 78.24860 101.41467
84.0 0.01190 78.22861 102.50117
100.0 0.01000 78.20869 103.72256
103.0 0.00971 78.18883 104.16236
92.0 0.01087 78.16903 103.11746
96.0 0.01042 78.14929 100.62811
73.0 0.01370 78.12962 97.35986
86.0 0.01163 78.11002 94.01389
78.0 0.01282 78.09048 91.00434
82.0 0.01220 78.07101 88.48770
90.0 0.01111 78.05159 86.47282
83.0 0.01205 78.03225 84.90676
97.0 0.01031 78.01296 83.71047
76.0 0.01316 77.99373 82.80184
85.0 0.01176 77.97457 82.10753
80.0 0.01250 77.95548 81.56856
72.0 0.01389 77.93645 81.14019
90.0 0.01111 77.91748 80.79158
85.0 0.01176 77.89859 80.50150
91.0 0.01099 77.87974 80.25560
67.0 0.01493 77.86097 80.04421
69.0 0.01449 77.84225 79.86045
85.0 0.01176 77.82360 79.69937
79.0 0.01266 77.80502 79.55704
97.0 0.01031 77.78649 79.43056
91.0 0.01099 77.76804 79.31761
75.0 0.01333 77.74965 79.21621
81.0 0.01235 77.73131 79.12483
100.0 0.01000 77.71306 79.04225
95.0 0.01053 77.69485 78.96731
85.0 0.01176 77.67670 78.89914
74.0 0.01351 77.65863 78.83706
84.0 0.01190 77.64062 78.78041
81.0 0.01235 77.62267 78.72868
84.0 0.01190 77.60478 78.68143
84.0 0.01190 77.58697 78.63834
79.0 0.01266 77.56921 78.59907
80.0 0.01250 77.55151 78.56332
87.0 0.01149 77.53388 78.53095
77.0 0.01299 77.51632 78.50179
85.0 0.01176 77.49881 78.47566
100.0 0.01000 77.48138 78.45250
75.0 0.01333 77.46401 78.43224
84.0 0.01190 77.44669 78.41481
70.0 0.01429 77.42944 78.40022
88.0 0.01136 77.41225 78.38850
88.0 0.01136 77.39514 78.37967
92.0 0.01087 77.37807 78.37380
92.0 0.01087 77.36108 78.37100
83.0 0.01205 77.34415 78.37141
89.0 0.01124 77.32729 78.37519
84.0 0.01190 77.31047 78.38253
91.0 0.01099 77.29373 78.39368
90.0 0.01111 77.27705 78.40899
72.0 0.01389 77.26044 78.42873
91.0 0.01099 77.24390 78.45339
86.0 0.01163 77.22740 78.48338
98.0 0.01020 77.21099 78.51936
69.0 0.01449 77.19463 78.56195
82.0 0.01220 77.17832 78.61199
92.0 0.01087 77.16209 78.67044
91.0 0.01099 77.14591 78.73844
81.0 0.01235 77.12981 78.81735
83.0 0.01205 77.11376 78.90882
65.0 0.01538 77.09779 79.01480
93.0 0.01075 77.08187 79.13780
81.0 0.01235 77.06601 79.32964
96.0 0.01042 77.05022 79.49709
96.0 0.01042 77.03449 79.69280
91.0 0.01099 77.01882 79.92254
76.0 0.01316 77.00323 80.19366
86.0 0.01163 76.98769 80.51632
73.0 0.01370 76.97222 80.90401
76.0 0.01316 76.95680 81.37634
86.0 0.01163 76.94145 81.96315
75.0 0.01333 76.92616 82.71107
84.0 0.01190 76.91094 83.69330
109.0 0.00917 76.89577 85.02141
87.0 0.01149 76.88068 86.88152
92.0 0.01087 76.86565 89.43287
86.0 0.01163 76.85067 92.94927
100.0 0.01000 76.83576 97.67806
88.0 0.01136 76.82092 103.79620
117.0 0.00855 76.80613 111.28680
118.0 0.00847 76.79142 119.70087
117.0 0.00855 76.77676 127.80218
135.0 0.00741 76.76216 133.37915
108.0 0.00926 76.74763 134.25584
110.0 0.00909 76.73315 130.23645
103.0 0.00971 76.71875 123.36452
98.0 0.01020 76.70440 116.07302
96.0 0.01042 76.69011 109.91618
101.0 0.00990 76.67590 105.58867
83.0 0.01205 76.66174 103.27509
87.0 0.01149 76.64764 102.88146
101.0 0.00990 76.63360 104.08427
86.0 0.01163 76.61964 106.26195
110.0 0.00909 76.60572 108.35827
102.0 0.00980 76.59189 109.01115
107.0 0.00935 76.57809 107.34328
106.0 0.00943 76.56437 103.70573
95.0 0.01053 76.55071 99.22095
92.0 0.01087 76.53711 94.84494
98.0 0.01020 76.52358 91.05694
81.0 0.01235 76.51010 87.99724
85.0 0.01176 76.49669 85.63503
83.0 0.01205 76.48335 83.86569
77.0 0.01299 76.47006 82.55924
87.0 0.01149 76.45683 81.59473
113.0 0.00885 76.44366 80.87165
82.0 0.01220 76.43056 80.31522
73.0 0.01370 76.41753 79.87403
75.0 0.01333 76.40455 79.51440
90.0 0.01111 76.39164 79.21427
68.0 0.01471 76.37878 78.95963
74.0 0.01351 76.36597 78.74084
84.0 0.01190 76.35324 78.55103
96.0 0.01042 76.34058 78.38508
89.0 0.01124 76.32797 78.23905
72.0 0.01389 76.31542 78.10984
73.0 0.01370 76.30293 77.99496
79.0 0.01266 76.29050 77.89230
74.0 0.01351 76.27814 77.80027
71.0 0.01408 76.26585 77.71753
86.0 0.01163 76.25359 77.64291
83.0 0.01205 76.24142 77.57551
81.0 0.01235 76.22931 77.51455
74.0 0.01351 76.21724 77.45932
71.0 0.01408 76.20525 77.40931
97.0 0.01031 76.19331 77.36407
66.0 0.01515 76.18143 77.32317
80.0 0.01250 76.16962 77.25175
71.0 0.01408 76.15788 77.21919
89.0 0.01124 76.14618 77.19013
92.0 0.01087 76.13454 77.16445
86.0 0.01163 76.12297 77.14201
65.0 0.01538 76.11146 77.12266
79.0 0.01266 76.10000 77.10634
89.0 0.01124 76.08862 77.09305
76.0 0.01316 76.07729 77.08276
84.0 0.01190 76.06602 77.07549
72.0 0.01389 76.05481 77.07127
82.0 0.01220 76.04366 77.05280
84.0 0.01190 76.03258 77.05523
73.0 0.01370 76.02155 77.06110
100.0 0.01000 76.01058 77.07055
83.0 0.01205 75.99967 77.08385
93.0 0.01075 75.98883 77.10124
71.0 0.01408 75.97803 77.12311
82.0 0.01220 75.96731 77.14989
66.0 0.01515 75.95665 77.18201
76.0 0.01316 75.94603 77.22008
82.0 0.01220 75.93549 77.26478
90.0 0.01111 75.92500 77.31689
89.0 0.01124 75.91457 77.37747
70.0 0.01429 75.90420 77.44767
90.0 0.01111 75.89389 77.52890
79.0 0.01266 75.88364 77.62287
98.0 0.01020 75.87345 77.73167
90.0 0.01111 75.86331 77.85786
97.0 0.01031 75.85324 78.00465
85.0 0.01176 75.84322 78.17587
86.0 0.01163 75.83327 78.37673
73.0 0.01370 75.82336 78.61362
97.0 0.01031 75.81354 78.89523
75.0 0.01333 75.80376 79.23341
96.0 0.01042 75.79404 79.64562
80.0 0.01250 75.78439 80.15796
79.0 0.01266 75.77477 80.81207
88.0 0.01136 75.76524 81.67155
86.0 0.01163 75.75575 82.83217
86.0 0.01163 75.74633 84.42870
82.0 0.01220 75.73696 86.63515
95.0 0.01053 75.72765 89.65143
79.0 0.01266 75.71840 93.67110
92.0 0.01087 75.70921 98.82074
95.0 0.01053 75.70007 105.06770
115.0 0.00870 75.69100 112.01117
97.0 0.01031 75.68198 118.59689
105.0 0.00952 75.67302 123.02636
103.0 0.00971 75.66412 123.60636
110.0 0.00909 75.65528 120.26624
112.0 0.00893 75.64649 114.66904
110.0 0.00909 75.63776 108.75983
90.0 0.01111 75.62909 103.78824
86.0 0.01163 75.62048 100.32631
93.0 0.01075 75.61192 98.54660
96.0 0.01042 75.60342 98.39417
89.0 0.01124 75.59497 99.63345
102.0 0.00980 75.58660 101.79011
102.0 0.00980 75.57828 104.02579
98.0 0.01020 75.57001 105.15488
96.0 0.01042 75.56179 104.22605
95.0 0.01053 75.55363 101.30527
95.0 0.01053 75.54553 97.32961
100.0 0.01000 75.53749 93.25822
82.0 0.01220 75.52951 89.63087
79.0 0.01266 75.52158 86.64493
80.0 0.01250 75.51370 84.30714
104.0 0.00962 75.50590 82.53785
89.0 0.01124 75.49813 81.16827
82.0 0.01220 75.49043 80.20066
90.0 0.01111 75.48277 79.47958
83.0 0.01205 75.47520 78.93032
61.0 0.01639 75.46766 78.49921
82.0 0.01220 75.46018 78.15105
104.0 0.00962 75.45275 77.86276
88.0 0.01136 75.44539 77.61943
79.0 0.01266 75.43808 77.41103
84.0 0.01190 75.43083 77.23063
66.0 0.01515 75.42363 77.07289
98.0 0.01020 75.41649 76.93402
79.0 0.01266 75.40940 76.78295
94.0 0.01064 75.40237 76.67368
83.0 0.01205 75.39539 76.57574
66.0 0.01515 75.38847 76.48748
80.0 0.01250 75.38160 76.40760
73.0 0.01370 75.37479 76.33501
73.0 0.01370 75.36803 76.26870
87.0 0.01149 75.36133 76.20792
72.0 0.01389 75.35468 76.15203
75.0 0.01333 75.34809 76.10043
79.0 0.01266 75.34155 76.05267
85.0 0.01176 75.33508 76.00835
67.0 0.01493 75.32864 75.96705
72.0 0.01389 75.32227 75.92847
70.0 0.01429 75.31594 75.89237
89.0 0.01124 75.30968 75.85851
85.0 0.01176 75.30347 75.82667
59.0 0.01695 75.29731 75.79664
75.0 0.01333 75.29120 75.76829
71.0 0.01408 75.28516 75.74150
94.0 0.01064 75.27916 75.71606
74.0 0.01351 75.27322 75.69193
77.0 0.01299 75.26733 75.66898
61.0 0.01639 75.26149 75.64711
81.0 0.01235 75.25571 75.62624
74.0 0.01351 75.24998 75.60631
70.0 0.01429 75.24431 75.58723
87.0 0.01149 75.23868 75.56896
78.0 0.01282 75.23311 75.55144
56.0 0.01786 75.22760 75.53462
78.0 0.01282 75.22213 75.51844
72.0 0.01389 75.21673 75.50288
81.0 0.01235 75.21136 75.48788
70.0 0.01429 75.20605 75.47343
73.0 0.01370 75.20081 75.45947
74.0 0.01351 75.19561 75.44599
81.0 0.01235 75.19045 75.43295
77.0 0.01299 75.18536 75.42033
86.0 0.01163 75.18032 75.40813
70.0 0.01429 75.17532 75.39629
70.0 0.01429 75.17038 75.38480
83.0 0.01205 75.16549 75.37366
80.0 0.01250 75.16065 75.36285
78.0 0.01282 75.15588 75.35234
84.0 0.01190 75.15113 75.34212
71.0 0.01408 75.14645 75.33219
75.0 0.01333 75.14182 75.32252
70.0 0.01429 75.13724 75.31310
89.0 0.01124 75.13271 75.30392
75.0 0.01333 75.12823 75.29498
85.0 0.01176 75.12380 75.28626
75.0 0.01333 75.11943 75.27778
62.0 0.01613 75.11510 75.26948
71.0 0.01408 75.11083 75.26139
73.0 0.01370 75.10660 75.25348
74.0 0.01351 75.10243 75.24577
74.0 0.01351 75.09831 75.23823
83.0 0.01205 75.09423 75.23086
86.0 0.01163 75.09021 75.22366
70.0 0.01429 75.08624 75.21661
93.0 0.01075 75.08231 75.20972
71.0 0.01408 75.07844 75.20298
79.0 0.01266 75.07461 75.19640
66.0 0.01515 75.07084 75.18995
87.0 0.01149 75.06712 75.18364
70.0 0.01429 75.06344 75.17744
61.0 0.01639 75.05981 75.17140
57.0 0.01754 75.05624 75.16547
84.0 0.01190 75.05270 75.15968
77.0 0.01299 75.04922 75.15399
78.0 0.01282 75.04579 75.14843
79.0 0.01266 75.04240 75.14297
71.0 0.01408 75.03908 75.13763
80.0 0.01250 75.03579 75.13240
85.0 0.01176 75.03255 75.12727
81.0 0.01235 75.02936 75.12225
80.0 0.01250 75.02622 75.11732
96.0 0.01042 75.02313 75.11250
86.0 0.01163 75.02009 75.10777
67.0 0.01493 75.01709 75.10315
97.0 0.01031 75.01414 75.09861
65.0 0.01538 75.01124 75.04516
83.0 0.01205 75.00838 75.04165
80.0 0.01250 75.00558 75.03821
61.0 0.01639 75.00282 75.03483
83.0 0.01205 75.00011 75.03153
77.0 0.01299 74.99744 75.02828
78.0 0.01282 74.99483 75.02510
67.0 0.01493 74.99226 75.02198
81.0 0.01235 74.98973 75.01892
58.0 0.01724 74.98726 75.01593
82.0 0.01220 74.98483 75.01299
80.0 0.01250 74.98244 75.01011
69.0 0.01449 74.98010 74.98037
73.0 0.01370 74.97781 74.97809
70.0 0.01429 74.97556 74.97583
71.0 0.01408 74.97337 74.97364
76.0 0.01316 74.97121 74.97148
91.0 0.01099 74.96909 74.96936
73.0 0.01370 74.96703 75.09076
68.0 0.01471 74.96502 75.09054
64.0 0.01563 74.96305 75.09040
79.0 0.01266 74.96112 75.09034
70.0 0.01429 74.95923 75.09036
88.0 0.01136 74.95740 75.09049
72.0 0.01389 74.95560 75.09070
84.0 0.01190 74.95387 75.09100
68.0 0.01471 74.95216 75.09139
91.0 0.01099 74.95050 75.09187
68.0 0.01471 74.94888 75.09245
56.0 0.01786 74.94732 75.09313
76.0 0.01316 74.94579 75.09390
85.0 0.01176 74.94431 75.17197
79.0 0.01266 74.94286 75.17408
91.0 0.01099 74.94147 75.17629
63.0 0.01587 74.94012 75.17864
69.0 0.01449 74.93882 75.18114
74.0 0.01351 74.93756 75.18376
82.0 0.01220 74.93634 75.18652
87.0 0.01149 74.93517 75.18941
71.0 0.01408 74.93402 75.19245
86.0 0.01163 74.93294 75.19563
81.0 0.01235 74.93189 75.19898
79.0 0.01266 74.93089 75.20248
83.0 0.01205 74.92992 75.24928
71.0 0.01408 74.92901 75.25387
80.0 0.01250 74.92813 75.25864
81.0 0.01235 74.92728 75.26358
85.0 0.01176 74.92650 75.26874
70.0 0.01429 74.92574 75.27409
87.0 0.01149 74.92503 75.27964
74.0 0.01351 74.92437 75.28542
77.0 0.01299 74.92374 75.29141
71.0 0.01408 74.92316 75.29763
84.0 0.01190 74.92262 75.30408
84.0 0.01190 74.92211 75.31077
73.0 0.01370 74.92166 75.31770
84.0 0.01190 74.92124 75.33594
75.0 0.01333 74.92086 75.34358
68.0 0.01471 74.92052 75.35151
82.0 0.01220 74.92023 75.35972
86.0 0.01163 74.91997 75.36823
85.0 0.01176 74.91975 75.37705
74.0 0.01351 74.91957 75.38618
70.0 0.01429 74.91944 75.39564
84.0 0.01190 74.91934 75.40543
92.0 0.01087 74.91929 75.41558
75.0 0.01333 74.91927 75.42610
81.0 0.01235 74.91930 75.43700
75.0 0.01333 74.91935 75.44829
84.0 0.01190 74.91946 75.45998
78.0 0.01282 74.91960 75.47212
71.0 0.01408 74.91978 75.48469
74.0 0.01351 74.92000 75.49773
85.0 0.01176 74.92026 75.51125
78.0 0.01282 74.92055 75.52525
94.0 0.01064 74.92088 75.53979
73.0 0.01370 74.92126 75.55489
83.0 0.01205 74.92167 75.57053
70.0 0.01429 74.92212 75.58680
75.0 0.01333 74.92262 75.60368
70.0 0.01429 74.92313 75.62121
102.0 0.00980 74.92369 75.63943
60.0 0.01667 74.92430 75.65837
102.0 0.00980 74.92494 75.67806
70.0 0.01429 74.92561 75.69854
57.0 0.01754 74.92632 75.71985
71.0 0.01408 74.92708 75.74204
90.0 0.01111 74.92786 75.76515
79.0 0.01266 74.92869 75.78923
67.0 0.01493 74.92955 75.81435
70.0 0.01429 74.93045 75.84054
72.0 0.01389 74.93138 75.86786
61.0 0.01639 74.93234 75.89639
90.0 0.01111 74.93335 75.92619
81.0 0.01235 74.93439 75.95737
82.0 0.01220 74.93548 75.98997
82.0 0.01220 74.93659 76.02410
84.0 0.01190 74.93774 76.05981
84.0 0.01190 74.93892 76.09728
72.0 0.01389 74.94015 76.13657
74.0 0.01351 74.94140 76.17783
76.0 0.01316 74.94269 76.22116
90.0 0.01111 74.94402 76.26672
92.0 0.01087 74.94538 76.31467
83.0 0.01205 74.94677 76.36516
76.0 0.01316 74.94820 76.41838
61.0 0.01639 74.94967 76.47580
79.0 0.01266 74.95116 76.53517
80.0 0.01250 74.95270 76.59795
72.0 0.01389 74.95426 76.66439
77.0 0.01299 74.95586 76.73480
78.0 0.01282 74.95750 76.80954
86.0 0.01163 74.95916 76.88893
79.0 0.01266 74.96086 76.97341
86.0 0.01163 74.96260 77.06341
77.0 0.01299 74.96437 77.15939
83.0 0.01205 74.96617 77.26198
82.0 0.01220 74.96800 77.37173
77.0 0.01299 74.96986 77.48932
71.0 0.01408 74.97176 77.61564
82.0 0.01220 74.97369 77.75153
72.0 0.01389 74.97566 77.89798
98.0 0.01020 74.97765 78.05611
70.0 0.01429 74.97968 78.22728
86.0 0.01163 74.98174 78.41281
87.0 0.01149 74.98383 78.61466
84.0 0.01190 74.98595 78.83465
96.0 0.01042 74.98811 79.07508
76.0 0.01316 74.99030 79.33858
107.0 0.00935 74.99251 79.62825
90.0 0.01111 74.99476 79.94769
72.0 0.01389 74.99704 80.30119
85.0 0.01176 74.99934 80.69357
85.0 0.01176 75.00169 81.13128
86.0 0.01163 75.00406 81.62138
97.0 0.01031 75.00645 82.17262
75.0 0.01333 75.00889 82.79565
97.0 0.01031 75.01135 83.50357
91.0 0.01099 75.01385 84.31226
79.0 0.01266 75.01637 85.24313
108.0 0.00926 75.01891 86.32246
87.0 0.01149 75.02150 87.58585
104.0 0.00962 75.02410 89.08279
83.0 0.01205 75.02674 90.88460
95.0 0.01053 75.02941 93.09718
103.0 0.00971 75.03210 95.87919
102.0 0.00980 75.03484 99.46306
82.0 0.01220 75.03759 104.18597
83.0 0.01205 75.04037 110.49507
99.0 0.01010 75.04317 118.94867
95.0 0.01053 75.04602 130.17445
124.0 0.00806 75.04889 144.78102
128.0 0.00781 75.05177 163.19151
181.0 0.00552 75.05470 185.40350
190.0 0.00526 75.05765 210.41635
229.0 0.00437 75.06064 235.43501
258.0 0.00388 75.06364 255.26826
308.0 0.003247 75.06667 263.75995
284.0 0.00352 75.06973 258.03229
295.0 0.003390 75.07281 241.22403
228.0 0.00439 75.07594 219.77249
208.0 0.00481 75.07907 199.14531
148.0 0.00676 75.08224 182.48315
145.0 0.00690 75.08543 171.12598
159.0 0.00629 75.08865 165.39708
144.0 0.00694 75.09189 165.01935
139.0 0.00719 75.09516 169.20181
153.0 0.00654 75.09846 176.46355
176.0 0.00568 75.10178 184.25130
197.0 0.00508 75.10513 188.95819
190.0 0.00526 75.10850 187.32375
197.0 0.00508 75.11189 178.72377
181.0 0.00552 75.11532 165.51378
169.0 0.00592 75.11877 150.89101
146.0 0.00685 75.12225 137.10718
120.0 0.00833 75.12574 125.19822
102.0 0.00980 75.12926 115.44946
107.0 0.00935 75.13281 107.74850
96.0 0.01042 75.13638 101.80978
104.0 0.00962 75.13997 97.29144
94.0 0.01064 75.14359 93.86357
84.0 0.01190 75.14723 91.23821
92.0 0.01087 75.15089 89.19346
75.0 0.01333 75.15459 87.56489
86.0 0.01163 75.15829 86.23744
103.0 0.00971 75.16203 85.13284
84.0 0.01190 75.16578 84.19805
99.0 0.01010 75.16957 83.39657
79.0 0.01266 75.17337 82.70270
89.0 0.01124 75.17719 82.09657
92.0 0.01087 75.18105 81.56384
83.0 0.01205 75.18491 81.09293
69.0 0.01449 75.18880 80.67452
75.0 0.01333 75.19273 80.30106
71.0 0.01408 75.19666 79.96644
72.0 0.01389 75.20061 79.66516
86.0 0.01163 75.20459 79.39307
99.0 0.01010 75.20859 79.14651
79.0 0.01266 75.21261 78.92242
87.0 0.01149 75.21665 78.71815
78.0 0.01282 75.22072 78.53145
66.0 0.01515 75.22481 78.36040
76.0 0.01316 75.22890 78.20338
83.0 0.01205 75.23304 78.05883
109.0 0.00917 75.23718 77.92553
69.0 0.01449 75.24134 77.80238
71.0 0.01408 75.24553 77.68844
81.0 0.01235 75.24973 77.58283
58.0 0.01724 75.25397 77.48487
67.0 0.01493 75.25820 77.39378
67.0 0.01493 75.26247 77.30903
78.0 0.01282 75.26675 77.23009
68.0 0.01471 75.27105 77.15649
81.0 0.01235 75.27538 77.08785
66.0 0.01515 75.27972 77.02377
82.0 0.01220 75.28407 76.96392
83.0 0.01205 75.28844 76.90804
82.0 0.01220 75.29284 76.85581
87.0 0.01149 75.29726 76.80706
63.0 0.01587 75.30168 76.76154
91.0 0.01099 75.30614 76.71915
77.0 0.01299 75.31060 76.67967
73.0 0.01370 75.31509 76.64304
61.0 0.01639 75.31960 76.60913
69.0 0.01449 75.32411 76.57789
89.0 0.01124 75.32864 76.54929
70.0 0.01429 75.33320 76.52337
81.0 0.01235 75.33777 76.50014
74.0 0.01351 75.34235 76.47974
81.0 0.01235 75.34696 76.46243
78.0 0.01282 75.35158 76.44852
69.0 0.01449 75.35622 76.43859
63.0 0.01587 75.36087 76.43356
55.0 0.01818 75.36553 76.43486
67.0 0.01493 75.37022 76.44468
67.0 0.01493 75.37492 76.46608
89.0 0.01124 75.37964 76.50314
82.0 0.01220 75.38435 76.56084
79.0 0.01266 75.38911 76.64447
82.0 0.01220 75.39387 76.75867
82.0 0.01220 75.39864 76.90591
73.0 0.01370 75.40343 77.08332
77.0 0.01299 75.40824 77.27736
63.0 0.01587 75.41306 77.45634
77.0 0.01299 75.41788 77.56999
90.0 0.01111 75.42274 77.57149
75.0 0.01333 75.42760 77.45522
72.0 0.01389 75.43246 77.26209
94.0 0.01064 75.43736 77.04453
91.0 0.01099 75.44225 76.83858
69.0 0.01449 75.44717 76.66074
83.0 0.01205 75.45210 76.51555
76.0 0.01316 75.45705 76.40134
88.0 0.01136 75.46201 76.31365
69.0 0.01449 75.46696 76.24718
79.0 0.01266 75.47195 76.19675
83.0 0.01205 75.47694 76.15800
71.0 0.01408 75.48195 76.12759
73.0 0.01370 75.48696 76.10307
90.0 0.01111 75.49199 76.08278
77.0 0.01299 75.49702 76.06560
70.0 0.01429 75.50208 76.05083
73.0 0.01370 75.50715 76.03799
79.0 0.01266 75.51221 76.02671
70.0 0.01429 75.51730 76.01672
71.0 0.01408 75.52242 76.00786
72.0 0.01389 75.52752 75.99995
61.0 0.01639 75.53263 75.99286
65.0 0.01538 75.53777 75.98651
89.0 0.01124 75.54290 75.98082
61.0 0.01639 75.54806 75.97571
82.0 0.01220 75.55322 75.97111
70.0 0.01429 75.55839 75.96700
65.0 0.01538 75.56357 75.96333
73.0 0.01370 75.56876 75.96001
80.0 0.01250 75.57395 75.95707
83.0 0.01205 75.57916 75.95447
79.0 0.01266 75.58438 75.95218
81.0 0.01235 75.58961 75.95017
93.0 0.01075 75.59485 75.94844
92.0 0.01087 75.60010 75.94696
82.0 0.01220 75.60535 75.94572
79.0 0.01266 75.61061 75.94469
82.0 0.01220 75.61588 75.94389
75.0 0.01333 75.62117 75.94328
82.0 0.01220 75.62645 75.94283
83.0 0.01205 75.63174 75.94260
78.0 0.01282 75.63705 75.94254
79.0 0.01266 75.64236 75.94263
78.0 0.01282 75.64768 75.94288
89.0 0.01124 75.65301 75.94328
76.0 0.01316 75.65834 75.94381
91.0 0.01099 75.66368 75.94450
63.0 0.01587 75.66903 75.94530
80.0 0.01250 75.67439 75.94623
76.0 0.01316 75.67974 75.94728
90.0 0.01111 75.68510 75.82499
71.0 0.01408 75.69048 75.82803
90.0 0.01111 75.69586 75.83113
79.0 0.01266 75.70124 75.83430
69.0 0.01449 75.70663 75.83755
79.0 0.01266 75.71203 75.84085
58.0 0.01724 75.71744 75.84421
81.0 0.01235 75.72284 75.88385
83.0 0.01205 75.72826 75.88797
92.0 0.01087 75.73368 75.89217
77.0 0.01299 75.73910 75.89642
84.0 0.01190 75.74452 75.90073
71.0 0.01408 75.74995 75.79560
72.0 0.01389 75.75539 75.80160
83.0 0.01205 75.76083 75.80762
75.0 0.01333 75.76628 75.81369
89.0 0.01124 75.77174 75.81979
67.0 0.01493 75.77718 75.82592
86.0 0.01163 75.78264 75.83208
68.0 0.01471 75.78810 75.83829
74.0 0.01351 75.79356 75.85590
76.0 0.01316 75.79903 75.86237
79.0 0.01266 75.80450 75.86890
75.0 0.01333 75.80997 75.87544
59.0 0.01695 75.81544 75.88204
86.0 0.01163 75.82093 75.88869
72.0 0.01389 75.82642 75.89540
81.0 0.01235 75.83189 75.90215
68.0 0.01471 75.83739 75.90893
92.0 0.01087 75.84288 75.91578
80.0 0.01250 75.84837 75.92267
80.0 0.01250 75.85386 75.92963
70.0 0.01429 75.85934 75.93662
72.0 0.01389 75.86485 75.94369
83.0 0.01205 75.87035 75.95082
82.0 0.01220 75.87585 75.95801
71.0 0.01408 75.88135 75.96527
72.0 0.01389 75.88685 75.97257
84.0 0.01190 75.89234 75.97996
84.0 0.01190 75.89784 75.98743
79.0 0.01266 75.90335 75.99496
94.0 0.01064 75.90885 76.00259
85.0 0.01176 75.91435 76.01029
81.0 0.01235 75.91986 76.01809
83.0 0.01205 75.92537 76.02598
84.0 0.01190 75.93086 76.03394
76.0 0.01316 75.93636 76.04202
74.0 0.01351 75.94186 76.05021
75.0 0.01333 75.94737 76.05852
83.0 0.01205 75.95287 76.06693
88.0 0.01136 75.95837 76.07546
93.0 0.01075 75.96386 76.08412
66.0 0.01515 75.96936 76.09293
87.0 0.01149 75.97485 76.10188
75.0 0.01333 75.98035 76.11099
73.0 0.01370 75.98585 76.12025
70.0 0.01429 75.99133 76.12970
84.0 0.01190 75.99683 76.13933
89.0 0.01124 76.00231 76.14915
78.0 0.01282 76.00780 76.15916
85.0 0.01176 76.01328 76.16940
72.0 0.01389 76.01877 76.17989
88.0 0.01136 76.02424 76.19062
62.0 0.01613 76.02972 76.20161
65.0 0.01538 76.03519 76.21289
63.0 0.01587 76.04065 76.22447
78.0 0.01282 76.04611 76.23637
93.0 0.01075 76.05158 76.24864
76.0 0.01316 76.05704 76.26128
82.0 0.01220 76.06249 76.27433
79.0 0.01266 76.06795 76.28780
76.0 0.01316 76.07339 76.30176
83.0 0.01205 76.07883 76.31621
80.0 0.01250 76.08427 76.33121
85.0 0.01176 76.08970 76.34682
90.0 0.01111 76.09514 76.36309
88.0 0.01136 76.10056 76.38005
73.0 0.01370 76.10598 76.39778
93.0 0.01075 76.11138 76.41632
66.0 0.01515 76.11680 76.43581
49.0 0.02041 76.12221 76.45630
82.0 0.01220 76.12760 76.47790
80.0 0.01250 76.13300 76.50071
71.0 0.01408 76.13839 76.52486
81.0 0.01235 76.14378 76.55050
65.0 0.01538 76.14915 76.57777
96.0 0.01042 76.15452 76.60687
62.0 0.01613 76.15988 76.63677
71.0 0.01408 76.16524 76.67023
69.0 0.01449 76.17059 76.70625
72.0 0.01389 76.17593 76.74515
72.0 0.01389 76.18127 76.78732
83.0 0.01205 76.18660 76.83316
66.0 0.01515 76.19193 76.88324
81.0 0.01235 76.19724 76.93814
86.0 0.01163 76.20255 76.99859
93.0 0.01075 76.20786 77.06544
79.0 0.01266 76.21315 77.13972
76.0 0.01316 76.21844 77.22266
71.0 0.01408 76.22372 77.31580
86.0 0.01163 76.22899 77.42093
84.0 0.01190 76.23425 77.54045
97.0 0.01031 76.23950 77.67719
91.0 0.01099 76.24474 77.83484
90.0 0.01111 76.24998 78.01830
85.0 0.01176 76.25521 78.23425
83.0 0.01205 76.26043 78.49208
73.0 0.01370 76.26564 78.80628
54.0 0.01852 76.27084 79.19849
95.0 0.01053 76.27604 79.70197
64.0 0.01563 76.28122 80.36607
80.0 0.01250 76.28640 81.26053
81.0 0.01235 76.29156 82.47680
82.0 0.01220 76.29671 84.12393
88.0 0.01136 76.30186 86.31482
96.0 0.01042 76.30698 89.14767
71.0 0.01408 76.31212 92.66094
82.0 0.01220 76.31722 96.76866
103.0 0.00971 76.32233 101.13787
104.0 0.00962 76.32742 105.03823
96.0 0.01042 76.33250 107.38356
92.0 0.01087 76.33757 107.30392
93.0 0.01075 76.34263 104.88863
107.0 0.00935 76.34768 101.11477
95.0 0.01053 76.35272 97.05949
70.0 0.01429 76.35775 93.41661
110.0 0.00909 76.36276 90.50672
95.0 0.01053 76.36776 88.42805
81.0 0.01235 76.37276 87.16415
87.0 0.01149 76.37774 86.63477
83.0 0.01205 76.38271 86.71823
88.0 0.01136 76.38766 87.23908
94.0 0.01064 76.39260 87.93262
76.0 0.01316 76.39753 88.42391
90.0 0.01111 76.40245 88.33279
79.0 0.01266 76.40735 87.51726
75.0 0.01333 76.41225 86.17403
72.0 0.01389 76.41712 84.63918
73.0 0.01370 76.42200 83.16883
89.0 0.01124 76.42685 81.88975
86.0 0.01163 76.43169 80.84026
86.0 0.01163 76.43651 80.01241
75.0 0.01333 76.44132 79.37705
72.0 0.01389 76.44612 78.89639
81.0 0.01235 76.45090 78.53402
78.0 0.01282 76.45567 78.25829
82.0 0.01220 76.46043 78.04443
96.0 0.01042 76.46518 77.87444
83.0 0.01205 76.46990 77.73605
110.0 0.00909 76.47461 77.82070
80.0 0.01250 76.47932 77.72610
66.0 0.01515 76.48400 77.64553
75.0 0.01333 76.48867 77.57631
79.0 0.01266 76.49332 77.51649
94.0 0.01064 76.49796 77.46452
89.0 0.01124 76.50259 77.41923
84.0 0.01190 76.50719 77.37965
64.0 0.01563 76.51178 77.34496
77.0 0.01299 76.51636 77.31455
85.0 0.01176 76.52092 77.28784
97.0 0.01031 76.52547 77.26439
82.0 0.01220 76.53000 77.24380
93.0 0.01075 76.53451 77.22578
67.0 0.01493 76.53900 77.32491
81.0 0.01235 76.54349 77.31284
83.0 0.01205 76.54795 77.30264
87.0 0.01149 76.55240 77.29410
78.0 0.01282 76.55682 77.28709
91.0 0.01099 76.56124 77.28149
65.0 0.01538 76.56564 77.27718
67.0 0.01493 76.57002 77.27401
70.0 0.01429 76.57438 77.27195
70.0 0.01429 76.57872 77.27088
72.0 0.01389 76.58305 77.27077
75.0 0.01333 76.58736 77.70400
77.0 0.01299 76.59165 77.71326
96.0 0.01042 76.59592 77.72351
93.0 0.01075 76.60018 77.73469
83.0 0.01205 76.60442 77.74680
73.0 0.01370 76.60864 77.75981
87.0 0.01149 76.61285 77.77371
85.0 0.01176 76.61703 77.78846
71.0 0.01408 76.62119 77.80406
64.0 0.01563 76.62534 77.82052
79.0 0.01266 76.62946 77.83780
100.0 0.01000 76.63358 77.85591
88.0 0.01136 76.63766 77.87487
70.0 0.01429 76.64174 77.89468
70.0 0.01429 76.64578 78.14841
84.0 0.01190 76.64981 78.17406
69.0 0.01449 76.65382 78.20067
73.0 0.01370 76.65781 78.22828
77.0 0.01299 76.66179 78.25690
77.0 0.01299 76.66574 78.28658
71.0 0.01408 76.66967 78.31731
66.0 0.01515 76.67359 78.34913
77.0 0.01299 76.67747 78.38206
73.0 0.01370 76.68135 78.41618
73.0 0.01370 76.68520 78.45145
76.0 0.01316 76.68903 78.48800
79.0 0.01266 76.69284 78.52579
79.0 0.01266 76.69663 78.56493
68.0 0.01471 76.70040 78.60542
73.0 0.01370 76.70414 78.64732
75.0 0.01333 76.70786 78.69070
79.0 0.01266 76.71157 78.73563
64.0 0.01563 76.71526 78.78217
77.0 0.01299 76.71891 78.83038
74.0 0.01351 76.72256 78.88033
74.0 0.01351 76.72617 78.93211
76.0 0.01316 76.72977 78.98579
77.0 0.01299 76.73334 79.04146
65.0 0.01538 76.73689 79.09924
84.0 0.01190 76.74043 79.15919
76.0 0.01316 76.74393 79.22147
90.0 0.01111 76.74742 79.28617
67.0 0.01493 76.75088 79.35342
83.0 0.01205 76.75433 79.42331
91.0 0.01099 76.75774 79.49605
70.0 0.01429 76.76114 79.57177
73.0 0.01370 76.76451 79.65063
85.0 0.01176 76.76786 79.73281
77.0 0.01299 76.77119 79.81851
74.0 0.01351 76.77449 79.90793
57.0 0.01754 76.77776 80.00125
53.0 0.01887 76.78102 80.09872
65.0 0.01538 76.78425 80.20065
80.0 0.01250 76.78747 80.30730
69.0 0.01449 76.79065 80.41892
77.0 0.01299 76.79381 80.53590
77.0 0.01299 76.79694 80.65853
73.0 0.01370 76.80006 80.78716
81.0 0.01235 76.80315 81.14096
77.0 0.01299 76.80621 81.28622
86.0 0.01163 76.80925 81.40281
68.0 0.01471 76.81226 81.56417
91.0 0.01099 76.81525 81.73412
84.0 0.01190 76.81822 81.91326
77.0 0.01299 76.82116 82.10233
70.0 0.01429 76.82408 82.30199
88.0 0.01136 76.82697 82.51328
75.0 0.01333 76.82983 82.73701
78.0 0.01282 76.83268 82.97426
63.0 0.01587 76.83549 83.22613
85.0 0.01176 76.83829 83.49390
74.0 0.01351 76.84105 83.77881
80.0 0.01250 76.84379 84.19403
91.0 0.01099 76.84650 84.50862
104.0 0.00962 76.84919 84.85750
82.0 0.01220 76.85184 85.23114
107.0 0.00935 76.85448 85.63198
80.0 0.01250 76.85709 86.06281
106.0 0.00943 76.85967 86.52677
115.0 0.00870 76.86223 87.02715
92.0 0.01087 76.86477 87.56850
94.0 0.01064 76.86726 88.15523
99.0 0.01010 76.86974 88.79264
103.0 0.00971 76.87219 89.48683
113.0 0.00885 76.87462 90.24492
85.0 0.01176 76.87701 91.07467
117.0 0.00855 76.87938 91.98648
129.0 0.00775 76.88172 92.99116
108.0 0.00926 76.88403 94.10197
122.0 0.00820 76.88632 95.33457
119.0 0.00840 76.88859 96.70763
97.0 0.01031 76.89082 98.24350
111.0 0.00901 76.89302 99.96923
109.0 0.00917 76.89520 101.91669
108.0 0.00926 76.89735 104.12819
126.0 0.00794 76.89947 106.65316
121.0 0.00826 76.90157 109.55561
120.0 0.00833 76.90363 112.91875
115.0 0.00870 76.90566 116.85478
115.0 0.00870 76.90768 121.51810
119.0 0.00840 76.90965 127.14041
124.0 0.00806 76.91161 134.05624
143.0 0.00699 76.91354 142.76585
140.0 0.00714 76.91543 153.99887
144.0 0.00694 76.91730 168.77802
173.0 0.00578 76.91914 188.45465
179.0 0.00559 76.92094 214.68008
208.0 0.00481 76.92272 249.25575
276.0 0.00362 76.92448 293.93695
344.0 0.002907 76.92619 349.87741
386.0 0.002591 76.92789 416.91138
532.0 0.001880 76.92955 492.13324
598.0 0.001672 76.93118 567.67889
764.0 0.001309 76.93279 629.00195
766.0 0.001305 76.93436 658.34387
697.0 0.001435 76.93591 645.70404
612.0 0.001634 76.93742 597.79474
480.0 0.002083 76.93891 532.29657
422.0 0.002370 76.94037 465.83871
354.0 0.002825 76.94180 408.67032
291.0 0.003436 76.94319 365.63879
255.0 0.00392 76.94455 338.45084
268.0 0.00373 76.94588 327.08521
266.0 0.00376 76.94718 330.51337
289.0 0.003460 76.94846 346.70340
353.0 0.002833 76.94971 372.13348
405.0 0.002469 76.95092 400.71460
462.0 0.002165 76.95210 423.04160
480.0 0.002083 76.95325 428.65164
397.0 0.002519 76.95438 412.19382
397.0 0.002519 76.95546 377.60788
343.0 0.002915 76.95652 334.26013
267.0 0.00375 76.95755 290.47827
215.0 0.00465 76.95855 251.02109
196.0 0.00510 76.95951 217.75941
194.0 0.00515 76.96045 190.92982
173.0 0.00578 76.96135 169.91821
148.0 0.00676 76.96222 153.80202
150.0 0.00667 76.96306 141.56236
147.0 0.00680 76.96387 132.45081
140.0 0.00714 76.96465 125.30036
125.0 0.00800 76.96539 119.70261
134.0 0.00746 76.96609 115.21729
137.0 0.00730 76.96678 111.54568
111.0 0.00901 76.96743 108.48274
125.0 0.00800 76.96804 105.88889
142.0 0.00704 76.96862 103.66733
99.0 0.01010 76.96918 101.74854
116.0 0.00862 76.96970 100.08081
112.0 0.00893 76.97018 98.62503
116.0 0.00862 76.97063 97.34837
116.0 0.00862 76.97106 96.22646
105.0 0.00952 76.97145 95.23877
89.0 0.01124 76.97181 94.36852
100.0 0.01000 76.97213 93.70274
94.0 0.01064 76.97242 93.02976
103.0 0.00971 76.97267 92.43961
118.0 0.00847 76.97290 91.92447
102.0 0.00980 76.97309 91.47789
84.0 0.01190 76.97325 91.09468
95.0 0.01053 76.97337 90.77060
113.0 0.00885 76.97346 90.50235
122.0 0.00820 76.97353 90.28759
126.0 0.00794 76.97355 90.12432
112.0 0.00893 76.97354 90.01173
116.0 0.00862 76.97350 89.94951
101.0 0.00990 76.97343 89.93813
120.0 0.00833 76.97332 89.97872
116.0 0.00862 76.97318 90.07326
106.0 0.00943 76.97299 90.22466
84.0 0.01190 76.97279 90.43676
96.0 0.01042 76.97254 90.71455
82.0 0.01220 76.97226 91.06433
94.0 0.01064 76.97195 91.49410
117.0 0.00855 76.97160 92.01370
107.0 0.00935 76.97123 92.63552
89.0 0.01124 76.97081 93.37450
107.0 0.00935 76.97036 94.25063
97.0 0.01031 76.96988 95.28816
106.0 0.00943 76.96935 96.51900
103.0 0.00971 76.96880 97.98583
112.0 0.00893 76.96822 99.74791
112.0 0.00893 76.96759 101.88944
99.0 0.01010 76.96693 104.53868
102.0 0.00980 76.96624 107.88322
106.0 0.00943 76.96552 112.20066
102.0 0.00980 76.96475 117.88616
124.0 0.00806 76.96396 125.47240
118.0 0.00847 76.96312 135.62767
138.0 0.00725 76.96226 149.11632
151.0 0.00662 76.96136 166.69756
151.0 0.00662 76.96042 189.00424
212.0 0.00472 76.95944 216.22748
247.0 0.00405 76.95844 247.67772
275.0 0.00364 76.95739 280.96249
281.0 0.00356 76.95631 311.02383
341.0 0.002933 76.95520 330.38342
366.0 0.002732 76.95405 332.66101
351.0 0.002849 76.95286 317.51736
330.0 0.003030 76.95164 291.08762
276.0 0.00362 76.95038 261.19638
211.0 0.00474 76.94909 233.51463
188.0 0.00532 76.94775 211.03696
155.0 0.00645 76.94640 194.99049
162.0 0.00617 76.94500 185.65173
142.0 0.00704 76.94356 182.76221
148.0 0.00676 76.94209 185.71353
178.0 0.00562 76.94057 193.47571
166.0 0.00602 76.93903 204.31752
193.0 0.00518 76.93745 215.35007
202.0 0.00495 76.93584 222.48306
245.0 0.00408 76.93417 221.89459
214.0 0.00467 76.93249 212.57596
244.0 0.00410 76.93076 197.04192
177.0 0.00565 76.92900 179.11885
182.0 0.00549 76.92720 161.73137
154.0 0.00649 76.92536 146.39276
144.0 0.00694 76.92349 133.61980
107.0 0.00935 76.92158 123.39362
114.0 0.00877 76.91963 115.42055
103.0 0.00971 76.91765 109.35799
93.0 0.01075 76.91563 104.72078
125.0 0.00800 76.91357 101.18587
117.0 0.00855 76.91148 98.45631
107.0 0.00935 76.90935 96.30786
104.0 0.00962 76.90718 94.57738
101.0 0.00990 76.90498 93.15504
108.0 0.00926 76.90273 91.96562
85.0 0.01176 76.90046 90.95801
92.0 0.01087 76.89814 90.09646
100.0 0.01000 76.89578 89.35530
97.0 0.01031 76.89339 88.71523
94.0 0.01064 76.89096 88.16161
80.0 0.01250 76.88850 87.68218
83.0 0.01205 76.88599 87.26780
94.0 0.01064 76.88345 86.92326
97.0 0.01031 76.88087 86.61782
82.0 0.01220 76.87827 86.35874
92.0 0.01087 76.87561 86.14209
95.0 0.01053 76.87292 85.96451
81.0 0.01235 76.87019 85.82360
87.0 0.01149 76.86742 85.71754
104.0 0.00962 76.86462 85.64501
91.0 0.01099 76.86178 85.60519
86.0 0.01163 76.85889 85.59779
103.0 0.00971 76.85598 85.62291
83.0 0.01205 76.85303 85.68121
76.0 0.01316 76.85004 85.77381
81.0 0.01235 76.84700 85.90229
88.0 0.01136 76.84393 86.06892
87.0 0.01149 76.84082 86.27655
92.0 0.01087 76.83768 86.52875
91.0 0.01099 76.83450 86.82982
93.0 0.01075 76.83128 86.98499
75.0 0.01333 76.82802 87.40486
98.0 0.01020 76.82472 87.89420
97.0 0.01031 76.82137 88.46311
105.0 0.00952 76.81801 89.12406
102.0 0.00980 76.81459 89.89252
105.0 0.00952 76.81114 90.78786
85.0 0.01176 76.80765 91.83437
76.0 0.01316 76.80412 93.06553
88.0 0.01136 76.80055 94.52506
95.0 0.01053 76.79695 96.27518
96.0 0.01042 76.79330 98.40685
104.0 0.00962 76.78962 101.05558
124.0 0.00806 76.78590 103.90147
108.0 0.00926 76.78214 108.29044
103.0 0.00971 76.77834 114.10547
131.0 0.00763 76.77451 121.88759
127.0 0.00787 76.77064 132.29189
123.0 0.00813 76.76672 146.03152
159.0 0.00629 76.76276 163.76831
185.0 0.00541 76.75877 185.93083
245.0 0.00408 76.75475 212.39246
255.0 0.00392 76.75068 241.97530
307.0 0.003257 76.74657 271.51422
340.0 0.002941 76.74242 295.28519
334.0 0.002994 76.73824 306.36340
259.0 0.00386 76.73401 300.95197
272.0 0.00368 76.72974 281.70898
232.0 0.00431 76.72544 255.45729
182.0 0.00549 76.72109 228.63657
179.0 0.00559 76.71672 205.21829
167.0 0.00599 76.71230 187.08206
153.0 0.00654 76.70784 174.88860
151.0 0.00662 76.70335 168.65840
155.0 0.00645 76.69881 168.04497
181.0 0.00552 76.69423 172.41418
201.0 0.00498 76.68961 180.74719
192.0 0.00521 76.68496 191.32454
204.0 0.00490 76.68027 201.31258
237.0 0.00422 76.67553 206.90427
212.0 0.00472 76.67076 204.95459
161.0 0.00621 76.66594 195.23288
174.0 0.00575 76.66109 180.47932
134.0 0.00746 76.65620 164.14268
140.0 0.00714 76.65128 148.63831
117.0 0.00855 76.64631 135.13759
115.0 0.00870 76.64130 123.99435
130.0 0.00769 76.63625 115.58340
123.0 0.00813 76.63116 108.71989
121.0 0.00826 76.62603 103.48068
119.0 0.00840 76.62087 99.50386
91.0 0.01099 76.61567 96.46723
99.0 0.01010 76.61042 94.11235
91.0 0.01099 76.60513 92.24626
97.0 0.01031 76.59982 90.73321
86.0 0.01163 76.59444 89.47838
94.0 0.01064 76.58904 88.41952
79.0 0.01266 76.58360 87.51353
89.0 0.01124 76.57812 86.73027
84.0 0.01190 76.57259 86.04774
90.0 0.01111 76.56703 85.44926
92.0 0.01087 76.56143 84.92190
99.0 0.01010 76.55580 84.69493
79.0 0.01266 76.55012 84.28417
94.0 0.01064 76.54439 83.91898
78.0 0.01282 76.53864 83.59373
89.0 0.01124 76.53283 83.30370
97.0 0.01031 76.52699 83.04495
89.0 0.01124 76.52112 82.81435
83.0 0.01205 76.51521 82.60896
85.0 0.01176 76.50924 82.42661
95.0 0.01053 76.50324 82.26544
92.0 0.01087 76.49721 82.12386
86.0 0.01163 76.49112 82.00066
98.0 0.01020 76.48502 81.89487
78.0 0.01282 76.47885 81.80574
81.0 0.01235 76.47266 81.73280
70.0 0.01429 76.46642 81.67573
83.0 0.01205 76.46015 81.63449
76.0 0.01316 76.45383 81.60931
93.0 0.01075 76.44748 81.60064
111.0 0.00901 76.44109 81.60921
73.0 0.01370 76.43465 81.41710
80.0 0.01250 76.42818 81.46685
70.0 0.01429 76.42166 81.53819
81.0 0.01235 76.41511 81.63360
83.0 0.01205 76.40852 81.75624
80.0 0.01250 76.40188 81.91018
86.0 0.01163 76.39521 82.10083
85.0 0.01176 76.38850 82.33534
78.0 0.01282 76.38174 82.62358
101.0 0.00990 76.37495 82.98022
95.0 0.01053 76.36812 83.42652
67.0 0.01493 76.36124 83.99483
87.0 0.01149 76.35434 84.73355
84.0 0.01190 76.34739 85.71317
121.0 0.00826 76.34039 86.91830
86.0 0.01163 76.33337 88.70172
96.0 0.01042 76.32629 91.09766
96.0 0.01042 76.31918 94.26194
95.0 0.01053 76.31203 98.32925
100.0 0.01000 76.30485 103.36746
99.0 0.01010 76.29761 109.29912
130.0 0.00769 76.29034 115.76262
138.0 0.00725 76.28304 121.91499
128.0 0.00781 76.27569 126.38080
128.0 0.00781 76.26830 127.72296
104.0 0.00962 76.26087 125.47382
104.0 0.00962 76.25340 120.55564
111.0 0.00901 76.24590 114.50717
97.0 0.01031 76.23835 108.57289
105.0 0.00952 76.23077 103.43648
106.0 0.00943 76.22314 99.38689
96.0 0.01042 76.21548 96.48680
90.0 0.01111 76.20777 94.68496
108.0 0.00926 76.20002 93.87102
80.0 0.01250 76.19223 93.89819
99.0 0.01010 76.18441 94.57841
91.0 0.01099 76.17655 95.64516
94.0 0.01064 76.16865 96.70355
120.0 0.00833 76.16070 97.24629
93.0 0.01075 76.15272 96.86630
87.0 0.01149 76.14469 95.53852
87.0 0.01149 76.13663 93.61280
88.0 0.01136 76.12852 91.52171
80.0 0.01250 76.12039 89.56083
88.0 0.01136 76.11221 87.87321
97.0 0.01031 76.10398 86.49980
94.0 0.01064 76.09572 85.42822
90.0 0.01111 76.08743 84.62060
86.0 0.01163 76.07909 84.02955
90.0 0.01111 76.07070 83.60803
70.0 0.01429 76.06229 83.31498
96.0 0.01042 76.05383 83.11736
74.0 0.01351 76.04533 82.99122
73.0 0.01370 76.03680 82.91972
95.0 0.01053 76.02822 82.89160
97.0 0.01031 76.01961 82.89955
85.0 0.01176 76.01096 82.93877
70.0 0.01429 76.00226 83.00626
75.0 0.01333 75.99353 83.10010
83.0 0.01205 75.98476 83.21910
97.0 0.01031 75.97594 83.36273
106.0 0.00943 75.96709 83.53085
101.0 0.00990 75.95821 83.72381
93.0 0.01075 75.94927 83.94226
106.0 0.00943 75.94030 84.18709
89.0 0.01124 75.93130 84.45992
88.0 0.01136 75.92226 84.76240
79.0 0.01266 75.91316 85.09659
100.0 0.01000 75.90404 85.46507
89.0 0.01124 75.89487 85.87086
106.0 0.00943 75.88568 86.31718
95.0 0.01053 75.87643 86.80860
119.0 0.00840 75.86715 87.34972
88.0 0.01136 75.85783 87.94613
113.0 0.00885 75.84847 88.60432
116.0 0.00862 75.83907 89.33198
124.0 0.00806 75.82964 90.13806
107.0 0.00935 75.82016 91.03268
92.0 0.01087 75.81065 92.02919
120.0 0.00833 75.80109 93.14211
115.0 0.00870 75.79150 94.38918
123.0 0.00813 75.78187 95.79179
123.0 0.00813 75.77219 97.18198
102.0 0.00980 75.76250 98.98116
101.0 0.00990 75.75275 101.03366
100.0 0.01000 75.74296 103.38845
107.0 0.00935 75.73313 106.10999
112.0 0.00893 75.72327 109.28473
111.0 0.00901 75.71336 113.03236
111.0 0.00901 75.70342 117.52428
140.0 0.00714 75.69344 123.01024
121.0 0.00826 75.68343 129.85068
143.0 0.00699 75.67337 138.57332
145.0 0.00690 75.66328 149.89403
146.0 0.00685 75.65314 164.75267
143.0 0.00699 75.64297 184.29608
200.0 0.00500 75.63276 209.70448
192.0 0.00521 75.62251 242.42653
245.0 0.00408 75.61223 283.38629
310.0 0.003226 75.60190 332.87231
400.0 0.002500 75.59154 389.74573
492.0 0.002033 75.58113 450.14896
558.0 0.001792 75.57069 505.96683
666.0 0.001502 75.56022 544.91522
624.0 0.001603 75.54971 555.36365
569.0 0.001757 75.53915 534.46454
461.0 0.002169 75.52856 490.61850
357.0 0.002801 75.51793 437.09171
349.0 0.002865 75.50726 384.78214
247.0 0.00405 75.49655 340.06793
236.0 0.00424 75.48581 305.89511
196.0 0.00510 75.47504 283.26154
206.0 0.00485 75.46421 272.09564
219.0 0.00457 75.45335 271.74588
232.0 0.00431 75.44246 281.02435
252.0 0.00397 75.43153 298.00616
321.0 0.003115 75.42056 319.44662
354.0 0.002825 75.40955 340.03748
396.0 0.002525 75.39850 352.60074
383.0 0.002611 75.38742 350.81342
358.0 0.002793 75.37630 333.32904
302.0 0.003311 75.36514 304.61884
247.0 0.00405 75.35395 271.33386
192.0 0.00521 75.34271 238.82750
199.0 0.00503 75.33144 209.63333
194.0 0.00515 75.32014 184.96822
178.0 0.00562 75.30879 164.87918
149.0 0.00671 75.29741 148.95622
136.0 0.00735 75.28600 136.55952
136.0 0.00735 75.27454 126.99503
151.0 0.00662 75.26305 119.61285
119.0 0.00840 75.25151 113.86122
131.0 0.00763 75.23994 109.30535
126.0 0.00794 75.22835 105.62364
125.0 0.00800 75.21671 102.58240
131.0 0.00763 75.20502 100.02360
86.0 0.01163 75.19331 97.83675
100.0 0.01000 75.18156 95.94450
87.0 0.01149 75.16976 94.36446
107.0 0.00935 75.15795 92.91061
115.0 0.00870 75.14608 91.62182
102.0 0.00980 75.13419 90.47366
107.0 0.00935 75.12225 89.44583
87.0 0.01149 75.11028 88.52159
95.0 0.01053 75.09827 87.68713
92.0 0.01087 75.08622 86.93089
100.0 0.01000 75.07413 86.24314
94.0 0.01064 75.06203 85.61592
96.0 0.01042 75.04987 85.04161
84.0 0.01190 75.03769 84.51451
83.0 0.01205 75.02546 84.02944
96.0 0.01042 75.01320 83.58195
83.0 0.01205 75.00090 83.16811
82.0 0.01220 74.98857 82.78477
82.0 0.01220 74.97620 82.42854
77.0 0.01299 74.96380 82.09709
76.0 0.01316 74.95135 81.78808
67.0 0.01493 74.93887 81.49946
80.0 0.01250 74.92636 81.22948
89.0 0.01124 74.91381 80.97652
84.0 0.01190 74.90122 80.73918
97.0 0.01031 74.88862 80.51628
77.0 0.01299 74.87595 80.26491
89.0 0.01124 74.86327 80.06783
94.0 0.01064 74.85054 79.88197
74.0 0.01351 74.83778 79.70650
86.0 0.01163 74.82497 79.54069
74.0 0.01351 74.81215 79.38390
76.0 0.01316 74.79929 79.23539
80.0 0.01250 74.78638 79.09467
77.0 0.01299 74.77344 78.96121
76.0 0.01316 74.76046 78.83458
71.0 0.01408 74.74746 78.71433
95.0 0.01053 74.73441 78.60006
64.0 0.01563 74.72134 78.49147
78.0 0.01282 74.70824 78.38822
82.0 0.01220 74.69508 78.28996
81.0 0.01235 74.68190 78.18407
75.0 0.01333 74.66868 78.09525
75.0 0.01333 74.65543 78.01073
78.0 0.01282 74.64214 77.93027
64.0 0.01563 74.62882 77.85372
72.0 0.01389 74.61548 77.78087
68.0 0.01471 74.60209 77.71154
78.0 0.01282 74.58866 77.64563
93.0 0.01075 74.57520 77.58302
71.0 0.01408 74.56171 77.52356
82.0 0.01220 74.54819 77.46718
66.0 0.01515 74.53462 77.41373
70.0 0.01429 74.52103 77.36320
68.0 0.01471 74.50741 77.31544
90.0 0.01111 74.49375 77.27044
78.0 0.01282 74.48005 77.22811
92.0 0.01087 74.46632 77.18842
92.0 0.01087 74.45255 77.15135
90.0 0.01111 74.43876 77.11687
74.0 0.01351 74.42493 77.08492
78.0 0.01282 74.41107 77.05551
67.0 0.01493 74.39717 77.02866
63.0 0.01587 74.38324 77.00436
84.0 0.01190 74.36927 77.05429
66.0 0.01515 74.35529 77.03621
81.0 0.01235 74.34124 77.02077
69.0 0.01449 74.32719 77.00805
71.0 0.01408 74.31310 76.99809
78.0 0.01282 74.29897 76.99095
59.0 0.01695 74.28481 76.98673
83.0 0.01205 74.27061 76.98553
68.0 0.01471 74.25639 76.98746
85.0 0.01176 74.24213 76.99263
70.0 0.01429 74.22782 77.00121
72.0 0.01389 74.21350 77.01334
88.0 0.01136 74.19914 77.02920
80.0 0.01250 74.18475 77.04902
70.0 0.01429 74.17033 77.07302
80.0 0.01250 74.15588 77.10146
71.0 0.01408 74.14139 77.15534
64.0 0.01563 74.12686 77.19387
63.0 0.01587 74.11233 77.23786
78.0 0.01282 74.09773 77.28767
63.0 0.01587 74.08311 77.34378
54.0 0.01852 74.06847 77.40675
76.0 0.01316 74.05379 77.47709
80.0 0.01250 74.03908 77.55557
94.0 0.01064 74.02434 77.64288
108.0 0.00926 74.00957 77.73989
83.0 0.01205 73.99476 77.84757
94.0 0.01064 73.97992 77.96703
59.0 0.01695 73.96505 78.09954
71.0 0.01408 73.95014 78.24657
86.0 0.01163 73.93523 78.40971
70.0 0.01429 73.92026 78.59109
82.0 0.01220 73.90526 78.79285
93.0 0.01075 73.89024 79.01767
76.0 0.01316 73.87518 79.26863
82.0 0.01220 73.86009 79.54934
88.0 0.01136 73.84499 79.86399
74.0 0.01351 73.82984 80.21799
84.0 0.01190 73.81466 80.61737
89.0 0.01124 73.79945 81.06950
76.0 0.01316 73.78421 81.58341
81.0 0.01235 73.76893 82.17017
90.0 0.01111 73.75363 82.38592
77.0 0.01299 73.73830 83.16998
89.0 0.01124 73.72295 84.08047
85.0 0.01176 73.70756 85.14928
86.0 0.01163 73.69213 86.41972
94.0 0.01064 73.67668 87.95557
97.0 0.01031 73.66120 89.85143
84.0 0.01190 73.64569 92.24783
100.0 0.01000 73.63016 95.34664
82.0 0.01220 73.61459 99.43351
101.0 0.00990 73.59898 104.87635
106.0 0.00943 73.58335 112.12098
116.0 0.00862 73.56770 121.65321
109.0 0.00917 73.55201 133.92824
103.0 0.00971 73.53629 149.25633
163.0 0.00613 73.52054 167.37410
164.0 0.00610 73.50477 188.06972
191.0 0.00524 73.48896 209.24077
210.0 0.00476 73.47313 227.31281
271.0 0.00369 73.45727 237.56250
266.0 0.00376 73.44138 236.60492
287.0 0.003484 73.42545 225.09442
269.0 0.00372 73.40952 207.20863
238.0 0.00420 73.39354 187.60265
172.0 0.00581 73.37753 169.50612
144.0 0.00694 73.36149 154.58504
145.0 0.00690 73.34544 143.51369
125.0 0.00800 73.32934 136.44063
117.0 0.00855 73.31321 133.24333
140.0 0.00714 73.29707 133.64377
98.0 0.01020 73.28090 137.23073
121.0 0.00826 73.26469 143.39827
144.0 0.00694 73.24846 151.13837
139.0 0.00719 73.23220 158.76212
164.0 0.00610 73.21592 163.85899
171.0 0.00585 73.19960 164.11955
170.0 0.00588 73.18327 158.84868
150.0 0.00667 73.16690 149.46613
146.0 0.00685 73.15050 138.31110
143.0 0.00699 73.13408 127.26937
130.0 0.00769 73.11763 117.37957
110.0 0.00909 73.10115 109.04280
112.0 0.00893 73.08464 102.29806
114.0 0.00877 73.06811 97.00054
84.0 0.01190 73.05157 92.92480
103.0 0.00971 73.03498 89.81841
78.0 0.01282 73.01836 87.45170
99.0 0.01010 73.00172 85.62974
86.0 0.01163 72.98505 84.20140
92.0 0.01087 72.96837 83.05648
81.0 0.01235 72.95166 82.11861
82.0 0.01220 72.93491 81.33463
75.0 0.01333 72.91814 80.66963
85.0 0.01176 72.90134 80.09925
89.0 0.01124 72.88452 79.60609
60.0 0.01667 72.86768 79.17735
78.0 0.01282 72.85080 78.80328
105.0 0.00952 72.83390 78.47616
77.0 0.01299 72.81699 78.19006
73.0 0.01370 72.80003 77.93977
99.0 0.01010 72.78306 77.72147
73.0 0.01370 72.76605 77.53195
91.0 0.01099 72.74903 77.36867
79.0 0.01266 72.73198 77.22958
80.0 0.01250 72.71490 77.11316
77.0 0.01299 72.69781 77.01817
90.0 0.01111 72.68068 76.94389
98.0 0.01020 72.66353 76.88988
76.0 0.01316 72.64635 76.85605
73.0 0.01370 72.62915 76.84271
70.0 0.01429 72.61192 76.85046
78.0 0.01282 72.59467 76.88033
78.0 0.01282 72.57741 76.93374
89.0 0.01124 72.56011 77.01273
95.0 0.01053 72.54279 77.11977
72.0 0.01389 72.52544 77.25819
85.0 0.01176 72.50806 77.43210
78.0 0.01282 72.49068 77.64680
91.0 0.01099 72.47327 77.90888
64.0 0.01563 72.45582 78.22744
75.0 0.01333 72.43835 78.61420
92.0 0.01087 72.42087 79.08556
78.0 0.01282 72.40335 79.66511
88.0 0.01136 72.38582 80.38755
90.0 0.01111 72.36826 81.30443
95.0 0.01053 72.35068 82.49144
66.0 0.01515 72.33308 84.05546
112.0 0.00893 72.31545 86.14385
80.0 0.01250 72.29781 88.94092
90.0 0.01111 72.28013 92.66225
85.0 0.01176 72.26242 97.53245
91.0 0.01099 72.24471 103.74392
108.0 0.00926 72.22697 111.40890
127.0 0.00787 72.20921 120.43944
146.0 0.00685 72.19143 130.38066
169.0 0.00592 72.17361 140.14661
165.0 0.00606 72.15578 147.86449
171.0 0.00585 72.13793 151.34373
168.0 0.00595 72.12006 149.38971
139.0 0.00719 72.10217 142.78792
116.0 0.00862 72.08424 133.64452
121.0 0.00826 72.06631 124.01723
125.0 0.00800 72.04835 115.21554
118.0 0.00847 72.03036 107.86735
96.0 0.01042 72.01235 102.18433
92.0 0.01087 71.99434 98.16107
94.0 0.01064 71.97630 95.67669
93.0 0.01075 71.95822 94.56223
94.0 0.01064 71.94014 94.61374
110.0 0.00909 71.92202 95.58444
123.0 0.00813 71.90390 97.13558
137.0 0.00730 71.88573 98.76151
125.0 0.00800 71.86758 99.78032
121.0 0.00826 71.84939 99.55161
114.0 0.00877 71.83117 97.87028
92.0 0.01087 71.81294 95.10163
93.0 0.01075 71.79469 91.86436
85.0 0.01176 71.77641 88.66547
78.0 0.01282 71.75812 85.78803
80.0 0.01250 71.73981 83.34427
74.0 0.01351 71.72148 81.34397
87.0 0.01149 71.70313 79.75019
80.0 0.01250 71.68475 78.50159
77.0 0.01299 71.66636 77.53041
58.0 0.01724 71.64795 76.77271
68.0 0.01471 71.62952 76.17415
67.0 0.01493 71.61107 75.69202
80.0 0.01250 71.59261 75.29494
71.0 0.01408 71.57412 74.96021
64.0 0.01563 71.55562 74.67262
65.0 0.01538 71.53709 74.42161
75.0 0.01333 71.51854 74.19975
72.0 0.01389 71.49998 74.00175
83.0 0.01205 71.48141 73.82370
74.0 0.01351 71.46281 73.66238
73.0 0.01370 71.44418 73.51541
68.0 0.01471 71.42555 73.38083
71.0 0.01408 71.40690 73.25696
67.0 0.01493 71.38822 73.14246
79.0 0.01266 71.36953 73.03617
91.0 0.01099 71.35082 72.93712
68.0 0.01471 71.33211 72.84454
63.0 0.01587 71.31335 72.75758
75.0 0.01333 71.29460 72.67574
73.0 0.01370 71.27583 72.59844
75.0 0.01333 71.25703 72.52524
81.0 0.01235 71.23821 72.45575
72.0 0.01389 71.21939 72.38963
66.0 0.01515 71.20054 72.32651
65.0 0.01538 71.18167 72.26616
68.0 0.01471 71.16279 72.20832
68.0 0.01471 71.14390 72.15279
77.0 0.01299 71.12498 72.09937
73.0 0.01370 71.10605 72.04788
74.0 0.01351 71.08710 71.99818
86.0 0.01163 71.06815 71.95016
48.0 0.02083 71.04916 71.90361
57.0 0.01754 71.03017 71.85847
73.0 0.01370 71.01116 71.66933
86.0 0.01163 70.99213 71.62880
72.0 0.01389 70.97308 71.58934
78.0 0.01282 70.95403 71.55089
67.0 0.01493 70.93496 71.51337
76.0 0.01316 70.91587 71.47672
60.0 0.01667 70.89676 71.44090
68.0 0.01471 70.87764 71.40585
67.0 0.01493 70.85851 71.37148
76.0 0.01316 70.83936 71.33779
68.0 0.01471 70.82018 71.30474
80.0 0.01250 70.80101 71.27228
70.0 0.01429 70.78181 71.24036
65.0 0.01538 70.76260 71.20896
70.0 0.01429 70.74338 71.17806
80.0 0.01250 70.72414 71.07383
72.0 0.01389 70.70488 71.04487
70.0 0.01429 70.68562 71.01631
67.0 0.01493 70.66634 70.98811
78.0 0.01282 70.64705 70.96024
86.0 0.01163 70.62773 70.93271
71.0 0.01408 70.60841 70.90547
60.0 0.01667 70.58907 70.87856
56.0 0.01786 70.56971 70.85188
76.0 0.01316 70.55035 70.82549
61.0 0.01639 70.53098 70.79935
74.0 0.01351 70.51159 70.77345
74.0 0.01351 70.49219 70.74776
74.0 0.01351 70.47276 70.72227
59.0 0.01695 70.45334 70.69701
60.0 0.01667 70.43389 70.67192
91.0 0.01099 70.41444 70.64702
59.0 0.01695 70.39497 70.62231
74.0 0.01351 70.37549 70.59774
64.0 0.01563 70.35600 70.57332
68.0 0.01471 70.33648 70.54906
63.0 0.01587 70.31697 70.52496
78.0 0.01282 70.29743 70.50098
77.0 0.01299 70.27789 70.47713
68.0 0.01471 70.25835 70.45341
64.0 0.01563 70.23877 70.42979
63.0 0.01587 70.21919 70.40631
71.0 0.01408 70.19960 70.38292
65.0 0.01538 70.18000 70.35964
80.0 0.01250 70.16039 70.33646
69.0 0.01449 70.14077 70.31338
69.0 0.01449 70.12113 70.29039
67.0 0.01493 70.10149 70.26748
71.0 0.01408 70.08183 70.24464
77.0 0.01299 70.06216 70.22189
84.0 0.01190 70.04247 70.19921
65.0 0.01538 70.02279 70.17663
66.0 0.01515 70.00308 70.15409
78.0 0.01282 69.98338 70.13164
72.0 0.01389 69.96366 70.10924
68.0 0.01471 69.94392 70.08690
62.0 0.01613 69.92418 70.06461
65.0 0.01538 69.90443 70.04240
52.0 0.01923 69.88467 70.02023
74.0 0.01351 69.86490 69.99814
68.0 0.01471 69.84512 69.97607
72.0 0.01389 69.82533 69.95406
66.0 0.01515 69.80553 69.93209
84.0 0.01190 69.78571 69.91017
73.0 0.01370 69.76589 69.88829
69.0 0.01449 69.74606 69.86646
62.0 0.01613 69.72623 69.84467
74.0 0.01351 69.70638 69.82291
58.0 0.01724 69.68653 69.80119
77.0 0.01299 69.66666 69.77952
88.0 0.01136 69.64678 69.75785
74.0 0.01351 69.62690 69.73622
70.0 0.01429 69.60703 69.71466
67.0 0.01493 69.58712 69.69310
72.0 0.01389 69.56721 69.67157
76.0 0.01316 69.54730 69.65008
65.0 0.01538 69.52738 69.62861
69.0 0.01449 69.50745 69.60715
64.0 0.01563 69.48750 69.51382
81.0 0.01235 69.46756 69.49346
61.0 0.01639 69.44761 69.47311
75.0 0.01333 69.42764 69.45274
55.0 0.01818 69.40768 69.43239
69.0 0.01449 69.38770 69.41203
93.0 0.01075 69.36771 69.39166
70.0 0.01429 69.34772 69.37131
73.0 0.01370 69.32774 69.35096
72.0 0.01389 69.30773 69.33060
64.0 0.01563 69.28771 69.31025
63.0 0.01587 69.26770 69.28990
77.0 0.01299 69.24767 69.26955
59.0 0.01695 69.22764 69.24919
70.0 0.01429 69.20760 69.22884
69.0 0.01449 69.18755 69.18761
69.0 0.01449 69.16751 69.16756
72.0 0.01389 69.14746 69.14751
82.0 0.01220 69.12739 69.12744
75.0 0.01333 69.10733 69.10738
66.0 0.01515 69.08725 69.08730
64.0 0.01563 69.06717 69.06723
62.0 0.01613 69.04710 69.04715
70.0 0.01429 69.02700 69.02706
70.0 0.01429 69.00690 69.00697
66.0 0.01515 68.98681 68.98686
65.0 0.01538 68.96671 68.96677
74.0 0.01351 68.94659 68.94665
67.0 0.01493 68.92648 68.92654
79.0 0.01266 68.90635 68.90641
68.0 0.01471 68.88624 68.88630
79.0 0.01266 68.86610 68.86617
70.0 0.01429 68.84596 68.84602
66.0 0.01515 68.82584 68.82590
71.0 0.01408 68.80569 68.80575
58.0 0.01724 68.78555 68.78561
60.0 0.01667 68.76540 68.76546
71.0 0.01408 68.74525 68.74532
75.0 0.01333 68.72508 68.72514
80.0 0.01250 68.70492 68.70498
77.0 0.01299 68.68476 68.68483
70.0 0.01429 68.66459 68.66465
70.0 0.01429 68.64442 68.64448
76.0 0.01316 68.62424 68.62431
61.0 0.01639 68.60407 68.60413
77.0 0.01299 68.58389 68.58395
73.0 0.01370 68.56371 68.56377
68.0 0.01471 68.54353 68.54359
61.0 0.01639 68.52333 68.52339
66.0 0.01515 68.50314 68.50320
57.0 0.01754 68.48295 68.48302
71.0 0.01408 68.46275 68.46281
60.0 0.01667 68.44254 68.44261
89.0 0.01124 68.42234 68.42241
75.0 0.01333 68.40214 68.40221
48.0 0.02083 68.38194 68.38200
69.0 0.01449 68.36172 68.36179
65.0 0.01538 68.34151 68.34158
68.0 0.01471 68.32131 68.32137
51.0 0.01961 68.30109 68.30116
60.0 0.01667 68.28088 68.28094
60.0 0.01667 68.26066 68.26073
71.0 0.01408 68.24045 68.24052
63.0 0.01587 68.22022 68.22029
79.0 0.01266 68.20001 68.20008
75.0 0.01333 68.17979 68.17986
76.0 0.01316 68.15957 68.15964
58.0 0.01724 68.13934 68.13942
68.0 0.01471 68.11912 68.11919
74.0 0.01351 68.09890 68.09897
65.0 0.01538 68.07867 68.07874
72.0 0.01389 68.05845 68.05853
72.0 0.01389 68.03824 68.03831
59.0 0.01695 68.01801 68.01808
66.0 0.01515 67.99778 67.99786
71.0 0.01408 67.97755 67.97763
76.0 0.01316 67.95734 67.95742
58.0 0.01724 67.93711 67.93718
60.0 0.01667 67.91689 67.91697
83.0 0.01205 67.89668 67.89675
56.0 0.01786 67.87646 67.87653
62.0 0.01613 67.85623 67.85631
65.0 0.01538 67.83601 67.83608
73.0 0.01370 67.81579 67.81586
79.0 0.01266 67.79557 67.79565
75.0 0.01333 67.77534 67.77543
68.0 0.01471 67.75514 67.75523
61.0 0.01639 67.73492 67.73501
54.0 0.01852 67.71471 67.71480
68.0 0.01471 67.69450 67.69458
84.0 0.01190 67.67429 67.67438
63.0 0.01587 67.65408 67.65416
69.0 0.01449 67.63388 67.63396
70.0 0.01429 67.61368 67.61377
68.0 0.01471 67.59348 67.59356
87.0 0.01149 67.57327 67.57336
55.0 0.01818 67.55307 67.55316
60.0 0.01667 67.53288 67.53297
68.0 0.01471 67.51269 67.51276
61.0 0.01639 67.49249 67.49258
66.0 0.01515 67.47231 67.47240
66.0 0.01515 67.45213 67.45222
74.0 0.01351 67.43195 67.45253
66.0 0.01515 67.41177 67.43265
61.0 0.01639 67.39159 67.41277
76.0 0.01316 67.37141 67.39292
66.0 0.01515 67.35125 67.37308
71.0 0.01408 67.33108 67.35323
70.0 0.01429 67.31092 67.33340
74.0 0.01351 67.29076 67.31358
73.0 0.01370 67.27061 67.29377
75.0 0.01333 67.25045 67.27397
69.0 0.01449 67.23031 67.25420
68.0 0.01471 67.21017 67.23444
62.0 0.01613 67.19003 67.21467
70.0 0.01429 67.16989 67.19494
62.0 0.01613 67.14977 67.17520
70.0 0.01429 67.12963 67.15549
67.0 0.01493 67.10951 67.13578
82.0 0.01220 67.08940 67.12401
66.0 0.01515 67.06929 67.10445
71.0 0.01408 67.04917 67.08490
68.0 0.01471 67.02908 67.06540
54.0 0.01852 67.00898 67.04590
85.0 0.01176 66.98888 67.02642
64.0 0.01563 66.96880 67.00697
74.0 0.01351 66.94872 66.98753
76.0 0.01316 66.92864 66.96811
51.0 0.01961 66.90857 66.94872
69.0 0.01449 66.88851 66.92936
78.0 0.01282 66.86845 66.91001
65.0 0.01538 66.84839 66.89069
63.0 0.01587 66.82834 66.87140
56.0 0.01786 66.80831 66.85214
55.0 0.01818 66.78827 66.83290
61.0 0.01639 66.76824 66.81369
62.0 0.01613 66.74821 66.79452
66.0 0.01515 66.72820 66.77536
76.0 0.01316 66.70819 66.75623
71.0 0.01408 66.68818 66.73714
72.0 0.01389 66.66819 66.71809
72.0 0.01389 66.64821 66.69909
76.0 0.01316 66.62821 66.68009
60.0 0.01667 66.60825 66.66116
66.0 0.01515 66.58827 66.64225
58.0 0.01724 66.56831 66.62337
76.0 0.01316 66.54835 66.60454
62.0 0.01613 66.52841 66.58576
68.0 0.01471 66.50848 66.56702
69.0 0.01449 66.48853 66.54832
60.0 0.01667 66.46861 66.52967
82.0 0.01220 66.44869 66.51107
57.0 0.01754 66.42879 66.49253
82.0 0.01220 66.40888 66.47404
54.0 0.01852 66.38898 66.45559
60.0 0.01667 66.36912 66.43721
77.0 0.01299 66.34924 66.41889
48.0 0.02083 66.32937 66.40063
69.0 0.01449 66.30951 66.38245
78.0 0.01282 66.28966 66.36432
76.0 0.01316 66.26981 66.34627
72.0 0.01389 66.24998 66.32829
75.0 0.01333 66.23016 66.31039
64.0 0.01563 66.21034 66.29256
88.0 0.01136 66.19053 66.27481
74.0 0.01351 66.17074 66.25717
72.0 0.01389 66.15095 66.23961
74.0 0.01351 66.13116 66.22214
66.0 0.01515 66.11140 66.20479
80.0 0.01250 66.09165 66.18755
67.0 0.01493 66.07189 66.17039
75.0 0.01333 66.05215 66.15337
92.0 0.01087 66.03242 66.13647
66.0 0.01515 66.01270 66.11971
67.0 0.01493 65.99300 66.10308
73.0 0.01370 65.97330 66.08661
77.0 0.01299 65.95361 66.07027
69.0 0.01449 65.93393 66.05411
79.0 0.01266 65.91425 66.03812
88.0 0.01136 65.89460 66.02232
82.0 0.01220 65.87494 66.00671
70.0 0.01429 65.85530 65.99130
60.0 0.01667 65.83567 65.97611
64.0 0.01563 65.81606 65.96117
61.0 0.01639 65.79646 65.94646
66.0 0.01515 65.77686 65.93202
62.0 0.01613 65.75729 65.91787
62.0 0.01613 65.73771 65.90401
64.0 0.01563 65.71814 65.89048
64.0 0.01563 65.69861 65.87730
59.0 0.01695 65.67906 65.86449
72.0 0.01389 65.65953 65.85208
76.0 0.01316 65.64001 65.84011
56.0 0.01786 65.62051 65.82861
71.0 0.01408 65.60103 65.81762
67.0 0.01493 65.58154 65.80716
64.0 0.01563 65.56207 65.79731
75.0 0.01333 65.54263 65.78809
84.0 0.01190 65.52318 65.77959
56.0 0.01786 65.50375 65.77184
76.0 0.01316 65.48432 65.76492
71.0 0.01408 65.46492 65.75893
61.0 0.01639 65.44553 65.75394
57.0 0.01754 65.42615 65.75005
71.0 0.01408 65.40678 65.74739
57.0 0.01754 65.38743 65.74609
79.0 0.01266 65.36807 65.74625
44.0 0.02273 65.34875 65.74810
54.0 0.01852 65.32944 65.75182
74.0 0.01351 65.31013 65.75759
59.0 0.01695 65.29084 65.76571
47.0 0.02128 65.27158 65.77645
56.0 0.01786 65.25230 65.79015
68.0 0.01471 65.23306 65.80725
77.0 0.01299 65.21381 65.82818
71.0 0.01408 65.19460 65.85352
64.0 0.01563 65.17538 65.88393
69.0 0.01449 65.15620 65.92018
66.0 0.01515 65.13702 65.96326
73.0 0.01370 65.11785 66.01431
69.0 0.01449 65.09869 66.07476
66.0 0.01515 65.07955 66.14640
72.0 0.01389 65.06043 66.23153
66.0 0.01515 65.04132 66.33320
49.0 0.02041 65.02222 66.45558
70.0 0.01429 65.00316 66.60451
59.0 0.01695 64.98409 66.78860
60.0 0.01667 64.96503 67.02014
76.0 0.01316 64.94599 67.31664
87.0 0.01149 64.92697 67.70243
63.0 0.01587 64.90797 68.20966
60.0 0.01667 64.88898 68.87798
66.0 0.01515 64.87001 69.75428
62.0 0.01613 64.85105 70.88670
69.0 0.01449 64.83210 72.31886
85.0 0.01176 64.81316 74.07852
90.0 0.01111 64.79424 76.15957
69.0 0.01449 64.77535 78.49073
67.0 0.01493 64.75647 80.88674
78.0 0.01282 64.73760 83.00051
89.0 0.01124 64.71876 84.35962
75.0 0.01333 64.69991 84.56162
87.0 0.01149 64.68110 83.55186
91.0 0.01099 64.66228 81.66739
85.0 0.01176 64.64351 79.39762
64.0 0.01563 64.62474 77.13740
73.0 0.01370 64.60598 75.12276
54.0 0.01852 64.58724 73.46295
71.0 0.01408 64.56852 72.19360
72.0 0.01389 64.54981 71.31187
79.0 0.01266 64.53112 70.81205
73.0 0.01370 64.51245 70.63014
68.0 0.01471 64.49380 70.74453
74.0 0.01351 64.47517 71.10930
70.0 0.01429 64.45654 71.65966
66.0 0.01515 64.43793 72.29333
68.0 0.01471 64.41935 72.85290
76.0 0.01316 64.40077 73.14172
61.0 0.01639 64.38223 73.00497
72.0 0.01389 64.36370 72.42874
54.0 0.01852 64.34517 71.54520
60.0 0.01667 64.32667 70.53532
72.0 0.01389 64.30819 69.54053
71.0 0.01408 64.28972 68.64021
75.0 0.01333 64.27127 67.86677
75.0 0.01333 64.25285 67.22507
71.0 0.01408 64.23444 66.70570
78.0 0.01282 64.21604 66.30637
67.0 0.01493 64.19767 65.97916
59.0 0.01695 64.17931 65.72015
72.0 0.01389 64.16097 65.51315
74.0 0.01351 64.14265 65.34492
69.0 0.01449 64.12436 65.20541
61.0 0.01639 64.10606 65.08704
77.0 0.01299 64.08780 64.98463
70.0 0.01429 64.06956 64.89450
57.0 0.01754 64.05132 64.81406
62.0 0.01613 64.03311 64.74146
74.0 0.01351 64.01492 64.67535
78.0 0.01282 63.99674 64.61467
72.0 0.01389 63.97860 64.55865
67.0 0.01493 63.96047 64.50660
64.0 0.01563 63.94235 64.45798
70.0 0.01429 63.92426 64.41238
67.0 0.01493 63.90618 64.36939
65.0 0.01538 63.88812 64.32874
72.0 0.01389 63.87009 64.29013
77.0 0.01299 63.85207 64.25335
63.0 0.01587 63.83407 64.21818
74.0 0.01351 63.81609 64.18447
77.0 0.01299 63.79813 64.15208
60.0 0.01667 63.78019 64.12087
65.0 0.01538 63.76227 64.09075
62.0 0.01613 63.74437 64.06161
63.0 0.01587 63.72650 64.03336
60.0 0.01667 63.70864 64.00593
57.0 0.01754 63.69080 63.97924
62.0 0.01613 63.67298 63.95326
52.0 0.01923 63.65518 63.92790
55.0 0.01818 63.63740 63.90315
63.0 0.01587 63.61965 63.87896
51.0 0.01961 63.60191 63.85527
69.0 0.01449 63.58419 63.83208
64.0 0.01563 63.56649 63.80933
69.0 0.01449 63.54882 63.78701
52.0 0.01923 63.53117 63.76509
61.0 0.01639 63.51353 63.74356
64.0 0.01563 63.49591 63.72239
65.0 0.01538 63.47833 63.70158
52.0 0.01923 63.46075 63.68109
75.0 0.01333 63.44320 63.66091
78.0 0.01282 63.42567 63.64104
61.0 0.01639 63.40816 63.62148
65.0 0.01538 63.39067 63.60219
78.0 0.01282 63.37322 63.58320
68.0 0.01471 63.35577 63.56446
67.0 0.01493 63.33835 63.54599
65.0 0.01538 63.32095 63.52779
53.0 0.01887 63.30357 63.50985
72.0 0.01389 63.28622 63.49216
68.0 0.01471 63.26888 63.47472
74.0 0.01351 63.25156 63.45754
77.0 0.01299 63.23428 63.44061
56.0 0.01786 63.21701 63.43475
55.0 0.01818 63.19976 63.41848
65.0 0.01538 63.18253 63.40247
72.0 0.01389 63.16533 63.38674
57.0 0.01754 63.14814 63.37129
65.0 0.01538 63.13099 63.35611
55.0 0.01818 63.11386 63.34121
69.0 0.01449 63.09674 63.32660
82.0 0.01220 63.07965 63.31229
74.0 0.01351 63.06258 63.29829
80.0 0.01250 63.04553 63.28463
68.0 0.01471 63.02850 63.27128
66.0 0.01515 63.01151 63.25831
59.0 0.01695 62.99454 63.24570
63.0 0.01587 62.97758 63.23347
70.0 0.01429 62.96064 63.22165
61.0 0.01639 62.94373 63.21025
62.0 0.01613 62.92685 63.19932
69.0 0.01449 62.90998 63.18890
59.0 0.01695 62.89315 63.17897
77.0 0.01299 62.87634 63.16958
64.0 0.01563 62.85954 63.16078
63.0 0.01587 62.84277 63.15261
72.0 0.01389 62.82602 63.14512
61.0 0.01639 62.80929 63.13837
72.0 0.01389 62.79259 63.13241
77.0 0.01299 62.77592 63.12731
67.0 0.01493 62.75927 63.12315
68.0 0.01471 62.74264 63.12001
53.0 0.01887 62.72603 63.11798
58.0 0.01724 62.70945 63.11718
60.0 0.01667 62.69289 63.11774
64.0 0.01563 62.67636 63.11978
60.0 0.01667 62.65985 63.12346
73.0 0.01370 62.64337 63.12899
66.0 0.01515 62.62690 63.13657
62.0 0.01613 62.61046 63.14642
68.0 0.01471 62.59405 63.15887
67.0 0.01493 62.57766 63.17423
51.0 0.01961 62.56129 63.19287
66.0 0.01515 62.54495 63.21526
65.0 0.01538 62.52864 63.24194
68.0 0.01471 62.51235 63.27356
80.0 0.01250 62.49608 63.31088
66.0 0.01515 62.47984 63.35485
56.0 0.01786 62.46362 63.40666
63.0 0.01587 62.44743 63.46774
65.0 0.01538 62.43126 63.54007
73.0 0.01370 62.41511 63.62620
63.0 0.01587 62.39900 63.72968
63.0 0.01587 62.38290 63.85539
52.0 0.01923 62.36683 64.01023
65.0 0.01538 62.35078 64.20370
66.0 0.01515 62.33477 64.44875
62.0 0.01613 62.31878 64.76203
58.0 0.01724 62.30281 65.16492
76.0 0.01316 62.28687 65.66141
83.0 0.01205 62.27095 66.31995
69.0 0.01449 62.25505 67.14642
71.0 0.01408 62.23918 68.16290
72.0 0.01389 62.22335 69.37959
75.0 0.01333 62.20753 70.78550
68.0 0.01471 62.19173 72.32537
87.0 0.01149 62.17597 73.87400
75.0 0.01333 62.16023 75.21548
70.0 0.01429 62.14452 76.07404
58.0 0.01724 62.12882 76.23118
59.0 0.01695 62.11316 75.66554
90.0 0.01111 62.09753 74.57213
62.0 0.01613 62.08191 73.23540
72.0 0.01389 62.06633 71.90163
67.0 0.01493 62.05077 70.72932
67.0 0.01493 62.03524 69.80404
64.0 0.01563 62.01972 69.18672
70.0 0.01429 62.00425 68.85464
81.0 0.01235 61.98880 68.83134
61.0 0.01639 61.97336 69.11302
72.0 0.01389 61.95796 69.68713
65.0 0.01538 61.94258 70.52695
83.0 0.01205 61.92723 71.57905
61.0 0.01639 61.91190 72.74116
81.0 0.01235 61.89660 73.83793
72.0 0.01389 61.88134 74.62324
79.0 0.01266 61.86609 74.85415
74.0 0.01351 61.85088 74.41924
75.0 0.01333 61.83568 73.41360
72.0 0.01389 61.82051 72.06875
61.0 0.01639 61.80537 70.62045
64.0 0.01563 61.79027 69.23277
64.0 0.01563 61.77518 67.99031
72.0 0.01389 61.76012 66.92624
64.0 0.01563 61.74509 66.06365
74.0 0.01351 61.73008 65.34560
73.0 0.01370 61.71510 64.77113
66.0 0.01515 61.70015 64.31580
61.0 0.01639 61.68522 63.95573
57.0 0.01754 61.67033 63.66992
47.0 0.02128 61.65546 63.44046
79.0 0.01266 61.64061 63.25364
59.0 0.01695 61.62581 63.09901
56.0 0.01786 61.61102 62.96892
74.0 0.01351 61.59625 62.85787
65.0 0.01538 61.58152 62.76204
78.0 0.01282 61.56681 62.67853
50.0 0.02000 61.55214 62.60535
66.0 0.01515 61.53748 62.54100
60.0 0.01667 61.52285 62.48432
71.0 0.01408 61.50826 62.43446
68.0 0.01471 61.49368 62.39070
71.0 0.01408 61.47914 62.35254
68.0 0.01471 61.46464 62.31962
76.0 0.01316 61.45015 62.29161
54.0 0.01852 61.43568 62.26838
68.0 0.01471 61.42126 62.24987
60.0 0.01667 61.40685 62.23610
58.0 0.01724 61.39247 62.22720
76.0 0.01316 61.37813 62.22345
65.0 0.01538 61.36380 62.22517
82.0 0.01220 61.34951 62.23295
50.0 0.02000 61.33524 62.24750
68.0 0.01471 61.32101 62.26984
68.0 0.01471 61.30680 62.30136
62.0 0.01613 61.29261 62.34406
61.0 0.01639 61.27845 62.40074
54.0 0.01852 61.26434 62.47548
60.0 0.01667 61.25024 62.57419
54.0 0.01852 61.23616 62.70505
58.0 0.01724 61.22213 62.87920
71.0 0.01408 61.20811 63.11106
55.0 0.01818 61.19413 63.41829
65.0 0.01538 61.18018 63.82069
63.0 0.01587 61.16624 64.33940
61.0 0.01639 61.15234 64.99282
63.0 0.01587 61.13847 65.79282
81.0 0.01235 61.12463 66.73723
68.0 0.01471 61.11081 67.79712
74.0 0.01351 61.09702 68.89703
53.0 0.01887 61.08326 69.89446
73.0 0.01370 61.06954 70.58605
47.0 0.02128 61.05584 70.78027
61.0 0.01639 61.04216 70.41095
73.0 0.01370 61.02851 69.58733
66.0 0.01515 61.01490 68.51556
87.0 0.01149 61.00131 67.38641
59.0 0.01695 60.98776 66.32382
70.0 0.01429 60.97423 65.38746
65.0 0.01538 60.96072 64.59805
82.0 0.01220 60.94725 63.95311
63.0 0.01587 60.93380 63.43841
70.0 0.01429 60.92039 63.03447
61.0 0.01639 60.90700 62.72051
70.0 0.01429 60.89365 62.47699
66.0 0.01515 60.88033 62.28713
68.0 0.01471 60.86703 62.13707
66.0 0.01515 60.85375 62.01637
73.0 0.01370 60.84051 61.91716
50.0 0.02000 60.82730 61.83364
57.0 0.01754 60.81411 61.76172
66.0 0.01515 60.80096 61.69880
64.0 0.01563 60.78783 61.64323
59.0 0.01695 60.77473 61.59412
63.0 0.01587 60.76167 61.55078
62.0 0.01613 60.74862 61.51262
53.0 0.01887 60.73561 61.47912
59.0 0.01695 60.72263 61.44981
79.0 0.01266 60.70968 61.42432
73.0 0.01370 60.69676 61.40227
58.0 0.01724 60.68386 61.38338
65.0 0.01538 60.67101 61.36747
65.0 0.01538 60.65817 61.35431
67.0 0.01493 60.64536 61.34379
59.0 0.01695 60.63260 61.33585
66.0 0.01515 60.61984 61.33041
75.0 0.01333 60.60712 61.32748
77.0 0.01299 60.59443 61.32711
68.0 0.01471 60.58177 61.32933
62.0 0.01613 60.56914 61.33427
69.0 0.01449 60.55654 61.34205
59.0 0.01695 60.54396 61.35285
66.0 0.01515 60.53143 61.36689
57.0 0.01754 60.51891 61.38442
80.0 0.01250 60.50643 61.40576
64.0 0.01563 60.49397 61.43129
50.0 0.02000 60.48156 61.46146
74.0 0.01351 60.46916 61.49680
64.0 0.01563 60.45679 61.53791
84.0 0.01190 60.44447 61.58560
73.0 0.01370 60.43216 61.64073
48.0 0.02083 60.41988 61.70438
74.0 0.01351 60.40763 61.77787
78.0 0.01282 60.39541 61.86277
57.0 0.01754 60.38322 61.96104
67.0 0.01493 60.37106 62.07515
67.0 0.01493 60.35894 62.20822
63.0 0.01587 60.34684 62.36460
63.0 0.01587 60.33477 62.55006
72.0 0.01389 60.32272 62.77288
82.0 0.01220 60.31072 63.04493
82.0 0.01220 60.29874 63.38332
48.0 0.02083 60.28679 63.81208
58.0 0.01724 60.27487 64.36492
67.0 0.01493 60.26298 65.08514
76.0 0.01316 60.25112 66.02634
73.0 0.01370 60.23928 67.24965
55.0 0.01818 60.22748 68.80165
65.0 0.01538 60.21571 70.77090
66.0 0.01515 60.20396 73.17427
76.0 0.01316 60.19225 75.99837
68.0 0.01471 60.18057 79.14887
73.0 0.01370 60.16891 82.38099
77.0 0.01299 60.15729 85.24695
90.0 0.01111 60.14571 87.13593
83.0 0.01205 60.13414 87.52547
76.0 0.01316 60.12260 86.32813
64.0 0.01563 60.11111 83.96012
72.0 0.01389 60.09963 81.05326
64.0 0.01563 60.08818 78.14001
70.0 0.01429 60.07677 75.56734
58.0 0.01724 60.06538 73.46629
78.0 0.01282 60.05402 71.92417
66.0 0.01515 60.04270 70.96148
67.0 0.01493 60.03141 70.56020
60.0 0.01667 60.02014 70.73589
74.0 0.01351 60.00891 71.45193
66.0 0.01515 59.99770 72.67439
72.0 0.01389 59.98653 74.34205
62.0 0.01613 59.97539 76.33587
76.0 0.01316 59.96427 78.42970
68.0 0.01471 59.95318 80.25221
86.0 0.01163 59.94213 81.32159
75.0 0.01333 59.93110 81.25108
66.0 0.01515 59.92011 80.00008
62.0 0.01613 59.90914 77.89938
59.0 0.01695 59.89820 75.41653
69.0 0.01449 59.88729 72.92879
67.0 0.01493 59.87643 70.65744
78.0 0.01282 59.86558 68.70541
65.0 0.01538 59.85476 67.07858
56.0 0.01786 59.84398 65.76664
68.0 0.01471 59.83322 64.73048
60.0 0.01667 59.82250 63.92284
54.0 0.01852 59.81180 63.29666
67.0 0.01493 59.80113 62.80883
60.0 0.01667 59.79050 62.42443
72.0 0.01389 59.77989 62.11609
74.0 0.01351 59.76932 61.86356
77.0 0.01299 59.75877 61.65242
62.0 0.01613 59.74825 61.47260
66.0 0.01515 59.73776 61.31709
77.0 0.01299 59.72731 61.18100
60.0 0.01667 59.71688 61.06064
67.0 0.01493 59.70649 60.95338
55.0 0.01818 59.69612 60.85717
69.0 0.01449 59.68578 60.77038
66.0 0.01515 59.67548 60.69167
60.0 0.01667 59.66520 60.61995
67.0 0.01493 59.65495 60.55428
60.0 0.01667 59.64474 60.49393
56.0 0.01786 59.63456 60.43824
61.0 0.01639 59.62440 60.38666
65.0 0.01538 59.61427 60.33874
66.0 0.01515 59.60417 60.29406
71.0 0.01408 59.59410 60.25229
69.0 0.01449 59.58407 60.21315
52.0 0.01923 59.57406 60.17631
58.0 0.01724 59.56408 60.14161
65.0 0.01538 59.55413 60.10881
64.0 0.01563 59.54421 60.07775
66.0 0.01515 59.53432 60.04830
76.0 0.01316 59.52447 60.02031
67.0 0.01493 59.51464 59.99364
69.0 0.01449 59.50484 59.96820
66.0 0.01515 59.49508 59.94390
56.0 0.01786 59.48534 59.92062
71.0 0.01408 59.47563 59.89834
58.0 0.01724 59.46595 59.87694
48.0 0.02083 59.45630 59.85640
64.0 0.01563 59.44669 59.82573
57.0 0.01754 59.43710 59.80686
72.0 0.01389 59.42754 59.78868
63.0 0.01587 59.41801 59.77117
59.0 0.01695 59.40851 59.75427
74.0 0.01351 59.39904 59.73795
58.0 0.01724 59.38960 59.72220
52.0 0.01923 59.38019 59.70697
63.0 0.01587 59.37080 59.69225
73.0 0.01370 59.36146 59.67803
78.0 0.01282 59.35214 59.66427
62.0 0.01613 59.34285 59.65096
66.0 0.01515 59.33358 59.66417
69.0 0.01449 59.32435 59.65212
55.0 0.01818 59.31515 59.64050
77.0 0.01299 59.30597 59.62930
37.0 0.02703 59.29683 59.61852
60.0 0.01667 59.28772 59.60814
63.0 0.01587 59.27863 59.59815
65.0 0.01538 59.26958 59.58860
57.0 0.01754 59.26056 59.57946
81.0 0.01235 59.25156 59.57072
61.0 0.01639 59.24260 59.56239
86.0 0.01163 59.23367 59.55449
72.0 0.01389 59.22475 59.54702
55.0 0.01818 59.21588 59.53997
57.0 0.01754 59.20703 59.53338
50.0 0.02000 59.19822 59.52725
59.0 0.01695 59.18943 59.52160
83.0 0.01205 59.18066 59.51643
59.0 0.01695 59.17194 59.51180
66.0 0.01515 59.16323 59.52391
76.0 0.01316 59.15457 59.52062
69.0 0.01449 59.14593 59.51793
77.0 0.01299 59.13732 59.51588
51.0 0.01961 59.12873 59.51450
62.0 0.01613 59.12018 59.51386
55.0 0.01818 59.11165 59.51398
47.0 0.02128 59.10316 59.51494
69.0 0.01449 59.09470 59.51680
61.0 0.01639 59.08626 59.51962
71.0 0.01408 59.07786 59.52349
65.0 0.01538 59.06948 59.52850
59.0 0.01695 59.06113 59.53476
51.0 0.01961 59.05281 59.54240
71.0 0.01408 59.04452 59.55153
57.0 0.01754 59.03625 59.56234
48.0 0.02083 59.02803 59.57499
69.0 0.01449 59.01982 59.58969
64.0 0.01563 59.01165 59.60669
78.0 0.01282 59.00350 59.62627
64.0 0.01563 58.99539 59.64876
59.0 0.01695 58.98731 59.67455
54.0 0.01852 58.97925 59.70407
65.0 0.01538 58.97122 59.73788
61.0 0.01639 58.96323 59.80759
52.0 0.01923 58.95526 59.85239
69.0 0.01449 58.94731 59.90382
48.0 0.02083 58.93940 59.96304
82.0 0.01220 58.93151 60.03148
64.0 0.01563 58.92366 60.11098
67.0 0.01493 58.91584 60.20399
65.0 0.01538 58.90804 60.31391
77.0 0.01299 58.90027 60.44545
68.0 0.01471 58.89253 60.60539
66.0 0.01515 58.88482 60.80341
57.0 0.01754 58.87714 61.05331
70.0 0.01429 58.86948 61.37388
54.0 0.01852 58.86186 61.78988
89.0 0.01124 58.85427 62.33162
72.0 0.01389 58.84670 63.03494
67.0 0.01493 58.83916 63.93673
73.0 0.01370 58.83165 65.07097
59.0 0.01695 58.82417 66.43266
52.0 0.01923 58.81672 68.10228
58.0 0.01724 58.80930 69.96162
65.0 0.01538 58.80190 71.91756
67.0 0.01493 58.79453 73.73882
55.0 0.01818 58.78719 75.08271
74.0 0.01351 58.77988 75.60212
52.0 0.01923 58.77259 75.14758
61.0 0.01639 58.76534 73.87803
53.0 0.01887 58.75812 72.14630
62.0 0.01613 58.75092 70.32598
72.0 0.01389 58.74375 68.59577
72.0 0.01389 58.73661 67.10750
76.0 0.01316 58.72949 65.91354
61.0 0.01639 58.72241 65.02664
66.0 0.01515 58.71535 64.43953
60.0 0.01667 58.70833 64.13596
72.0 0.01389 58.70133 64.09581
63.0 0.01587 58.69435 64.27634
59.0 0.01695 58.68740 64.69575
72.0 0.01389 58.68049 65.29718
58.0 0.01724 58.67360 66.02233
56.0 0.01786 58.66674 66.77103
64.0 0.01563 58.65991 67.38898
73.0 0.01370 58.65310 67.69386
59.0 0.01695 58.64633 67.55877
64.0 0.01563 58.63958 66.99465
49.0 0.02041 58.63285 66.13985
70.0 0.01429 58.62616 65.16736
69.0 0.01449 58.61949 64.23063
70.0 0.01429 58.61286 63.36407
65.0 0.01538 58.60624 62.61933
70.0 0.01429 58.59966 62.00299
65.0 0.01538 58.59311 61.50712
67.0 0.01493 58.58657 61.11671
57.0 0.01754 58.58007 60.81406
72.0 0.01389 58.57361 60.58156
54.0 0.01852 58.56716 60.40334
49.0 0.02041 58.56074 60.26639
57.0 0.01754 58.55435 60.16037
63.0 0.01587 58.54798 60.07780
48.0 0.02083 58.54165 60.01331
65.0 0.01538 58.53534 59.96320
64.0 0.01563 58.52905 59.92492
76.0 0.01316 58.52280 59.89677
67.0 0.01493 58.51657 59.87754
53.0 0.01887 58.51038 59.86652
73.0 0.01370 58.50420 59.86317
76.0 0.01316 58.49805 59.86726
61.0 0.01639 58.49193 59.87866
73.0 0.01370 58.48584 59.89748
63.0 0.01587 58.47977 59.92393
62.0 0.01613 58.47373 59.95844
62.0 0.01613 58.46772 60.00161
67.0 0.01493 58.46174 60.05422
54.0 0.01852 58.45578 60.11731
72.0 0.01389 58.44985 60.19221
76.0 0.01316 58.44394 60.28065
65.0 0.01538 58.43806 60.38481
60.0 0.01667 58.43221 60.50780
61.0 0.01639 58.42638 60.65365
65.0 0.01538 58.42059 60.82810
58.0 0.01724 58.41481 61.03925
57.0 0.01754 58.40907 61.29870
81.0 0.01235 58.40335 61.62274
64.0 0.01563 58.39766 62.03378
67.0 0.01493 58.39199 62.56111
75.0 0.01333 58.38634 63.24237
61.0 0.01639 58.38074 64.12114
62.0 0.01613 58.37515 65.24506
75.0 0.01333 58.36959 66.66058
71.0 0.01408 58.36405 68.40515
67.0 0.01493 58.35854 70.49362
75.0 0.01333 58.35306 72.90230
62.0 0.01613 58.34760 75.52884
71.0 0.01408 58.34217 78.14851
74.0 0.01351 58.33676 80.38045
64.0 0.01563 58.33138 81.74665
76.0 0.01316 58.32603 81.88240
78.0 0.01282 58.32070 80.77480
71.0 0.01408 58.31540 78.77238
79.0 0.01266 58.31012 76.36108
72.0 0.01389 58.30487 73.94307
66.0 0.01515 58.29965 71.76736
79.0 0.01266 58.29445 69.95943
63.0 0.01587 58.28928 68.57066
75.0 0.01333 58.28413 67.61094
57.0 0.01754 58.27900 67.07310
63.0 0.01587 58.27390 66.94071
66.0 0.01515 58.26883 67.19328
76.0 0.01316 58.26378 67.80603
84.0 0.01190 58.25876 68.74383
58.0 0.01724 58.25376 69.94743
72.0 0.01389 58.24880 71.30828
72.0 0.01389 58.24385 72.64088
51.0 0.01961 58.23893 73.66965
80.0 0.01250 58.23403 74.09720
72.0 0.01389 58.22916 73.75232
65.0 0.01538 58.22431 72.70335
67.0 0.01493 58.21949 71.20605
69.0 0.01449 58.21469 69.54453
57.0 0.01754 58.20992 67.92864
51.0 0.01961 58.20518 66.47424
84.0 0.01190 58.20045 65.22919
74.0 0.01351 58.19576 64.20120
75.0 0.01333 58.19108 63.37606
68.0 0.01471 58.18644 62.72876
70.0 0.01429 58.18181 62.23028
56.0 0.01786 58.17721 61.85121
59.0 0.01695 58.17264 61.56582
70.0 0.01429 58.16809 61.35243
63.0 0.01587 58.16356 61.19410
60.0 0.01667 58.15906 61.07821
75.0 0.01333 58.15458 60.99577
69.0 0.01449 58.15013 60.94054
68.0 0.01471 58.14570 60.90834
78.0 0.01282 58.14130 60.89646
62.0 0.01613 58.13692 60.90320
61.0 0.01639 58.13256 60.92758
68.0 0.01471 58.12822 60.96918
68.0 0.01471 58.12392 61.02805
56.0 0.01786 58.11963 61.10459
72.0 0.01389 58.11537 61.19974
57.0 0.01754 58.11113 61.31474
61.0 0.01639 58.10691 61.45131
65.0 0.01538 58.10273 61.61170
63.0 0.01587 58.09856 61.79878
53.0 0.01887 58.09442 62.01608
66.0 0.01515 58.09030 62.26849
70.0 0.01429 58.08620 62.56199
69.0 0.01449 58.08213 62.90467
64.0 0.01563 58.07808 63.30745
65.0 0.01538 58.07405 63.78553
46.0 0.02174 58.07005 64.36023
66.0 0.01515 58.06607 65.06141
67.0 0.01493 58.06212 65.92985
67.0 0.01493 58.05818 67.02200
68.0 0.01471 58.05427 68.40958
57.0 0.01754 58.05038 70.18170
61.0 0.01639 58.04652 72.44196
80.0 0.01250 58.04268 75.30210
70.0 0.01429 58.03886 78.86880
83.0 0.01205 58.03506 83.23322
82.0 0.01220 58.03129 88.44975
80.0 0.01250 58.02754 94.42929
102.0 0.00980 58.02381 100.94371
118.0 0.00847 58.02010 107.52214
118.0 0.00847 58.01642 113.27809
118.0 0.00847 58.01276 117.08624
109.0 0.00917 58.00912 118.00545
123.0 0.00813 58.00551 115.84646
112.0 0.00893 58.00191 111.31396
110.0 0.00909 57.99834 105.53761
98.0 0.01020 57.99480 99.55792
81.0 0.01235 57.99127 94.06516
85.0 0.01176 57.98776 89.43738
65.0 0.01538 57.98428 85.84350
70.0 0.01429 57.98082 83.34908
64.0 0.01563 57.97739 81.96207
68.0 0.01471 57.97396 81.66458
77.0 0.01299 57.97057 82.42525
68.0 0.01471 57.96720 84.19915
80.0 0.01250 57.96384 86.91454
77.0 0.01299 57.96051 90.43015
85.0 0.01176 57.95720 94.51791
94.0 0.01064 57.95392 98.71690
78.0 0.01282 57.95065 102.31660
94.0 0.01064 57.94741 104.44077
96.0 0.01042 57.94418 104.39300
92.0 0.01087 57.94098 102.07005
103.0 0.00971 57.93780 98.01866
98.0 0.01020 57.93465 93.08208
89.0 0.01124 57.93151 87.99657
60.0 0.01667 57.92839 83.23143
80.0 0.01250 57.92529 79.01877
80.0 0.01250 57.92222 75.43624
69.0 0.01449 57.91916 72.47358
59.0 0.01695 57.91613 70.07526
64.0 0.01563 57.91312 68.16052
68.0 0.01471 57.91013 66.64591
63.0 0.01587 57.90715 65.45019
64.0 0.01563 57.90420 64.50183
75.0 0.01333 57.90128 63.74167
67.0 0.01493 57.89837 63.12349
72.0 0.01389 57.89548 62.61170
67.0 0.01493 57.89260 62.18103
59.0 0.01695 57.88977 61.81306
55.0 0.01818 57.88693 61.49456
67.0 0.01493 57.88412 61.21598
67.0 0.01493 57.88134 60.97028
51.0 0.01961 57.87857 60.75206
75.0 0.01333 57.87582 60.55724
54.0 0.01852 57.87309 60.38231
85.0 0.01176 57.87038 60.22461
54.0 0.01852 57.86770 60.08191
65.0 0.01538 57.86503 59.95230
65.0 0.01538 57.86238 59.83420
70.0 0.01429 57.85976 59.72630
68.0 0.01471 57.85714 59.62732
57.0 0.01754 57.85455 59.53633
70.0 0.01429 57.85199 59.45250
70.0 0.01429 57.84943 59.37503
56.0 0.01786 57.84690 59.30331
63.0 0.01587 57.84439 59.23677
62.0 0.01613 57.84190 59.17490
62.0 0.01613 57.83942 59.11731
72.0 0.01389 57.83697 59.06354
52.0 0.01923 57.83453 59.01329
62.0 0.01613 57.83212 58.96624
59.0 0.01695 57.82972 58.92215
69.0 0.01449 57.82734 58.88078
63.0 0.01587 57.82499 58.84187
64.0 0.01563 57.82264 58.80525
55.0 0.01818 57.82032 58.77076
64.0 0.01563 57.81801 58.73824
57.0 0.01754 57.81573 58.70754
46.0 0.02174 57.81347 58.65245
69.0 0.01449 57.81121 58.62540
64.0 0.01563 57.80898 58.59984
61.0 0.01639 57.80677 58.57564
52.0 0.01923 57.80458 58.55273
60.0 0.01667 57.80240 58.53103
51.0 0.01961 57.80025 58.51048
63.0 0.01587 57.79811 58.49100
46.0 0.02174 57.79599 58.47255
70.0 0.01429 57.79388 58.45506
64.0 0.01563 57.79181 58.43848
62.0 0.01613 57.78973 58.42278
88.0 0.01136 57.78769 58.40791
60.0 0.01667 57.78565 58.39383
71.0 0.01408 57.78364 58.38051
75.0 0.01333 57.78164 58.36794
74.0 0.01351 57.77967 58.35606
57.0 0.01754 57.77770 58.34487
64.0 0.01563 57.77576 58.33434
71.0 0.01408 57.77383 58.30838
55.0 0.01818 57.77192 58.29935
63.0 0.01587 57.77003 58.29094
69.0 0.01449 57.76816 58.28312
64.0 0.01563 57.76630 58.27589
66.0 0.01515 57.76446 58.26925
59.0 0.01695 57.76263 58.26320
65.0 0.01538 57.76083 58.25771
62.0 0.01613 57.75903 58.25281
61.0 0.01639 57.75726 58.24850
78.0 0.01282 57.75550 58.24477
56.0 0.01786 57.75377 58.24165
74.0 0.01351 57.75204 58.23913
60.0 0.01667 57.75033 58.23726
68.0 0.01471 57.74864 58.23602
64.0 0.01563 57.74697 58.23545
70.0 0.01429 57.74530 58.23557
76.0 0.01316 57.74366 58.23643
52.0 0.01923 57.74204 58.23804
60.0 0.01667 57.74043 58.24046
48.0 0.02083 57.73884 58.24374
64.0 0.01563 57.73726 58.24792
65.0 0.01538 57.73569 58.25309
76.0 0.01316 57.73415 58.25930
73.0 0.01370 57.73262 58.26667
60.0 0.01667 57.73110 58.27525
62.0 0.01613 57.72961 58.28518
65.0 0.01538 57.72812 58.29662
72.0 0.01389 57.72665 58.30969
68.0 0.01471 57.72520 58.32458
58.0 0.01724 57.72376 58.34151
71.0 0.01408 57.72234 58.36072
68.0 0.01471 57.72094 58.38253
69.0 0.01449 57.71954 58.40729
64.0 0.01563 57.71817 58.43546
74.0 0.01351 57.71681 58.46756
61.0 0.01639 57.71547 58.50433
70.0 0.01429 57.71413 58.54670
59.0 0.01695 57.71281 58.59594
60.0 0.01667 57.71151 58.65377
58.0 0.01724 57.71023 58.72263
52.0 0.01923 57.70895 58.80580
53.0 0.01887 57.70770 58.90775
64.0 0.01563 57.70646 59.03421
54.0 0.01852 57.70523 59.19236
57.0 0.01754 57.70401 59.39049
56.0 0.01786 57.70282 59.63806
72.0 0.01389 57.70163 59.94420
62.0 0.01613 57.70046 60.31688
60.0 0.01667 57.69930 60.76078
59.0 0.01695 57.69816 61.27411
50.0 0.02000 57.69703 61.84314
54.0 0.01852 57.69591 62.43420
58.0 0.01724 57.69481 62.98565
64.0 0.01563 57.69373 63.41221
58.0 0.01724 57.69265 63.63173
66.0 0.01515 57.69159 63.64461
56.0 0.01786 57.69054 63.42997
63.0 0.01587 57.68951 63.11057
63.0 0.01587 57.68850 62.78124
58.0 0.01724 57.68748 62.51397
52.0 0.01923 57.68649 62.35773
52.0 0.01923 57.68552 62.34665
52.0 0.01923 57.68455 62.50876
64.0 0.01563 57.68360 62.87101
71.0 0.01408 57.68266 63.46120
52.0 0.01923 57.68172 64.30710
62.0 0.01613 57.68081 65.43282
61.0 0.01639 57.67991 66.85495
61.0 0.01639 57.67903 68.56905
54.0 0.01852 57.67815 70.53380
69.0 0.01449 57.67729 72.64162
64.0 0.01563 57.67643 74.68284
61.0 0.01639 57.67560 76.33127
66.0 0.01515 57.67477 77.21473
61.0 0.01639 57.67396 77.08105
64.0 0.01563 57.67316 75.97798
62.0 0.01613 57.67237 74.16027
74.0 0.01351 57.67159 72.01854
58.0 0.01724 57.67083 69.85421
61.0 0.01639 57.67008 67.81924
75.0 0.01333 57.66934 66.06389
58.0 0.01724 57.66862 64.58088
73.0 0.01370 57.66790 63.36284
78.0 0.01282 57.66719 62.38338
55.0 0.01818 57.66650 61.60780
66.0 0.01515 57.66582 60.99934
55.0 0.01818 57.66515 60.52344
63.0 0.01587 57.66449 60.14931
62.0 0.01613 57.66385 59.85232
61.0 0.01639 57.66322 59.61309
62.0 0.01613 57.66259 59.41708
57.0 0.01754 57.66198 59.25374
59.0 0.01695 57.66137 59.11553
53.0 0.01887 57.66078 58.99704
54.0 0.01852 57.66021 58.89444
51.0 0.01961 57.65964 58.80476
50.0 0.02000 57.65908 58.72588
71.0 0.01408 57.65854 58.65614
61.0 0.01639 57.65800 58.54139
65.0 0.01538 57.65747 58.48677
73.0 0.01370 57.65696 58.43792
67.0 0.01493 57.65646 58.39411
54.0 0.01852 57.65597 58.35471
69.0 0.01449 57.65548 58.31919
67.0 0.01493 57.65501 58.28710
61.0 0.01639 57.65454 58.25805
67.0 0.01493 57.65410 58.23171
71.0 0.01408 57.65366 58.20781
52.0 0.01923 57.65322 58.18608
62.0 0.01613 57.65281 58.16631
65.0 0.01538 57.65239 58.14830
63.0 0.01587 57.65200 58.13191
66.0 0.01515 57.65160 58.11699
76.0 0.01316 57.65122 58.10343
58.0 0.01724 57.65085 58.09108
63.0 0.01587 57.65049 58.07988
57.0 0.01754 57.65014 58.06974
67.0 0.01493 57.64979 58.07426
51.0 0.01961 57.64946 58.06617
62.0 0.01613 57.64914 58.05894
55.0 0.01818 57.64882 58.05251
70.0 0.01429 57.64851 58.04685
43.0 0.02326 57.64822 58.04191
52.0 0.01923 57.64793 58.03765
62.0 0.01613 57.64765 58.03406
62.0 0.01613 57.64738 58.05962
63.0 0.01587 57.64712 58.05769
62.0 0.01613 57.64687 58.05636
73.0 0.01370 57.64663 58.05563
54.0 0.01852 57.64639 58.05546
62.0 0.01613 57.64616 58.05586
62.0 0.01613 57.64595 58.05684
76.0 0.01316 57.64574 58.05838
56.0 0.01786 57.64554 58.06047
64.0 0.01563 57.64535 58.06314
62.0 0.01613 57.64516 58.06638
57.0 0.01754 57.64499 58.07020
62.0 0.01613 57.64482 58.07461
53.0 0.01887 57.64466 58.07962
64.0 0.01563 57.64451 58.08526
66.0 0.01515 57.64437 58.09156
63.0 0.01587 57.64423 58.09850
55.0 0.01818 57.64411 58.10616
60.0 0.01667 57.64399 58.11455
58.0 0.01724 57.64388 58.12369
68.0 0.01471 57.64378 58.13366
61.0 0.01639 57.64367 58.14446
80.0 0.01250 57.64359 58.15619
64.0 0.01563 57.64351 58.16887
78.0 0.01282 57.64344 58.18258
45.0 0.02222 57.64337 58.19740
72.0 0.01389 57.64330 58.21339
46.0 0.02174 57.64325 58.23068
59.0 0.01695 57.64321 58.24935
54.0 0.01852 57.64317 58.26952
69.0 0.01449 57.64314 58.29131
67.0 0.01493 57.64311 58.31490
59.0 0.01695 57.64309 58.34044
52.0 0.01923 57.64309 58.36813
60.0 0.01667 57.64308 58.39817
61.0 0.01639 57.64309 58.43083
65.0 0.01538 57.64309 58.46638
68.0 0.01471 57.64311 58.50516
52.0 0.01923 57.64313 58.54752
55.0 0.01818 57.64316 58.59393
70.0 0.01429 57.64319 58.64488
43.0 0.02326 57.64323 58.70096
66.0 0.01515 57.64328 58.76287
78.0 0.01282 57.64333 58.83141
68.0 0.01471 57.64339 58.90751
69.0 0.01449 57.64346 58.99240
71.0 0.01408 57.64352 59.08741
60.0 0.01667 57.64361 59.19427
70.0 0.01429 57.64369 59.31505
52.0 0.01923 57.64378 59.45245
58.0 0.01724 57.64387 59.60994
54.0 0.01852 57.64397 59.79226
63.0 0.01587 57.64408 60.00581
60.0 0.01667 57.64418 60.25996
50.0 0.02000 57.64431 60.56757
63.0 0.01587 57.64442 60.94673
73.0 0.01370 57.64455 61.42219
55.0 0.01818 57.64468 62.02644
70.0 0.01429 57.64482 62.79982
63.0 0.01587 57.64496 63.79119
50.0 0.02000 57.64511 65.05293
70.0 0.01429 57.64526 66.63718
75.0 0.01333 57.64542 68.58755
64.0 0.01563 57.64558 70.92706
66.0 0.01515 57.64574 73.63866
61.0 0.01639 57.64591 76.63329
74.0 0.01351 57.64609 79.70063
81.0 0.01235 57.64627 82.47060
83.0 0.01205 57.64645 84.42812
89.0 0.01124 57.64664 85.09452
81.0 0.01235 57.64684 84.29874
78.0 0.01282 57.64703 82.29695
66.0 0.01515 57.64724 79.60296
78.0 0.01282 57.64744 76.71404
63.0 0.01587 57.64766 73.97805
68.0 0.01471 57.64787 71.58636
69.0 0.01449 57.64809 69.62463
63.0 0.01587 57.64831 68.11842
62.0 0.01613 57.64853 67.06247
63.0 0.01587 57.64876 66.43765
68.0 0.01471 57.64900 66.22046
62.0 0.01613 57.64923 66.38719
52.0 0.01923 57.64948 66.91473
74.0 0.01351 57.64972 67.77537
62.0 0.01613 57.64997 68.92667
86.0 0.01163 57.65022 70.29254
63.0 0.01587 57.65047 71.73463
62.0 0.01613 57.65073 73.03040
61.0 0.01639 57.65099 73.88470
75.0 0.01333 57.65125 74.03334
75.0 0.01333 57.65152 73.39034
83.0 0.01205 57.65179 72.10399
60.0 0.01667 57.65206 70.45510
59.0 0.01695 57.65234 68.71082
74.0 0.01351 57.65262 67.05228
66.0 0.01515 57.65290 65.57263
71.0 0.01408 57.65318 64.30912
66.0 0.01515 57.65347 63.26381
58.0 0.01724 57.65376 62.42004
63.0 0.01587 57.65405 61.75186
65.0 0.01538 57.65435 61.23012
72.0 0.01389 57.65464 60.82553
57.0 0.01754 57.65494 60.51267
66.0 0.01515 57.65524 60.27007
58.0 0.01724 57.65554 60.08089
61.0 0.01639 57.65585 59.93249
68.0 0.01471 57.65615 59.81574
54.0 0.01852 57.65646 59.72425
61.0 0.01639 57.65678 59.65351
54.0 0.01852 57.65709 59.60054
65.0 0.01538 57.65741 59.57350
63.0 0.01587 57.65772 59.55082
58.0 0.01724 57.65804 59.54175
65.0 0.01538 57.65836 59.54589
51.0 0.01961 57.65868 59.56326
68.0 0.01471 57.65900 59.57404
67.0 0.01493 57.65933 59.61942
60.0 0.01667 57.65966 59.68015
62.0 0.01613 57.65999 59.75789
69.0 0.01449 57.66031 59.85496
59.0 0.01695 57.66064 59.97467
68.0 0.01471 57.66097 60.12162
68.0 0.01471 57.66131 60.30260
70.0 0.01429 57.66164 60.52704
58.0 0.01724 57.66198 60.80817
57.0 0.01754 57.66231 61.16420
59.0 0.01695 57.66265 61.61920
60.0 0.01667 57.66298 62.20333
55.0 0.01818 57.66332 62.95370
72.0 0.01389 57.66366 63.91108
56.0 0.01786 57.66400 65.11765
55.0 0.01818 57.66434 66.61785
72.0 0.01389 57.66468 68.42516
61.0 0.01639 57.66502 70.54737
74.0 0.01351 57.66536 72.94101
87.0 0.01149 57.66570 75.48353
74.0 0.01351 57.66605 77.93871
78.0 0.01282 57.66639 79.93531
86.0 0.01163 57.66673 81.08441
69.0 0.01449 57.66707 81.03605
87.0 0.01149 57.66742 79.86094
75.0 0.01333 57.66776 77.89309
82.0 0.01220 57.66809 75.56110
67.0 0.01493 57.66844 73.21920
64.0 0.01563 57.66878 71.08953
73.0 0.01370 57.66912 69.28728
72.0 0.01389 57.66946 67.86109
50.0 0.02000 57.66980 66.82381
73.0 0.01370 57.67015 66.17086
57.0 0.01754 57.67049 65.89083
68.0 0.01471 57.67082 65.97030
68.0 0.01471 57.67116 66.39619
53.0 0.01887 57.67150 67.15290
68.0 0.01471 57.67183 68.21603
55.0 0.01818 57.67217 69.53967
51.0 0.01961 57.67250 71.03419
69.0 0.01449 57.67284 72.54091
70.0 0.01429 57.67318 73.81063
67.0 0.01493 57.67351 74.54349
58.0 0.01724 57.67384 74.52816
71.0 0.01408 57.67418 73.69799
61.0 0.01639 57.67450 72.26535
76.0 0.01316 57.67483 70.52040
67.0 0.01493 57.67516 68.71822
59.0 0.01695 57.67548 67.02132
60.0 0.01667 57.67581 65.51411
73.0 0.01370 57.67613 64.22649
76.0 0.01316 57.67645 63.15724
70.0 0.01429 57.67677 62.28824
61.0 0.01639 57.67709 61.59330
70.0 0.01429 57.67741 61.04245
72.0 0.01389 57.67772 60.60754
59.0 0.01695 57.67803 60.26303
76.0 0.01316 57.67834 59.98762
79.0 0.01266 57.67865 59.76437
63.0 0.01587 57.67896 59.58043
52.0 0.01923 57.67927 59.42634
67.0 0.01493 57.67957 59.29531
63.0 0.01587 57.67987 59.18234
66.0 0.01515 57.68017 59.11061
58.0 0.01724 57.68047 59.02453
64.0 0.01563 57.68076 58.94848
52.0 0.01923 57.68106 58.88095
60.0 0.01667 57.68135 58.82075
68.0 0.01471 57.68163 58.76684
67.0 0.01493 57.68192 58.71845
59.0 0.01695 57.68220 58.67490
67.0 0.01493 57.68248 58.63563
63.0 0.01587 57.68275 58.60014
54.0 0.01852 57.68303 58.56803
70.0 0.01429 57.68330 58.53894
65.0 0.01538 57.68357 58.51256
56.0 0.01786 57.68383 58.48863
55.0 0.01818 57.68410 58.46693
67.0 0.01493 57.68436 58.44725
50.0 0.02000 57.68462 58.42940
60.0 0.01667 57.68488 58.41327
58.0 0.01724 57.68512 58.39870
69.0 0.01449 57.68537 58.38559
65.0 0.01538 57.68562 58.37382
74.0 0.01351 57.68586 58.37518
66.0 0.01515 57.68610 58.36599
59.0 0.01695 57.68633 58.35791
65.0 0.01538 57.68656 58.35090
61.0 0.01639 57.68679 58.34489
64.0 0.01563 57.68702 58.33985
64.0 0.01563 57.68724 58.33572
73.0 0.01370 57.68746 58.30019
62.0 0.01613 57.68767 58.29825
54.0 0.01852 57.68788 58.29715
60.0 0.01667 57.68809 58.29686
50.0 0.02000 57.68829 58.29736
55.0 0.01818 57.68849 58.29866
54.0 0.01852 57.68869 58.30072
54.0 0.01852 57.68887 58.30357
62.0 0.01613 57.68906 58.30721
40.0 0.02500 57.68924 58.31163
70.0 0.01429 57.68942 58.31684
67.0 0.01493 57.68960 58.32287
55.0 0.01818 57.68977 58.32972
65.0 0.01538 57.68993 58.33743
57.0 0.01754 57.69009 58.34602
68.0 0.01471 57.69025 58.35551
52.0 0.01923 57.69041 58.36594
56.0 0.01786 57.69055 58.37737
74.0 0.01351 57.69070 58.38981
59.0 0.01695 57.69084 58.40335
58.0 0.01724 57.69097 58.40008
44.0 0.02273 57.69110 58.41624
56.0 0.01786 57.69123 58.43366
51.0 0.01961 57.69135 58.45245
63.0 0.01587 57.69147 58.47269
57.0 0.01754 57.69158 58.49448
58.0 0.01724 57.69168 58.51797
51.0 0.01961 57.69179 58.54327
79.0 0.01266 57.69189 58.57052
74.0 0.01351 57.69198 58.59989
65.0 0.01538 57.69206 58.63157
68.0 0.01471 57.69214 58.66575
62.0 0.01613 57.69222 58.70271
69.0 0.01449 57.69229 58.74267
55.0 0.01818 57.69236 58.78596
71.0 0.01408 57.69242 58.83293
67.0 0.01493 57.69248 58.88396
55.0 0.01818 57.69253 58.93951
70.0 0.01429 57.69257 59.00008
60.0 0.01667 57.69261 59.06625
63.0 0.01587 57.69265 59.13877
58.0 0.01724 57.69267 59.21841
64.0 0.01563 57.69270 59.30611
65.0 0.01538 57.69271 59.40296
58.0 0.01724 57.69273 59.51027
69.0 0.01449 57.69273 59.62951
52.0 0.01923 57.69273 59.76265
52.0 0.01923 57.69273 59.91188
62.0 0.01613 57.69271 60.07995
55.0 0.01818 57.69270 60.27039
59.0 0.01695 57.69267 60.48774
58.0 0.01724 57.69264 60.73801
56.0 0.01786 57.69261 61.02943
58.0 0.01724 57.69257 61.37324
51.0 0.01961 57.69252 61.78566
56.0 0.01786 57.69247 62.28854
69.0 0.01449 57.69241 62.91173
57.0 0.01754 57.69234 63.69447
60.0 0.01667 57.69227 64.68620
67.0 0.01493 57.69219 65.94537
68.0 0.01471 57.69210 67.53944
68.0 0.01471 57.69202 69.53614
69.0 0.01449 57.69191 71.99752
81.0 0.01235 57.69181 74.96718
61.0 0.01639 57.69171 78.45087
71.0 0.01408 57.69159 82.38528
84.0 0.01190 57.69146 86.58793
97.0 0.01031 57.69133 90.69226
110.0 0.00909 57.69119 94.12547
90.0 0.01111 57.69105 96.19798
84.0 0.01190 57.69090 96.40147
103.0 0.00971 57.69074 94.71317
95.0 0.01053 57.69058 91.61328
81.0 0.01235 57.69041 87.79632
102.0 0.00980 57.69023 83.86140
76.0 0.01316 57.69004 80.20581
83.0 0.01205 57.68986 77.04121
81.0 0.01235 57.68966 74.45932
77.0 0.01299 57.68945 72.48454
60.0 0.01667 57.68924 71.10714
74.0 0.01351 57.68902 70.30262
77.0 0.01299 57.68879 70.04270
74.0 0.01351 57.68856 70.30007
74.0 0.01351 57.68832 71.04911
73.0 0.01370 57.68807 72.25972
78.0 0.01282 57.68781 73.88529
63.0 0.01587 57.68755 75.84075
84.0 0.01190 57.68728 77.96758
74.0 0.01351 57.68700 80.00071
91.0 0.01099 57.68671 81.55856
80.0 0.01250 57.68642 82.23761
83.0 0.01205 57.68612 81.79941
86.0 0.01163 57.68581 80.31622
84.0 0.01190 57.68550 78.11954
80.0 0.01250 57.68518 75.60868
75.0 0.01333 57.68485 73.10034
66.0 0.01515 57.68451 70.78297
57.0 0.01754 57.68416 68.74881
67.0 0.01493 57.68381 67.02539
65.0 0.01538 57.68344 65.60391
72.0 0.01389 57.68307 64.45589
75.0 0.01333 57.68270 63.54400
49.0 0.02041 57.68231 62.82706
64.0 0.01563 57.68192 62.26712
67.0 0.01493 57.68152 61.83037
62.0 0.01613 57.68111 61.48882
61.0 0.01639 57.68069 61.22046
61.0 0.01639 57.68026 61.00879
55.0 0.01818 57.67983 60.84184
49.0 0.02041 57.67939 60.71114
53.0 0.01887 57.67894 60.61074
59.0 0.01695 57.67849 60.53671
50.0 0.02000 57.67802 60.48645
63.0 0.01587 57.67754 60.45834
62.0 0.01613 57.67707 60.45160
56.0 0.01786 57.67657 60.46605
66.0 0.01515 57.67607 60.50224
54.0 0.01852 57.67556 60.56137
67.0 0.01493 57.67505 60.61604
60.0 0.01667 57.67452 60.72855
69.0 0.01449 57.67399 60.87373
74.0 0.01351 57.67345 61.05819
72.0 0.01389 57.67289 61.29145
72.0 0.01389 57.67234 61.58683
74.0 0.01351 57.67177 61.96321
66.0 0.01515 57.67120 62.44548
56.0 0.01786 57.67061 63.06597
69.0 0.01449 57.67002 63.86444
62.0 0.01613 57.66942 64.88715
69.0 0.01449 57.66881 66.18349
63.0 0.01587 57.66819 67.80403
75.0 0.01333 57.66756 69.78970
65.0 0.01538 57.66693 72.16341
86.0 0.01163 57.66628 74.91267
85.0 0.01176 57.66562 77.96150
80.0 0.01250 57.66496 81.12881
78.0 0.01282 57.66429 84.08466
91.0 0.01099 57.66361 86.35299
91.0 0.01099 57.66292 87.44028
101.0 0.00990 57.66222 87.06858
86.0 0.01163 57.66151 85.35445
74.0 0.01351 57.66079 82.73282
85.0 0.01176 57.66006 79.71612
75.0 0.01333 57.65933 76.71014
77.0 0.01299 57.65858 73.96030
67.0 0.01493 57.65783 71.59303
72.0 0.01389 57.65707 69.65579
63.0 0.01587 57.65630 68.15320
72.0 0.01389 57.65551 67.06809
54.0 0.01852 57.65472 66.37413
54.0 0.01852 57.65392 66.04294
75.0 0.01333 57.65311 66.04769
46.0 0.02174 57.65230 66.36351
58.0 0.01724 57.65147 66.96433
63.0 0.01587 57.65063 67.81551
67.0 0.01493 57.64978 68.86071
74.0 0.01351 57.64893 70.00182
74.0 0.01351 57.64806 71.08090
79.0 0.01266 57.64719 71.87816
77.0 0.01299 57.64630 72.16951
76.0 0.01316 57.64541 71.83131
71.0 0.01408 57.64450 70.91442
91.0 0.01099 57.64359 69.60863
72.0 0.01389 57.64266 68.13614
69.0 0.01449 57.64173 66.67133
53.0 0.01887 57.64079 65.31742
69.0 0.01449 57.63984 64.12487
65.0 0.01538 57.63888 63.10850
62.0 0.01613 57.63791 62.26307
65.0 0.01538 57.63692 61.57249
58.0 0.01724 57.63594 61.01580
68.0 0.01471 57.63494 60.56969
48.0 0.02083 57.63392 60.21274
80.0 0.01250 57.63290 59.92564
72.0 0.01389 57.63187 59.69229
52.0 0.01923 57.63084 59.49989
54.0 0.01852 57.62979 59.33868
72.0 0.01389 57.62873 59.21467
60.0 0.01667 57.62766 59.09632
60.0 0.01667 57.62658 58.99278
76.0 0.01316 57.62549 58.90129
54.0 0.01852 57.62439 58.81980
51.0 0.01961 57.62328 58.74670
57.0 0.01754 57.62215 58.68077
64.0 0.01563 57.62103 58.62106
54.0 0.01852 57.61989 58.56670
56.0 0.01786 57.61874 58.51702
59.0 0.01695 57.61758 58.47149
62.0 0.01613 57.61641 58.42961
53.0 0.01887 57.61523 58.39098
56.0 0.01786 57.61404 58.35522
68.0 0.01471 57.61284 58.32206
66.0 0.01515 57.61163 58.29123
53.0 0.01887 57.61041 58.26247
60.0 0.01667 57.60918 58.23559
54.0 0.01852 57.60794 58.21043
57.0 0.01754 57.60669 58.18682
67.0 0.01493 57.60543 58.16462
55.0 0.01818 57.60416 58.15440
52.0 0.01923 57.60287 58.13480
62.0 0.01613 57.60158 58.11629
58.0 0.01724 57.60028 58.09877
50.0 0.02000 57.59896 58.08217
56.0 0.01786 57.59764 58.06643
62.0 0.01613 57.59631 58.05146
67.0 0.01493 57.59497 58.03721
59.0 0.01695 57.59361 58.02365
58.0 0.01724 57.59225 58.01072
64.0 0.01563 57.59087 57.99836
51.0 0.01961 57.58948 57.98656
49.0 0.02041 57.58809 57.97527
60.0 0.01667 57.58668 57.96442
51.0 0.01961 57.58527 57.95406
57.0 0.01754 57.58384 57.94410
58.0 0.01724 57.58241 57.93453
56.0 0.01786 57.58096 57.92533
58.0 0.01724 57.57950 57.91649
47.0 0.02128 57.57803 57.90796
57.0 0.01754 57.57655 57.89975
59.0 0.01695 57.57506 57.89182
63.0 0.01587 57.57356 57.88419
60.0 0.01667 57.57204 57.87681
67.0 0.01493 57.57053 57.86967
57.0 0.01754 57.56899 57.86278
52.0 0.01923 57.56745 57.85611
50.0 0.02000 57.56590 57.84966
74.0 0.01351 57.56433 57.84341
61.0 0.01639 57.56276 57.83734
60.0 0.01667 57.56117 57.83148
56.0 0.01786 57.55957 57.82578
62.0 0.01613 57.55796 57.82026
40.0 0.02500 57.55635 57.81490
68.0 0.01471 57.55472 57.80970
55.0 0.01818 57.55309 57.80465
48.0 0.02083 57.55143 57.79973
48.0 0.02083 57.54977 57.79497
58.0 0.01724 57.54810 57.78016
44.0 0.02273 57.54642 57.77577
56.0 0.01786 57.54473 57.77152
66.0 0.01515 57.54302 57.76738
60.0 0.01667 57.54131 57.76336
70.0 0.01429 57.53958 57.75945
61.0 0.01639 57.53785 57.75565
60.0 0.01667 57.53610 57.75196
58.0 0.01724 57.53434 57.79946
57.0 0.01754 57.53258 57.79661
64.0 0.01563 57.53080 57.79386
66.0 0.01515 57.52901 57.79122
50.0 0.02000 57.52721 57.78868
53.0 0.01887 57.52540 57.78627
68.0 0.01471 57.52358 57.78395
56.0 0.01786 57.52174 57.78174
61.0 0.01639 57.51990 57.77963
78.0 0.01282 57.51804 57.77764
60.0 0.01667 57.51618 57.77575
55.0 0.01818 57.51431 57.77397
54.0 0.01852 57.51242 57.73319
55.0 0.01818 57.51052 57.73207
50.0 0.02000 57.50861 57.73103
71.0 0.01408 57.50669 57.73010
44.0 0.02273 57.50476 57.72928
65.0 0.01538 57.50282 57.72856
55.0 0.01818 57.50087 57.72794
55.0 0.01818 57.49891 57.72746
75.0 0.01333 57.49693 57.72706
50.0 0.02000 57.49495 57.72677
52.0 0.01923 57.49295 57.75352
49.0 0.02041 57.49094 57.75380
57.0 0.01754 57.48893 57.75422
52.0 0.01923 57.48690 57.75475
64.0 0.01563 57.48486 57.75545
46.0 0.02174 57.48281 57.75628
63.0 0.01587 57.48075 57.75725
55.0 0.01818 57.47868 57.75838
66.0 0.01515 57.47660 57.75967
56.0 0.01786 57.47450 57.76113
56.0 0.01786 57.47240 57.76275
67.0 0.01493 57.47028 57.76456
53.0 0.01887 57.46816 57.76656
68.0 0.01471 57.46602 57.76876
68.0 0.01471 57.46387 57.77116
64.0 0.01563 57.46172 57.77377
55.0 0.01818 57.45955 57.77661
51.0 0.01961 57.45736 57.77970
61.0 0.01639 57.45517 57.78304
53.0 0.01887 57.45297 57.78664
66.0 0.01515 57.45075 57.79053
57.0 0.01754 57.44853 57.79472
63.0 0.01587 57.44630 57.79922
58.0 0.01724 57.44405 57.80406
55.0 0.01818 57.44179 57.80926
56.0 0.01786 57.43953 57.81484
49.0 0.02041 57.43724 57.82082
51.0 0.01961 57.43496 57.82724
48.0 0.02083 57.43266 57.83411
70.0 0.01429 57.43035 57.84149
46.0 0.02174 57.42802 57.84940
52.0 0.01923 57.42569 57.85788
63.0 0.01587 57.42334 57.86698
53.0 0.01887 57.42099 57.87675
64.0 0.01563 57.41862 57.88724
70.0 0.01429 57.41624 57.89850
71.0 0.01408 57.41386 57.91063
74.0 0.01351 57.41146 57.92366
53.0 0.01887 57.40906 57.91092
63.0 0.01587 57.40664 57.92639
50.0 0.02000 57.40421 57.94305
50.0 0.02000 57.40176 57.96104
60.0 0.01667 57.39931 57.98047
50.0 0.02000 57.39685 58.00150
52.0 0.01923 57.39438 58.02433
63.0 0.01587 57.39189 58.04912
49.0 0.02041 57.38940 58.07613
69.0 0.01449 57.38689 58.10561
64.0 0.01563 57.38437 58.13785
53.0 0.01887 57.38184 58.17323
56.0 0.01786 57.37930 58.21215
61.0 0.01639 57.37675 58.25507
60.0 0.01667 57.37420 58.30261
57.0 0.01754 57.37162 58.35543
61.0 0.01639 57.36905 58.41440
59.0 0.01695 57.36645 58.48052
51.0 0.01961 57.36385 58.55513
65.0 0.01538 57.36123 58.63988
53.0 0.01887 57.35861 58.73713
67.0 0.01493 57.35597 58.83799
65.0 0.01538 57.35332 58.97063
66.0 0.01515 57.35067 59.12878
56.0 0.01786 57.34800 59.32026
48.0 0.02083 57.34533 59.55538
65.0 0.01538 57.34263 59.84745
71.0 0.01408 57.33993 60.21262
53.0 0.01887 57.33722 60.67040
75.0 0.01333 57.33450 61.24169
59.0 0.01695 57.33177 61.94789
69.0 0.01449 57.32903 62.80822
57.0 0.01754 57.32628 63.83605
66.0 0.01515 57.32352 65.03242
59.0 0.01695 57.32074 66.37920
65.0 0.01538 57.31796 67.82065
89.0 0.01124 57.31516 69.24686
64.0 0.01563 57.31236 70.48243
70.0 0.01429 57.30954 71.30991
71.0 0.01408 57.30672 71.54867
82.0 0.01220 57.30388 71.15229
82.0 0.01220 57.30103 70.23882
67.0 0.01493 57.29817 69.01956
70.0 0.01429 57.29530 67.70351
71.0 0.01408 57.29243 66.44164
72.0 0.01389 57.28954 65.32304
59.0 0.01695 57.28664 64.39213
63.0 0.01587 57.28373 63.66709
71.0 0.01408 57.28081 63.15113
66.0 0.01515 57.27787 62.84222
67.0 0.01493 57.27493 62.73601
52.0 0.01923 57.27198 62.82846
57.0 0.01754 57.26902 63.11645
55.0 0.01818 57.26605 63.59686
46.0 0.02174 57.26306 64.26379
52.0 0.01923 57.26007 65.10297
73.0 0.01370 57.25707 66.08463
68.0 0.01471 57.25406 67.14751
82.0 0.01220 57.25103 68.18486
77.0 0.01299 57.24799 69.03884
79.0 0.01266 57.24495 69.52924
72.0 0.01389 57.24190 69.52544
63.0 0.01587 57.23883 69.01883
73.0 0.01370 57.23576 68.12722
81.0 0.01235 57.23267 67.02646
68.0 0.01471 57.22957 65.87504
46.0 0.02174 57.22647 64.78016
64.0 0.01563 57.22335 63.80019
65.0 0.01538 57.22023 62.95934
62.0 0.01613 57.21709 62.26154
71.0 0.01408 57.21395 61.69814
58.0 0.01724 57.21079 61.25549
90.0 0.01111 57.20762 60.91693
72.0 0.01389 57.20444 60.66558
65.0 0.01538 57.20126 60.48585
57.0 0.01754 57.19806 60.37997
63.0 0.01587 57.19485 60.30592
70.0 0.01429 57.19164 60.27100
60.0 0.01667 57.18841 60.26934
51.0 0.01961 57.18518 60.29709
58.0 0.01724 57.18193 60.35200
50.0 0.02000 57.17867 60.43324
60.0 0.01667 57.17540 60.54098
68.0 0.01471 57.17213 60.67640
46.0 0.02174 57.16885 60.84181
59.0 0.01695 57.16555 61.04050
55.0 0.01818 57.16224 61.27710
69.0 0.01449 57.15893 61.55810
57.0 0.01754 57.15561 61.89250
64.0 0.01563 57.15228 62.29261
68.0 0.01471 57.14893 62.77617
76.0 0.01316 57.14557 63.36693
81.0 0.01235 57.14221 64.09718
61.0 0.01639 57.13884 65.00939
70.0 0.01429 57.13545 66.15734
50.0 0.02000 57.13206 67.60630
76.0 0.01316 57.12865 69.43125
68.0 0.01471 57.12524 71.71155
85.0 0.01176 57.12183 74.53496
80.0 0.01250 57.11839 77.95535
101.0 0.00990 57.11495 82.01847
91.0 0.01099 57.11150 86.71112
90.0 0.01111 57.10804 91.92664
98.0 0.01020 57.10457 97.40092
112.0 0.00893 57.10109 102.65400
102.0 0.00980 57.09761 106.95686
122.0 0.00820 57.09411 109.48478
119.0 0.00840 57.09061 109.65356
103.0 0.00971 57.08709 107.45055
99.0 0.01010 57.08356 103.44455
97.0 0.01031 57.08003 98.46679
92.0 0.01087 57.07649 93.25612
84.0 0.01190 57.07293 88.32249
92.0 0.01087 57.06937 83.95002
85.0 0.01176 57.06580 80.26871
77.0 0.01299 57.06222 77.31788
73.0 0.01370 57.05863 75.08920
77.0 0.01299 57.05503 73.54841
78.0 0.01282 57.05142 72.65709
62.0 0.01613 57.04781 72.37670
59.0 0.01695 57.04418 72.67330
86.0 0.01163 57.04055 73.51643
69.0 0.01449 57.03690 74.87260
75.0 0.01333 57.03325 76.69255
77.0 0.01299 57.02959 78.88797
91.0 0.01099 57.02592 81.30262
86.0 0.01163 57.02223 83.66768
69.0 0.01449 57.01855 85.59378
103.0 0.00971 57.01485 86.63917
88.0 0.01136 57.01114 86.48244
102.0 0.00980 57.00743 85.09821
82.0 0.01220 57.00370 82.76626
86.0 0.01163 56.99997 79.91224
83.0 0.01205 56.99623 76.92290
78.0 0.01282 56.99248 74.06226
73.0 0.01370 56.98872 71.47504
66.0 0.01515 56.98495 69.22195
62.0 0.01613 56.98117 67.31261
72.0 0.01389 56.97739 65.72820
67.0 0.01493 56.97360 64.43236
68.0 0.01471 56.96980 63.38420
68.0 0.01471 56.96599 62.54088
72.0 0.01389 56.96217 61.88527
57.0 0.01754 56.95834 61.33646
61.0 0.01639 56.95451 60.88820
53.0 0.01887 56.95066 60.51675
64.0 0.01563 56.94681 60.20454
66.0 0.01515 56.94295 59.93821
62.0 0.01613 56.93908 59.70794
41.0 0.02439 56.93521 59.50653
77.0 0.01299 56.93132 59.32865
57.0 0.01754 56.92743 59.17031
73.0 0.01370 56.92352 59.02853
62.0 0.01613 56.91961 58.90079
64.0 0.01563 56.91569 58.78521
61.0 0.01639 56.91177 58.68024
60.0 0.01667 56.90783 58.58455
54.0 0.01852 56.90389 58.49704
78.0 0.01282 56.89994 58.41682
48.0 0.02083 56.89598 58.34298
52.0 0.01923 56.89201 58.27491
66.0 0.01515 56.88804 58.21197
50.0 0.02000 56.88406 58.15368
47.0 0.02128 56.88007 58.09956
67.0 0.01493 56.87607 58.04922
56.0 0.01786 56.87206 58.01979
64.0 0.01563 56.86805 57.97626
56.0 0.01786 56.86403 57.93557
57.0 0.01754 56.86000 57.89751
57.0 0.01754 56.85597 57.86188
61.0 0.01639 56.85192 57.82846
49.0 0.02041 56.84786 57.79710
40.0 0.02500 56.84381 57.76768
55.0 0.01818 56.83974 57.74003
59.0 0.01695 56.83567 57.71404
64.0 0.01563 56.83158 57.68959
45.0 0.02222 56.82750 57.66661
68.0 0.01471 56.82340 57.64500
53.0 0.01887 56.81929 57.62470
61.0 0.01639 56.81518 57.60563
57.0 0.01754 56.81106 57.58773
56.0 0.01786 56.80694 57.57096
71.0 0.01408 56.80280 57.55525
48.0 0.02083 56.79866 57.54059
54.0 0.01852 56.79451 57.52692
38.0 0.02632 56.79036 57.51421
56.0 0.01786 56.78620 57.50248
49.0 0.02041 56.78203 57.49165
64.0 0.01563 56.77785 57.48174
70.0 0.01429 56.77367 57.47272
56.0 0.01786 56.76947 57.46461
51.0 0.01961 56.76528 57.45739
58.0 0.01724 56.76108 57.45108
61.0 0.01639 56.75686 57.44567
67.0 0.01493 56.75265 57.44119
52.0 0.01923 56.74842 57.43766
66.0 0.01515 56.74419 57.43509
69.0 0.01449 56.73995 57.43352
50.0 0.02000 56.73571 57.43299
64.0 0.01563 56.73145 57.43355
57.0 0.01754 56.72720 57.43524
65.0 0.01538 56.72293 57.43812
49.0 0.02041 56.71866 57.44230
58.0 0.01724 56.71438 57.44783
49.0 0.02041 56.71009 57.45480
71.0 0.01408 56.70580 57.45022
57.0 0.01754 56.70151 57.46064
58.0 0.01724 56.69720 57.47289
54.0 0.01852 56.69289 57.48715
64.0 0.01563 56.68858 57.54583
51.0 0.01961 56.68425 57.56526
52.0 0.01923 56.67992 57.58742
60.0 0.01667 56.67559 57.61260
59.0 0.01695 56.67125 57.64117
53.0 0.01887 56.66690 57.67355
62.0 0.01613 56.66255 57.71025
41.0 0.02439 56.65819 57.75185
58.0 0.01724 56.65382 57.79906
62.0 0.01613 56.64944 57.85274
60.0 0.01667 56.64507 57.91394
60.0 0.01667 56.64068 57.98399
52.0 0.01923 56.63629 58.06457
49.0 0.02041 56.63190 58.15789
57.0 0.01754 56.62750 58.26705
48.0 0.02083 56.62309 58.39615
75.0 0.01333 56.61868 58.55090
62.0 0.01613 56.61425 58.73909
75.0 0.01333 56.60983 58.96061
77.0 0.01299 56.60540 59.25068
56.0 0.01786 56.60096 59.61623
65.0 0.01538 56.59652 60.07832
64.0 0.01563 56.59208 60.66114
63.0 0.01587 56.58762 61.41581
69.0 0.01449 56.58317 62.31695
65.0 0.01538 56.57870 63.41023
74.0 0.01351 56.57423 64.70597
74.0 0.01351 56.56976 66.19859
54.0 0.01852 56.56529 67.84930
82.0 0.01220 56.56080 69.56876
81.0 0.01235 56.55631 71.19521
73.0 0.01370 56.55182 72.49265
80.0 0.01250 56.54731 73.20293
66.0 0.01515 56.54281 73.15855
64.0 0.01563 56.53831 72.37806
79.0 0.01266 56.53379 71.05631
72.0 0.01389 56.52927 69.45573
75.0 0.01333 56.52474 67.80238
63.0 0.01587 56.52021 66.24590
62.0 0.01613 56.51567 64.86746
52.0 0.01923 56.51114 63.70251
72.0 0.01389 56.50659 62.75761
60.0 0.01667 56.50204 62.02633
60.0 0.01667 56.49749 61.49457
62.0 0.01613 56.49293 61.14596
45.0 0.02222 56.48837 60.96480
62.0 0.01613 56.48381 60.93758
68.0 0.01471 56.47923 61.05304
50.0 0.02000 56.47466 61.30121
61.0 0.01639 56.47007 61.67065
51.0 0.01961 56.46548 62.14413
68.0 0.01471 56.46090 62.69164
77.0 0.01299 56.45630 63.26129
85.0 0.01176 56.45170 63.77223
65.0 0.01538 56.44710 64.12094
62.0 0.01613 56.44249 64.21313
66.0 0.01515 56.43788 64.00900
73.0 0.01370 56.43327 63.54710
52.0 0.01923 56.42865 62.91988
63.0 0.01587 56.42403 62.22699
49.0 0.02041 56.41940 61.54456
67.0 0.01493 56.41477 60.91744
68.0 0.01471 56.41013 60.36791
51.0 0.01961 56.40549 59.90282
62.0 0.01613 56.40085 59.46908
62.0 0.01613 56.39621 59.16267
68.0 0.01471 56.39155 58.92260
60.0 0.01667 56.38690 58.73886
64.0 0.01563 56.38224 58.60184
63.0 0.01587 56.37758 58.50279
54.0 0.01852 56.37291 58.43463
57.0 0.01754 56.36825 58.39174
55.0 0.01818 56.36357 58.36995
63.0 0.01587 56.35890 58.36641
51.0 0.01961 56.35422 58.37930
67.0 0.01493 56.34954 58.40774
64.0 0.01563 56.34486 58.45154
64.0 0.01563 56.34017 58.51117
70.0 0.01429 56.33547 58.58774
69.0 0.01449 56.33078 58.68310
53.0 0.01887 56.32608 58.79996
59.0 0.01695 56.32137 58.94223
58.0 0.01724 56.31667 59.11535
62.0 0.01613 56.31196 59.32716
68.0 0.01471 56.30725 59.58814
59.0 0.01695 56.30254 59.91234
58.0 0.01724 56.29782 60.29113
52.0 0.01923 56.29310 60.80158
59.0 0.01695 56.28839 61.44341
59.0 0.01695 56.28366 62.24820
77.0 0.01299 56.27893 63.24848
66.0 0.01515 56.27420 64.47597
58.0 0.01724 56.26947 65.95702
63.0 0.01587 56.26473 67.70599
77.0 0.01299 56.25999 69.71516
75.0 0.01333 56.25525 71.93814
74.0 0.01351 56.25051 74.26421
70.0 0.01429 56.24577 76.49611
66.0 0.01515 56.24102 78.33726
100.0 0.01000 56.23626 79.45268
98.0 0.01020 56.23151 79.59977
83.0 0.01205 56.22676 78.76032
76.0 0.01316 56.22200 77.15337
72.0 0.01389 56.21724 75.11147
75.0 0.01333 56.21248 72.94662
66.0 0.01515 56.20772 70.87905
77.0 0.01299 56.20295 69.03731
73.0 0.01370 56.19818 67.48458
67.0 0.01493 56.19342 66.24480
49.0 0.02041 56.18864 65.32086
74.0 0.01351 56.18387 64.70604
53.0 0.01887 56.17909 64.38975
64.0 0.01563 56.17432 64.36321
63.0 0.01587 56.16954 64.61971
62.0 0.01613 56.16476 65.15466
70.0 0.01429 56.15998 65.96299
69.0 0.01449 56.15519 67.03363
71.0 0.01408 56.15041 68.34313
80.0 0.01250 56.14563 69.83856
79.0 0.01266 56.14084 71.41959
75.0 0.01333 56.13604 72.91809
75.0 0.01333 56.13126 74.09850
67.0 0.01493 56.12646 74.70869
76.0 0.01316 56.12167 74.58374
67.0 0.01493 56.11688 73.73647
82.0 0.01220 56.11208 72.34675
69.0 0.01449 56.10728 70.66584
71.0 0.01408 56.10249 68.91587
66.0 0.01515 56.09768 67.24751
67.0 0.01493 56.09288 65.74380
64.0 0.01563 56.08809 64.44083
62.0 0.01613 56.08328 63.34364
66.0 0.01515 56.07849 62.44258
53.0 0.01887 56.07368 61.71829
53.0 0.01887 56.06887 61.21748
58.0 0.01724 56.06407 60.77661
66.0 0.01515 56.05926 60.44217
60.0 0.01667 56.05445 60.19417
75.0 0.01333 56.04966 60.01619
70.0 0.01429 56.04485 59.89511
62.0 0.01613 56.04004 59.82147
69.0 0.01449 56.03522 59.78857
80.0 0.01250 56.03041 59.79218
71.0 0.01408 56.02561 59.83006
70.0 0.01429 56.02080 59.90162
58.0 0.01724 56.01599 60.00795
68.0 0.01471 56.01118 60.15165
49.0 0.02041 56.00637 60.33717
68.0 0.01471 56.00156 60.57132
58.0 0.01724 55.99675 60.86387
53.0 0.01887 55.99194 61.22860
69.0 0.01449 55.98712 61.68433
41.0 0.02439 55.98232 62.25577
79.0 0.01266 55.97750 62.97566
58.0 0.01724 55.97269 63.88360
69.0 0.01449 55.96788 65.02666
81.0 0.01235 55.96308 66.45757
80.0 0.01250 55.95827 68.26669
67.0 0.01493 55.95346 70.43638
57.0 0.01754 55.94865 73.04414
67.0 0.01493 55.94384 76.11112
67.0 0.01493 55.93903 79.61939
82.0 0.01220 55.93423 83.48313
100.0 0.01000 55.92942 87.50712
94.0 0.01064 55.92461 91.34267
98.0 0.01020 55.91981 94.48100
106.0 0.00943 55.91500 96.35801
105.0 0.00952 55.91019 96.56557
103.0 0.00971 55.90539 95.07459
103.0 0.00971 55.90059 92.25174
87.0 0.01149 55.89578 88.66142
85.0 0.01176 55.89099 84.83643
74.0 0.01351 55.88618 81.15264
78.0 0.01282 55.88139 77.83584
78.0 0.01282 55.87659 74.99641
79.0 0.01266 55.87179 72.67517
72.0 0.01389 55.86700 70.87447
50.0 0.02000 55.86221 69.57761
78.0 0.01282 55.85741 68.76073
69.0 0.01449 55.85262 68.39993
50.0 0.02000 55.84783 68.47423
57.0 0.01754 55.84304 68.96729
74.0 0.01351 55.83825 69.86401
65.0 0.01538 55.83346 71.14497
70.0 0.01429 55.82867 72.77612
79.0 0.01266 55.82389 74.69053
75.0 0.01333 55.81911 76.76737
82.0 0.01220 55.81433 78.79832
94.0 0.01064 55.80955 80.48238
88.0 0.01136 55.80478 81.47373
94.0 0.01064 55.80000 81.50539
87.0 0.01149 55.79523 80.52383
78.0 0.01282 55.79046 78.71781
79.0 0.01266 55.78569 76.41344
80.0 0.01250 55.78092 73.92800
82.0 0.01220 55.77615 71.49656
67.0 0.01493 55.77139 69.25745
62.0 0.01613 55.76663 67.27642
66.0 0.01515 55.76187 65.57278
60.0 0.01667 55.75711 64.12367
58.0 0.01724 55.75236 62.96317
51.0 0.01961 55.74760 61.99182
63.0 0.01587 55.74286 61.20321
66.0 0.01515 55.73811 60.56482
61.0 0.01639 55.73337 60.04706
65.0 0.01538 55.72862 59.62446
67.0 0.01493 55.72388 59.27602
61.0 0.01639 55.71915 58.98526
55.0 0.01818 55.71441 58.73911
62.0 0.01613 55.70967 58.52810
55.0 0.01818 55.70495 58.34510
66.0 0.01515 55.70021 58.18478
56.0 0.01786 55.69549 58.04318
61.0 0.01639 55.69077 57.91736
51.0 0.01961 55.68605 57.80486
63.0 0.01587 55.68134 57.70389
54.0 0.01852 55.67662 57.61297
51.0 0.01961 55.67192 57.53087
62.0 0.01613 55.66721 57.45657
61.0 0.01639 55.66251 57.38920
61.0 0.01639 55.65781 57.32803
52.0 0.01923 55.65311 57.26620
48.0 0.02083 55.64842 57.21571
67.0 0.01493 55.64373 57.16978
58.0 0.01724 55.63904 57.15123
57.0 0.01754 55.63435 57.11355
57.0 0.01754 55.62967 57.07939
66.0 0.01515 55.62500 57.04848
63.0 0.01587 55.62033 57.02059
61.0 0.01639 55.61565 56.99552
69.0 0.01449 55.61099 56.97309
74.0 0.01351 55.60633 56.95319
75.0 0.01333 55.60167 56.93564
65.0 0.01538 55.59701 56.92036
63.0 0.01587 55.59236 56.90725
58.0 0.01724 55.58772 56.89625
52.0 0.01923 55.58307 56.88727
56.0 0.01786 55.57843 56.88026
47.0 0.02128 55.57380 56.87521
42.0 0.02381 55.56916 56.87207
59.0 0.01695 55.56454 56.87083
62.0 0.01613 55.55992 56.87150
54.0 0.01852 55.55529 56.87407
75.0 0.01333 55.55068 56.87855
57.0 0.01754 55.54607 56.88496
60.0 0.01667 55.54146 56.89338
52.0 0.01923 55.53685 56.90382
50.0 0.02000 55.53226 56.91636
48.0 0.02083 55.52767 56.93106
56.0 0.01786 55.52308 56.94800
56.0 0.01786 55.51850 56.96729
55.0 0.01818 55.51392 56.98904
53.0 0.01887 55.50934 57.01338
57.0 0.01754 55.50477 57.04045
54.0 0.01852 55.50021 57.07042
40.0 0.02500 55.49564 57.10347
65.0 0.01538 55.49109 57.13982
56.0 0.01786 55.48654 57.17971
60.0 0.01667 55.48199 57.22340
56.0 0.01786 55.47744 57.27120
51.0 0.01961 55.47291 57.32343
57.0 0.01754 55.46838 57.38051
62.0 0.01613 55.46385 57.44282
52.0 0.01923 55.45933 57.51086
69.0 0.01449 55.45482 57.58525
52.0 0.01923 55.45031 57.66657
50.0 0.02000 55.44580 57.73252
67.0 0.01493 55.44130 57.93040
71.0 0.01408 55.43680 58.03876
59.0 0.01695 55.43231 58.15759
64.0 0.01563 55.42783 58.28828
67.0 0.01493 55.42335 58.43219
58.0 0.01724 55.41887 58.59104
63.0 0.01587 55.41440 58.76680
52.0 0.01923 55.40994 58.96183
52.0 0.01923 55.40549 59.17889
55.0 0.01818 55.40103 59.42133
60.0 0.01667 55.39659 59.69315
61.0 0.01639 55.39215 59.99969
70.0 0.01429 55.38771 60.34739
58.0 0.01724 55.38329 60.74475
64.0 0.01563 55.37886 61.20312
57.0 0.01754 55.37445 61.73755
73.0 0.01370 55.37004 62.36934
66.0 0.01515 55.36563 63.12636
59.0 0.01695 55.36123 64.04599
59.0 0.01695 55.35684 65.17691
68.0 0.01471 55.35245 66.58025
62.0 0.01613 55.34807 68.32996
89.0 0.01124 55.34370 70.49365
85.0 0.01176 55.33933 73.19711
88.0 0.01136 55.33497 76.56718
70.0 0.01429 55.33061 80.58640
69.0 0.01449 55.32627 85.36024
89.0 0.01124 55.32193 90.89629
100.0 0.01000 55.31759 97.11576
96.0 0.01042 55.31326 103.79200
129.0 0.00775 55.30894 110.48831
120.0 0.00833 55.30462 116.48331
141.0 0.00709 55.30032 120.84509
136.0 0.00735 55.29601 122.69990
127.0 0.00787 55.29171 121.63988
128.0 0.00781 55.28743 117.95687
128.0 0.00781 55.28314 112.47533
114.0 0.00877 55.27887 106.15301
102.0 0.00980 55.27460 99.75841
77.0 0.01299 55.27034 93.79586
86.0 0.01163 55.26609 88.53589
76.0 0.01316 55.26184 84.09543
68.0 0.01471 55.25760 80.50118
80.0 0.01250 55.25336 77.73237
70.0 0.01429 55.24914 75.74170
71.0 0.01408 55.24492 74.47979
85.0 0.01176 55.24071 73.89933
70.0 0.01429 55.23650 73.96167
87.0 0.01149 55.23230 74.63712
75.0 0.01333 55.22811 75.90092
70.0 0.01429 55.22393 77.72440
71.0 0.01408 55.21976 80.05843
83.0 0.01205 55.21559 82.81413
96.0 0.01042 55.21143 85.82040
82.0 0.01220 55.20728 88.78778
94.0 0.01064 55.20313 91.29068
102.0 0.00980 55.19899 92.82942
105.0 0.00952 55.19487 93.00244
106.0 0.00943 55.19075 91.70509
95.0 0.01053 55.18663 89.18672
76.0 0.01316 55.18252 85.90973
78.0 0.01282 55.17842 82.34230
89.0 0.01124 55.17434 78.83385
72.0 0.01389 55.17025 75.59482
70.0 0.01429 55.16618 72.72778
59.0 0.01695 55.16211 70.26680
81.0 0.01235 55.15805 68.19041
74.0 0.01351 55.15400 66.49091
63.0 0.01587 55.14996 65.11317
65.0 0.01538 55.14592 64.00944
54.0 0.01852 55.14190 63.13261
58.0 0.01724 55.13788 62.44003
62.0 0.01613 55.13387 61.89400
54.0 0.01852 55.12988 61.46468
73.0 0.01370 55.12588 61.12835
66.0 0.01515 55.12189 60.86724
68.0 0.01471 55.11791 60.66852
70.0 0.01429 55.11395 60.52334
61.0 0.01639 55.10999 60.42612
70.0 0.01429 55.10604 60.37388
42.0 0.02381 55.10209 60.36597
89.0 0.01124 55.09816 60.40409
56.0 0.01786 55.09424 60.49248
67.0 0.01493 55.09032 60.63839
65.0 0.01538 55.08642 60.85270
46.0 0.02174 55.08252 61.15049
58.0 0.01724 55.07863 61.55243
81.0 0.01235 55.07475 62.08400
77.0 0.01299 55.07087 62.77601
58.0 0.01724 55.06701 63.63784
80.0 0.01250 55.06316 64.75748
54.0 0.01852 55.05931 66.16089
51.0 0.01961 55.05548 67.84403
65.0 0.01538 55.05165 69.83707
79.0 0.01266 55.04784 72.13152
61.0 0.01639 55.04403 74.67261
78.0 0.01282 55.04023 77.33602
100.0 0.01000 55.03643 79.89739
82.0 0.01220 55.03265 82.02549
102.0 0.00980 55.02888 83.34125
86.0 0.01163 55.02512 83.56339
84.0 0.01190 55.02137 82.65353
89.0 0.01124 55.01762 80.84240
75.0 0.01333 55.01389 78.50264
75.0 0.01333 55.01017 75.99182
65.0 0.01538 55.00645 73.56931
72.0 0.01389 55.00274 71.39006
65.0 0.01538 54.99905 69.53320
68.0 0.01471 54.99537 68.02789
62.0 0.01613 54.99169 66.88007
76.0 0.01316 54.98802 66.08227
63.0 0.01587 54.98437 65.62297
68.0 0.01471 54.98072 65.49213
67.0 0.01493 54.97708 65.68362
66.0 0.01515 54.97345 66.19651
69.0 0.01449 54.96984 67.03288
63.0 0.01587 54.96623 68.19400
78.0 0.01282 54.96263 69.67393
72.0 0.01389 54.95904 71.44886
67.0 0.01493 54.95546 73.46053
66.0 0.01515 54.95189 75.59244
73.0 0.01370 54.94834 77.64355
74.0 0.01351 54.94479 79.32755
75.0 0.01333 54.94125 80.31975
84.0 0.01190 54.93773 80.38410
83.0 0.01205 54.93421 79.49554
74.0 0.01351 54.93070 77.85379
89.0 0.01124 54.92721 75.77448
79.0 0.01266 54.92372 73.55340
67.0 0.01493 54.92025 71.40476
65.0 0.01538 54.91677 69.45283
78.0 0.01282 54.91332 67.75611
69.0 0.01449 54.90988 66.41637
79.0 0.01266 54.90644 65.25715
68.0 0.01471 54.90302 64.34116
75.0 0.01333 54.89961 63.64074
70.0 0.01429 54.89621 63.12523
62.0 0.01613 54.89281 62.76627
72.0 0.01389 54.88943 62.53833
65.0 0.01538 54.88606 62.42038
70.0 0.01429 54.88270 62.39628
75.0 0.01333 54.87935 62.45466
64.0 0.01563 54.87601 62.58875
66.0 0.01515 54.87269 62.79572
79.0 0.01266 54.86937 63.07658
64.0 0.01563 54.86607 63.43609
60.0 0.01667 54.86277 63.88316
49.0 0.02041 54.85949 64.43177
57.0 0.01754 54.85622 65.10183
62.0 0.01613 54.85295 65.92262
67.0 0.01493 54.84970 66.93314
75.0 0.01333 54.84646 68.18585
75.0 0.01333 54.84324 69.74876
81.0 0.01235 54.84002 71.70678
76.0 0.01316 54.83681 74.16019
67.0 0.01493 54.83361 77.22694
85.0 0.01176 54.83043 81.02962
78.0 0.01282 54.82726 85.73352
102.0 0.00980 54.82410 91.35789
109.0 0.00917 54.82095 98.01356
96.0 0.01042 54.81781 105.69826
113.0 0.00885 54.81468 114.28735
123.0 0.00813 54.81157 123.44981
141.0 0.00709 54.80846 132.56682
153.0 0.00654 54.80537 140.64081
156.0 0.00641 54.80229 146.41277
158.0 0.00633 54.79922 148.73372
162.0 0.00617 54.79616 147.09895
146.0 0.00685 54.79311 141.93535
120.0 0.00833 54.79008 134.35220
142.0 0.00704 54.78706 125.62837
119.0 0.00840 54.78404 116.80083
88.0 0.01136 54.78105 108.54393
91.0 0.01099 54.77805 101.22427
85.0 0.01176 54.77508 95.00179
95.0 0.01053 54.77211 89.91344
92.0 0.01087 54.76917 85.93061
74.0 0.01351 54.76622 82.98685
71.0 0.01408 54.76329 81.01171
87.0 0.01149 54.76037 79.93672
83.0 0.01205 54.75747 79.70503
82.0 0.01220 54.75457 80.27354
58.0 0.01724 54.75169 81.60853
83.0 0.01205 54.74882 83.67947
85.0 0.01176 54.74597 86.43938
72.0 0.01389 54.74312 89.80205
100.0 0.01000 54.74029 93.60329
99.0 0.01010 54.73747 97.55077
107.0 0.00935 54.73466 101.18250
115.0 0.00870 54.73186 103.88802
124.0 0.00806 54.72908 105.05756
121.0 0.00826 54.72630 104.33892
104.0 0.00962 54.72354 101.82094
110.0 0.00909 54.72079 97.98183
93.0 0.01075 54.71806 93.44440
91.0 0.01099 54.71533 88.75031
67.0 0.01493 54.71262 84.26933
77.0 0.01299 54.70992 80.20211
83.0 0.01205 54.70724 76.64076
65.0 0.01538 54.70456 73.53302
77.0 0.01299 54.70190 70.99630
61.0 0.01639 54.69925 68.91240
71.0 0.01408 54.69661 67.22307
57.0 0.01754 54.69399 65.86707
64.0 0.01563 54.69138 64.78618
69.0 0.01449 54.68878 63.92676
71.0 0.01408 54.68620 63.24481
73.0 0.01370 54.68362 62.70424
64.0 0.01563 54.68106 62.27713
79.0 0.01266 54.67851 61.94269
56.0 0.01786 54.67598 61.68629
66.0 0.01515 54.67345 61.49784
67.0 0.01493 54.67095 61.37178
62.0 0.01613 54.66845 61.30586
59.0 0.01695 54.66596 61.30120
61.0 0.01639 54.66349 61.36243
60.0 0.01667 54.66103 61.49799
60.0 0.01667 54.65858 61.72076
63.0 0.01587 54.65615 62.04847
64.0 0.01563 54.65373 62.50477
71.0 0.01408 54.65132 63.11830
53.0 0.01887 54.64893 63.92258
70.0 0.01429 54.64655 64.95425
60.0 0.01667 54.64418 66.21480
71.0 0.01408 54.64182 67.80827
74.0 0.01351 54.63948 69.72404
63.0 0.01587 54.63715 71.96677
67.0 0.01493 54.63483 74.50933
88.0 0.01136 54.63253 77.27014
70.0 0.01429 54.63024 80.08362
85.0 0.01176 54.62796 82.67489
100.0 0.01000 54.62569 84.67184
105.0 0.00952 54.62345 85.69496
78.0 0.01282 54.62121 85.51775
97.0 0.01031 54.61898 84.18571
87.0 0.01149 54.61678 81.99337
79.0 0.01266 54.61457 79.33457
92.0 0.01087 54.61239 76.55858
70.0 0.01429 54.61022 73.90864
66.0 0.01515 54.60806 71.52167
65.0 0.01538 54.60592 69.46559
72.0 0.01389 54.60378 67.76202
65.0 0.01538 54.60167 66.40726
60.0 0.01667 54.59956 65.38472
61.0 0.01639 54.59747 64.67287
60.0 0.01667 54.59539 64.25034
67.0 0.01493 54.59333 64.09898
59.0 0.01695 54.59128 64.20483
67.0 0.01493 54.58924 64.55829
68.0 0.01471 54.58722 65.15145
67.0 0.01493 54.58521 65.97441
64.0 0.01563 54.58320 67.00893
60.0 0.01667 54.58123 68.21816
85.0 0.01176 54.57925 69.53473
81.0 0.01235 54.57730 70.84002
79.0 0.01266 54.57536 71.96532
72.0 0.01389 54.57343 72.70149
78.0 0.01282 54.57151 72.87983
69.0 0.01449 54.56961 72.44308
69.0 0.01449 54.56772 71.47847
62.0 0.01613 54.56585 70.17430
74.0 0.01351 54.56398 68.72322
66.0 0.01515 54.56214 67.28338
60.0 0.01667 54.56031 65.95292
72.0 0.01389 54.55849 64.78370
72.0 0.01389 54.55668 63.78576
66.0 0.01515 54.55489 62.93648
72.0 0.01389 54.55312 62.28377
57.0 0.01754 54.55135 61.78190
53.0 0.01887 54.54960 61.41496
71.0 0.01408 54.54786 61.16353
60.0 0.01667 54.54614 61.01225
69.0 0.01449 54.54443 60.94671
57.0 0.01754 54.54274 60.95647
65.0 0.01538 54.54105 61.03418
65.0 0.01538 54.53939 61.17537
67.0 0.01493 54.53773 61.37971
75.0 0.01333 54.53610 61.64865
69.0 0.01449 54.53447 61.98825
69.0 0.01449 54.53286 62.40913
62.0 0.01613 54.53126 62.92425
57.0 0.01754 54.52967 63.55653
63.0 0.01587 54.52811 64.33214
60.0 0.01667 54.52655 65.29258
79.0 0.01266 54.52501 66.48383
73.0 0.01370 54.52348 67.97305
64.0 0.01563 54.52197 69.82945
63.0 0.01587 54.52047 72.14664
61.0 0.01639 54.51899 75.00916
80.0 0.01250 54.51751 78.52305
76.0 0.01316 54.51605 82.74882
80.0 0.01250 54.51461 87.77550
91.0 0.01099 54.51318 93.63233
99.0 0.01010 54.51177 100.23542
112.0 0.00893 54.51037 107.42537
128.0 0.00781 54.50899 114.78970
114.0 0.00877 54.50761 121.70531
135.0 0.00741 54.50626 127.23975
163.0 0.00613 54.50491 130.44130
147.0 0.00680 54.50358 130.63466
165.0 0.00606 54.50227 127.80478
138.0 0.00725 54.50097 122.60393
139.0 0.00719 54.49968 115.98489
108.0 0.00926 54.49841 108.89475
70.0 0.01429 54.49715 101.97958
73.0 0.01370 54.49591 95.67247
90.0 0.01111 54.49467 90.16481
82.0 0.01220 54.49346 85.52628
77.0 0.01299 54.49226 81.77921
69.0 0.01449 54.49107 78.87382
77.0 0.01299 54.48990 76.76936
70.0 0.01429 54.48874 75.40228
92.0 0.01087 54.48759 74.72854
63.0 0.01587 54.48647 74.70612
75.0 0.01333 54.48535 75.30635
72.0 0.01389 54.48425 76.50965
89.0 0.01124 54.48316 78.28870
79.0 0.01266 54.48209 80.61438
70.0 0.01429 54.48103 83.41100
100.0 0.01000 54.48000 86.54102
100.0 0.01000 54.47896 89.78475
101.0 0.00990 54.47795 92.75847
90.0 0.01111 54.47695 94.98908
104.0 0.00962 54.47596 95.98374
118.0 0.00847 54.47499 95.45609
111.0 0.00901 54.47403 93.46115
90.0 0.01111 54.47309 90.35540
93.0 0.01075 54.47217 86.64286
62.0 0.01613 54.47125 82.75113
91.0 0.01099 54.47035 79.00383
60.0 0.01667 54.46946 75.56464
67.0 0.01493 54.46860 72.52940
85.0 0.01176 54.46774 69.80769
64.0 0.01563 54.46690 67.59708
61.0 0.01639 54.46608 65.75602
75.0 0.01333 54.46526 64.23690
47.0 0.02128 54.46447 62.99709
70.0 0.01429 54.46368 61.98401
66.0 0.01515 54.46291 61.15799
60.0 0.01667 54.46216 60.47782
80.0 0.01250 54.46142 59.91468
57.0 0.01754 54.46069 59.44104
68.0 0.01471 54.45998 59.03911
45.0 0.02222 54.45929 58.69232
58.0 0.01724 54.45861 58.39078
58.0 0.01724 54.45794 58.12485
48.0 0.02083 54.45728 57.88925
53.0 0.01887 54.45665 57.67861
51.0 0.01961 54.45602 57.48885
60.0 0.01667 54.45542 57.31776
74.0 0.01351 54.45482 57.16225
60.0 0.01667 54.45424 57.02097
71.0 0.01408 54.45368 56.89171
70.0 0.01429 54.45313 56.77359
53.0 0.01887 54.45258 56.66497
48.0 0.02083 54.45207 56.56524
52.0 0.01923 54.45156 56.42327
56.0 0.01786 54.45107 56.33896
56.0 0.01786 54.45059 56.26087
50.0 0.02000 54.45013 56.18864
70.0 0.01429 54.44968 56.12183
46.0 0.02174 54.44924 56.05967
55.0 0.01818 54.44883 56.00208
54.0 0.01852 54.44841 55.94851
69.0 0.01449 54.44803 55.89886
48.0 0.02083 54.44765 55.85271
55.0 0.01818 54.44729 55.81004
62.0 0.01613 54.44695 55.77048
62.0 0.01613 54.44661 55.73406
67.0 0.01493 54.44629 55.70056
39.0 0.02564 54.44599 55.67006
60.0 0.01667 54.44570 55.64246
41.0 0.02439 54.44543 55.61797
50.0 0.02000 54.44517 55.59665
63.0 0.01587 54.44493 55.57889
56.0 0.01786 54.44469 55.56501
70.0 0.01429 54.44448 55.55554
58.0 0.01724 54.44427 55.55117
52.0 0.01923 54.44409 55.55266
44.0 0.02273 54.44391 55.56084
55.0 0.01818 54.44376 55.57662
57.0 0.01754 54.44361 55.60073
52.0 0.01923 54.44349 55.63387
67.0 0.01493 54.44337 55.67610
57.0 0.01754 54.44327 55.72709
49.0 0.02041 54.44319 55.78495
66.0 0.01515 54.44312 55.84637
57.0 0.01754 54.44306 55.90515
59.0 0.01695 54.44302 55.95264
77.0 0.01299 54.44299 55.97939
56.0 0.01786 54.44298 55.97797
53.0 0.01887 54.44298 55.94691
62.0 0.01613 54.44300 55.89153
55.0 0.01818 54.44304 55.82079
55.0 0.01818 54.44308 55.74434
59.0 0.01695 54.44313 55.66911
49.0 0.02041 54.44321 55.62993
63.0 0.01587 54.44330 55.56934
54.0 0.01852 54.44340 55.48647
36.0 0.02778 54.44352 55.44505
60.0 0.01667 54.44366 55.41274
56.0 0.01786 54.44380 55.38877
50.0 0.02000 54.44396 55.37251
57.0 0.01754 54.44414 55.36316
46.0 0.02174 54.44433 55.36005
56.0 0.01786 54.44453 55.36272
57.0 0.01754 54.44476 55.37082
59.0 0.01695 54.44498 55.38417
57.0 0.01754 54.44524 55.40295
54.0 0.01852 54.44550 55.42737
56.0 0.01786 54.44578 55.45814
62.0 0.01613 54.44607 55.49609
59.0 0.01695 54.44637 55.54275
57.0 0.01754 54.44669 55.59986
56.0 0.01786 54.44703 55.67027
54.0 0.01852 54.44738 55.75721
57.0 0.01754 54.44774 55.86499
57.0 0.01754 54.44812 55.99965
43.0 0.02326 54.44851 56.16714
63.0 0.01587 54.44892 56.37561
61.0 0.01639 54.44934 56.63231
60.0 0.01667 54.44978 56.94634
54.0 0.01852 54.45022 57.33984
58.0 0.01724 54.45069 57.77130
60.0 0.01667 54.45117 58.28947
69.0 0.01449 54.45166 58.87470
62.0 0.01613 54.45216 59.50877
58.0 0.01724 54.45269 60.16125
63.0 0.01587 54.45322 60.77425
78.0 0.01282 54.45377 61.27295
51.0 0.01961 54.45433 61.57203
47.0 0.02128 54.45491 61.61391
74.0 0.01351 54.45551 61.39275
62.0 0.01613 54.45611 60.96098
58.0 0.01724 54.45673 60.39939
58.0 0.01724 54.45736 59.79085
57.0 0.01754 54.45802 59.19376
71.0 0.01408 54.45868 58.64833
57.0 0.01754 54.45935 58.17266
64.0 0.01563 54.46005 57.77745
65.0 0.01538 54.46075 57.46338
54.0 0.01852 54.46148 57.23054
56.0 0.01786 54.46221 57.07551
56.0 0.01786 54.46296 56.99635
59.0 0.01695 54.46372 56.99101
61.0 0.01639 54.46449 57.05893
69.0 0.01449 54.46528 57.20033
58.0 0.01724 54.46609 57.41679
62.0 0.01613 54.46691 57.70833
58.0 0.01724 54.46774 58.07522
52.0 0.01923 54.46859 58.51134
51.0 0.01961 54.46945 59.00633
56.0 0.01786 54.47032 59.53407
74.0 0.01351 54.47121 60.05447
52.0 0.01923 54.47211 60.50329
53.0 0.01887 54.47303 60.80721
66.0 0.01515 54.47396 60.90015
68.0 0.01471 54.47490 60.75627
78.0 0.01282 54.47586 60.40253
53.0 0.01887 54.47683 59.90342
46.0 0.02174 54.47782 59.33149
61.0 0.01639 54.47882 58.74978
44.0 0.02273 54.47984 58.20490
69.0 0.01449 54.48086 57.70418
57.0 0.01754 54.48190 57.26371
52.0 0.01923 54.48296 56.80194
57.0 0.01754 54.48403 56.48531
57.0 0.01754 54.48511 56.22348
68.0 0.01471 54.48621 56.00857
55.0 0.01818 54.48732 55.83418
68.0 0.01471 54.48845 55.69263
57.0 0.01754 54.48958 55.57812
49.0 0.02041 54.49073 55.48487
57.0 0.01754 54.49190 55.40822
61.0 0.01639 54.49308 55.34483
40.0 0.02500 54.49427 55.29165
59.0 0.01695 54.49548 55.24672
62.0 0.01613 54.49669 55.20824
62.0 0.01613 54.49793 55.17517
54.0 0.01852 54.49918 55.14645
75.0 0.01333 54.50044 55.12151
62.0 0.01613 54.50171 55.09969
55.0 0.01818 54.50300 55.08070
68.0 0.01471 54.50430 55.06408
60.0 0.01667 54.50562 55.04961
51.0 0.01961 54.50695 55.03708
60.0 0.01667 54.50829 55.02623
50.0 0.02000 54.50964 55.01693
45.0 0.02222 54.51101 55.01281
51.0 0.01961 54.51239 54.96247
47.0 0.02128 54.51379 54.95762
46.0 0.02174 54.51520 54.95387
64.0 0.01563 54.51662 54.95113
52.0 0.01923 54.51805 54.94933
61.0 0.01639 54.51951 54.94844
63.0 0.01587 54.52097 54.94839
60.0 0.01667 54.52245 54.94917
64.0 0.01563 54.52393 54.95074
53.0 0.01887 54.52544 54.95308
46.0 0.02174 54.52695 54.95615
61.0 0.01639 54.52848 54.95995
54.0 0.01852 54.53002 54.96449
60.0 0.01667 54.53158 54.96972
66.0 0.01515 54.53315 54.97570
86.0 0.01163 54.53473 54.98239
55.0 0.01818 54.53633 54.98981
49.0 0.02041 54.53793 54.99797
54.0 0.01852 54.53955 55.00693
66.0 0.01515 54.54118 55.01664
50.0 0.02000 54.54284 55.02719
53.0 0.01887 54.54449 55.03857
61.0 0.01639 54.54617 55.05085
45.0 0.02222 54.54786 55.06406
63.0 0.01587 54.54955 55.07821
66.0 0.01515 54.55126 55.09343
53.0 0.01887 54.55299 55.10971
60.0 0.01667 54.55472 55.12718
55.0 0.01818 54.55648 55.14587
57.0 0.01754 54.55824 55.16592
71.0 0.01408 54.56001 55.18736
60.0 0.01667 54.56180 55.21038
54.0 0.01852 54.56360 55.23502
60.0 0.01667 54.56542 55.26152
58.0 0.01724 54.56725 55.28993
59.0 0.01695 54.56909 55.32053
47.0 0.02128 54.57094 55.35342
51.0 0.01961 54.57281 55.38896
53.0 0.01887 54.57468 55.42725
53.0 0.01887 54.57657 55.48706
57.0 0.01754 54.57848 55.53223
64.0 0.01563 54.58039 55.58117
68.0 0.01471 54.58232 55.63450
79.0 0.01266 54.58426 55.69253
58.0 0.01724 54.58622 55.75607
67.0 0.01493 54.58818 55.82555
51.0 0.01961 54.59016 55.90207
55.0 0.01818 54.59215 55.98626
51.0 0.01961 54.59415 56.07960
61.0 0.01639 54.59617 56.18308
61.0 0.01639 54.59819 56.29883
63.0 0.01587 54.60024 56.42865
63.0 0.01587 54.60228 56.57506
64.0 0.01563 54.60435 56.74245
65.0 0.01538 54.60643 56.93477
55.0 0.01818 54.60852 57.15916
56.0 0.01786 54.61062 57.42330
52.0 0.01923 54.61274 57.73954
59.0 0.01695 54.61486 58.12134
55.0 0.01818 54.61700 58.58881
66.0 0.01515 54.61914 59.16290
66.0 0.01515 54.62131 59.87271
59.0 0.01695 54.62349 60.74546
56.0 0.01786 54.62567 61.81636
75.0 0.01333 54.62786 63.11214
54.0 0.01852 54.63008 64.67665
72.0 0.01389 54.63230 66.49687
59.0 0.01695 54.63453 68.58644
55.0 0.01818 54.63678 70.92219
59.0 0.01695 54.63904 73.41611
76.0 0.01316 54.64131 75.92775
71.0 0.01408 54.64359 78.20780
88.0 0.01136 54.64588 79.95068
102.0 0.00980 54.64819 80.83937
87.0 0.01149 54.65051 80.70769
72.0 0.01389 54.65283 79.57839
85.0 0.01176 54.65517 77.70175
68.0 0.01471 54.65752 75.41143
86.0 0.01163 54.65989 72.99310
54.0 0.01852 54.66227 70.66249
75.0 0.01333 54.66465 68.54511
74.0 0.01351 54.66705 66.69250
72.0 0.01389 54.66946 65.13614
55.0 0.01818 54.67188 63.86897
56.0 0.01786 54.67431 62.88260
43.0 0.02326 54.67676 62.15449
58.0 0.01724 54.67921 61.66816
50.0 0.02000 54.68168 61.40458
65.0 0.01538 54.68415 61.35174
56.0 0.01786 54.68665 61.50082
62.0 0.01613 54.68915 61.84629
60.0 0.01667 54.69166 62.38627
62.0 0.01613 54.69418 63.11405
60.0 0.01667 54.69672 64.02178
57.0 0.01754 54.69926 65.08195
70.0 0.01429 54.70182 66.24864
87.0 0.01149 54.70439 67.43997
87.0 0.01149 54.70697 68.52084
59.0 0.01695 54.70956 69.32662
78.0 0.01282 54.71216 69.68885
61.0 0.01639 54.71477 69.51294
79.0 0.01266 54.71739 68.82891
76.0 0.01316 54.72003 67.74723
67.0 0.01493 54.72267 66.45000
57.0 0.01754 54.72533 65.08611
58.0 0.01724 54.72799 63.76949
58.0 0.01724 54.73067 62.55888
66.0 0.01515 54.73336 61.48961
66.0 0.01515 54.73605 60.56048
59.0 0.01695 54.73877 59.78200
55.0 0.01818 54.74149 59.13819
62.0 0.01613 54.74422 58.61141
66.0 0.01515 54.74696 58.18719
61.0 0.01639 54.74971 57.84743
55.0 0.01818 54.75248 57.57833
56.0 0.01786 54.75525 57.36566
62.0 0.01613 54.75803 57.19939
58.0 0.01724 54.76083 57.07030
56.0 0.01786 54.76363 56.97252
66.0 0.01515 54.76645 56.90122
49.0 0.02041 54.76928 56.85392
48.0 0.02083 54.77211 56.82942
59.0 0.01695 54.77496 56.82781
56.0 0.01786 54.77781 56.85074
54.0 0.01852 54.78068 56.90123
64.0 0.01563 54.78355 56.98337
60.0 0.01667 54.78645 57.10306
72.0 0.01389 54.78934 57.26654
60.0 0.01667 54.79225 57.48198
55.0 0.01818 54.79517 57.75640
66.0 0.01515 54.79809 58.09832
58.0 0.01724 54.80103 58.51236
52.0 0.01923 54.80398 59.00306
68.0 0.01471 54.80694 59.55907
68.0 0.01471 54.80991 60.18512
67.0 0.01493 54.81288 60.84577
65.0 0.01538 54.81586 61.49569
64.0 0.01563 54.81887 62.06590
46.0 0.02174 54.82187 62.46848
66.0 0.01515 54.82489 62.62815
66.0 0.01515 54.82791 62.50981
70.0 0.01429 54.83095 62.13860
60.0 0.01667 54.83400 61.58820
61.0 0.01639 54.83706 60.94317
67.0 0.01493 54.84012 60.27972
72.0 0.01389 54.84319 59.64590
54.0 0.01852 54.84627 59.07340
55.0 0.01818 54.84937 58.57398
52.0 0.01923 54.85247 58.15357
58.0 0.01724 54.85558 57.81108
61.0 0.01639 54.85870 57.54079
47.0 0.02128 54.86183 57.33863
55.0 0.01818 54.86498 57.19824
62.0 0.01613 54.86812 57.11508
49.0 0.02041 54.87128 57.08476
52.0 0.01923 54.87445 57.10448
60.0 0.01667 54.87763 57.17231
52.0 0.01923 54.88081 57.28654
49.0 0.02041 54.88401 57.44598
49.0 0.02041 54.88721 57.64717
56.0 0.01786 54.89043 57.88524
64.0 0.01563 54.89365 58.14855
63.0 0.01587 54.89688 58.41947
53.0 0.01887 54.90012 58.66839
74.0 0.01351 54.90337 58.85902
61.0 0.01639 54.90663 58.95494
65.0 0.01538 54.90989 58.93367
56.0 0.01786 54.91317 58.80649
67.0 0.01493 54.91645 58.58432
62.0 0.01613 54.91975 58.31176
63.0 0.01587 54.92305 58.03449
51.0 0.01961 54.92636 57.75659
57.0 0.01754 54.92968 57.50429
50.0 0.02000 54.93301 57.28431
54.0 0.01852 54.93634 57.10029
60.0 0.01667 54.93969 56.95129
66.0 0.01515 54.94304 56.83587
54.0 0.01852 54.94640 56.75125
56.0 0.01786 54.94977 56.69391
69.0 0.01449 54.95315 56.66114
73.0 0.01370 54.95654 56.65012
57.0 0.01754 54.95993 56.65877
73.0 0.01370 54.96333 56.68568
65.0 0.01538 54.96674 56.73015
57.0 0.01754 54.97017 56.79260
52.0 0.01923 54.97359 56.87407
57.0 0.01754 54.97703 56.97730
66.0 0.01515 54.98047 57.10564
54.0 0.01852 54.98393 57.26492
58.0 0.01724 54.98738 57.46161
54.0 0.01852 54.99085 57.70564
66.0 0.01515 54.99432 58.00726
48.0 0.02083 54.99780 58.38007
57.0 0.01754 55.00130 58.83990
63.0 0.01587 55.00479 59.40075
55.0 0.01818 55.00831 60.08057
56.0 0.01786 55.01182 60.89063
47.0 0.02128 55.01534 61.84409
67.0 0.01493 55.01887 62.93971
64.0 0.01563 55.02241 64.17143
52.0 0.01923 55.02595 65.50301
83.0 0.01205 55.02951 66.87582
72.0 0.01389 55.03307 68.17801
69.0 0.01449 55.03664 69.26497
80.0 0.01250 55.04021 69.96653
77.0 0.01299 55.04379 70.15522
62.0 0.01613 55.04738 69.79871
71.0 0.01408 55.05097 68.97829
83.0 0.01205 55.05458 67.84515
71.0 0.01408 55.05819 66.56902
72.0 0.01389 55.06181 65.27863
66.0 0.01515 55.06543 64.06768
49.0 0.02041 55.06907 62.98179
71.0 0.01408 55.07271 62.04894
60.0 0.01667 55.07635 61.27275
51.0 0.01961 55.08001 60.65441
58.0 0.01724 55.08368 60.18481
64.0 0.01563 55.08734 59.85760
60.0 0.01667 55.09102 59.66355
72.0 0.01389 55.09469 59.59700
65.0 0.01538 55.09838 59.65324
61.0 0.01639 55.10208 59.83059
58.0 0.01724 55.10578 60.12775
51.0 0.01961 55.10949 60.54552
54.0 0.01852 55.11320 61.08027
59.0 0.01695 55.11693 61.72749
47.0 0.02128 55.12065 62.46891
63.0 0.01587 55.12439 63.27605
68.0 0.01471 55.12813 64.09106
68.0 0.01471 55.13188 64.83349
65.0 0.01538 55.13564 65.39404
75.0 0.01333 55.13939 65.67003
61.0 0.01639 55.14317 65.59705
76.0 0.01316 55.14693 65.18513
65.0 0.01538 55.15071 64.50722
62.0 0.01613 55.15450 63.68725
66.0 0.01515 55.15829 62.79501
68.0 0.01471 55.16208 61.92242
62.0 0.01613 55.16590 61.11216
76.0 0.01316 55.16970 60.39112
79.0 0.01266 55.17352 59.73551
52.0 0.01923 55.17735 59.20754
51.0 0.01961 55.18117 58.76936
52.0 0.01923 55.18501 58.41418
57.0 0.01754 55.18885 58.13080
57.0 0.01754 55.19270 57.91022
61.0 0.01639 55.19654 57.74305
58.0 0.01724 55.20040 57.62036
55.0 0.01818 55.20426 57.53609
68.0 0.01471 55.20813 57.48477
60.0 0.01667 55.21201 57.46319
57.0 0.01754 55.21589 57.46948
58.0 0.01724 55.21977 57.50357
52.0 0.01923 55.22367 57.56720
65.0 0.01538 55.22756 57.66353
61.0 0.01639 55.23146 57.79813
54.0 0.01852 55.23537 57.97758
58.0 0.01724 55.23929 58.21144
72.0 0.01389 55.24320 58.50928
58.0 0.01724 55.24713 58.88395
70.0 0.01429 55.25105 59.34615
67.0 0.01493 55.25499 59.90819
53.0 0.01887 55.25893 60.58115
60.0 0.01667 55.26287 61.37750
58.0 0.01724 55.26683 62.28001
67.0 0.01493 55.27077 63.28062
67.0 0.01493 55.27474 64.33384
56.0 0.01786 55.27870 65.40552
68.0 0.01471 55.28267 66.38634
85.0 0.01176 55.28664 67.14642
84.0 0.01190 55.29062 67.56229
74.0 0.01351 55.29460 67.60683
67.0 0.01493 55.29860 67.17955
72.0 0.01389 55.30259 66.42213
73.0 0.01370 55.30658 65.46568
51.0 0.01961 55.31059 64.42970
63.0 0.01587 55.31459 63.41283
54.0 0.01852 55.31861 62.47047
58.0 0.01724 55.32262 61.63842
68.0 0.01471 55.32664 60.92741
46.0 0.02174 55.33067 60.34330
47.0 0.02128 55.33470 59.88090
53.0 0.01887 55.33873 59.53621
58.0 0.01724 55.34277 59.30135
70.0 0.01429 55.34681 59.17126
50.0 0.02000 55.35086 59.14088
58.0 0.01724 55.35491 59.20759
67.0 0.01493 55.35897 59.37056
74.0 0.01351 55.36303 59.62912
65.0 0.01538 55.36708 59.98352
59.0 0.01695 55.37115 60.43319
69.0 0.01449 55.37522 60.97078
49.0 0.02041 55.37930 61.58505
62.0 0.01613 55.38338 62.24727
68.0 0.01471 55.38747 62.91434
57.0 0.01754 55.39154 63.51499
78.0 0.01282 55.39564 63.96490
67.0 0.01493 55.39973 64.17883
63.0 0.01587 55.40383 64.10877
66.0 0.01515 55.40793 63.78849
55.0 0.01818 55.41204 63.23053
64.0 0.01563 55.41615 62.54699
67.0 0.01493 55.42025 61.81995
60.0 0.01667 55.42438 61.10567
65.0 0.01538 55.42849 60.44460
65.0 0.01538 55.43262 59.84478
58.0 0.01724 55.43674 59.33293
58.0 0.01724 55.44087 58.89821
60.0 0.01667 55.44500 58.53787
53.0 0.01887 55.44915 58.24365
56.0 0.01786 55.45328 58.00881
58.0 0.01724 55.45743 57.82437
55.0 0.01818 55.46157 57.68342
69.0 0.01449 55.46572 57.57874
57.0 0.01754 55.46987 57.50515
57.0 0.01754 55.47403 57.45814
66.0 0.01515 55.47819 57.43495
57.0 0.01754 55.48235 57.43387
59.0 0.01695 55.48651 57.45471
48.0 0.02083 55.49068 57.49845
61.0 0.01639 55.49485 57.56764
80.0 0.01250 55.49902 57.66575
52.0 0.01923 55.50320 57.79825
46.0 0.02174 55.50737 57.97091
55.0 0.01818 55.51156 58.19176
77.0 0.01299 55.51574 58.46794
45.0 0.02222 55.51992 58.80867
58.0 0.01724 55.52411 59.22005
64.0 0.01563 55.52831 59.70930
64.0 0.01563 55.53250 60.27726
42.0 0.02381 55.53668 60.91914
69.0 0.01449 55.54089 61.62432
72.0 0.01389 55.54509 62.35631
50.0 0.02000 55.54930 63.07462
77.0 0.01299 55.55349 63.69840
73.0 0.01370 55.55771 64.14183
65.0 0.01538 55.56191 64.32656
71.0 0.01408 55.56613 64.22047
64.0 0.01563 55.57034 63.85139
66.0 0.01515 55.57456 63.29220
68.0 0.01471 55.57877 62.63420
57.0 0.01754 55.58300 61.95226
80.0 0.01250 55.58722 61.30347
59.0 0.01695 55.59145 60.71811
66.0 0.01515 55.59567 60.21550
45.0 0.02222 55.59990 59.80149
63.0 0.01587 55.60412 59.47694
55.0 0.01818 55.60836 59.24177
55.0 0.01818 55.61259 59.09270
56.0 0.01786 55.61683 59.02836
56.0 0.01786 55.62106 59.04760
70.0 0.01429 55.62530 59.15102
47.0 0.02128 55.62954 59.34128
48.0 0.02083 55.63378 59.62102
57.0 0.01754 55.63802 59.99521
51.0 0.01961 55.64226 60.46540
60.0 0.01667 55.64651 61.03384
62.0 0.01613 55.65076 61.69397
68.0 0.01471 55.65500 62.43023
61.0 0.01639 55.65926 63.21620
62.0 0.01613 55.66350 63.99567
67.0 0.01493 55.66776 64.69292
61.0 0.01639 55.67201 65.20777
67.0 0.01493 55.67626 65.45020
77.0 0.01299 55.68052 65.36929
67.0 0.01493 55.68478 64.98043
56.0 0.01786 55.68903 64.35852
67.0 0.01493 55.69329 63.59941
73.0 0.01370 55.69755 62.79596
75.0 0.01333 55.70181 62.01074
66.0 0.01515 55.70607 61.28629
58.0 0.01724 55.71033 60.62526
56.0 0.01786 55.71460 60.06909
71.0 0.01408 55.71886 59.60170
69.0 0.01449 55.72313 59.21617
56.0 0.01786 55.72739 58.90640
72.0 0.01389 55.73166 58.66240
67.0 0.01493 55.73592 58.47627
61.0 0.01639 55.74019 58.33898
67.0 0.01493 55.74445 58.24385
46.0 0.02174 55.74873 58.18470
60.0 0.01667 55.75299 58.15751
59.0 0.01695 55.75726 58.15957
42.0 0.02381 55.76153 58.18999
74.0 0.01351 55.76580 58.24972
57.0 0.01754 55.77007 58.34119
46.0 0.02174 55.77433 58.46899
62.0 0.01613 55.77861 58.63992
46.0 0.02174 55.78287 58.86154
62.0 0.01613 55.78715 59.14478
57.0 0.01754 55.79141 59.49979
56.0 0.01786 55.79568 59.93994
72.0 0.01389 55.79995 60.47520
65.0 0.01538 55.80423 61.11777
52.0 0.01923 55.80849 61.87162
52.0 0.01923 55.81277 62.73990
53.0 0.01887 55.81704 63.70851
66.0 0.01515 55.82131 64.75301
64.0 0.01563 55.82558 65.80395
75.0 0.01333 55.82984 66.79667
85.0 0.01176 55.83412 67.60461
76.0 0.01316 55.83838 68.09671
67.0 0.01493 55.84266 68.18839
67.0 0.01493 55.84692 67.85948
65.0 0.01538 55.85119 67.18557
80.0 0.01250 55.85545 66.29171
67.0 0.01493 55.85972 65.29984
89.0 0.01124 55.86399 64.31181
57.0 0.01754 55.86826 63.38780
65.0 0.01538 55.87252 62.56695
65.0 0.01538 55.87679 61.86227
61.0 0.01639 55.88105 61.28084
52.0 0.01923 55.88532 60.81787
63.0 0.01587 55.88958 60.46925
55.0 0.01818 55.89383 60.22686
68.0 0.01471 55.89810 60.08376
58.0 0.01724 55.90236 60.03511
52.0 0.01923 55.90662 60.07719
58.0 0.01724 55.91087 60.20835
62.0 0.01613 55.91513 60.42923
63.0 0.01587 55.91939 60.74008
60.0 0.01667 55.92365 61.14289
55.0 0.01818 55.92789 61.63496
52.0 0.01923 55.93216 62.21252
60.0 0.01667 55.93640 62.85934
73.0 0.01370 55.94066 63.55042
62.0 0.01613 55.94490 64.23672
73.0 0.01370 55.94915 64.84878
61.0 0.01639 55.95340 65.30545
65.0 0.01538 55.95764 65.52827
77.0 0.01299 55.96189 65.48493
51.0 0.01961 55.96613 65.18661
77.0 0.01299 55.97037 64.70349
70.0 0.01429 55.97461 64.12200
62.0 0.01613 55.97885 63.51542
61.0 0.01639 55.98308 62.94012
75.0 0.01333 55.98732 62.42678
66.0 0.01515 55.99156 61.99440
65.0 0.01538 55.99580 61.64795
68.0 0.01471 56.00002 61.38923
66.0 0.01515 56.00425 61.21417
59.0 0.01695 56.00847 61.11874
71.0 0.01408 56.01270 61.09734
63.0 0.01587 56.01692 61.14550
63.0 0.01587 56.02114 61.25979
62.0 0.01613 56.02536 61.43941
55.0 0.01818 56.02958 61.68506
62.0 0.01613 56.03380 62.00238
57.0 0.01754 56.03801 62.39869
61.0 0.01639 56.04222 62.88884
55.0 0.01818 56.04643 63.48958
61.0 0.01639 56.05064 64.22818
64.0 0.01563 56.05484 65.13337
69.0 0.01449 56.05906 66.24747
78.0 0.01282 56.06326 67.61284
68.0 0.01471 56.06745 69.27766
60.0 0.01667 56.07165 71.30467
64.0 0.01563 56.07584 73.73827
103.0 0.00971 56.08004 76.63683
81.0 0.01235 56.08422 80.02542
83.0 0.01205 56.08841 83.93101
104.0 0.00962 56.09260 88.31274
93.0 0.01075 56.09678 93.09785
95.0 0.01053 56.10096 98.07893
107.0 0.00935 56.10514 102.94990
114.0 0.00877 56.10931 107.21675
119.0 0.00840 56.11349 110.32288
136.0 0.00735 56.11765 111.72784
133.0 0.00752 56.12183 111.23708
123.0 0.00813 56.12598 108.88239
105.0 0.00952 56.13015 105.14553
98.0 0.01020 56.13431 100.59205
84.0 0.01190 56.13846 95.76680
87.0 0.01149 56.14262 91.03949
93.0 0.01075 56.14677 86.67036
67.0 0.01493 56.15091 82.77123
68.0 0.01471 56.15506 79.41055
67.0 0.01493 56.15921 76.58215
75.0 0.01333 56.16334 74.27798
69.0 0.01449 56.16748 72.45635
76.0 0.01316 56.17161 71.08695
66.0 0.01515 56.17575 70.12788
78.0 0.01282 56.17987 69.55077
76.0 0.01316 56.18399 69.32960
52.0 0.01923 56.18811 69.44605
68.0 0.01471 56.19223 69.88850
52.0 0.01923 56.19635 70.65076
53.0 0.01887 56.20045 71.72166
53.0 0.01887 56.20457 73.09099
87.0 0.01149 56.20867 74.72398
78.0 0.01282 56.21277 76.56969
75.0 0.01333 56.21687 78.51910
88.0 0.01136 56.22097 80.41649
105.0 0.00952 56.22506 82.01985
76.0 0.01316 56.22915 83.08785
94.0 0.01064 56.23323 83.38628
83.0 0.01205 56.23730 82.84075
97.0 0.01031 56.24139 81.49010
80.0 0.01250 56.24546 79.56705
84.0 0.01190 56.24953 77.32111
78.0 0.01282 56.25359 74.98686
70.0 0.01429 56.25766 72.71684
69.0 0.01449 56.26171 70.61732
70.0 0.01429 56.26578 68.72927
67.0 0.01493 56.26982 67.07688
76.0 0.01316 56.27387 65.65073
61.0 0.01639 56.27792 64.44164
79.0 0.01266 56.28196 63.42363
58.0 0.01724 56.28599 62.57643
60.0 0.01667 56.29003 61.87180
70.0 0.01429 56.29405 61.28879
57.0 0.01754 56.29807 60.80433
59.0 0.01695 56.30210 60.39895
75.0 0.01333 56.30611 60.05843
55.0 0.01818 56.31013 59.76855
51.0 0.01961 56.31414 59.52019
38.0 0.02632 56.31815 59.30431
64.0 0.01563 56.32214 59.11561
64.0 0.01563 56.32614 58.94857
56.0 0.01786 56.33013 58.80017
64.0 0.01563 56.33413 58.66704
59.0 0.01695 56.33810 58.54743
62.0 0.01613 56.34209 58.43907
47.0 0.02128 56.34606 58.34087
59.0 0.01695 56.35003 58.25169
54.0 0.01852 56.35400 58.17009
66.0 0.01515 56.35796 58.09562
52.0 0.01923 56.36192 58.02726
62.0 0.01613 56.36587 57.96463
69.0 0.01449 56.36982 57.90695
71.0 0.01408 56.37376 57.85398
57.0 0.01754 56.37770 57.80505
65.0 0.01538 56.38164 57.76001
51.0 0.01961 56.38557 57.80303
57.0 0.01754 56.38950 57.76548
68.0 0.01471 56.39342 57.73076
57.0 0.01754 56.39734 57.69880
63.0 0.01587 56.40126 57.66928
58.0 0.01724 56.40516 57.64211
69.0 0.01449 56.40906 57.61708
48.0 0.02083 56.41296 57.59400
67.0 0.01493 56.41686 57.57281
55.0 0.01818 56.42075 57.55334
75.0 0.01333 56.42463 57.53555
58.0 0.01724 56.42851 57.51926
84.0 0.01190 56.43238 57.50446
54.0 0.01852 56.43626 57.49102
54.0 0.01852 56.44012 57.47892
73.0 0.01370 56.44398 57.46806
39.0 0.02564 56.44784 57.45842
55.0 0.01818 56.45169 57.44992
60.0 0.01667 56.45554 57.44255
60.0 0.01667 56.45937 57.43627
69.0 0.01449 56.46321 57.43103
52.0 0.01923 56.46704 57.42682
56.0 0.01786 56.47087 57.42363
60.0 0.01667 56.47468 57.42143
61.0 0.01639 56.47850 57.42023
56.0 0.01786 56.48231 57.42001
50.0 0.02000 56.48612 57.40701
54.0 0.01852 56.48991 57.40892
60.0 0.01667 56.49371 57.41185
42.0 0.02381 56.49750 57.46989
64.0 0.01563 56.50129 57.47549
59.0 0.01695 56.50507 57.48220
49.0 0.02041 56.50884 57.49006
49.0 0.02041 56.51261 57.49914
56.0 0.01786 56.51637 57.50949
54.0 0.01852 56.52013 57.50712
62.0 0.01613 56.52388 57.52049
52.0 0.01923 56.52763 57.53547
48.0 0.02083 56.53136 57.55216
55.0 0.01818 56.53511 57.57076
47.0 0.02128 56.53883 57.59146
67.0 0.01493 56.54256 57.61456
63.0 0.01587 56.54628 57.64030
51.0 0.01961 56.54999 57.66924
50.0 0.02000 56.55370 57.70179
45.0 0.02222 56.55740 57.73878
53.0 0.01887 56.56110 57.78103
61.0 0.01639 56.56479 57.82967
55.0 0.01818 56.56848 57.88651
54.0 0.01852 56.57216 57.95317
55.0 0.01818 56.57584 58.03234
58.0 0.01724 56.57950 58.12650
82.0 0.01220 56.58317 58.23931
66.0 0.01515 56.58683 58.37394
65.0 0.01538 56.59048 58.53476
50.0 0.02000 56.59412 58.72495
64.0 0.01563 56.59777 58.94868
56.0 0.01786 56.60140 59.20758
58.0 0.01724 56.60503 59.50365
46.0 0.02174 56.60865 59.83399
68.0 0.01471 56.61227 60.19368
66.0 0.01515 56.61588 60.56834
62.0 0.01613 56.61948 60.92696
76.0 0.01316 56.62309 61.25657
50.0 0.02000 56.62668 61.50667
61.0 0.01639 56.63027 61.64153
54.0 0.01852 56.63385 61.64685
77.0 0.01299 56.63743 61.51648
70.0 0.01429 56.64100 61.28620
79.0 0.01266 56.64456 60.99517
62.0 0.01613 56.64812 60.68247
54.0 0.01852 56.65167 60.37567
63.0 0.01587 56.65522 60.09461
53.0 0.01887 56.65876 59.84870
64.0 0.01563 56.66229 59.64373
57.0 0.01754 56.66581 59.48141
47.0 0.02128 56.66934 59.36084
68.0 0.01471 56.67285 59.28166
58.0 0.01724 56.67636 59.24238
58.0 0.01724 56.67987 59.24228
66.0 0.01515 56.68336 59.28101
68.0 0.01471 56.68685 59.35880
49.0 0.02041 56.69034 59.47703
65.0 0.01538 56.69381 59.63691
62.0 0.01613 56.69729 59.84091
59.0 0.01695 56.70075 60.08986
63.0 0.01587 56.70421 60.38544
64.0 0.01563 56.70767 60.72556
54.0 0.01852 56.71111 61.10483
67.0 0.01493 56.71455 61.51445
73.0 0.01370 56.71798 61.93309
65.0 0.01538 56.72141 62.33203
65.0 0.01538 56.72483 62.66941
62.0 0.01613 56.72825 62.90338
49.0 0.02041 56.73166 63.00086
61.0 0.01639 56.73506 62.95680
74.0 0.01351 56.73846 62.78768
67.0 0.01493 56.74185 62.53476
60.0 0.01667 56.74523 62.24283
59.0 0.01695 56.74861 61.94766
53.0 0.01887 56.75198 61.67617
73.0 0.01370 56.75534 61.44304
59.0 0.01695 56.75870 61.25749
62.0 0.01613 56.76204 61.12253
68.0 0.01471 56.76539 61.03886
69.0 0.01449 56.76873 61.00603
62.0 0.01613 56.77206 61.02259
60.0 0.01667 56.77538 61.08733
54.0 0.01852 56.77870 61.19994
55.0 0.01818 56.78201 61.36075
71.0 0.01408 56.78532 61.57285
69.0 0.01449 56.78862 61.84028
74.0 0.01351 56.79191 62.17181
68.0 0.01471 56.79519 62.57748
56.0 0.01786 56.79847 63.07446
78.0 0.01282 56.80174 63.68171
70.0 0.01429 56.80500 64.42345
57.0 0.01754 56.80827 65.33400
72.0 0.01389 56.81151 66.44408
55.0 0.01818 56.81477 67.79649
83.0 0.01205 56.81799 69.42556
76.0 0.01316 56.82123 71.37578
83.0 0.01205 56.82446 73.67162
75.0 0.01333 56.82767 76.34230
73.0 0.01370 56.83088 79.37655
79.0 0.01266 56.83409 82.75038
77.0 0.01299 56.83728 86.35914
90.0 0.01111 56.84048 90.04265
93.0 0.01075 56.84366 93.50728
87.0 0.01149 56.84684 96.38595
109.0 0.00917 56.85001 98.19801
106.0 0.00943 56.85317 98.73723
104.0 0.00962 56.85633 97.85567
79.0 0.01266 56.85948 95.74039
94.0 0.01064 56.86263 92.75663
85.0 0.01176 56.86576 89.33262
93.0 0.01075 56.86889 85.80587
80.0 0.01250 56.87201 82.43310
89.0 0.01124 56.87513 79.34585
94.0 0.01064 56.87824 76.62846
80.0 0.01250 56.88134 74.29574
72.0 0.01389 56.88444 72.35391
70.0 0.01429 56.88753 70.77630
82.0 0.01220 56.89061 69.54111
66.0 0.01515 56.89368 68.61875
56.0 0.01786 56.89675 67.97731
63.0 0.01587 56.89980 67.59651
64.0 0.01563 56.90286 67.45653
64.0 0.01563 56.90591 67.54537
55.0 0.01818 56.90895 67.85606
78.0 0.01282 56.91198 68.38367
61.0 0.01639 56.91501 69.12768
70.0 0.01429 56.91803 70.08044
79.0 0.01266 56.92104 71.23381
80.0 0.01250 56.92405 72.55714
71.0 0.01408 56.92704 74.00529
83.0 0.01205 56.93003 75.48610
75.0 0.01333 56.93302 76.87379
85.0 0.01176 56.93600 77.96819
83.0 0.01205 56.93896 78.64496
77.0 0.01299 56.94193 78.75557
76.0 0.01316 56.94489 78.28207
83.0 0.01205 56.94784 77.31959
83.0 0.01205 56.95078 76.03890
81.0 0.01235 56.95371 74.61112
80.0 0.01250 56.95664 73.18426
74.0 0.01351 56.95956 71.84946
63.0 0.01587 56.96248 70.66830
66.0 0.01515 56.96539 69.66402
71.0 0.01408 56.96828 68.84987
65.0 0.01538 56.97118 68.22120
56.0 0.01786 56.97407 67.77259
69.0 0.01449 56.97694 67.49361
65.0 0.01538 56.97982 67.37285
69.0 0.01449 56.98268 67.40273
67.0 0.01493 56.98554 67.57854
74.0 0.01351 56.98839 67.89983
58.0 0.01724 56.99123 68.37469
85.0 0.01176 56.99407 69.01601
84.0 0.01190 56.99690 69.85032
71.0 0.01408 56.99973 70.90868
73.0 0.01370 57.00254 72.24091
89.0 0.01124 57.00535 73.89870
87.0 0.01149 57.00816 75.95646
84.0 0.01190 57.01094 78.48264
70.0 0.01429 57.01374 81.56923
82.0 0.01220 57.01651 85.28622
78.0 0.01282 57.01928 89.71360
76.0 0.01316 57.02205 94.91908
112.0 0.00893 57.02481 100.90582
97.0 0.01031 57.02757 107.66440
104.0 0.00962 57.03031 115.04333
117.0 0.00855 57.03305 122.80373
115.0 0.00870 57.03578 130.44962
146.0 0.00685 57.03850 137.31587
183.0 0.00546 57.04122 142.51509
165.0 0.00606 57.04393 145.24101
142.0 0.00704 57.04663 145.00285
162.0 0.00617 57.04934 141.86000
147.0 0.00680 57.05202 136.42242
107.0 0.00935 57.05470 129.56650
130.0 0.00769 57.05737 122.09512
110.0 0.00909 57.06004 114.68816
115.0 0.00870 57.06271 107.73699
100.0 0.01000 57.06536 101.50391
87.0 0.01149 57.06800 96.07268
90.0 0.01111 57.07064 91.49284
94.0 0.01064 57.07327 87.72810
89.0 0.01124 57.07590 84.75017
86.0 0.01163 57.07852 82.49416
76.0 0.01316 57.08113 80.91630
80.0 0.01250 57.08374 79.96507
82.0 0.01220 57.08634 79.61100
95.0 0.01053 57.08892 79.83241
96.0 0.01042 57.09150 80.62525
68.0 0.01471 57.09408 81.99081
78.0 0.01282 57.09665 83.94404
75.0 0.01333 57.09921 86.48472
79.0 0.01266 57.10177 89.61752
82.0 0.01220 57.10431 93.29701
94.0 0.01064 57.10685 97.45396
88.0 0.01136 57.10939 101.90705
124.0 0.00806 57.11192 106.39011
134.0 0.00746 57.11443 110.46174
113.0 0.00885 57.11695 113.59888
117.0 0.00855 57.11946 115.25173
119.0 0.00840 57.12196 115.07366
118.0 0.00847 57.12445 113.05397
112.0 0.00893 57.12693 109.52041
102.0 0.00980 57.12941 104.99073
81.0 0.01235 57.13188 100.01756
98.0 0.01020 57.13435 95.00645
86.0 0.01163 57.13680 90.25847
76.0 0.01316 57.13926 85.91477
93.0 0.01075 57.14170 82.06524
83.0 0.01205 57.14413 78.71179
103.0 0.00971 57.14656 75.85030
66.0 0.01515 57.14899 73.43215
77.0 0.01299 57.15140 71.41876
80.0 0.01250 57.15382 69.74971
74.0 0.01351 57.15622 68.37817
71.0 0.01408 57.15861 67.25555
63.0 0.01587 57.16100 66.33336
68.0 0.01471 57.16338 65.57975
70.0 0.01429 57.16576 64.96181
66.0 0.01515 57.16812 64.45881
67.0 0.01493 57.17048 64.05148
59.0 0.01695 57.17283 63.72950
67.0 0.01493 57.17519 63.48391
81.0 0.01235 57.17752 63.31149
66.0 0.01515 57.17986 63.20997
61.0 0.01639 57.18219 63.17991
63.0 0.01587 57.18451 63.22229
68.0 0.01471 57.18681 63.33809
61.0 0.01639 57.18913 63.52781
60.0 0.01667 57.19143 63.78829
77.0 0.01299 57.19371 64.11289
73.0 0.01370 57.19600 64.48795
66.0 0.01515 57.19828 64.88622
65.0 0.01538 57.20055 65.26871
67.0 0.01493 57.20282 65.57895
57.0 0.01754 57.20508 65.75275
57.0 0.01754 57.20733 65.74759
74.0 0.01351 57.20958 65.54749
61.0 0.01639 57.21182 65.16035
74.0 0.01351 57.21405 64.64206
64.0 0.01563 57.21627 64.05457
65.0 0.01538 57.21850 63.44817
45.0 0.02222 57.22071 62.86229
76.0 0.01316 57.22291 62.32034
63.0 0.01587 57.22511 61.83166
57.0 0.01754 57.22730 61.40323
63.0 0.01587 57.22949 61.03329
54.0 0.01852 57.23167 60.72055
73.0 0.01370 57.23384 60.45961
61.0 0.01639 57.23601 60.24681
68.0 0.01471 57.23817 60.07659
62.0 0.01613 57.24032 59.94540
67.0 0.01493 57.24247 59.84916
51.0 0.01961 57.24461 59.78557
60.0 0.01667 57.24674 59.75245
59.0 0.01695 57.24887 59.74869
61.0 0.01639 57.25099 59.77347
84.0 0.01190 57.25311 59.82602
58.0 0.01724 57.25521 59.90524
69.0 0.01449 57.25731 60.00928
68.0 0.01471 57.25940 60.13369
63.0 0.01587 57.26150 60.27166
50.0 0.02000 57.26357 60.41079
64.0 0.01563 57.26565 60.53434
57.0 0.01754 57.26772 60.61626
62.0 0.01613 57.26979 60.64520
74.0 0.01351 57.27184 60.60397
56.0 0.01786 57.27389 60.49891
58.0 0.01724 57.27593 60.33226
53.0 0.01887 57.27797 60.12963
58.0 0.01724 57.28000 59.91189
64.0 0.01563 57.28202 59.69523
60.0 0.01667 57.28405 59.48911
62.0 0.01613 57.28606 59.30045
60.0 0.01667 57.28806 59.13118
71.0 0.01408 57.29006 58.98251
52.0 0.01923 57.29206 58.85313
66.0 0.01515 57.29405 58.74203
63.0 0.01587 57.29603 58.64691
55.0 0.01818 57.29800 58.56602
62.0 0.01613 57.29997 58.49700
56.0 0.01786 57.30193 58.43817
47.0 0.02128 57.30389 58.38755
74.0 0.01351 57.30584 58.34384
63.0 0.01587 57.30779 58.30559
52.0 0.01923 57.30973 58.27195
48.0 0.02083 57.31165 58.24196
59.0 0.01695 57.31358 58.21498
69.0 0.01449 57.31550 58.19061
51.0 0.01961 57.31742 58.16833
51.0 0.01961 57.31932 58.14795
47.0 0.02128 57.32123 58.12918
59.0 0.01695 57.32312 58.11186
47.0 0.02128 57.32502 58.09579
72.0 0.01389 57.32690 58.08091
55.0 0.01818 57.32878 58.06704
58.0 0.01724 57.33065 58.05416
60.0 0.01667 57.33252 58.04213
67.0 0.01493 57.33438 58.03094
64.0 0.01563 57.33623 58.02053
63.0 0.01587 57.33809 58.01078
63.0 0.01587 57.33993 57.96220
61.0 0.01639 57.34177 57.95415
46.0 0.02174 57.34360 57.94670
46.0 0.02174 57.34542 57.93980
63.0 0.01587 57.34724 57.93344
42.0 0.02381 57.34906 57.92759
58.0 0.01724 57.35087 57.92222
62.0 0.01613 57.35267 57.91732
58.0 0.01724 57.35447 57.91290
49.0 0.02041 57.35626 57.90892
58.0 0.01724 57.35805 57.90538
68.0 0.01471 57.35983 57.90228
63.0 0.01587 57.36161 57.89960
51.0 0.01961 57.36338 57.89737
54.0 0.01852 57.36514 57.89553
56.0 0.01786 57.36689 57.89415
50.0 0.02000 57.36865 57.89318
69.0 0.01449 57.37040 57.89267
57.0 0.01754 57.37214 57.89260
57.0 0.01754 57.37388 57.89297
59.0 0.01695 57.37561 57.89383
58.0 0.01724 57.37733 57.89516
63.0 0.01587 57.37906 57.89702
53.0 0.01887 57.38077 57.89939
57.0 0.01754 57.38248 57.90232
60.0 0.01667 57.38419 57.90584
49.0 0.02041 57.38588 57.90997
47.0 0.02128 57.38758 57.91478
60.0 0.01667 57.38927 57.92027
76.0 0.01316 57.39096 57.90944
66.0 0.01515 57.39263 57.91669
61.0 0.01639 57.39431 57.92484
56.0 0.01786 57.39597 57.93393
57.0 0.01754 57.39764 57.94410
65.0 0.01538 57.39930 57.95541
58.0 0.01724 57.40095 57.96802
63.0 0.01587 57.40260 57.98203
65.0 0.01538 57.40424 57.99764
52.0 0.01923 57.40588 58.01502
73.0 0.01370 57.40751 58.03437
57.0 0.01754 57.40914 58.05606
66.0 0.01515 57.41076 58.08033
66.0 0.01515 57.41238 58.10767
63.0 0.01587 57.41399 58.13856
53.0 0.01887 57.41560 58.17376
50.0 0.02000 57.41720 58.21403
58.0 0.01724 57.41880 58.26067
57.0 0.01754 57.42039 58.31500
65.0 0.01538 57.42198 58.37910
44.0 0.02273 57.42356 58.45515
52.0 0.01923 57.42514 58.54642
62.0 0.01613 57.42672 58.65614
58.0 0.01724 57.42830 58.78896
49.0 0.02041 57.42985 58.94909
57.0 0.01754 57.43141 59.14194
50.0 0.02000 57.43297 59.37328
56.0 0.01786 57.43452 59.64730
57.0 0.01754 57.43607 59.96941
54.0 0.01852 57.43761 60.34128
66.0 0.01515 57.43915 60.76464
65.0 0.01538 57.44068 61.23392
73.0 0.01370 57.44221 61.74027
69.0 0.01449 57.44373 62.26101
62.0 0.01613 57.44525 62.76418
67.0 0.01493 57.44677 63.20013
65.0 0.01538 57.44827 63.51477
66.0 0.01515 57.44979 63.57319
73.0 0.01370 57.45129 63.54833
65.0 0.01538 57.45279 63.31154
54.0 0.01852 57.45427 62.93199
64.0 0.01563 57.45576 62.46372
75.0 0.01333 57.45725 61.96074
70.0 0.01429 57.45873 61.46096
75.0 0.01333 57.46021 60.99220
64.0 0.01563 57.46168 60.56714
64.0 0.01563 57.46315 60.19400
63.0 0.01587 57.46461 59.87283
68.0 0.01471 57.46607 59.60334
51.0 0.01961 57.46753 59.38116
54.0 0.01852 57.46898 59.20305
44.0 0.02273 57.47043 59.06392
61.0 0.01639 57.47187 58.96013
65.0 0.01538 57.47331 58.88773
83.0 0.01205 57.47475 58.84366
51.0 0.01961 57.47618 58.82581
63.0 0.01587 57.47761 58.83251
47.0 0.02128 57.47903 58.86269
63.0 0.01587 57.48045 58.91576
55.0 0.01818 57.48187 58.99083
55.0 0.01818 57.48328 59.08720
53.0 0.01887 57.48469 59.20258
70.0 0.01429 57.48610 59.33384
49.0 0.02041 57.48750 59.47420
56.0 0.01786 57.48890 59.61425
73.0 0.01370 57.49029 59.73945
56.0 0.01786 57.49168 59.77886
68.0 0.01471 57.49306 59.82595
71.0 0.01408 57.49445 59.81669
69.0 0.01449 57.49583 59.76648
56.0 0.01786 57.49721 59.65877
65.0 0.01538 57.49858 59.52338
65.0 0.01538 57.49995 59.37701
62.0 0.01613 57.50132 59.23187
56.0 0.01786 57.50268 59.09708
50.0 0.02000 57.50404 58.97715
62.0 0.01613 57.50539 58.87502
58.0 0.01724 57.50675 58.79115
55.0 0.01818 57.50810 58.72578
58.0 0.01724 57.50945 58.67804
56.0 0.01786 57.51079 58.64731
78.0 0.01282 57.51212 58.63270
59.0 0.01695 57.51347 58.63368
55.0 0.01818 57.51480 58.65007
58.0 0.01724 57.51613 58.68231
61.0 0.01639 57.51746 58.73129
59.0 0.01695 57.51878 58.79896
53.0 0.01887 57.52010 58.88760
36.0 0.02778 57.52142 59.00089
64.0 0.01563 57.52274 59.14251
68.0 0.01471 57.52405 59.31771
62.0 0.01613 57.52536 59.53091
56.0 0.01786 57.52667 59.78817
58.0 0.01724 57.52797 60.09359
55.0 0.01818 57.52927 60.45052
51.0 0.01961 57.53057 60.86273
54.0 0.01852 57.53186 61.32705
59.0 0.01695 57.53316 61.83884
66.0 0.01515 57.53445 62.38155
62.0 0.01613 57.53574 62.93111
69.0 0.01449 57.53702 63.44501
62.0 0.01613 57.53831 63.87182
68.0 0.01471 57.53958 64.14642
68.0 0.01471 57.54086 64.23763
74.0 0.01351 57.54213 64.13110
75.0 0.01333 57.54341 63.83621
65.0 0.01538 57.54468 63.40979
65.0 0.01538 57.54594 62.90827
60.0 0.01667 57.54721 62.38478
66.0 0.01515 57.54847 61.87575
69.0 0.01449 57.54974 61.40395
75.0 0.01333 57.55099 60.98422
63.0 0.01587 57.55225 60.62074
58.0 0.01724 57.55350 60.31624
69.0 0.01449 57.55475 60.06824
61.0 0.01639 57.55600 59.87514
78.0 0.01282 57.55725 59.73315
54.0 0.01852 57.55849 59.63996
59.0 0.01695 57.55973 59.59295
55.0 0.01818 57.56098 59.59095
58.0 0.01724 57.56221 59.63354
69.0 0.01449 57.56345 59.72119
52.0 0.01923 57.56469 59.85523
58.0 0.01724 57.56592 60.03784
65.0 0.01538 57.56715 60.27002
60.0 0.01667 57.56838 60.55363
53.0 0.01887 57.56961 60.88678
52.0 0.01923 57.57083 61.26678
71.0 0.01408 57.57206 61.68288
72.0 0.01389 57.57328 62.11933
61.0 0.01639 57.57450 62.54614
60.0 0.01667 57.57572 62.92470
48.0 0.02083 57.57693 63.20314
60.0 0.01667 57.57815 63.34164
63.0 0.01587 57.57936 63.31063
67.0 0.01493 57.58057 63.11379
76.0 0.01316 57.58179 62.78971
57.0 0.01754 57.58299 62.36921
59.0 0.01695 57.58420 61.90614
63.0 0.01587 57.58541 61.43975
57.0 0.01754 57.58662 60.99366
73.0 0.01370 57.58782 60.58442
62.0 0.01613 57.58902 60.21761
84.0 0.01190 57.59022 59.89675
69.0 0.01449 57.59142 59.61956
51.0 0.01961 57.59262 59.38414
56.0 0.01786 57.59381 59.18555
71.0 0.01408 57.59501 59.02011
52.0 0.01923 57.59621 58.88252
63.0 0.01587 57.59740 58.76892
55.0 0.01818 57.59859 58.67498
56.0 0.01786 57.59978 58.59702
70.0 0.01429 57.60097 58.53230
63.0 0.01587 57.60217 58.47808
57.0 0.01754 57.60335 58.43251
53.0 0.01887 57.60455 58.39383
51.0 0.01961 57.60573 58.36093
76.0 0.01316 57.60692 58.33270
49.0 0.02041 57.60810 58.30849
71.0 0.01408 57.60929 58.28764
57.0 0.01754 57.61047 58.26974
53.0 0.01887 57.61166 58.25439
67.0 0.01493 57.61283 58.24132
55.0 0.01818 57.61402 58.23032
58.0 0.01724 57.61520 58.22112
61.0 0.01639 57.61638 58.21363
66.0 0.01515 57.61756 58.20767
64.0 0.01563 57.61874 58.20315
56.0 0.01786 57.61992 58.19995
59.0 0.01695 57.62109 58.19803
59.0 0.01695 57.62228 58.25204
63.0 0.01587 57.62346 58.25300
58.0 0.01724 57.62463 58.25506
67.0 0.01493 57.62580 58.25819
66.0 0.01515 57.62698 58.26236
51.0 0.01961 57.62816 58.26755
50.0 0.02000 57.62934 58.27376
64.0 0.01563 57.63052 58.28097
72.0 0.01389 57.63169 58.28919
48.0 0.02083 57.63287 58.29844
66.0 0.01515 57.63404 58.30873
43.0 0.02326 57.63522 58.32010
60.0 0.01667 57.63640 58.33253
45.0 0.02222 57.63757 58.34612
43.0 0.02326 57.63875 58.36086
67.0 0.01493 57.63993 58.37686
62.0 0.01613 57.64110 58.39412
60.0 0.01667 57.64228 58.41277
69.0 0.01449 57.64346 58.43281
55.0 0.01818 57.64463 58.45442
69.0 0.01449 57.64581 58.47765
70.0 0.01429 57.64698 58.50256
58.0 0.01724 57.64816 58.52942
60.0 0.01667 57.64934 58.55824
71.0 0.01408 57.65052 58.58930
61.0 0.01639 57.65170 58.62265
74.0 0.01351 57.65288 58.65865
48.0 0.02083 57.65406 58.69738
48.0 0.02083 57.65524 58.73926
62.0 0.01613 57.65642 58.78442
51.0 0.01961 57.65760 58.83339
67.0 0.01493 57.65878 58.88637
58.0 0.01724 57.65997 58.98174
67.0 0.01493 57.66115 59.04470
65.0 0.01538 57.66234 59.11346
59.0 0.01695 57.66352 59.18843
58.0 0.01724 57.66471 59.27056
51.0 0.01961 57.66589 59.36099
53.0 0.01887 57.66708 59.46055
64.0 0.01563 57.66827 59.57106
67.0 0.01493 57.66946 59.69388
58.0 0.01724 57.67065 59.83171
74.0 0.01351 57.67184 59.98690
65.0 0.01538 57.67303 60.16373
66.0 0.01515 57.67422 60.36619
60.0 0.01667 57.67542 60.60114
58.0 0.01724 57.67661 60.87524
65.0 0.01538 57.67781 61.19908
55.0 0.01818 57.67901 61.58338
50.0 0.02000 57.68021 62.04123
62.0 0.01613 57.68141 62.59100
60.0 0.01667 57.68261 63.24788
74.0 0.01351 57.68382 64.03365
74.0 0.01351 57.68502 64.96477
55.0 0.01818 57.68623 66.06357
69.0 0.01449 57.68743 67.34161
67.0 0.01493 57.68864 68.81438
74.0 0.01351 57.68985 70.47738
67.0 0.01493 57.69107 72.32297
69.0 0.01449 57.69228 74.30588
72.0 0.01389 57.69349 76.35999
92.0 0.01087 57.69471 78.35665
62.0 0.01613 57.69593 80.13202
81.0 0.01235 57.69715 81.46806
97.0 0.01031 57.69837 82.18951
73.0 0.01370 57.69959 82.17464
92.0 0.01087 57.70082 81.43300
78.0 0.01282 57.70205 80.09180
87.0 0.01149 57.70327 78.35455
71.0 0.01408 57.70451 76.41792
87.0 0.01149 57.70574 74.45506
65.0 0.01538 57.70697 72.57323
72.0 0.01389 57.70821 70.84898
69.0 0.01449 57.70945 69.31130
57.0 0.01754 57.71069 67.97965
74.0 0.01351 57.71194 66.84843
74.0 0.01351 57.71318 65.91371
70.0 0.01429 57.71442 65.16052
67.0 0.01493 57.71568 64.57387
69.0 0.01449 57.71692 64.14224
78.0 0.01282 57.71818 63.85192
69.0 0.01449 57.71944 63.69442
54.0 0.01852 57.72070 63.66254
78.0 0.01282 57.72196 63.75264
67.0 0.01493 57.72322 63.96386
69.0 0.01449 57.72449 64.29588
81.0 0.01235 57.72576 64.75114
60.0 0.01667 57.72703 65.32811
82.0 0.01220 57.72831 66.02625
68.0 0.01471 57.72958 66.83482
65.0 0.01538 57.73086 67.73319
59.0 0.01695 57.73214 68.69026
70.0 0.01429 57.73342 69.64323
73.0 0.01370 57.73471 70.51173
76.0 0.01316 57.73600 71.18654
68.0 0.01471 57.73729 71.57030
73.0 0.01370 57.73859 71.58836
67.0 0.01493 57.73989 71.22969
67.0 0.01493 57.74118 70.54914
60.0 0.01667 57.74249 69.64019
68.0 0.01471 57.74380 68.61192
80.0 0.01250 57.74511 67.55050
65.0 0.01538 57.74642 66.52458
62.0 0.01613 57.74774 65.57035
66.0 0.01515 57.74905 64.71284
71.0 0.01408 57.75038 63.95860
63.0 0.01587 57.75170 63.30687
56.0 0.01786 57.75303 62.75571
55.0 0.01818 57.75436 62.29564
62.0 0.01613 57.75570 61.91987
76.0 0.01316 57.75704 61.61797
68.0 0.01471 57.75838 61.38269
62.0 0.01613 57.75972 61.20571
60.0 0.01667 57.76107 61.08168
63.0 0.01587 57.76242 61.00577
71.0 0.01408 57.76378 60.97559
58.0 0.01724 57.76514 60.98999
67.0 0.01493 57.76650 61.04942
61.0 0.01639 57.76786 61.15519
54.0 0.01852 57.76923 61.31030
56.0 0.01786 57.77060 61.51670
63.0 0.01587 57.77198 61.77761
56.0 0.01786 57.77336 62.09330
63.0 0.01587 57.77475 62.46414
63.0 0.01587 57.77613 62.88406
71.0 0.01408 57.77752 63.34406
46.0 0.02174 57.77892 63.82269
58.0 0.01724 57.78032 64.29030
84.0 0.01190 57.78172 64.70123
86.0 0.01163 57.78313 64.99873
61.0 0.01639 57.78454 65.14901
59.0 0.01695 57.78596 65.12029
75.0 0.01333 57.78737 64.94881
78.0 0.01282 57.78879 64.61089
67.0 0.01493 57.79022 64.18528
62.0 0.01613 57.79165 63.72311
63.0 0.01587 57.79309 63.26201
69.0 0.01449 57.79453 62.83048
71.0 0.01408 57.79597 62.44276
46.0 0.02174 57.79742 62.10856
59.0 0.01695 57.79887 61.82977
51.0 0.01961 57.80032 61.60770
54.0 0.01852 57.80178 61.44012
55.0 0.01818 57.80325 61.32570
70.0 0.01429 57.80472 61.26207
62.0 0.01613 57.80619 61.24812
74.0 0.01351 57.80767 61.28321
50.0 0.02000 57.80915 61.36831
68.0 0.01471 57.81063 61.50497
61.0 0.01639 57.81213 61.69680
72.0 0.01389 57.81362 61.94698
64.0 0.01563 57.81512 62.26084
73.0 0.01370 57.81663 62.64143
70.0 0.01429 57.81814 63.09353
59.0 0.01695 57.81965 63.61664
77.0 0.01299 57.82117 64.21033
72.0 0.01389 57.82270 64.86363
61.0 0.01639 57.82423 65.56085
64.0 0.01563 57.82576 66.26743
70.0 0.01429 57.82730 66.93762
46.0 0.02174 57.82884 67.49989
75.0 0.01333 57.83039 67.90020
73.0 0.01370 57.83194 68.08094
82.0 0.01220 57.83350 68.02501
55.0 0.01818 57.83506 67.75866
68.0 0.01471 57.83663 67.35561
65.0 0.01538 57.83820 66.85509
66.0 0.01515 57.83978 66.33546
62.0 0.01613 57.84137 65.84143
75.0 0.01333 57.84295 65.40554
61.0 0.01639 57.84455 65.04429
60.0 0.01667 57.84614 64.76882
73.0 0.01370 57.84775 64.58276
69.0 0.01449 57.84936 64.48891
71.0 0.01408 57.85097 64.48820
66.0 0.01515 57.85259 64.58266
61.0 0.01639 57.85421 64.77547
60.0 0.01667 57.85585 65.07370
70.0 0.01429 57.85748 65.48606
70.0 0.01429 57.85912 66.02846
69.0 0.01449 57.86077 66.71783
71.0 0.01408 57.86243 67.58097
76.0 0.01316 57.86408 68.64331
77.0 0.01299 57.86575 69.94186
54.0 0.01852 57.86741 71.50690
82.0 0.01220 57.86909 73.38064
70.0 0.01429 57.87077 75.58941
72.0 0.01389 57.87246 78.16945
59.0 0.01695 57.87415 81.12627
75.0 0.01333 57.87584 84.46017
82.0 0.01220 57.87755 88.14157
89.0 0.01124 57.87926 92.06835
96.0 0.01042 57.88097 96.09447
105.0 0.00952 57.88269 99.94972
130.0 0.00769 57.88442 103.29964
111.0 0.00901 57.88615 105.73125
133.0 0.00752 57.88789 106.89985
127.0 0.00787 57.88963 106.61654
100.0 0.01000 57.89139 104.96812
97.0 0.01031 57.89314 102.18670
103.0 0.00971 57.89491 98.68139
85.0 0.01176 57.89667 94.85204
86.0 0.01163 57.89845 90.99982
83.0 0.01205 57.90023 87.32806
80.0 0.01250 57.90202 83.97705
67.0 0.01493 57.90381 80.99816
79.0 0.01266 57.90561 78.42670
85.0 0.01176 57.90741 76.25111
82.0 0.01220 57.90923 74.46408
70.0 0.01429 57.91105 73.03533
69.0 0.01449 57.91287 71.94496
69.0 0.01449 57.91470 71.16451
76.0 0.01316 57.91654 70.67677
78.0 0.01282 57.91838 70.46512
77.0 0.01299 57.92023 70.52229
68.0 0.01471 57.92208 70.84510
71.0 0.01408 57.92395 71.43907
74.0 0.01351 57.92582 72.30910
83.0 0.01205 57.92770 73.46767
79.0 0.01266 57.92958 74.91758
82.0 0.01220 57.93147 76.66586
87.0 0.01149 57.93336 78.69474
75.0 0.01333 57.93526 80.97989
75.0 0.01333 57.93717 83.44611
86.0 0.01163 57.93909 85.98689
99.0 0.01010 57.94101 88.41342
108.0 0.00926 57.94294 90.49336
84.0 0.01190 57.94488 91.94556
87.0 0.01149 57.94682 92.53776
112.0 0.00893 57.94877 92.14777
77.0 0.01299 57.95073 90.82373
104.0 0.00962 57.95269 88.75280
80.0 0.01250 57.95466 86.22900
69.0 0.01449 57.95664 83.45946
74.0 0.01351 57.95862 80.68095
75.0 0.01333 57.96062 78.02201
64.0 0.01563 57.96261 75.57504
78.0 0.01282 57.96462 73.37081
68.0 0.01471 57.96663 71.43045
62.0 0.01613 57.96865 69.74123
62.0 0.01613 57.97068 68.29401
70.0 0.01429 57.97271 67.06113
78.0 0.01282 57.97475 66.02161
56.0 0.01786 57.97680 65.14997
63.0 0.01587 57.97886 64.41718
50.0 0.02000 57.98092 63.80393
62.0 0.01613 57.98299 63.28721
61.0 0.01639 57.98507 62.85123
74.0 0.01351 57.98715 62.47937
72.0 0.01389 57.98924 62.16083
66.0 0.01515 57.99134 61.88454
66.0 0.01515 57.99344 61.64376
66.0 0.01515 57.99556 61.43144
51.0 0.01961 57.99768 61.24361
67.0 0.01493 57.99981 61.07578
66.0 0.01515 58.00195 60.92565
48.0 0.02083 58.00409 60.79027
66.0 0.01515 58.00624 60.66827
62.0 0.01613 58.00840 60.55780
70.0 0.01429 58.01057 60.45740
51.0 0.01961 58.01274 60.36637
62.0 0.01613 58.01493 60.25645
67.0 0.01493 58.01711 60.18137
70.0 0.01429 58.01931 60.11292
49.0 0.02041 58.02151 60.05076
76.0 0.01316 58.02373 60.00397
55.0 0.01818 58.02595 59.95275
71.0 0.01408 58.02818 59.90622
71.0 0.01408 58.03041 59.86424
71.0 0.01408 58.03265 59.82632
70.0 0.01429 58.03491 59.79232
52.0 0.01923 58.03716 59.76203
65.0 0.01538 58.03943 59.73510
53.0 0.01887 58.04170 59.71150
66.0 0.01515 58.04399 59.69098
54.0 0.01852 58.04627 59.67352
81.0 0.01235 58.04858 59.65892
57.0 0.01754 58.05088 59.64716
71.0 0.01408 58.05320 59.63815
65.0 0.01538 58.05552 59.63187
65.0 0.01538 58.05785 59.62827
60.0 0.01667 58.06019 59.62735
63.0 0.01587 58.06254 59.62912
64.0 0.01563 58.06489 59.63359
48.0 0.02083 58.06726 59.64083
55.0 0.01818 58.06962 59.65091
64.0 0.01563 58.07200 59.66386
46.0 0.02174 58.07439 59.67987
70.0 0.01429 58.07678 59.69899
53.0 0.01887 58.07919 59.72147
60.0 0.01667 58.08160 59.74738
65.0 0.01538 58.08402 59.77705
63.0 0.01587 58.08645 59.79654
70.0 0.01429 58.08889 59.83460
64.0 0.01563 58.09133 59.87716
62.0 0.01613 58.09378 59.92484
82.0 0.01220 58.09624 59.97786
63.0 0.01587 58.09872 60.03700
69.0 0.01449 58.10120 60.10487
67.0 0.01493 58.10368 60.17780
65.0 0.01538 58.10617 60.25918
56.0 0.01786 58.10868 60.34968
63.0 0.01587 58.11119 60.45092
56.0 0.01786 58.11371 60.56407
61.0 0.01639 58.11625 60.69157
60.0 0.01667 58.11878 60.83538
78.0 0.01282 58.12133 60.99926
62.0 0.01613 58.12388 61.18663
75.0 0.01333 58.12645 61.40346
51.0 0.01961 58.12902 61.65552
83.0 0.01205 58.13160 61.95218
58.0 0.01724 58.13419 62.30261
69.0 0.01449 58.13679 62.72075
72.0 0.01389 58.13940 63.21975
56.0 0.01786 58.14201 63.81730
60.0 0.01667 58.14463 64.53366
70.0 0.01429 58.14726 65.38604
67.0 0.01493 58.14991 66.39796
66.0 0.01515 58.15256 67.58439
72.0 0.01389 58.15522 68.96579
76.0 0.01316 58.15788 70.54653
90.0 0.01111 58.16057 72.33254
57.0 0.01754 58.16325 74.30027
79.0 0.01266 58.16594 76.41546
81.0 0.01235 58.16864 78.59120
85.0 0.01176 58.17136 80.70866
76.0 0.01316 58.17408 82.57673
79.0 0.01266 58.17680 83.99643
71.0 0.01408 58.17955 84.76928
71.0 0.01408 58.18229 84.77071
75.0 0.01333 58.18505 84.00684
76.0 0.01316 58.18782 82.61025
74.0 0.01351 58.19060 80.77830
86.0 0.01163 58.19337 78.72885
83.0 0.01205 58.19617 76.62902
72.0 0.01389 58.19897 74.61032
53.0 0.01887 58.20179 72.74094
74.0 0.01351 58.20460 71.06865
65.0 0.01538 58.20744 69.60309
67.0 0.01493 58.21027 68.34991
71.0 0.01408 58.21312 67.30122
78.0 0.01282 58.21598 66.43876
77.0 0.01299 58.21884 65.75153
53.0 0.01887 58.22171 65.22092
85.0 0.01176 58.22460 64.83450
69.0 0.01449 58.22749 64.57846
65.0 0.01538 58.23039 64.44447
69.0 0.01449 58.23331 64.42585
80.0 0.01250 58.23623 64.51953
63.0 0.01587 58.23916 64.72537
56.0 0.01786 58.24209 65.04391
68.0 0.01471 58.24504 65.47857
63.0 0.01587 58.24800 66.02937
68.0 0.01471 58.25097 66.69790
62.0 0.01613 58.25395 67.47639
79.0 0.01266 58.25693 68.35259
76.0 0.01316 58.25993 69.30208
83.0 0.01205 58.26293 70.27591
70.0 0.01429 58.26595 71.20039
67.0 0.01493 58.26897 71.99779
62.0 0.01613 58.27200 72.56055
73.0 0.01370 58.27504 72.80011
75.0 0.01333 58.27810 72.67627
63.0 0.01587 58.28115 72.21047
57.0 0.01754 58.28423 71.47534
70.0 0.01429 58.28730 70.57350
73.0 0.01370 58.29039 69.59832
69.0 0.01449 58.29350 68.62922
62.0 0.01613 58.29660 67.71931
64.0 0.01563 58.29972 66.89584
87.0 0.01149 58.30284 66.17960
67.0 0.01493 58.30598 65.57452
79.0 0.01266 58.30912 65.08387
61.0 0.01639 58.31228 64.70338
62.0 0.01613 58.31544 64.43089
74.0 0.01351 58.31862 64.26168
79.0 0.01266 58.32180 64.19398
78.0 0.01282 58.32500 64.22694
52.0 0.01923 58.32820 64.36246
58.0 0.01724 58.33142 64.60586
46.0 0.02174 58.33464 64.96389
77.0 0.01299 58.33787 65.44835
54.0 0.01852 58.34111 66.06972
67.0 0.01493 58.34436 66.84235
70.0 0.01429 58.34763 67.78167
78.0 0.01282 58.35089 68.89565
78.0 0.01282 58.35418 70.19613
83.0 0.01205 58.35747 71.67795
66.0 0.01515 58.36077 73.33424
75.0 0.01333 58.36407 75.12608
81.0 0.01235 58.36740 76.99845
91.0 0.01099 58.37073 78.84289
81.0 0.01235 58.37407 80.46610
99.0 0.01010 58.37741 81.79379
79.0 0.01266 58.38077 82.59757
100.0 0.01000 58.38414 82.75032
79.0 0.01266 58.38751 82.23134
67.0 0.01493 58.39090 81.12368
61.0 0.01639 58.39429 79.63720
84.0 0.01190 58.39771 77.86459
75.0 0.01333 58.40112 76.01710
61.0 0.01639 58.40455 74.20772
78.0 0.01282 58.40799 72.52106
78.0 0.01282 58.41143 70.99455
67.0 0.01493 58.41489 69.65472
66.0 0.01515 58.41836 68.50168
63.0 0.01587 58.42183 67.53620
61.0 0.01639 58.42532 66.74555
60.0 0.01667 58.42881 66.12151
59.0 0.01695 58.43232 65.64989
64.0 0.01563 58.43584 65.32195
75.0 0.01333 58.43936 65.12813
84.0 0.01190 58.44290 65.06276
59.0 0.01695 58.44644 65.12354
77.0 0.01299 58.45000 65.31126
65.0 0.01538 58.45356 65.62835
74.0 0.01351 58.45713 66.08126
70.0 0.01429 58.46072 66.67435
76.0 0.01316 58.46431 67.41559
84.0 0.01190 58.46792 68.30546
59.0 0.01695 58.47153 69.34570
74.0 0.01351 58.47515 70.52201
52.0 0.01923 58.47879 71.81441
84.0 0.01190 58.48244 73.17345
73.0 0.01370 58.48609 74.48508
73.0 0.01370 58.48975 75.72446
67.0 0.01493 58.49342 76.71334
72.0 0.01389 58.49711 77.31934
69.0 0.01449 58.50080 77.44074
74.0 0.01351 58.50451 77.05171
66.0 0.01515 58.50822 76.21099
93.0 0.01075 58.51195 75.03361
66.0 0.01515 58.51568 73.67545
86.0 0.01163 58.51943 72.23019
70.0 0.01429 58.52318 70.81004
66.0 0.01515 58.52695 69.47107
70.0 0.01429 58.53072 68.25378
72.0 0.01389 58.53450 67.17007
77.0 0.01299 58.53830 66.22874
60.0 0.01667 58.54210 65.42450
59.0 0.01695 58.54591 64.74872
70.0 0.01429 58.54973 64.19437
73.0 0.01370 58.55357 63.74875
72.0 0.01389 58.55741 63.40340
65.0 0.01538 58.56127 63.14792
63.0 0.01587 58.56513 62.97584
82.0 0.01220 58.56901 62.88098
56.0 0.01786 58.57289 62.86020
64.0 0.01563 58.57679 62.91172
64.0 0.01563 58.58069 63.03522
67.0 0.01493 58.58461 63.23202
67.0 0.01493 58.58854 63.50286
66.0 0.01515 58.59246 63.84784
74.0 0.01351 58.59641 64.26778
56.0 0.01786 58.60036 64.75644
57.0 0.01754 58.60433 65.30582
71.0 0.01408 58.60830 65.89512
59.0 0.01695 58.61229 66.49561
56.0 0.01786 58.61628 67.05908
67.0 0.01493 58.62029 67.52824
63.0 0.01587 58.62430 67.83707
75.0 0.01333 58.62833 67.93413
80.0 0.01250 58.63236 67.79633
91.0 0.01099 58.63641 67.43916
59.0 0.01695 58.64047 66.91148
86.0 0.01163 58.64452 66.29605
59.0 0.01695 58.64860 65.61244
81.0 0.01235 58.65269 64.93510
59.0 0.01695 58.65678 64.28327
60.0 0.01667 58.66089 63.68390
65.0 0.01538 58.66501 63.14423
55.0 0.01818 58.66913 62.66958
62.0 0.01613 58.67327 62.25729
62.0 0.01613 58.67741 61.90562
60.0 0.01667 58.68157 61.60847
59.0 0.01695 58.68573 61.36165
57.0 0.01754 58.68991 61.15868
61.0 0.01639 58.69410 60.99513
56.0 0.01786 58.69830 60.86567
67.0 0.01493 58.70250 60.76682
57.0 0.01754 58.70671 60.69510
66.0 0.01515 58.71095 60.64798
61.0 0.01639 58.71518 60.62390
51.0 0.01961 58.71943 60.62162
59.0 0.01695 58.72368 60.64034
58.0 0.01724 58.72795 60.67957
58.0 0.01724 58.73222 60.73850
62.0 0.01613 58.73652 60.81631
58.0 0.01724 58.74081 60.91076
68.0 0.01471 58.74512 61.01875
59.0 0.01695 58.74944 61.13424
57.0 0.01754 58.75377 61.24892
60.0 0.01667 58.75810 61.35057
70.0 0.01429 58.76244 61.42510
75.0 0.01333 58.76680 61.45945
60.0 0.01667 58.77117 61.44480
58.0 0.01724 58.77555 61.38028
71.0 0.01408 58.77993 61.27356
51.0 0.01961 58.78434 61.13682
58.0 0.01724 58.78874 60.98540
66.0 0.01515 58.79316 60.82972
80.0 0.01250 58.79758 60.67761
63.0 0.01587 58.80202 60.53516
61.0 0.01639 58.80647 60.40597
51.0 0.01961 58.81093 60.29079
61.0 0.01639 58.81540 60.19021
66.0 0.01515 58.81987 60.10329
51.0 0.01961 58.82436 60.02935
60.0 0.01667 58.82885 59.96703
51.0 0.01961 58.83337 59.91487
62.0 0.01613 58.83788 59.87176
64.0 0.01563 58.84241 59.83627
75.0 0.01333 58.84695 59.80733
62.0 0.01613 58.85150 59.78382
77.0 0.01299 58.85605 59.76496
65.0 0.01538 58.86062 59.74988
63.0 0.01587 58.86520 59.73806
52.0 0.01923 58.86979 59.72898
63.0 0.01587 58.87439 59.72227
43.0 0.02326 58.87899 59.71759
51.0 0.01961 58.88361 59.71473
58.0 0.01724 58.88823 59.71349
67.0 0.01493 58.89287 59.71372
59.0 0.01695 58.89751 59.71534
60.0 0.01667 58.90218 59.71824
64.0 0.01563 58.90684 59.69265
66.0 0.01515 58.91152 59.69824
57.0 0.01754 58.91620 59.70491
59.0 0.01695 58.92091 59.71270
58.0 0.01724 58.92560 59.72154
57.0 0.01754 58.93033 59.73145
51.0 0.01961 58.93505 59.74240
55.0 0.01818 58.93979 59.77975
58.0 0.01724 58.94453 59.79306
61.0 0.01639 58.94930 59.80847
64.0 0.01563 58.95406 59.82399
51.0 0.01961 58.95883 59.84064
59.0 0.01695 58.96362 59.85849
65.0 0.01538 58.96841 59.87752
58.0 0.01724 58.97322 59.89783
60.0 0.01667 58.97803 59.91943
73.0 0.01370 58.98286 59.94242
65.0 0.01538 58.98769 59.96682
55.0 0.01818 58.99254 59.99279
71.0 0.01408 58.99739 60.02031
70.0 0.01429 59.00226 60.04961
48.0 0.02083 59.00713 60.08067
76.0 0.01316 59.01201 60.11372
72.0 0.01389 59.01691 60.14882
51.0 0.01961 59.02180 60.18609
65.0 0.01538 59.02672 60.22586
65.0 0.01538 59.03164 60.26813
59.0 0.01695 59.03658 60.31330
62.0 0.01613 59.04152 60.36142
74.0 0.01351 59.04647 60.41293
57.0 0.01754 59.05143 60.46794
71.0 0.01408 59.05640 60.52699
57.0 0.01754 59.06138 60.57578
52.0 0.01923 59.06638 60.64403
63.0 0.01587 59.07137 60.71734
59.0 0.01695 59.07639 60.79656
79.0 0.01266 59.08141 60.88200
65.0 0.01538 59.08644 60.97470
70.0 0.01429 59.09148 61.07514
69.0 0.01449 59.09652 61.18443
76.0 0.01316 59.10158 61.30396
55.0 0.01818 59.10664 61.43760
58.0 0.01724 59.11173 61.59759
55.0 0.01818 59.11681 61.75639
67.0 0.01493 59.12191 61.93299
51.0 0.01961 59.12701 62.12979
79.0 0.01266 59.13213 62.35147
61.0 0.01639 59.13725 62.60211
70.0 0.01429 59.14239 62.88897
66.0 0.01515 59.14753 63.21884
75.0 0.01333 59.15269 63.60285
53.0 0.01887 59.15786 64.05203
69.0 0.01449 59.16302 64.58015
64.0 0.01563 59.16821 65.20699
73.0 0.01370 59.17339 65.94924
78.0 0.01282 59.17860 66.83152
76.0 0.01316 59.18381 67.87376
76.0 0.01316 59.18903 69.10386
79.0 0.01266 59.19426 70.54013
69.0 0.01449 59.19950 72.20858
59.0 0.01695 59.20475 74.11758
72.0 0.01389 59.21001 76.28023
70.0 0.01429 59.21527 78.67855
59.0 0.01695 59.22055 81.28875
84.0 0.01190 59.22584 84.03471
65.0 0.01538 59.23112 86.79594
85.0 0.01176 59.23644 89.38183
90.0 0.01111 59.24175 91.60330
76.0 0.01316 59.24707 93.18611
109.0 0.00917 59.25241 93.90775
81.0 0.01235 59.25776 93.66415
81.0 0.01235 59.26310 92.50014
102.0 0.00980 59.26847 90.58905
90.0 0.01111 59.27383 88.18570
104.0 0.00962 59.27922 85.52896
83.0 0.01205 59.28460 82.83167
76.0 0.01316 59.29000 80.22643
83.0 0.01205 59.29541 77.81341
59.0 0.01695 59.30083 75.62826
72.0 0.01389 59.30625 73.70025
79.0 0.01266 59.31168 72.02613
79.0 0.01266 59.31713 70.59334
81.0 0.01235 59.32258 69.39097
57.0 0.01754 59.32804 68.39444
63.0 0.01587 59.33351 67.58678
64.0 0.01563 59.33900 66.94454
83.0 0.01205 59.34448 66.45203
74.0 0.01351 59.34999 66.09164
89.0 0.01124 59.35549 65.85232
57.0 0.01754 59.36102 65.72385
65.0 0.01538 59.36653 65.70048
80.0 0.01250 59.37207 65.77856
74.0 0.01351 59.37762 65.95625
68.0 0.01471 59.38316 66.23241
70.0 0.01429 59.38873 66.60799
72.0 0.01389 59.39429 67.07961
72.0 0.01389 59.39988 67.64429
64.0 0.01563 59.40546 68.28954
56.0 0.01786 59.41107 68.99856
74.0 0.01351 59.41668 69.71530
79.0 0.01266 59.42229 70.43630
59.0 0.01695 59.42792 71.07186
68.0 0.01471 59.43356 71.54857
66.0 0.01515 59.43919 71.79467
84.0 0.01190 59.44485 71.76806
59.0 0.01695 59.45050 71.46854
81.0 0.01235 59.45618 70.93745
84.0 0.01190 59.46185 70.24610
68.0 0.01471 59.46753 69.46867
64.0 0.01563 59.47324 68.67499
69.0 0.01449 59.47894 67.90320
51.0 0.01961 59.48465 67.18825
76.0 0.01316 59.49038 66.55138
83.0 0.01205 59.49611 65.99937
56.0 0.01786 59.50185 65.53799
67.0 0.01493 59.50760 65.16562
68.0 0.01471 59.51336 64.88220
65.0 0.01538 59.51912 64.68467
47.0 0.02128 59.52489 64.57204
66.0 0.01515 59.53068 64.54306
62.0 0.01613 59.53647 64.59837
73.0 0.01370 59.54227 64.73949
66.0 0.01515 59.54808 64.97061
49.0 0.02041 59.55389 65.29533
66.0 0.01515 59.55973 65.72039
73.0 0.01370 59.56555 66.24966
62.0 0.01613 59.57140 66.89009
80.0 0.01250 59.57725 67.64189
71.0 0.01408 59.58311 68.50681
75.0 0.01333 59.58898 69.47367
70.0 0.01429 59.59486 70.52782
78.0 0.01282 59.60075 71.63122
77.0 0.01299 59.60665 72.72324
72.0 0.01389 59.61255 73.74059
79.0 0.01266 59.61846 74.57834
76.0 0.01316 59.62438 75.13044
58.0 0.01724 59.63030 75.31870
75.0 0.01333 59.63625 75.11169
66.0 0.01515 59.64218 74.54067
72.0 0.01389 59.64814 73.68354
76.0 0.01316 59.65409 72.64613
74.0 0.01351 59.66007 71.52290
92.0 0.01087 59.66605 70.39662
67.0 0.01493 59.67204 69.31742
83.0 0.01205 59.67803 68.32593
67.0 0.01493 59.68404 67.42968
62.0 0.01613 59.69004 66.64214
71.0 0.01408 59.69608 65.96030
70.0 0.01429 59.70210 65.38204
51.0 0.01961 59.70813 64.90099
69.0 0.01449 59.71418 64.50720
66.0 0.01515 59.72022 64.19476
53.0 0.01887 59.72629 63.95497
68.0 0.01471 59.73235 63.78215
68.0 0.01471 59.73844 63.67028
58.0 0.01724 59.74452 63.61582
78.0 0.01282 59.75062 63.61602
64.0 0.01563 59.75671 63.66967
58.0 0.01724 59.76283 63.77683
59.0 0.01695 59.76894 63.93772
57.0 0.01754 59.77507 64.15402
75.0 0.01333 59.78120 64.42568
54.0 0.01852 59.78735 64.75375
71.0 0.01408 59.79350 65.13503
70.0 0.01429 59.79965 65.56504
64.0 0.01563 59.80582 66.03448
68.0 0.01471 59.81199 66.52169
76.0 0.01316 59.81818 67.00572
64.0 0.01563 59.82436 67.44502
56.0 0.01786 59.83056 67.79694
72.0 0.01389 59.83676 68.01734
56.0 0.01786 59.84298 68.07797
83.0 0.01205 59.84920 67.97366
77.0 0.01299 59.85543 67.72514
63.0 0.01587 59.86166 67.37288
75.0 0.01333 59.86791 66.96126
62.0 0.01613 59.87416 66.54117
59.0 0.01695 59.88041 66.12886
72.0 0.01389 59.88668 65.75273
61.0 0.01639 59.89296 65.42883
65.0 0.01538 59.89924 65.16441
72.0 0.01389 59.90553 64.96551
81.0 0.01235 59.91183 64.83463
68.0 0.01471 59.91814 64.77482
57.0 0.01754 59.92445 64.78874
71.0 0.01408 59.93077 64.88005
83.0 0.01205 59.93710 65.05414
66.0 0.01515 59.94344 65.31692
45.0 0.02222 59.94979 65.67769
73.0 0.01370 59.95614 66.14529
71.0 0.01408 59.96248 66.72958
74.0 0.01351 59.96886 67.44496
71.0 0.01408 59.97522 68.29897
54.0 0.01852 59.98161 69.30404
69.0 0.01449 59.98799 70.46174
71.0 0.01408 59.99440 71.77586
56.0 0.01786 60.00079 73.23031
87.0 0.01149 60.00721 74.80397
71.0 0.01408 60.01362 76.44077
75.0 0.01333 60.02005 78.06612
81.0 0.01235 60.02648 79.55817
97.0 0.01031 60.03293 80.77888
87.0 0.01149 60.03938 81.57578
86.0 0.01163 60.04583 81.83923
81.0 0.01235 60.05229 81.52927
79.0 0.01266 60.05875 80.69664
91.0 0.01099 60.06524 79.45773
75.0 0.01333 60.07172 77.96657
76.0 0.01316 60.07822 76.35877
88.0 0.01136 60.08470 74.75196
65.0 0.01538 60.09122 73.21671
68.0 0.01471 60.09772 71.80572
74.0 0.01351 60.10425 70.54144
67.0 0.01493 60.11077 69.43153
63.0 0.01587 60.11731 68.47492
72.0 0.01389 60.12385 67.66938
62.0 0.01613 60.13041 67.00256
70.0 0.01429 60.13696 66.46600
58.0 0.01724 60.14351 66.04891
62.0 0.01613 60.15008 65.73961
71.0 0.01408 60.15665 65.53148
69.0 0.01449 60.16324 65.41759
63.0 0.01587 60.16983 65.39457
66.0 0.01515 60.17643 65.46092
66.0 0.01515 60.18303 65.61712
67.0 0.01493 60.18964 65.86637
58.0 0.01724 60.19625 66.21148
69.0 0.01449 60.20289 66.65812
91.0 0.01099 60.20951 67.20841
62.0 0.01613 60.21616 67.86653
72.0 0.01389 60.22280 68.62859
92.0 0.01087 60.22946 69.49024
82.0 0.01220 60.23611 70.43128
75.0 0.01333 60.24277 71.42248
70.0 0.01429 60.24945 72.41592
74.0 0.01351 60.25612 73.33598
78.0 0.01282 60.26282 74.09580
58.0 0.01724 60.26950 74.59753
65.0 0.01538 60.27621 74.76741
68.0 0.01471 60.28290 74.57370
61.0 0.01639 60.28962 74.04058
78.0 0.01282 60.29634 73.24150
75.0 0.01333 60.30307 72.26714
70.0 0.01429 60.30980 71.21222
75.0 0.01333 60.31654 70.15925
69.0 0.01449 60.32328 69.13656
57.0 0.01754 60.33002 68.18972
67.0 0.01493 60.33679 67.33131
68.0 0.01471 60.34354 66.57259
72.0 0.01389 60.35032 65.91098
56.0 0.01786 60.35710 65.34547
70.0 0.01429 60.36389 64.86783
72.0 0.01389 60.37067 64.47272
67.0 0.01493 60.37748 64.15108
53.0 0.01887 60.38427 63.89676
66.0 0.01515 60.39109 63.70205
72.0 0.01389 60.39790 63.56184
76.0 0.01316 60.40473 63.47065
72.0 0.01389 60.41154 63.42485
70.0 0.01429 60.41839 63.42113
67.0 0.01493 60.42522 63.45688
61.0 0.01639 60.43206 63.52973
60.0 0.01667 60.43892 63.63724
66.0 0.01515 60.44578 63.77547
59.0 0.01695 60.45265 63.93961
73.0 0.01370 60.45951 64.07738
62.0 0.01613 60.46640 64.26410
50.0 0.02000 60.47327 64.43811
65.0 0.01538 60.48017 64.57893
68.0 0.01471 60.48706 64.66405
66.0 0.01515 60.49397 64.67627
58.0 0.01724 60.50088 64.60832
75.0 0.01333 60.50780 64.46541
52.0 0.01923 60.51472 64.26382
62.0 0.01613 60.52163 64.02498
55.0 0.01818 60.52857 63.76824
71.0 0.01408 60.53550 63.51138
73.0 0.01370 60.54245 63.26508
58.0 0.01724 60.54940 63.03754
63.0 0.01587 60.55636 62.83168
59.0 0.01695 60.56331 62.65747
82.0 0.01220 60.57029 62.49913
55.0 0.01818 60.57726 62.36393
69.0 0.01449 60.58424 62.24990
70.0 0.01429 60.59122 62.15582
69.0 0.01449 60.59822 62.07957
66.0 0.01515 60.60521 62.01974
63.0 0.01587 60.61222 61.97461
70.0 0.01429 60.61923 61.94306
72.0 0.01389 60.62623 61.92406
45.0 0.02222 60.63326 61.91692
57.0 0.01754 60.64028 61.92129
61.0 0.01639 60.64732 61.93709
81.0 0.01235 60.65435 61.96437
72.0 0.01389 60.66140 62.00343
53.0 0.01887 60.66843 62.05440
60.0 0.01667 60.67550 62.11770
56.0 0.01786 60.68255 62.19301
53.0 0.01887 60.68962 62.28022
67.0 0.01493 60.69669 62.37774
56.0 0.01786 60.70377 62.47065
60.0 0.01667 60.71085 62.58075
75.0 0.01333 60.71792 62.68887
60.0 0.01667 60.72502 62.78744
72.0 0.01389 60.73211 62.86668
52.0 0.01923 60.73922 62.91824
60.0 0.01667 60.74633 62.93642
80.0 0.01250 60.75345 62.92097
67.0 0.01493 60.76056 62.87692
60.0 0.01667 60.76769 62.81278
63.0 0.01587 60.77481 62.73840
68.0 0.01471 60.78196 62.66227
59.0 0.01695 60.78909 62.59146
64.0 0.01563 60.79625 62.53051
48.0 0.02083 60.80339 62.48291
76.0 0.01316 60.81055 62.45066
56.0 0.01786 60.81771 62.43545
65.0 0.01538 60.82487 62.43856
62.0 0.01613 60.83204 62.46140
71.0 0.01408 60.83922 62.50541
71.0 0.01408 60.84641 62.57264
58.0 0.01724 60.85359 62.66505
61.0 0.01639 60.86079 62.78571
59.0 0.01695 60.86798 62.93711
73.0 0.01370 60.87519 63.12321
68.0 0.01471 60.88239 63.34671
65.0 0.01538 60.88961 63.61182
42.0 0.02381 60.89682 63.92035
84.0 0.01190 60.90405 64.27541
70.0 0.01429 60.91127 64.67588
78.0 0.01282 60.91850 65.12000
75.0 0.01333 60.92575 65.60219
60.0 0.01667 60.93298 66.08905
72.0 0.01389 60.94024 66.59919
61.0 0.01639 60.94748 67.08066
80.0 0.01250 60.95475 67.49509
54.0 0.01852 60.96201 67.79675
78.0 0.01282 60.96928 67.94856
71.0 0.01408 60.97654 67.92931
71.0 0.01408 60.98383 67.74342
65.0 0.01538 60.99110 67.41935
60.0 0.01667 60.99839 66.99751
55.0 0.01818 61.00568 66.52277
58.0 0.01724 61.01297 66.03308
65.0 0.01538 61.02028 65.55368
64.0 0.01563 61.02757 65.10489
61.0 0.01639 61.03489 64.69539
60.0 0.01667 61.04220 64.33173
64.0 0.01563 61.04952 64.01382
72.0 0.01389 61.05684 63.74201
73.0 0.01370 61.06417 63.51289
58.0 0.01724 61.07151 63.32433
66.0 0.01515 61.07885 63.17219
61.0 0.01639 61.08618 63.05377
54.0 0.01852 61.09354 62.96550
75.0 0.01333 61.10088 62.90513
61.0 0.01639 61.10824 62.87031
75.0 0.01333 61.11560 62.85977
63.0 0.01587 61.12296 62.87252
83.0 0.01205 61.13033 62.90841
54.0 0.01852 61.13770 62.96744
63.0 0.01587 61.14508 63.05040
71.0 0.01408 61.15246 63.15768
46.0 0.02174 61.15985 63.29036
57.0 0.01754 61.16724 63.44827
65.0 0.01538 61.17464 63.63171
57.0 0.01754 61.18203 63.83847
87.0 0.01149 61.18945 64.06584
61.0 0.01639 61.19685 64.30658
65.0 0.01538 61.20427 64.55132
77.0 0.01299 61.21168 64.78436
71.0 0.01408 61.21909 64.98642
66.0 0.01515 61.22652 65.13757
65.0 0.01538 61.23394 65.21928
63.0 0.01587 61.24139 65.22263
61.0 0.01639 61.24882 65.15018
65.0 0.01538 61.25626 65.01528
71.0 0.01408 61.26371 64.83852
57.0 0.01754 61.27116 64.64018
51.0 0.01961 61.27861 64.43916
55.0 0.01818 61.28608 64.24825
58.0 0.01724 61.29353 64.07751
69.0 0.01449 61.30101 63.93219
60.0 0.01667 61.30847 63.81648
66.0 0.01515 61.31595 63.73219
75.0 0.01333 61.32342 63.68120
78.0 0.01282 61.33090 63.66459
74.0 0.01351 61.33839 63.68387
79.0 0.01266 61.34587 63.74067
58.0 0.01724 61.35337 63.83738
57.0 0.01754 61.36087 63.97622
64.0 0.01563 61.36838 64.16077
71.0 0.01408 61.37588 64.39367
69.0 0.01449 61.38339 64.67917
79.0 0.01266 61.39090 65.01929
59.0 0.01695 61.39843 65.41764
70.0 0.01429 61.40594 65.87342
60.0 0.01667 61.41347 66.38664
77.0 0.01299 61.42100 66.94996
68.0 0.01471 61.42852 67.55042
77.0 0.01299 61.43607 68.16476
74.0 0.01351 61.44359 68.76804
86.0 0.01163 61.45115 69.31320
74.0 0.01351 61.45869 69.74571
78.0 0.01282 61.46624 70.01591
69.0 0.01449 61.47379 70.08643
60.0 0.01667 61.48136 69.94815
71.0 0.01408 61.48891 69.62260
63.0 0.01587 61.49649 69.15244
76.0 0.01316 61.50404 68.59255
68.0 0.01471 61.51163 67.99071
59.0 0.01695 61.51920 67.38867
68.0 0.01471 61.52678 66.81161
62.0 0.01613 61.53436 66.27879
58.0 0.01724 61.54194 65.79809
67.0 0.01493 61.54954 65.37246
61.0 0.01639 61.55712 65.00367
66.0 0.01515 61.56473 64.68829
54.0 0.01852 61.57232 64.42417
71.0 0.01408 61.57993 64.20628
52.0 0.01923 61.58753 64.03127
59.0 0.01695 61.59515 63.89437
57.0 0.01754 61.60276 63.79245
57.0 0.01754 61.61038 63.72197
56.0 0.01786 61.61799 63.68074
61.0 0.01639 61.62563 63.66686
54.0 0.01852 61.63325 63.67934
75.0 0.01333 61.64087 63.71764
69.0 0.01449 61.64851 63.78207
76.0 0.01316 61.65614 63.87284
56.0 0.01786 61.66378 63.99091
57.0 0.01754 61.67142 64.13645
69.0 0.01449 61.67907 64.28994
75.0 0.01333 61.68672 64.49096
53.0 0.01887 61.69438 64.71795
66.0 0.01515 61.70203 64.96597
78.0 0.01282 61.70969 65.22882
68.0 0.01471 61.71735 65.49410
67.0 0.01493 61.72502 65.74651
55.0 0.01818 61.73268 65.96470
72.0 0.01389 61.74035 66.12774
63.0 0.01587 61.74802 66.21716
56.0 0.01786 61.75570 66.22485
68.0 0.01471 61.76338 66.15462
69.0 0.01449 61.77105 66.02187
79.0 0.01266 61.77875 65.84762
82.0 0.01220 61.78643 65.65476
59.0 0.01695 61.79412 65.46172
68.0 0.01471 61.80182 65.29372
72.0 0.01389 61.80952 65.14049
63.0 0.01587 61.81721 65.01935
71.0 0.01408 61.82492 64.93452
59.0 0.01695 61.83262 64.88985
58.0 0.01724 61.84034 64.88820
65.0 0.01538 61.84805 64.93262
66.0 0.01515 61.85575 65.02645
75.0 0.01333 61.86348 65.17406
53.0 0.01887 61.87119 65.37950
64.0 0.01563 61.87892 65.64890
64.0 0.01563 61.88663 65.98697
75.0 0.01333 61.89437 66.40107
60.0 0.01667 61.90209 66.89535
57.0 0.01754 61.90983 67.47671
67.0 0.01493 61.91756 68.14613
69.0 0.01449 61.92531 68.90647
77.0 0.01299 61.93304 69.75013
74.0 0.01351 61.94079 70.66817
78.0 0.01282 61.94854 71.63356
65.0 0.01538 61.95627 72.60841
61.0 0.01639 61.96403 73.53939
66.0 0.01515 61.97178 74.34742
90.0 0.01111 61.97954 74.95212
76.0 0.01316 61.98729 75.27641
80.0 0.01250 61.99506 75.27702
73.0 0.01370 62.00282 74.95509
53.0 0.01887 62.01059 74.35578
72.0 0.01389 62.01835 73.55701
94.0 0.01064 62.02612 72.63908
69.0 0.01449 62.03389 71.67927
72.0 0.01389 62.04168 70.73005
79.0 0.01266 62.04945 69.83292
58.0 0.01724 62.05724 69.00703
74.0 0.01351 62.06501 68.26718
66.0 0.01515 62.07279 67.61574
55.0 0.01818 62.08058 67.05089
65.0 0.01538 62.08836 66.57121
63.0 0.01587 62.09616 66.17359
77.0 0.01299 62.10394 65.84500
95.0 0.01053 62.11175 65.58209
70.0 0.01429 62.11954 65.38000
78.0 0.01282 62.12734 65.23284
59.0 0.01695 62.13514 65.13711
65.0 0.01538 62.14295 65.08946
83.0 0.01205 62.15075 65.08845
69.0 0.01449 62.15857 65.13354
54.0 0.01852 62.16638 65.22522
73.0 0.01370 62.17418 65.36454
69.0 0.01449 62.18199 65.55417
60.0 0.01667 62.18981 65.79538
59.0 0.01695 62.19763 66.07886
52.0 0.01923 62.20545 66.42857
59.0 0.01695 62.21327 66.83295
69.0 0.01449 62.22108 67.28673
71.0 0.01408 62.22893 67.78344
70.0 0.01429 62.23674 68.30622
71.0 0.01408 62.24458 68.83318
58.0 0.01724 62.25241 69.32792
58.0 0.01724 62.26025 69.74858
76.0 0.01316 62.26808 70.04607
55.0 0.01818 62.27592 70.18076
71.0 0.01408 62.28375 70.13024
66.0 0.01515 62.29158 69.89931
53.0 0.01887 62.29943 69.51605
86.0 0.01163 62.30727 69.02596
79.0 0.01266 62.31512 68.47386
70.0 0.01429 62.32297 67.90243
87.0 0.01149 62.33083 67.33972
84.0 0.01190 62.33867 66.81857
57.0 0.01754 62.34652 66.32764
80.0 0.01250 62.35437 65.88508
61.0 0.01639 62.36223 65.49070
67.0 0.01493 62.37008 65.14508
63.0 0.01587 62.37795 64.84410
54.0 0.01852 62.38581 64.58506
67.0 0.01493 62.39365 64.36382
59.0 0.01695 62.40152 64.17489
67.0 0.01493 62.40939 64.01497
61.0 0.01639 62.41726 63.87922
62.0 0.01613 62.42512 63.76444
67.0 0.01493 62.43300 63.66681
65.0 0.01538 62.44086 63.58379
60.0 0.01667 62.44874 63.51258
63.0 0.01587 62.45660 63.45141
62.0 0.01613 62.46449 63.39834
71.0 0.01408 62.47235 63.35086
76.0 0.01316 62.48024 63.31040
73.0 0.01370 62.48811 63.27485
75.0 0.01333 62.49600 63.24337
74.0 0.01351 62.50387 63.21552
51.0 0.01961 62.51175 63.19078
58.0 0.01724 62.51963 63.16871
54.0 0.01852 62.52752 63.14911
72.0 0.01389 62.53541 63.13160
68.0 0.01471 62.54329 63.11606
64.0 0.01563 62.55119 63.10222
70.0 0.01429 62.55906 63.08995
67.0 0.01493 62.56696 63.07911
52.0 0.01923 62.57484 63.06953
70.0 0.01429 62.58274 63.06114
42.0 0.02381 62.59063 63.05383
58.0 0.01724 62.59853 63.04749
62.0 0.01613 62.60643 63.04208
63.0 0.01587 62.61431 63.03749
63.0 0.01587 62.62221 63.03367
61.0 0.01639 62.63010 63.03056
63.0 0.01587 62.63801 63.03767
58.0 0.01724 62.64590 63.03593
61.0 0.01639 62.65381 63.03474
62.0 0.01613 62.66171 63.03411
61.0 0.01639 62.66962 63.03395
49.0 0.02041 62.67751 63.03424
66.0 0.01515 62.68542 63.03500
45.0 0.02222 62.69331 63.03615
84.0 0.01190 62.70123 63.03770
74.0 0.01351 62.70913 63.03960
66.0 0.01515 62.71704 63.04185
61.0 0.01639 62.72495 63.03791
64.0 0.01563 62.73284 63.04081
67.0 0.01493 62.74075 63.04404
57.0 0.01754 62.74866 63.04755
64.0 0.01563 62.75657 63.05130
62.0 0.01613 62.76448 63.05532
77.0 0.01299 62.77240 63.05959
73.0 0.01370 62.78030 63.06404
70.0 0.01429 62.78822 63.06876
56.0 0.01786 62.79612 63.07367
73.0 0.01370 62.80404 63.07879
70.0 0.01429 62.81195 63.08409
74.0 0.01351 62.81987 63.08961
71.0 0.01408 62.82777 63.09529
81.0 0.01235 62.83568 63.10114
74.0 0.01351 62.84360 63.10719
69.0 0.01449 62.85151 63.11339
66.0 0.01515 62.85943 63.11977
69.0 0.01449 62.86734 63.12630
68.0 0.01471 62.87526 63.15128
62.0 0.01613 62.88317 63.15827
74.0 0.01351 62.89110 63.16545
65.0 0.01538 62.89900 63.17276
73.0 0.01370 62.90693 63.18023
59.0 0.01695 62.91483 63.18784
67.0 0.01493 62.92276 63.19562
62.0 0.01613 62.93068 63.20353
58.0 0.01724 62.93857 63.21157
70.0 0.01429 62.94650 63.21980
62.0 0.01613 62.95441 63.22815
71.0 0.01408 62.96233 63.23667
65.0 0.01538 62.97024 63.24532
58.0 0.01724 62.97816 63.25414
59.0 0.01695 62.98607 63.26311
62.0 0.01613 62.99400 63.27225
72.0 0.01389 63.00191 63.28153
61.0 0.01639 63.00983 63.28785
66.0 0.01515 63.01773 63.29748
65.0 0.01538 63.02566 63.30730
69.0 0.01449 63.03356 63.31728
78.0 0.01282 63.04148 63.32745
71.0 0.01408 63.04939 63.33781
66.0 0.01515 63.05730 63.34833
66.0 0.01515 63.06522 63.35909
80.0 0.01250 63.07312 63.37002
72.0 0.01389 63.08104 63.38119
70.0 0.01429 63.08895 63.39256
66.0 0.01515 63.09687 63.40417
61.0 0.01639 63.10478 63.41601
58.0 0.01724 63.11269 63.42812
59.0 0.01695 63.12059 63.44046
72.0 0.01389 63.12851 63.45312
62.0 0.01613 63.13641 63.46601
66.0 0.01515 63.14433 63.47927
56.0 0.01786 63.15224 63.49283
59.0 0.01695 63.16013 63.50670
74.0 0.01351 63.16804 63.52097
70.0 0.01429 63.17594 63.53558
70.0 0.01429 63.18385 63.55065
65.0 0.01538 63.19175 63.57671
69.0 0.01449 63.19965 63.59276
66.0 0.01515 63.20755 63.60927
58.0 0.01724 63.21546 63.62635
70.0 0.01429 63.22335 63.64396
61.0 0.01639 63.23126 63.66220
67.0 0.01493 63.23915 63.68109
62.0 0.01613 63.24706 63.70071
74.0 0.01351 63.25495 63.72104
72.0 0.01389 63.26285 63.73407
59.0 0.01695 63.27074 63.75620
70.0 0.01429 63.27862 63.77929
75.0 0.01333 63.28653 63.80350
63.0 0.01587 63.29440 63.82881
48.0 0.02083 63.30230 63.85544
74.0 0.01351 63.31018 63.88338
57.0 0.01754 63.31808 63.91291
67.0 0.01493 63.32596 63.94405
59.0 0.01695 63.33385 63.97712
69.0 0.01449 63.34173 64.01218
58.0 0.01724 63.34962 64.04960
70.0 0.01429 63.35749 64.08952
72.0 0.01389 63.36537 64.13244
65.0 0.01538 63.37325 64.17862
66.0 0.01515 63.38111 64.22847
71.0 0.01408 63.38900 64.28281
60.0 0.01667 63.39686 64.34211
80.0 0.01250 63.40474 64.40753
67.0 0.01493 63.41260 64.47987
75.0 0.01333 63.42048 64.56081
51.0 0.01961 63.42834 64.67798
63.0 0.01587 63.43621 64.78156
65.0 0.01538 63.44407 64.89966
56.0 0.01786 63.45193 65.03579
74.0 0.01351 63.45978 65.19284
72.0 0.01389 63.46766 65.37547
61.0 0.01639 63.47550 65.58740
73.0 0.01370 63.48336 65.83431
67.0 0.01493 63.49120 66.12027
66.0 0.01515 63.49905 66.45079
62.0 0.01613 63.50690 66.83145
70.0 0.01429 63.51474 67.26494
68.0 0.01471 63.52259 67.75592
77.0 0.01299 63.53043 68.30350
47.0 0.02128 63.53827 68.90764
72.0 0.01389 63.54610 69.55568
71.0 0.01408 63.55394 70.24324
74.0 0.01351 63.56177 70.94081
70.0 0.01429 63.56961 71.61608
81.0 0.01235 63.57743 72.21962
79.0 0.01266 63.58527 72.69936
78.0 0.01282 63.59308 73.00140
84.0 0.01190 63.60089 73.08971
65.0 0.01538 63.60872 72.95506
62.0 0.01613 63.61652 72.61881
69.0 0.01449 63.62435 72.12426
79.0 0.01266 63.63214 71.52795
67.0 0.01493 63.63996 70.88002
74.0 0.01351 63.64777 70.22558
64.0 0.01563 63.65557 69.59246
57.0 0.01754 63.66337 69.00275
65.0 0.01538 63.67117 68.46509
64.0 0.01563 63.67896 67.98666
67.0 0.01493 63.68676 67.56655
64.0 0.01563 63.69453 67.20492
71.0 0.01408 63.70233 66.89720
61.0 0.01639 63.71010 66.64063
62.0 0.01613 63.71788 66.43023
65.0 0.01538 63.72567 66.26133
67.0 0.01493 63.73343 66.13879
64.0 0.01563 63.74121 66.04196
67.0 0.01493 63.74897 65.97643
79.0 0.01266 63.75674 65.93964
58.0 0.01724 63.76450 65.93011
56.0 0.01786 63.77226 65.94687
72.0 0.01389 63.78001 65.98958
59.0 0.01695 63.78777 66.04546
71.0 0.01408 63.79550 66.14137
73.0 0.01370 63.80326 66.26525
73.0 0.01370 63.81099 66.41747
71.0 0.01408 63.81872 66.59889
83.0 0.01205 63.82646 66.80997
68.0 0.01471 63.83419 67.04893
59.0 0.01695 63.84192 67.31395
76.0 0.01316 63.84963 67.59868
66.0 0.01515 63.85736 67.89522
79.0 0.01266 63.86507 68.18880
80.0 0.01250 63.87279 68.46191
73.0 0.01370 63.88049 68.69122
54.0 0.01852 63.88820 68.85501
66.0 0.01515 63.89590 68.93538
53.0 0.01887 63.90360 68.92577
66.0 0.01515 63.91129 68.83218
75.0 0.01333 63.91896 68.67210
67.0 0.01493 63.92665 68.46760
72.0 0.01389 63.93433 68.24297
57.0 0.01754 63.94201 68.01740
70.0 0.01429 63.94967 67.80710
66.0 0.01515 63.95735 67.62210
69.0 0.01449 63.96500 67.48632
69.0 0.01449 63.97267 67.37255
75.0 0.01333 63.98032 67.30042
72.0 0.01389 63.98797 67.27241
82.0 0.01220 63.99561 67.29105
65.0 0.01538 64.00326 67.35885
73.0 0.01370 64.01089 67.47813
59.0 0.01695 64.01852 67.65213
60.0 0.01667 64.02615 67.88306
64.0 0.01563 64.03376 68.17404
83.0 0.01205 64.04139 68.52848
64.0 0.01563 64.04900 68.94680
66.0 0.01515 64.05661 69.43124
71.0 0.01408 64.06420 69.97818
61.0 0.01639 64.07181 70.57683
63.0 0.01587 64.07939 71.22939
59.0 0.01695 64.08698 71.91196
88.0 0.01136 64.09456 72.59290
80.0 0.01250 64.10214 73.23411
78.0 0.01282 64.10971 73.78230
73.0 0.01370 64.11729 74.18496
71.0 0.01408 64.12485 74.39388
72.0 0.01389 64.13239 74.38388
85.0 0.01176 64.13995 74.15784
69.0 0.01449 64.14748 73.74792
98.0 0.01020 64.15503 73.20198
81.0 0.01235 64.16256 72.57659
67.0 0.01493 64.17010 71.91813
76.0 0.01316 64.17760 71.26706
75.0 0.01333 64.18513 70.64709
87.0 0.01149 64.19263 70.07697
58.0 0.01724 64.20015 69.56334
73.0 0.01370 64.20764 69.11196
66.0 0.01515 64.21515 68.72144
67.0 0.01493 64.22263 68.39153
57.0 0.01754 64.23012 68.11800
65.0 0.01538 64.23758 67.89838
59.0 0.01695 64.24505 67.72845
65.0 0.01538 64.25252 67.60449
67.0 0.01493 64.25997 67.52408
64.0 0.01563 64.26743 67.49268
75.0 0.01333 64.27486 67.49294
57.0 0.01754 64.28231 67.53235
68.0 0.01471 64.28973 67.61111
72.0 0.01389 64.29716 67.73093
73.0 0.01370 64.30457 67.89332
76.0 0.01316 64.31200 68.10163
69.0 0.01449 64.31940 68.35810
61.0 0.01639 64.32680 68.66690
75.0 0.01333 64.33420 69.03014
77.0 0.01299 64.34156 69.44926
79.0 0.01266 64.34895 69.92720
81.0 0.01235 64.35632 70.45997
73.0 0.01370 64.36369 71.04424
75.0 0.01333 64.37103 71.66678
76.0 0.01316 64.37840 72.31121
79.0 0.01266 64.38573 72.94659
58.0 0.01724 64.39307 73.53637
67.0 0.01493 64.40039 74.03152
67.0 0.01493 64.40771 74.38633
69.0 0.01449 64.41502 74.56214
85.0 0.01176 64.42234 74.54372
68.0 0.01471 64.42963 74.34193
78.0 0.01282 64.43693 73.99043
94.0 0.01064 64.44421 73.53812
65.0 0.01538 64.45147 73.03388
78.0 0.01282 64.45875 72.51976
69.0 0.01449 64.46600 72.03120
79.0 0.01266 64.47326 71.59004
73.0 0.01370 64.48050 71.21404
69.0 0.01449 64.48775 70.91221
65.0 0.01538 64.49496 70.69283
65.0 0.01538 64.50219 70.56010
76.0 0.01316 64.50939 70.51867
60.0 0.01667 64.51660 70.57206
68.0 0.01471 64.52380 70.72392
99.0 0.01010 64.53098 70.97870
62.0 0.01613 64.53817 71.33987
67.0 0.01493 64.54532 71.81042
81.0 0.01235 64.55249 72.39607
67.0 0.01493 64.55964 73.09597
67.0 0.01493 64.56679 73.91232
70.0 0.01429 64.57391 74.83717
87.0 0.01149 64.58105 75.86278
81.0 0.01235 64.58816 76.96394
71.0 0.01408 64.59528 78.10956
90.0 0.01111 64.60236 79.24186
82.0 0.01220 64.60947 80.29219
85.0 0.01176 64.61654 81.16791
81.0 0.01235 64.62362 81.78039
95.0 0.01053 64.63068 82.05230
97.0 0.01031 64.63773 81.94804
84.0 0.01190 64.64478 81.48134
88.0 0.01136 64.65180 80.71114
91.0 0.01099 64.65883 79.72140
67.0 0.01493 64.66584 78.60738
76.0 0.01316 64.67285 77.44530
77.0 0.01299 64.67985 76.30109
69.0 0.01449 64.68684 75.21237
74.0 0.01351 64.69380 74.20914
81.0 0.01235 64.70078 73.30126
82.0 0.01220 64.70773 72.49750
62.0 0.01613 64.71468 71.79458
78.0 0.01282 64.72161 71.19158
68.0 0.01471 64.72854 70.68041
75.0 0.01333 64.73546 70.25599
62.0 0.01613 64.74235 69.91119
54.0 0.01852 64.74925 69.63758
73.0 0.01370 64.75613 69.43040
68.0 0.01471 64.76301 69.28346
61.0 0.01639 64.76987 69.19935
79.0 0.01266 64.77673 69.16248
62.0 0.01613 64.78356 69.17753
68.0 0.01471 64.79040 69.24413
65.0 0.01538 64.79721 69.36279
63.0 0.01587 64.80402 69.53562
66.0 0.01515 64.81081 69.76430
66.0 0.01515 64.81761 70.05241
77.0 0.01299 64.82439 70.40184
72.0 0.01389 64.83113 70.81409
69.0 0.01449 64.83790 71.29220
71.0 0.01408 64.84463 71.83269
76.0 0.01316 64.85136 72.43300
68.0 0.01471 64.85808 73.08089
70.0 0.01429 64.86479 73.76156
69.0 0.01449 64.87148 74.44521
85.0 0.01176 64.87817 75.09648
91.0 0.01099 64.88483 75.66521
63.0 0.01587 64.89150 76.10231
93.0 0.01075 64.89814 76.36163
70.0 0.01429 64.90478 76.41896
82.0 0.01220 64.91140 76.27615
83.0 0.01205 64.91801 75.96184
85.0 0.01176 64.92461 75.52478
80.0 0.01250 64.93118 75.01797
82.0 0.01220 64.93777 74.49004
62.0 0.01613 64.94432 73.98330
80.0 0.01250 64.95087 73.52580
78.0 0.01282 64.95741 73.14047
79.0 0.01266 64.96393 72.84061
79.0 0.01266 64.97044 72.63783
72.0 0.01389 64.97694 72.53951
71.0 0.01408 64.98341 72.55293
75.0 0.01333 64.98989 72.68466
63.0 0.01587 64.99634 72.94067
72.0 0.01389 65.00278 73.32854
92.0 0.01087 65.00922 73.85393
58.0 0.01724 65.01563 74.52198
85.0 0.01176 65.02203 75.34143
66.0 0.01515 65.02841 76.31189
78.0 0.01282 65.03480 77.43703
79.0 0.01266 65.04115 78.70682
69.0 0.01449 65.04751 80.11174
80.0 0.01250 65.05384 81.61865
95.0 0.01053 65.06017 83.18710
91.0 0.01099 65.06647 84.74092
73.0 0.01370 65.07276 86.18955
98.0 0.01020 65.07903 87.40934
99.0 0.01010 65.08530 88.28041
82.0 0.01220 65.09155 88.69493
88.0 0.01136 65.09779 88.59827
85.0 0.01176 65.10400 88.00069
91.0 0.01099 65.11020 86.97496
95.0 0.01053 65.11640 85.63080
90.0 0.01111 65.12257 84.09723
83.0 0.01205 65.12873 82.48003
88.0 0.01136 65.13487 80.87273
80.0 0.01250 65.14101 79.33009
79.0 0.01266 65.14713 77.89625
80.0 0.01250 65.15323 76.58665
83.0 0.01205 65.15930 75.41518
72.0 0.01389 65.16538 74.37805
62.0 0.01613 65.17143 73.47479
81.0 0.01235 65.17747 72.69423
83.0 0.01205 65.18349 72.02927
76.0 0.01316 65.18949 71.46979
70.0 0.01429 65.19549 71.00292
73.0 0.01370 65.20145 70.62123
57.0 0.01754 65.20743 70.31428
65.0 0.01538 65.21336 70.07552
67.0 0.01493 65.21930 69.89767
61.0 0.01639 65.22520 69.77646
87.0 0.01149 65.23110 69.69808
75.0 0.01333 65.23698 69.68038
67.0 0.01493 65.24284 69.71230
79.0 0.01266 65.24868 69.79357
72.0 0.01389 65.25452 69.92511
83.0 0.01205 65.26031 70.10736
68.0 0.01471 65.26611 70.34191
74.0 0.01351 65.27189 70.62835
69.0 0.01449 65.27765 70.96648
78.0 0.01282 65.28339 71.35461
72.0 0.01389 65.28911 71.78574
67.0 0.01493 65.29482 72.25146
82.0 0.01220 65.30051 72.73370
78.0 0.01282 65.30619 73.21037
62.0 0.01613 65.31184 73.64766
87.0 0.01149 65.31749 74.00974
72.0 0.01389 65.32310 74.25780
82.0 0.01220 65.32871 74.36410
81.0 0.01235 65.33428 74.31668
79.0 0.01266 65.33985 74.12473
93.0 0.01075 65.34541 73.81604
74.0 0.01351 65.35093 73.42905
77.0 0.01299 65.35645 73.00099
59.0 0.01695 65.36193 72.56841
60.0 0.01667 65.36741 72.15670
62.0 0.01613 65.37286 71.78695
72.0 0.01389 65.37830 71.47131
64.0 0.01563 65.38372 71.22013
68.0 0.01471 65.38912 71.04123
65.0 0.01538 65.39450 70.93529
66.0 0.01515 65.39987 70.90821
78.0 0.01282 65.40520 70.96363
66.0 0.01515 65.41054 71.10519
61.0 0.01639 65.41583 71.33565
74.0 0.01351 65.42112 71.65909
85.0 0.01176 65.42638 72.07695
80.0 0.01250 65.43163 72.59160
80.0 0.01250 65.43685 73.20443
88.0 0.01136 65.44205 73.90623
74.0 0.01351 65.44725 74.70126
69.0 0.01449 65.45241 75.56836
73.0 0.01370 65.45756 76.48729
79.0 0.01266 65.46268 77.41780
78.0 0.01282 65.46779 78.31128
80.0 0.01250 65.47287 79.09737
90.0 0.01111 65.47794 79.70391
86.0 0.01163 65.48298 80.05867
87.0 0.01149 65.48801 80.11564
82.0 0.01220 65.49301 79.86359
82.0 0.01220 65.49799 79.33356
65.0 0.01538 65.50295 78.58266
60.0 0.01667 65.50789 77.68797
90.0 0.01111 65.51281 76.71751
88.0 0.01136 65.51770 75.73396
74.0 0.01351 65.52258 74.77663
78.0 0.01282 65.52744 73.87763
78.0 0.01282 65.53227 73.05003
72.0 0.01389 65.53708 72.30521
60.0 0.01667 65.54188 71.64259
77.0 0.01299 65.54665 71.06338
76.0 0.01316 65.55139 70.56150
77.0 0.01299 65.55611 70.13335
67.0 0.01493 65.56081 69.77319
90.0 0.01111 65.56550 69.47333
54.0 0.01852 65.57015 69.22953
57.0 0.01754 65.57479 69.03559
68.0 0.01471 65.57940 68.88773
64.0 0.01563 65.58399 68.78174
62.0 0.01613 65.58856 68.70485
77.0 0.01299 65.59311 68.67624
74.0 0.01351 65.59763 68.68817
60.0 0.01667 65.60213 68.73388
62.0 0.01613 65.60661 68.81749
90.0 0.01111 65.61106 68.94073
75.0 0.01333 65.61549 69.10487
74.0 0.01351 65.61990 69.31236
73.0 0.01370 65.62428 69.56392
69.0 0.01449 65.62864 69.86082
70.0 0.01429 65.63298 70.20341
82.0 0.01220 65.63729 70.58793
76.0 0.01316 65.64159 71.01028
76.0 0.01316 65.64584 71.45863
82.0 0.01220 65.65009 71.91827
74.0 0.01351 65.65430 72.36336
75.0 0.01333 65.65850 72.76388
77.0 0.01299 65.66267 73.08141
55.0 0.01818 65.66682 73.28104
90.0 0.01111 65.67094 73.33506
68.0 0.01471 65.67503 73.23359
64.0 0.01563 65.67911 72.98676
98.0 0.01020 65.68315 72.62220
74.0 0.01351 65.68717 72.17383
63.0 0.01587 65.69117 71.68018
74.0 0.01351 65.69514 71.17057
63.0 0.01587 65.69909 70.67060
67.0 0.01493 65.70301 70.19420
77.0 0.01299 65.70690 69.75291
64.0 0.01563 65.71078 69.34996
72.0 0.01389 65.71462 68.98868
66.0 0.01515 65.71845 68.67564
61.0 0.01639 65.72224 68.39349
73.0 0.01370 65.72601 68.14681
79.0 0.01266 65.72975 67.93339
69.0 0.01449 65.73347 67.74902
61.0 0.01639 65.73716 67.59094
47.0 0.02128 65.74082 67.45547
79.0 0.01266 65.74446 67.33932
72.0 0.01389 65.74808 67.23044
55.0 0.01818 65.75166 67.14529
61.0 0.01639 65.75522 67.07229
60.0 0.01667 65.75876 67.00931
70.0 0.01429 65.76226 66.95498
76.0 0.01316 65.76574 66.90784
57.0 0.01754 65.76919 66.86702
63.0 0.01587 65.77262 66.83150
73.0 0.01370 65.77602 66.80073
78.0 0.01282 65.77939 66.77404
63.0 0.01587 65.78274 66.75113
57.0 0.01754 65.78605 66.73157
78.0 0.01282 65.78934 66.71509
70.0 0.01429 65.79260 66.70157
66.0 0.01515 65.79584 66.69076
81.0 0.01235 65.79904 66.68266
76.0 0.01316 65.80222 66.67711
57.0 0.01754 65.80537 66.67414
71.0 0.01408 65.80850 66.67374
61.0 0.01639 65.81159 66.67597
60.0 0.01667 65.81467 66.68091
74.0 0.01351 65.81770 66.68872
66.0 0.01515 65.82072 66.69957
74.0 0.01351 65.82369 66.71375
66.0 0.01515 65.82665 66.73164
82.0 0.01220 65.82957 66.75360
77.0 0.01299 65.83247 66.78028
66.0 0.01515 65.83533 66.81246
67.0 0.01493 65.83817 66.85091
67.0 0.01493 65.84099 66.89684
65.0 0.01538 65.84377 66.93307
75.0 0.01333 65.84652 66.99820
73.0 0.01370 65.84924 67.07519
71.0 0.01408 65.85194 67.16639
71.0 0.01408 65.85459 67.27784
75.0 0.01333 65.85723 67.40387
64.0 0.01563 65.85984 67.55057
77.0 0.01299 65.86241 67.72095
74.0 0.01351 65.86496 67.91681
64.0 0.01563 65.86747 68.13971
67.0 0.01493 65.86996 68.39214
80.0 0.01250 65.87241 68.67328
70.0 0.01429 65.87484 68.98314
64.0 0.01563 65.87724 69.31723
69.0 0.01449 65.87960 69.67039
66.0 0.01515 65.88194 70.03040
77.0 0.01299 65.88425 70.38259
70.0 0.01429 65.88652 70.70391
67.0 0.01493 65.88876 70.96973
76.0 0.01316 65.89098 71.15271
60.0 0.01667 65.89317 71.23246
78.0 0.01282 65.89531 71.19855
71.0 0.01408 65.89744 71.05492
74.0 0.01351 65.89952 70.81899
75.0 0.01333 65.90158 70.51537
71.0 0.01408 65.90361 70.16985
61.0 0.01639 65.90560 69.80759
66.0 0.01515 65.90757 69.44576
66.0 0.01515 65.90951 69.09877
79.0 0.01266 65.91141 68.77348
73.0 0.01370 65.91328 68.47571
80.0 0.01250 65.91512 68.20622
67.0 0.01493 65.91692 67.96623
62.0 0.01613 65.91870 67.75504
66.0 0.01515 65.92045 67.56933
67.0 0.01493 65.92216 67.40745
55.0 0.01818 65.92384 67.26749
68.0 0.01471 65.92549 67.14712
64.0 0.01563 65.92711 67.04333
73.0 0.01370 65.92869 66.94376
67.0 0.01493 65.93024 66.86725
83.0 0.01205 65.93176 66.80151
57.0 0.01754 65.93325 66.74463
70.0 0.01429 65.93471 66.69537
72.0 0.01389 65.93613 66.65231
69.0 0.01449 65.93752 66.61463
64.0 0.01563 65.93887 66.58132
71.0 0.01408 65.94020 66.55181
70.0 0.01429 65.94149 66.52543
71.0 0.01408 65.94275 66.50179
50.0 0.02000 65.94398 66.48056
77.0 0.01299 65.94517 66.46130
62.0 0.01613 65.94633 66.44389
60.0 0.01667 65.94746 66.42801
74.0 0.01351 65.94855 66.41358
76.0 0.01316 65.94961 66.40038
70.0 0.01429 65.95064 66.38838
66.0 0.01515 65.95163 66.37739
58.0 0.01724 65.95258 66.36736
74.0 0.01351 65.95351 66.35818
61.0 0.01639 65.95441 66.34978
75.0 0.01333 65.95527 66.34213
69.0 0.01449 65.95609 66.33515
67.0 0.01493 65.95689 66.32881
77.0 0.01299 65.95764 66.32305
59.0 0.01695 65.95837 66.31784
65.0 0.01538 65.95905 66.31315
65.0 0.01538 65.95971 66.30895
59.0 0.01695 65.96033 66.30522
64.0 0.01563 65.96092 66.27576
80.0 0.01250 65.96147 66.27312
53.0 0.01887 65.96199 66.27090
69.0 0.01449 65.96248 66.26909
58.0 0.01724 65.96293 66.26763
49.0 0.02041 65.96335 66.26657
65.0 0.01538 65.96372 66.26589
53.0 0.01887 65.96407 66.27444
73.0 0.01370 65.96439 66.27460
58.0 0.01724 65.96466 66.27515
65.0 0.01538 65.96490 66.27609
76.0 0.01316 65.96512 66.27746
52.0 0.01923 65.96529 66.27922
72.0 0.01389 65.96543 66.28144
66.0 0.01515 65.96553 66.28410
63.0 0.01587 65.96561 66.28723
71.0 0.01408 65.96564 66.29092
64.0 0.01563 65.96564 66.29513
84.0 0.01190 65.96561 66.29993
62.0 0.01613 65.96554 66.30539
71.0 0.01408 65.96543 66.31159
76.0 0.01316 65.96529 66.31855
62.0 0.01613 65.96511 66.32642
54.0 0.01852 65.96490 66.33530
83.0 0.01205 65.96465 66.34529
74.0 0.01351 65.96438 66.35664
63.0 0.01587 65.96406 66.36952
67.0 0.01493 65.96371 66.38422
62.0 0.01613 65.96332 66.40103
71.0 0.01408 65.96289 66.42038
71.0 0.01408 65.96244 66.44267
57.0 0.01754 65.96194 66.46853
78.0 0.01282 65.96142 66.49845
58.0 0.01724 65.96085 66.53331
84.0 0.01190 65.96025 66.57369
78.0 0.01282 65.95961 66.62061
83.0 0.01205 65.95894 66.67481
63.0 0.01587 65.95824 66.73709
64.0 0.01563 65.95749 66.80862
64.0 0.01563 65.95671 66.88985
73.0 0.01370 65.95590 66.97334
62.0 0.01613 65.95505 67.07578
73.0 0.01370 65.95417 67.18908
81.0 0.01235 65.95324 67.31202
65.0 0.01538 65.95229 67.44338
79.0 0.01266 65.95129 67.57962
75.0 0.01333 65.95026 67.71652
67.0 0.01493 65.94920 67.84674
69.0 0.01449 65.94810 67.96223
63.0 0.01587 65.94696 68.05296
67.0 0.01493 65.94579 68.11036
65.0 0.01538 65.94458 68.12816
60.0 0.01667 65.94334 68.10499
83.0 0.01205 65.94205 68.04414
76.0 0.01316 65.94074 67.95338
82.0 0.01220 65.93938 67.84181
57.0 0.01754 65.93800 67.71928
52.0 0.01923 65.93658 67.59335
59.0 0.01695 65.93512 67.47053
63.0 0.01587 65.93362 67.35449
57.0 0.01754 65.93209 67.24829
69.0 0.01449 65.93052 67.15288
60.0 0.01667 65.92892 67.06924
60.0 0.01667 65.92728 66.99708
68.0 0.01471 65.92561 66.93640
75.0 0.01333 65.92390 66.88672
75.0 0.01333 65.92215 66.84721
56.0 0.01786 65.92036 66.81753
70.0 0.01429 65.91854 66.79704
68.0 0.01471 65.91669 66.78535
70.0 0.01429 65.91480 66.76633
61.0 0.01639 65.91288 66.77155
63.0 0.01587 65.91091 66.78514
70.0 0.01429 65.90891 66.80730
69.0 0.01449 65.90688 66.83851
68.0 0.01471 65.90481 66.87930
95.0 0.01053 65.90270 66.93060
52.0 0.01923 65.90056 66.99316
56.0 0.01786 65.89838 67.06824
88.0 0.01136 65.89617 67.15666
62.0 0.01613 65.89393 67.25961
71.0 0.01408 65.89164 67.37829
68.0 0.01471 65.88932 67.51299
71.0 0.01408 65.88696 67.66454
61.0 0.01639 65.88457 67.83206
62.0 0.01613 65.88214 68.01493
59.0 0.01695 65.87968 68.20980
68.0 0.01471 65.87718 68.41273
67.0 0.01493 65.87465 68.61581
57.0 0.01754 65.87208 68.80991
65.0 0.01538 65.86948 68.98190
75.0 0.01333 65.86684 69.11908
73.0 0.01370 65.86416 69.20907
64.0 0.01563 65.86145 69.24452
74.0 0.01351 65.85870 69.22484
73.0 0.01370 65.85593 69.15641
73.0 0.01370 65.85310 69.05071
78.0 0.01282 65.85026 68.92244
73.0 0.01370 65.84737 68.78518
81.0 0.01235 65.84445 68.65155
80.0 0.01250 65.84149 68.53065
65.0 0.01538 65.83851 68.43007
68.0 0.01471 65.83548 68.35471
55.0 0.01818 65.83242 68.30875
62.0 0.01613 65.82932 68.29510
81.0 0.01235 65.82619 68.31637
80.0 0.01250 65.82303 68.37458
79.0 0.01266 65.81983 68.47206
76.0 0.01316 65.81660 68.61020
53.0 0.01887 65.81333 68.79102
77.0 0.01299 65.81003 69.00683
59.0 0.01695 65.80669 69.27523
78.0 0.01282 65.80332 69.58639
70.0 0.01429 65.79991 69.93935
68.0 0.01471 65.79648 70.32812
69.0 0.01449 65.79300 70.74599
79.0 0.01266 65.78950 71.17837
76.0 0.01316 65.78596 71.60779
74.0 0.01351 65.78239 72.00696
57.0 0.01754 65.77877 72.34634
88.0 0.01136 65.77514 72.59211
66.0 0.01515 65.77146 72.71712
67.0 0.01493 65.76775 72.70495
58.0 0.01724 65.76402 72.55561
73.0 0.01370 65.76024 72.28477
70.0 0.01429 65.75643 71.92116
58.0 0.01724 65.75259 71.49566
59.0 0.01695 65.74872 71.04036
80.0 0.01250 65.74480 70.57858
63.0 0.01587 65.74087 70.13050
80.0 0.01250 65.73689 69.70665
61.0 0.01639 65.73289 69.31600
88.0 0.01136 65.72885 68.96071
64.0 0.01563 65.72478 68.64309
73.0 0.01370 65.72069 68.36285
67.0 0.01493 65.71655 68.11713
64.0 0.01563 65.71239 67.90503
75.0 0.01333 65.70818 67.72324
73.0 0.01370 65.70396 67.56980
90.0 0.01111 65.69969 67.44154
65.0 0.01538 65.69540 67.33657
85.0 0.01176 65.69108 67.25231
61.0 0.01639 65.68673 67.18729
59.0 0.01695 65.68233 67.13983
79.0 0.01266 65.67792 67.14764
69.0 0.01449 65.67347 67.13314
80.0 0.01250 65.66899 67.13444
66.0 0.01515 65.66448 67.15160
64.0 0.01563 65.65994 67.18502
67.0 0.01493 65.65538 67.23528
77.0 0.01299 65.65077 67.30335
72.0 0.01389 65.64615 67.38982
63.0 0.01587 65.64148 67.49578
49.0 0.02041 65.63680 67.62144
72.0 0.01389 65.63207 67.76749
65.0 0.01538 65.62733 67.93287
67.0 0.01493 65.62254 68.11675
53.0 0.01887 65.61774 68.31534
73.0 0.01370 65.61289 68.52422
70.0 0.01429 65.60803 68.73457
85.0 0.01176 65.60313 68.93600
67.0 0.01493 65.59821 69.11359
67.0 0.01493 65.59327 69.25147
68.0 0.01471 65.58828 69.33522
62.0 0.01613 65.58327 69.35374
73.0 0.01370 65.57823 69.30367
68.0 0.01471 65.57317 69.19018
63.0 0.01587 65.56808 69.02451
77.0 0.01299 65.56297 68.82276
68.0 0.01471 65.55782 68.59995
59.0 0.01695 65.55265 68.37074
65.0 0.01538 65.54745 68.14496
67.0 0.01493 65.54222 67.93100
83.0 0.01205 65.53696 67.73290
68.0 0.01471 65.53168 67.55427
74.0 0.01351 65.52637 67.39581
86.0 0.01163 65.52105 67.25852
50.0 0.02000 65.51570 67.14191
68.0 0.01471 65.51031 67.04514
73.0 0.01370 65.50491 66.96772
63.0 0.01587 65.49947 66.90217
71.0 0.01408 65.49402 66.85994
72.0 0.01389 65.48853 66.83344
81.0 0.01235 65.48302 66.82146
71.0 0.01408 65.47749 66.82257
62.0 0.01613 65.47194 66.83504
61.0 0.01639 65.46635 66.85697
54.0 0.01852 65.46075 66.88567
76.0 0.01316 65.45512 66.91807
81.0 0.01235 65.44947 66.96404
71.0 0.01408 65.44381 66.99107
73.0 0.01370 65.43811 67.00843
78.0 0.01282 65.43240 67.01196
61.0 0.01639 65.42665 66.99919
69.0 0.01449 65.42089 66.96992
66.0 0.01515 65.41510 66.92593
71.0 0.01408 65.40931 66.87102
62.0 0.01613 65.40347 66.80917
67.0 0.01493 65.39763 66.74481
64.0 0.01563 65.39175 66.68112
59.0 0.01695 65.38587 66.62091
62.0 0.01613 65.37995 66.56580
62.0 0.01613 65.37403 66.51712
60.0 0.01667 65.36807 66.47535
67.0 0.01493 65.36211 66.44103
69.0 0.01449 65.35612 66.41425
60.0 0.01667 65.35011 66.39504
52.0 0.01923 65.34409 66.38353
80.0 0.01250 65.33804 66.37975
67.0 0.01493 65.33198 66.38384
56.0 0.01786 65.32589 66.39612
82.0 0.01220 65.31979 66.41696
71.0 0.01408 65.31367 66.44706
55.0 0.01818 65.30754 66.48719
70.0 0.01429 65.30138 66.53860
70.0 0.01429 65.29522 66.60248
66.0 0.01515 65.28902 66.68083
68.0 0.01471 65.28283 66.81625
73.0 0.01370 65.27663 66.92936
69.0 0.01449 65.27039 67.06377
70.0 0.01429 65.26414 67.22158
68.0 0.01471 65.25788 67.40608
76.0 0.01316 65.25160 67.61925
69.0 0.01449 65.24531 67.86443
62.0 0.01613 65.23901 68.14275
65.0 0.01538 65.23268 68.45674
57.0 0.01754 65.22636 68.80546
68.0 0.01471 65.22001 69.18892
65.0 0.01538 65.21365 69.60167
63.0 0.01587 65.20728 70.03787
76.0 0.01316 65.20090 70.48358
70.0 0.01429 65.19450 70.92223
79.0 0.01266 65.18810 71.32764
66.0 0.01515 65.18169 71.67114
80.0 0.01250 65.17525 71.92215
76.0 0.01316 65.16882 72.05302
58.0 0.01724 65.16236 72.04848
58.0 0.01724 65.15591 71.90807
74.0 0.01351 65.14943 71.64635
72.0 0.01389 65.14296 71.29050
63.0 0.01587 65.13647 70.87019
82.0 0.01220 65.12998 70.41679
61.0 0.01639 65.12347 69.95334
67.0 0.01493 65.11697 69.50018
87.0 0.01149 65.11044 69.06811
71.0 0.01408 65.10392 68.66642
80.0 0.01250 65.09740 68.29831
89.0 0.01124 65.09085 67.96460
69.0 0.01449 65.08431 67.66628
74.0 0.01351 65.07776 67.40081
65.0 0.01538 65.07121 67.16707
83.0 0.01205 65.06464 66.96158
60.0 0.01667 65.05808 66.78236
48.0 0.02083 65.05151 66.62590
76.0 0.01316 65.04494 66.49003
72.0 0.01389 65.03836 66.37152
65.0 0.01538 65.03178 66.26846
63.0 0.01587 65.02520 66.17823
65.0 0.01538 65.01862 66.09915
61.0 0.01639 65.01204 66.02953
64.0 0.01563 65.00544 65.96763
64.0 0.01563 64.99886 65.91251
55.0 0.01818 64.99227 65.88360
56.0 0.01786 64.98569 65.83910
66.0 0.01515 64.97909 65.79860
72.0 0.01389 64.97250 65.76173
67.0 0.01493 64.96591 65.72785
67.0 0.01493 64.95934 65.69669
83.0 0.01205 64.95274 65.66780
67.0 0.01493 64.94617 65.64107
66.0 0.01515 64.93958 65.61616
68.0 0.01471 64.93301 65.59296
70.0 0.01429 64.92644 65.57123
59.0 0.01695 64.91987 65.55088
75.0 0.01333 64.91331 65.53181
53.0 0.01887 64.90675 65.51382
73.0 0.01370 64.90020 65.49692
75.0 0.01333 64.89365 65.48096
54.0 0.01852 64.88711 65.46592
72.0 0.01389 64.88056 65.45168
54.0 0.01852 64.87404 65.43583
74.0 0.01351 64.86751 65.42310
59.0 0.01695 64.86101 65.41104
67.0 0.01493 64.85449 65.39962
67.0 0.01493 64.84800 65.38880
80.0 0.01250 64.84151 65.37849
68.0 0.01471 64.83503 65.36873
63.0 0.01587 64.82858 65.35951
57.0 0.01754 64.82211 65.35072
86.0 0.01163 64.81567 65.34238
56.0 0.01786 64.80923 65.33450
73.0 0.01370 64.80281 65.32703
60.0 0.01667 64.79640 65.31993
69.0 0.01449 64.79001 65.31326
76.0 0.01316 64.78362 65.30693
66.0 0.01515 64.77725 65.30098
58.0 0.01724 64.77089 65.29536
65.0 0.01538 64.76456 65.29014
80.0 0.01250 64.75823 65.28518
60.0 0.01667 64.75193 65.28061
75.0 0.01333 64.74563 65.27633
71.0 0.01408 64.73936 65.27240
65.0 0.01538 64.73311 65.26879
70.0 0.01429 64.72685 65.26547
49.0 0.02041 64.72064 65.26249
72.0 0.01389 64.71443 65.25981
66.0 0.01515 64.70825 65.25744
63.0 0.01587 64.70209 65.25537
58.0 0.01724 64.69595 65.25363
71.0 0.01408 64.68982 65.25220
68.0 0.01471 64.68372 65.25110
64.0 0.01563 64.67764 65.25030
48.0 0.02083 64.67159 65.24985
76.0 0.01316 64.66555 65.24972
76.0 0.01316 64.65954 65.24994
56.0 0.01786 64.65356 65.25049
60.0 0.01667 64.64760 65.25139
65.0 0.01538 64.64167 65.25265
61.0 0.01639 64.63576 65.25426
82.0 0.01220 64.62988 65.25626
63.0 0.01587 64.62402 65.25862
70.0 0.01429 64.61819 65.25792
66.0 0.01515 64.61239 65.26112
60.0 0.01667 64.60661 65.26473
69.0 0.01449 64.60087 65.26878
68.0 0.01471 64.59516 65.27325
58.0 0.01724 64.58946 65.27821
79.0 0.01266 64.58382 65.28363
73.0 0.01370 64.57819 65.28953
70.0 0.01429 64.57260 65.29595
75.0 0.01333 64.56705 65.30288
77.0 0.01299 64.56152 65.31038
79.0 0.01266 64.55603 65.31844
77.0 0.01299 64.55057 65.32711
70.0 0.01429 64.54515 65.33638
74.0 0.01351 64.53976 65.34634
73.0 0.01370 64.53441 65.35692
61.0 0.01639 64.52908 65.36825
71.0 0.01408 64.52381 65.38029
63.0 0.01587 64.51856 65.39317
76.0 0.01316 64.51337 65.40680
73.0 0.01370 64.50820 65.42133
83.0 0.01205 64.50307 65.43673
73.0 0.01370 64.49799 65.45306
71.0 0.01408 64.49294 65.47042
73.0 0.01370 64.48795 65.48883
66.0 0.01515 64.48297 65.50837
67.0 0.01493 64.47806 65.52905
67.0 0.01493 64.47318 65.55101
69.0 0.01449 64.46835 65.57423
68.0 0.01471 64.46355 65.59051
62.0 0.01613 64.45881 65.61668
78.0 0.01282 64.45410 65.64452
64.0 0.01563 64.44946 65.67395
72.0 0.01389 64.44484 65.70524
73.0 0.01370 64.44028 65.73837
62.0 0.01613 64.43577 65.77361
74.0 0.01351 64.43130 65.81094
70.0 0.01429 64.42690 65.85062
66.0 0.01515 64.42252 65.89289
72.0 0.01389 64.41821 65.93777
65.0 0.01538 64.41393 65.98560
75.0 0.01333 64.40973 66.03651
68.0 0.01471 64.40556 66.10276
57.0 0.01754 64.40146 66.16071
63.0 0.01587 64.39739 66.22277
53.0 0.01887 64.39339 66.28896
72.0 0.01389 64.38944 66.35994
79.0 0.01266 64.38556 66.43587
84.0 0.01190 64.38171 66.51746
78.0 0.01282 64.37794 66.60494
68.0 0.01471 64.37421 66.69907
77.0 0.01299 64.37055 66.80074
91.0 0.01099 64.36694 66.91027
78.0 0.01282 64.36340 67.02904
61.0 0.01639 64.35991 67.15762
73.0 0.01370 64.35648 67.29772
79.0 0.01266 64.35311 67.45026
74.0 0.01351 64.34980 67.61757
76.0 0.01316 64.34657 67.80109
78.0 0.01282 64.34338 68.00407
62.0 0.01613 64.34026 68.22876
84.0 0.01190 64.33721 68.47975
59.0 0.01695 64.33422 68.76084
73.0 0.01370 64.33130 69.07689
84.0 0.01190 64.32845 69.43593
60.0 0.01667 64.32565 69.84368
80.0 0.01250 64.32293 70.31048
60.0 0.01667 64.32028 70.84449
85.0 0.01176 64.31769 71.45901
79.0 0.01266 64.31518 72.16400
71.0 0.01408 64.31273 72.97569
70.0 0.01429 64.31035 73.90500
59.0 0.01695 64.30805 74.96587
56.0 0.01786 64.30582 76.17694
82.0 0.01220 64.30366 77.55211
78.0 0.01282 64.30157 79.09753
85.0 0.01176 64.29956 80.82759
67.0 0.01493 64.29762 82.73872
64.0 0.01563 64.29576 84.82962
94.0 0.01064 64.29398 87.08885
78.0 0.01282 64.29227 89.47507
80.0 0.01250 64.29063 91.94264
75.0 0.01333 64.28908 94.39884
75.0 0.01333 64.28761 96.73820
99.0 0.01010 64.28621 98.80808
86.0 0.01163 64.28489 100.45709
85.0 0.01176 64.28365 101.52906
103.0 0.00971 64.28250 101.91940
96.0 0.01042 64.28143 101.58727
95.0 0.01053 64.28043 100.57784
98.0 0.01020 64.27953 98.99210
105.0 0.00952 64.27871 96.98969
79.0 0.01266 64.27797 94.71970
100.0 0.01000 64.27732 92.33623
90.0 0.01111 64.27675 89.94477
84.0 0.01190 64.27627 87.63773
74.0 0.01351 64.27588 85.46094
81.0 0.01235 64.27557 83.45558
91.0 0.01099 64.27536 81.63006
73.0 0.01370 64.27523 79.99641
86.0 0.01163 64.27519 78.54431
77.0 0.01299 64.27525 77.27412
80.0 0.01250 64.27539 76.16885
70.0 0.01429 64.27563 75.22030
72.0 0.01389 64.27596 74.41151
66.0 0.01515 64.27637 73.73248
72.0 0.01389 64.27689 73.16889
84.0 0.01190 64.27750 72.70843
72.0 0.01389 64.27821 72.34264
64.0 0.01563 64.27901 72.06150
72.0 0.01389 64.27990 71.85905
79.0 0.01266 64.28090 71.72926
75.0 0.01333 64.28199 71.66895
73.0 0.01370 64.28319 71.67591
72.0 0.01389 64.28447 71.74948
99.0 0.01010 64.28587 71.89060
79.0 0.01266 64.28735 72.10032
60.0 0.01667 64.28895 72.40234
73.0 0.01370 64.29063 72.75793
74.0 0.01351 64.29243 73.18965
62.0 0.01613 64.29433 73.70222
73.0 0.01370 64.29633 74.29483
74.0 0.01351 64.29843 74.96973
82.0 0.01220 64.30064 75.72137
83.0 0.01205 64.30296 76.54561
63.0 0.01587 64.30537 77.42616
82.0 0.01220 64.30791 78.34531
90.0 0.01111 64.31054 79.26826
86.0 0.01163 64.31329 80.15649
82.0 0.01220 64.31614 80.95554
64.0 0.01563 64.31910 81.61384
85.0 0.01176 64.32217 82.08022
97.0 0.01031 64.32535 82.32513
75.0 0.01333 64.32864 82.34242
87.0 0.01149 64.33204 82.15614
88.0 0.01136 64.33556 81.81222
70.0 0.01429 64.33919 81.37188
74.0 0.01351 64.34293 80.89587
82.0 0.01220 64.34679 80.44291
59.0 0.01695 64.35076 80.05902
87.0 0.01149 64.35484 79.78362
83.0 0.01205 64.35904 79.64545
73.0 0.01370 64.36336 79.66833
84.0 0.01190 64.36779 79.86230
87.0 0.01149 64.37234 80.25990
64.0 0.01563 64.37701 80.86693
87.0 0.01149 64.38181 81.69287
101.0 0.00990 64.38670 82.74457
92.0 0.01087 64.39174 84.03308
88.0 0.01136 64.39688 85.55379
94.0 0.01064 64.40215 87.30773
81.0 0.01235 64.40754 89.27406
82.0 0.01220 64.41306 91.43308
98.0 0.01020 64.41869 93.73058
103.0 0.00971 64.42445 96.10494
99.0 0.01010 64.43032 98.44666
110.0 0.00909 64.43633 100.63313
97.0 0.01031 64.44246 102.49950
118.0 0.00847 64.44872 103.88921
99.0 0.01010 64.45509 104.65448
108.0 0.00926 64.46161 104.70882
104.0 0.00962 64.46823 104.03880
106.0 0.00943 64.47499 102.71144
116.0 0.00862 64.48188 100.84984
89.0 0.01124 64.48889 98.62698
92.0 0.01087 64.49605 96.17715
69.0 0.01449 64.50331 93.65434
91.0 0.01099 64.51073 91.15511
77.0 0.01299 64.51824 88.76415
63.0 0.01587 64.52592 86.52066
84.0 0.01190 64.53371 84.46101
86.0 0.01163 64.54164 82.59004
78.0 0.01282 64.54969 80.91754
74.0 0.01351 64.55789 79.43264
72.0 0.01389 64.56621 78.13235
90.0 0.01111 64.57465 77.00212
80.0 0.01250 64.58326 76.02737
77.0 0.01299 64.59197 75.19862
79.0 0.01266 64.60084 74.49947
92.0 0.01087 64.60983 73.92029
80.0 0.01250 64.61897 73.44774
60.0 0.01667 64.62823 73.07402
74.0 0.01351 64.63763 72.78978
62.0 0.01613 64.64716 72.59007
62.0 0.01613 64.65684 72.46994
95.0 0.01053 64.66664 72.42744
68.0 0.01471 64.67660 72.46181
80.0 0.01250 64.68669 72.57396
79.0 0.01266 64.69688 72.76569
79.0 0.01266 64.70727 73.04144
82.0 0.01220 64.71775 73.40408
77.0 0.01299 64.72840 73.88954
75.0 0.01333 64.73917 74.44077
80.0 0.01250 64.75011 75.09351
77.0 0.01299 64.76116 75.84772
88.0 0.01136 64.77237 76.70645
84.0 0.01190 64.78369 77.66280
88.0 0.01136 64.79520 78.71131
88.0 0.01136 64.80680 79.83070
80.0 0.01250 64.81857 80.99720
87.0 0.01149 64.83047 82.16433
75.0 0.01333 64.84253 83.27928
65.0 0.01538 64.85471 84.26619
69.0 0.01449 64.86702 85.04810
80.0 0.01250 64.87951 85.55020
94.0 0.01064 64.89211 85.71423
77.0 0.01299 64.90488 85.51736
66.0 0.01515 64.91778 84.97632
84.0 0.01190 64.93083 84.13986
83.0 0.01205 64.94402 83.08394
80.0 0.01250 64.95735 81.88371
67.0 0.01493 64.97081 80.61664
78.0 0.01282 64.98445 79.33729
79.0 0.01266 64.99819 78.09442
83.0 0.01205 65.01212 76.91281
85.0 0.01176 65.02616 75.81400
70.0 0.01429 65.04032 74.80810
74.0 0.01351 65.05469 73.89359
65.0 0.01538 65.06915 73.07420
74.0 0.01351 65.08379 72.34301
86.0 0.01163 65.09855 71.69746
78.0 0.01282 65.11347 71.12855
78.0 0.01282 65.12852 70.63139
81.0 0.01235 65.14373 70.19682
71.0 0.01408 65.15907 69.81942
76.0 0.01316 65.17458 69.49084
66.0 0.01515 65.19019 69.20600
87.0 0.01149 65.20598 68.95794
67.0 0.01493 65.22189 68.74251
68.0 0.01471 65.23797 68.55418
69.0 0.01449 65.25417 68.38974
72.0 0.01389 65.27050 68.24537
83.0 0.01205 65.28703 68.11802
70.0 0.01429 65.30364 68.00567
58.0 0.01724 65.32044 67.90591
61.0 0.01639 65.33735 67.81746
56.0 0.01786 65.35443 67.73855
74.0 0.01351 65.37164 67.66833
67.0 0.01493 65.38901 67.60560
71.0 0.01408 65.40647 67.56327
65.0 0.01538 65.42414 67.51358
79.0 0.01266 65.44189 67.46951
71.0 0.01408 65.45983 67.43045
75.0 0.01333 65.47790 67.39606
61.0 0.01639 65.49606 67.36604
61.0 0.01639 65.51443 67.33989
75.0 0.01333 65.53288 67.31747
77.0 0.01299 65.55152 67.29850
69.0 0.01449 65.57027 67.28281
75.0 0.01333 65.58919 67.27014
72.0 0.01389 65.60821 67.26041
73.0 0.01370 65.62740 67.25347
60.0 0.01667 65.64671 67.24916
70.0 0.01429 65.66618 67.24736
58.0 0.01724 65.68573 67.24802
79.0 0.01266 65.70549 67.25108
79.0 0.01266 65.72532 67.25642
68.0 0.01471 65.74533 67.26408
73.0 0.01370 65.76544 67.27393
74.0 0.01351 65.78568 67.28599
64.0 0.01563 65.80611 67.30031
70.0 0.01429 65.82661 67.31675
68.0 0.01471 65.84729 67.33549
69.0 0.01449 65.86807 67.35648
63.0 0.01587 65.88901 67.37975
72.0 0.01389 65.91005 67.40537
69.0 0.01449 65.93125 67.43540
70.0 0.01429 65.95255 67.46597
67.0 0.01493 65.97401 67.49931
74.0 0.01351 65.99554 67.53530
68.0 0.01471 66.01725 67.57433
67.0 0.01493 66.03907 67.61648
63.0 0.01587 66.06098 67.66194
75.0 0.01333 66.08307 67.71119
51.0 0.01961 66.10522 67.76432
70.0 0.01429 66.12757 67.82198
67.0 0.01493 66.14997 67.88441
75.0 0.01333 66.17254 67.95245
76.0 0.01316 66.19520 68.02660
74.0 0.01351 66.21801 68.10799
55.0 0.01818 66.24090 68.19737
74.0 0.01351 66.26394 68.29634
65.0 0.01538 66.28705 68.40602
60.0 0.01667 66.31033 68.52871
86.0 0.01163 66.33366 68.66590
64.0 0.01563 66.35716 68.82065
66.0 0.01515 66.38073 68.99507
73.0 0.01370 66.40441 69.19250
62.0 0.01613 66.42824 69.41681
68.0 0.01471 66.45211 69.67075
66.0 0.01515 66.47614 69.95911
64.0 0.01563 66.50024 70.28471
77.0 0.01299 66.52449 70.65266
63.0 0.01587 66.54880 71.06515
69.0 0.01449 66.57324 71.52681
81.0 0.01235 66.59775 72.03820
66.0 0.01515 66.62239 72.60217
64.0 0.01563 66.64707 73.21552
69.0 0.01449 66.67192 73.87659
86.0 0.01163 66.69679 74.57458
68.0 0.01471 66.72176 75.29686
72.0 0.01389 66.74687 76.02374
83.0 0.01205 66.77201 76.72288
79.0 0.01266 66.79731 77.35966
91.0 0.01099 66.82262 77.88896
89.0 0.01124 66.84807 78.27077
88.0 0.01136 66.87355 78.47021
86.0 0.01163 66.89916 78.47095
83.0 0.01205 66.92481 78.27673
84.0 0.01190 66.95058 77.91048
77.0 0.01299 66.97637 77.41114
81.0 0.01235 67.00228 76.81994
68.0 0.01471 67.02824 76.17984
79.0 0.01266 67.05421 75.52654
83.0 0.01205 67.08032 74.88334
68.0 0.01471 67.10646 74.31046
77.0 0.01299 67.13270 73.74086
78.0 0.01282 67.15894 73.22156
78.0 0.01282 67.18533 72.75361
68.0 0.01471 67.21168 72.33918
78.0 0.01282 67.23815 71.97546
87.0 0.01149 67.26463 71.66144
80.0 0.01250 67.29120 71.39279
78.0 0.01282 67.31777 71.16718
63.0 0.01587 67.34443 70.98019
78.0 0.01282 67.37108 70.82901
72.0 0.01389 67.39783 70.70981
67.0 0.01493 67.42456 70.62000
66.0 0.01515 67.45133 70.55677
70.0 0.01429 67.47818 70.51787
66.0 0.01515 67.50502 70.50172
69.0 0.01449 67.53193 70.50700
80.0 0.01250 67.55880 70.53295
55.0 0.01818 67.58575 70.57928
66.0 0.01515 67.61268 70.64593
63.0 0.01587 67.63966 70.73359
69.0 0.01449 67.66663 70.84270
66.0 0.01515 67.69364 70.97471
71.0 0.01408 67.72062 71.13025
78.0 0.01282 67.74764 71.31124
57.0 0.01754 67.77465 71.51847
74.0 0.01351 67.80160 71.75262
56.0 0.01786 67.82862 72.14926
82.0 0.01220 67.85560 72.44122
70.0 0.01429 67.88261 72.76147
81.0 0.01235 67.90954 73.10666
79.0 0.01266 67.93653 73.47411
70.0 0.01429 67.96343 73.85576
73.0 0.01370 67.99036 74.24326
75.0 0.01333 68.01723 74.62177
88.0 0.01136 68.04411 74.97616
87.0 0.01149 68.07092 75.24847
76.0 0.01316 68.09772 75.50051
72.0 0.01389 68.12445 75.68053
90.0 0.01111 68.15117 75.78553
70.0 0.01429 68.17779 75.82094
70.0 0.01429 68.20437 75.80154
78.0 0.01282 68.23094 75.74746
93.0 0.01075 68.25742 75.68136
77.0 0.01299 68.28387 75.62465
82.0 0.01220 68.31019 75.59668
64.0 0.01563 68.33652 75.61335
81.0 0.01235 68.36270 75.68748
75.0 0.01333 68.38886 75.83001
93.0 0.01075 68.41489 76.04900
69.0 0.01449 68.44089 76.35256
76.0 0.01316 68.46675 76.74554
78.0 0.01282 68.49256 77.23442
91.0 0.01099 68.51825 77.82144
79.0 0.01266 68.54377 78.50761
59.0 0.01695 68.56927 79.29601
89.0 0.01124 68.59462 80.17928
101.0 0.00990 68.61988 81.15243
79.0 0.01266 68.64499 82.19651
86.0 0.01163 68.67001 83.29150
108.0 0.00926 68.69485 84.39764
90.0 0.01111 68.71960 85.47080
74.0 0.01351 68.74418 86.44614
92.0 0.01087 68.76865 87.25852
92.0 0.01087 68.79293 87.83685
91.0 0.01099 68.81709 88.12840
97.0 0.01031 68.84106 88.10266
81.0 0.01235 68.86491 87.76281
94.0 0.01064 68.88853 87.14509
88.0 0.01136 68.91198 86.30692
76.0 0.01316 68.93530 85.31422
81.0 0.01235 68.95840 84.23714
89.0 0.01124 68.98133 83.12852
71.0 0.01408 69.00402 82.03680
76.0 0.01316 69.02658 80.98904
92.0 0.01087 69.04887 80.00964
66.0 0.01515 69.07098 79.10662
83.0 0.01205 69.09285 78.33301
85.0 0.01176 69.11453 77.59945
73.0 0.01370 69.13595 76.95065
78.0 0.01282 69.15715 76.38046
73.0 0.01370 69.17811 75.87193
69.0 0.01449 69.19876 75.44776
75.0 0.01333 69.21923 75.08620
74.0 0.01351 69.23940 74.78333
78.0 0.01282 69.25934 74.53243
69.0 0.01449 69.27898 74.32946
67.0 0.01493 69.29837 74.16902
80.0 0.01250 69.31742 74.04780
72.0 0.01389 69.33624 73.96207
71.0 0.01408 69.35471 73.90961
80.0 0.01250 69.37292 73.88834
75.0 0.01333 69.39079 73.89718
87.0 0.01149 69.40836 73.93561
67.0 0.01493 69.42558 74.00349
66.0 0.01515 69.44249 74.10162
80.0 0.01250 69.45903 74.23058
59.0 0.01695 69.47523 74.39178
79.0 0.01266 69.49110 74.58713
93.0 0.01075 69.50660 74.81744
81.0 0.01235 69.52174 75.08509
91.0 0.01099 69.53649 75.39026
94.0 0.01064 69.55087 75.73483
69.0 0.01449 69.56483 76.11729
76.0 0.01316 69.57844 76.53755
100.0 0.01000 69.59160 76.99038
78.0 0.01282 69.60439 77.47120
77.0 0.01299 69.61671 77.96809
87.0 0.01149 69.62865 78.46848
72.0 0.01389 69.64012 78.91120
85.0 0.01176 69.65113 79.35505
77.0 0.01299 69.66171 79.73738
82.0 0.01220 69.67183 80.03564
74.0 0.01351 69.68148 80.23794
71.0 0.01408 69.69064 80.34198
89.0 0.01124 69.69933 80.35923
78.0 0.01282 69.70750 80.31131
81.0 0.01235 69.71519 80.22651
61.0 0.01639 69.72235 80.13543
108.0 0.00926 69.72900 80.06653
62.0 0.01613 69.73511 80.04543
67.0 0.01493 69.74068 80.09310
76.0 0.01316 69.74571 80.22694
70.0 0.01429 69.75016 80.46069
81.0 0.01235 69.75407 80.80736
63.0 0.01587 69.75739 81.27536
82.0 0.01220 69.76012 81.87459
101.0 0.00990 69.76225 82.60909
79.0 0.01266 69.76378 83.48606
105.0 0.00952 69.76469 84.50340
87.0 0.01149 69.76498 85.66266
103.0 0.00971 69.76464 86.95104
84.0 0.01190 69.76364 88.35758
80.0 0.01250 69.76199 89.84971
108.0 0.00926 69.75968 91.39188
80.0 0.01250 69.75669 92.91949
98.0 0.01020 69.75301 94.36163
112.0 0.00893 69.74863 95.62057
93.0 0.01075 69.74355 96.60084
91.0 0.01099 69.73774 97.21323
97.0 0.01031 69.73121 97.39151
108.0 0.00926 69.72392 97.11365
82.0 0.01220 69.71590 96.40488
94.0 0.01064 69.70710 95.32711
111.0 0.00901 69.69754 93.97424
94.0 0.01064 69.68718 92.43811
85.0 0.01176 69.67604 90.81419
80.0 0.01250 69.66407 89.17010
84.0 0.01190 69.65130 87.56755
87.0 0.01149 69.63767 86.03859
84.0 0.01190 69.62321 84.61183
68.0 0.01471 69.60793 83.30146
88.0 0.01136 69.59172 82.10683
108.0 0.00926 69.57468 81.03407
88.0 0.01136 69.55670 80.05495
77.0 0.01299 69.53785 79.20894
87.0 0.01149 69.51804 78.46474
63.0 0.01587 69.49734 77.81732
76.0 0.01316 69.47566 77.25601
91.0 0.01099 69.45308 76.77492
83.0 0.01205 69.42944 76.36446
88.0 0.01136 69.40491 76.01937
66.0 0.01515 69.37932 75.73199
72.0 0.01389 69.35275 75.49815
68.0 0.01471 69.32512 75.31266
70.0 0.01429 69.29649 75.17291
77.0 0.01299 69.26684 75.07626
71.0 0.01408 69.23603 75.02126
78.0 0.01282 69.20423 75.00775
69.0 0.01449 69.17127 75.03603
74.0 0.01351 69.13725 75.10709
78.0 0.01282 69.10205 75.22296
66.0 0.01515 69.06577 75.38528
91.0 0.01099 69.02828 75.59714
69.0 0.01449 68.98971 75.86021
84.0 0.01190 68.94984 76.17773
79.0 0.01266 68.90889 76.55039
92.0 0.01087 68.86664 76.98049
82.0 0.01220 68.82319 77.46635
86.0 0.01163 68.77856 78.00444
79.0 0.01266 68.73257 78.69003
89.0 0.01124 68.68542 79.31357
64.0 0.01563 68.63687 79.95860
97.0 0.01031 68.58708 80.59878
84.0 0.01190 68.53590 81.20477
83.0 0.01205 68.48345 81.73544
84.0 0.01190 68.42957 82.15058
59.0 0.01695 68.37439 82.40874
96.0 0.01042 68.31775 82.48135
82.0 0.01220 68.25982 82.35538
75.0 0.01333 68.20034 82.03780
96.0 0.01042 68.13951 81.55548
76.0 0.01316 68.07713 80.94463
82.0 0.01220 68.01337 80.24995
79.0 0.01266 67.94816 79.51067
86.0 0.01163 67.88125 78.75919
66.0 0.01515 67.81300 78.02476
76.0 0.01316 67.74306 77.32303
80.0 0.01250 67.67166 76.66891
64.0 0.01563 67.59856 76.06712
83.0 0.01205 67.52398 75.52358
79.0 0.01266 67.44765 75.03721
74.0 0.01351 67.36987 74.60910
64.0 0.01563 67.29018 74.23549
74.0 0.01351 67.20906 73.91510
67.0 0.01493 67.12606 73.64307
75.0 0.01333 67.04140 73.41621
84.0 0.01190 66.95513 73.23001
80.0 0.01250 66.86691 73.07858
83.0 0.01205 66.77712 72.95694
60.0 0.01667 66.68526 72.85793
86.0 0.01163 66.59185 72.77478
79.0 0.01266 66.49640 72.69912
80.0 0.01250 66.39922 72.62312
64.0 0.01563 66.30003 72.53922
68.0 0.01471 66.19908 72.44206
57.0 0.01754 66.09606 72.32842
83.0 0.01205 65.99133 72.19883
69.0 0.01449 65.88432 72.05543
81.0 0.01235 65.77563 71.90364
64.0 0.01563 65.66470 71.74818
72.0 0.01389 65.55190 71.59483
70.0 0.01429 65.43706 71.44784
69.0 0.01449 65.31996 71.31055
72.0 0.01389 65.20103 71.18609
98.0 0.01020 65.07970 71.07576
79.0 0.01266 64.95643 70.98122
71.0 0.01408 64.83080 70.90315
70.0 0.01429 64.70316 70.84242
74.0 0.01351 64.57311 70.79946
57.0 0.01754 64.44102 70.77495
67.0 0.01493 64.30647 71.88057
79.0 0.01266 64.16995 71.90359
64.0 0.01563 64.03080 71.94782
90.0 0.01111 63.88941 72.01454
67.0 0.01493 63.74589 72.10534
80.0 0.01250 63.59966 72.22315
63.0 0.01587 63.45135 72.37019
75.0 0.01333 63.30015 72.55028
83.0 0.01205 63.14695 72.76727
77.0 0.01299 62.99092 73.02671
75.0 0.01333 62.83260 73.33343
73.0 0.01370 62.67151 73.69550
84.0 0.01190 62.50810 74.11902
71.0 0.01408 62.34184 74.61437
62.0 0.01613 62.17336 75.18895
72.0 0.01389 62.00170 75.85492
85.0 0.01176 61.82763 76.62142
79.0 0.01266 61.65127 77.49819
83.0 0.01205 61.47164 78.50067
82.0 0.01220 61.28953 79.63460
62.0 . . .
loop_
_refln_index_h
_refln_index_k
_refln_index_l
_pd_refln_wavelength_id
_refln_observed_status
_refln_F_squared_meas
_refln_F_squared_calc
_refln_phase_calc
_refln_d_spacing
_gsas_i100_meas
1 1 0 1 o 1444.180 1444.180 0.00 7.21234 12.47
1 1 0 2 o 1398.293 1398.293 0.00 7.21234 6.01
2 0 0 1 o 959.711 959.711 0.00 5.09990 2.04
2 0 0 2 o 0.001 0.001 0.00 5.09990 0.00
2 1 0 1 o 3123.759 3123.759 0.00 4.56149 21.09
2 1 0 2 o 3044.745 3044.745 0.00 4.56149 10.22
2 1 1 1 o 2470.055 2470.055 0.00 4.16405 13.79
2 1 1 2 o 1810.599 1810.599 0.00 4.16405 5.03
2 2 0 1 o 0.001 0.001 0.00 3.60617 0.00
2 2 0 2 o 0.001 0.001 0.00 3.60617 0.00
3 1 0 1 o 258.284 258.284 0.00 3.22546 0.84
3 1 0 2 o 0.001 0.001 0.00 3.22546 0.00
2 2 2 1 o 20138.537 20138.537 0.00 2.94443 17.92
2 2 2 2 o 10232.462 10232.462 0.00 2.94443 4.53
3 2 0 1 o 12084.045 12084.045 0.00 2.82891 29.55
3 2 0 2 o 8758.935 8758.935 0.00 2.82891 10.65
3 2 1 1 o 18112.357 18112.357 0.00 2.72601 81.67
3 2 1 2 o 16120.330 16120.330 0.00 2.72601 36.15
4 0 0 1 o 13949.091 13949.091 0.00 2.54995 6.78
4 0 0 2 o 11439.606 11439.606 0.00 2.54995 2.77
4 1 0 1 o 9419.301 9419.301 0.00 2.47381 17.12
4 1 0 2 o 6978.211 6978.211 0.00 2.47381 6.31
3 3 0 1 o 12110.430 12110.430 0.00 2.40411 10.32
4 1 1 1 o 0.001 0.001 0.00 2.40411 0.00
3 3 0 2 o 11373.000 11373.000 0.00 2.40411 4.82
4 1 1 2 o 0.001 0.001 0.00 2.40411 0.00
4 2 0 1 o 1218.508 1218.508 0.00 2.28074 1.84
4 2 0 2 o 1689.432 1689.432 0.00 2.28074 1.27
4 2 1 1 o 2021.039 2021.039 0.00 2.22578 5.78
4 2 1 2 o 2641.924 2641.924 0.00 2.22578 3.76
3 3 2 2 o 3556.377 3556.377 0.00 2.17460 2.40
3 3 2 1 o 1420.034 1420.034 0.00 2.17460 1.93
4 2 2 1 o 2045.954 2045.954 0.00 2.08202 2.51
4 2 2 2 o 2066.385 2066.385 0.00 2.08202 1.26
4 3 0 1 o 2497.041 2497.041 0.00 2.03996 2.92
4 3 0 2 o 2511.896 2511.896 0.00 2.03996 1.46
5 1 0 1 o 2061.332 2061.332 0.00 2.00034 2.30
4 3 1 1 o 153.200 153.200 0.00 2.00034 0.34
5 1 0 2 o 2629.288 2629.288 0.00 2.00034 1.46
4 3 1 2 o 93.884 93.884 0.00 2.00034 0.10
4 3 2 1 o 4232.092 4232.092 0.00 1.89405 8.33
4 3 2 2 o 5332.807 5332.807 0.00 1.89405 5.22
5 2 0 1 o 2192.078 2192.078 0.00 1.89405 2.16
5 2 0 2 o 1093.276 1093.276 0.00 1.89405 0.53
5 2 1 1 o 84.406 84.406 0.00 1.86222 0.16
5 2 1 2 o 0.002 0.002 0.00 1.86222 0.00
4 4 0 1 o 4848.172 4848.172 0.00 1.80309 2.12
4 4 0 2 o 3069.163 3069.163 0.00 1.80309 0.67
4 3 3 1 o 14643.623 14643.623 0.00 1.74925 11.93
4 3 3 2 o 16881.520 16881.520 0.00 1.74925 6.84
5 3 0 1 o 23812.219 23812.219 0.00 1.74925 19.40
5 3 0 2 o 25672.797 25672.797 0.00 1.74925 10.40
5 3 1 1 o 8753.881 8753.881 0.00 1.72408 13.78
5 3 1 2 o 9007.436 9007.436 0.00 1.72408 7.05
6 0 0 1 o 46312.02 46312.02 0.00 1.69997 8.81
4 4 2 1 o 4737.273 4737.273 0.00 1.69997 3.61
6 0 0 2 o 47269.59 47269.59 0.00 1.69997 4.47
4 4 2 2 o 5131.356 5131.356 0.00 1.69997 1.94
6 1 0 1 o 3718.282 3718.282 0.00 1.67684 2.74
6 1 0 2 o 2273.913 2273.913 0.00 1.67684 0.83
5 3 2 1 o 16798.520 16798.520 0.00 1.65463 23.97
6 1 1 1 o 4669.119 4669.119 0.00 1.65463 3.33
6 1 1 2 o 4854.667 4854.667 0.00 1.65463 1.72
5 3 2 2 o 17868.428 17868.428 0.00 1.65463 12.67
6 2 0 1 o 13854.801 13854.801 0.00 1.61273 9.30
6 2 0 2 o 14146.601 14146.601 0.00 1.61273 4.72
6 2 1 1 o 803.191 803.191 0.00 1.59294 1.05
5 4 0 1 o 5893.353 5893.353 0.00 1.59294 3.84
6 2 1 2 o 326.763 326.763 0.00 1.59294 0.21
5 4 0 2 o 4145.981 4145.981 0.00 1.59294 1.34
5 4 1 1 o 20.711 20.711 0.00 1.57386 0.03
5 4 1 2 o 31.106 31.106 0.00 1.57386 0.02
6 2 2 1 o 0.001 0.001 0.00 1.53768 0.00
6 2 2 2 o 0.001 0.001 0.00 1.53768 0.00
5 4 2 1 o 2.322 2.322 0.00 1.52050 0.00
6 3 0 1 o 2.200 2.200 0.00 1.52050 0.00
5 4 2 2 o 0.001 0.001 0.00 1.52050 0.00
6 3 0 2 o 0.001 0.001 0.00 1.52050 0.00
6 3 1 1 o 1730.307 1730.307 0.00 1.50388 1.97
6 3 1 2 o 1323.830 1323.830 0.00 1.50388 0.75
4 4 4 1 o 6619.334 6619.334 0.00 1.47221 1.19
4 4 4 2 o 11614.135 11614.135 0.00 1.47221 1.04
6 3 2 1 o 795.010 795.010 0.00 1.45711 0.84
6 3 2 2 o 5.790 5.790 0.00 1.45711 0.00
5 5 0 1 o 456.208 456.208 0.00 1.44247 0.12
7 1 0 1 o 3527.852 3527.852 0.00 1.44247 1.82
5 4 3 1 o 0.004 0.004 0.00 1.44247 0.00
7 1 0 2 o 5512.551 5512.551 0.00 1.44247 1.41
5 5 0 2 o 790.840 790.840 0.00 1.44247 0.10
5 4 3 2 o 0.005 0.005 0.00 1.44247 0.00
6 4 0 1 o 2570.075 2570.075 0.00 1.41446 1.26
6 4 0 2 o 2486.557 2486.557 0.00 1.41446 0.61
7 2 0 1 o 0.001 0.001 0.00 1.40105 0.00
6 4 1 1 o 1665.302 1665.302 0.00 1.40105 1.60
7 2 0 2 o 0.001 0.001 0.00 1.40105 0.00
6 4 1 2 o 2066.230 2066.230 0.00 1.40105 0.99
6 3 3 1 o 5302.335 5302.335 0.00 1.38802 2.50
6 3 3 2 o 8083.261 8083.261 0.00 1.38802 1.89
7 2 1 1 o 41.260 41.260 0.00 1.38802 0.04
5 5 2 1 o 3164.515 3164.515 0.00 1.38802 1.49
5 5 2 2 o 4871.561 4871.561 0.00 1.38802 1.14
7 2 1 2 o 115.557 115.557 0.00 1.38802 0.05
6 4 2 2 o 3392.341 3392.341 0.00 1.36300 1.53
6 4 2 1 o 447.795 447.795 0.00 1.36300 0.40
7 3 0 1 o 4429.129 4429.129 0.00 1.33930 1.93
7 3 0 2 o 4928.651 4928.651 0.00 1.33930 1.07
7 3 1 2 o 2738.880 2738.880 0.00 1.32790 1.16
7 3 1 1 o 1911.462 1911.462 0.00 1.32790 1.63
6 4 3 1 o 962.866 962.866 0.00 1.30595 0.79
6 4 3 2 o 1207.480 1207.480 0.00 1.30595 0.49
6 5 0 1 o 4722.123 4722.123 0.00 1.30595 1.94
6 5 0 2 o 5513.566 5513.566 0.00 1.30595 1.13
7 3 2 1 o 493.453 493.453 0.00 1.29538 0.40
6 5 1 1 o 2199.724 2199.724 0.00 1.29538 1.78
6 5 1 2 o 2143.970 2143.970 0.00 1.29538 0.86
7 3 2 2 o 419.950 419.950 0.00 1.29538 0.17
8 0 0 1 o 0.004 0.004 0.00 1.27497 0.00
8 0 0 2 o 0.001 0.001 0.00 1.27497 0.00
7 4 0 1 o 0.002 0.002 0.00 1.26513 0.00
6 5 2 1 o 1484.269 1484.269 0.00 1.26513 1.14
8 1 0 1 o 9.609 9.609 0.00 1.26513 0.00
6 5 2 2 o 2170.691 2170.691 0.00 1.26513 0.83
8 1 0 2 o 180.725 180.725 0.00 1.26513 0.03
7 4 0 2 o 164.548 164.548 0.00 1.26513 0.03
7 4 1 1 o 0.001 0.001 0.00 1.25551 0.00
5 5 4 1 o 3297.883 3297.883 0.00 1.25551 1.25
8 1 1 1 o 7090.441 7090.441 0.00 1.25551 2.69
7 4 1 2 o 0.001 0.001 0.00 1.25551 0.00
8 1 1 2 o 7881.981 7881.981 0.00 1.25551 1.49
5 5 4 2 o 3419.140 3419.140 0.00 1.25551 0.64
6 4 4 1 o 0.001 0.001 0.00 1.23691 0.00
8 2 0 1 o 3666.463 3666.463 0.00 1.23691 1.35
8 2 0 2 o 3012.629 3012.629 0.00 1.23691 0.55
6 4 4 2 o 0.002 0.002 0.00 1.23691 0.00
8 2 1 1 o 0.001 0.001 0.00 1.22791 0.00
7 4 2 1 o 2474.868 2474.868 0.00 1.22791 1.80
7 4 2 2 o 3764.715 3764.715 0.00 1.22791 1.36
8 2 1 2 o 0.001 0.001 0.00 1.22791 0.00
6 5 3 1 o 4363.988 4363.988 0.00 1.21911 3.12
6 5 3 2 o 5454.491 5454.491 0.00 1.21911 1.94
8 2 2 1 o 9633.258 9633.258 0.00 1.20206 3.36
6 6 0 1 o 10219.448 10219.448 0.00 1.20206 1.78
8 2 2 2 o 10136.706 10136.706 0.00 1.20206 1.76
6 6 0 2 o 10504.976 10504.976 0.00 1.20206 0.91
8 3 0 1 o 5921.705 5921.705 0.00 1.19380 2.04
8 3 0 2 o 10152.650 10152.650 0.00 1.19380 1.74
7 5 0 1 o 3954.983 3954.983 0.00 1.18570 1.35
8 3 1 1 o 6204.557 6204.557 0.00 1.18570 4.22
7 4 3 1 o 2075.781 2075.781 0.00 1.18570 1.41
7 5 0 2 o 4030.977 4030.977 0.00 1.18570 0.68
8 3 1 2 o 6257.711 6257.711 0.00 1.18570 2.12
7 4 3 2 o 2051.653 2051.653 0.00 1.18570 0.70
7 5 1 1 o 3394.793 3394.793 0.00 1.17777 2.29
7 5 1 2 o 3631.407 3631.407 0.00 1.17777 1.22
6 6 2 1 o 17880.867 17880.867 0.00 1.17000 5.95
6 6 2 2 o 19004.209 19004.209 0.00 1.17000 3.15
8 3 2 1 o 0.001 0.001 0.00 1.16237 0.00
6 5 4 1 o 0.001 0.001 0.00 1.16237 0.00
6 5 4 2 o 146.368 146.368 0.00 1.16237 0.05
8 3 2 2 o 207.340 207.340 0.00 1.16237 0.07
7 5 2 1 o 1098.732 1098.732 0.00 1.15490 0.72
7 5 2 2 o 2066.640 2066.640 0.00 1.15490 0.67
8 4 0 1 o 7297.354 7297.354 0.00 1.14037 2.34
8 4 0 2 o 7744.573 7744.573 0.00 1.14037 1.24
8 4 1 1 o 1089.240 1089.240 0.00 1.13331 0.69
8 4 1 2 o 1037.358 1037.358 0.00 1.13331 0.33
8 3 3 1 o 4205.045 4205.045 0.00 1.12638 1.32
9 1 0 1 o 0.001 0.001 0.00 1.12638 0.00
8 3 3 2 o 5614.946 5614.946 0.00 1.12638 0.88
9 1 0 2 o 0.002 0.002 0.00 1.12638 0.00
7 5 3 1 o 1711.422 1711.422 0.00 1.11957 1.07
7 5 3 2 o 2376.624 2376.624 0.00 1.11957 0.74
8 4 2 2 o 2654.366 2654.366 0.00 1.11289 0.82
8 4 2 1 o 1193.324 1193.324 0.00 1.11289 0.74
7 6 0 1 o 1277.660 1277.660 0.00 1.10632 0.39
9 2 0 1 o 2008.795 2008.795 0.00 1.10632 0.62
9 2 0 2 o 2651.964 2651.964 0.00 1.10632 0.41
7 6 0 2 o 1703.679 1703.679 0.00 1.10632 0.26
7 6 1 1 o 1859.043 1859.043 0.00 1.09987 1.14
9 2 1 1 o 0.001 0.001 0.00 1.09987 0.00
6 5 5 1 o 11783.628 11783.628 0.00 1.09987 3.60
9 2 1 2 o 0.001 0.001 0.00 1.09987 0.00
7 6 1 2 o 1744.838 1744.838 0.00 1.09987 0.53
6 5 5 2 o 11082.007 11082.007 0.00 1.09987 1.69
6 6 4 1 o 1414.052 1414.052 0.00 1.08730 0.43
6 6 4 2 o 2874.182 2874.182 0.00 1.08730 0.43
7 6 2 1 o 346.805 346.805 0.00 1.08118 0.21
8 4 3 1 o 2005.034 2005.034 0.00 1.08118 1.20
8 5 0 1 o 7011.871 7011.871 0.00 1.08118 2.11
7 6 2 2 o 282.009 282.009 0.00 1.08118 0.08
8 4 3 2 o 1681.308 1681.308 0.00 1.08118 0.50
8 5 0 2 o 6282.990 6282.990 0.00 1.08118 0.94
7 5 4 1 o 148.546 148.546 0.00 1.07515 0.09
9 3 0 1 o 12525.859 12525.859 0.00 1.07515 3.74
8 5 1 1 o 5937.346 5937.346 0.00 1.07515 3.55
8 5 1 2 o 7728.606 7728.606 0.00 1.07515 2.31
9 3 0 2 o 16142.760 16142.760 0.00 1.07515 2.41
7 5 4 2 o 243.512 243.512 0.00 1.07515 0.07
9 3 1 1 o 1019.627 1019.627 0.00 1.06923 0.61
9 3 1 2 o 888.459 888.459 0.00 1.06923 0.26
8 5 2 1 o 1245.135 1245.135 0.00 1.05767 0.74
8 5 2 2 o 845.760 845.760 0.00 1.05767 0.25
7 6 3 1 o 1271.318 1271.318 0.00 1.05203 0.75
9 3 2 1 o 0.003 0.003 0.00 1.05203 0.00
9 3 2 2 o 0.003 0.003 0.00 1.05203 0.00
7 6 3 2 o 2284.105 2284.105 0.00 1.05203 0.67
8 4 4 1 o 8416.951 8416.951 0.00 1.04101 2.46
8 4 4 2 o 8724.141 8724.141 0.00 1.04101 1.28
9 4 0 1 o 2111.989 2111.989 0.00 1.03563 0.62
9 4 0 2 o 5406.583 5406.583 0.00 1.03563 0.79
9 4 1 1 o 0.001 0.001 0.00 1.03033 0.00
8 5 3 1 o 7113.116 7113.116 0.00 1.03033 4.15
7 7 0 1 o 2510.531 2510.531 0.00 1.03033 0.37
7 7 0 2 o 3483.099 3483.099 0.00 1.03033 0.25
9 4 1 2 o 0.001 0.001 0.00 1.03033 0.00
8 5 3 2 o 10002.071 10002.071 0.00 1.03033 2.92
10 0 0 1 o 30540.379 30540.379 0.00 1.01998 2.22
8 6 0 1 o 1170.839 1170.839 0.00 1.01998 0.34
10 0 0 2 o 29453.838 29453.838 0.00 1.01998 1.07
8 6 0 2 o 1124.115 1124.115 0.00 1.01998 0.16
8 6 1 1 o 0.001 0.001 0.00 1.01492 0.00
9 4 2 1 o 3171.861 3171.861 0.00 1.01492 1.85
7 6 4 1 o 0.001 0.001 0.00 1.01492 0.00
10 1 0 1 o 1473.497 1473.497 0.00 1.01492 0.43
9 4 2 2 o 4965.582 4965.582 0.00 1.01492 1.44
10 1 0 2 o 2272.807 2272.807 0.00 1.01492 0.33
8 6 1 2 o 0.001 0.001 0.00 1.01492 0.00
7 6 4 2 o 0.001 0.001 0.00 1.01492 0.00
7 7 2 1 o 351.559 351.559 0.00 1.00993 0.10
10 1 1 1 o 2713.691 2713.691 0.00 1.00993 0.79
7 7 2 2 o 0.005 0.005 0.00 1.00993 0.00
10 1 1 2 o 1686.415 1686.415 0.00 1.00993 0.25
10 2 0 1 o 638.448 638.448 0.00 1.00017 0.19
8 6 2 1 o 5684.693 5684.693 0.00 1.00017 3.31
10 2 0 2 o 336.383 336.383 0.00 1.00017 0.05
8 6 2 2 o 3476.179 3476.179 0.00 1.00017 1.01
8 5 4 1 o 2153.307 2153.307 0.00 0.99540 1.26
10 2 1 1 o 418.654 418.654 0.00 0.99540 0.24
8 5 4 2 o 1980.569 1980.569 0.00 0.99540 0.58
9 4 3 1 o 193.554 193.554 0.00 0.99069 0.11
10 2 1 2 o 351.197 351.197 0.00 0.99540 0.10
9 5 0 1 o 6843.943 6843.943 0.00 0.99069 2.00
9 4 3 2 o 360.371 360.371 0.00 0.99069 0.11
9 5 1 1 o 634.319 634.319 0.00 0.98605 0.37
9 5 0 2 o 8878.270 8878.270 0.00 0.99069 1.30
9 5 1 2 o 626.342 626.342 0.00 0.98605 0.18
6 6 6 1 o 1185.551 1185.551 0.00 0.98148 0.12
10 2 2 1 o 2246.312 2246.312 0.00 0.98148 0.66
10 2 2 2 o 2249.398 2249.398 0.00 0.98148 0.33
6 6 6 2 o 1189.072 1189.072 0.00 0.98148 0.06
10 3 0 1 o 291.418 291.418 0.00 0.97696 0.09
8 6 3 1 o 1466.900 1466.900 0.00 0.97696 0.86
10 3 0 2 o 191.951 191.951 0.00 0.97696 0.03
8 6 3 2 o 1325.067 1325.067 0.00 0.97696 0.39
10 3 1 1 o 1143.721 1143.721 0.00 0.97251 0.68
9 5 2 1 o 1404.204 1404.204 0.00 0.97251 0.83
7 6 5 1 o 0.002 0.002 0.00 0.97251 0.00
7 6 5 2 o 0.003 0.003 0.00 0.97251 0.00
9 5 2 2 o 1853.306 1853.306 0.00 0.97251 0.55
10 3 1 2 o 1488.550 1488.550 0.00 0.97251 0.44
8 7 0 1 o 324.486 324.486 0.00 0.95952 0.10
10 3 2 1 o 1956.184 1956.184 0.00 0.95952 1.17
10 3 2 2 o 1615.311 1615.311 0.00 0.95952 0.48
8 7 0 2 o 251.966 251.966 0.00 0.95952 0.04
8 5 5 1 o 2820.480 2820.480 0.00 0.95530 0.85
7 7 4 1 o 19.451 19.451 0.00 0.95530 0.01
8 7 1 1 o 514.725 514.725 0.00 0.95530 0.31
8 7 1 2 o 962.312 962.312 0.00 0.95530 0.29
8 5 5 2 o 4674.754 4674.754 0.00 0.95530 0.70
7 7 4 2 o 215.572 215.572 0.00 0.95530 0.03
9 5 3 1 o 3103.523 3103.523 0.00 0.95114 1.87
9 5 3 2 o 3562.439 3562.439 0.00 0.95114 1.08
10 4 0 1 o 0.001 0.001 0.00 0.94703 0.00
8 6 4 1 o 4232.224 4232.224 0.00 0.94703 2.57
8 6 4 2 o 2830.496 2830.496 0.00 0.94703 0.86
10 4 0 2 o 0.002 0.002 0.00 0.94703 0.00
8 7 2 1 o 0.002 0.002 0.00 0.94297 0.00
10 4 1 1 o 1088.574 1088.574 0.00 0.94297 0.66
9 6 0 1 o 3192.891 3192.891 0.00 0.94297 0.97
8 7 2 2 o 0.002 0.002 0.00 0.94297 0.00
9 6 0 2 o 3657.992 3657.992 0.00 0.94297 0.56
10 4 1 2 o 1204.881 1204.881 0.00 0.94297 0.37
9 6 1 1 o 0.117 0.117 0.00 0.93897 0.00
10 3 3 1 o 0.116 0.116 0.00 0.93897 0.00
10 3 3 2 o 2257.904 2257.904 0.00 0.93897 0.35
9 6 1 2 o 1515.511 1515.511 0.00 0.93897 0.47
10 4 2 1 o 568.202 568.202 0.00 0.93111 0.35
10 4 2 2 o 1313.532 1313.532 0.00 0.93111 0.41
9 6 2 1 o 1424.495 1424.495 0.00 0.92725 0.89
9 6 2 2 o 1508.259 1508.259 0.00 0.92725 0.48
8 7 3 1 o 233.908 233.908 0.00 0.92345 0.15
11 1 0 1 o 0.016 0.016 0.00 0.92345 0.00
9 5 4 1 o 0.015 0.015 0.00 0.92345 0.00
9 5 4 2 o 0.002 0.002 0.00 0.92345 0.00
8 7 3 2 o 2849.549 2849.549 0.00 0.92345 0.90
11 1 0 2 o 263.402 263.402 0.00 0.92345 0.04
10 5 0 1 o 1446.415 1446.415 0.00 0.91230 0.47
11 2 0 1 o 0.001 0.001 0.00 0.91230 0.00
8 6 5 1 o 5473.615 5473.615 0.00 0.91230 3.55
10 4 3 1 o 846.195 846.195 0.00 0.91230 0.55
10 5 0 2 o 1043.522 1043.522 0.00 0.91230 0.17
11 2 0 2 o 0.001 0.001 0.00 0.91230 0.00
8 6 5 2 o 3898.633 3898.633 0.00 0.91230 1.27
10 4 3 2 o 580.044 580.044 0.00 0.91230 0.19
10 5 1 1 o 0.001 0.001 0.00 0.90867 0.00
11 2 1 1 o 138.740 138.740 0.00 0.90867 0.09
9 6 3 1 o 7003.575 7003.575 0.00 0.90867 4.58
9 6 3 2 o 7432.792 7432.792 0.00 0.90867 2.45
10 5 1 2 o 0.001 0.001 0.00 0.90867 0.00
11 2 1 2 o 124.161 124.161 0.00 0.90867 0.04
8 8 0 1 o 9117.775 9117.775 0.00 0.90154 1.52
8 8 0 2 o 7973.326 7973.326 0.00 0.90154 0.67
10 5 2 1 o 631.728 631.728 0.00 0.89804 0.43
8 7 4 1 o 2821.439 2821.439 0.00 0.89804 1.90
10 5 2 2 o 443.823 443.823 0.00 0.89804 0.15
8 7 4 2 o 2129.224 2129.224 0.00 0.89804 0.72
9 7 0 1 o 1864.519 1864.519 0.00 0.89458 0.64
11 3 0 1 o 7719.797 7719.797 0.00 0.89458 2.63
9 7 0 2 o 1690.543 1690.543 0.00 0.89458 0.29
11 3 0 2 o 7059.296 7059.296 0.00 0.89458 1.21
11 3 1 1 o 320.945 320.945 0.00 0.89116 0.22
9 7 1 1 o 0.001 0.001 0.00 0.89116 0.00
