#------------------------------------------------------------------------------
#$Date: 2017-03-04 06:37:15 +0200 (Sat, 04 Mar 2017) $
#$Revision: 193047 $
#$URL: file:///home/coder/svn-repositories/cod/cif/4/12/56/4125650.cif $
#------------------------------------------------------------------------------
#
# This file is available in the Crystallography Open Database (COD),
# http://www.crystallography.net/
#
# All data on this site have been placed in the public domain by the
# contributors.
#
data_4125650
loop_
_publ_author_name
'McAtee, Christopher C.'
'Riehl, Paul S.'
'Schindler, Corinna S.'
_publ_section_title
;
 Polycyclic Aromatic Hydrocarbons via Iron(III)-Catalyzed Carbonyl-Olefin
 Metathesis.
;
_journal_issue                   8
_journal_name_full               'Journal of the American Chemical Society'
_journal_page_first              2960
_journal_page_last               2963
_journal_paper_doi               10.1021/jacs.7b01114
_journal_volume                  139
_journal_year                    2017
_chemical_formula_moiety         'C24 H18'
_chemical_formula_sum            'C24 H18'
_chemical_formula_weight         306.38
_space_group_crystal_system      orthorhombic
_space_group_IT_number           61
_space_group_name_Hall           '-P 2ac 2ab'
_space_group_name_H-M_alt        'P b c a'
_symmetry_space_group_name_Hall  '-P 2ac 2ab'
_symmetry_space_group_name_H-M   'P b c a'
_atom_sites_solution_hydrogens   geom
_audit_creation_method           SHELXL-2014/6
_cell_angle_alpha                90
_cell_angle_beta                 90
_cell_angle_gamma                90
_cell_formula_units_Z            4
_cell_length_a                   13.92565(12)
_cell_length_b                   6.76441(5)
_cell_length_c                   16.55751(12)
_cell_measurement_reflns_used    14219
_cell_measurement_temperature    85(2)
_cell_measurement_theta_max      68.8310
_cell_measurement_theta_min      4.1300
_cell_volume                     1559.70(2)
_computing_cell_refinement       'CrysAlisPro 1.171.38.41 (Rigaku OD, 2015)'
_computing_data_collection
'CrystalClear-SM Expert 2.0 r16 (Rigaku, 2014)'
_computing_data_reduction        'CrysAlisPro 1.171.38.41 (Rigaku OD, 2015)'
_computing_molecular_graphics    'Bruker SHELXTL'
_computing_publication_material  'Bruker SHELXTL'
_computing_structure_refinement  'SHELXL-2014/6 (Sheldrick, 2014)'
_computing_structure_solution    'SHELXT (Sheldrick, 2014)'
_diffrn_ambient_temperature      85(2)
_diffrn_measured_fraction_theta_full 1.000
_diffrn_measured_fraction_theta_max 0.998
_diffrn_measurement_device_type  'Rigaku Saturn 944+ CCD'
_diffrn_measurement_method       '\w scans'
_diffrn_radiation_type           CuK\a
_diffrn_radiation_wavelength     1.54184
_diffrn_reflns_av_R_equivalents  0.0537
_diffrn_reflns_av_unetI/netI     0.0166
_diffrn_reflns_Laue_measured_fraction_full 1.000
_diffrn_reflns_Laue_measured_fraction_max 0.998
_diffrn_reflns_limit_h_max       16
_diffrn_reflns_limit_h_min       -16
_diffrn_reflns_limit_k_max       8
_diffrn_reflns_limit_k_min       -8
_diffrn_reflns_limit_l_max       20
_diffrn_reflns_limit_l_min       -20
_diffrn_reflns_number            22025
_diffrn_reflns_point_group_measured_fraction_full 1.000
_diffrn_reflns_point_group_measured_fraction_max 0.998
_diffrn_reflns_theta_full        67.684
_diffrn_reflns_theta_max         69.132
_diffrn_reflns_theta_min         5.343
_diffrn_source                   'micro-focus rotating anode'
_exptl_absorpt_coefficient_mu    0.556
_exptl_absorpt_correction_T_max  1.00000
_exptl_absorpt_correction_T_min  0.88200
_exptl_absorpt_correction_type   multi-scan
_exptl_absorpt_process_details
; 
CrysAlisPro 1.171.38.41 (Rigaku Oxford Diffraction, 2015) 
Empirical absorption correction using spherical harmonics, 
 implemented in SCALE3 ABSPACK scaling algorithm. 
;
_exptl_crystal_colour            'pale yellow'
_exptl_crystal_density_diffrn    1.305
_exptl_crystal_description       plate
_exptl_crystal_F_000             648
_exptl_crystal_size_max          0.170
_exptl_crystal_size_mid          0.110
_exptl_crystal_size_min          0.110
_refine_diff_density_max         0.226
_refine_diff_density_min         -0.285
_refine_diff_density_rms         0.065
_refine_ls_extinction_coef       0.0197(14)
_refine_ls_extinction_expression Fc^*^=kFc[1+0.001xFc^2^\l^3^/sin(2\q)]^-1/4^
_refine_ls_extinction_method     SHELXL
_refine_ls_goodness_of_fit_ref   1.122
_refine_ls_hydrogen_treatment    constr
_refine_ls_matrix_type           full
_refine_ls_number_parameters     111
_refine_ls_number_reflns         1452
_refine_ls_number_restraints     0
_refine_ls_restrained_S_all      1.122
_refine_ls_R_factor_all          0.0404
_refine_ls_R_factor_gt           0.0399
_refine_ls_shift/su_max          0.000
_refine_ls_shift/su_mean         0.000
_refine_ls_structure_factor_coef Fsqd
_refine_ls_weighting_details
'w=1/[\s^2^(Fo^2^)+(0.0520P)^2^+0.4069P] where P=(Fo^2^+2Fc^2^)/3'
_refine_ls_weighting_scheme      calc
_refine_ls_wR_factor_gt          0.0975
_refine_ls_wR_factor_ref         0.0979
_reflns_Friedel_coverage         0.000
_reflns_number_gt                1420
_reflns_number_total             1452
_reflns_threshold_expression     'I > 2\s(I)'
_cod_data_source_file            ja7b01114_si_005.cif
_cod_data_source_block           ccm530
_cod_database_code               4125650
_shelx_space_group_comment
; 
The symmetry employed for this shelxl refinement is uniquely defined 
by the following loop, which should always be used as a source of 
symmetry information in preference to the above space-group names. 
They are only intended as comments. 
;
_shelx_estimated_absorpt_t_min   0.911
_shelx_estimated_absorpt_t_max   0.941
_shelxl_version_number           2014/6
_shelx_res_file
; 
TITL ccm530_a.res in Pbca 
CELL  1.54184  13.925650   6.764407  16.557516  90.0000  90.0000  90.0000 
ZERR    4.000  0.000117   0.000052   0.000117   0.0000   0.0000   0.0000 
LATT 1 
SYMM 1/2-X, -Y, 1/2+Z 
SYMM -X, 1/2+Y, 1/2-Z 
SYMM 1/2+X, 1/2-Y, -Z 
SFAC C H 
UNIT 96.00 72.00 
REM Old TITL ccm530 in Pbca 
REM SHELXT solution in Pbca 
REM R1 0.122,  Rweak 0.016,  Alpha 0.015,  Orientation as input 
REM Formula found by SHELXT:  C12 
L.S. 10 
ACTA 
BOND $H 
FMAP 2 
PLAN 20 
htab 
conf 
temp -188 
size 0.17 0.11 0.11 
WGHT    0.052000    0.406900 
EXTI    0.019701 
FVAR       9.15679 
C1    1    0.342712    0.644907    0.605904    11.00000    0.03039    0.02875 = 
         0.02842    0.00119    0.00351    0.00679 
AFIX 137 
H1A   2    0.287322    0.639114    0.569471    11.00000   -1.50000 
H1B   2    0.377120    0.769656    0.597642    11.00000   -1.50000 
H1C   2    0.320558    0.636977    0.661989    11.00000   -1.50000 
AFIX   0 
C2    1    0.408863    0.474636    0.588437    11.00000    0.02610    0.02357 = 
         0.02372    0.00624    0.00609    0.00244 
C3    1    0.498334    0.453622    0.632919    11.00000    0.02592    0.02300 = 
         0.02242    0.00613    0.00565   -0.00001 
C4    1    0.525389    0.592270    0.692091    11.00000    0.02999    0.02381 = 
         0.02743    0.00288    0.00656   -0.00007 
AFIX  43 
H4    2    0.483219    0.698365    0.704557    11.00000   -1.20000 
AFIX   0 
C5    1    0.611704    0.577462    0.732325    11.00000    0.03178    0.02582 = 
         0.02927   -0.00069    0.00281   -0.00435 
AFIX  43 
H5    2    0.628037    0.670421    0.773081    11.00000   -1.20000 
AFIX   0 
C6    1    0.675167    0.424207    0.712634    11.00000    0.02644    0.02844 = 
         0.02964    0.00422    0.00008   -0.00304 
AFIX  43 
H6    2    0.735824    0.416226    0.738688    11.00000   -1.20000 
AFIX   0 
C7    1    0.650106    0.285087    0.655725    11.00000    0.02592    0.02434 = 
         0.02683    0.00425    0.00216    0.00134 
AFIX  43 
H7    2    0.693913    0.182026    0.643008    11.00000   -1.20000 
AFIX   0 
C8    1    0.560674    0.292672    0.615969    11.00000    0.02573    0.02338 = 
         0.02136    0.00600    0.00445   -0.00011 
C9    1    0.531567    0.141686    0.558023    11.00000    0.02441    0.02318 = 
         0.02111    0.00537    0.00437    0.00039 
C10   1    0.444255    0.169203    0.514432    11.00000    0.02445    0.02290 = 
         0.02195    0.00620    0.00415    0.00130 
C11   1    0.386444    0.340301    0.530831    11.00000    0.02355    0.02573 = 
         0.02407    0.00601    0.00254    0.00255 
AFIX  43 
H11   2    0.329854    0.360166    0.499833    11.00000   -1.20000 
AFIX   0 
C12   1    0.415450    0.029239    0.457512    11.00000    0.02336    0.02512 = 
         0.02274    0.00525    0.00139    0.00175 
AFIX  43 
H12   2    0.357711    0.051045    0.428282    11.00000   -1.20000 
  
AFIX   0 
HKLF 4 
  
REM  ccm530_a.res in Pbca 
REM R1 =  0.0399 for    1420 Fo > 4sig(Fo)  and  0.0404 for all    1452 data 
REM    111 parameters refined using      0 restraints 
  
END 
  
WGHT      0.0510      0.4184 
  
REM No hydrogen bonds found for HTAB generation 
  
REM Highest difference peak  0.226,  deepest hole -0.285,  1-sigma level  0.065 
Q1    1   0.2924  0.3282  0.4940  11.00000  0.05    0.23 
Q2    1   0.2584  0.6795  0.5140  11.00000  0.05    0.16 
Q3    1   0.7432  0.4072  0.7662  11.00000  0.05    0.15 
Q4    1   0.6995  0.1125  0.6484  11.00000  0.05    0.15 
Q5    1   0.7458  0.3202  0.5654  11.00000  0.05    0.14 
Q6    1   0.6661  0.3616  0.6743  11.00000  0.05    0.14 
Q7    1   0.6826  0.1090  0.6762  11.00000  0.05    0.13 
Q8    1   0.2678  0.6041  0.5798  11.00000  0.05    0.12 
Q9    1   0.3405  0.7428  0.7087  11.00000  0.05    0.12 
Q10   1   0.3401  0.7302  0.6715  11.00000  0.05    0.11 
Q11   1   0.2358  0.4747  0.4806  11.00000  0.05    0.11 
Q12   1   0.3038  0.7040  0.5494  11.00000  0.05    0.11 
Q13   1   0.6913  0.4316  0.8188  11.00000  0.05    0.11 
Q14   1   0.3600  1.0382  0.6212  11.00000  0.05    0.11 
Q15   1   0.2486  0.6800  0.6647  11.00000  0.05    0.11 
Q16   1   0.4112  0.4683  0.4725  11.00000  0.05    0.11 
Q17   1   0.2409  0.5851  0.6890  11.00000  0.05    0.11 
Q18   1   0.8198  0.4980  0.6967  11.00000  0.05    0.11 
Q19   1   0.6976  0.5642  0.7671  11.00000  0.05    0.11 
Q20   1   0.7192  0.4550  0.6132  11.00000  0.05    0.11 
;
_shelx_res_checksum              36417
_shelx_hkl_file
; 
   0   0  -1 3966.57 107.321   1 
   0   0   1 89.5164 15.2283   1 
   0   0  -2 131563. 994.587   1 
   0   0   2 106648. 769.632   4 
   0   0   2 117159. 986.400   1 
   0   0  -2 91495.1 724.027   4 
   0   0  -3 28.4782 27.1005   1 
   0   0   3 1.58527 14.4858   4 
   0   0   3 26.4048 26.2592   1 
   0   0  -3 33.4484 14.4508   4 
   0   0   4 6599.28 207.960   4 
   0   0   4 6981.11 287.372   1 
   0   0  -4 6627.15 269.532   1 
   0   0  -4 6663.31 189.997   4 
   0   0  -5 61.6904 37.2727   1 
   0   0   5 204.584 61.8007   1 
   0   0   6 29365.9 787.748   1 
   0   0   6 29181.9 568.809   4 
   0   0   7-47.0111 55.0869   1 
   0   0   8 27355.1 950.323   1 
   0   0  -9 15.5984 26.4197  26 
   0   0  -9 0.13520 18.5964  14 
   0   0  -9 12.3085 22.1307  25 
   0   0  -9-27.1803 24.1561  24 
   0   0  -9-10.5658 23.8865  17 
   0   0  -9 0.81592 23.8278   6 
   0   0   9 41.6140 77.0898   1 
   0   0  -9-3.87860 21.7873  16 
   0   0 -10 3052.14 194.055  17 
   0   0 -10 3143.74 180.736   6 
   0   0  10 2915.57 367.081   1 
   0   0 -10 2882.27 173.241  14 
   0   0 -10 3056.63 175.060  24 
   0   0 -10 3061.22 175.202  25 
   0   0 -10 3061.82 198.177  26 
   0   0 -10 3129.88 180.997  16 
   0   0 -11-13.6963 28.8724  16 
   0   0  11 14.3855 108.602   1 
   0   0 -11 7.44456 27.9265  24 
   0   0 -11 3.04681 22.3875   6 
   0   0 -11 37.1121 41.3635  17 
   0   0 -11 9.74471 29.5031  26 
   0   0 -11 12.1308 21.9800  14 
   0   0 -11 25.2653 28.9785  15 
   0   0 -11-0.18094 23.5949  25 
   0   0 -12 91566.7 1173.40  24 
   0   0 -12 89703.3 1280.22  26 
   0   0 -12 91331.7 1282.11  17 
   0   0 -12 90987.7 1161.95  14 
   0   0 -12 91893.9 1214.22  16 
   0   0 -12 90644.8 1063.58  15 
   0   0 -12 90334.1 1168.34  25 
   0   0 -12 87663.9 1161.18   6 
   0   0 -13-13.9819 45.2434  26 
   0   0 -13 68.6881 37.2970  25 
   0   0 -13 36.6667 33.5114  24 
   0   0 -13 68.5981 40.1094  16 
   0   0 -13 5.40266 38.2604  17 
   0   0 -13 49.8166 41.1038  14 
   0   0 -13 6.92577 31.1949  21 
   0   0 -14 5342.66 292.830  25 
   0   0 -14 5489.37 308.125  16 
   0   0 -14 5174.15 288.698  24 
   0   0 -14 5483.94 323.198  17 
   0   0 -14 5556.89 288.144  21 
   0   0 -14 5469.01 297.574  14 
   0   0 -15 23.7083 50.4770  21 
   0   0 -15-16.9273 36.8727  14 
   0   0 -15-31.1254 38.8767  24 
   0   0 -15 1.27160 43.1146  17 
   0   0 -15-37.4061 57.7267  16 
   0   0 -15-12.6533 39.8523  25 
   0   0 -16 10050.4 403.440  14 
   0   0 -16 10853.9 410.125  21 
   0   0 -16 10382.9 422.109  24 
   0   0 -16 10411.8 422.795  16 
   0   0 -16 9837.92 443.827  17 
   0   0 -16 10677.6 427.879  25 
   0   0 -17-74.3354 50.2601  21 
   0   0 -17-11.4965 35.2482  24 
   0   0 -17 105.620 54.7195  16 
   0   0 -17 47.0249 47.9228  25 
   0   0 -17-6.58319 32.9099  14 
   0   0 -18 516.903 86.1697  24 
   0   0 -18 366.240 72.7951  25 
   0   0 -18 448.931 84.4995  16 
   0   0 -18 436.143 74.2389  21 
   0   0  18 634.427 108.580  10 
   0   0 -18 423.887 78.8189  14 
   0   0 -19 42.2979 36.7503  24 
   0   0 -19-25.3214 30.3369  16 
   0   0 -19 14.4301 26.8943  21 
   0   0  19 71.1332 51.3659  10 
   0   0 -19 17.1413 38.3722  25 
   0   0  20 1159.48 109.089  10 
   0   0 -20 1284.84 98.9758  21 
  -1   0   0 5.39345 7.55112   5 
   1   0   0 7.25332 9.45116   1 
   1   0   0 16.4071 10.9786   5 
  -1   0   0 7.50545 8.58186   1 
  -1   0   1 574.562 46.4475   5 
   1   0  -1 7.18233 8.49624   1 
   1   0   1 48.5953 16.6610   1 
   1   0  -1 10.5047 6.30656   4 
   1   0   1 2.43315 10.1767   4 
   1   0  -1 581.037 31.3116   1 
   1   0  -1 14.0353 8.38452   5 
  -1   0  -1 16.6456 11.6035   4 
  -1   0  -1 19.9580 13.5108   1 
   1   0   2 25611.7 463.105   1 
  -1   0  -2 23738.2 435.317   1 
  -1   0  -2 23625.6 394.275   4 
  -1   0   2 24572.2 355.066   1 
   1   0  -2 24944.1 342.565   1 
   1   0   2 25123.6 410.219   4 
   1   0   3 61.8851 35.0983   1 
  -1   0  -3 11.6034 16.1223   4 
  -1   0  -3-7.50127 27.0438   1 
   1   0  -3-26.4898 21.7260   1 
   1   0   3 4.68150 22.7945   4 
  -1   0   4 327184. 2586.55   1 
  -1   0  -4 424335. 2948.43   1 
   1   0   4 404477. 2677.39   4 
  -1   0  -4 308428. 2430.83   4 
   1   0  -4 350250. 2526.68   1 
   1   0   4 369015. 2926.67   1 
   1   0   5-34.1963 33.3661   4 
  -1   0   5 48.0213 32.8332   1 
  -1   0  -5 8.76577 32.4576   1 
   1   0   5 48.8145 42.0743   1 
   1   0  -5-21.3712 30.9022   1 
  -1   0   6 94214.7 1437.84   1 
   1   0   6 97120.4 1289.44   4 
   1   0   6 93076.0 1552.70   1 
   1   0   7 123.889 60.9223   1 
  -1   0   7 3.34929 39.1001   1 
   1   0   7 57.1428 54.9147   4 
  -1   0   8 1258.65 189.998   1 
   1   0   8 1239.73 162.004   4 
   1   0   8 1357.21 211.162   1 
  -1   0  -9 4.37134 27.3812  17 
  -1   0  -9-3.33940 24.4066  24 
   1   0  -9 20.9101 22.0734   6 
   1   0  -9 12.2946 22.6550  14 
  -1   0  -9 93.7694 33.6660  16 
  -1   0  -9 21.3364 19.6295   6 
   1   0  -9 27.1562 26.9277  24 
  -1   0  -9 1.32916 20.3147  25 
   1   0  -9 13.1436 20.6666  16 
  -1   0  -9-5.67048 22.7057  26 
   1   0  -9 18.6996 24.7153  25 
   1   0   9 127.767 98.8740   1 
   1   0  -9 10.4038 27.3304  17 
  -1   0  -9 28.0977 21.5262  14 
   1   0  -9 14.0374 28.3058  26 
  -1   0   9 6.11416 54.4246   1 
   1   0 -10 7843.77 457.078   5 
   1   0 -10 7002.69 273.784  14 
   1   0 -10 7662.51 282.977  25 
   1   0 -10 8082.75 294.045  16 
  -1   0  10 7511.31 549.124   1 
  -1   0 -10 7547.54 285.942  16 
  -1   0 -10 7780.37 255.816   9 
  -1   0 -10 7487.26 277.273   6 
  -1   0 -10 7349.95 302.722  26 
   1   0 -10 7567.50 309.680  26 
  -1   0 -10 7643.32 273.119  25 
  -1   0 -10 7881.17 277.725  24 
   1   0 -10 7581.61 281.359   6 
   1   0 -10 7150.01 274.451  24 
  -1   0 -10 7619.87 278.761  14 
   1   0 -10 7489.17 303.770  17 
  -1   0 -10 8323.04 322.342  17 
   1   0  10 8311.37 627.852   1 
   1   0  11-13.4894 85.8396   1 
   1   0 -11 12.2553 35.8376  16 
  -1   0 -11 2.99435 26.2138  25 
  -1   0 -11 5.65608 27.3569  24 
   1   0 -11-26.0575 28.2927  21 
   1   0 -11-18.4698 22.6177  14 
  -1   0 -11 38.3152 34.2676  26 
   1   0 -11 4.32282 27.3991  25 
   1   0 -11 19.9000 37.5819  17 
   1   0 -11 23.5245 29.4147  24 
   1   0 -11 9.80493 33.8663  26 
  -1   0 -11-0.90393 42.2091  17 
  -1   0 -11 75.5447 34.6862   9 
  -1   0 -11 22.0289 29.8445   6 
  -1   0 -11-3.84394 22.3875  15 
  -1   0 -11 94.8534 39.1624  14 
  -1   0 -12 132529. 1491.35   6 
  -1   0 -12 150031. 1610.69  16 
   1   0 -12 149761. 1609.92  16 
  -1   0 -12 143196. 1516.40  25 
  -1   0 -12 139283. 1429.50  15 
   1   0 -12 149442. 1551.72  14 
  -1   0 -12 152810. 1565.46  14 
  -1   0 -12 140060. 1669.66  17 
   1   0 -12 146290. 1569.81  25 
   1   0 -12 140285. 1503.14  21 
   1   0 -12 146847. 1700.19  26 
  -1   0 -12 145764. 1691.12  26 
   1   0 -12 142306. 1659.56  17 
   1   0  12 132635. 2998.27   1 
  -1   0 -12 148865. 1541.92  24 
   1   0 -12 145088. 1567.63  24 
   1   0 -13-1.43035 47.0299  26 
  -1   0 -13 18.8835 42.7229   6 
   1   0 -13 54.9821 39.9424  17 
  -1   0 -13 9.46163 28.3305  15 
  -1   0 -13-4.86528 29.1901  24 
   1   0 -13 77.3228 41.2166  21 
   1   0 -13-16.7666 31.0333  25 
  -1   0 -13 59.8843 42.5542  26 
   1   0 -13-47.0947 33.5824  24 
  -1   0 -13 22.8852 35.9795  25 
  -1   0 -13-27.5937 48.1679  17 
   1   0 -13 48.7166 38.8745  14 
  -1   0 -13 74.5274 52.3154  16 
  -1   0 -13 0.44573 40.0133  14 
   1   0 -14 10372.0 440.101  17 
  -1   0 -14 10558.5 460.615  17 
  -1   0 -14 10326.6 394.697  21 
   1   0 -14 10390.6 405.382  14 
   1   0 -14 10151.8 406.828  24 
  -1   0 -14 9900.97 393.266  14 
  -1   0 -14 9556.52 376.946  25 
   1   0 -14 10437.7 410.532  25 
  -1   0 -14 10083.1 418.172  16 
   1   0 -14 10015.1 388.459  21 
   1   0 -14 10491.7 416.202  16 
  -1   0 -14 9558.67 379.384  24 
   1   0 -15-34.1562 41.0276  21 
   1   0 -15 28.2755 41.2762  25 
  -1   0 -15 88.6723 50.4708  17 
  -1   0 -15 25.3184 46.3458  21 
   1   0 -15 27.3038 45.5548  14 
  -1   0 -15 206.968 75.1160  16 
  -1   0 -15 31.8827 46.8598  24 
  -1   0 -15 5.70369 43.9031  25 
   1   0 -15 23.8321 41.3042  24 
   1   0 -15 28.7901 51.8700  17 
   1   0 -15 1.08199 35.3908  16 
  -1   0 -15-7.72123 42.9954  14 
   1   0 -16 3680.09 252.702  24 
   1   0 -16 3675.83 236.239  21 
   1   0 -16 3804.43 254.732  16 
   1   0 -16 3991.99 256.158  14 
  -1   0 -16 3718.44 275.728  17 
  -1   0 -16 3527.44 235.498  25 
  -1   0 -16 3444.35 234.779  24 
  -1   0 -16 3945.42 265.557  16 
   1   0 -16 3899.74 266.992  17 
  -1   0 -16 3751.28 241.929  21 
  -1   0 -16 4076.11 253.985  14 
   1   0 -16 3573.31 248.268  25 
  -1   0 -17 4.37966 42.1574  16 
   1   0 -17-7.41261 40.6491  25 
  -1   0 -17 82.3801 49.3336  17 
  -1   0 -17 4.74309 36.7441  25 
  -1   0 -17-31.3891 30.0835  14 
   1   0 -17 10.6617 40.5690  14 
   1   0 -17-65.8316 50.9532  21 
   1   0 -17 17.3552 41.5663  24 
   1   0 -17-34.2980 48.5300  16 
  -1   0 -17 50.9572 47.8314  21 
  -1   0 -17 10.8774 33.3464  24 
  -1   0 -18 1220.55 123.083  24 
   1   0  18 1259.54 147.647  10 
  -1   0  18 1150.68 140.513  10 
  -1   0 -18 1238.66 124.019  21 
  -1   0 -18 1164.03 126.857  14 
   1   0 -18 1177.84 127.275  24 
   1   0 -18 1014.30 119.911  16 
  -1   0 -18 1134.07 130.126  16 
  -1   0 -18 1109.81 118.535  25 
   1   0 -18 1046.79 117.983  21 
   1   0 -18 1218.78 130.859  25 
  -1   0  19 13.3519 35.3702  10 
   1   0 -19-34.0899 36.5115  25 
  -1   0 -19 65.9293 38.8649  16 
  -1   0 -19 10.1679 23.8279  14 
   1   0 -19 32.5057 31.8160  24 
  -1   0 -19 3.54108 26.5338  24 
   1   0  19-24.1749 33.1502  10 
   1   0 -19-10.4117 33.6999  16 
   1   0 -19 42.3738 33.1484  21 
  -1   0 -19-35.8530 30.4144  25 
  -1   0 -19 11.8316 29.0713  21 
  -1   0 -20 2448.93 135.576  21 
   1   0  20 2459.02 157.504  10 
   2   0   0 450058. 2419.09   4 
   2   0   0 256561. 2181.81   5 
   2   0   0 389499. 2254.66   1 
  -2   0   0 243516. 2072.03   5 
  -2   0   0 287696. 2090.41   1 
  -2   0   0 407739. 2387.99   4 
  -2   0   1 12.2432 10.6381   3 
   2   0  -1 229.797 38.7121   5 
  -2   0   1 112.128 21.5010   1 
  -2   0   1 29.5752 15.3424   2 
   2   0  -1 38.0950 16.2067   4 
  -2   0  -1 63.3909 24.5390   4 
  -2   0  -1 222.930 40.7808   1 
   2   0   1 42.9842 21.6072   1 
   2   0  -1 45.7625 14.9742   1 
   2   0   1 66.1301 25.2554   4 
  -2   0   1 17.0510 18.6693   5 
  -2   0  -2 267323. 2035.83   1 
   2   0  -2 214714. 1708.40   5 
  -2   0  -2 318301. 2065.30   4 
  -2   0   2 249579. 1709.73   3 
   2   0  -2 204287. 1428.36   4 
   2   0  -2 199012. 1500.24   1 
  -2   0   2 274106. 1772.90   2 
   2   0   2 229039. 1943.26   1 
   2   0   2 286181. 2012.34   4 
   2   0  -2 200192. 1416.44   1 
  -2   0  -3 164.585 59.2751   1 
  -2   0   3 13.4240 27.4005   2 
  -2   0  -3 56.9139 39.0664   4 
   2   0   3 70.2106 60.3351   1 
  -2   0   3 1.28796 24.4679   3 
   2   0  -3 193.946 18.4866   4 
   2   0  -3 60.1678 25.5426   5 
   2   0   3 83.7101 55.1044   4 
  -2   0   3 29.3041 24.8017   1 
   2   0  -4 8308.39 258.130   1 
  -2   0   4 8596.15 284.664   1 
   2   0  -4 8336.12 307.510   5 
   2   0   4 9572.36 354.560   4 
  -2   0  -4 8048.22 319.187   4 
   2   0   4 10128.4 411.864   1 
  -2   0  -4 8673.41 375.054   1 
   2   0   5 27.7822 54.4168   1 
   2   0  -5 34.7360 32.7235   5 
  -2   0   5 16.8852 26.9020   1 
   2   0  -5-12.3230 21.0877   1 
   2   0   5 12.4970 32.1921   4 
   2   0   6 6947.18 428.039   1 
   2   0   6 7117.12 366.685   4 
   2   0  -6 7299.71 334.615   5 
  -2   0   6 6760.60 341.391   1 
   2   0  -6 6493.20 297.087   1 
   2   0  -7 0.26475 32.1614   1 
   2   0  -7-23.5543 40.8430   5 
   2   0   7 43.5397 64.0686   1 
   2   0   7 28.0632 59.2204   4 
  -2   0   7 23.4916 54.6934   1 
   2   0   8 988.790 193.075   1 
  -2   0  -8 673.055 74.7368  16 
  -2   0  -8 670.747 81.8113  17 
   2   0  -8 791.906 79.3058  25 
  -2   0  -8 852.128 80.3416   6 
   2   0  -8 785.650 132.865   5 
   2   0  -8 668.519 71.0673  21 
  -2   0  -8 729.308 76.1652  14 
  -2   0   8 786.605 141.314   1 
   2   0  -8 671.322 73.2289  24 
   2   0   8 737.496 140.401   4 
   2   0  -8 623.004 72.1520  14 
  -2   0  -9 18.5625 32.0761  26 
  -2   0  -9 18.3239 33.7531  17 
   2   0   9-70.8611 98.1891   1 
   2   0   9 14.3145 45.7835   4 
   2   0  -9 18.7186 24.8806  24 
  -2   0  -9 1.95563 24.3073  25 
   2   0  -9 13.7994 20.1695  21 
  -2   0  -9 6.15493 19.8461  24 
   2   0  -9 29.8178 34.7807  17 
   2   0  -9 55.7856 59.0764   5 
   2   0  -9 21.0512 22.7185  14 
  -2   0  -9 4.47144 20.4783  14 
   2   0  -9 1.19641 25.3181  25 
  -2   0   9 24.1409 47.4427   1 
  -2   0  -9 12.2965 22.2451  16 
   2   0  -9 28.2526 32.5012  16 
  -2   0  -9 10.9058 21.0921   6 
   2   0  -9-14.4401 28.8943  26 
  -2   0 -10 29.3041 33.7759  25 
   2   0 -10 24.3678 29.8240  25 
   2   0 -10 11.2613 26.7543  14 
  -2   0 -10 31.2773 38.5658  17 
  -2   0 -10 2.00260 33.4048   6 
   2   0 -10 56.1119 44.1741  26 
   2   0  10 49.3727 37.4942  12 
   2   0 -10 2.06197 33.2671  24 
  -2   0 -10 236.606 54.7894  16 
  -2   0 -10 72.3647 34.3359   9 
   2   0 -10 17.6368 22.3632  21 
   2   0 -10 5.43176 56.9757   5 
  -2   0 -10 34.7200 32.7224  24 
   2   0 -10 44.1158 26.6952  16 
  -2   0 -10-21.1867 36.8542  26 
   2   0  10 65.0192 104.730   1 
  -2   0 -10 30.7993 23.7495  14 
   2   0 -10 54.8845 32.0750  17 
  -2   0 -11 50.6264 49.2916  26 
   2   0 -11 40.7388 32.9298  21 
  -2   0 -11-15.6521 26.2365   9 
   2   0 -11 41.6660 43.7558  17 
  -2   0 -11 24.4089 30.0533  14 
  -2   0 -11 33.4054 33.9587  25 
   2   0 -11-8.04410 24.3829  25 
   2   0 -11 18.4099 38.5283  26 
  -2   0 -11-14.6240 31.7236   6 
   2   0  11 26.0332 101.238   1 
   2   0 -11 1.08532 27.4163  14 
   2   0 -11 28.0001 30.2275  24 
  -2   0 -11 4.64203 24.1136  24 
  -2   0 -11 17.7548 35.1772  17 
  -2   0 -11-3.38169 31.2670  16 
  -2   0 -12 50221.6 857.546   6 
   2   0 -12 48480.7 892.939  17 
   2   0 -12 48343.2 819.583  21 
  -2   0 -12 45018.8 776.959  25 
   2   0 -12 48154.5 856.484  24 
  -2   0 -12 46918.7 849.029  16 
  -2   0 -12 50205.7 819.101  24 
   2   0 -12 49414.4 925.373  26 
  -2   0 -12 46654.8 775.508  15 
   2   0 -12 50087.3 841.669  14 
   2   0  12 43868.5 1765.92   1 
  -2   0 -12 46629.3 826.346  14 
   2   0 -12 51055.4 871.127  16 
  -2   0 -12 48069.6 938.515  17 
  -2   0 -12 49848.3 930.084  26 
   2   0 -12 49513.0 863.853  25 
   2   0 -13 54.3734 33.0498  16 
   2   0 -13-9.88032 40.2444  21 
   2   0 -13 61.2383 54.6345  26 
   2   0 -13 80.1039 52.4919  25 
   2   0 -13-13.1210 29.4934  14 
  -2   0 -13 87.7789 61.6839  17 
  -2   0 -13 63.2093 52.5556  24 
  -2   0 -13 26.6510 39.5961  25 
  -2   0 -13 10.8693 29.0343  15 
   2   0 -13 46.4146 34.3592  24 
  -2   0 -13 36.7776 35.2907  16 
  -2   0 -13 53.3151 45.8685  14 
  -2   0 -13 9.83842 31.8537   6 
   2   0 -13 109.253 60.5827  17 
  -2   0 -14 3301.65 257.635  17 
   2   0 -14 2966.24 229.293  14 
  -2   0 -14 3278.60 215.792  25 
  -2   0 -14 3437.80 208.101  15 
  -2   0 -14 3258.49 232.289   6 
   2   0 -14 3604.42 251.756  17 
   2   0 -14 3506.36 244.987  24 
   2   0 -14 3432.95 231.050  21 
  -2   0 -14 3502.84 225.679  24 
   2   0 -14 3794.76 246.072  16 
   2   0 -14 3413.24 241.456  25 
  -2   0 -14 3846.05 252.157  16 
  -2   0 -14 3626.46 235.306  14 
   2   0 -15-18.8115 38.2477  16 
  -2   0 -15-12.1964 36.1438  14 
  -2   0 -15 11.5492 38.2154  25 
   2   0 -15 37.3647 48.0582  24 
   2   0 -15 30.2729 46.4691  25 
  -2   0 -15-1.25372 39.0487  21 
  -2   0 -15 11.1263 35.5102  24 
  -2   0 -15 44.3603 52.6424  16 
  -2   0 -15-0.99810 46.6918  17 
   2   0 -15 42.1000 43.1078  14 
   2   0 -15-7.56974 49.8751  17 
   2   0 -15 75.2292 54.9003  21 
   2   0 -16 57033.6 1005.93  16 
   2   0 -16 58852.9 1054.32  14 
  -2   0 -16 54460.0 924.754  25 
  -2   0 -16 53962.1 923.779  24 
  -2   0 -16 57421.6 983.682  14 
   2   0 -16 57082.1 1034.67  24 
   2   0 -16 59254.1 991.728  21 
  -2   0 -16 62548.9 1021.89  21 
  -2   0 -16 57517.3 1118.47  17 
   2   0 -16 57400.8 1035.24  25 
  -2   0 -16 58810.3 1062.25  16 
  -2   0 -17 134.245 67.9749  17 
  -2   0 -17 79.1868 34.3350  24 
  -2   0 -17 59.3887 44.0833  16 
  -2   0 -17-0.22358 36.3834  14 
   2   0 -17-1.01298 36.4512  25 
  -2   0 -17 50.1553 42.6266  21 
  -2   0 -17 125.456 46.6056  25 
   2   0 -17-20.1168 50.1715  21 
   2   0 -17-11.3614 43.7704  16 
   2   0 -17-1.27021 43.7106  24 
   2   0 -18 5301.67 273.386  25 
   2   0 -18 5145.95 250.670  21 
  -2   0  18 5533.00 299.469  10 
   2   0 -18 5510.43 273.244  16 
  -2   0 -18 5645.10 284.890  16 
  -2   0 -18 5312.56 266.388  14 
  -2   0 -18 5548.64 256.870  21 
  -2   0 -18 5352.46 243.746  24 
   2   0  18 5523.59 303.884  10 
   2   0 -18 5626.13 281.058  24 
  -2   0 -18 5260.52 241.441  25 
   2   0  19 10.9309 29.2287  10 
   2   0 -19 18.5186 28.7303  21 
   2   0 -19 17.2316 32.0503  24 
   2   0 -19 23.0304 34.2799  16 
   2   0 -19 52.5224 39.1346  25 
  -2   0 -19 121.177 40.9966  21 
  -2   0  19 22.0283 40.8693  10 
  -2   0 -19 4.25688 30.0056  16 
  -2   0 -19 9.46673 30.0952  14 
   3   0   0 8.35117 32.1370   4 
   3   0   0 5.01576 22.7273   1 
   3   0   1 65.6366 44.5435   4 
  -3   0  -1 21.9708 27.1624   4 
   3   0  -1 0.10712 18.6924   1 
   3   0  -1 13.0276 26.6574   5 
  -3   0  -1 65.6801 29.0493   5 
   3   0  -1-0.14351 22.4194   4 
   3   0   1 8.20850 35.0471   1 
  -3   0   1 11.0474 25.2564   1 
  -3   0  -1-13.1899 25.0487   1 
   3   0  -2 84960.4 755.888   1 
   3   0  -2 76680.7 976.649   5 
  -3   0   2 71065.9 773.248   3 
   3   0   2 71315.3 1052.24   4 
  -3   0   2 71858.8 974.892   5 
   3   0   2 71379.4 1046.53   1 
  -3   0  -2 65797.1 1003.06   4 
  -3   0  -2 80116.0 1108.53   1 
   3   0  -2 86246.9 875.315   4 
   3   0  -2 74709.2 853.099   1 
  -3   0   2 76016.7 796.476   2 
  -3   0   3 26.9142 23.2106   2 
   3   0  -3 29.8222 29.0507   5 
  -3   0  -3 28.1019 42.0349   4 
   3   0  -3 41.2955 15.7345   4 
   3   0  -3 3.77642 14.6887   1 
   3   0   3 39.3786 32.5768   4 
  -3   0   3 59.2012 35.9945   3 
  -3   0  -3-39.6662 34.3574   1 
   3   0  -3 2.03170 14.8704   1 
   3   0   3 57.5766 54.9465   1 
   3   0  -4 46182.8 821.985   5 
  -3   0   4 44104.1 816.094   2 
   3   0   4 47821.1 941.496   4 
   3   0  -4 45272.2 577.607   1 
   3   0   4 50026.6 1037.53   1 
  -3   0   4 42720.8 797.021   3 
   3   0  -4 44238.6 601.659   1 
   3   0  -4 40867.9 417.625   4 
   3   0  -5 11.2981 24.1226   1 
   3   0   5 68.4290 59.8425   1 
   3   0  -5-5.10133 30.5029   5 
   3   0   5 35.5207 48.7883   4 
   3   0   6 7704.94 425.420   4 
   3   0  -6 6916.25 276.050   1 
   3   0  -6 6802.71 354.640   5 
   3   0   6 7241.91 467.493   1 
  -3   0   6 7473.06 342.389   1 
   3   0   7-9.75673 53.3391   4 
   3   0  -7-2.99890 33.8075   5 
  -3   0   7-18.1380 51.8569   1 
   3   0  -7-22.0769 37.6274   1 
   3   0   7 8.40793 53.1308   1 
   3   0  -8 197.185 44.6731  24 
   3   0  -8 231.542 48.8228  14 
  -3   0  -8 170.231 42.4245  14 
  -3   0   8 645.686 127.764   1 
  -3   0  -8 219.179 44.9541   6 
  -3   0  -8 208.048 50.9226  26 
   3   0  -8 191.762 39.3424  21 
  -3   0  -8 194.381 43.4621  17 
   3   0  -8 193.992 44.3567  25 
   3   0   8 239.151 102.676   4 
   3   0   8 293.326 112.452   1 
   3   0  -8 553.703 126.499   5 
  -3   0  -9 15.2518 32.4647  17 
  -3   0  -9 4.80169 23.6937  25 
   3   0  -9-33.6770 48.6654   5 
   3   0  -9-3.36948 30.2775  26 
   3   0   9 1.14499 54.8339   4 
   3   0  -9 24.3900 27.2122  21 
  -3   0  -9 14.6578 24.4421   6 
   3   0  -9-5.88459 23.8328  24 
   3   0  -9 11.7267 22.0204  16 
   3   0   9 39.3018 71.0684   1 
   3   0   9 23.0035 28.4117  12 
  -3   0  -9-0.39105 24.7550  24 
  -3   0  -9 15.2975 22.7864  14 
   3   0  -9-9.87942 20.9543  14 
   3   0  -9 7.59582 24.4228  25 
  -3   0  -9-17.3463 28.1190  26 
  -3   0  -9 19.5379 23.1827  16 
  -3   0 -10 34.8016 35.2203  17 
   3   0 -10 40.8762 30.8002  16 
  -3   0 -10 5.32856 27.7173  26 
   3   0 -10 64.8705 43.6707  17 
  -3   0 -10 41.9883 21.8941  14 
  -3   0 -10 46.1714 27.2228   6 
   3   0 -10 56.5201 35.3919  26 
   3   0 -10-2.32577 19.2616  14 
  -3   0 -10 3.32353 23.2914   9 
   3   0 -10 20.1592 28.7062  24 
   3   0 -10-25.1136 64.7527   5 
  -3   0 -10 24.2368 26.9969  16 
  -3   0 -10 38.0140 25.9403  25 
  -3   0 -10 12.8333 28.5702  24 
   3   0  10-10.0806 65.7436   4 
   3   0 -10 82.6061 37.6621  25 
   3   0  10 142.812 115.820   1 
   3   0  10 34.5738 35.0530  12 
   3   0 -10 14.7155 22.6028  21 
   3   0 -11-14.2552 21.8907  14 
   3   0  11 22.6834 120.817   1 
  -3   0 -11 25.8508 24.1166  24 
  -3   0 -11 19.7298 28.1111   9 
   3   0  11-2.73949 30.4585  12 
  -3   0 -11-6.31651 25.2156   6 
  -3   0 -11 49.3148 40.5993  26 
   3   0 -11-48.5386 50.0140  26 
   3   0 -11 48.3957 46.1505  16 
   3   0 -11 20.9648 34.3628  21 
  -3   0 -11 10.8224 27.4235  16 
   3   0 -11 26.5986 36.9065  25 
  -3   0 -11-3.36712 22.9781  25 
  -3   0 -11 13.3062 26.0247  14 
  -3   0 -11-33.2263 49.3895  17 
   3   0 -11 15.8680 34.1728  24 
   3   0 -12 86749.3 1200.89  24 
  -3   0 -12 79316.4 1163.82  16 
  -3   0 -12 87478.3 1098.97  25 
  -3   0 -12 87640.6 1300.24  17 
   3   0 -12 88117.8 1207.32  25 
   3   0 -12 84743.5 1138.33  21 
  -3   0 -12 78821.5 1056.58  24 
  -3   0 -12 77876.2 1127.42   6 
   3   0 -12 87967.3 1173.82  14 
   3   0 -12 96205.4 1216.64  16 
   3   0 -12 89506.3 1213.23  17 
  -3   0 -12 84830.3 1155.36  14 
   3   0  12 83204.1 1127.42  12 
   3   0 -12 85267.6 1244.57  26 
   3   0 -13 42.9482 46.3493  24 
  -3   0 -13 28.2415 41.7696  14 
  -3   0 -13 14.0751 35.3299  15 
   3   0 -13 81.2769 45.2158  16 
  -3   0 -13 41.8252 36.9081   6 
  -3   0 -13-18.4603 42.4885  17 
   3   0 -13-13.3782 51.3666  26 
   3   0 -13-45.9979 40.6564  17 
   3   0 -13-32.8492 36.1156  14 
   3   0 -13-15.6177 41.7734  25 
   3   0 -13 26.2073 44.5543  21 
  -3   0 -13 32.4276 41.6398  16 
  -3   0 -13-21.7626 33.6927  25 
  -3   0 -13-1.44444 28.8058  24 
   3   0 -14 97823.9 1395.55  24 
  -3   0 -14 94631.5 1234.07  24 
  -3   0 -14 95013.6 1299.36  14 
  -3   0 -14 99451.2 1529.72  17 
  -3   0 -14 101490. 1408.92  16 
  -3   0 -14 98797.5 1350.11   6 
   3   0 -14 92043.1 1396.48  14 
   3   0 -14 99260.2 1323.83  21 
   3   0 -14 104169. 1398.58  17 
   3   0 -14 100246. 1347.47  16 
  -3   0 -14 99653.3 1256.51  25 
   3   0 -14 98281.3 1394.37  25 
  -3   0 -14 98329.4 1240.76  15 
   3   0 -15-2.61038 44.6819  16 
  -3   0 -15-60.6960 70.9599  17 
  -3   0 -15 60.4106 41.3484  24 
  -3   0 -15 37.5388 39.1655  25 
   3   0 -15-35.3856 53.6921  14 
   3   0 -15 19.1379 50.5250  25 
  -3   0 -15-56.8478 48.8979  14 
   3   0 -15 66.6687 37.8516  21 
  -3   0 -15 15.5968 33.2203  15 
  -3   0 -15 32.2058 40.8975  16 
   3   0 -15 8.20322 47.0804  24 
   3   0 -16 85669.7 1204.41  21 
   3   0 -16 82875.4 1265.34  25 
   3   0 -16 83934.9 1274.25  24 
  -3   0 -16 84833.5 1120.73  25 
  -3   0 -16 82287.9 1358.20  17 
  -3   0 -16 85439.4 1127.18  24 
  -3   0 -16 87891.7 1222.31  14 
   3   0 -16 83388.4 1215.33  16 
  -3   0 -17 63.6112 63.5663  17 
  -3   0 -17-38.5428 36.8711  21 
  -3   0 -17-11.2603 45.2359  16 
  -3   0 -17 9.53918 37.2235  14 
   3   0  17 62.7029 58.1681  10 
   3   0 -17 31.6722 36.1207  25 
   3   0 -17 136.024 67.1119  24 
   3   0 -17 33.7188 44.0347  16 
   3   0 -17 40.5986 49.0389  21 
  -3   0 -18 326.448 72.0406  16 
   3   0 -18 325.208 72.6032  25 
   3   0 -18 302.484 69.8623  21 
  -3   0  18 301.098 75.3524  10 
   3   0  18 325.499 80.3483  10 
  -3   0 -18 295.471 64.1610  21 
   3   0 -18 261.790 60.9037  24 
  -3   0 -18 336.229 72.5988  14 
   3   0 -18 331.362 72.5461  16 
  -3   0 -19-3.89518 23.8871  21 
   3   0 -19-1.39121 25.9371  21 
   3   0  19 32.4840 36.3801  10 
  -3   0 -19 0.86828 31.3752  16 
   3   0 -19-44.6207 38.3302  24 
  -3   0  19-41.7007 39.9101  10 
  -3   0 -19 30.4974 21.7613  14 
   3   0 -19 27.9485 32.0879  25 
   4   0   0 346861. 2771.03   1 
   4   0   0 346630. 2896.94   4 
   4   0   1 15.7268 32.9113   4 
  -4   0   1 16.8745 19.1460   1 
   4   0  -1 1.90134 22.4035   1 
  -4   0   1 7733.73 322.870   5 
  -4   0  -1 21.0811 30.8122   1 
   4   0  -1-56.9891 39.9613   4 
   4   0   1-25.2895 35.6648   1 
   4   0  -1 7532.66 333.495   5 
  -4   0  -1 35.2065 33.9472   5 
   4   0  -2 21570.8 592.203   5 
  -4   0  -2 23811.6 606.363   5 
   4   0   2 20048.5 623.829   4 
  -4   0   2 24353.7 415.474   3 
   4   0  -2 21432.2 502.276   4 
  -4   0   2 26649.9 431.326   2 
  -4   0  -2 21357.8 621.529   1 
  -4   0   2 21136.6 422.541   1 
   4   0   2 22938.7 639.926   1 
   4   0  -2 22166.0 436.957   1 
   4   0  -3-24.0004 42.2070   5 
  -4   0   3 130.706 42.3074   2 
   4   0  -3-39.1970 26.2798   1 
   4   0   3 17.0720 49.5761   4 
   4   0  -3 2.22542 20.1382   1 
   4   0  -3 20.8548 21.0588   4 
  -4   0   3 141.168 40.8919   3 
  -4   0  -3 30.8965 40.0318   5 
   4   0   3-10.5131 40.8002   1 
   4   0  -4 54501.1 583.995   1 
   4   0   4 54384.9 1116.67   4 
   4   0   4 57424.5 1195.13   1 
  -4   0   4 50964.3 851.622   3 
   4   0  -4 56813.8 682.929   4 
   4   0  -4 50916.1 954.734   5 
  -4   0   4 53146.8 874.927   2 
   4   0   5 23.6475 47.8587   1 
   4   0   5-22.1130 56.0843   4 
   4   0  -5 23.1829 17.2069   1 
   4   0  -5-46.1314 22.3905   1 
   4   0  -5 15.8409 30.5683   5 
   4   0  -6 71095.6 743.602   1 
   4   0   6 77162.5 1523.62   4 
   4   0   6 74583.3 1595.55   1 
   4   0  -6 69175.3 1210.88   5 
   4   0  -7 41.4476 28.9676   1 
   4   0  -7 4.17906 19.0792  14 
   4   0  -7 18.4342 24.6680  25 
   4   0  -7 55.1213 26.4450  21 
   4   0  -7 12.6835 21.7238  24 
   4   0  -7-3.43764 40.9502   5 
   4   0   7-66.1909 65.3947   4 
   4   0   7-34.2243 65.5678   1 
  -4   0  -7 0.64885 19.8534   6 
  -4   0  -7 7.14018 16.7698  14 
   4   0   8 18018.8 491.666  23 
   4   0  -8 18655.3 431.596  24 
  -4   0  -8 18353.0 415.372  14 
  -4   0  -8 18622.6 442.196  26 
   4   0  -8 18649.7 436.489  26 
  -4   0  -8 19192.1 431.806   6 
   4   0  -8 18594.0 408.363  21 
  -4   0  -8 18720.0 455.686  17 
   4   0   8 18493.9 923.124   1 
   4   0  -8 17265.1 417.432  14 
   4   0  -8 17951.6 702.785   5 
   4   0  -8 18719.3 431.292  25 
   4   0   8 19389.0 456.823  12 
   4   0   8 20092.3 876.995   4 
   4   0  -9-5.86785 23.0135  16 
   4   0   9-8.60153 76.9594   1 
   4   0  -9-9.58528 25.5118  25 
  -4   0  -9 32.2530 28.2873   6 
  -4   0  -9 8.83560 30.7597  26 
  -4   0  -9 13.1718 30.6590  17 
   4   0  -9 77.2765 28.6543  21 
   4   0  -9-25.5575 28.7182  14 
   4   0   9 13.0394 23.2344  12 
  -4   0  -9 25.0728 37.2021  16 
  -4   0  -9 1.13022 21.7690  14 
   4   0  -9 9.26607 28.3964  26 
   4   0   9 21.7695 59.4844   4 
   4   0  -9 0.51594 26.7978  24 
   4   0  -9 26.8314 57.4430   5 
  -4   0  -9-7.60761 24.2405   9 
   4   0  10 861.158 103.118  12 
  -4   0 -10 813.785 87.7132   9 
  -4   0 -10 741.133 83.5563  24 
   4   0  10 964.376 227.108   4 
  -4   0 -10 878.096 103.339  14 
  -4   0 -10 786.806 99.7483  16 
  -4   0 -10 907.027 117.287  17 
   4   0  10 825.490 123.476  23 
   4   0  10 754.305 231.422   1 
   4   0 -10 817.864 102.396  24 
   4   0 -10 715.761 164.396   5 
   4   0 -10 926.973 101.451  16 
  -4   0 -10 752.779 85.5057  25 
   4   0 -10 822.320 102.979  25 
   4   0 -10 763.118 91.9870  21 
  -4   0 -10 869.229 101.573   6 
   4   0 -10 863.701 105.797  26 
   4   0 -10 590.713 100.195  14 
  -4   0 -11 24.8580 30.6025  25 
  -4   0 -11 73.9511 43.2413  16 
   4   0 -11 70.9447 41.4839  14 
   4   0  11 75.0935 118.830   1 
   4   0  11-1.94926 27.4082  12 
   4   0 -11 61.9205 45.1684  24 
  -4   0 -11-15.0338 30.4073  24 
   4   0 -11 46.8362 41.2933  26 
   4   0 -11 11.3431 35.4050  16 
  -4   0 -11 42.4936 33.4686   9 
   4   0 -11 3.96287 27.0246  25 
  -4   0 -11-6.05419 34.6867  17 
   4   0 -11 0.58780 34.4642  21 
  -4   0 -11 189.462 52.6635  14 
  -4   0 -11 8.29943 31.3010   6 
  -4   0 -12 18349.0 508.718  14 
   4   0 -12 18071.8 538.492  25 
  -4   0 -12 17243.2 505.325   6 
  -4   0 -12 16487.9 443.072  24 
  -4   0 -12 20421.9 554.552  16 
   4   0 -12 19386.5 522.083  16 
   4   0  12 16114.7 489.188  12 
   4   0 -12 18809.9 515.092  21 
  -4   0 -12 15908.1 435.974  25 
   4   0 -12 18546.3 551.383  26 
   4   0 -12 18601.1 529.740  14 
  -4   0 -12 18744.4 583.152  17 
   4   0 -12 17884.7 536.143  24 
  -4   0 -13 35.4384 33.3078  25 
  -4   0 -13-2.32535 35.3596  16 
   4   0 -13 4.13171 40.1884  14 
  -4   0 -13 15.2801 33.8217   6 
   4   0  13 10.1738 43.3683  12 
  -4   0 -13 17.6102 36.4765  24 
  -4   0 -13 49.3049 45.8465  14 
   4   0 -13 48.5850 35.7356  21 
   4   0 -13-2.15746 35.1643  16 
   4   0 -13 5.06412 36.7358  26 
   4   0 -13-15.1138 42.3307  25 
  -4   0 -13 25.6425 45.1196  17 
   4   0 -13-81.5926 52.5779  24 
   4   0 -14 26576.7 703.104  25 
  -4   0 -14 25644.6 646.302  14 
  -4   0 -14 29806.9 798.260  17 
  -4   0 -14 24920.0 669.549  16 
  -4   0 -14 25352.8 607.358  15 
   4   0 -14 27059.1 709.553  24 
   4   0 -14 26867.0 662.319  16 
  -4   0 -14 27793.8 687.149   6 
   4   0 -14 27658.6 662.381  21 
  -4   0 -15 21.4996 38.0231  14 
   4   0 -15 50.2654 54.7687  24 
  -4   0 -15 93.5915 71.9451  17 
   4   0 -15 21.9554 37.5213  21 
   4   0 -15 24.2364 39.2176  16 
  -4   0 -15 35.3345 45.8642  16 
  -4   0 -15 16.6363 42.3793   6 
  -4   0 -15 17.2031 37.6076  15 
   4   0 -15 52.6540 42.9280  25 
   4   0 -16 165300. 1878.49  24 
   4   0 -16 159882. 1731.88  16 
  -4   0 -16 163137. 1852.85  16 
   4   0 -16 162929. 1752.89  21 
   4   0  16 160719. 1938.52  10 
  -4   0 -16 163452. 1972.47  17 
  -4   0 -16 160229. 1725.44  14 
  -4   0 -17 80.9365 65.1234  17 
   4   0 -17 46.1547 38.1113  16 
   4   0 -17 67.9420 61.3034  24 
  -4   0 -17 2.39542 35.0449  16 
   4   0  17 76.0179 50.5866  10 
   4   0 -17 41.4228 34.8714  21 
  -4   0 -17-34.2690 32.1580  21 
   4   0 -17-95.1592 62.4172  25 
  -4   0 -17 17.5767 28.1305  14 
   4   0 -18 1729.61 151.775  25 
  -4   0 -18 1818.31 139.716  21 
  -4   0  18 1640.71 146.647  10 
  -4   0 -18 1840.31 144.843  14 
   4   0  18 1749.06 159.866  10 
  -4   0 -18 1665.57 146.460  16 
   4   0 -18 1675.20 141.392  21 
   4   0 -18 1564.72 147.393  24 
   4   0 -19 9.49942 29.6951  21 
   4   0  19 25.1539 33.8616  10 
   4   0 -19-22.3346 32.7007  25 
  -4   0 -19 47.9192 34.2299  21 
  -4   0 -19-14.2962 28.0805  16 
   4   0 -19-39.4025 37.6586  24 
  -4   0 -19 46.9071 28.3920  14 
   5   0   0 28.6964 35.7736   4 
  -5   0   0-2.38433 31.1850   1 
   5   0   0 12.9519 33.2764   1 
   5   0  -1 16.6528 21.6356   1 
   5   0   1 10.7614 43.0545   4 
   5   0  -1-30.3966 28.4165   4 
  -5   0   1-4.09434 27.5740   1 
   5   0   1 32.1979 39.0903   1 
  -5   0   2 128614. 1350.17   1 
   5   0  -2 136193. 1373.25   1 
   5   0   2 124908. 1745.59   1 
   5   0  -2 129275. 1576.60   4 
   5   0   2 135032. 1879.38   4 
   5   0  -2 123597. 1716.31   5 
   5   0  -3 28.0729 33.9921   5 
   5   0   3-16.5964 40.4895   1 
  -5   0   3 46.0596 26.9340   3 
   5   0   3 48.0618 56.9565   4 
   5   0  -3 12.3809 29.6379   4 
   5   0  -3 11.3797 25.9557   1 
  -5   0   3 40.1797 28.8310   2 
   5   0  -4 204641. 2154.88   5 
  -5   0   4 220573. 1779.37   3 
   5   0   4 211182. 2489.94   1 
   5   0   4 245216. 2599.68   4 
   5   0  -4 205490. 1213.66   1 
   5   0  -4 236669. 1721.52   4 
  -5   0   4 214459. 1741.73   2 
   5   0  -5 54.4685 40.4931   5 
   5   0  -5 49.4690 23.1205   4 
   5   0  -5 15.8890 14.0172   1 
   5   0   5 23.1362 63.8836   1 
   5   0  -5 19.6781 17.0600   1 
   5   0   5 16.8429 57.3858   4 
   5   0   6 6369.31 250.964  12 
   5   0   6 7192.68 529.914   1 
  -5   0  -6 6841.45 236.188  14 
   5   0  -6 6840.35 426.056   5 
   5   0  -6 6589.07 225.018  21 
   5   0   6 7018.78 501.355   4 
   5   0   6 6754.10 266.921   7 
  -5   0  -7 27.0165 26.2647  14 
   5   0  -7-26.9111 31.3016  25 
   5   0  -7 182.314 44.7374  21 
   5   0   7 19.8905 85.9595   4 
   5   0   7-12.1388 27.7901  12 
   5   0   7 24.8041 41.4059  23 
   5   0  -7 9.21652 22.9622  24 
   5   0   7 14.3366 90.4535   1 
  -5   0  -7-12.9779 22.2733   6 
  -5   0  -7-1.56753 26.5353  17 
   5   0  -7 77.3014 75.0314   5 
   5   0  -8 19050.1 445.776  26 
   5   0  -8 19553.6 438.778  21 
   5   0  -8 18590.9 789.290   5 
   5   0   8 19082.6 485.559  12 
   5   0  -8 19244.8 458.918  24 
   5   0   8 19786.0 1001.65   1 
  -5   0  -8 19278.4 446.715  14 
  -5   0  -8 20091.7 484.461  17 
   5   0   8 18101.3 525.707  23 
   5   0  -8 19926.9 435.778  16 
   5   0   8 19940.4 948.692   4 
  -5   0  -8 19585.0 456.359   6 
   5   0  -8 19150.6 456.436  25 
  -5   0  -9 2.08583 24.0350  14 
   5   0  -9 42.6376 36.9266  24 
  -5   0  -9 79.0566 38.3934   9 
   5   0  -9-33.5160 36.5941  26 
  -5   0  -9 85.9900 40.0587   6 
   5   0   9 7.56839 80.1962   1 
  -5   0  -9-9.30620 25.5916  17 
   5   0  -9 14.8984 30.6166  16 
   5   0   9 1.30025 43.0919  23 
   5   0  -9 54.9097 32.1928  25 
   5   0   9 2.87612 27.8658  12 
  -5   0  -9 53.8159 36.6086  16 
   5   0  -9 0.33535 27.7493  21 
   5   0   9 24.6689 72.9734   4 
   5   0  -9-4.10960 71.2090   5 
  -5   0 -10 47.6336 33.6440   9 
   5   0 -10 5.24274 37.5479  21 
   5   0  10 144.926 117.474   4 
  -5   0 -10-4.35155 24.2905   6 
  -5   0 -10 46.3725 36.5314  16 
  -5   0 -10 101.768 37.4419  14 
   5   0 -10 334.159 71.2923  25 
   5   0 -10 77.1479 75.1151   5 
  -5   0 -10 28.9263 42.8115  17 
   5   0 -10 386.870 75.4109  24 
   5   0  10-10.7659 42.1157  23 
   5   0  10 58.7094 37.1768  12 
   5   0  10 29.7484 101.909   1 
   5   0 -10 46.3862 35.2941  26 
   5   0 -10 31.7913 38.7301  16 
   5   0 -11-9.56509 30.1304  16 
  -5   0 -11 14.8123 35.9067   6 
   5   0  11-3.82898 43.2869  12 
   5   0 -11 28.6177 37.5622  26 
  -5   0 -11 23.1853 29.1365  16 
   5   0 -11-2.34067 30.7923  24 
   5   0 -11 9.73592 35.3694  21 
  -5   0 -11-28.6462 36.7298  17 
  -5   0 -11 30.5502 30.1702  14 
   5   0  11 21.3100 54.0841  23 
   5   0 -11-23.7396 32.1574  25 
  -5   0 -11 24.6271 24.1950   9 
   5   0  12 35615.0 773.120  12 
   5   0 -12 34452.9 758.413  26 
   5   0 -12 34789.4 770.248  24 
   5   0 -12 34160.9 715.587  21 
  -5   0 -12 36070.4 745.495  14 
  -5   0 -12 33913.1 737.450  16 
   5   0 -12 33668.8 702.659  16 
  -5   0 -12 35455.5 827.264  17 
   5   0 -12 34717.7 767.167  25 
   5   0  13 111.262 50.9568  12 
  -5   0 -13 54.5545 50.8275   6 
   5   0 -13-0.23337 35.0997  16 
   5   0 -13 27.6468 48.3259  25 
  -5   0 -13 41.9921 40.4994  14 
   5   0 -13-2.15476 35.8408  21 
   5   0 -13-13.3160 43.8579  24 
  -5   0 -13 101.082 54.6891  16 
  -5   0 -13-21.9849 42.7240  17 
   5   0 -14 133625. 1580.62  21 
   5   0  14 123032. 1560.24  12 
   5   0 -14 142656. 1603.04  16 
  -5   0 -14 142113. 1665.64   6 
  -5   0 -14 135219. 1806.59  17 
   5   0 -14 136392. 1712.53  24 
  -5   0 -14 131160. 1642.76  16 
  -5   0 -14 129625. 1568.63  14 
  -5   0 -14 132662. 1537.93  15 
   5   0 -14 137585. 1716.33  25 
   5   0 -15 2.29431 45.4774  25 
  -5   0 -15-2.27627 39.3135   6 
  -5   0 -15-19.4497 46.9232  15 
   5   0 -15-6.10398 38.3060  21 
  -5   0 -15-31.5771 37.2443  14 
   5   0  15-23.4694 51.0360  10 
   5   0 -15 73.6428 51.6470  24 
   5   0 -15 40.3750 43.7241  16 
  -5   0 -15 15.2514 54.3377  17 
  -5   0 -15-0.27075 45.3127  16 
  -5   0 -16 62791.8 908.611  15 
   5   0  16 58439.2 1074.73  10 
   5   0 -16 62146.3 1073.23  24 
  -5   0 -16 59928.1 964.291  14 
   5   0 -16 62299.1 997.434  21 
   5   0 -16 60330.1 1058.13  25 
  -5   0 -16 61110.5 1042.97  16 
  -5   0 -17-9.63009 36.4779  16 
  -5   0 -17 37.6630 35.6044  14 
   5   0 -17-3.81441 39.8581  24 
  -5   0 -17 24.8739 54.7757  17 
   5   0 -17 47.9463 45.7251  25 
  -5   0 -17-3.39237 32.2451  21 
   5   0  17-5.88485 36.6397  10 
   5   0 -17-3.31939 31.0086  21 
  -5   0 -18 63.2333 35.0403  21 
  -5   0 -18-45.7468 37.4699  16 
  -5   0 -18 29.2576 22.8194  14 
   5   0 -18-16.3539 29.5952  25 
   5   0 -18-0.98926 31.2014  24 
   5   0  18-4.18244 30.7701  10 
   5   0 -18 42.7320 33.9692  21 
  -5   0 -19 58.0639 33.9296  16 
   5   0 -19 80.1331 40.0159  24 
  -5   0 -19 8.77561 21.2382  14 
   5   0 -19 3.36605 29.1958  25 
  -5   0 -19 18.0152 26.2553  21 
   5   0 -19 32.4457 26.1834  21 
   6   0   0 47435.1 974.901   1 
   6   0   0 47907.8 1113.59   4 
   6   0  -1-0.52319 31.7828   1 
   6   0  -1-47.4396 60.6653   4 
  -6   0   1-25.7098 50.0619   1 
   6   0   1 9.33219 38.2100   1 
   6   0   1 24.2124 55.1220   4 
   6   0  -2 388310. 3390.65   4 
   6   0  -2 366438. 2861.16   1 
   6   0   2 381239. 3600.17   1 
   6   0  -2 355531. 3509.60   5 
   6   0   2 384963. 3776.19   4 
   6   0   3 25.2168 27.3008   3 
   6   0   3 105.941 66.1742   1 
   6   0   3 41.2778 66.2591   4 
   6   0   3 18.0146 23.3876   2 
   6   0  -3 4.99539 37.7977   1 
   6   0  -3 42.9536 23.2232   1 
   6   0  -3 18.1227 38.2243   4 
   6   0  -3-23.7458 36.1415   5 
   6   0   4 205057. 2802.95   1 
   6   0   4 206133. 2759.59   4 
   6   0   5 67.3883 65.4731   4 
   6   0   5-15.0811 32.0570   7 
   6   0   5 43.4350 79.0946   1 
   6   0  -5 14.9863 25.2659  21 
  -6   0  -5 1.34355 20.8788  14 
   6   0   5 82.6656 42.6987  23 
   6   0  -5-3.86714 36.8451   4 
   6   0   5 8.95074 25.8792  12 
   6   0  -5 46.5955 63.1961   5 
   6   0  -6 77858.6 1630.42   5 
  -6   0  -6 72902.8 902.894  14 
   6   0   6 85784.7 1963.40   4 
   6   0   6 83088.3 1045.65  12 
   6   0   6 85471.9 1991.52   1 
   6   0   6 79656.8 1100.36  23 
   6   0  -6 78376.2 919.877  21 
   6   0  -6 74767.1 910.051  25 
   6   0  -6 75628.7 914.651  24 
   6   0  -7 3.07469 32.1734  24 
   6   0   7-31.8789 102.690   1 
  -6   0  -7 34.3726 35.0048  17 
   6   0   7-0.69587 38.8233  27 
   6   0   7 4.31139 35.0023  12 
   6   0  -7 48.8409 30.0382  21 
   6   0   7 37.9450 62.7501   4 
   6   0  -7-30.6828 54.0640   5 
  -6   0  -7-3.91697 21.2306   6 
  -6   0  -7-2.07366 21.0037  14 
   6   0   7 15.5816 31.8976  23 
   6   0  -7 42.7380 33.4768  25 
   6   0   8 2832.40 214.150  23 
  -6   0  -8 2766.10 177.784   6 
   6   0  -8 2562.89 166.108  21 
  -6   0  -8 2480.47 177.978  17 
   6   0   8 2663.78 392.843   1 
  -6   0  -8 2821.81 175.922  14 
   6   0   8 2931.92 395.632   4 
   6   0  -8 2597.73 329.602   5 
   6   0  -8 2877.75 183.715  25 
   6   0  -8 2901.23 185.041  24 
   6   0   8 2767.34 190.616  12 
  -6   0  -9-1.54470 24.7810   9 
   6   0   9-1.15471 36.6300  12 
  -6   0  -9 45.2251 37.7886  16 
  -6   0  -9 12.4318 27.7309   6 
   6   0  -9 4.26403 31.8995  26 
  -6   0  -9-5.10898 33.4705  14 
  -6   0  -9 30.4987 37.4207  17 
   6   0  -9-4.04921 27.2754  21 
   6   0  -9 7.13638 28.8340  24 
   6   0  -9 4.67368 33.7467  25 
   6   0   9-73.5917 121.475   4 
   6   0   9 68.6613 115.468   1 
   6   0   9-40.3221 52.8284  23 
   6   0  -9 94.8241 103.332   5 
  -6   0 -10 978.586 127.329  17 
   6   0  10 1096.56 283.001   4 
   6   0 -10 1136.28 131.667  25 
  -6   0 -10 1414.03 133.093  16 
   6   0 -10 1151.56 123.222  21 
   6   0  10 1254.74 141.444  12 
   6   0 -10 1033.32 233.670   5 
   6   0  10 1443.93 170.626  23 
  -6   0 -10 1223.89 118.573   9 
  -6   0 -10 1302.88 130.440  14 
   6   0 -10 1209.01 134.048  24 
   6   0 -10 1313.97 132.229  26 
   6   0 -11-4.84750 40.5274  21 
  -6   0 -11-10.6557 28.4979   9 
   6   0 -11 4.38432 35.3644  26 
   6   0 -11 157.800 56.8589  25 
   6   0  11-26.8584 43.7464  12 
   6   0  11 92.6371 74.1724  23 
  -6   0 -11 13.8788 38.1752  17 
  -6   0 -11 56.9948 35.4347  16 
   6   0 -11 168.763 60.8285  24 
  -6   0 -11 34.7855 30.0229  14 
  -6   0 -11-7.98709 38.3961   6 
   6   0  12 6201.12 371.910  23 
  -6   0 -12 6567.70 351.573  17 
  -6   0 -12 6355.37 312.585   6 
   6   0 -12 6677.81 340.396  24 
  -6   0 -12 6417.85 314.131  16 
   6   0 -12 6834.68 343.631  25 
  -6   0 -12 6723.18 320.807  14 
   6   0  12 6215.27 328.244  12 
   6   0 -12 6400.60 308.067  21 
   6   0  13 139.449 60.3856  12 
   6   0 -13 36.2995 41.9255  24 
  -6   0 -13-6.36237 31.9538  14 
   6   0  13 11.4289 48.8647  10 
  -6   0 -13 19.5669 36.2095   6 
  -6   0 -13-0.52062 44.0344  16 
  -6   0 -13-6.96155 46.5484  17 
   6   0 -13 68.9613 58.2967  21 
   6   0 -13 11.2202 37.4499  25 
   6   0 -14 44470.4 864.254  21 
   6   0  14 40149.3 854.468  12 
  -6   0 -14 42685.7 834.974  14 
  -6   0 -14 43691.0 970.815  17 
   6   0 -14 43638.0 913.562  24 
   6   0  14 43527.8 921.566  10 
  -6   0 -14 43494.6 875.905  16 
  -6   0 -14 38588.1 821.315   6 
   6   0 -14 44652.2 925.478  25 
  -6   0 -15-32.3305 42.4159  15 
  -6   0 -15 5.27532 39.7762  14 
   6   0 -15 42.1131 56.2145  25 
   6   0 -15 64.5394 42.0339  21 
  -6   0 -15 166.140 55.8782   6 
  -6   0 -15 54.3037 46.8562  16 
  -6   0 -15-30.4201 44.7776  17 
   6   0  15 64.4119 55.9640  10 
   6   0 -15 23.8918 49.9556  24 
   6   0 -16 4758.16 280.224  24 
   6   0 -16 5120.17 273.305  21 
  -6   0 -16 5147.30 306.633  17 
   6   0  16 5052.63 285.539  10 
  -6   0 -16 6026.28 297.266  16 
   6   0 -16 4953.56 286.370  25 
  -6   0 -16 5311.34 260.678  14 
  -6   0 -16 5409.71 251.146  15 
  -6   0 -17 21.6565 33.2919  16 
   6   0 -17 27.2750 44.6296  24 
   6   0  17-36.6200 40.9628  10 
   6   0 -17 21.3584 35.6014  21 
  -6   0 -17-13.0422 27.6210  14 
  -6   0 -17 15.2125 34.2742  21 
   6   0 -17 17.2248 54.7115  25 
   6   0 -18 1822.80 142.215  21 
  -6   0 -18 2013.16 143.509  16 
   6   0 -18 1801.54 145.167  24 
   6   0  18 1825.26 143.874  10 
  -6   0 -18 1976.07 129.368  14 
  -6   0 -18 2010.28 132.117  21 
   6   0 -18 1870.30 149.531  25 
   7   0   0-48.0836 52.0024   1 
   7   0   0 535.086 140.217   4 
   7   0   1 6.94474 58.7262   4 
   7   0   1-4.37941 48.9203   1 
   7   0  -1-1.67505 39.5339   1 
   7   0  -1 83.6373 90.3434   4 
   7   0   1-20.4893 26.4208  23 
   7   0  -2 175785. 1958.70   1 
   7   0   2 173147. 1630.82  23 
   7   0   2 196538. 2655.77   1 
   7   0   2 170862. 1600.37  12 
   7   0   2 205119. 2839.83   4 
   7   0  -2 187163. 2469.56   4 
   7   0  -2 178236. 1531.99  21 
   7   0  -3 4.63187 28.2323  21 
   7   0  -3 19.9522 37.3318   1 
   7   0   3-17.6231 53.7548   4 
   7   0   3 12.0449 33.0273  27 
   7   0   3 5.10605 31.8129  23 
   7   0  -3 19.6049 58.5688   4 
   7   0   3 49.9581 45.6369  22 
   7   0   3 36.2877 25.5702   7 
   7   0   3 23.0792 32.3168  12 
   7   0   3 49.7373 76.3557   1 
   7   0  -4 1299.87 222.883   5 
   7   0   4 797.226 182.935   1 
   7   0  -4 975.852 108.212  18 
  -7   0  -4 848.591 88.2882  14 
   7   0   4 903.613 112.208  23 
   7   0   4 792.527 98.7062  12 
   7   0   4 611.635 169.300   4 
   7   0  -4 864.028 155.668   4 
   7   0   4 884.499 110.326  27 
   7   0  -4 876.986 92.8932  21 
  -7   0  -5-3.67926 20.6813  14 
   7   0   5 47.3840 95.4355   4 
   7   0   5 71.8720 51.6972  23 
   7   0  -5 16.8373 24.4495  24 
   7   0   5 20.3798 30.6469  18 
   7   0   5 65.9695 82.2458   1 
   7   0   5 9.94737 29.7062  12 
   7   0   5 65.5793 48.5382  27 
   7   0  -5 29.9492 37.1307  18 
   7   0  -5 86.9569 78.2193   5 
   7   0  -5 22.4031 33.8541  25 
   7   0  -5 43.7455 33.4986  21 
   7   0   6 59398.9 886.937  18 
  -7   0  -6 55162.7 796.348  14 
  -7   0  -6 49214.6 757.964  17 
   7   0  -6 53447.2 1480.76   5 
   7   0  -6 52248.2 779.814  24 
   7   0  -6 52383.8 845.785  18 
   7   0   6 53416.4 1687.83   1 
   7   0  -6 53032.4 793.676  21 
   7   0   6 58361.0 1746.35   4 
   7   0   6 57641.1 970.435  27 
   7   0   6 52819.9 880.272  12 
   7   0  -6 52062.0 778.256  25 
   7   0   6 54749.6 954.961  23 
   7   0  -7 14.0847 23.3532  24 
   7   0  -7-11.2424 27.6096  25 
   7   0  -7 35.2043 70.6643   5 
   7   0   7 31.2078 85.0635   4 
   7   0   7 18.7318 43.4499  27 
   7   0  -7-18.3844 26.4930  21 
  -7   0  -7-13.4550 29.3830  17 
  -7   0  -7 12.6967 27.7964   6 
   7   0   7 10.2805 81.3390   1 
   7   0   7 11.0924 28.5227  12 
  -7   0  -7-14.0104 20.7972  14 
   7   0   8 1938.63 171.971  12 
  -7   0  -8 1966.05 156.210  14 
   7   0  -8 2015.26 314.893   5 
   7   0   8 2010.43 158.094  10 
   7   0  -8 1960.19 155.661  21 
  -7   0  -8 2059.16 163.871  17 
  -7   0  -8 1820.35 148.394   6 
   7   0   8 1811.45 176.488  27 
   7   0  -8 1988.14 156.339  25 
   7   0   8 1689.59 330.397   4 
   7   0   8 1852.44 360.099   1 
   7   0  -8 2017.68 159.559  24 
   7   0   8 2461.02 208.300  23 
   7   0   9-26.7091 42.0107  12 
  -7   0  -9 32.1592 38.0809   6 
  -7   0  -9 10.8772 26.7196  16 
   7   0  -9-76.5705 114.758   5 
  -7   0  -9-27.3484 30.1470  17 
   7   0  -9-11.1785 29.9956  21 
   7   0  -9 42.8950 42.0015  25 
   7   0   9 51.9645 31.9754  10 
   7   0  -9 31.8673 38.0507  24 
  -7   0  -9-4.30047 26.7179  14 
   7   0   9 12.0912 43.1823  23 
  -7   0 -10 23410.5 541.687   9 
   7   0  10 21966.8 692.697  23 
  -7   0 -10 23095.4 566.790  16 
   7   0 -10 23335.5 608.056  24 
   7   0  10 21530.9 621.107  12 
   7   0  10 23209.3 607.050  10 
  -7   0 -10 23672.6 578.651  14 
  -7   0 -10 26228.0 614.764   6 
   7   0 -10 23114.9 607.569  25 
  -7   0 -10 24645.6 635.900  17 
   7   0 -10 22543.0 573.617  21 
  -7   0 -11-11.1822 31.7067  14 
  -7   0 -11 56.7304 40.1830   9 
  -7   0 -11 41.5400 56.8850  17 
   7   0 -11 4.15654 41.4973  25 
  -7   0 -11-0.94567 34.5244   6 
  -7   0 -11-3.01783 33.9685  16 
   7   0  11-10.3145 52.1458  23 
   7   0  11-5.57954 39.2778  12 
   7   0  11 31.8562 39.7778  10 
   7   0 -11 21.4634 43.8956  21 
   7   0 -11-34.0015 54.6470  24 
   7   0 -12 1182.40 148.402  25 
   7   0 -12 1185.33 142.412  21 
   7   0  12 1194.37 140.903  10 
   7   0 -12 1191.21 148.930  24 
   7   0  12 1092.07 145.803  12 
  -7   0 -12 1431.05 150.891  16 
  -7   0 -12 1291.06 136.095  14 
   7   0  12 987.375 150.417  23 
  -7   0 -12 1130.19 148.246  17 
  -7   0 -12 1119.66 131.229   6 
   7   0 -13 71.5872 63.8914  21 
  -7   0 -13 45.3596 37.5039   6 
  -7   0 -13 18.2274 32.9140  14 
   7   0  13 28.6417 53.5385  12 
   7   0  13 68.4803 44.3292  10 
   7   0 -13 133.936 65.4267  25 
   7   0 -13 79.6714 48.7520  24 
  -7   0 -13 10.1969 41.9053  17 
  -7   0 -13 44.9731 47.6585  16 
   7   0  14 22212.3 622.403  10 
  -7   0 -14 22593.9 581.899  14 
  -7   0 -14 20553.8 574.531   6 
   7   0 -14 22948.6 645.541  25 
  -7   0 -14 22412.4 603.459  16 
   7   0 -14 23072.9 613.283  21 
  -7   0 -14 22969.4 664.403  17 
   7   0 -14 22821.8 644.487  24 
   7   0  14 23517.4 645.615  12 
  -7   0 -15 42.5749 40.5785   6 
  -7   0 -15 17.7854 41.2274  17 
   7   0 -15 52.0970 49.2477  21 
   7   0 -15 74.5749 56.0720  25 
  -7   0 -15-39.8873 36.3410  14 
   7   0  15 5.24990 34.8244  12 
   7   0 -15-62.9729 54.1573  24 
  -7   0 -15 25.0024 46.1013  16 
   7   0  15 2.57200 37.9261  10 
  -7   0 -15 24.4257 38.3102  15 
  -7   0 -16 15498.0 503.029  17 
  -7   0 -16 16085.0 440.914  14 
   7   0 -16 14723.9 474.943  24 
  -7   0 -16 14689.8 405.718  15 
   7   0  16 14235.7 448.283  10 
   7   0 -16 14558.9 453.472  21 
   7   0 -16 14195.4 466.341  25 
  -7   0 -17 32.6169 29.0715  14 
   7   0 -17 33.8538 31.2968  24 
   7   0 -17-26.2166 35.2387  21 
   7   0 -17-64.4715 50.1038  25 
  -7   0 -17-25.6338 25.9893  21 
   7   0  17-25.8664 33.6711  10 
  -7   0 -17-28.8026 29.8486  16 
  -7   0 -18 8953.22 256.427  14 
   7   0 -18 9504.88 313.870  24 
  -7   0 -18 9728.03 275.497  21 
   7   0 -18 9060.97 287.526  21 
   7   0 -18 9382.23 311.070  25 
  -7   0 -18 9922.69 292.846  16 
   8   0   0 195.462 109.695   4 
   8   0   0 142.392 45.4758  12 
   8   0   0 197.819 54.4755  21 
   8   0   0 249.656 95.5695   1 
   8   0   0 246.778 66.1280  11 
   8   0   0 234.794 60.2010  23 
   8   0   0 208.430 59.2554  22 
   8   0  -1 21.3787 30.4298  12 
   8   0   1-9.93038 35.9980  22 
   8   0  -1-8.61499 61.8835   4 
   8   0   1 29.2337 36.7806  21 
   8   0  -1 22.7759 36.5652  21 
   8   0   1 32.8346 68.0348   4 
   8   0   1-14.8155 40.0247  11 
   8   0   1 23.3626 24.0031  12 
   8   0   1 29.2186 52.6316   1 
   8   0  -1-3.79349 26.3267  23 
   8   0  -1 2.94669 29.1644  22 
   8   0   1 109.350 44.5104  23 
   8   0  -1 30.9293 60.1852   1 
   8   0  -1 1.37911 37.0757  11 
   8   0  -2 54211.3 826.389  23 
   8   0   2 55873.2 1625.28   4 
   8   0  -2 51296.1 1089.72   1 
   8   0  -2 54441.8 811.688  21 
   8   0   2 54024.9 874.160  22 
   8   0  -2 55717.0 803.605  11 
   8   0   2 58688.6 1520.69   1 
   8   0  -2 55903.9 805.795  22 
   8   0  -2 56887.7 1461.81   4 
   8   0   2 53362.4 862.357  12 
   8   0   2 60489.4 924.224  23 
   8   0   3 30.1961 37.4713  22 
   8   0  -3 31.1750 29.4748  18 
   8   0   3 6.24601 29.2084  12 
   8   0   3 40.2809 37.1588  18 
   8   0  -3 25.6628 33.8918  22 
   8   0  -3-36.7087 67.1974   4 
   8   0  -3 18.9532 30.0973  11 
   8   0  -3-20.2875 33.5317  21 
   8   0   3 21.8776 90.9999   4 
   8   0   3 21.8088 83.0254   1 
   8   0   3 66.1807 55.0435  27 
   8   0  -3 23.3355 33.1346  23 
   8   0   3 118.763 49.3299  23 
   8   0   4 982.556 120.389  18 
   8   0  -4 926.882 103.867  23 
   8   0   4 878.954 109.761  12 
   8   0   4 953.310 229.695   4 
   8   0  -4 913.952 116.600  18 
   8   0  -4 996.840 100.545  22 
   8   0  -4 810.235 99.5554  21 
  -8   0  -4 922.986 95.8146  14 
   8   0   4 818.186 114.442  27 
   8   0   4 1162.95 241.551   1 
   8   0  -4 1020.85 101.052  11 
   8   0   4 909.985 121.335  23 
   8   0  -5 20.9289 29.8859  24 
   8   0   5-5.74460 28.9930  18 
   8   0  -5-14.2671 30.3667  11 
   8   0  -5 37.9374 38.8654  23 
   8   0   5 33.6461 93.3349   1 
  -8   0  -5-5.92031 21.8137  14 
   8   0   5 27.2935 39.5585  23 
   8   0  -5-21.4005 33.0178  18 
   8   0  -5 30.2067 35.9087  21 
   8   0   5 28.8269 57.0900  27 
   8   0   5 25.1451 77.3912   4 
   8   0  -5-17.1545 31.5212  22 
   8   0  -5 7.87727 29.4653  25 
   8   0   5 39.5248 37.5581  12 
   8   0  -6 558.035 83.9693  21 
   8   0   6 588.490 110.635  23 
   8   0  -6 499.707 92.9763  18 
   8   0   6 586.348 186.927   1 
   8   0  -6 543.808 83.7625  24 
   8   0   6 494.034 86.1733  12 
   8   0   6 443.543 172.270   4 
   8   0  -6 505.247 82.6385  25 
   8   0   6 603.859 102.356  27 
  -8   0  -6 711.063 93.7345  14 
   8   0   6 590.653 94.8664  18 
   8   0   7 0.92094 31.8537  18 
  -8   0  -7 17.8801 30.3646   6 
   8   0   7 54.0589 53.8862  27 
   8   0  -7 31.8478 36.7843  18 
   8   0   7-29.9275 98.9071   4 
   8   0   7-28.2337 41.8614  23 
   8   0  -7-6.74714 29.9766  25 
   8   0  -7-31.8193 34.5486  21 
   8   0  -7-6.77582 26.6384  24 
   8   0   7-2.06300 39.1659  12 
  -8   0  -7 59.0758 39.9161  14 
   8   0   7-43.1749 101.935   1 
   8   0   8 108.940 60.8401  12 
   8   0  -8 46.0300 29.8864  25 
  -8   0  -8 53.6527 37.8247  14 
   8   0   8 108.205 61.1698  23 
   8   0  -8 40.1889 39.5695  21 
  -8   0  -8 55.6192 35.1428   6 
   8   0  -8 42.8175 33.7307  24 
   8   0   8 49.1520 49.1409  27 
  -8   0  -8 32.7320 39.2389  17 
   8   0  -9 3.23053 42.0829  21 
  -8   0  -9 9.30767 30.5252  16 
  -8   0  -9 149.285 53.5535   6 
  -8   0  -9 47.3207 35.0903  17 
   8   0   9 77.8828 45.1734  12 
   8   0  -9-30.0569 38.1596  25 
   8   0   9 16.1347 57.9848  23 
  -8   0  -9-15.6276 30.9452  14 
   8   0  -9 57.1193 40.5379  24 
  -8   0 -10 66248.0 1032.18   6 
   8   0 -10 69172.6 1111.45  24 
   8   0  10 62722.8 1148.48  12 
  -8   0 -10 66536.8 1105.99  17 
   8   0 -10 67826.6 1098.01  25 
  -8   0 -10 70449.3 1032.83  16 
  -8   0 -10 73221.3 1084.90  14 
   8   0 -10 65247.0 1053.39  21 
  -8   0 -10 72518.5 1025.31   9 
   8   0  10 64486.4 1272.12  23 
  -8   0 -11-10.6354 32.9990  16 
   8   0  11 44.0889 62.6398  23 
   8   0  11-14.4104 42.9827  12 
   8   0 -11-48.3411 44.7649  25 
  -8   0 -11-23.7286 51.0844  17 
   8   0 -11-11.8733 35.3849  24 
  -8   0 -11 20.8931 33.3737   6 
  -8   0 -11-16.1009 33.3871   9 
  -8   0 -11 41.3115 35.8939  14 
   8   0  11 38.9457 41.5801  10 
   8   0 -11 21.0363 40.8904  21 
   8   0 -12 452.645 90.5890  21 
   8   0 -12 394.057 89.5362  24 
   8   0  12 326.681 83.3401  12 
  -8   0 -12 375.134 86.3300  16 
   8   0  12 402.715 104.891  23 
  -8   0 -12 520.844 103.138  17 
   8   0 -12 416.683 87.7753  25 
   8   0  12 453.616 91.0888  10 
  -8   0 -12 332.313 72.5438  14 
  -8   0 -12 354.494 84.0302   6 
  -8   0 -13 20.0543 46.1213  17 
  -8   0 -13-47.6606 36.6648  14 
  -8   0 -13 10.8987 36.8247   6 
   8   0  13 63.4798 51.8182  10 
   8   0 -13 4.57837 34.9563  21 
   8   0 -13-17.9421 46.7141  25 
   8   0 -13-27.5678 40.2319  24 
  -8   0 -13 17.7674 36.5485  16 
   8   0  13 52.1912 42.7810  12 
   8   0  13 108.539 78.3069  23 
   8   0 -14 171.816 54.5310  21 
  -8   0 -14 210.852 53.3667  14 
   8   0  14 125.642 55.6895  12 
  -8   0 -14 317.214 75.0230   6 
  -8   0 -14 162.730 72.5268  17 
   8   0 -14 189.480 73.0492  25 
   8   0  14 148.936 58.9839  10 
  -8   0 -14 184.264 57.5470  16 
   8   0 -14 235.182 73.1971  24 
  -8   0 -15-15.3860 41.2620  17 
   8   0  15 1.92178 36.7258  10 
   8   0 -15 12.0326 37.3467  24 
   8   0  15-7.86757 34.7910  12 
  -8   0 -15-8.07611 31.8440   6 
   8   0 -15-40.9756 45.1977  21 
  -8   0 -15 17.6009 36.6791  15 
  -8   0 -15 97.3712 49.7401  16 
  -8   0 -15 39.7229 30.5184  14 
   8   0 -15-20.9020 32.6586  25 
  -8   0 -16 65.3114 39.2605  16 
  -8   0 -16 62.4817 42.2245  15 
  -8   0 -16 49.4437 26.1021  14 
   8   0 -16 36.4397 38.7987  21 
   8   0 -16 43.3403 40.0863  25 
   8   0 -16 50.4215 34.1065  24 
  -8   0 -17-18.2811 25.6991  14 
  -8   0 -17-11.1843 28.1125  21 
   8   0 -17 11.4851 28.6405  25 
   8   0 -17-30.6425 37.0948  24 
  -8   0 -17-25.8029 28.5467  16 
   8   0 -17 13.4906 30.4638  21 
   9   0   0 25.8322 43.1440  11 
   9   0   0-3.69403 26.4898  12 
   9   0   0-2.73878 30.2734  18 
   9   0   0-23.2175 35.0534  23 
   9   0   0-28.7896 73.7824   1 
   9   0   0 19.4470 33.7528  21 
   9   0   0 118.486 54.9518  22 
   9   0   0-1.60140 84.7917   4 
   9   0  -1 26.4789 84.5310   4 
   9   0  -1 8.94675 30.6197  12 
   9   0   1-3.95245 34.4448  23 
   9   0   1 23.2733 46.5734  21 
   9   0   1 58.3635 48.6007  22 
   9   0  -1-3.50093 39.0579  21 
   9   0   1 19.7197 28.4576  18 
   9   0   1 84.5420 100.901   4 
   9   0   1 46.9319 48.4940  12 
   9   0   1 0.66309 86.0560   1 
   9   0  -1 13.9647 37.4607  23 
   9   0  -1 2.75356 33.0267  18 
   9   0  -1 13.5481 39.3977  11 
   9   0  -1-31.9375 48.7859  22 
   9   0  -2 25456.2 654.510  18 
   9   0  -2 24468.1 582.343  21 
   9   0   2 25033.9 1074.71   1 
   9   0   2 26183.3 679.307  27 
   9   0   2 27414.5 663.646  23 
   9   0  -2 25488.8 1077.56   4 
   9   0   2 28408.7 687.197  18 
   9   0   2 24671.5 609.785  12 
   9   0  -2 27008.6 615.581  23 
   9   0  -2 24553.2 569.394  22 
   9   0   2 27807.8 1257.35   4 
   9   0  -2 23852.9 560.596  11 
   9   0  -2 24645.7 576.102  12 
   9   0   2 25877.2 626.016  22 
   9   0  -3 12.8776 38.2236  11 
   9   0   3-16.9669 99.6075   4 
   9   0   3-45.9878 37.7995  22 
   9   0  -3 44.0525 33.4526  21 
   9   0  -3-17.3504 29.3396  23 
   9   0   3 19.6329 48.6774  27 
   9   0   3 51.1722 37.6150  12 
   9   0   3-47.4940 97.9868   1 
   9   0  -3 23.5658 39.2712  18 
   9   0   3-0.50247 31.2265  18 
   9   0  -3 0.38864 31.6214  22 
   9   0  -4 3256.56 197.692  11 
   9   0  -4 3481.52 217.104  21 
  -9   0  -4 3377.04 200.806  14 
   9   0   4 3269.33 229.855  12 
   9   0   4 3084.97 228.100  18 
   9   0   4 3163.62 424.883   1 
   9   0  -4 3431.26 237.775  18 
   9   0  -4 3241.01 206.438  23 
   9   0   4 3104.33 242.139  27 
   9   0   4 3415.72 241.291  23 
   9   0  -4 3217.87 196.216  22 
   9   0   4 3450.34 461.651   4 
  -9   0  -5-17.8243 25.2116  14 
   9   0  -5 60.0909 46.3585  22 
   9   0   5 46.2131 129.718   1 
   9   0   5 51.9949 60.1557  23 
   9   0  -5 14.3193 44.7580  18 
   9   0   5-18.5653 30.5002  18 
   9   0  -5 30.7961 34.7462  21 
   9   0   5 49.3951 35.9128  12 
   9   0   5-45.5582 130.338   4 
   9   0  -5 14.5542 32.8366  11 
   9   0  -5-25.7673 36.7493  23 
   9   0   5 27.0839 57.6283  27 
   9   0  -6 1317.57 142.572  21 
  -9   0  -6 1271.33 125.718   6 
   9   0  -6 1269.86 129.724  24 
   9   0   6 1772.75 185.218  27 
   9   0  -6 1490.37 157.922  18 
   9   0  -6 1232.11 129.780  25 
   9   0   6 1204.60 148.581  12 
  -9   0  -6 1466.88 138.372  14 
   9   0   6 1501.48 176.803  23 
   9   0   6 1476.95 156.671  18 
   9   0   7-0.26312 32.5293  18 
  -9   0  -7 19.6121 29.8618   6 
   9   0  -7 12.5481 36.4832  24 
   9   0   7 0.32196 45.5249  27 
   9   0   7 12.3671 35.6510  12 
   9   0  -7 76.0943 44.1216  25 
   9   0  -7 52.1256 43.0099  18 
   9   0  -7-17.6824 43.1506  21 
   9   0   7 34.1785 59.6009  23 
  -9   0  -7-4.29926 25.4220  14 
   9   0   8 263.780 89.8823  27 
   9   0   8 262.396 80.7437  12 
  -9   0  -8 251.988 63.7437  16 
  -9   0  -8 297.666 65.4344  14 
   9   0  -8 189.140 58.2198  21 
   9   0  -8 249.390 71.9255  25 
   9   0   8 341.407 95.9917  23 
   9   0  -8 239.433 63.3040  24 
  -9   0  -8 298.670 68.2975   6 
   9   0  -9-3.36598 39.0590  24 
   9   0   9-17.0227 51.8765  23 
  -9   0  -9 37.3444 37.4473  16 
   9   0   9 96.7842 63.3220  12 
   9   0  -9 13.6842 33.8209  25 
  -9   0  -9 43.5219 47.5274  14 
  -9   0  -9-41.8272 48.9355   6 
   9   0  -9 60.8995 52.6791  21 
  -9   0 -10 112338. 1390.44  14 
   9   0 -10 102334. 1381.40  25 
  -9   0 -10 104053. 1339.10   6 
  -9   0 -10 105266. 1406.91  17 
   9   0  10 103542. 1545.68  12 
   9   0 -10 102169. 1381.87  24 
   9   0 -10 102765. 1393.71  21 
  -9   0 -10 109406. 1324.74  16 
  -9   0 -10 107537. 1305.64   9 
  -9   0 -11 1.79567 30.2013  16 
  -9   0 -11-13.3402 30.4348  14 
   9   0  11 30.8698 62.6889  23 
   9   0  11-24.8498 50.2484  12 
   9   0 -11-26.5159 40.7242  24 
   9   0 -11 5.71044 35.6080  25 
  -9   0 -11-41.1707 52.4659  17 
   9   0 -11 14.8553 41.7484  21 
  -9   0 -11 26.0860 36.0588   6 
   9   0 -12 6731.34 332.242  21 
   9   0 -12 5945.86 315.947  24 
  -9   0 -12 6331.79 307.124   6 
  -9   0 -12 6187.31 322.303  17 
  -9   0 -12 6625.08 302.546  16 
   9   0  12 6165.25 384.973  23 
   9   0  12 6669.77 363.462  12 
   9   0 -12 6234.83 325.369  25 
  -9   0 -12 6377.58 311.647  14 
   9   0 -13 25.3949 52.6511  25 
   9   0  13-23.4929 43.6062  12 
   9   0  13-7.20881 52.3549  23 
   9   0 -13-8.15323 40.6175  24 
  -9   0 -13 27.9940 39.8841  16 
  -9   0 -13 90.9895 47.3500  17 
   9   0 -13-4.41142 43.8605  21 
  -9   0 -13 32.9750 37.4277   6 
  -9   0 -13 29.7150 38.5153  14 
  -9   0 -14 3187.28 201.786   6 
   9   0 -14 2767.25 208.614  21 
  -9   0 -14 3211.42 200.104  16 
   9   0 -14 2773.20 207.657  25 
  -9   0 -14 2993.83 189.715  14 
   9   0 -14 2903.61 211.473  24 
   9   0  14 2870.81 213.978  12 
  -9   0 -15 85.5406 36.2953  16 
  -9   0 -15 51.4132 41.3887  15 
   9   0  15-20.1058 34.6688  12 
   9   0 -15 14.4513 43.5892  21 
   9   0 -15-10.9435 31.1957  24 
  -9   0 -15 23.2419 29.3934  14 
   9   0 -15-85.3628 42.6073  25 
  -9   0 -15-21.4778 26.2900   6 
  -9   0 -16 10077.8 294.674  14 
   9   0 -16 9433.67 326.792  21 
  -9   0 -16 10070.1 301.031  16 
  -9   0 -16 10180.6 293.587  15 
  10   0   0 682.189 111.669  23 
  10   0   0 742.530 108.436  12 
  10   0   0 592.928 114.588  18 
  10   0   0 545.290 203.499   4 
  10   0   0 668.613 111.076  22 
  10   0   0 565.699 103.950  21 
  10   0   1-11.5401 33.6541  18 
  10   0   1-5.08254 45.7183  22 
  10   0  -1 5.82583 37.7051  11 
  10   0   1 45.7579 38.6337  23 
  10   0  -1 46.3558 53.9769  23 
  10   0   1 31.3991 51.3552  27 
  10   0  -1 8.35570 38.9639  21 
  10   0  -1 27.7656 40.4492  22 
  10   0  -1 1.87880 106.477   4 
  10   0  -1 2.84586 31.4195  12 
  10   0   1-1.54525 33.0274  12 
  10   0  -1 64.2351 64.0756  18 
  10   0   1 53.9588 120.827   4 
  10   0   2 2267.46 200.457  22 
  10   0  -2 1971.69 177.604  21 
  10   0   2 2307.18 203.901  23 
  10   0  -2 2033.41 178.864  11 
  10   0  -2 2227.32 205.864  18 
  10   0  -2 2159.40 179.718  12 
  10   0   2 2152.09 207.052  27 
  10   0  -2 2142.47 183.333  22 
  10   0   2 2258.06 195.193  12 
  10   0  -2 2129.63 189.154  23 
  10   0   2 2453.93 418.884   4 
  10   0   2 2559.31 225.198  18 
  10   0   3-5.53105 35.1894  12 
  10   0  -3 13.0035 43.8223  18 
  10   0   3 45.8581 48.8128  27 
  10   0   3-8.09535 45.0322  18 
  10   0  -3 83.0419 54.7434  11 
  10   0  -3-0.48322 35.7211  23 
  10   0  -3-28.5186 43.9663  22 
  10   0   3 15.8730 46.7300  23 
  10   0   3-40.9014 134.053   1 
  10   0  -3 27.9630 43.3058  21 
  10   0  -4 12989.9 496.653  18 
  10   0   4 13957.8 515.294  18 
  10   0  -4 14438.6 468.421  23 
  10   0  -4 11866.0 412.067  22 
  10   0   4 12466.3 475.156  12 
 -10   0  -4 13463.6 424.414  14 
  10   0  -4 12952.3 455.478  21 
  10   0   4 12494.3 509.047  27 
  10   0   4 11277.2 467.665  23 
  10   0  -4 12026.3 410.494  11 
 -10   0  -5-29.9105 32.3647  14 
  10   0   5 9.96069 64.5121  23 
  10   0  -5 7.81519 38.8361  21 
  10   0   5 14.0350 37.9316  12 
  10   0  -5 28.8321 41.9887  18 
  10   0   5 26.2200 45.8688  27 
 -10   0  -5 41.5549 37.0196   6 
  10   0   5 24.1360 34.2727  18 
  10   0  -5-0.46066 37.8154  23 
  10   0   6 14498.2 563.590  27 
 -10   0  -6 15063.3 465.363  14 
  10   0   6 14873.0 573.150  23 
  10   0  -6 14133.1 522.721  18 
 -10   0  -6 15557.3 450.713   6 
  10   0   6 14223.3 530.317  12 
  10   0  -6 15147.0 500.930  21 
  10   0  -7-37.2309 43.7271  18 
 -10   0  -7-17.4575 32.6795  14 
  10   0   7-3.46564 51.0512  27 
  10   0   7-13.5421 69.3657  23 
  10   0  -7 30.2582 53.1454  21 
  10   0   7-17.6509 38.7459  18 
 -10   0  -7-28.1168 34.0581   6 
  10   0  -8 5867.01 309.700  21 
  10   0  -8 5517.01 289.706  25 
 -10   0  -8 6161.78 300.825  14 
 -10   0  -8 6074.45 291.688   6 
  10   0  -8 5400.45 287.051  24 
  10   0   8 5729.82 373.821  23 
  10   0   8 5776.48 352.814  27 
  10   0   8 5510.59 340.244  12 
 -10   0  -9 43.0764 40.6376  14 
  10   0   9 38.5443 68.5012  23 
  10   0  -9 14.3459 41.0181  25 
  10   0   9 36.5069 59.7835  12 
 -10   0  -9-7.77514 34.7288  16 
  10   0  -9 70.0467 59.0213  21 
 -10   0  -9-1.78770 29.6745   6 
  10   0  -9 26.4044 54.2284  24 
  10   0  10 20018.3 712.230  23 
  10   0 -10 19917.2 564.967  24 
 -10   0 -10 21348.7 543.544   9 
 -10   0 -10 20260.4 514.817  16 
  10   0 -10 19814.3 561.744  25 
 -10   0 -10 21992.6 566.769   6 
 -10   0 -10 20600.7 554.422  14 
  10   0  10 20345.7 658.086  12 
  10   0 -10 21616.9 608.579  21 
  10   0 -11 24.8649 48.9360  25 
 -10   0 -11-8.41008 30.8995  16 
  10   0 -11 54.3776 57.7791  24 
 -10   0 -11-3.56154 33.1859   6 
  10   0 -11-22.2952 43.7460  21 
 -10   0 -11 19.1243 33.8485  14 
  10   0  11-4.33598 64.7263  23 
  10   0  11-7.77397 44.2088  12 
 -10   0 -12 8154.23 332.639  14 
 -10   0 -12 8119.96 319.334  16 
  10   0 -12 8423.92 367.216  21 
  10   0  12 7489.95 414.494  23 
 -10   0 -12 7943.53 327.068   6 
  10   0 -12 8560.50 358.256  24 
  10   0 -12 8810.94 363.379  25 
  10   0  12 7753.57 384.909  12 
  10   0 -13 5.91527 42.0657  21 
  10   0  13-35.1730 56.0107  23 
 -10   0 -13 3.13236 33.4725  16 
 -10   0 -13-16.4842 29.4806  14 
 -10   0 -13 14.3387 27.6080   6 
  10   0  13-8.92236 38.6176  12 
 -10   0 -14 202.625 53.7821   6 
  10   0 -14 133.488 53.2447  21 
 -10   0 -14 189.874 50.7584  14 
 -10   0 -14 191.108 50.5082  16 
  10   0  14 218.133 62.4232  12 
 -10   0 -15-18.6177 23.1135  14 
  10   0  15-30.5432 34.4395  12 
  10   0 -15-42.6422 40.2044  21 
 -10   0 -15-58.1980 38.3130  15 
  11   0   0 3.26676 46.5771  22 
  11   0   0 1.20980 56.4297  23 
  11   0   0-42.6930 55.9682  27 
  11   0   0 12.8588 32.3680  12 
  11   0   0-57.9196 53.9550  18 
  11   0  -1-15.4992 39.1240  18 
  11   0  -1 13.6142 46.0515  23 
  11   0  -1-32.8045 49.0750  21 
  11   0   1 80.5007 54.4062  27 
  11   0  -1-54.1647 48.1878  12 
  11   0   1-76.3116 54.8842  18 
  11   0  -1-68.4287 56.4643  22 
  11   0   1 23.6049 45.9061  22 
  11   0   1-8.81449 33.3353  12 
  11   0   1 56.9768 40.9629  23 
  11   0   2 781.732 130.124  12 
  11   0  -2 816.108 124.280  21 
  11   0  -2 840.472 134.855  23 
  11   0  -2 818.244 133.776  18 
  11   0   2 832.406 139.904  27 
  11   0  -2 799.379 119.405  12 
  11   0   2 787.179 135.670  18 
  11   0  -2 854.981 129.304  22 
  11   0   2 894.048 138.984  23 
  11   0   3 29.9318 54.3984  27 
  11   0   3-51.8960 54.4434  12 
 -11   0  -3 18.4602 33.2236  14 
  11   0  -3 4.96686 37.8163  23 
  11   0  -3-33.3296 49.6831  18 
  11   0   3 45.1186 60.4310  23 
  11   0  -3 3.76259 41.7468  22 
  11   0   3-5.87472 55.8852  18 
  11   0  -3 25.2774 53.1467  21 
  11   0  -3 1.23135 47.5453  11 
  11   0  -4 1228.08 155.672  21 
 -11   0  -4 1404.65 140.918  14 
  11   0   4 1359.94 167.266  18 
  11   0   4 1411.29 179.451  27 
  11   0  -4 1045.60 140.080  23 
  11   0   4 1325.71 172.703  12 
  11   0   4 1223.80 161.801  23 
  11   0  -4 1386.38 169.522  18 
 -11   0  -5-14.2826 29.2197   6 
  11   0  -5 11.4841 42.8108  18 
  11   0   5-45.4766 51.6549  27 
  11   0  -5 49.3060 52.6307  21 
  11   0   5 97.2633 78.3637  23 
  11   0   5 8.16554 49.4940  18 
  11   0   5 51.9546 49.8108  12 
  11   0  -5 85.7832 51.9244  23 
 -11   0  -5 38.0852 33.5784  14 
 -11   0  -6 4131.02 232.559   6 
  11   0   6 5077.38 351.732  23 
  11   0   6 4475.49 317.740  12 
  11   0   6 3980.35 298.517  27 
 -11   0  -6 4438.45 256.138  14 
  11   0  -6 4497.27 310.931  18 
  11   0   6 3964.32 285.200  18 
  11   0  -6 4704.07 287.898  21 
  11   0  -7 36.8000 51.9647  18 
  11   0   7-25.5700 57.3343  23 
  11   0   7-9.16978 57.8387  12 
 -11   0  -7 22.2957 35.3096   6 
 -11   0  -7 22.1202 31.5137  14 
  11   0   7 168.396 87.1651  27 
  11   0  -7-29.4216 49.5602  21 
  11   0   7 40.9542 44.3990  18 
 -11   0  -8 35117.7 702.299   6 
  11   0   8 34065.3 861.992  27 
 -11   0  -8 37141.3 752.236  14 
  11   0   8 34116.5 946.445  23 
  11   0  -8 34308.2 786.748  21 
  11   0  -9 24.9586 48.9451  21 
 -11   0  -9-45.7587 40.5092  14 
  11   0   9 47.5640 57.0041  23 
 -11   0  -9 3.16238 34.3090   6 
  11   0   9-60.2279 56.7008  12 
 -11   0 -10 7880.70 321.195   6 
  11   0  10 8977.94 468.396  23 
 -11   0 -10 8358.59 327.880   9 
  11   0 -10 9017.94 385.224  21 
 -11   0 -10 8476.72 345.605  14 
  11   0  10 8418.86 422.943  12 
  11   0  11-11.2845 52.2553  23 
  11   0 -11 62.4542 44.4101  21 
 -11   0 -11-15.5341 27.9352   6 
 -11   0 -11 31.0343 37.3006  14 
  11   0  11-14.0544 42.7732  12 
  11   0  12 145.018 78.4786  23 
 -11   0 -12 172.122 52.4534  14 
  11   0  12 224.992 68.5363  12 
 -11   0 -12 120.074 41.7251   6 
  11   0 -12 327.294 79.6168  21 
  11   0  13 29.3871 50.5031  23 
  11   0  13 56.2271 49.4264  12 
 -11   0 -13 34.9256 35.2282  14 
  11   0 -13 11.6209 31.8516  21 
 -11   0 -13 37.1783 31.4133   6 
  11   0 -14 46.3608 42.5262  21 
 -11   0 -14 48.3086 29.4258  14 
  11   0  14 159.150 56.5648  12 
  12   0   0 25791.5 700.964  12 
  12   0   0 24952.7 728.839  23 
  12   0   0 24353.7 754.921  18 
  12   0   0 26626.6 799.554  27 
  12   0   1-29.6274 63.3724  27 
  12   0   1 109.091 67.3459  18 
  12   0  -1 82.7556 59.8418  23 
  12   0  -1 29.8698 43.6297  12 
  12   0  -1 16.6504 64.7390  27 
  12   0  -1-15.8767 51.6556  18 
  12   0   1-19.2709 54.1119  12 
  12   0  -1 19.6149 49.5542  22 
  12   0   1-23.7022 46.9783  23 
  12   0   2 1798.06 202.956  23 
 -12   0  -2 1665.62 161.405  14 
  12   0   2 1748.17 216.431  27 
  12   0  -2 1816.97 192.163  21 
  12   0   2 1993.79 217.222  18 
  12   0   2 1933.39 199.408  12 
  12   0  -2 1644.53 173.932  22 
  12   0  -2 1921.79 199.495  23 
  12   0  -2 1875.55 214.011  18 
  12   0   3 10.0109 42.2298  12 
  12   0   3 104.988 48.2703  18 
  12   0  -3 33.2622 49.0928  21 
  12   0   3-17.8635 52.9052  23 
 -12   0  -3 18.7448 28.8296  14 
  12   0  -3 18.0089 44.9020  18 
  12   0   3 62.4272 64.0647  27 
  12   0  -3-28.8756 46.7397  23 
  12   0  -4 56045.4 1160.66  18 
  12   0   4 56909.6 1150.71  18 
  12   0  -4 55294.9 1034.51  23 
 -12   0  -4 54590.8 939.142  14 
  12   0   4 55592.9 1175.08  23 
  12   0   4 54245.5 1165.75  27 
  12   0   4 55117.5 1107.66  12 
  12   0  -4 51687.3 1020.94  21 
  12   0   5 60.4561 59.3146  27 
  12   0  -5 54.4936 44.5597  21 
  12   0   5 5.19248 49.5852  18 
  12   0   5 62.7222 76.0582  23 
  12   0  -5 50.9724 61.3182  18 
 -12   0  -5-6.11346 42.4924  14 
  12   0   5 42.0596 43.3127  12 
  12   0  -6 723.273 124.104  18 
  12   0   6 797.746 127.806  12 
 -12   0  -6 696.829 97.9323  14 
  12   0   6 776.479 145.763  27 
  12   0  -6 701.153 122.119  21 
  12   0   6 721.162 150.261  23 
  12   0   6 732.309 129.155  18 
  12   0   7-18.7522 67.5329  23 
 -12   0  -7-26.0266 34.9138  14 
  12   0  -7-24.8362 55.4025  21 
  12   0   7 35.9309 51.9249  12 
 -12   0  -7 55.3236 43.5286   6 
  12   0   7 64.7184 57.4941  27 
  12   0  -7 88.1354 55.8228  18 
  12   0   7-54.7481 44.2926  18 
  12   0  -8 1613.27 170.447  21 
  12   0   8 1506.54 188.640  12 
 -12   0  -8 1586.60 136.703   6 
 -12   0  -8 1665.76 151.945  14 
  12   0   8 1490.21 194.022  23 
 -12   0  -9-29.5758 32.4620   6 
  12   0   9 45.1896 51.6160  23 
 -12   0  -9 1.03629 29.1549  14 
  12   0   9-11.5577 43.5216  12 
 -12   0  -9 14.7564 33.7715   9 
  12   0  -9 36.0311 47.8909  21 
 -12   0 -10 1245.83 119.211   6 
  12   0  10 1417.07 172.523  12 
  12   0 -10 1391.20 155.618  21 
 -12   0 -10 1396.22 130.854  14 
  12   0  10 1284.91 181.903  23 
 -12   0 -11-28.7237 31.9896  14 
  12   0  11 39.7544 46.0842  12 
  12   0  11 18.7589 46.2098  23 
 -12   0 -11 54.9748 34.5524   6 
  12   0 -11-57.5387 50.9054  21 
 -12   0 -12 4543.52 207.539  14 
  12   0 -12 4054.56 237.783  21 
 -12   0 -12 4138.39 190.257   6 
  12   0  12 4240.50 254.550  12 
  12   0  12 3201.63 245.605  23 
  12   0 -12 3236.12 220.495  27 
 -12   0 -13-8.47766 21.6550  14 
  12   0 -13 0.68524 32.1587  21 
  12   0  13-14.9451 29.8066  12 
  13   0   0 25.2786 42.9257  12 
  13   0   0 25.5997 55.0880  18 
  13   0   0-8.28319 52.8405  23 
  13   0   0-8.84018 77.6566  27 
 -13   0  -1 8.61185 28.1605  14 
  13   0  -1 27.0660 65.6900  18 
  13   0  -1 16.4066 75.5358  27 
  13   0  -1 58.4084 61.6557  23 
  13   0   1-75.7001 47.9350  23 
  13   0   1 139.541 59.2863  12 
  13   0   1-18.1517 76.5006  27 
  13   0   1 25.4937 56.8073  18 
  13   0   2 2565.02 242.655  23 
  13   0  -2 2583.43 222.523  23 
  13   0  -2 2205.95 243.114  27 
  13   0  -2 2520.12 254.671  18 
  13   0   2 2660.94 257.556  18 
  13   0   2 2330.80 214.736  12 
  13   0   2 2281.53 243.445  27 
 -13   0  -2 2473.13 194.322  14 
  13   0  -3 66.9841 53.2550  18 
  13   0   3 63.2862 60.7752  27 
  13   0   3-45.8492 43.8225  18 
  13   0  -3 39.9346 47.3644  23 
  13   0  -3 32.2358 57.4960  27 
 -13   0  -3-22.4184 38.9531  14 
  13   0   3 3.49226 38.8712  12 
  13   0   3-67.5296 71.8314  23 
  13   0   4 11457.7 520.744  27 
 -13   0  -4 13041.6 433.675  14 
  13   0   4 12100.9 543.257  23 
  13   0  -4 12460.8 536.819  18 
  13   0  -4 12129.2 554.555  27 
  13   0  -4 12708.2 491.652  21 
  13   0  -4 11907.7 467.884  23 
  13   0   4 12464.6 540.300  18 
  13   0   4 12205.4 505.935  12 
 -13   0  -5 1.11126 31.4463  14 
  13   0  -5-7.87815 60.4478  21 
  13   0   5 0.64976 41.2915  12 
  13   0   5-27.3704 41.1446  18 
  13   0  -5 15.1316 49.6320  18 
  13   0   5 0.77064 62.0168  23 
  13   0   5-62.4880 57.7085  27 
  13   0   6 124968. 1698.02  12 
  13   0   6 110647. 1653.50  27 
  13   0  -6 125624. 1626.06  21 
 -13   0  -6 128553. 1433.68  14 
  13   0  -6 124955. 1721.59  18 
  13   0   6 127184. 1847.87  23 
  13   0   6 109026. 1610.91  18 
  13   0  -7 41.8352 49.4977  18 
  13   0   7 50.0887 52.1649  12 
  13   0   7 23.0238 59.1232  27 
  13   0  -7 17.1887 48.4164  21 
  13   0   7-46.3085 50.3719  18 
 -13   0  -7 27.6684 31.8357  14 
  13   0   7-65.4048 66.6722  23 
  13   0   8 7526.11 384.784  12 
  13   0   8 7348.48 411.616  23 
 -13   0  -8 7228.14 300.136  14 
  13   0  -8 6953.68 344.117  21 
  13   0   9-39.5064 40.3015  12 
 -13   0  -9-15.0177 28.5964  14 
  13   0  -9 78.1554 54.7780  21 
  13   0   9 14.8504 49.1860  23 
  13   0  -9 20.5012 46.8947  27 
 -13   0  -9-12.1889 27.5754   9 
 -13   0 -10 3758.34 195.293  14 
  13   0 -10 3446.24 225.045  21 
  13   0  10 3170.81 257.343  23 
  13   0 -10 3360.46 237.136  27 
  13   0  10 3842.34 253.264  12 
 -13   0 -11 13.5132 22.2590  14 
  13   0  11-22.1589 44.0956  23 
  13   0 -11 62.9289 42.7156  21 
  13   0 -11 68.3374 51.9542  27 
  13   0  11 20.1403 37.8942  12 
  13   0  12 785.191 98.5504  12 
  13   0 -12 541.129 81.5984  21 
  14   0   0 6296.15 383.249  18 
 -14   0   0 6354.14 294.664  14 
  14   0   0 6308.56 368.691  23 
  14   0   0 5949.43 379.977  27 
  14   0   1 31.7894 65.5574  18 
  14   0   1 104.300 74.3949  27 
  14   0  -1 16.2591 44.2421  23 
  14   0   1 13.8774 56.3001  23 
 -14   0  -1 8.36700 36.7063  14 
  14   0  -1 31.4077 55.0631  27 
  14   0   1 16.8610 39.7484  12 
  14   0  -1 27.1282 54.3048  18 
  14   0   2 2955.03 266.516  18 
  14   0   2 2918.70 238.976  12 
  14   0   2 3176.37 266.280  23 
  14   0   2 2968.93 260.584  27 
 -14   0  -2 3032.19 203.336  14 
  14   0  -2 2743.00 255.159  18 
  14   0  -2 2999.66 238.688  23 
  14   0  -2 3038.98 268.130  27 
  14   0  -3 58.0288 56.5574  27 
  14   0   3-29.0242 51.3124  18 
  14   0  -3 28.5841 65.3977  18 
 -14   0  -3 0.20707 27.5992  14 
  14   0   3-29.8576 59.9831  27 
  14   0  -3 50.8854 52.6451  23 
  14   0   3 63.8886 53.3436  12 
  14   0   3-9.70664 61.9092  23 
  14   0   4 83811.8 1434.81  23 
  14   0   4 84857.4 1304.39  12 
  14   0  -4 82508.5 1389.67  18 
  14   0  -4 87532.9 1448.39  27 
 -14   0  -4 81510.1 1087.56  14 
  14   0   4 82923.9 1382.52  18 
  14   0  -5-14.7797 58.9532  27 
  14   0   5 34.0216 57.1322  27 
  14   0  -5-55.6114 49.2075  18 
  14   0   5-20.8281 57.5350  23 
 -14   0  -5 52.3354 37.9788  14 
  14   0   5 31.3505 48.2116  12 
  14   0   5 35.2106 47.8950  18 
  14   0  -6 14812.3 536.016  18 
  14   0   6 15878.0 543.684  18 
  14   0   6 16197.2 544.670  12 
  14   0   6 16043.9 599.400  23 
  14   0  -6 15493.6 564.128  27 
 -14   0  -6 15307.6 420.779  14 
 -14   0  -7 20.9277 25.5272  14 
  14   0   7-39.7952 39.6450  12 
  14   0   7-77.8450 67.2119  23 
  14   0  -7 12.5693 41.7533  18 
  14   0  -7-59.7215 60.0656  27 
  14   0  -7 7.06572 41.7074  21 
  14   0   7-35.3304 38.7568  18 
  14   0   8 36782.7 866.533  23 
 -14   0  -8 38252.5 623.166  14 
  14   0   8 38765.5 808.382  12 
  14   0  -8 38465.2 831.903  27 
  14   0  -9-65.8525 51.0561  27 
  14   0   9 22.6108 31.6002  12 
  14   0  -9-46.3819 42.6186  21 
  14   0   9 32.0367 49.4130  23 
 -14   0  -9-60.5134 30.8614  14 
  14   0 -10 634.336 100.162  27 
  14   0  10 747.770 114.865  23 
  14   0 -10 786.498 100.617  21 
  14   0  10 1039.04 118.099  12 
  14   0  11 1.01185 28.1842  12 
  15   0   0-11.8909 48.9295  18 
 -15   0   0 28.2912 27.9967  14 
  15   0   0-7.56602 59.0653  27 
  15   0   0 52.6521 56.1636  23 
 -15   0  -1 44.5497 34.1521  14 
  15   0  -1-41.4794 48.9309  27 
  15   0  -1 17.2829 43.1789  23 
  15   0   1 26.5461 50.1627  27 
 -15   0   1-4.28993 26.6196  14 
  15   0  -1 30.2830 44.9876  18 
  15   0   1 25.2183 57.2128  18 
  15   0   1-26.8852 54.2150  23 
  15   0   2-27.2590 50.1756  27 
  15   0  -2 13.3583 52.6893  27 
  15   0   2 36.7981 37.1314  12 
  15   0  -2 33.0745 48.5697  23 
  15   0   2 36.9931 49.0212  18 
  15   0   2-18.7197 43.3107  23 
 -15   0  -2 22.0971 33.9487  14 
  15   0  -2 69.7208 52.3758  18 
 -15   0   2 17.3045 26.4431  14 
  15   0   3-6.27133 40.5680  12 
  15   0  -3 94.8436 82.1433  27 
  15   0  -3-26.8028 57.8305  18 
  15   0   3 14.6028 46.2830  18 
  15   0   3 116.409 66.8784  23 
  15   0   3 9.42555 49.1680  27 
 -15   0  -3 10.9459 30.9019  14 
  15   0   4 941.970 134.435  27 
  15   0   4 1288.24 145.471  12 
  15   0  -4 1302.95 160.271  27 
  15   0   4 1339.94 163.899  23 
  15   0  -4 1381.37 161.752  18 
 -15   0  -4 1192.11 110.053  14 
  15   0   4 1236.41 153.517  18 
  15   0   5 3.04861 31.4698  12 
  15   0  -5-34.6810 51.3600  27 
  15   0   5-71.3352 56.4883  23 
  15   0   5 53.0675 48.5357  18 
  15   0  -5 59.1834 46.6836  18 
  15   0   5-17.9303 44.1841  27 
 -15   0  -5-3.34575 23.6453  14 
  15   0   6 32278.5 774.398  23 
  15   0   6 32292.4 699.503  18 
 -15   0  -6 29231.2 516.405  14 
  15   0  -6 28202.8 662.417  18 
  15   0  -6 33282.0 759.084  27 
  15   0   6 32681.5 696.548  12 
  15   0   7-16.8591 32.2134  12 
  15   0  -7 99.6719 61.2950  27 
  15   0   7 86.9970 53.5914  23 
  15   0  -8 120854. 1424.55  27 
  15   0   8 126873. 1537.33  23 
  15   0   9 18.7139 25.1220  12 
  15   0   9-4.72435 38.7142  23 
  16   0   0 5489.55 308.535  18 
  16   0   0 5078.34 272.361  23 
  16   0   0 5293.26 295.868  27 
  16   0   1 34.0862 32.8743  18 
  16   0   1 43.8727 44.4037  23 
  16   0  -1 88.8469 56.4717  23 
  16   0   1-36.8450 54.8280  27 
  16   0  -1 88.8089 58.2139  27 
  16   0  -1 42.0402 47.1497  18 
  16   0   2 867.283 121.465  23 
  16   0   2 674.142 113.539  27 
  16   0  -2 677.958 108.894  27 
  16   0   2 802.076 120.086  18 
  16   0  -2 778.986 116.510  18 
  16   0   3 49.4030 53.8522  27 
  16   0  -3 3.95087 48.0559  18 
  16   0   3-20.6066 42.5852  18 
  16   0  -3 49.0688 48.8991  27 
  16   0   3 77.5456 54.0723  23 
  16   0  -4 2896.63 208.716  18 
  16   0   4 3276.89 226.046  23 
  16   0   4 3107.59 211.110  18 
  16   0  -4 2957.77 213.048  27 
  16   0  -5-26.4353 39.3343  27 
  16   0   5 29.1583 41.0439  23 
  16   0   6 8358.24 340.523  23 
  16   0  -6 8207.40 325.122  27 
   0  -1   0 27.8825 25.8744   1 
   0   1   1 39.4663 29.9910   1 
   0   1  -1 16.2005 15.0471   1 
   0  -1   1-17.5289 22.3855   1 
   0  -1  -1-3.84297 21.0952   1 
   0   1  -1 51.1183 23.7460   2 
   0   1  -1 7.63604 25.4324   3 
   0  -1   2-11.9382 21.2857   1 
   0  -1  -2 70.7589 41.2777   1 
   0   1  -2 61.8095 31.8885   2 
   0  -1   2 66.4288 35.0640   3 
   0  -1   2 29.0353 27.4229   2 
   0   1  -2 89.5805 42.3460   3 
   0   1  -2 23.8943 23.4395   1 
   0  -1   3 57.4274 27.4537   1 
   0  -1   3 48.0545 27.1336   2 
   0  -1  -3 37.2106 32.2092   1 
   0  -1   3 97.0506 44.7147   3 
   0   1  -3 147.704 36.7361   1 
   0   1  -3 46.8051 38.6196   3 
   0   1  -3 54.8873 37.4380   2 
   0   1   4-9.55603 41.7709   1 
   0   1  -4 14.7732 8.60624   5 
   0   1  -4 57.5692 34.0495   1 
   0  -1   4 11.7176 36.4199   2 
   0  -1  -4 8.47753 38.1677   1 
   0  -1  -4 21.6048 29.0184   4 
   0  -1   4 28.7646 27.4193   1 
   0  -1   4 53.3582 27.4182   3 
   0  -1   5 16.0420 32.8368   1 
   0   1   5-60.0638 69.1587   1 
   0   1  -5 13.9717 15.1942   5 
   0  -1   5 46.0245 29.3087   4 
   0   1  -5 50.4892 39.8624   1 
   0  -1  -5 35.0059 27.7277   4 
   0  -1   6-7.38617 31.8017   1 
   0   1  -6-5.43972 14.1127   5 
   0  -1   6 10.9120 19.3073   4 
   0   1   6 40.2953 60.1565   1 
   0   1  -6 13.3861 35.0157   1 
   0  -1  -6 41.7301 44.2094   4 
   0  -1  -7-9.89509 30.8106   4 
   0   1   7 24.7721 54.2618   1 
   0   1  -7 12.9047 15.4927   5 
   0  -1   7 26.7237 35.3573   1 
   0  -1   7 40.1941 30.5821   4 
   0   1  -8 50.4584 27.5581  25 
   0   1  -8 85.5593 31.9652   5 
   0  -1  -8 12.9164 31.0664  16 
   0  -1  -8 44.0704 25.0361   6 
   0   1  -8 61.5192 31.0119  26 
   0  -1   8 24.9267 32.5884   4 
   0   1  -8 29.8925 18.6082  24 
   0  -1  -8 26.3665 31.1702  17 
   0  -1  -8 65.4371 31.8081  26 
   0   1   8 111.068 84.8372   1 
   0  -1   8 83.6737 51.4187   1 
   0   1   9 111.411 65.2966   1 
   0  -1  -9 79.2044 29.0686  14 
   0  -1  -9 82.0872 35.6886  24 
   0  -1  -9 55.7033 30.9723  16 
   0   1  -9 94.3792 38.3572  14 
   0  -1  -9 50.6947 26.2353  15 
   0  -1  -9 88.7030 39.1849   9 
   0  -1  -9 147.740 50.2956  17 
   0  -1   9 97.8936 78.9749   1 
   0   1  -9 37.1569 21.6403  24 
   0   1  -9 114.722 37.3195   6 
   0  -1  -9 63.0879 28.3102  25 
   0   1  -9 50.3737 34.0483  26 
   0   1  -9 78.9067 37.8742  17 
   0   1  -9 80.3569 30.2709  16 
   0   1  -9 72.0542 31.4969  25 
   0  -1 -10 63.4961 41.5820  17 
   0  -1 -10 22.0787 23.1387  15 
   0   1 -10 35.8739 30.6839  17 
   0  -1 -10 54.8464 40.0689  16 
   0   1  10 155.448 111.436   1 
   0   1 -10 65.9949 30.7457  16 
   0  -1 -10 49.9122 33.2144  14 
   0  -1 -10 45.7454 31.0796  25 
   0   1 -10 39.0107 29.8491  24 
   0   1 -10 37.7151 24.7339   6 
   0  -1 -10 51.5025 37.5059  24 
   0  -1 -10 27.4556 25.5313   9 
   0   1 -10 47.4238 27.2743  14 
   0  -1  10 31.4202 63.4258   1 
   0   1 -10 8.77769 29.0930  26 
   0   1 -10 34.9400 31.4773  25 
   0   1 -11 1.33341 25.6129  25 
   0   1 -11 10.8976 26.2595  14 
   0   1  11 96.3230 133.729   1 
   0  -1 -11 11.1875 32.4749  24 
   0   1 -11-4.20491 22.7861   6 
   0   1 -11-23.2071 39.3131  17 
   0  -1 -11-30.3254 28.3984  15 
   0  -1 -11 38.9838 32.7743  25 
   0  -1 -11-13.0601 45.7406  17 
   0  -1 -11 1.76875 32.3276   9 
   0   1 -11 38.2876 34.9836  24 
   0  -1 -11 37.9363 28.7336  14 
   0   1 -11 31.0776 39.8179  26 
   0  -1 -12-1.25697 29.2245  25 
   0  -1 -12 35.3197 40.4178  15 
   0   1  12 39.2173 126.609   1 
   0  -1 -12 68.1326 40.1348  21 
   0  -1 -12 99.5174 58.6655  17 
   0  -1 -12 58.4678 44.2890  16 
   0   1 -12 24.5692 38.9558  16 
   0  -1 -12 43.8200 42.7535  24 
   0   1 -12 84.0709 40.7777  24 
   0   1 -12 41.9768 33.2306   6 
   0   1 -12 53.3716 52.6846  26 
   0  -1 -12-33.2870 28.6155  14 
   0   1 -12 104.318 48.6248  25 
   0   1 -12-18.8058 38.3679  17 
   0   1 -12 0.81345 32.9979  14 
   0  -1 -13 18.9856 46.1062  21 
   0  -1 -13 5.82118 34.6586  24 
   0   1 -13 27.0370 40.9232  16 
   0   1 -13-19.2244 28.1107   6 
   0  -1 -13-16.2722 27.1615  14 
   0  -1 -13 18.5716 52.9141  17 
   0  -1 -13 48.4237 37.2327  25 
   0   1 -13 33.0009 36.5092  14 
   0   1 -13 10.8731 36.7391  24 
   0  -1 -13 5.68844 37.0584  16 
   0   1 -13-2.30241 46.1700  26 
   0   1 -13-14.6017 34.3302  25 
   0   1 -13 55.2833 48.2466  17 
   0  -1 -13 33.1178 36.0995  15 
   0   1 -13 127.302 45.8205  21 
   0  -1 -14-27.5265 50.9174  17 
   0   1 -14-2.06347 40.2389  16 
   0   1 -14-18.8315 43.0713  14 
   0   1 -14-2.10875 34.2977  21 
   0   1 -14 3.80969 33.5744  25 
   0  -1 -14 8.24511 35.8259  24 
   0   1 -14 35.6673 63.5308  26 
   0   1 -14 17.0324 41.0897  17 
   0   1 -14-47.3033 53.6002  24 
   0  -1 -14 65.8738 48.9149  16 
   0  -1 -14-53.0058 50.3153  21 
   0  -1 -14 61.2595 50.4898  25 
   0  -1 -14 36.7748 38.0314  15 
   0  -1 -14-14.7013 29.2874  14 
   0   1 -15 40.9782 47.9184  24 
   0  -1 -15 24.1738 37.1781  14 
   0  -1 -15 3.07214 37.4858  25 
   0   1 -15 56.4989 52.0984  16 
   0  -1 -15 29.5305 45.7135  24 
   0  -1 -15 42.6789 46.7457  15 
   0  -1 -15 35.6572 39.0265  16 
   0   1 -15-34.6127 64.3457  17 
   0   1 -15 1.56817 44.4086  25 
   0  -1 -15 27.1932 45.2617  21 
   0   1 -15-36.7895 44.0312  26 
   0   1 -15-1.68181 32.9329  21 
   0   1 -15-3.95175 43.3585  14 
   0  -1 -16 183.188 69.7176  16 
   0   1 -16-9.33003 43.9402  17 
   0   1 -16 44.2924 53.5074  25 
   0  -1 -16-24.0143 34.3793  15 
   0   1 -16 20.6826 38.1395  14 
   0  -1 -16-34.7020 35.7473  25 
   0   1  16 4.37512 49.4252  10 
   0  -1 -16 15.7124 35.4613  24 
   0   1 -16 137.935 58.7098  16 
   0   1 -16 2.34672 43.6953  21 
   0  -1 -16 81.0133 44.8570  14 
   0  -1 -16 9.30036 41.3621  21 
   0   1 -16-30.7906 50.5360  24 
   0  -1 -17 22.1911 31.4497  14 
   0  -1 -17 24.9500 39.2729  25 
   0  -1 -17 25.3063 38.9029  16 
   0  -1 -17 22.0923 37.3961  24 
   0   1 -17-50.1588 53.3212  21 
   0   1 -17 32.9410 47.4603  17 
   0   1 -17-28.4995 41.7036  16 
   0   1 -17-11.3447 31.6235  14 
   0   1 -17 4.05528 34.9432  24 
   0   1 -17-6.41193 38.5015  25 
   0  -1 -17 31.2404 33.1135  21 
   0   1  17 7.40826 43.7672  10 
   0  -1 -18 9.26555 37.2830  25 
   0  -1 -18 23.2629 29.1729  21 
   0   1 -18 4.75819 31.7138  24 
   0   1 -18-22.8800 44.5764  17 
   0   1  18 11.3820 38.4850  10 
   0   1 -18 39.2648 36.1713  16 
   0  -1 -18-28.6614 39.8739  24 
   0   1 -18-16.1100 35.8664  21 
   0  -1 -18 30.0115 36.2826  16 
   0   1 -18-31.6982 40.2808  25 
   0   1 -18 20.2425 37.7179  14 
   0   1  19 76.3674 44.0000  10 
   0  -1 -19-12.0087 26.8889  21 
   0   1 -19-25.7992 30.5285  25 
   0  -1 -19 31.2896 43.0388  16 
   0   1 -19 44.6711 38.0311  24 
   0   1 -19-1.48694 29.8426  16 
   0   1 -19 31.2471 31.6850  21 
   1   1   0 2.52969 22.2320   1 
  -1   1   0-11.6272 18.5407   1 
  -1  -1   0 6.09333 22.5812   1 
  -1  -1   1 93573.6 860.813   1 
   1   1  -1 107899. 1114.08   3 
  -1   1  -1 119930. 1065.17   2 
  -1  -1   1 105757. 1003.88   1 
   1  -1  -1 109298. 1301.54   1 
   1  -1  -1 101920. 1094.82   1 
  -1   1  -1 97542.9 1081.83   1 
  -1   1  -1 112291. 1047.07   3 
   1  -1   1 122589. 1143.32   1 
   1   1  -1 107507. 1106.02   2 
  -1  -1  -1 101487. 1185.38   4 
  -1  -1  -1 91704.6 1125.76   1 
   1   1   1 102977. 1197.65   1 
  -1  -1   2 181694. 1500.95   1 
   1  -1   2 250499. 1941.03   2 
  -1  -1  -2 311908. 2355.38   1 
   1  -1  -2 304355. 2397.15   1 
   1   1  -2 291096. 2120.44   3 
  -1   1  -2 314940. 2142.80   1 
  -1  -1   2 242924. 2008.45   2 
   1   1  -2 291707. 2129.83   2 
  -1  -1   2 245639. 2024.60   3 
   1  -1   2 250063. 1976.49   1 
   1   1   2 360107. 2563.80   1 
   1   1  -2 223362. 1588.30   1 
  -1   1  -2 220045. 1873.95   3 
   1  -1   2 257366. 1972.07   3 
  -1  -1  -2 305923. 2291.66   4 
  -1   1  -2 214429. 1864.91   2 
  -1  -1   2 219911. 1561.88   5 
  -1   1   2 277762. 2362.27   1 
  -1   1  -3 447303. 3634.03   2 
  -1  -1   3 622848. 3849.22   2 
  -1  -1  -3 614145. 3923.40   4 
   1   1  -3 491144. 3633.66   3 
  -1  -1   3 629549. 3878.82   3 
   1   1   3 492156. 3934.06   1 
  -1   1   3 533505. 3961.00   1 
  -1   1  -3 651791. 3720.41   1 
  -1   1  -3 426196. 3564.94   3 
   1   1  -3 487321. 3637.98   2 
  -1  -1  -3 639905. 4092.13   1 
   1  -1   3 459271. 3498.48   1 
   1  -1   3 517952. 3611.74   3 
  -1  -1   3 408437. 3026.41   1 
   1  -1   3 528729. 3636.50   2 
   1  -1  -3 699351. 4194.05   1 
   1   1  -3 506892. 3090.97   1 
   1   1  -4 211472. 1518.26   5 
   1   1   4 273442. 2628.46   1 
   1  -1   4 222575. 2128.11   2 
   1  -1   4 222086. 2117.08   3 
  -1   1  -4 190456. 1928.99   1 
  -1  -1   4 206977. 2114.76   3 
   1   1  -4 207218. 1617.67   1 
  -1  -1   4 202491. 2098.21   2 
  -1   1   4 252229. 2451.00   1 
   1  -1   4 251611. 2174.58   1 
  -1  -1  -4 218562. 2098.09   4 
   1  -1  -4 200007. 2184.13   1 
  -1  -1   4 197341. 1637.70   1 
  -1  -1  -4 199572. 2194.99   1 
  -1   1   5 9636.44 478.683   1 
   1   1  -5 9671.64 304.628   1 
  -1   1  -5 9108.99 398.249   1 
   1  -1  -5 8635.82 427.684   1 
  -1  -1  -5 9897.46 391.871   4 
  -1  -1   5 10628.4 343.681   1 
   1  -1  -5 9247.82 340.365   4 
   1  -1   5 10137.0 416.790   1 
   1  -1   5 10061.7 352.346   4 
   1   1  -5 10310.8 265.967   5 
   1   1   6 601.989 143.918   1 
   1  -1  -6 731.834 94.3899   4 
  -1  -1   6 739.395 64.4763   4 
   1   1  -6 981.589 109.576   1 
   1  -1   6 556.095 112.442   1 
  -1   1   6 1007.12 166.979   1 
   1  -1   6 675.714 97.0290   4 
  -1  -1   6 526.930 91.1749   1 
   1   1  -6 779.834 77.3403   5 
  -1  -1  -6 721.497 110.861   4 
   1   1  -7 2607.45 201.890   1 
   1  -1  -7 2691.21 177.471   4 
   1   1  -7 2578.39 158.364   5 
   1  -1   7 2811.33 277.415   1 
  -1  -1   7 2664.89 226.775   1 
  -1  -1   7 1981.57 83.3642   4 
  -1   1   7 3051.11 318.648   1 
   1   1   7 2586.16 310.063   1 
   1  -1   7 3148.07 224.510   4 
   1  -1  -8 133366. 1210.34  14 
   1  -1   8 144733. 1757.46   4 
   1  -1  -8 143057. 1246.82  21 
  -1  -1  -8 132280. 1374.62  17 
  -1   1  -8 145616. 1279.20  24 
  -1  -1   8 144689. 1965.77   1 
  -1   1  -8 143275. 1353.17  26 
  -1   1   8 142842. 2458.18   1 
   1   1  -8 140988. 1349.57  26 
   1   1  -8 148439. 1481.75   5 
  -1   1  -8 139724. 1257.82  14 
  -1   1  -8 135802. 1328.89  17 
  -1  -1  -8 158701. 1325.49   6 
  -1  -1  -8 134650. 1280.61  16 
   1   1  -8 140680. 1269.12  24 
   1  -1  -8 138346. 1304.89  16 
  -1   1  -8 136059. 1232.37   5 
   1   1  -8 138422. 1260.23  25 
   1  -1   8 147149. 2255.79   1 
   1   1   8 138732. 2503.82   1 
   1  -1  -8 136411. 1350.29  26 
  -1   1  -8 131482. 1239.64  25 
  -1   1   9 198702. 3119.58   1 
   1   1  -9 189035. 1556.88   6 
  -1   1  -9 185696. 1608.25  24 
   1  -1  -9 194999. 1658.65  24 
  -1  -1  -9 191004. 1584.37  24 
   1   1  -9 191293. 1627.48  25 
   1   1  -9 189350. 1627.31  24 
   1  -1  -9 193239. 1773.39  17 
  -1  -1  -9 169050. 1523.18  14 
  -1  -1  -9 193273. 1638.53   6 
  -1  -1  -9 190609. 1619.63  15 
  -1  -1  -9 188029. 1657.00  16 
   1   1  -9 191370. 1597.53  16 
   1  -1  -9 198413. 1613.27  21 
  -1  -1  -9 187329. 1781.96  17 
  -1   1  -9 175177. 1575.79  25 
  -1  -1  -9 178841. 1547.52  25 
  -1   1  -9 177871. 1681.64  17 
   1  -1  -9 191359. 1613.63   9 
   1   1  -9 195294. 1683.79  17 
   1   1  -9 193813. 1600.52  14 
   1  -1  -9 192894. 1646.15  25 
   1  -1  -9 199276. 1618.47  15 
   1  -1   9 191685. 2812.52   1 
   1  -1  -9 192626. 1687.13  16 
  -1   1  -9 190235. 1715.63  26 
   1  -1  -9 188069. 1586.11  14 
  -1  -1   9 196459. 2567.86   1 
   1   1  -9 185847. 1705.81  26 
  -1   1  -9 189474. 1604.63   6 
   1   1   9 179000. 3095.48   1 
  -1   1  -9 191406. 1615.88  14 
   1   1  -9 187151. 1820.60   5 
  -1  -1  -9 192666. 1612.72   9 
   1   1 -10 55237.9 772.890   6 
   1  -1 -10 49182.1 870.419  17 
   1   1  10 52138.8 1737.78   1 
  -1   1  10 53418.4 1667.89   1 
   1  -1 -10 56538.2 849.333  16 
   1  -1  10 53945.6 1545.22   1 
  -1  -1 -10 54091.5 794.018   9 
  -1  -1 -10 55039.9 785.167  24 
  -1   1 -10 53249.6 787.250  25 
  -1  -1 -10 52260.0 894.167  17 
  -1  -1 -10 56764.5 814.931  15 
   1   1 -10 54082.0 811.631  25 
  -1   1 -10 55520.5 816.673  16 
   1  -1 -10 54993.6 793.404  21 
  -1  -1 -10 56782.4 854.216  16 
  -1   1 -10 53455.9 791.712  24 
  -1  -1 -10 55636.6 826.874   6 
   1  -1 -10 61084.5 831.430  14 
   1   1 -10 53404.8 789.466  14 
   1   1 -10 54493.3 839.320  17 
  -1  -1 -10 54323.8 779.078  25 
   1   1 -10 56137.1 887.853  26 
  -1   1 -10 54376.3 798.177  14 
   1  -1 -10 52443.7 803.767  25 
   1  -1 -10 55884.8 793.622  15 
  -1   1 -10 53141.8 789.898   6 
   1  -1 -10 52951.5 809.521  24 
   1   1 -10 53529.0 809.729  24 
  -1  -1 -10 60413.5 812.234  14 
  -1   1 -10 54477.6 862.334  17 
  -1   1 -10 53378.2 868.495  26 
   1   1 -10 57839.4 815.861  16 
  -1   1 -11 5668.60 282.389  17 
  -1   1 -11 5398.23 256.944  14 
  -1   1 -11 5781.91 258.654   6 
  -1   1 -11 5706.55 289.136  26 
  -1   1 -11 6219.64 271.942  24 
   1   1 -11 5649.86 263.188  24 
  -1   1 -11 5742.86 264.604  16 
   1   1 -11 5927.63 254.517  21 
   1  -1  11 5114.13 516.178   1 
   1  -1 -11 5724.01 269.416  24 
   1   1 -11 5259.89 256.688  14 
   1   1 -11 5751.85 265.168  25 
   1  -1 -11 6132.60 304.225  17 
   1   1 -11 5932.17 281.456  17 
   1  -1 -11 5742.35 257.305  21 
  -1  -1 -11 5846.78 260.818  25 
   1   1 -11 5445.91 245.364   6 
   1   1 -11 5940.40 294.206  26 
  -1   1 -11 6256.60 271.470  25 
  -1  -1 -11 6366.77 273.291  24 
   1  -1 -11 6124.52 261.141  15 
  -1   1  11 5904.91 585.967   1 
   1   1  11 5283.08 592.738   1 
  -1  -1 -11 6143.57 264.146  15 
   1  -1  11 5573.89 258.003  12 
   1  -1 -11 5660.27 266.537  25 
  -1  -1 -11 5663.94 256.056   9 
  -1  -1 -11 5869.44 267.959   6 
   1  -1 -11 5925.47 264.393  14 
   1   1 -11 5867.33 259.896  16 
  -1  -1 -11 5991.71 280.388  16 
  -1  -1 -11 5067.09 238.691  14 
  -1  -1 -11 5708.42 300.534  17 
   1  -1 -11 5589.47 273.537  16 
   1   1 -12 684.008 101.996  25 
  -1  -1 -12 703.551 105.945  16 
   1  -1 -12 624.310 96.3914  24 
   1   1 -12 642.053 92.2523   6 
   1  -1 -12 539.679 91.3716  14 
   1  -1 -12 665.763 97.7940  25 
  -1  -1 -12 728.017 97.9118  15 
  -1  -1 -12 661.843 94.3146  14 
  -1  -1 -12 545.750 106.747  17 
  -1   1 -12 628.018 94.6726  16 
  -1   1 -12 735.016 115.805  17 
   1   1 -12 774.166 108.940  17 
  -1   1 -12 675.043 105.645  26 
   1   1 -12 791.334 99.1961  21 
  -1  -1 -12 579.810 91.3520  25 
  -1   1 -12 885.737 106.957   6 
   1  -1 -12 599.651 93.2194  15 
  -1  -1 -12 652.346 92.9788   9 
   1   1 -12 675.475 96.8504  16 
   1   1 -12 689.607 112.372  26 
  -1  -1 -12 541.604 89.2539  24 
  -1   1 -12 692.026 93.1493  14 
   1  -1 -12 696.612 110.111  16 
  -1   1 -12 654.036 95.4198  24 
   1   1  12 481.971 213.187   1 
  -1   1 -12 616.640 95.0228  25 
   1   1 -12 693.547 101.113  24 
   1  -1 -12 658.460 112.933  17 
   1  -1 -12 653.503 92.4403  21 
   1   1 -12 633.256 99.2259  14 
  -1  -1 -13 494.106 87.9139  14 
   1  -1 -13 225.942 70.4554  14 
  -1  -1 -13 133.406 74.8569  17 
   1  -1 -13 145.565 61.7637  25 
  -1  -1 -13 172.723 63.5139  21 
  -1  -1 -13 120.479 41.8385  25 
   1   1 -13 183.007 58.2523  16 
   1   1 -13 147.432 58.8646  25 
  -1   1 -13 110.702 40.3476  25 
  -1   1 -13 163.370 53.3942  16 
  -1   1 -13 106.318 45.5434  14 
   1   1 -13 137.461 54.2042  14 
   1  -1 -13 111.330 54.8498  17 
   1   1 -13 162.159 68.3461  17 
  -1   1 -13 149.932 52.4949   6 
  -1   1 -13 137.780 51.3144  24 
  -1   1 -13 180.541 76.0716  26 
   1   1 -13 93.1373 53.4606  24 
  -1  -1 -13 135.277 48.2249  24 
  -1  -1 -13 181.959 54.0944  16 
   1  -1 -13 136.069 55.7638  24 
   1   1 -13 180.516 56.4274  21 
   1  -1 -13 166.106 60.4634  21 
   1   1 -13 111.161 56.3163  26 
   1  -1 -13 130.848 47.7836  15 
  -1   1 -13 108.489 38.7037  17 
  -1  -1 -13 71.4648 50.3312  15 
   1  -1 -13 149.555 56.3415  16 
   1   1 -14 742.299 114.496  14 
   1  -1 -14 866.307 123.473  25 
   1  -1 -14 962.908 132.552  16 
  -1  -1 -14 869.162 116.627  24 
  -1   1 -14 915.771 117.300  25 
   1  -1 -14 875.825 109.192  15 
  -1  -1 -14 842.404 114.543  25 
  -1  -1 -14 782.234 113.817  16 
  -1   1 -14 859.662 127.235  17 
   1   1 -14 935.238 131.172  17 
  -1  -1 -14 899.828 117.971  21 
  -1  -1 -14 725.309 112.998  14 
  -1   1 -14 934.418 114.602  21 
  -1   1 -14 898.267 127.100  16 
   1  -1 -14 743.478 112.304  14 
   1   1 -14 820.703 118.744  16 
  -1  -1 -14 742.716 106.252  15 
   1   1 -14 804.393 119.593  24 
  -1   1 -14 905.130 122.476  24 
   1  -1 -14 924.597 121.165  21 
   1   1 -14 916.460 134.621  26 
  -1   1 -14 946.284 120.883  14 
   1   1 -14 798.003 119.532  25 
  -1   1 -14 812.715 115.006   6 
  -1   1 -14 966.252 147.428  26 
   1  -1 -14 825.114 123.893  24 
  -1  -1 -14 895.695 146.134  17 
   1   1 -14 918.755 110.285  21 
   1   1 -15 38.1315 33.0903  21 
  -1   1 -15 31.8024 45.9451  26 
   1   1 -15 61.4291 47.7904  25 
  -1   1 -15-23.8494 44.1382  16 
  -1   1 -15 36.7385 45.8995  17 
  -1  -1 -15 260.796 76.8596  17 
   1   1 -15 40.8849 58.3976  17 
   1   1 -15 68.6400 45.5116  16 
   1  -1 -15-10.9183 34.8972  15 
  -1   1 -15 30.5104 36.3532  25 
   1   1 -15 57.0110 39.4870  24 
   1  -1 -15 24.0679 36.6325  25 
   1  -1 -15-12.8756 39.3620  24 
   1  -1 -15 46.6528 42.4739  14 
  -1   1 -15-6.13277 41.6417  24 
  -1   1 -15 65.0569 48.7539  21 
   1  -1 -15 56.9483 49.8694  16 
  -1  -1 -15 29.1387 48.0555  21 
  -1  -1 -15 42.6974 44.2884  15 
  -1  -1 -15 76.4714 50.9198  14 
  -1  -1 -15-18.2104 37.2855  24 
   1   1 -15 95.4648 64.0051  26 
   1  -1 -15 7.55882 44.7309  21 
   1   1 -15 69.5451 43.2397  14 
  -1  -1 -15 54.6136 47.0391  16 
  -1   1 -15 24.2619 35.0787  14 
  -1  -1 -15 9.92539 41.5598  25 
   1  -1 -16 4114.32 249.620  21 
  -1  -1 -16 3596.36 222.208  15 
   1   1 -16 3804.94 245.114  14 
  -1  -1 -16 3862.90 237.805  25 
   1   1 -16 3970.83 247.175  16 
   1   1 -16 4009.97 239.814  21 
  -1   1 -16 3719.39 242.154  24 
  -1   1 -16 4068.26 260.406  16 
  -1  -1 -16 3729.61 233.030  24 
  -1   1  16 4226.21 295.612  10 
   1   1 -16 3951.09 256.118  24 
  -1   1 -16 3750.87 236.006  21 
  -1   1 -16 3982.74 278.459  17 
  -1  -1 -16 3788.95 245.853  14 
  -1  -1 -16 4005.30 270.554  16 
  -1   1 -16 3608.45 238.026  25 
   1   1 -16 4071.18 266.975  17 
  -1   1 -16 3806.32 243.513  14 
   1  -1 -16 3925.61 265.753  14 
   1   1 -16 3932.20 254.334  25 
   1   1  16 3852.04 286.050  10 
   1  -1 -16 3700.59 255.252  24 
   1  -1 -16 4165.47 277.562  16 
   1  -1 -16 3686.14 254.898  25 
  -1  -1 -16 4121.41 248.025  21 
  -1   1 -17 9936.13 382.181  14 
   1  -1 -17 9449.61 383.529  24 
  -1   1 -17 9842.97 390.166  16 
  -1   1  17 9648.97 422.730  10 
  -1  -1 -17 10001.5 374.572  21 
  -1   1 -17 9415.99 357.597  21 
   1  -1 -17 10165.8 421.779  16 
   1   1 -17 10367.9 408.133  17 
  -1  -1 -17 9345.02 401.884  16 
  -1   1 -17 9931.74 381.582  24 
  -1  -1 -17 9573.48 358.343  24 
   1  -1 -17 9414.22 382.553  25 
   1  -1 -17 9442.90 364.331  21 
   1   1 -17 9492.20 355.595  21 
  -1   1 -17 9657.75 414.230  17 
   1   1 -17 9652.87 373.916  16 
   1   1  17 9821.25 433.913  10 
   1   1 -17 9382.38 384.209  25 
  -1   1 -17 9997.45 381.003  25 
  -1  -1 -17 9883.28 377.888  14 
   1   1 -17 9361.03 386.162  24 
  -1  -1 -17 9032.78 348.775  25 
   1   1 -17 8644.01 365.165  14 
   1  -1 -18 3785.68 234.595  16 
  -1  -1 -18 3625.61 211.562  14 
   1   1 -18 3852.70 221.381  16 
  -1   1 -18 3463.59 207.034  25 
   1   1 -18 3650.54 222.684  24 
   1  -1 -18 3381.53 210.962  24 
   1   1 -18 3077.43 213.326  14 
   1   1 -18 3685.30 207.097  21 
  -1   1 -18 3657.53 210.738  24 
   1  -1 -18 3510.29 206.005  21 
  -1   1 -18 3884.76 242.747  17 
  -1   1 -18 3745.86 209.462  21 
   1  -1 -18 3552.46 218.116  25 
  -1   1 -18 3812.55 221.743  16 
   1   1  18 3815.48 248.794  10 
  -1   1 -18 3635.90 217.164  14 
  -1  -1 -18 3686.00 209.139  21 
   1   1 -18 3542.15 219.123  25 
  -1  -1 -18 3439.91 226.792  16 
  -1   1  18 3595.56 242.676  10 
   1  -1 -18 3523.91 194.034  22 
  -1   1 -19 22554.3 478.023  24 
  -1   1 -19 25547.7 499.405  21 
   1   1  19 24881.7 586.588  10 
   1  -1 -19 24475.6 504.443  21 
   1  -1 -19 21439.0 470.975  25 
   1   1 -19 23682.9 488.658  16 
  -1   1 -19 23616.6 487.818  25 
   1  -1 -19 25136.8 550.998  16 
   1   1 -19 25423.3 534.708  25 
  -1   1  19 24211.6 562.118  10 
  -1   1 -19 25293.9 526.571  16 
   1  -1  19 26526.1 603.636  10 
  -1   1 -19 25222.3 514.424  14 
   1   1 -19 25026.7 530.546  24 
   1   1 -19 25550.4 500.287  21 
  -1  -1 -19 26314.7 516.919  21 
  -1  -1 -19 25635.1 559.914  16 
   1  -1 -19 21989.8 477.179  24 
  -2  -1   0 76861.5 1022.01   4 
   2  -1   0 76477.5 823.753   5 
   2  -1   0 69218.1 923.364   1 
   2   1   0 69637.6 884.844   1 
  -2   1   0 69512.8 946.314   1 
  -2  -1   0 73413.7 856.547   1 
  -2  -1   1 79007.2 767.706   1 
  -2   1  -1 90635.5 864.711   2 
   2   1   1 73567.0 1032.51   1 
  -2  -1   1 78240.7 987.797   4 
   2  -1  -1 82456.9 1238.87   1 
   2   1  -1 81239.5 826.045   1 
   2  -1  -1 72615.1 977.054   1 
   2   1  -1 69983.2 917.811   2 
  -2  -1  -1 77539.0 1002.71   1 
   2  -1   1 70878.5 958.715   1 
   2   1   1 74160.4 1089.57   4 
  -2   1  -1 93718.5 874.061   3 
  -2   1  -1 72360.0 1004.38   1 
  -2  -1  -1 76114.4 1077.76   4 
   2   1  -1 73177.3 946.273   3 
   2  -1   1 85166.9 795.068   5 
  -2  -1   2 159606. 1312.99   5 
   2  -1   2 105891. 1189.74   2 
   2   1   2 192816. 1868.87   1 
   2  -1  -2 177119. 1569.80   1 
   2  -1  -2 156104. 1710.30   1 
  -2   1  -2 151719. 1343.92   3 
  -2  -1   2 151690. 1375.86   4 
  -2   1  -2 136755. 1078.85   5 
  -2   1  -2 137631. 1310.11   2 
  -2  -1   2 160788. 1000.03   1 
  -2  -1   2 94326.4 829.273   1 
  -2  -1  -2 171937. 1703.87   1 
  -2   1  -2 148280. 1529.91   1 
   2   1  -2 183468. 1590.18   3 
   2   1   2 161899. 1749.52   4 
   2  -1   2 173909. 1635.82   1 
  -2  -1  -2 144493. 1600.45   4 
   2   1  -2 183854. 1599.24   2 
   2  -1   2 140647. 1328.37   3 
  -2   1  -3 442346. 3443.96   5 
  -2  -1   3 532197. 3836.59   5 
  -2  -1   3 970426. 4844.78   3 
  -2  -1  -3 833416. 4849.89   4 
  -2   1  -3 999999. 4889.34   1 
   2  -1   3 560968. 4091.76   3 
   2   1   3 856286. 5181.51   1 
   2   1  -3 586965. 4336.82   2 
  -2  -1   3 626841. 3880.83   4 
  -2   1   3 801557. 5061.63   1 
   2  -1   3 558347. 4087.69   2 
   2   1  -3 579262. 4297.87   3 
  -2  -1   3 969494. 4802.84   2 
   2  -1  -3 903304. 5055.26   1 
   2   1   3 590891. 4659.78   4 
   2  -1   3 626118. 4424.19   1 
  -2  -1  -3 873996. 5040.74   1 
   2   1  -4 392910. 2807.55   1 
   2   1   4 523591. 4165.92   4 
  -2  -1   4 421161. 2871.87   1 
  -2   1  -4 733691. 4382.71   1 
   2  -1   4 495929. 3950.99   1 
   2  -1   4 866553. 4471.87   2 
   2   1  -4 511062. 3420.82   5 
  -2   1   4 548078. 4270.29   1 
  -2  -1   4 754535. 4438.65   3 
   2   1   4 690179. 4839.41   1 
  -2   1  -4 431235. 2927.33   5 
  -2  -1   4 585177. 3216.31   4 
  -2  -1   4 745367. 4405.29   2 
   2  -1   4 702209. 4097.60   4 
   2  -1  -4 794229. 4633.83   1 
   2  -1   4 908450. 4526.85   3 
  -2  -1  -4 892492. 4680.19   4 
  -2   1   5 52603.7 1117.89   1 
   2  -1   5 51999.7 1021.21   1 
  -2  -1   5 47788.2 391.799   4 
   2   1   5 51655.9 1076.03   4 
  -2  -1   5 52841.6 595.258   1 
   2   1   5 51747.4 1196.92   1 
   2  -1  -5 45988.3 993.132   1 
   2   1  -5 54664.6 750.831   5 
   2  -1   5 54608.9 927.349   4 
   2  -1   6 12171.8 483.004   4 
   2   1  -6 12755.5 387.464   5 
   2   1   6 12560.9 641.413   1 
   2  -1   6 12424.5 559.803   1 
   2   1  -6 11971.7 309.335   1 
   2  -1  -6 12163.4 359.973   4 
  -2   1   6 12447.0 591.660   1 
  -2  -1   6 12381.1 367.191   1 
   2   1   7 15981.0 786.152   1 
   2   1  -7 16361.8 478.957   5 
   2  -1   7 16444.0 707.182   1 
  -2   1   7 16529.2 733.248   1 
   2   1  -7 14825.8 396.443   1 
   2  -1   7 15757.5 572.924   4 
  -2  -1   7 14971.0 458.220   1 
  -2   1  -8 465.083 68.5833  17 
   2   1  -8 405.857 62.7062  26 
   2   1  -8 313.042 51.8977  14 
  -2   1  -8 463.054 68.1357  26 
  -2   1  -8 388.019 57.2094  25 
   2   1  -8 425.379 61.1707  25 
   2  -1  -8 400.811 62.8234  16 
   2  -1   8 636.754 122.655   4 
   2   1  -8 405.246 88.0933   5 
   2  -1  -8 619.882 69.6579  14 
  -2   1   8 394.177 130.484   1 
   2   1   8 317.701 137.325   1 
   2   1  -8 375.840 55.9644  24 
  -2  -1   8 388.169 85.1959   1 
   2  -1  -8 395.667 62.7749  24 
   2  -1   8 379.635 111.459   1 
  -2  -1  -8 484.335 70.4978  17 
  -2  -1  -8 406.710 58.2029   9 
  -2   1  -8 350.074 53.8756  24 
   2  -1  -8 431.466 61.0146  21 
   2  -1  -8 363.121 59.4849  25 
   2  -1  -8 452.987 69.5944  26 
  -2   1  -8 382.336 57.2026   6 
  -2   1  -8 344.784 53.2190  14 
  -2  -1  -8 325.340 53.3502  16 
  -2   1  -9 2157.08 142.709  14 
   2   1  -9 2000.92 140.285  25 
  -2  -1  -9 2144.89 133.173  25 
   2   1   9 2474.52 360.367   1 
   2   1  -9 2193.64 138.184  21 
   2  -1  -9 2385.81 148.698  15 
  -2  -1  -9 2291.12 150.700  16 
  -2  -1  -9 1885.94 127.511  14 
   2   1  -9 2072.71 129.412   6 
   2   1  -9 2160.45 139.812  14 
  -2   1  -9 2346.12 161.508  17 
   2  -1  -9 1976.43 145.608  25 
   2   1  -9 2093.88 144.221  17 
   2   1  -9 2039.70 194.040   5 
  -2  -1  -9 2040.21 159.119  17 
   2  -1  -9 2302.64 166.917  17 
   2  -1   9 2456.45 261.431   4 
  -2   1  -9 2379.59 147.763  24 
   2  -1  -9 2054.41 147.152  24 
   2   1  -9 2175.77 138.589  16 
   2   1  -9 2052.04 141.525  24 
   2  -1   9 2245.06 306.323   1 
   2  -1  -9 2089.63 137.785  14 
  -2  -1  -9 2229.95 144.485   9 
  -2  -1  -9 2276.71 149.888   6 
   2  -1  -9 2222.18 151.110  16 
   2   1  -9 2066.05 155.785  26 
  -2   1   9 2264.14 313.293   1 
   2  -1  -9 2363.53 146.333  21 
  -2   1  -9 2717.33 173.382  26 
  -2   1  -9 2078.39 143.629   6 
  -2  -1  -9 2126.61 132.600  24 
  -2   1  -9 2013.93 136.571  25 
  -2  -1 -10 100.413 40.3641  25 
  -2   1 -10 135.385 45.2391  14 
  -2  -1 -10 67.1633 42.9428  16 
   2  -1 -10 240.102 54.2002  15 
   2  -1  10 95.7806 37.5534  12 
  -2  -1 -10 90.6376 44.6543   6 
   2  -1 -10 105.630 41.9307  14 
  -2  -1 -10 221.279 64.9710  17 
  -2   1 -10 143.460 41.0976   6 
   2   1 -10 147.592 48.1954  24 
  -2  -1 -10 97.7015 36.9845  24 
  -2  -1 -10 119.302 40.9711  14 
   2   1 -10 100.330 38.2976  17 
  -2   1 -10 126.632 40.8744  26 
   2  -1 -10 119.503 40.5397  21 
  -2   1  10 201.665 127.113   1 
   2   1 -10 134.843 37.0264  21 
   2   1 -10 141.563 40.3436  25 
  -2   1 -10 173.183 54.3901  17 
   2  -1  10 97.6146 115.481   1 
   2  -1 -10 159.429 46.1347  25 
  -2   1 -10 322.043 59.2329  25 
   2  -1 -10 121.419 43.7547  16 
   2   1  10 182.886 141.154   1 
   2   1 -10 281.154 58.4431  16 
  -2  -1 -10 99.4705 39.9727   9 
   2  -1 -10 112.098 55.8989  17 
   2   1 -10 143.088 49.5954  26 
  -2   1 -10 358.726 63.4540  24 
   2   1 -10 84.8086 38.9389  14 
   2  -1 -10 78.6904 39.1749  24 
   2  -1 -11 407.157 75.5495  24 
   2  -1  11 504.332 190.535   1 
   2   1 -11 362.252 74.1647  14 
   2  -1 -11 422.653 73.7545  21 
   2   1 -11 428.409 74.6324  17 
  -2   1 -11 566.113 88.7349  16 
   2  -1 -11 460.558 81.7708  25 
  -2  -1 -11 306.432 78.8869  17 
   2  -1 -11 424.378 139.167   5 
  -2  -1 -11 413.398 71.5362   9 
   2  -1 -11 387.592 74.9659  17 
  -2   1 -11 429.332 86.4479  17 
  -2  -1 -11 575.278 87.6026   6 
  -2   1 -11 477.627 77.3080   6 
   2   1 -11 434.077 82.8635  26 
   2   1 -11 380.199 68.1389  16 
   2   1 -11 380.786 74.6062  24 
  -2  -1 -11 469.967 76.8109  15 
  -2  -1 -11 379.703 64.2072  25 
  -2  -1 -11 424.620 69.8260  24 
   2  -1  11 501.497 83.5607  12 
   2  -1 -11 432.125 81.8198  16 
  -2   1 -11 439.565 83.2646  26 
  -2   1 -11 424.062 71.2408  14 
   2   1  11 470.122 196.339   1 
  -2  -1 -11 443.735 70.2350  14 
   2   1 -11 376.589 75.2071  25 
  -2   1 -11 538.139 77.6871  24 
  -2  -1 -11 488.975 81.9428  16 
   2  -1 -11 374.102 73.2198  14 
   2   1 -11 448.600 68.5274  21 
  -2   1 -11 439.392 73.1316  25 
   2  -1 -11 448.631 74.9609  15 
  -2  -1 -12 270.149 75.0072   6 
  -2   1 -12 292.008 76.2108  26 
   2  -1  12 262.857 63.4204  12 
   2   1 -12 253.233 57.7379  21 
   2   1 -12 300.514 68.6571  24 
   2  -1 -12 273.216 71.3305  16 
   2   1 -12 200.951 56.4946  14 
   2   1 -12 289.315 72.7081  25 
  -2   1 -12 257.068 63.3317   6 
   2   1 -12 337.806 84.4198  26 
   2   1 -12 341.748 73.1156  16 
   2  -1 -12 269.794 66.3339  21 
   2   1 -12 312.739 74.1797  17 
   2  -1 -12 197.543 59.9846  25 
   2  -1 -12 290.800 67.9722  15 
   2  -1 -12 360.131 78.9053  17 
  -2   1 -12 195.992 56.8944  24 
  -2  -1 -12 206.394 54.9661  25 
  -2  -1 -12 312.281 66.4524  15 
  -2   1 -12 260.820 63.1187  16 
  -2  -1 -12 278.262 64.0654   9 
   2  -1 -12 248.633 67.4096  24 
  -2  -1 -12 310.996 70.0199  14 
  -2   1 -12 301.624 73.3151  17 
  -2  -1 -12 274.148 64.7783  16 
  -2  -1 -12 286.999 82.2475  17 
  -2  -1 -12 218.578 58.5239  24 
   2  -1 -12 192.819 62.8429  14 
  -2   1 -12 217.127 57.4335  25 
  -2   1 -12 302.397 63.9124  14 
  -2   1 -13 12210.0 469.013  26 
   2  -1 -13 12109.8 443.239  25 
   2  -1  13 12677.1 423.948  12 
   2  -1 -13 13241.1 438.075  21 
   2  -1 -13 12420.3 397.932  15 
  -2   1 -13 11956.4 467.911  17 
  -2   1 -13 11245.1 405.077  25 
  -2  -1 -13 12342.2 456.586  16 
   2   1 -13 12148.5 443.276  24 
  -2  -1 -13 11483.9 395.270  24 
  -2  -1 -13 11980.9 409.347  15 
   2   1 -13 12925.0 434.438  16 
  -2   1 -13 11324.1 405.524  24 
   2  -1 -13 11592.0 429.032  14 
  -2   1 -13 11731.6 420.434   6 
   2   1 -13 12598.8 475.422  26 
  -2  -1 -13 10870.6 398.514  14 
   2   1 -13 11767.4 414.241  14 
  -2  -1 -13 12363.5 506.048  17 
   2   1 -13 13025.1 456.512  17 
   2   1 -13 12242.5 445.394  25 
  -2  -1 -13 11774.3 402.116   9 
   2  -1 -13 12279.1 447.096  24 
   2   1 -13 12800.4 417.794  21 
   2  -1 -13 12310.1 450.731  16 
  -2   1 -13 12050.1 424.476  14 
  -2   1 -13 13332.0 454.488  16 
  -2  -1 -13 12244.6 407.967  25 
   2   1 -14 1186.86 148.512  26 
  -2   1 -14 1320.05 162.337  17 
  -2   1 -14 1295.02 144.154  24 
   2   1 -14 1467.84 156.647  25 
  -2   1 -14 1281.65 140.689  25 
   2   1 -14 1230.47 139.297  14 
  -2   1 -14 1418.75 168.009  26 
  -2   1 -14 1304.35 146.763  16 
   2  -1 -14 1142.37 145.328  14 
  -2  -1 -14 1240.97 163.745  17 
   2   1 -14 1543.37 165.782  24 
   2   1 -14 1274.78 137.551  21 
  -2   1 -14 1280.62 138.401  14 
   2  -1 -14 1237.37 154.472  24 
  -2  -1 -14 1140.66 133.735  15 
  -2  -1 -14 1273.94 146.146  14 
   2  -1 -14 1306.94 133.374  15 
   2  -1 -14 1266.63 139.357  21 
   2  -1 -14 1171.40 148.294  25 
  -2  -1 -14 1300.93 135.323  25 
  -2   1 -14 1329.82 144.611   6 
   2   1 -14 1250.69 143.179  17 
  -2  -1 -14 1446.55 156.773  16 
  -2  -1 -14 1296.33 141.723  21 
  -2  -1 -14 1169.66 129.059  24 
   2  -1 -14 1320.03 154.156  16 
   2   1 -14 1286.35 138.436  16 
   2   1 -15 7619.89 364.732  25 
  -2  -1 -15 7621.77 330.989  24 
  -2  -1 -15 7513.38 340.918  14 
  -2   1 -15 7155.66 339.794   6 
  -2  -1 -15 7642.23 372.680  16 
  -2  -1 -15 7495.82 401.450  17 
  -2  -1 -15 6536.39 312.566  15 
   2   1  15 8239.13 423.698  10 
  -2  -1 -15 7300.26 324.860  25 
  -2   1 -15 7953.68 354.209  25 
   2   1 -15 7676.30 363.922  17 
   2  -1 -15 6266.54 341.383  14 
   2  -1 -15 7404.90 367.423  25 
  -2   1 -15 8136.53 406.059  17 
   2  -1 -15 8125.70 356.181  21 
   2   1 -15 7399.17 350.333  14 
   2   1 -15 7538.56 366.336  24 
  -2   1 -15 8073.99 371.731  16 
  -2  -1 -15 7433.36 337.701  21 
  -2   1 -15 7814.03 351.294  24 
   2  -1 -15 7874.33 378.193  24 
   2   1 -15 7722.27 341.311  16 
   2   1 -15 8008.43 399.236  26 
  -2   1 -15 7426.05 345.383  14 
   2   1 -15 8145.84 342.362  21 
  -2   1 -15 8144.21 350.064  21 
   2  -1 -15 7777.33 374.944  16 
   2   1  16 224.255 86.7969  10 
   2  -1 -16 157.371 64.2053  25 
  -2   1 -16 246.755 65.3387  14 
  -2  -1 -16 191.642 58.4542  24 
  -2   1 -16 237.275 65.5468  25 
  -2   1 -16 168.678 60.1549  24 
  -2   1  16 232.336 79.6136  10 
   2  -1 -16 178.414 62.8634  21 
   2   1 -16 191.630 56.1078  21 
   2  -1 -16 198.915 71.6783  24 
   2  -1 -16 210.551 75.3908  16 
  -2  -1 -16 217.284 69.7702  21 
  -2   1 -16 260.245 75.5501  16 
   2   1 -16 150.237 64.7245  14 
  -2  -1 -16 213.295 61.0177  14 
  -2   1 -16 237.623 79.0747  17 
   2   1 -16 207.359 60.4881  25 
  -2   1 -16 229.257 58.8431  21 
  -2  -1 -16 190.981 65.5535  15 
   2   1 -16 247.234 67.3272  16 
   2   1 -16 308.958 78.9515  24 
  -2  -1 -16 217.147 62.0284  25 
   2   1 -16 226.124 72.9027  17 
  -2  -1 -16 310.505 74.4899  16 
   2   1 -17 6935.21 330.614  25 
   2   1 -17 6055.07 311.878  14 
   2  -1 -17 6793.73 338.108  16 
  -2   1 -17 7229.21 310.654  21 
  -2   1  17 6812.56 347.641  10 
   2   1 -17 6928.34 331.899  24 
  -2  -1 -17 6419.62 276.078  15 
  -2   1 -17 7170.32 358.803  17 
   2   1  17 7235.00 371.090  10 
   2  -1 -17 6481.10 320.876  24 
  -2  -1 -17 6591.31 300.486  21 
  -2  -1 -17 7034.69 308.244  14 
  -2   1 -17 6956.95 332.026  16 
  -2  -1 -17 6714.62 336.340  16 
   2   1 -17 6880.37 306.998  16 
  -2   1 -17 7168.16 308.510  25 
  -2   1 -17 6641.93 310.997  14 
   2   1 -17 6964.99 301.843  21 
   2  -1 -17 6921.85 332.477  25 
  -2   1 -17 7319.11 312.392  24 
   2  -1 -17 7018.33 294.624  22 
   2  -1 -17 6943.60 308.668  21 
   2   1 -18 34920.9 703.300  24 
   2  -1 -18 34282.2 693.666  24 
   2  -1 -18 37050.0 687.417  21 
  -2   1 -18 35937.9 686.384  14 
   2  -1 -18 35229.7 718.113  16 
  -2   1  18 32557.3 716.401  10 
  -2  -1 -18 34690.9 725.577  16 
   2   1  18 34385.2 762.322  10 
   2   1 -18 35450.6 653.511  21 
  -2   1 -18 34652.2 751.185  17 
   2   1 -18 35088.7 705.605  25 
  -2   1 -18 34713.3 649.537  21 
   2   1 -18 32679.6 637.469  16 
  -2   1 -18 34793.2 698.417  16 
  -2  -1 -18 34787.3 654.216  14 
  -2   1 -18 33223.9 635.577  25 
  -2   1 -18 33090.6 635.965  24 
   2  -1 -18 32925.3 679.858  25 
  -2  -1 -18 36129.9 671.009  21 
  -2  -1 -19 25428.4 547.979  16 
   2  -1  19 24845.8 570.019  10 
  -2   1 -19 24384.4 514.833  16 
   2   1 -19 24116.0 474.426  21 
   2  -1 -19 21989.2 491.318  24 
   2  -1 -19 24902.3 506.282  21 
  -2   1  19 22534.7 517.202  10 
  -2   1 -19 23311.5 485.295  14 
  -2  -1  19 22405.0 538.013  10 
  -2   1 -19 19275.7 416.818  25 
   2   1 -19 24137.2 521.493  25 
  -2   1 -19 23112.1 468.882  21 
   2  -1 -19 21804.2 488.702  25 
  -2   1 -19 19678.9 420.519  24 
   2  -1 -19 23920.3 522.509  16 
   2   1 -19 24402.8 523.814  24 
  -2  -1 -19 24854.1 489.711  21 
   2   1  19 24414.0 572.593  10 
  -3  -1   0 27.3413 27.4646   1 
  -3   1   0 16.9720 14.4329   2 
   3  -1   0 40.4993 29.0992   5 
  -3   1   0 21.9079 12.7653   3 
   3   1   0-12.5239 38.6496   4 
   3   1   0-8.36093 25.8794   1 
  -3  -1   1 105404. 923.111   1 
  -3  -1  -1 94213.3 1297.50   4 
  -3  -1   1 97699.1 1192.24   5 
   3   1   1 93660.2 1251.10   1 
   3  -1  -1 91987.8 1183.24   1 
  -3  -1  -1 92407.5 1187.04   1 
   3  -1   1 88075.3 1216.89   1 
   3   1  -1 90508.6 1088.90   2 
   3  -1   1 90492.8 1051.20   5 
  -3   1  -1 93848.9 1281.04   1 
  -3  -1   1 101027. 1209.72   4 
  -3   1  -1 95957.8 878.169   3 
  -3   1   1 90372.9 1199.08   1 
   3   1  -1 106895. 1013.87   1 
   3  -1  -1 94548.0 1143.32   5 
   3   1  -1 94139.2 1116.72   3 
  -3   1  -1 103889. 911.071   2 
   3   1   1 93844.8 1383.48   4 
  -3  -1  -2 20213.5 587.902   4 
   3  -1   2 22150.7 607.707   1 
   3   1  -2 18488.3 485.964   2 
   3   1  -2 18723.8 485.697   3 
   3  -1   2 20633.1 426.656   2 
  -3  -1   2 21737.8 505.501   5 
   3   1   2 24425.9 699.783   4 
   3  -1  -2 22416.2 555.665   1 
   3  -1  -2 20999.2 636.695   1 
  -3  -1   2 22001.6 497.302   4 
   3  -1   2 20252.8 427.793   3 
  -3   1  -2 21846.6 447.754   5 
   3  -1  -2 22145.8 559.243   5 
   3   1   2 20003.9 600.671   1 
  -3  -1  -2 20045.2 573.859   1 
  -3   1  -2 20586.0 582.069   1 
  -3   1  -3 98786.5 1027.08   5 
   3   1   3 94707.9 1500.08   1 
   3  -1  -3 102157. 1282.97   1 
   3  -1   3 86104.1 1127.54   3 
  -3  -1   3 99241.7 1191.62   5 
  -3  -1   3 92485.1 1276.23   3 
   3   1  -3 108638. 1355.33   3 
   3  -1  -3 100036. 1354.11   5 
   3   1  -3 111386. 1381.57   2 
   3  -1   3 106996. 1489.64   1 
   3  -1   3 107886. 1231.63   2 
   3   1   3 105437. 1589.48   4 
   3  -1  -3 93525.1 1427.30   1 
  -3  -1   3 92159.5 1272.48   2 
  -3  -1   3 103301. 1075.43   4 
   3  -1   3 107772. 1417.11   4 
   3  -1   4 370466. 3227.67   4 
   3  -1   4 406108. 3517.90   1 
   3  -1   4 414441. 3153.69   3 
   3  -1  -4 384774. 3425.83   1 
  -3  -1   4 411640. 2519.79   4 
   3  -1  -4 428373. 3179.21   1 
   3   1   4 412299. 3764.53   1 
   3   1  -4 351531. 2928.68   5 
  -3   1  -4 360914. 2570.47   5 
   3  -1   4 389713. 3105.27   2 
   3   1   4 426969. 3761.49   4 
   3  -1   5 20657.3 711.776   1 
   3   1  -5 22186.1 577.651   5 
  -3   1  -5 22163.0 451.751   5 
   3  -1  -5 19117.8 672.851   1 
   3   1   5 19884.3 791.669   1 
   3   1   5 21235.9 761.887   4 
   3  -1   5 21612.1 660.209   4 
   3  -1   6 73693.6 1505.02   1 
  -3   1   6 84493.6 1640.70   1 
  -3   1  -6 72189.7 906.169   5 
   3   1   6 75524.8 1669.40   1 
   3   1   6 74379.9 1548.01   4 
   3  -1  -6 66578.6 896.307   4 
   3   1  -6 77178.5 1165.17   5 
   3  -1   6 77768.7 1382.47   4 
   3   1   7 92567.5 2009.31   1 
  -3   1   7 98930.0 1852.76   1 
   3   1   7 93997.9 1820.74   4 
   3  -1  -7 92740.2 956.490  24 
   3  -1   7 103236. 1913.22   1 
   3   1  -7 91085.8 1335.34   5 
   3  -1  -7 94610.8 961.549  25 
   3  -1   7 89280.8 1551.85   4 
   3  -1   8 38622.3 1075.04   4 
  -3  -1  -8 41739.1 634.530   9 
   3  -1  -8 39208.3 642.678  24 
  -3   1  -8 36822.6 609.181   6 
  -3   1  -8 40584.4 657.938  26 
   3  -1   8 38157.7 1244.71   1 
  -3  -1  -8 39018.6 620.461  16 
   3   1  -8 37550.3 890.703   5 
  -3   1  -8 37852.0 655.606  17 
   3  -1  -8 38979.1 640.306  25 
   3   1  -8 38998.0 617.650  24 
   3  -1   8 38487.8 649.766  12 
   3  -1  -8 39568.4 616.021  14 
   3  -1  -8 39635.4 1099.66   5 
  -3   1   8 41523.6 1276.68   1 
   3   1   8 35028.3 750.774  23 
   3  -1   8 44771.8 722.150   7 
   3  -1  -8 37236.6 582.953  15 
   3   1  -8 39559.9 620.328  25 
   3   1  -8 37643.3 572.334  21 
   3   1  -8 38233.4 649.981  26 
   3   1  -8 37466.2 584.714  14 
  -3  -1  -8 36748.4 576.660  14 
  -3   1  -8 40287.7 611.793  25 
   3   1   8 41232.1 1439.30   1 
   3  -1  -8 36694.4 589.974  21 
  -3   1  -8 33973.8 569.011  24 
   3  -1  -8 38738.6 631.643  16 
  -3   1  -8 37990.2 611.204  14 
  -3  -1  -8 39598.0 693.147  17 
  -3  -1  -8 42709.1 641.906   6 
   3   1  -9 13073.8 394.258  26 
  -3  -1  -9 11802.7 350.453   6 
  -3   1  -9 13236.7 354.118  24 
   3  -1  -9 13250.7 387.311  25 
   3  -1   9 13686.5 796.420   1 
  -3   1  -9 14486.3 420.485  17 
   3   1  -9 13245.4 348.591  21 
   3   1  -9 12119.0 531.839   5 
   3  -1   9 13308.7 393.744   7 
   3  -1  -9 13227.9 387.316  24 
  -3  -1  -9 13043.8 411.939  17 
  -3   1  -9 13069.0 369.810  14 
  -3  -1  -9 13548.9 357.077  14 
   3  -1  -9 13746.8 361.420  15 
   3   1  -9 13434.0 348.839  16 
   3   1  -9 12877.4 366.729  24 
  -3   1  -9 12769.8 350.874  25 
  -3   1   9 13581.1 777.665   1 
   3  -1   9 13221.5 389.272  12 
  -3   1  -9 12935.8 367.118   6 
   3   1  -9 13014.3 368.050  25 
  -3  -1  -9 13152.9 363.663   9 
  -3  -1  -9 12763.3 367.516  16 
   3  -1  -9 13470.1 384.221  16 
   3   1   9 13011.7 471.773  23 
   3   1   9 13690.1 885.492   1 
   3  -1   9 13029.8 667.450   4 
   3  -1  -9 13603.6 370.175  14 
   3  -1  -9 13169.6 676.416   5 
  -3   1  -9 14315.7 405.960  26 
   3  -1  -9 12834.3 357.826  21 
   3   1  -9 12815.1 360.165  14 
  -3   1 -10 7414.00 295.494  14 
   3   1 -10 8907.14 301.867  16 
   3   1  10 7588.94 373.732  23 
  -3  -1 -10 7678.26 336.514  17 
  -3   1 -10 8431.59 310.156   6 
  -3   1 -10 7973.99 323.734  26 
   3  -1 -10 8063.69 321.500  24 
   3  -1 -10 8255.30 294.346  15 
   3   1 -10 8212.49 301.793  17 
   3  -1  10 8317.38 661.818   1 
   3  -1 -10 7734.77 314.925  25 
  -3   1 -10 7740.75 322.707  17 
   3  -1  10 7527.29 305.010   7 
  -3  -1 -10 7433.97 287.346   9 
   3   1 -10 8136.89 309.696  25 
  -3  -1 -10 8901.88 305.094  14 
   3  -1  10 7648.90 310.376  12 
  -3  -1 -10 7582.28 299.166  16 
   3  -1 -10 7662.63 292.530  21 
  -3   1 -10 7518.53 281.843  25 
   3   1 -10 8341.56 334.782  26 
   3  -1 -10 8138.63 315.977  16 
   3  -1 -10 8721.12 316.809  14 
  -3   1 -10 7548.51 283.392  24 
   3  -1 -10 8839.55 588.227   5 
   3   1  10 7911.47 712.811   1 
  -3  -1 -10 8257.96 307.539   6 
   3   1 -10 7942.92 306.458  24 
   3   1 -10 7255.38 290.819  14 
   3   1 -10 8418.12 293.856  21 
   3  -1  11 1150.64 128.413  12 
   3   1 -11 1267.31 118.593  16 
   3  -1 -11 1194.10 123.042  21 
   3   1 -11 1302.94 130.719  25 
  -3  -1 -11 1234.50 129.165  16 
   3  -1 -11 1150.95 128.449  24 
   3  -1 -11 940.065 119.143  14 
   3   1  11 928.506 273.558   1 
  -3  -1 -11 1061.33 132.906  17 
   3   1 -11 1286.25 129.539  24 
  -3  -1 -11 1257.37 121.201  14 
  -3   1 -11 1234.16 136.892  17 
   3  -1 -11 1223.50 235.057   5 
   3  -1  11 1121.28 269.342   1 
  -3   1 -11 1174.47 121.572  14 
  -3  -1 -11 1154.61 119.832   9 
  -3  -1 -11 1081.00 122.134   6 
   3   1 -11 1264.01 140.496  26 
  -3   1 -11 1096.29 118.782   6 
   3  -1 -11 1137.75 128.729  25 
  -3   1 -11 1149.36 118.314  25 
  -3   1 -11 1275.42 127.827  16 
   3   1 -11 1210.60 125.515  17 
   3  -1 -11 1147.93 128.705  16 
   3   1 -11 984.883 120.985  14 
  -3   1 -11 1200.70 127.294  26 
   3  -1 -11 1123.65 117.321  15 
   3   1 -11 1237.30 120.035  21 
  -3   1 -11 1153.79 118.626  24 
   3  -1  12 3273.13 216.114  12 
   3  -1 -12 3585.66 236.898  25 
   3   1 -12 3268.11 201.702  16 
  -3   1 -12 3069.11 200.801  24 
   3   1 -12 3145.98 208.940  14 
   3   1 -12 3240.36 199.552  21 
   3  -1 -12 3696.05 240.845  24 
  -3  -1 -12 3421.50 214.344  15 
  -3   1 -12 3306.60 231.582  26 
   3  -1 -12 3133.21 219.144  16 
  -3  -1 -12 3018.30 213.005  16 
   3   1 -12 3416.62 216.326  17 
  -3  -1 -12 3290.56 247.165  17 
   3  -1 -12 3228.67 212.148  21 
   3   1 -12 3375.58 221.514  25 
   3   1 -12 3328.77 219.388  24 
   3  -1 -12 3346.53 203.848  15 
  -3   1 -12 3250.12 204.203  25 
   3   1 -12 3262.85 235.092  26 
  -3   1 -12 3476.72 224.919  16 
  -3   1 -12 3139.48 232.381  17 
  -3   1 -12 3058.28 206.201  14 
  -3  -1 -12 3223.92 217.422   6 
  -3   1 -12 3081.71 209.306   6 
   3  -1 -12 2678.03 213.697  14 
  -3  -1 -12 3216.57 205.003   9 
  -3  -1 -12 3463.81 211.399  14 
  -3   1 -13 15966.9 494.706  14 
  -3   1 -13 16032.4 478.186  24 
   3  -1 -13 14021.5 500.844  14 
  -3   1 -13 16350.0 557.552  17 
  -3  -1 -13 16602.4 531.992  16 
  -3   1 -13 18434.3 544.087  16 
  -3   1 -13 16312.5 480.425  25 
   3   1 -13 16613.0 483.568  21 
   3  -1 -13 15938.8 527.173  24 
   3  -1 -13 15582.3 487.388  21 
   3  -1 -13 16404.8 534.751  25 
   3  -1 -13 17283.1 474.486  15 
   3   1 -13 17289.4 494.145  16 
  -3   1 -13 16389.5 543.694  26 
   3   1 -13 16999.8 529.422  24 
  -3  -1 -13 17568.8 599.130  17 
   3   1 -13 18294.8 534.306  17 
   3   1 -13 16353.8 500.563  14 
   3  -1  13 16746.9 506.311  12 
  -3  -1 -13 17509.6 502.562  14 
  -3  -1 -13 16598.4 529.050   6 
  -3  -1 -13 16818.1 500.735  15 
  -3  -1 -13 16445.3 477.777   9 
   3   1 -13 16873.0 556.437  26 
   3   1 -13 16776.7 524.149  25 
  -3   1 -13 16776.7 508.846   6 
   3  -1 -13 16502.2 527.896  16 
   3   1 -14 5639.24 313.102  24 
   3   1 -14 6058.30 296.616  16 
  -3   1 -14 6185.50 338.950  26 
   3   1  14 6148.08 360.019  10 
   3  -1 -14 6211.71 333.941  25 
   3   1 -14 5902.38 314.682  14 
  -3  -1 -14 6291.20 369.309  17 
   3  -1 -14 6126.07 281.230  15 
  -3   1 -14 5775.16 292.387  25 
   3   1 -14 5854.65 291.090  21 
   3  -1  14 6357.67 306.337  12 
   3   1 -14 5638.81 310.116  25 
   3  -1 -14 5928.74 306.334  21 
  -3   1 -14 5838.26 304.107  14 
  -3   1 -14 6668.48 361.436  17 
   3  -1 -14 5355.38 318.740  14 
   3  -1 -14 5943.23 328.965  24 
  -3  -1 -14 6339.66 334.019  16 
  -3   1 -14 5595.03 287.288  24 
   3  -1 -14 6078.64 329.182  16 
   3   1 -14 6342.78 345.562  26 
  -3  -1 -14 6608.89 318.351  14 
  -3  -1 -14 5557.26 290.718  15 
  -3   1 -14 6160.57 316.636   6 
  -3  -1 -14 5896.87 283.624   9 
   3   1 -14 6624.11 321.071  17 
  -3   1 -14 6128.05 321.342  16 
  -3   1 -15 34709.5 853.773  17 
  -3   1 -15 32154.3 736.840   6 
  -3   1 -15 33886.1 718.073  25 
   3   1 -15 32009.5 770.770  24 
  -3  -1 -15 35878.4 756.341  21 
   3   1 -15 31395.0 736.981  14 
   3  -1 -15 32829.9 779.314  16 
   3   1 -15 32927.7 708.976  21 
   3   1 -15 32880.0 779.013  25 
  -3  -1 -15 33981.3 880.850  17 
   3  -1 -15 31254.8 724.394  21 
   3   1 -15 33108.7 712.550  16 
  -3  -1 -15 33618.9 722.519  15 
  -3   1 -15 33523.2 742.074  14 
   3   1  15 35028.0 879.459  10 
  -3   1 -15 34626.9 726.528  24 
   3  -1 -15 33041.7 793.445  24 
  -3  -1 -15 35438.6 745.042  14 
   3  -1 -15 33255.8 796.313  25 
  -3  -1 -15 34888.7 803.192  16 
   3   1 -15 33103.6 813.003  26 
  -3   1 -15 34024.4 783.699  16 
  -3  -1 -16 13580.7 434.011  15 
   3  -1 -16 13050.6 478.859  25 
   3  -1 -16 13938.6 465.981  21 
   3  -1 -16 13061.8 478.685  24 
   3  -1 -16 13340.0 481.080  16 
  -3   1 -16 12933.5 425.911  24 
  -3   1  16 14112.8 515.207  10 
   3   1 -16 12948.4 473.744  24 
   3   1  16 13819.5 529.039  10 
  -3  -1 -16 12966.3 431.421  14 
   3   1 -16 13818.1 437.675  21 
   3   1 -16 13611.5 482.687  25 
  -3  -1 -16 13283.2 443.160  21 
  -3  -1 -16 13187.8 479.829  16 
   3  -1 -16 13130.8 420.568  22 
  -3   1 -16 14159.5 530.492  17 
  -3   1 -16 13581.4 433.651  25 
   3   1 -16 13547.7 438.186  16 
  -3   1 -16 13866.6 457.884  14 
  -3   1 -16 13636.6 482.542  16 
  -3   1 -16 12885.9 437.055  21 
  -3   1 -17 63.7946 43.5573  25 
   3   1  17 49.6012 52.4351  10 
  -3  -1 -17 66.0766 37.0477  14 
  -3  -1 -17 66.1033 48.3196  16 
  -3  -1 -17 27.0656 37.8313  15 
   3   1 -17 22.6754 35.0457  25 
   3  -1 -17 61.5432 48.9116  25 
  -3   1  17 37.9000 51.1256  10 
  -3   1 -17 33.4698 49.8513  17 
   3  -1 -17 14.6582 34.3187  22 
   3   1 -17 49.4669 44.2942  24 
  -3   1 -17 33.0774 42.0659  16 
  -3  -1 -17 1.90634 32.5698  21 
  -3   1 -17-14.5423 38.1491  21 
  -3   1 -17-14.0219 32.0013  24 
   3  -1 -17-2.18274 41.5368  16 
   3   1 -17 131.161 57.4240  16 
  -3   1 -17-3.00202 27.6439  14 
   3  -1 -17-38.6176 51.4584  24 
   3   1 -17 36.9937 34.3332  21 
   3  -1 -17-11.6201 33.4293  21 
  -3   1 -18 16232.9 407.579  25 
  -3   1 -18 18204.6 455.754  21 
   3   1 -18 17762.9 493.053  24 
   3  -1 -18 17270.0 478.380  16 
   3   1 -18 17598.8 489.611  25 
   3   1  18 17536.0 525.815  10 
  -3  -1 -18 19539.5 522.463  16 
   3  -1 -18 17949.0 497.912  24 
  -3   1  18 17171.2 484.346  10 
   3  -1 -18 17665.8 493.866  25 
  -3  -1 -18 19375.7 459.202  14 
  -3   1 -18 18485.0 468.872  14 
  -3   1 -18 16281.7 409.603  24 
   3  -1  18 17138.2 515.028  10 
   3   1 -18 18077.2 447.409  21 
   3  -1 -18 18672.3 476.508  21 
  -3   1 -18 18479.1 492.496  16 
  -3   1 -18 18163.3 530.054  17 
  -3  -1 -18 19467.5 470.597  21 
   3  -1  19 22694.5 528.872  10 
   3  -1 -19 21837.4 483.852  25 
   3  -1 -19 21199.1 469.143  16 
   3  -1 -19 21842.5 485.106  24 
  -3   1 -19 24044.1 466.070  21 
  -3   1 -19 22896.7 490.896  16 
   3   1 -19 23276.0 506.255  25 
  -3   1 -19 23266.2 470.720  14 
   3  -1 -19 24234.0 490.733  21 
   3   1  19 24523.9 554.714  10 
   3   1 -19 23212.3 506.180  24 
  -3  -1 -19 23953.6 467.126  21 
  -3  -1 -19 23783.5 516.908  16 
   3   1 -19 21957.5 446.517  21 
  -3  -1  19 21161.6 495.023  10 
  -4  -1   0 298485. 2787.72   4 
   4   1   0 328256. 2646.29   1 
  -4  -1   0 337673. 2560.76   1 
  -4   1   0 314086. 2883.65   1 
   4   1   0 316089. 2990.99   4 
   4  -1   0 297868. 2621.83   5 
   4   1  -1 11398.3 455.080   4 
   4  -1   1 10785.7 390.204   5 
  -4   1   1 10722.2 426.426   1 
   4   1  -1 11520.6 374.859   3 
  -4  -1  -1 10316.8 395.303   1 
   4   1  -1 11548.9 373.369   2 
  -4   1  -1 11056.5 390.042   5 
   4  -1   1 10890.0 445.203   1 
  -4  -1   1 11507.0 303.706   1 
   4   1   1 10587.8 417.349   1 
   4   1  -1 11214.1 333.430   1 
   4   1   1 10454.8 479.298   4 
   4  -1  -1 10011.0 385.403   1 
   4  -1  -1 10308.1 388.975   5 
  -4  -1   1 10363.1 410.433   4 
   4   1   2 3900.43 302.401   4 
  -4   1  -2 4200.61 234.438   5 
   4   1  -2 3922.65 222.689   3 
  -4  -1  -2 3681.55 261.168   1 
   4  -1  -2 3815.82 307.232   1 
  -4  -1   2 4021.02 229.927   4 
   4  -1  -2 3775.78 235.925   1 
  -4  -1   2 3295.54 91.3037   1 
   4  -1   2 3672.95 263.320   4 
   4  -1  -2 3602.77 242.502   5 
   4   1  -2 3444.41 109.942   1 
   4   1   2 3772.89 276.446   1 
   4   1  -2 4185.46 232.998   2 
   4  -1   2 4146.30 286.803   1 
   4  -1  -3 31344.6 860.362   1 
   4  -1   3 40008.1 973.029   1 
   4   1  -3 37560.1 806.841   3 
   4   1   3 35986.3 950.370   1 
   4  -1   3 32490.6 611.979   2 
   4  -1   3 34716.7 636.743   3 
   4   1   3 36977.4 1011.21   4 
   4  -1  -3 39555.9 802.963   1 
   4   1  -3 37771.9 820.901   2 
   4  -1  -3 38204.0 851.922   5 
  -4  -1   3 37939.1 678.923   4 
  -4   1  -3 35852.7 703.318   5 
   4  -1   3 40070.7 931.940   4 
   4   1   4 58932.3 1335.28   1 
   4  -1   4 67002.9 1269.14   4 
  -4  -1   4 65766.1 810.110   4 
   4  -1   4 58844.2 985.992   3 
   4  -1  -4 59913.7 1157.04   5 
   4   1   4 62851.8 1380.85   4 
   4  -1   4 55835.8 962.711   2 
   4  -1  -4 58055.0 1214.35   1 
  -4   1  -4 61575.9 912.574   5 
   4  -1  -4 64356.5 1073.06   1 
   4  -1   4 62628.6 1294.97   1 
  -4   1  -5 134918. 1461.32   5 
   4  -1  -5 140234. 1729.92   1 
   4  -1   5 138214. 2097.25   1 
   4   1   5 135405. 2257.69   1 
   4  -1   5 142636. 2006.22   4 
   4   1  -5 144551. 1808.77   5 
   4  -1  -5 147214. 1965.98   5 
   4   1   5 135087. 2200.93   4 
   4  -1   6 91653.0 1652.73   4 
   4   1   6 86543.2 1873.22   1 
   4  -1   6 88943.4 1778.67   1 
   4  -1  -6 88384.0 1394.75   1 
  -4   1  -6 92169.3 1183.69   5 
   4   1   6 88315.0 1846.97   4 
   4   1  -6 91584.3 1446.71   5 
   4  -1  -6 93159.0 1623.22   5 
   4   1  -7 24879.5 468.168  25 
   4   1   7 24565.0 1000.72   4 
   4   1  -7 26629.4 793.918   5 
   4  -1   7 29008.7 584.989   7 
   4  -1  -7 25125.0 755.538   1 
  -4   1  -7 25665.6 484.413  14 
   4  -1   7 24393.6 966.104   1 
   4  -1  -7 25070.2 500.149  25 
   4  -1   7 25732.1 518.365  12 
   4   1  -7 24965.8 469.292  24 
   4  -1  -7 26570.6 502.575  16 
   4  -1  -7 24899.0 864.666   5 
   4   1   7 26816.4 1108.50   1 
  -4  -1  -7 25544.3 521.934  17 
   4   1   7 25809.0 614.538  23 
   4  -1  -7 25732.0 507.230  24 
  -4  -1  -7 24386.0 460.271   6 
   4  -1   7 26176.9 910.644   4 
   4  -1  -7 23712.1 455.518  21 
  -4   1  -7 25327.2 510.056  17 
   4  -1  -8 320.323 61.3138  16 
   4   1  -8 348.827 59.9752  25 
   4   1   8 270.406 63.8350  12 
   4   1  -8 345.126 99.0043   5 
   4   1   8 331.397 120.231   4 
   4  -1  -8 319.610 65.5052  24 
   4   1  -8 287.352 58.1813  14 
  -4  -1  -8 342.141 59.6460  16 
   4  -1   8 317.382 66.2252   7 
  -4  -1  -8 457.084 76.2608  17 
  -4  -1  -8 376.266 57.5013  14 
   4  -1   8 240.977 109.212   1 
   4  -1  -8 325.162 63.1930  25 
  -4  -1  -8 344.535 59.1776   9 
  -4  -1  -8 308.517 57.9961   6 
   4   1   8 348.564 154.145   1 
  -4   1  -8 318.790 60.6449  14 
   4  -1  -8 337.041 58.7253  21 
   4  -1   8 486.901 126.182   4 
   4   1  -8 326.253 57.6908  24 
   4   1  -8 520.316 68.1753  21 
  -4   1  -8 338.913 63.6478   6 
   4   1   8 410.186 92.9479  23 
  -4   1  -8 365.525 64.1636  26 
   4   1  -8 381.961 64.0224  26 
   4  -1  -8 332.921 57.4581  15 
  -4   1  -8 319.457 55.9451  24 
  -4   1  -8 337.927 56.4025  25 
   4  -1  -8 327.026 126.315   5 
  -4   1  -8 306.003 58.2572  17 
   4  -1   8 344.816 65.6685  12 
   4  -1  -8 509.190 116.883   1 
  -4  -1  -9 1417.11 123.704   6 
   4  -1  -9 1876.64 148.952  25 
   4   1   9 1452.75 135.402  12 
   4  -1   9 1455.18 133.328  12 
  -4   1  -9 1945.57 133.524  25 
   4  -1  -9 1594.97 133.723  16 
   4   1   9 1545.55 165.931  23 
   4  -1  -9 1666.37 255.930   5 
  -4  -1  -9 1406.58 125.590  16 
  -4  -1  -9 1376.23 138.796  17 
  -4  -1  -9 1346.71 119.812   9 
  -4   1  -9 1625.31 141.725  17 
   4  -1  -9 1733.39 144.282  24 
   4  -1  -9 1520.28 124.284  15 
   4   1  -9 1708.34 136.701  25 
   4   1  -9 1653.15 135.542  24 
  -4  -1  -9 1413.19 117.566  14 
   4   1  -9 1583.99 140.852  26 
   4  -1  -9 1340.78 134.642  14 
   4  -1   9 1523.37 142.196   7 
   4  -1  -9 1429.39 123.195  21 
  -4   1  -9 1866.87 130.872  24 
  -4   1  -9 1588.30 137.029  26 
   4  -1   9 1659.38 254.555   4 
  -4   1  -9 1433.96 126.982   6 
  -4   1  -9 2075.08 147.279  14 
   4  -1   9 1769.20 307.569   1 
   4   1  -9 1569.17 133.811  14 
   4   1   9 1755.94 326.401   1 
   4   1  -9 1367.17 205.346   5 
   4   1  -9 1485.74 118.375  21 
  -4  -1 -10 5278.04 238.448  14 
   4  -1 -10 4806.95 248.653  14 
  -4  -1 -10 5193.27 250.773  16 
   4  -1 -10 4950.70 237.150  21 
   4   1 -10 4756.92 240.589  24 
  -4   1 -10 4842.87 226.367  24 
   4  -1  10 4718.54 257.612   7 
   4  -1 -10 5160.97 266.698  24 
   4   1 -10 5205.27 263.325  26 
   4   1  10 5055.83 263.117  12 
   4  -1 -10 5290.40 260.557  16 
  -4  -1 -10 5047.46 279.124  17 
   4   1 -10 4847.35 243.604  25 
  -4   1 -10 4898.72 225.892  25 
   4   1  10 5354.13 606.052   1 
  -4   1 -10 5364.25 249.904  14 
   4  -1 -10 4988.86 453.861   5 
  -4   1 -10 4719.36 257.825  17 
  -4  -1 -10 4883.98 236.342   9 
   4   1 -10 4605.96 240.500  14 
   4  -1  10 5146.75 546.297   1 
   4  -1  10 5016.73 256.797  12 
  -4  -1 -10 5048.53 248.290   6 
   4   1  10 5302.16 324.486  23 
   4  -1 -10 4750.62 228.002  15 
  -4   1 -10 5003.59 247.201   6 
   4   1 -10 4962.89 231.230  21 
  -4   1 -10 5256.77 260.409  26 
   4  -1 -10 5183.98 264.523  25 
   4   1  11 5905.58 290.126  12 
   4   1 -11 5561.45 258.276  21 
   4  -1 -11 5578.03 283.526  16 
   4   1 -11 5607.63 292.128  26 
  -4   1 -11 5486.08 285.751  26 
  -4   1 -11 6199.36 288.168  16 
   4   1 -11 5905.21 256.994  16 
   4   1 -11 5585.24 276.417  25 
  -4   1 -11 5835.80 304.069  17 
   4  -1 -11 5556.65 291.364  24 
  -4  -1 -11 6166.13 287.819   6 
   4  -1 -11 5461.77 254.840  15 
   4  -1 -11 5701.05 294.949  25 
  -4   1 -11 5400.35 250.063  24 
   4   1 -11 5692.40 281.290  24 
  -4   1 -11 5520.85 267.457  14 
   4   1  11 5640.64 341.092  23 
  -4   1 -11 5660.70 275.827   6 
  -4   1 -11 5530.75 253.043  25 
   4  -1 -11 5352.43 503.771   5 
  -4  -1 -11 5970.06 273.943   9 
  -4  -1 -11 5531.47 274.652  16 
   4  -1  11 5348.40 279.088  12 
  -4  -1 -11 5695.68 314.011  17 
   4   1 -11 5116.62 270.647  14 
  -4  -1 -11 5937.77 266.075  14 
   4  -1 -11 5445.90 268.866  21 
   4   1 -12 10331.1 367.295  21 
  -4   1 -12 10061.0 358.035  25 
  -4   1 -12 10065.7 402.143  26 
   4  -1 -12 10323.4 405.483  16 
   4   1 -12 10194.8 392.030  25 
   4   1 -12 10276.0 420.165  26 
   4  -1 -12 10229.9 418.615  24 
  -4   1 -12 10066.0 420.883  17 
  -4  -1 -12 10183.5 447.201  17 
  -4   1 -12 10320.7 363.187  24 
  -4   1 -12 10236.5 393.718  16 
   4  -1  12 10885.9 408.676  12 
   4  -1 -12 9836.48 352.726  15 
   4   1 -12 9896.23 382.766  14 
   4  -1 -12 10073.6 379.791  21 
  -4  -1 -12 10007.7 367.475  14 
   4   1 -12 10187.2 394.141  24 
  -4  -1 -12 10194.6 400.184  16 
   4  -1 -12 9802.29 409.662  25 
  -4  -1 -12 10680.7 379.383   9 
  -4   1 -12 9481.71 372.457   6 
   4   1 -12 10505.2 359.921  16 
  -4  -1 -12 9760.96 382.340   6 
   4   1 -13 20715.1 592.917  24 
   4  -1  13 21565.0 592.198  12 
  -4   1 -13 22645.6 604.180   6 
  -4   1 -13 21320.9 640.698  17 
   4   1 -13 19587.0 564.373  14 
  -4  -1 -13 20709.5 586.925   6 
  -4   1 -13 19877.8 581.806  16 
   4  -1 -13 21157.5 628.100  24 
  -4   1 -13 20844.4 609.105  26 
  -4   1 -13 20351.3 526.512  25 
   4   1 -13 20322.7 587.080  25 
  -4  -1 -13 20643.6 667.865  17 
  -4   1 -13 20844.7 533.855  24 
   4  -1 -13 21976.0 614.405  16 
   4  -1 -13 21176.6 573.857  21 
  -4  -1 -13 21458.3 551.768   9 
  -4  -1 -13 21347.3 606.748  16 
   4   1  13 22955.1 689.499  10 
   4   1 -13 20926.4 547.323  21 
   4   1 -13 21128.6 620.076  26 
  -4  -1 -13 21527.2 574.741  15 
   4  -1 -13 20630.4 618.898  25 
   4   1 -13 21082.8 538.398  16 
  -4  -1 -13 19659.0 534.654  14 
   4  -1 -13 21548.7 528.150  15 
  -4   1 -14 1278.38 143.439  14 
   4   1 -14 1353.15 141.787  16 
  -4   1 -14 1409.04 153.856   6 
   4  -1 -14 1242.15 164.845  25 
   4   1 -14 1324.77 156.873  24 
  -4   1 -14 1370.58 138.575  24 
  -4   1 -14 1359.77 166.639  17 
  -4  -1 -14 1341.40 134.008   9 
   4  -1 -14 1211.12 158.289  24 
  -4  -1 -14 1269.70 173.356  17 
  -4  -1 -14 1432.59 164.096  16 
   4  -1 -14 1452.44 153.594  21 
  -4   1 -14 1492.69 160.496  16 
   4  -1 -14 1269.54 150.688  16 
   4   1 -14 1224.51 149.436  25 
   4   1  14 1466.57 171.034  10 
  -4   1 -14 1286.28 133.212  25 
   4  -1  14 1327.13 146.586  12 
  -4  -1 -14 1306.15 142.074  14 
   4  -1 -14 1380.66 140.395  22 
   4   1 -14 1365.10 139.192  21 
   4   1 -14 1278.56 156.598  26 
  -4  -1 -14 1332.51 137.995  15 
  -4  -1 -15 2491.25 234.740  17 
  -4   1 -15 2428.14 200.312   6 
  -4   1 -15 2612.29 211.534  16 
   4  -1 -15 2211.48 196.709  21 
   4   1 -15 2623.17 216.938  26 
   4   1  15 2842.56 242.888  10 
  -4   1 -15 2674.74 234.997  17 
  -4  -1 -15 2439.18 207.041  16 
   4  -1 -15 2416.79 203.425  16 
   4  -1 -15 2354.58 208.770  24 
  -4   1  15 2629.32 226.727  10 
  -4   1 -15 2735.13 191.175  24 
  -4   1 -15 2586.65 205.291  14 
   4  -1 -15 2398.04 208.726  25 
  -4  -1 -15 2898.36 206.556  14 
   4   1 -15 2705.16 198.045  21 
  -4   1 -15 2606.31 184.372  25 
   4  -1 -15 2473.62 186.664  22 
   4   1 -15 2696.04 219.635  24 
   4   1 -15 2723.67 215.541  25 
  -4  -1 -15 2534.70 196.116  15 
  -4  -1 -16 30240.7 653.774  14 
  -4   1 -16 29861.9 693.143   6 
  -4   1 -16 31449.0 695.069  14 
   4   1 -16 32164.2 675.716  21 
  -4   1 -16 31598.8 641.595  24 
   4  -1 -16 31022.6 750.628  24 
  -4   1 -16 32980.3 815.837  17 
   4   1 -16 31592.6 740.500  25 
   4  -1 -16 33353.0 658.063  22 
   4   1 -16 31475.2 741.974  24 
   4  -1 -16 31831.8 758.920  25 
   4   1  16 32795.9 812.362  10 
  -4   1  16 30661.2 732.499  10 
  -4  -1 -16 31795.6 735.783  16 
  -4  -1 -16 34839.6 715.150  21 
   4  -1 -16 32468.8 736.771  16 
  -4  -1 -16 33565.8 684.319  15 
  -4   1 -16 31858.3 643.106  25 
  -4   1 -16 32733.0 749.319  16 
   4  -1 -16 32299.2 719.822  21 
  -4   1 -17 20367.1 594.832  17 
  -4  -1 -17 20252.0 508.776  21 
   4  -1 -17 19763.9 564.073  25 
  -4   1 -17 21703.8 574.762  16 
   4  -1 -17 19486.1 536.961  16 
  -4  -1 -17 19112.5 535.821  16 
   4   1 -17 20236.6 562.958  24 
  -4   1 -17 19928.9 507.698  21 
   4   1 -17 19816.9 502.528  21 
   4   1 -17 20191.4 562.227  25 
  -4   1  17 18738.5 527.094  10 
   4  -1 -17 18288.0 509.844  21 
   4   1  17 20040.9 594.557  10 
  -4  -1 -17 21663.2 511.450  15 
  -4   1 -17 20500.2 527.475  14 
   4  -1 -17 20047.4 567.556  24 
  -4  -1 -17 22586.3 523.367  14 
  -4  -1 -18 7020.62 262.456  14 
   4   1 -18 5921.95 276.654  25 
   4  -1 -18 7122.13 308.293  24 
   4   1 -18 7033.03 271.614  21 
   4   1 -18 6046.38 278.409  24 
   4  -1 -18 7259.77 310.448  25 
   4  -1 -18 6875.15 285.348  16 
   4   1  18 7555.96 330.441  10 
  -4   1 -18 7850.02 336.512  17 
   4  -1  18 7309.96 319.282  10 
  -4  -1 -18 7297.40 305.054  16 
  -4   1 -18 7704.84 282.014  21 
  -4   1 -18 7882.77 309.386  16 
  -4   1 -18 8176.43 295.676  14 
   4  -1 -18 6343.66 270.961  21 
  -4  -1 -18 8361.94 292.077  21 
  -4  -1 -19 8802.94 264.566  21 
   4   1  19 8246.56 299.636  10 
   4  -1  19 7998.23 290.365  10 
  -4   1 -19 9225.14 278.570  14 
   4  -1 -19 8516.98 280.629  21 
   4   1 -19 8240.18 291.161  24 
   4   1 -19 8265.20 290.633  25 
  -4   1 -19 8247.29 258.034  21 
   4  -1 -19 7821.22 281.246  24 
   4  -1 -19 8180.60 286.959  25 
  -4  -1 -19 8570.14 291.332  16 
  -4   1 -19 8756.56 288.233  16 
   5  -1   0-2.55111 39.0107   1 
   5  -1   0 11.7928 40.8657   4 
   5   1   0 136.362 60.1209   4 
   5   1   0 45.1811 33.2519   3 
   5  -1   0 181.676 68.8818   5 
   5   1   0 42.4339 35.7606   2 
   5   1   0 24.0254 37.3971   1 
  -5  -1   0 20.4760 26.4278   1 
  -5  -1  -1 13679.7 514.287   1 
  -5  -1   1 13273.3 373.599   1 
   5   1  -1 10863.2 376.755   3 
   5   1  -1 12835.4 405.502   1 
   5   1   1 12028.5 572.162   4 
   5  -1  -1 12219.4 490.279   5 
   5  -1   1 12434.7 528.825   4 
   5   1  -1 11349.0 386.961   2 
   5  -1  -1 12378.0 486.634   1 
   5  -1   1 13172.5 554.188   1 
   5  -1  -1 12828.7 499.227   4 
   5   1   1 11445.0 480.279   1 
   5   1  -1 12449.3 540.035   4 
   5  -1  -2 4055.52 279.794   4 
   5   1  -2 4757.46 263.224   3 
   5   1   2 4627.99 371.296   4 
  -5   1   2 3449.49 104.532   2 
   5  -1   2 4686.61 339.124   4 
   5  -1   2 4663.25 346.769   1 
   5  -1  -2 4984.69 320.106   5 
   5   1  -2 4563.80 315.952   4 
   5  -1  -2 4570.21 283.339   1 
  -5   1   2 3526.37 107.460   3 
   5   1  -2 4568.80 258.841   2 
  -5  -1   2 4562.57 153.153   1 
   5   1   2 5114.96 346.490   1 
   5   1  -2 4408.30 169.703   1 
  -5  -1   2 4718.77 293.248   4 
  -5   1   3 63443.7 816.455   2 
   5  -1  -3 65230.3 1085.32   1 
   5  -1  -3 63527.9 1206.76   5 
   5   1   3 65851.2 1397.69   1 
  -5   1   3 68155.7 840.033   3 
   5  -1   3 67723.4 1350.11   4 
  -5  -1   3 67255.1 1054.83   4 
   5   1   3 65518.1 1483.10   4 
   5  -1   3 66127.6 1390.47   1 
  -5   1   4 4518.81 249.737   3 
   5  -1   4 3652.12 221.151   2 
  -5   1   4 4343.02 247.096   2 
   5  -1   4 4340.97 242.667   3 
   5  -1   4 4182.77 357.461   1 
   5  -1  -4 4260.43 267.481   4 
   5   1   4 4939.29 420.973   4 
   5  -1   4 4582.14 362.345   4 
   5  -1  -4 4655.36 332.475   5 
   5   1   4 4641.49 392.669   1 
   5  -1  -4 4341.20 278.239   1 
   5   1   5 61528.3 1553.47   4 
   5  -1   5 46388.1 1260.18   1 
   5  -1  -5 51499.8 1007.27   1 
   5   1   5 54961.2 1465.94   1 
   5  -1  -5 52957.4 1214.17   5 
   5  -1  -5 55736.9 923.658   4 
   5  -1   5 55310.6 1320.95   4 
   5  -1  -6 975.057 98.0091  25 
   5   1   6 951.826 103.107  12 
   5  -1   6 934.371 183.484   4 
   5  -1  -6 994.019 93.3684  22 
   5  -1   6 1208.79 115.776   7 
  -5   1  -6 973.946 95.8736  17 
   5  -1  -6 919.013 144.086   1 
   5  -1   6 925.029 192.017   1 
   5  -1   6 1008.60 103.089  12 
   5   1   6 990.221 119.873  27 
  -5   1  -6 1091.47 99.1752  14 
   5   1   6 1053.68 222.191   1 
   5   1   6 1051.30 124.504  23 
   5  -1  -6 1034.75 179.922   5 
   5  -1  -6 889.869 95.7905  24 
   5   1   6 1396.91 242.474   4 
   5  -1  -6 946.381 90.1459  21 
   5  -1  -6 776.030 95.8047   4 
   5  -1  -7 32179.0 1036.06   5 
   5   1   7 31158.7 622.972  10 
   5   1   7 32217.5 716.962  27 
   5   1   7 30468.5 702.367  23 
   5  -1   7 32648.5 1215.63   1 
   5   1   7 32032.3 1227.21   4 
   5  -1  -7 30136.0 546.252  22 
   5   1   7 32940.8 1290.71   1 
   5  -1  -7 34387.8 569.693  15 
  -5  -1  -7 30394.2 596.248  17 
   5  -1  -7 32121.0 601.343  25 
   5   1  -7 30656.1 546.995  25 
   5  -1   7 32758.1 650.918   7 
   5   1   7 30285.4 612.908  12 
  -5  -1  -7 28178.4 516.499  16 
   5  -1   7 32554.3 619.955  12 
  -5  -1  -7 34970.7 561.287  14 
  -5   1  -7 32074.9 578.594  14 
   5  -1  -7 32761.1 605.683  24 
   5  -1   7 35245.4 663.505  23 
   5   1  -7 32103.8 571.363  26 
   5  -1   7 30668.4 1078.36   4 
   5   1  -7 30948.6 550.152  24 
   5   1  -7 30901.5 521.559  21 
   5  -1  -7 30902.1 544.476  21 
   5  -1  -7 30739.5 831.791   1 
  -5   1  -7 29290.0 580.427  17 
  -5  -1  -7 31715.4 546.119   6 
   5  -1  -7 31673.4 577.268  16 
   5  -1   8 7734.94 319.554  23 
   5  -1  -8 7713.07 299.362  25 
   5  -1  -8 6819.44 279.851  16 
  -5   1  -8 6493.38 244.852  25 
   5   1   8 6931.60 354.390  23 
   5   1  -8 7196.49 273.113  24 
   5   1  -8 7296.79 273.557  25 
  -5   1  -8 7145.51 286.684   6 
   5  -1  -8 7479.58 275.371  22 
   5   1   8 7195.61 650.505   1 
   5  -1   8 6671.56 528.490   4 
   5  -1   8 8481.16 335.178   7 
  -5  -1  -8 7784.87 308.829  17 
  -5  -1  -8 6824.16 255.264  14 
  -5  -1  -8 7224.18 268.778  16 
  -5   1  -8 7259.40 276.809  26 
  -5   1  -8 6819.29 289.745  17 
  -5  -1  -8 6969.28 261.059   6 
   5  -1   8 7175.25 598.524   1 
   5  -1  -8 7081.94 265.771  15 
   5  -1  -8 7718.94 299.051  24 
   5   1   8 7116.46 302.535  12 
   5   1   8 7919.17 322.586  10 
  -5   1  -8 6300.78 242.519  24 
   5   1  -8 7510.82 286.926  26 
   5  -1   8 7160.09 297.560  12 
  -5   1  -8 7519.45 284.481  14 
   5  -1  -8 7068.23 510.897   5 
   5   1   8 6999.60 592.083   4 
   5   1  -8 7030.78 254.845  21 
   5  -1  -8 6748.58 263.710  21 
   5   1  -9 1103.08 116.884  26 
  -5   1  -9 1135.80 116.850  14 
   5   1   9 1269.85 300.697   1 
   5   1  -9 1018.70 101.201  21 
  -5   1  -9 1016.43 110.018  26 
   5  -1   9 1144.10 128.107   7 
  -5  -1  -9 1179.61 136.388  17 
   5  -1  -9 1085.54 110.359  21 
   5  -1   9 1145.05 245.500   4 
   5  -1  -9 1841.18 142.137  15 
  -5  -1  -9 1041.09 107.894   6 
   5   1  -9 1193.98 115.305  25 
   5   1   9 1120.48 125.348  12 
  -5   1  -9 1006.22 111.107   6 
  -5  -1  -9 1093.10 111.144  16 
   5  -1  -9 1225.54 121.795  25 
   5   1  -9 1092.09 111.945  24 
   5  -1  -9 922.642 110.302  16 
   5  -1  -9 1048.03 219.977   5 
   5   1   9 1162.16 150.702  23 
  -5  -1  -9 1127.91 107.953  14 
  -5   1  -9 1274.48 111.463  25 
  -5   1  -9 1166.59 107.221  24 
   5  -1  -9 1010.45 108.880  22 
   5  -1   9 1294.82 285.575   1 
   5   1   9 1079.28 127.920  10 
   5  -1  -9 1203.43 127.135  24 
   5  -1   9 1068.48 120.031  12 
  -5   1  -9 1127.39 123.886  17 
  -5  -1  -9 1200.03 119.866   9 
   5   1  10 68.0311 43.0979  12 
   5   1 -10 103.591 43.0942  25 
   5   1  10 128.379 55.7205  10 
  -5   1 -10 93.5027 95.3767  26 
   5  -1  10 36.4040 87.9595   4 
  -5  -1 -10 26.4509 27.1036  16 
   5  -1 -10 51.6675 38.1888  22 
  -5   1 -10 71.5963 40.4336  14 
   5  -1  10 64.9338 33.8660  12 
  -5  -1 -10 45.9513 29.2643   9 
  -5   1 -10 75.9358 50.1889  17 
  -5  -1 -10 49.6832 41.4404  17 
  -5   1 -10 50.6851 22.6681  24 
   5  -1  10 35.0670 121.310   1 
  -5   1 -10 41.3741 26.3645  25 
   5  -1 -10 53.9849 37.0159  16 
  -5   1 -10 80.4152 40.7138   6 
   5  -1 -10 86.6863 45.1094  25 
   5   1 -10 92.1825 37.7277  26 
   5   1 -10 99.2090 40.1143  24 
  -5  -1 -10 17.3736 27.6284   6 
   5  -1  10 21.8810 34.6725   7 
   5  -1 -10 44.2182 39.8894  24 
   5   1  10 144.451 70.2568  23 
   5   1 -10 70.8047 41.1600  21 
   5  -1 -10 87.9623 86.2381   5 
  -5  -1 -10 193.988 48.4239  14 
   5  -1 -10 131.211 41.3317  21 
  -5  -1 -11 14407.6 449.614   6 
   5  -1 -11 14946.8 447.338  22 
   5   1 -11 14879.4 467.760  25 
   5  -1 -11 16012.6 487.284  16 
   5  -1 -11 15401.6 502.748  24 
  -5   1 -11 14502.1 460.855   6 
   5   1  11 15505.2 526.946  10 
  -5   1 -11 15414.8 504.081  17 
  -5  -1 -11 13673.1 506.836  17 
  -5  -1 -11 14898.2 438.541  14 
   5   1  11 14444.4 578.781  23 
  -5   1 -11 15096.7 471.849  26 
  -5   1 -11 14560.1 462.393  14 
  -5   1 -11 15518.0 426.130  24 
   5  -1 -11 14913.4 496.745  25 
   5   1  11 15787.1 497.011  12 
   5  -1  11 14382.5 478.149  12 
  -5   1 -11 15325.3 421.657  25 
   5   1 -11 14818.4 478.223  26 
  -5  -1 -11 14593.1 438.834   9 
   5  -1 -11 13839.8 415.352  15 
   5   1 -11 14676.9 432.234  21 
   5  -1 -11 15501.2 462.934  21 
  -5  -1 -11 15244.9 464.525  16 
   5   1 -11 14920.3 468.932  24 
   5   1 -12 58596.1 1020.71  26 
  -5   1 -12 60278.3 998.648   6 
  -5  -1 -12 59271.3 943.845   9 
   5  -1 -12 55965.2 882.263  15 
  -5  -1 -12 59634.3 1116.39  17 
  -5   1 -12 55749.6 879.048  24 
   5   1 -12 58167.4 928.462  21 
  -5   1 -12 57246.1 885.260  25 
  -5  -1 -12 62723.5 1026.29  16 
  -5   1 -12 60134.0 1077.10  17 
  -5   1 -12 59751.8 993.431  14 
   5  -1 -12 49448.3 965.926  24 
   5   1 -12 58450.8 1002.53  24 
   5  -1 -12 49975.7 971.525  25 
   5  -1 -12 57682.6 968.576  21 
   5   1  12 62357.5 1132.07  10 
  -5  -1 -12 68031.2 999.798  14 
   5  -1  12 53204.3 983.397  12 
   5  -1 -12 59908.5 1008.49  16 
   5   1 -12 58192.6 996.037  25 
  -5  -1 -12 65143.3 1027.11   6 
  -5   1 -12 65860.1 1047.34  16 
   5  -1 -12 62548.3 967.197  22 
   5   1  12 63647.9 1042.14  12 
  -5  -1 -13 39744.1 813.820   6 
  -5  -1 -13 38752.3 921.573  17 
  -5   1 -13 41067.1 917.093  17 
  -5   1 -13 40479.1 831.220   6 
   5   1  13 40764.3 925.844  10 
  -5   1 -13 40753.5 746.144  24 
  -5  -1 -13 42917.6 800.548  14 
  -5   1 -13 44388.6 872.786  16 
  -5  -1 -13 42616.8 860.586  16 
   5   1 -13 42258.3 795.774  21 
   5  -1 -13 40125.2 772.770  22 
   5  -1 -13 40825.2 891.540  24 
   5  -1 -13 41965.4 848.926  16 
   5   1 -13 40042.8 841.882  25 
   5  -1  13 37024.4 816.161  12 
   5  -1 -13 42838.9 911.001  25 
  -5   1 -13 41489.9 834.331  14 
   5   1 -13 40285.3 847.862  24 
   5   1 -13 40590.7 863.367  26 
  -5  -1 -13 39747.5 771.591   9 
  -5   1 -13 41395.3 750.614  25 
   5  -1 -13 38661.6 803.513  21 
   5  -1 -14 1529.81 149.226  22 
   5  -1 -14 1437.61 170.318  24 
  -5  -1 -14 1539.89 150.392  15 
   5   1 -14 1595.86 171.306  26 
  -5   1 -14 1374.11 134.145  24 
  -5   1 -14 1571.78 144.955  25 
   5  -1 -14 1449.88 156.776  16 
  -5   1 -14 1505.51 179.724  17 
  -5  -1 -14 1679.65 198.332  17 
  -5   1 -14 1546.39 161.870   6 
  -5  -1 -14 1767.67 173.104  16 
   5  -1 -14 1581.13 178.836  25 
   5  -1  14 1521.49 159.890  12 
   5   1 -14 1529.75 164.909  24 
  -5   1 -14 1539.95 153.842  14 
  -5  -1 -14 1564.88 150.442  14 
  -5  -1 -14 1310.29 136.801   9 
   5   1  14 1571.61 176.369  10 
  -5   1 -14 1504.06 164.310  16 
   5   1 -14 1285.28 135.959  21 
   5  -1 -14 1284.20 149.447  21 
   5   1 -14 1582.72 165.911  25 
   5  -1  15 37366.9 787.520  12 
  -5   1 -15 34239.7 756.447   6 
   5  -1 -15 34195.4 811.687  24 
   5   1 -15 35515.2 799.476  24 
  -5  -1 -15 37721.0 741.688  14 
  -5   1 -15 38001.0 882.046  17 
   5   1  15 34740.9 844.920  10 
   5  -1 -15 35298.3 821.976  25 
  -5  -1 -15 36665.3 746.724  15 
  -5   1 -15 35237.5 754.918  14 
   5  -1 -15 35783.6 702.466  11 
  -5  -1 -15 33010.8 757.993  16 
   5   1 -15 34322.1 786.757  25 
   5  -1 -15 30348.8 713.437  21 
  -5   1 -15 33390.0 769.194  16 
   5   1 -15 34882.9 717.790  21 
   5  -1 -15 33363.8 750.264  16 
   5  -1 -15 33839.5 683.325  22 
   5  -1 -16 1048.69 139.415  24 
  -5   1 -16 1337.38 132.258  14 
  -5  -1 -16 1209.98 126.130  21 
   5   1  16 1243.20 152.539  10 
   5   1 -16 1322.66 153.529  24 
  -5   1 -16 1198.57 155.238  17 
  -5   1 -16 1344.66 148.072  16 
  -5  -1 -16 1196.99 125.639  15 
   5  -1 -16 1309.34 142.346  16 
  -5  -1 -16 1385.90 146.243  16 
  -5   1 -16 1277.99 137.375   6 
   5  -1 -16 1157.11 146.870  25 
   5   1 -16 1346.69 134.625  21 
  -5  -1 -16 1222.86 125.373  14 
   5   1 -16 1379.50 156.752  25 
   5  -1 -16 1274.06 142.837  21 
  -5   1 -17 359.606 79.0017  16 
  -5   1 -17 333.405 69.1406  14 
   5   1 -17 287.275 69.3346  21 
  -5  -1 -17 353.050 77.0470  16 
  -5  -1 -17 445.250 78.3764  21 
  -5   1 -17 350.545 80.1180  17 
  -5  -1 -17 389.969 66.4163  14 
   5   1 -17 462.085 92.8327  24 
  -5   1 -17 259.599 60.3938  21 
   5  -1 -17 355.245 77.3453  24 
   5  -1 -17 366.230 75.4804  16 
   5   1  17 355.612 81.7186  10 
   5  -1 -17 406.523 91.2343  25 
   5  -1 -17 355.480 76.5311  21 
   5  -1  17 236.681 59.6551  10 
   5   1 -17 443.324 84.8652  25 
  -5  -1 -17 298.945 60.0296  15 
   5  -1 -18 121.116 43.0158  21 
   5   1 -18 75.7057 36.2479  21 
   5  -1  18 86.2619 40.5524  10 
  -5   1 -18 31.9061 35.5635  17 
  -5   1 -18 122.765 42.0897  16 
   5   1 -18 106.595 46.0833  25 
   5  -1 -18 85.4401 39.7834  24 
   5  -1 -18 124.419 47.0496  25 
   5   1 -18 71.9472 43.8242  24 
  -5   1 -18 123.413 36.6336  14 
   5   1  18 84.1044 47.5939  10 
  -5  -1 -18 90.6484 35.7255  14 
  -5  -1 -18 151.969 46.3369  16 
  -5   1 -18 80.1174 40.8215  21 
  -5  -1 -18 185.389 48.1198  21 
   5   1 -19 1940.09 135.807  24 
   5   1 -19 2079.20 139.988  25 
  -5   1 -19 2280.31 137.131  16 
   5  -1 -19 2062.29 133.446  21 
  -5   1 -19 2191.72 127.198  14 
   6   1   0 56435.8 1082.68   1 
   6   1   0 51829.6 848.762   2 
   6   1   0 51239.5 848.117   3 
  -6  -1   0 51855.4 1003.57   1 
   6   1   0 56080.6 1339.68   4 
   6  -1   0 55577.9 1229.46   4 
   6  -1   0 54187.9 1177.56   5 
   6  -1   0 59667.0 1250.97   1 
   6   1   1 1365.50 138.128   3 
   6  -1   1 2008.55 234.088   1 
   6   1   1 1337.16 135.519   2 
   6  -1   1 1519.61 209.698   4 
   6   1  -1 1372.48 199.746   4 
   6  -1  -1 1782.07 211.381   5 
   6   1  -1 1439.07 135.844   2 
   6   1  -1 1387.19 146.807   1 
   6   1   1 1474.16 188.944   1 
   6   1  -1 1412.16 134.958   3 
   6  -1  -1 1534.07 195.487   1 
   6  -1  -1 1292.28 183.625   4 
   6   1   1 1549.54 230.629   4 
  -6  -1   1 1319.70 130.775   1 
   6   1  -2 4226.85 337.116   4 
   6  -1  -2 4109.49 304.125   1 
   6   1   2 4606.23 356.339   1 
   6  -1   2 4293.91 361.487   1 
   6   1  -2 4249.21 250.167   3 
   6   1  -2 4540.44 263.242   2 
   6   1  -2 4021.55 186.803   1 
   6  -1  -2 4211.91 315.666   4 
  -6  -1   2 3751.32 167.495   1 
   6  -1  -2 4033.81 328.112   5 
   6  -1   2 4646.36 368.537   4 
   6   1   2 4239.06 384.306   4 
   6   1   3 14931.5 693.063   1 
   6   1   3 14718.9 754.066   4 
   6  -1   3 15159.8 688.565   4 
   6  -1  -3 14559.0 565.911   4 
   6  -1  -3 15844.5 660.335   5 
   6  -1   3 14404.8 685.396   1 
   6  -1  -3 15331.3 565.427   1 
   6  -1   4 3169.54 166.696  19 
   6   1   4 3049.51 196.243  23 
   6  -1   4 3154.34 186.211   7 
   6  -1   4 2870.22 170.805  23 
   6  -1   4 3441.83 197.025  22 
   6  -1  -4 3186.98 163.699  21 
   6  -1  -4 2955.30 248.942   4 
   6   1   4 2789.51 175.787  12 
   6   1   4 3120.16 340.309   1 
   6  -1   4 2940.19 322.774   1 
   6   1   4 2720.38 189.255  27 
   6   1   4 3018.64 356.265   4 
   6  -1  -4 2783.54 237.067   1 
   6  -1  -4 2921.58 290.433   5 
   6  -1   4 2925.75 167.057  12 
   6  -1   4 2902.51 315.296   4 
   6   1   5 4790.64 238.491  12 
   6  -1  -5 4613.55 211.852  24 
   6   1   5 4640.69 260.029  23 
   6  -1   5 5462.29 260.232   7 
   6  -1  -5 4393.17 373.020   5 
   6  -1   5 4879.27 443.281   1 
   6  -1   5 5479.46 246.956  23 
   6  -1  -5 4899.26 210.144  21 
   6   1   5 5097.93 465.967   1 
   6  -1  -5 4183.33 290.676   1 
  -6   1  -5 5011.44 214.431  14 
   6  -1  -5 4758.66 216.689  25 
   6  -1  -5 4614.47 290.772   4 
   6  -1  -5 5272.84 214.562  22 
   6   1   5 5187.67 477.072   4 
   6  -1  -5 5257.73 215.099  11 
   6  -1   5 4799.73 227.696  12 
   6   1   5 4662.34 265.809  27 
   6  -1   5 4863.01 243.976  22 
   6  -1   5 4702.77 417.469   4 
   6  -1   6 109214. 2155.86   4 
  -6   1  -6 102856. 1133.73  17 
   6  -1   6 104637. 2233.23   1 
   6  -1   6 101944. 1228.64  23 
   6   1   6 103936. 1191.28  10 
  -6  -1  -6 99264.4 1146.40  17 
   6  -1  -6 104842. 1177.15  24 
   6  -1  -6 104258. 1172.74  25 
   6  -1  -6 103865. 1113.26  11 
   6   1   6 102601. 1243.76  12 
   6  -1  -6 99848.3 1099.45  21 
   6   1   6 110450. 1422.18  27 
   6   1   6 103123. 1375.48  23 
   6  -1   6 115231. 1311.14   7 
   6   1  -6 104962. 1071.29  24 
   6   1   6 108563. 2362.69   4 
  -6  -1  -6 107324. 1081.66  14 
   6  -1  -6 101531. 1107.50  23 
  -6   1  -6 106428. 1153.21  14 
   6   1  -6 108283. 1090.47  21 
   6  -1  -6 100336. 1099.00  22 
   6  -1  -6 100827. 1899.55   5 
  -6  -1  -6 106370. 1077.00   6 
   6  -1  -6 88842.2 1400.37   1 
   6   1  -6 104989. 1069.30  25 
   6  -1   6 107500. 1223.44  12 
   6   1   6 102670. 2299.83   1 
   6  -1  -6 106531. 1151.53  16 
   6  -1  -7 17421.8 418.310  23 
   6  -1   7 17943.7 958.889   1 
   6   1   7 16154.8 479.880  12 
   6  -1  -7 18483.6 440.714  11 
   6  -1  -7 16894.4 431.407  16 
   6   1  -7 17100.2 414.554  25 
   6   1  -7 16897.9 406.944  21 
  -6  -1  -7 14289.7 372.972  14 
  -6  -1  -7 16926.9 460.552  17 
  -6  -1  -7 15250.2 381.480  16 
   6  -1   7 16927.3 468.165  12 
   6  -1  -7 17198.6 454.605  24 
  -6  -1  -7 19085.8 434.364   6 
   6   1  -7 17209.8 416.339  24 
   6  -1   7 18191.4 502.957   7 
   6   1   7 17334.7 1005.15   1 
  -6   1  -7 17925.6 448.945  14 
   6  -1  -7 18267.8 466.034  25 
   6  -1   7 16773.1 480.796  23 
   6   1   7 17559.3 983.803   4 
   6   1   7 17787.3 557.700  27 
  -6   1  -7 18477.7 462.134  17 
   6  -1  -7 16811.9 422.163  22 
   6   1   7 18286.2 566.413  23 
   6   1   7 17454.0 467.792  10 
   6  -1  -7 16585.0 425.322  21 
   6  -1   7 17625.3 883.177   4 
   6  -1  -7 16415.6 780.430   5 
  -6  -1  -8 2033.99 146.127   6 
  -6  -1  -8 2149.74 172.752  17 
   6  -1  -8 1848.58 275.891   5 
   6  -1   8 2085.56 173.522   7 
   6   1   8 2250.26 366.568   4 
   6  -1  -8 2002.23 162.808  24 
   6   1  -8 2076.98 151.159  26 
   6  -1   8 2163.49 181.300  23 
  -6  -1  -8 2114.14 148.709  16 
   6  -1  -8 2044.85 163.850  25 
   6   1  -8 2065.89 152.219  25 
   6   1   8 2063.74 197.291  23 
   6  -1   8 2271.10 175.763  12 
   6  -1  -8 2108.35 156.727  21 
   6   1   8 2259.71 173.852  10 
   6   1   8 2087.32 365.972   1 
   6  -1  -8 2057.36 153.718  16 
   6  -1  -8 2202.15 156.580  22 
   6   1  -8 2129.84 154.058  24 
  -6   1  -8 2088.02 160.797  17 
   6  -1  -8 2086.39 152.138  11 
   6  -1   8 2340.46 373.142   1 
  -6   1  -8 2187.74 157.901  14 
   6  -1   8 2024.38 319.980   4 
   6   1  -8 2062.40 146.875  21 
   6   1   8 2037.02 172.356  12 
  -6  -1  -8 2118.25 146.302  14 
   6   1   9 7397.24 738.808   1 
   6  -1  -9 7604.51 328.704  24 
  -6   1  -9 7458.01 314.398   6 
   6  -1  -9 7885.70 335.529  25 
  -6   1  -9 7836.86 320.516  14 
  -6  -1  -9 7835.06 314.048   9 
   6   1  -9 7584.54 305.922  24 
   6  -1   9 8284.37 367.677  23 
   6  -1   9 8989.90 708.407   4 
  -6  -1  -9 7408.12 292.967   6 
   6   1   9 8146.69 349.358  10 
   6   1   9 8050.66 406.556  23 
  -6   1  -9 7724.08 328.443  17 
  -6  -1  -9 7726.48 301.534  16 
   6  -1  -9 7197.39 305.555  21 
   6  -1  -9 6971.99 570.870   5 
   6  -1   9 7821.75 341.668  12 
   6  -1  -9 7676.44 315.581  16 
   6   1  -9 7635.86 308.093  25 
  -6  -1  -9 7555.41 343.016  17 
   6   1   9 7925.51 347.061  12 
   6   1  -9 7845.64 297.800  21 
   6  -1   9 7997.36 354.470   7 
   6  -1  -9 7457.47 296.680  22 
   6  -1   9 7782.15 712.585   1 
  -6  -1  -9 8235.59 303.264  14 
   6   1  -9 8198.60 319.952  26 
   6   1   9 7170.87 685.432   4 
   6  -1 -10 21910.3 589.479  25 
   6   1  10 21412.2 707.971  23 
   6  -1 -10 21077.3 540.589  21 
  -6   1 -10 21195.1 551.647   6 
   6  -1  10 20707.5 604.724  23 
   6  -1 -10 21000.8 522.801  22 
  -6   1 -10 20475.8 568.697  17 
  -6  -1 -10 19998.4 595.482  17 
   6   1 -10 21987.0 557.507  26 
  -6  -1 -10 19556.4 512.448  16 
  -6  -1 -10 21109.9 529.442   6 
   6   1 -10 21910.7 556.157  24 
   6   1 -10 22239.3 559.522  25 
  -6   1 -10 22724.2 567.127  14 
   6  -1 -10 20984.8 544.294  16 
   6  -1  10 21076.6 591.856  12 
  -6  -1 -10 22735.7 533.844  14 
   6  -1 -10 21285.7 581.512  24 
  -6  -1 -10 21636.6 540.903   9 
   6   1  10 22143.5 612.800  12 
   6   1 -10 22418.9 528.863  21 
   6   1  10 22181.5 613.220  10 
   6  -1 -11 63666.3 1012.73  16 
  -6   1 -11 63281.7 1021.72   6 
   6   1 -11 62270.5 1019.08  24 
   6  -1  11 62414.4 1077.48  12 
   6  -1 -11 64440.2 1079.02  25 
   6   1 -11 63268.7 1024.70  25 
   6   1 -11 65027.6 973.455  21 
  -6  -1 -11 58464.6 1087.84  17 
  -6  -1 -11 62927.6 973.793   9 
   6   1 -11 64595.1 1031.64  26 
  -6  -1 -11 63599.8 991.558   6 
   6  -1 -11 52158.8 928.134  21 
   6   1  11 67727.3 1115.00  12 
   6  -1 -11 63816.9 970.189  22 
  -6   1 -11 64995.1 1029.82  14 
  -6  -1 -11 57261.4 918.130  14 
   6   1  11 60095.4 1248.68  23 
   6   1  11 61686.4 1098.49  10 
  -6   1 -11 62164.8 1072.74  17 
  -6  -1 -11 65155.0 1008.91  16 
   6  -1 -11 64307.4 1079.55  24 
  -6  -1 -12 25422.5 633.302   6 
   6  -1  12 24659.1 672.668  12 
   6   1  12 24424.3 786.981  23 
   6  -1 -12 26985.4 662.522  21 
  -6  -1 -12 29186.8 683.679  16 
   6  -1 -12 26880.0 622.799  22 
   6  -1 -12 28357.5 635.921  11 
   6   1  12 27846.5 732.336  10 
   6   1 -12 26594.6 673.809  24 
  -6  -1 -12 28573.9 637.521  14 
  -6  -1 -12 26563.5 737.084  17 
   6  -1 -12 27997.4 674.071  16 
   6   1 -12 26764.9 667.442  26 
  -6   1 -12 25615.7 656.257   6 
  -6   1 -12 30476.5 702.921  16 
  -6   1 -12 27782.2 671.480  14 
   6  -1 -12 28167.1 727.251  24 
   6   1 -12 26562.4 673.454  25 
  -6   1 -12 28723.3 733.429  17 
  -6  -1 -12 28486.4 645.435   9 
   6  -1 -12 28587.6 729.988  25 
   6   1 -12 26175.9 622.838  21 
   6   1  12 26997.7 696.125  12 
   6   1  13 11997.5 480.109  10 
   6   1 -13 11653.1 443.548  26 
  -6  -1 -13 11692.9 406.851   9 
   6  -1 -13 11793.7 406.122  22 
  -6  -1 -13 11143.9 430.994  16 
  -6  -1 -13 12067.0 414.716  14 
   6  -1 -13 11905.1 471.107  25 
   6  -1 -13 11813.5 472.131  24 
  -6  -1 -13 10622.7 475.875  17 
   6  -1  13 11446.0 453.848  12 
  -6   1 -13 12397.0 453.086  16 
   6   1 -13 11710.8 453.572  24 
   6   1 -13 11541.9 449.218  25 
   6   1  13 12156.4 463.232  12 
   6  -1 -13 11684.2 403.051  11 
  -6  -1 -13 10671.4 415.812   6 
  -6   1 -13 12091.9 444.553  14 
  -6   1 -13 11202.6 467.032  17 
   6  -1 -13 11994.4 445.446  21 
   6   1 -13 12035.7 422.452  21 
  -6   1 -13 9530.36 394.892   6 
   6  -1 -13 11808.8 436.857  16 
  -6  -1 -14 3145.07 224.161  16 
  -6   1 -14 3129.30 247.639  17 
  -6   1 -14 3101.54 224.937   6 
   6  -1 -14 3178.80 209.059  22 
  -6  -1 -14 3092.30 261.327  17 
   6   1 -14 3113.75 234.822  25 
  -6  -1 -14 3468.57 224.304  15 
   6   1  14 3168.99 246.068  10 
   6  -1 -14 3325.72 257.389  25 
   6  -1 -14 2995.93 219.758  16 
   6  -1 -14 3241.44 251.927  24 
   6  -1 -14 2845.64 225.918  21 
  -6  -1 -14 3673.30 222.487  14 
   6   1 -14 3164.22 238.695  24 
  -6   1 -14 3484.88 234.834  14 
  -6   1 -14 3068.14 221.984  16 
   6   1 -14 3308.31 233.232  26 
  -6  -1 -14 3285.21 228.979   6 
  -6  -1 -14 3097.52 202.992   9 
   6  -1 -14 3170.63 211.648  11 
   6   1 -14 3431.96 222.438  21 
   6  -1  14 3311.14 236.604  12 
   6   1 -15 2185.25 193.586  24 
   6  -1  15 2328.94 195.827  12 
   6   1 -15 2285.48 179.689  21 
   6  -1 -15 2204.08 184.240  16 
  -6   1 -15 2641.65 222.611  17 
  -6   1 -15 2233.35 191.281  16 
   6  -1  15 2181.91 189.063  10 
  -6   1 -15 2162.99 182.631   6 
   6   1 -15 2258.59 194.744  25 
  -6  -1 -15 2180.16 171.042  14 
  -6  -1 -15 2709.75 195.350  15 
   6  -1 -15 2385.44 212.647  24 
   6  -1 -15 2315.25 209.510  25 
  -6   1 -15 2556.72 194.880  14 
  -6  -1 -15 2349.07 192.662  16 
   6   1  15 2323.34 203.845  10 
   6  -1 -15 1906.82 180.116  21 
  -6   1 -16 441.575 79.9408   6 
  -6  -1 -16 423.439 73.9462  15 
   6  -1 -16 390.344 91.5738  24 
   6  -1 -16 328.239 73.6719  16 
  -6  -1 -16 522.384 82.1089  14 
   6   1 -16 528.478 94.1772  25 
  -6   1 -16 435.490 92.7509  17 
  -6  -1 -16 519.135 82.4963  21 
   6   1 -16 388.626 84.2300  24 
  -6   1 -16 412.896 83.1288  16 
  -6   1 -16 450.074 81.7476  14 
   6   1  16 538.225 98.1369  10 
   6  -1 -16 474.096 96.9281  25 
   6  -1  16 405.443 79.0728  10 
   6  -1 -16 526.597 95.1890  21 
  -6  -1 -16 444.499 84.5105  16 
   6   1 -16 545.111 88.3942  21 
  -6  -1 -17 3789.44 213.739  16 
   6  -1 -17 3714.40 234.858  24 
  -6   1 -17 3638.40 234.397  17 
   6  -1 -17 3628.30 212.658  21 
  -6  -1 -17 3551.67 183.757  14 
  -6   1 -17 3833.96 200.131  21 
   6  -1  17 3361.68 204.629  10 
   6   1 -17 3608.10 201.145  21 
  -6   1 -17 3672.40 200.996  14 
   6  -1 -17 3393.03 225.274  25 
   6   1 -17 3563.01 216.626  25 
  -6  -1 -17 3844.31 199.343  15 
  -6  -1 -17 3635.93 193.763  21 
   6   1  17 3603.20 226.198  10 
  -6   1 -17 4068.76 226.285  16 
   6   1 -17 3742.50 223.300  24 
   6  -1 -18 2518.26 170.509  25 
  -6   1 -18 3050.63 160.957  14 
   6   1 -18 2482.44 165.817  24 
   6  -1 -18 2679.11 176.669  24 
  -6   1 -18 2938.50 158.803  21 
   6   1 -18 2691.76 172.009  25 
  -6  -1 -18 2672.07 162.883  16 
   6   1  18 2825.48 174.337  10 
   6  -1 -18 2737.44 164.018  21 
  -6  -1 -18 2875.39 152.984  21 
  -6   1 -18 2821.79 166.875  16 
   7  -1   0 56.1339 58.4137   1 
   7   1   0 33.5065 75.8644   4 
   7  -1   0 6.02882 32.0933  19 
   7   1   0 10.7320 26.9174   3 
   7  -1   0 28.8721 35.0687  11 
   7   1   0 22.5543 30.9081  12 
   7  -1   0 11.3825 24.8877  21 
   7  -1   0 73.0110 64.4262   4 
   7  -1   0 177.433 48.7829  23 
   7   1   0 6.31612 23.4136   2 
   7   1   0-11.5391 41.2034   1 
   7  -1   0 6.48480 30.1213  22 
   7   1   0-7.36920 31.1968  18 
   7  -1   1 84458.3 1683.41   1 
   7   1   1 81361.7 1583.07   1 
   7   1   1 73146.9 1024.77   2 
   7   1  -1 87899.8 1120.58  18 
   7  -1  -1 83316.6 976.827  22 
   7   1   1 85444.1 1136.65  27 
   7  -1  -1 86589.9 995.327  21 
   7  -1   1 82869.9 958.786  19 
   7  -1  -1 85545.6 1618.22   1 
   7   1  -1 80058.6 1734.47   4 
   7   1   1 83721.1 1097.16  18 
   7  -1   1 86335.9 1035.73  11 
   7  -1   1 76939.6 996.800  22 
   7  -1  -1 81961.1 971.764  11 
   7  -1  -1 82062.7 988.520  23 
   7   1   1 79246.2 1041.61  23 
   7  -1   1 86923.2 1755.93   4 
   7   1  -1 83003.0 1325.64   1 
   7   1   1 85718.8 1101.13   3 
   7  -1   1 77453.1 979.235  23 
   7  -1  -1 85487.4 1675.03   5 
   7   1   1 87755.7 1916.07   4 
   7   1   1 84009.6 1065.84  12 
   7  -1   1 81379.2 1019.90  21 
   7  -1  -1 88611.1 1685.38   4 
   7  -1  -1 89758.1 975.110  19 
   7  -1   2 8763.51 299.938  12 
   7   1   2 9365.24 635.702   4 
   7   1   2 9005.65 331.597  12 
   7   1   2 10199.1 361.667  18 
   7  -1   2 9992.14 310.504  19 
   7   1   2 8760.11 358.611   3 
   7  -1   2 10830.5 355.541   7 
   7   1  -2 9301.83 348.005  18 
   7  -1  -2 9648.29 303.791  11 
   7  -1   2 9106.53 556.262   1 
   7   1   2 9087.67 364.711   2 
   7  -1   2 9807.14 330.474  23 
   7   1   2 9565.48 364.379  27 
   7  -1   2 9265.87 329.718  11 
   7  -1   2 8660.95 561.121   4 
   7  -1  -2 10084.4 309.114  22 
   7   1   2 9612.10 352.726  23 
   7   1   2 9691.59 565.981   1 
   7  -1   2 9439.80 334.275  22 
   7  -1  -2 9014.54 306.209  23 
   7  -1  -2 9262.89 290.624  19 
   7  -1  -2 9877.15 538.333   4 
   7  -1  -2 7989.94 509.572   5 
   7  -1   2 9149.57 322.999  21 
   7   1  -2 9165.25 560.509   4 
   7  -1  -2 8436.76 484.968   1 
   7  -1  -2 9594.67 304.624  21 
   7  -1  -3 5574.40 225.041  19 
   7  -1   3 5776.72 247.500  12 
   7   1   3 6503.50 546.903   4 
   7   1   3 6545.87 292.529  18 
   7  -1  -3 5384.87 231.243  11 
   7  -1   3 5120.64 228.414  19 
   7  -1   3 5635.05 265.484  22 
   7  -1  -3 5482.16 434.545   5 
   7  -1  -3 6051.31 243.450  21 
   7   1   3 5893.45 281.098  23 
   7  -1   3 5490.74 451.808   1 
   7  -1   3 5618.94 265.813  11 
   7   1  -3 5878.01 282.044  18 
   7   1   3 5372.95 260.546  12 
   7  -1   3 5297.71 253.681  23 
   7  -1  -3 5543.38 234.224  22 
   7  -1   3 5521.29 461.390   4 
   7  -1   3 6406.54 280.295   7 
   7   1   3 6318.02 484.147   1 
   7   1   3 5647.02 288.909  27 
   7  -1  -3 5571.47 379.957   1 
   7  -1  -3 5677.84 399.290   4 
   7  -1  -3 5787.63 249.291  23 
   7  -1  -4 15255.8 628.926   4 
   7   1   4 15713.5 455.869  12 
   7   1   4 15946.4 481.037  23 
  -7  -1  -4 15406.3 362.016  14 
   7   1   4 16454.6 509.681  27 
   7   1   4 15931.5 831.199   1 
   7  -1  -4 14003.7 383.727  11 
   7  -1   4 16750.8 464.233   7 
   7  -1   4 15389.1 808.330   1 
   7   1  -4 15374.2 457.954  18 
   7  -1  -4 16516.9 774.371   5 
   7  -1  -4 17965.2 427.743  21 
   7   1   4 17822.0 489.563  18 
   7  -1  -4 14544.6 398.953  25 
   7  -1   4 15223.7 439.701  23 
   7  -1  -4 14928.2 401.609  24 
   7  -1  -4 14746.1 400.097  23 
   7  -1   4 15771.4 796.529   4 
   7  -1   4 16307.7 435.132  12 
   7  -1  -4 14461.7 584.801   1 
   7  -1  -4 15194.0 397.366  22 
   7   1  -4 16247.9 386.733  21 
   7  -1   4 16161.1 415.163  19 
   7   1   4 16711.5 920.190   4 
   7  -1   4 16019.5 466.113  22 
   7  -1  -4 14084.6 362.555  19 
   7   1   5 34915.1 708.920  12 
   7  -1  -5 37202.4 643.935  23 
   7  -1   5 36883.9 695.499  12 
   7  -1   5 35889.6 718.245   7 
  -7  -1  -5 35175.0 567.898   6 
   7   1   5 36096.5 778.681  23 
   7  -1   5 35818.3 1307.35   1 
  -7   1  -5 37429.8 622.502  17 
  -7  -1  -5 35250.8 584.848  14 
   7   1  -5 36144.0 605.106  21 
   7  -1  -5 35793.1 655.425  25 
   7   1   5 35213.6 779.707  27 
  -7   1  -5 34074.6 625.754  14 
   7  -1  -5 36335.9 597.881  19 
   7   1   5 36577.4 1359.71   1 
   7  -1  -5 37471.8 649.287  21 
   7  -1   5 34130.2 695.091  23 
   7  -1  -5 33207.0 610.005  22 
   7   1   5 36288.1 727.581  18 
   7   1   5 36754.4 1413.81   4 
   7  -1  -5 34122.5 1163.37   5 
   7  -1  -5 36211.1 660.849  24 
   7   1  -5 35341.2 726.675  18 
   7  -1   5 33041.6 706.618  22 
   7  -1  -5 37761.4 649.318  11 
   7  -1   5 35676.9 1263.19   4 
   7  -1  -6 11984.5 362.367  23 
   7  -1   6 11637.3 412.451  23 
   7   1   6 11882.4 839.470   4 
   7  -1  -6 11462.8 371.649  25 
   7   1   6 11746.8 406.412  18 
   7  -1   6 10672.8 744.059   1 
   7  -1  -6 10352.2 339.183  11 
  -7  -1  -6 9622.24 308.363  14 
   7   1   6 10910.0 361.613  10 
   7  -1   6 10281.1 703.953   4 
   7  -1  -6 11101.1 348.466  22 
   7   1  -6 10988.0 323.665  25 
   7  -1   6 11634.6 394.063  12 
   7   1  -6 11206.5 403.344  18 
   7   1   6 10608.7 433.580  27 
  -7   1  -6 11223.6 358.143  14 
   7   1  -6 10869.8 322.764  24 
   7  -1  -6 11398.5 370.685  24 
   7   1   6 11658.4 411.416  12 
   7   1   6 10913.4 776.948   1 
   7  -1   6 11456.3 408.200   7 
   7   1   6 11327.4 453.184  23 
   7   1  -6 10844.5 333.188  21 
   7  -1  -6 10895.9 678.058   5 
  -7   1  -6 11377.3 353.693  17 
   7  -1  -6 10693.9 346.583  21 
  -7  -1  -6 11881.6 336.198   6 
   7  -1  -7 35713.9 696.887  24 
   7   1   7 32666.0 805.362  27 
   7  -1   7 34925.0 722.362  12 
   7   1   7 32827.1 1453.98   4 
  -7   1  -7 34369.9 667.521  14 
  -7  -1  -7 37570.1 704.842  17 
   7  -1   7 33577.4 731.744   7 
   7   1  -7 35427.3 637.370  24 
  -7   1  -7 37113.5 682.788  17 
   7   1   7 36963.3 705.560  10 
   7   1  -7 35515.4 636.464  25 
   7  -1  -7 33715.0 1239.98   5 
   7   1   7 36360.1 1539.19   1 
   7  -1  -7 35748.3 696.631  25 
   7   1  -7 36191.3 648.047  21 
   7   1   7 36013.1 854.112  23 
  -7  -1  -7 35324.4 624.338   6 
   7   1   7 36966.2 776.061  12 
  -7  -1  -7 37470.1 642.156  14 
   7  -1   7 39973.1 805.022  23 
   7  -1  -7 35927.8 648.407  23 
   7  -1  -7 28065.4 600.878  21 
   7  -1   7 34918.2 1439.25   1 
   7  -1   7 36659.2 1390.96   4 
   7  -1  -7 36945.8 666.522  22 
   7  -1  -7 34082.1 650.699  11 
  -7  -1  -7 34411.2 602.960  16 
   7  -1   8 51951.9 984.497  23 
   7  -1   8 58338.5 1889.51   4 
   7   1   8 61029.9 1032.35  12 
   7   1   8 61471.0 972.441  10 
   7  -1  -8 63274.1 918.504  11 
   7  -1  -8 59133.3 956.343  25 
  -7  -1  -8 61403.3 974.320  17 
   7  -1  -8 57287.0 1708.49   5 
   7  -1   8 58978.4 1012.10   7 
   7   1   8 61473.3 1168.16  23 
  -7   1  -8 64049.1 954.334  17 
  -7  -1  -8 55976.8 829.334  16 
   7  -1  -8 63220.2 947.063  21 
   7   1  -8 59424.9 880.388  25 
   7   1   8 58916.3 2044.11   4 
   7  -1   8 55859.7 971.346  12 
  -7  -1  -8 50971.4 803.568  14 
   7  -1   8 58664.0 1983.40   1 
   7  -1  -8 61493.2 975.133  24 
  -7   1  -8 57883.5 906.783  14 
   7   1   8 55327.3 2043.35   1 
   7   1  -8 59817.3 880.109  21 
   7  -1  -8 60529.9 898.088  22 
   7  -1  -8 56702.9 894.499  16 
   7   1  -8 59260.6 882.132  24 
  -7  -1  -8 60323.8 869.235   6 
  -7  -1  -9 194.890 61.4094   9 
   7  -1   9 200.974 74.8555  23 
   7  -1  -9 219.666 60.6982  22 
   7  -1  -9 165.621 54.3240  16 
   7   1   9 193.907 67.3140  10 
   7  -1  -9 177.930 58.0045  11 
  -7  -1  -9 125.835 55.0042  17 
  -7   1  -9 191.463 58.7651  14 
   7  -1   9 214.265 68.2333   7 
  -7   1  -9 173.228 53.4514  17 
  -7  -1  -9 194.767 53.5465  14 
  -7  -1  -9 151.220 51.5621  16 
   7   1  -9 289.377 66.1093  25 
   7  -1  -9 178.311 60.2189  25 
  -7   1  -9 170.367 52.7279   6 
   7  -1  -9 232.082 70.3533  24 
   7   1   9 142.591 77.3934  23 
   7  -1   9 166.928 55.4361  12 
   7   1  -9 283.018 67.9363  24 
  -7  -1  -9 205.494 56.1046   6 
   7  -1  -9 230.348 67.0186  21 
   7   1  -9 145.125 42.9844  21 
   7  -1  10 12846.2 477.803  12 
  -7  -1 -10 13411.6 425.460   6 
   7   1  10 13533.5 579.441  23 
   7  -1 -10 12612.1 418.862  11 
   7  -1 -10 13091.7 469.204  25 
   7  -1 -10 13159.7 421.918  22 
  -7   1 -10 13343.0 468.370  17 
   7   1 -10 13312.7 440.903  24 
  -7  -1 -10 13584.6 488.297  17 
   7   1 -10 13542.6 431.934  21 
  -7  -1 -10 13126.1 420.221  16 
  -7   1 -10 13032.2 442.686   6 
   7  -1 -10 13570.4 458.615  21 
   7   1  10 13212.8 496.634  12 
   7  -1 -10 13118.9 469.881  24 
   7  -1  10 13337.9 507.156  23 
  -7  -1 -10 14034.7 427.057  14 
   7  -1 -10 13084.4 430.401  16 
  -7  -1 -10 12782.7 428.303   9 
  -7   1 -10 13258.6 445.951  14 
   7   1 -10 13562.4 442.682  25 
   7   1  10 14080.1 485.405  10 
   7   1  11 32723.3 793.709  12 
   7  -1 -11 28240.2 639.033  22 
   7  -1 -11 30869.8 668.766  11 
  -7   1 -11 28640.2 714.477  17 
  -7  -1 -11 28875.0 744.375  17 
   7  -1 -11 29451.8 671.710  16 
  -7   1 -11 32764.2 721.817  16 
   7  -1 -11 31126.6 753.845  25 
   7   1  11 27692.8 852.061  23 
   7   1 -11 29282.8 667.468  26 
  -7   1 -11 30346.3 696.146  14 
   7   1 -11 28965.3 689.649  25 
  -7   1 -11 28309.8 680.492   6 
   7  -1 -11 29923.3 708.593  21 
   7   1 -11 29808.4 667.133  21 
  -7  -1 -11 29450.4 660.713   9 
  -7  -1 -11 30199.2 670.239   6 
   7   1 -11 28768.0 688.065  24 
   7  -1 -11 30871.5 753.784  24 
   7   1  11 29805.5 736.129  10 
  -7  -1 -11 28064.3 630.475  14 
   7  -1  11 28053.3 728.173  12 
  -7  -1 -11 29243.5 659.327  16 
   7   1  12 57126.5 1249.00  23 
   7  -1  12 57053.9 1064.81  12 
   7   1 -12 61361.8 995.170  21 
   7   1  12 58467.7 1072.48  12 
  -7   1 -12 60704.6 1032.15   6 
   7  -1 -12 59091.7 960.156  11 
  -7   1 -12 56138.2 999.144  14 
  -7   1 -12 63926.4 1116.07  17 
   7  -1 -12 61656.9 1015.38  16 
  -7  -1 -12 59170.6 1122.49  17 
   7  -1 -12 62129.5 1109.66  25 
   7   1  12 63513.3 1115.42  10 
   7   1 -12 62728.8 1018.55  26 
  -7  -1 -12 56043.3 964.691   6 
  -7  -1 -12 60863.4 1006.53  16 
  -7   1 -12 62406.0 1034.20  16 
   7  -1 -12 63303.5 979.136  22 
  -7  -1 -12 62866.5 990.818   9 
   7  -1 -12 60949.1 1101.86  24 
   7   1 -12 61823.4 1049.33  24 
  -7  -1 -12 58479.0 942.637  14 
   7  -1 -12 66173.4 1086.90  21 
   7   1 -12 62142.9 1049.22  25 
   7  -1 -13 11843.8 401.698  22 
  -7   1 -13 11401.3 435.529   6 
   7  -1  13 12318.0 476.755  12 
  -7  -1 -13 12436.5 440.764  16 
   7   1 -13 11904.7 428.288  26 
  -7   1 -13 11279.1 426.679  16 
   7  -1 -13 10918.0 389.822  11 
  -7   1 -13 12178.4 442.857  14 
  -7   1 -13 11891.3 476.390  17 
  -7  -1 -13 11728.2 493.020  17 
   7   1  13 12055.0 468.050  10 
  -7  -1 -13 12137.2 412.086   9 
   7  -1  13 11012.1 428.242  10 
   7  -1 -13 11852.7 425.042  16 
  -7  -1 -13 12999.3 425.213  14 
  -7  -1 -13 11111.5 420.336   6 
   7  -1 -13 12027.4 459.012  21 
   7  -1 -13 12087.8 479.515  25 
   7   1 -13 11950.0 452.620  24 
   7   1 -13 12068.7 454.535  25 
   7  -1 -13 12342.9 485.140  24 
   7   1  13 13112.8 490.006  12 
   7   1 -13 12206.6 431.005  21 
   7  -1  14 1245.11 140.217  10 
   7  -1  14 1172.67 149.979  12 
   7   1 -14 1187.58 144.733  25 
  -7   1 -14 1314.55 164.972  17 
  -7  -1 -14 1307.86 144.400  16 
  -7   1 -14 1295.15 140.251  16 
   7  -1 -14 1035.51 144.541  25 
  -7  -1 -14 1128.59 121.810  14 
   7   1  14 1232.90 146.919  10 
   7   1 -14 1239.63 145.371  24 
  -7   1 -14 1311.11 143.119  14 
  -7   1 -14 1168.48 139.749   6 
  -7  -1 -14 1291.70 127.530   9 
  -7  -1 -14 1320.62 143.184  15 
   7   1 -14 1260.25 136.704  21 
   7  -1 -14 1208.19 152.899  24 
   7  -1 -14 1128.86 140.148  21 
   7  -1  15 592.866 98.8633  12 
   7  -1 -15 556.222 93.5271  21 
   7  -1 -15 549.726 104.024  25 
  -7  -1 -15 500.564 85.1823  16 
  -7   1 -15 557.161 109.508  17 
  -7   1 -15 537.060 93.6412  14 
   7  -1  15 459.565 85.2234  10 
  -7   1 -15 537.995 95.4317   6 
   7   1  15 506.570 96.3614  10 
  -7   1 -15 491.959 88.4396  16 
  -7  -1 -15 561.980 91.9127  15 
   7  -1 -15 458.803 90.5000  24 
   7   1 -15 551.609 100.859  25 
   7   1 -15 499.604 94.4968  24 
  -7  -1 -15 449.112 74.8203  14 
   7   1 -15 525.476 85.5246  21 
   7  -1  16 1363.39 134.088  12 
  -7   1 -16 1388.80 132.777   6 
   7  -1  16 1402.65 135.020  10 
  -7  -1 -16 1473.06 135.296  16 
   7   1 -16 1448.61 147.207  25 
   7   1  16 1469.18 147.097  10 
   7  -1 -16 1342.96 145.522  25 
   7   1 -16 1492.17 134.017  21 
  -7   1 -16 1484.63 141.278  16 
  -7  -1 -16 1621.31 133.190  15 
  -7   1 -16 1593.92 135.031  14 
  -7  -1 -16 1529.12 125.618  14 
  -7   1 -16 1503.86 157.797  17 
   7  -1 -16 1537.11 157.627  24 
   7  -1 -16 1474.09 141.759  21 
   7   1 -16 1451.98 145.324  24 
   7  -1 -17 53.9679 32.7973  25 
  -7  -1 -17 13.6968 28.1843  21 
  -7   1 -17 33.9982 37.6115  17 
  -7  -1 -17 79.6219 39.3196  16 
  -7  -1 -17 64.9484 33.7332  15 
  -7   1 -17 7.34512 31.1677  21 
  -7   1 -17 56.3584 36.7144  16 
   7   1 -17 17.6824 29.6790  24 
   7  -1 -17 54.9855 36.9161  24 
   7   1 -17 52.0906 40.1644  25 
  -7   1 -17-10.7788 23.6119  14 
  -7  -1 -17 64.8336 33.1821  14 
   7  -1 -17 6.33697 27.5188  21 
   7   1 -17 32.7093 31.2854  21 
   7   1  17 56.9805 34.7863  10 
   7  -1 -18 10568.7 308.987  21 
  -7   1 -18 11535.7 294.711  14 
  -7   1 -18 10241.5 275.736  21 
  -7   1 -18 11140.0 307.457  16 
   8  -1   0 204449. 1793.66  12 
   8   1   0 215459. 3305.09   4 
   8  -1   0 202174. 1775.85  19 
   8   1   0 211474. 1953.69  23 
   8  -1   0 195965. 2774.97   1 
   8  -1   0 206286. 1798.80   7 
   8   1   0 200830. 1913.09  12 
   8  -1   0 207514. 1873.94  11 
   8  -1   0 200043. 1845.05  21 
   8   1   0 197044. 2581.79   1 
   8   1   0 199543. 1982.56  18 
   8  -1   0 202655. 1859.18  23 
   8  -1   0 211224. 1878.78  22 
   8   1   0 202982. 1825.87  21 
   8  -1   0 195303. 2933.44   4 
   8   1   1 22526.1 1046.73   4 
   8   1   1 24094.7 584.722  12 
   8   1  -1 22288.4 988.832   4 
   8  -1   1 24410.6 562.762  21 
   8   1   1 23521.0 595.952  18 
   8   1  -1 23932.1 607.519  18 
   8   1   1 23720.6 616.335  27 
   8  -1   1 24187.6 542.086   7 
   8  -1  -1 24220.4 544.579  11 
   8  -1   1 21639.6 536.070  11 
   8  -1  -1 22955.4 931.139   4 
   8  -1   1 24308.0 1000.29   4 
   8   1   1 24071.6 590.075  23 
   8  -1  -1 22588.8 524.761  22 
   8  -1   1 22116.5 905.382   1 
   8  -1   1 23808.9 530.089  12 
   8  -1  -1 24425.0 554.705  23 
   8  -1  -1 25921.7 560.990  21 
   8  -1   1 23307.8 516.169  19 
   8  -1   1 27336.6 588.492  23 
   8   1  -1 23057.1 559.668  12 
   8  -1  -1 21735.6 853.775   1 
   8   1   1 22267.5 874.867   1 
   8  -1   1 24290.3 566.915  22 
   8  -1  -1 21777.3 492.241  19 
   8   1  -1 26002.5 541.116  21 
   8   1  -1 22827.6 546.935  23 
   8  -1   2 5722.87 499.401   4 
   8   1   2 5696.65 543.609   4 
   8   1   2 5090.04 270.961  12 
   8   1  -2 5300.21 253.835  23 
   8  -1   2 4610.64 432.314   1 
   8   1   2 5949.40 299.099  18 
   8   1  -2 4871.99 274.620  18 
   8  -1   2 5889.46 269.308   7 
   8   1   2 5561.06 472.187   1 
   8  -1  -2 4766.32 393.090   1 
   8  -1  -2 5110.41 435.951   4 
   8   1   2 5533.93 282.088  23 
   8  -1  -2 5309.97 259.230  23 
   8  -1   2 5311.08 265.514  11 
   8   1   2 4943.95 287.900  27 
   8  -1   2 5266.29 257.765  23 
   8  -1   2 5576.52 271.948  22 
   8  -1  -2 5293.44 244.998  11 
   8  -1   2 5142.55 249.127  12 
   8   1  -2 5654.94 245.277  21 
   8   1  -2 5290.22 467.785   4 
   8  -1  -2 5002.07 231.858  19 
   8  -1   2 5281.37 243.882  19 
   8  -1  -2 4912.75 236.341  21 
   8  -1  -2 5149.50 240.631  22 
   8   1  -2 5218.91 262.215  12 
   8  -1   3 5577.30 508.365   4 
  -8  -1  -3 5919.99 231.555  14 
   8  -1   3 5803.74 270.036  12 
   8   1  -3 5835.37 274.117  12 
   8  -1  -3 6226.75 267.393  11 
   8  -1  -3 5479.14 432.294   4 
   8   1  -3 5322.96 289.200  18 
   8  -1   3 5837.64 279.701   7 
   8  -1   3 5836.54 511.074   1 
   8   1   3 5530.54 304.329  27 
   8   1   3 5746.70 292.503  12 
   8  -1  -3 5726.65 255.794  22 
   8   1  -3 5992.34 263.879  23 
   8  -1   3 5622.45 256.687  19 
   8  -1  -3 5742.73 269.160  23 
   8  -1  -3 4769.92 232.848  21 
   8  -1   3 5201.07 270.577  23 
   8   1   3 6077.55 303.443  23 
   8   1   3 5852.36 566.631   4 
   8  -1  -3 5265.07 396.577   1 
   8   1   3 5511.73 287.975  18 
   8  -1  -3 4926.46 457.522   5 
   8  -1   3 5574.30 279.571  22 
   8   1   3 5669.89 505.179   1 
   8  -1  -3 5569.88 243.297  19 
   8   1  -3 5728.01 247.430  21 
   8  -1   4 19541.6 979.457   4 
   8  -1  -4 17125.3 737.231   4 
   8  -1   4 16150.7 493.556  23 
   8  -1   4 17863.6 529.873  22 
   8   1  -4 17551.9 441.302  21 
   8  -1  -4 18161.1 437.613  19 
   8  -1  -4 17667.9 462.723  11 
   8  -1   4 18134.9 507.798   7 
   8  -1  -4 16710.4 460.665  23 
   8   1   4 18175.8 571.634  27 
   8  -1  -4 16229.9 840.118   5 
   8   1   4 17645.1 522.046  12 
   8   1   4 16858.6 981.509   4 
   8  -1  -4 17663.3 462.366  22 
   8   1   4 16652.7 513.738  18 
   8   1   4 18174.6 961.422   1 
   8  -1  -4 16769.3 451.976  21 
   8   1  -4 16937.6 518.778  18 
   8  -1   4 16965.4 920.925   1 
  -8  -1  -4 17313.8 412.559  14 
   8   1   4 19383.6 572.612  23 
   8  -1   4 18054.3 493.387  12 
   8  -1   4 18954.3 524.545  27 
   8   1  -4 17060.3 473.661  12 
   8  -1   5 3086.26 406.320   4 
   8  -1  -5 2686.05 358.915   5 
   8  -1   5 3054.62 206.910  12 
   8   1   5 2845.39 215.872  12 
   8  -1   5 2907.41 206.652   7 
   8  -1  -5 2855.68 176.272  19 
   8  -1   5 2583.70 192.078  27 
   8   1   5 2821.65 227.610  27 
   8  -1   5 3037.83 218.940  23 
   8   1   5 2688.78 208.393  18 
   8   1   5 2807.29 224.877  23 
   8   1   5 2946.54 430.227   4 
   8  -1   5 2622.37 385.912   1 
   8  -1  -5 2576.90 180.775  11 
  -8   1  -5 3187.02 191.030  14 
   8  -1  -5 2819.71 186.511  22 
   8   1   5 3117.59 418.929   1 
   8  -1  -5 2823.62 191.238  25 
  -8  -1  -5 2852.92 167.737  14 
   8  -1   5 2903.11 209.731  22 
   8  -1  -5 2637.80 183.276  23 
   8  -1  -5 2742.50 188.445  24 
   8   1  -5 2845.52 213.992  18 
   8  -1  -5 2875.96 189.440  21 
   8   1  -5 2895.19 183.481  21 
  -8   1  -6 10947.0 372.578  14 
   8   1   6 10918.2 467.486  23 
   8   1   6 10553.9 848.995   4 
  -8  -1  -6 9422.96 312.826   6 
   8  -1  -6 10200.3 717.979   5 
   8   1  -6 11029.9 430.489  18 
   8  -1   6 10630.6 403.994  12 
   8  -1  -6 10800.2 368.818  11 
   8   1   6 10976.4 467.621  27 
   8  -1   6 10291.8 411.880   7 
   8   1   6 12011.8 446.888  18 
   8  -1  -6 10965.7 390.012  24 
   8   1  -6 11714.7 370.627  21 
   8  -1   6 11633.6 825.045   4 
   8  -1  -6 10989.4 389.692  25 
  -8  -1  -6 11289.3 347.409  14 
   8   1   6 10830.1 843.930   1 
   8  -1  -6 10875.2 369.195  23 
   8   1   6 9713.25 405.462  12 
   8  -1  -6 12178.4 387.829  22 
   8  -1   6 12409.2 450.180  23 
   8  -1  -6 11107.0 382.761  21 
   8  -1   6 10640.5 804.003   1 
   8   1   7 58387.8 1020.49  18 
   8  -1   7 60852.7 1035.33  12 
   8   1   7 63826.3 1196.49  27 
   8   1  -7 59062.3 871.900  24 
  -8  -1  -7 55272.3 835.755  14 
   8  -1  -7 57623.7 893.215  23 
   8  -1  -7 59967.1 975.342  18 
   8   1   7 58437.8 1044.73  12 
   8   1  -7 59273.1 902.953  21 
   8  -1   7 59892.9 1040.44   7 
   8  -1  -7 58411.2 962.004  24 
   8  -1   7 60074.2 1061.36  23 
   8  -1  -7 57678.3 906.157  11 
   8  -1  -7 58768.1 940.760  21 
   8   1   7 62471.1 1184.73  23 
  -8   1  -7 63628.8 931.820  17 
  -8   1  -7 64366.1 977.329  14 
   8  -1  -7 60550.2 972.497  25 
  -8  -1  -7 61244.9 863.427   6 
   8  -1  -7 63149.3 940.178  22 
   8   1  -7 59803.9 1035.11  18 
   8   1  -7 59282.0 873.793  25 
  -8   1  -8 404.172 77.7103  14 
  -8  -1  -8 552.264 84.1017   6 
   8   1   8 395.355 106.454  27 
   8  -1   8 411.989 83.1493  12 
   8  -1  -8 398.025 75.3213  11 
   8  -1  -8 436.334 87.4393  25 
   8   1  -8 462.153 82.1418  24 
  -8   1  -8 431.726 79.4983  17 
  -8  -1  -8 386.951 80.4571  17 
   8  -1   8 399.429 85.3407   7 
   8   1   8 423.522 109.868  23 
   8   1  -8 388.394 74.2026  21 
   8  -1   8 424.230 93.8577  23 
  -8   1  -8 406.823 79.5817   6 
   8  -1  -8 385.468 80.2411  24 
   8   1  -8 345.724 72.0915  25 
   8  -1  -8 353.024 79.6625  21 
   8   1   8 407.814 82.4051  10 
   8  -1  -8 347.733 73.0758  22 
   8   1   8 369.455 91.5782  12 
  -8  -1  -8 483.204 78.8285  14 
   8  -1   9 7510.27 374.168  12 
   8  -1  -9 7942.68 356.408  21 
   8   1   9 8681.69 407.153  12 
   8   1  -9 7974.24 333.341  25 
   8  -1  -9 7818.35 331.195  11 
   8   1  -9 8004.12 332.822  24 
  -8  -1  -9 8095.01 323.106   6 
  -8   1  -9 8212.60 349.885  17 
  -8  -1  -9 8085.80 359.459  17 
  -8   1  -9 7776.90 340.116   6 
   8   1   9 7849.47 348.838  10 
   8  -1  -9 7989.32 332.541  22 
   8  -1   9 7557.58 389.785  23 
  -8  -1  -9 7482.79 303.192  16 
   8   1   9 8019.75 449.531  23 
   8  -1  -9 7341.59 355.027  24 
   8  -1  -9 7353.78 357.502  25 
  -8  -1  -9 7242.80 303.057  14 
  -8   1  -9 8138.87 343.898  14 
   8   1  -9 8318.53 339.599  21 
   8  -1  10 17436.5 577.954  12 
  -8  -1 -10 19793.2 548.441   9 
  -8   1 -10 17335.5 522.632  14 
   8   1  10 17785.6 603.265  12 
   8   1 -10 19372.6 542.839  25 
   8   1 -10 19398.5 542.584  24 
   8   1  10 18952.7 704.239  23 
   8  -1 -10 18733.0 524.693  11 
   8   1  10 19189.2 568.040  10 
  -8  -1 -10 18674.8 575.712  17 
  -8  -1 -10 19993.3 516.672  16 
   8   1 -10 19145.3 532.132  21 
   8  -1 -10 18720.2 522.380  22 
  -8  -1 -10 16890.8 487.263   6 
  -8  -1 -10 19754.5 514.743  14 
   8  -1 -10 18655.8 577.154  24 
   8  -1  10 16107.6 589.981  23 
   8  -1 -10 18847.9 581.185  25 
  -8   1 -10 20533.3 579.666  17 
   8  -1 -10 20365.8 580.907  21 
  -8   1 -10 17776.4 533.037   6 
   8   1 -11 12661.2 447.277  24 
   8  -1  11 12705.3 497.777  12 
   8  -1  11 12311.2 513.494  23 
   8   1  11 11721.1 482.286  12 
  -8   1 -11 12169.7 434.368  16 
  -8  -1 -11 12798.6 423.684  16 
  -8   1 -11 13304.2 465.343   6 
   8  -1 -11 13275.7 437.789  11 
  -8  -1 -11 12170.0 427.418   9 
  -8  -1 -11 12663.6 483.491  17 
   8  -1 -11 11696.4 469.603  24 
  -8   1 -11 13570.6 466.522  14 
  -8  -1 -11 12392.5 426.540   6 
   8  -1 -11 12498.1 483.603  25 
   8   1  11 11961.7 565.309  23 
   8  -1 -11 13230.5 477.194  21 
   8  -1 -11 12026.7 414.664  22 
  -8   1 -11 12061.8 455.955  17 
  -8  -1 -11 12151.6 407.838  14 
   8   1  11 12952.1 468.850  10 
   8   1 -11 12963.0 453.030  25 
   8   1 -11 13316.2 442.661  21 
   8  -1  12 384.994 91.2632  12 
  -8  -1 -12 433.386 79.3177   6 
   8   1  12 428.194 101.233  12 
  -8   1 -12 441.438 88.7336  14 
  -8   1 -12 391.091 93.2793  17 
   8  -1 -12 412.714 101.014  25 
   8   1 -12 430.044 88.6468  24 
   8   1 -12 408.205 90.4181  25 
   8  -1 -12 484.449 101.541  21 
   8   1  12 401.972 84.3392  10 
  -8  -1 -12 457.434 82.7501  16 
   8  -1 -12 330.705 87.7203  24 
  -8  -1 -12 365.724 77.8790   9 
  -8  -1 -12 342.717 72.0792  14 
  -8   1 -12 453.881 91.3764  16 
   8   1  12 374.063 105.082  23 
  -8   1 -12 300.183 73.4140   6 
   8   1 -12 383.718 86.5031  21 
   8   1  13 2590.14 216.399  12 
   8  -1 -13 2281.81 208.823  24 
   8  -1  13 2779.40 226.870  12 
  -8   1 -13 2621.45 202.497   6 
  -8   1 -13 2320.11 205.028  17 
  -8  -1 -13 2563.76 184.469  14 
  -8   1 -13 2525.69 197.755  16 
   8   1  13 2498.93 198.715  10 
  -8  -1 -13 2117.99 176.143   6 
   8   1 -13 2402.78 198.003  25 
   8  -1 -13 2250.04 199.839  21 
   8   1 -13 2457.48 200.324  24 
   8  -1 -13 2451.31 213.612  25 
  -8   1 -13 2509.74 199.747  14 
  -8  -1 -13 2504.76 183.494   9 
   8   1 -13 2249.09 185.963  21 
  -8  -1 -13 2496.45 187.417  16 
   8  -1  14 585.789 105.044  12 
   8   1  14 661.278 99.3131  10 
  -8   1 -14 742.710 112.933  17 
   8  -1 -14 548.883 103.828  25 
  -8  -1 -14 632.691 99.5212  15 
   8   1 -14 701.557 107.759  25 
  -8   1 -14 605.176 100.601   6 
  -8   1 -14 767.202 110.909  16 
   8   1  14 603.104 99.7136  12 
  -8  -1 -14 639.735 93.1512  16 
   8   1 -14 634.984 103.182  24 
  -8   1 -14 587.369 96.7684  14 
  -8  -1 -14 642.897 88.3223  14 
   8  -1 -14 647.137 113.303  24 
   8  -1 -14 517.796 97.4531  21 
   8   1 -14 583.742 95.6847  21 
  -8  -1 -15 8230.90 324.401  15 
   8   1 -15 8083.93 316.573  21 
   8  -1 -15 7938.60 339.915  21 
   8  -1  15 8021.73 347.217  12 
   8  -1 -15 8031.46 358.586  25 
   8   1 -15 8363.00 342.419  24 
  -8   1 -15 7828.98 346.229  17 
  -8   1 -15 8038.93 325.973  16 
   8   1  15 8057.68 332.601  10 
  -8  -1 -15 7581.88 282.179  14 
   8   1 -15 7888.05 331.337  25 
  -8  -1 -15 7859.16 306.339  16 
   8  -1 -15 7929.17 355.070  24 
  -8   1 -15 7925.71 322.435   6 
  -8   1 -15 8268.65 326.590  14 
   8   1 -16 12567.6 393.851  24 
  -8  -1 -16 12756.6 360.802  16 
  -8  -1 -16 13065.7 371.516  15 
  -8   1 -16 13297.2 394.699  16 
  -8   1 -16 13129.5 383.803   6 
  -8  -1 -16 13648.2 341.351  14 
  -8   1 -16 12196.0 403.057  17 
   8   1  16 12050.9 369.023  10 
   8   1 -16 12353.2 365.667  21 
   8   1 -16 12559.4 393.378  25 
   8  -1  16 11430.7 369.895  12 
  -8   1 -16 12586.2 365.038  14 
   8  -1 -16 12814.7 395.624  21 
   8   1 -17 19.4604 29.5869  24 
   8   1 -17 16.3117 30.1142  25 
  -8   1 -17 23.4252 21.8148  14 
   8  -1 -17 3.56106 28.4438  21 
  -8   1 -17 25.4059 29.3191  16 
  -8   1 -17 40.0481 31.3558  21 
  -8  -1 -17-23.8568 29.4101  21 
   9   1   0-19.2174 37.8601  21 
   9  -1   0-6.05470 77.3197   4 
   9  -1   0 2.32742 27.7173  19 
   9  -1   0 72.6080 42.5078  12 
   9  -1   0 89.3037 96.3606   1 
   9   1   0-10.3245 32.9400  12 
   9   1   0-29.6822 93.8459   4 
   9  -1   0 17.6057 40.8549  11 
   9  -1   0-4.06911 24.9303   7 
   9  -1   0-21.5771 32.7727  21 
   9   1   0 1.08437 35.8633  18 
   9   1   0-37.9121 43.2397  23 
   9   1   0 25.4228 57.2878  27 
   9  -1   0 20.9047 34.9577  23 
   9  -1   0 1.81582 39.3090  22 
   9  -1  -1 32088.1 1220.48   4 
   9   1   1 31716.9 730.089  12 
   9  -1  -1 35959.2 721.229  22 
   9  -1   1 33803.2 690.135  12 
   9   1  -1 33436.8 1337.74   4 
   9   1   1 32589.0 771.032  18 
   9   1   1 35275.1 809.055  27 
   9  -1   1 30482.6 682.422  21 
   9  -1   1 35699.0 697.074   7 
   9  -1  -1 33815.8 697.795  11 
   9  -1   1 32459.6 710.677  11 
   9  -1  -1 29312.2 1049.04   1 
   9  -1   1 34383.4 731.447  22 
   9   1  -1 33296.4 685.790  21 
   9  -1   1 33773.6 716.206  23 
   9   1   1 34420.8 755.186  23 
   9  -1  -1 33910.8 703.215  23 
   9  -1  -1 33993.7 700.627  21 
   9   1  -1 34483.2 794.621  18 
   9   1  -1 35411.8 740.639  23 
   9  -1   1 33931.9 674.898  19 
   9  -1   1 30910.8 1196.08   1 
   9   1   1 33079.1 1406.15   4 
   9  -1  -1 31766.2 640.466  19 
   9  -1   1 36044.7 1344.56   4 
   9   1  -1 32857.2 719.291  12 
   9  -1  -2 12610.1 415.984  21 
   9   1   2 12320.2 751.233   1 
   9  -1   2 11921.9 421.636  23 
   9   1  -2 11668.6 460.739  18 
   9   1   2 13198.4 900.675   4 
   9   1   2 12540.3 452.455  12 
   9  -1  -2 12519.4 409.398  22 
   9  -1   2 11515.0 401.969   7 
   9  -1  -2 12441.0 405.927  11 
   9  -1   2 11915.5 427.250  11 
   9  -1   2 12208.9 767.012   1 
   9  -1   2 12892.8 425.715  12 
   9   1   2 13102.3 487.127  18 
   9  -1  -2 11682.6 720.265   4 
   9   1  -2 11650.2 412.788  23 
   9  -1   2 12487.7 444.209  22 
   9   1   2 12723.4 470.066  23 
   9  -1   2 12232.3 807.186   4 
   9  -1  -2 11789.1 405.124  23 
   9   1  -2 12315.5 431.474  12 
   9  -1  -2 13450.6 405.850  19 
   9   1  -2 10985.5 732.138   4 
   9   1   2 13017.6 493.814  27 
   9   1  -2 12506.7 400.024  21 
   9  -1   3 9284.77 714.210   4 
   9  -1   3 9189.68 708.494   1 
   9  -1   3 9738.88 379.284  12 
   9  -1  -3 9348.17 357.154  11 
   9  -1   3 8951.97 388.920  22 
   9   1   3 9226.27 427.211  27 
   9  -1   3 8899.92 361.569   7 
   9  -1   3 10498.8 417.038  27 
   9  -1  -3 8855.81 614.156   4 
   9   1   3 9233.15 713.871   1 
   9   1   3 9940.71 419.984  23 
   9  -1  -3 10410.0 353.865  19 
   9  -1   3 9885.69 400.174  23 
   9   1   3 9111.84 403.687  18 
   9  -1  -3 10224.9 383.107  23 
   9   1   3 9363.60 782.836   4 
   9   1  -3 8828.34 349.707  23 
   9   1  -3 9622.09 377.250  12 
  -9  -1  -3 9663.22 318.986  14 
   9   1  -3 9701.21 352.125  21 
   9  -1  -3 9155.70 354.389  22 
   9   1   3 8812.60 386.408  12 
   9   1  -3 9611.37 415.704  18 
   9  -1  -3 9818.47 369.877  21 
   9  -1   4 17181.1 1002.23   4 
   9  -1   4 18122.6 533.573  12 
   9   1  -4 17726.9 478.417  21 
   9  -1   4 16393.8 981.932   1 
   9  -1  -4 16764.4 498.414  23 
   9  -1  -4 18225.1 471.754  19 
   9   1   4 17333.7 566.778  18 
   9  -1  -4 17640.3 503.810  21 
   9   1  -4 16907.5 568.622  18 
  -9   1  -4 17131.0 478.002  14 
   9   1  -4 16542.0 494.306  12 
   9  -1  -4 16685.3 481.917  11 
   9  -1   4 18183.6 534.926   7 
   9   1   4 17506.1 1093.64   4 
   9  -1   4 19337.6 580.419  22 
   9   1   4 17119.9 1012.66   1 
  -9  -1  -4 18223.5 447.845  14 
   9   1   4 16433.9 584.391  27 
   9  -1   4 17551.1 554.568  23 
   9  -1  -4 17119.6 486.250  22 
   9   1   4 17169.1 580.815  23 
   9   1   4 17770.4 562.168  12 
   9  -1   4 18582.2 550.827  27 
   9   1  -5 648.771 93.0721  21 
   9  -1   5 696.213 237.352   1 
   9  -1  -5 532.697 83.3203  19 
   9  -1   5 662.507 107.427  12 
   9   1   5 753.246 123.191  18 
   9  -1  -5 651.936 98.0680  11 
   9  -1   5 681.534 109.432   7 
  -9  -1  -5 664.810 85.3111  14 
   9   1   5 831.334 132.991  23 
   9   1   5 728.534 229.225   1 
  -9   1  -5 812.823 103.266  14 
   9  -1  -5 632.132 96.3118  21 
   9  -1   5 656.375 110.655  23 
   9   1   5 645.931 123.708  27 
   9  -1  -5 674.739 104.077  23 
   9  -1  -5 686.051 103.566  22 
   9  -1   5 661.511 114.226  27 
   9   1  -5 590.235 105.566  18 
   9   1   5 676.854 120.359  12 
   9   1   6 279.369 76.3302  18 
   9   1  -6 247.626 78.3776  18 
  -9  -1  -6 253.463 52.7521  14 
   9  -1  -6 202.528 56.0797  11 
   9  -1   6 252.058 75.0096   7 
   9   1   6 316.012 90.3634  23 
   9  -1  -6 218.902 67.3128  18 
   9  -1   6 347.596 79.5707  12 
   9  -1  -6 287.234 72.1868  22 
  -9   1  -6 298.641 70.6370  14 
   9  -1  -6 289.672 72.6681  23 
   9  -1   6 308.559 89.3562  23 
   9   1  -6 298.657 67.7429  21 
   9   1   6 203.452 75.0914  27 
   9   1   6 264.191 83.6391  12 
   9  -1  -6 302.839 77.4597  21 
   9   1   7 6656.32 354.531  18 
   9   1   7 6912.72 368.948  12 
   9  -1   7 7791.09 359.181  18 
   9  -1  -7 6869.00 338.504  18 
   9   1  -7 6784.30 362.552  18 
  -9  -1  -7 6352.81 277.692  14 
   9  -1  -7 6493.84 311.403  11 
   9  -1   7 6789.62 350.891  12 
   9  -1  -7 6633.28 305.204  23 
   9   1   7 7312.89 411.324  27 
   9   1   7 7143.91 412.478  23 
   9  -1  -7 6538.31 310.051  22 
  -9  -1  -7 6813.60 281.696   6 
  -9   1  -7 7402.28 328.908  14 
   9  -1   7 6781.00 363.269  23 
   9  -1  -7 6877.31 331.581  21 
   9   1  -7 7217.26 316.193  21 
   9   1   8 1945.15 196.844  12 
  -9   1  -8 2186.75 180.522  14 
   9   1   8 1926.01 211.370  27 
   9  -1  -8 2116.80 181.845  22 
   9  -1  -8 2227.44 183.231  11 
  -9   1  -8 2298.99 186.726   6 
   9   1  -8 1997.25 172.499  21 
  -9  -1  -8 2176.22 164.229   6 
   9  -1  -8 1969.20 180.781  21 
   9   1   8 2320.06 241.848  23 
   9  -1  -8 1972.60 189.538  25 
  -9  -1  -8 2430.68 174.806  14 
   9  -1  -8 1807.52 181.701  24 
   9  -1   8 1919.74 201.054  23 
   9  -1   8 1258.81 155.340  12 
  -9   1  -8 2001.10 165.852  17 
   9   1   9 425.873 98.3166  12 
   9  -1  -9 352.783 86.2634  25 
   9  -1   9 601.029 112.336  12 
   9  -1  -9 446.290 88.7262  11 
  -9   1  -9 533.186 95.2873  17 
  -9  -1  -9 417.054 75.5379   6 
  -9   1  -9 544.635 100.810   6 
   9   1  -9 527.118 91.1522  21 
   9   1  -9 438.380 87.6178  24 
  -9   1  -9 481.343 91.0151  14 
  -9  -1  -9 427.785 81.6194  14 
   9  -1  -9 436.703 101.466  24 
   9  -1   9 432.786 101.733  23 
   9   1   9 556.882 130.818  23 
   9  -1  -9 376.074 85.2007  22 
   9   1  -9 464.929 88.1020  25 
   9  -1  -9 486.699 94.9691  21 
   9  -1  10 1497.33 176.868  12 
  -9   1 -10 1488.06 153.272  17 
   9  -1 -10 1429.27 166.198  24 
   9   1  10 1602.22 188.657  12 
   9  -1 -10 1508.30 171.357  25 
   9  -1  10 1582.22 186.154  23 
   9   1 -10 1513.09 152.489  25 
   9   1  10 1692.15 218.353  23 
   9  -1 -10 1557.37 155.164  22 
  -9   1 -10 1489.47 156.849   6 
   9   1 -10 1541.51 155.679  21 
  -9   1 -10 1460.42 153.099  14 
   9  -1 -10 1645.18 174.326  21 
   9   1 -10 1508.82 153.820  24 
   9  -1 -10 1454.38 153.195  11 
  -9  -1 -10 1553.00 144.039  14 
  -9  -1 -10 1684.49 164.842   9 
  -9  -1 -10 1526.72 140.837   6 
   9   1 -11 7063.75 324.851  24 
   9   1  11 7491.61 394.519  12 
  -9   1 -11 6658.12 314.777  16 
  -9   1 -11 7524.52 346.185  14 
  -9   1 -11 7416.19 352.058  17 
   9   1 -11 7174.45 324.136  25 
  -9   1 -11 6530.56 323.900   6 
   9  -1  11 6540.99 362.550  12 
   9   1  11 7034.67 435.082  23 
   9   1 -11 7242.52 331.586  21 
   9  -1 -11 7223.59 365.775  25 
  -9  -1 -11 6739.85 300.593  14 
   9  -1  11 6824.71 390.004  23 
  -9  -1 -11 7173.04 318.415   6 
  -9  -1 -11 7064.84 322.776   9 
   9  -1 -11 7848.69 372.218  21 
   9  -1 -11 7095.32 362.484  24 
   9  -1 -12 2212.81 207.451  25 
   9   1  12 2352.69 218.582  12 
  -9   1 -12 2189.66 190.972  17 
  -9  -1 -12 2464.80 180.143  16 
  -9  -1 -12 2194.30 176.389   6 
  -9   1 -12 3173.69 218.029   6 
  -9   1 -12 2385.84 193.654  14 
  -9  -1 -12 2223.89 168.424  14 
   9   1 -12 2394.23 192.370  24 
   9   1  12 2234.35 245.678  23 
   9   1 -12 2203.87 183.376  25 
   9  -1 -12 2084.39 196.975  21 
  -9  -1 -12 2283.41 178.198   9 
   9  -1 -12 2254.30 203.418  24 
   9  -1  12 2193.51 209.300  12 
   9   1 -12 2218.22 187.832  21 
  -9   1 -12 2342.91 181.246  16 
  -9  -1 -13 7195.37 294.254  14 
  -9  -1 -13 7569.17 303.498  16 
  -9   1 -13 7477.01 346.298  17 
  -9  -1 -13 7373.19 309.652   6 
  -9   1 -13 8406.64 340.176  16 
   9  -1 -13 7054.44 351.532  25 
   9  -1 -13 7136.58 355.206  24 
  -9   1 -13 7570.64 336.138  14 
   9  -1  13 7593.04 377.863  12 
  -9  -1 -13 8312.21 317.186   9 
  -9   1 -13 6732.19 313.779   6 
   9   1 -13 7564.27 330.417  25 
   9   1 -13 7674.75 334.048  24 
   9   1  13 8076.85 380.542  12 
   9   1 -13 7215.22 321.903  21 
   9  -1 -13 7033.53 340.423  21 
  -9   1 -14 1616.67 143.202  16 
  -9  -1 -14 1514.43 131.240  16 
   9   1 -14 1497.00 144.540  25 
  -9  -1 -14 1436.76 143.987  15 
  -9   1 -14 1421.70 145.205  17 
   9  -1 -14 1405.14 154.251  21 
   9   1 -14 1470.94 144.115  24 
  -9  -1 -14 1464.80 123.553  14 
  -9   1 -14 1421.10 142.612  14 
  -9   1 -14 1522.31 140.622   6 
   9   1  14 1507.35 153.533  12 
   9  -1  14 1344.88 149.559  12 
   9   1 -14 1449.07 139.426  21 
   9  -1 -15 92.3585 45.6006  21 
   9   1 -15 93.3456 48.6029  21 
  -9  -1 -15 68.6037 32.0587  14 
   9  -1  15 63.4957 42.2536  12 
  -9   1 -15 111.234 42.3726   6 
   9   1 -15 141.737 45.7892  24 
  -9   1 -15 103.305 48.7217  17 
  -9  -1 -15 86.1486 33.1478  15 
   9   1 -15 127.265 52.9267  25 
  -9   1 -15 72.9644 34.5456  14 
  -9   1 -15 74.7306 36.2743  16 
   9  -1 -16 76.1194 38.0274  21 
   9  -1  16 167.595 49.4038  12 
  -9   1 -16 99.2590 30.9476  16 
  -9   1 -16 88.8508 33.6990  14 
  -9  -1 -16 123.381 42.6496  15 
  -9   1 -16 99.5262 35.8069   6 
   9   1 -16 52.6618 38.6550  24 
   9   1 -16 40.6141 33.1400  25 
  -9  -1 -16 138.634 39.4671  21 
  10  -1   0 28119.8 1286.11   4 
  10  -1   0 26737.5 636.962  12 
  10   1   0 26247.3 734.610  18 
  10  -1   0 25955.2 664.405  11 
  10   1   0 25037.4 1284.04   4 
  10  -1   0 25241.5 669.173  21 
  10   1   0 27149.9 751.376  27 
  10   1   0 25872.2 685.168  12 
  10   1   0 27698.9 713.525  23 
  10  -1   0 24667.6 649.464  22 
  10  -1   0 28746.3 698.157  23 
  10  -1  -1 7646.56 660.883   4 
  10   1   1 7647.20 370.102  12 
  10   1  -1 6882.43 653.391   4 
  10   1   1 7946.63 410.941  27 
  10   1   1 7636.82 396.502  18 
  10   1  -1 8762.37 428.128  18 
  10   1   1 7930.73 742.945   4 
  10  -1   1 6952.98 608.588   1 
  10  -1  -1 7966.29 351.897  11 
  10  -1   1 8565.64 386.142  11 
  10  -1  -1 7764.06 364.584  21 
  10   1  -1 7924.56 352.001  21 
  10  -1   1 8875.71 387.992  23 
  10   1  -1 8278.76 414.058  27 
  10   1   1 7789.91 380.561  23 
  10  -1  -1 7761.51 352.894  22 
  10  -1  -1 7560.64 354.270  23 
  10   1  -1 7809.81 365.704  23 
  10  -1   1 7729.16 345.963  12 
  10  -1   1 7990.11 371.405  22 
  10   1  -1 7911.62 372.220  12 
  10  -1  -2 27548.5 621.783  19 
  10   1   2 28997.8 736.743  12 
  10   1   2 32234.2 823.712  18 
  10   1  -2 28320.7 779.889  18 
  10  -1  -2 31676.4 718.282  22 
  10  -1  -2 31887.8 715.423  11 
  10   1  -2 29029.6 713.834  12 
  10   1  -2 29991.9 714.464  23 
  10  -1  -2 29727.7 711.526  23 
  10   1   2 31180.1 789.439  23 
  10  -1   2 26209.9 1227.11   1 
  10  -1   2 28879.3 724.595  23 
  10   1  -2 27994.2 662.087  21 
  10  -1  -2 29592.4 712.050  21 
  10  -1   2 27719.4 715.148  22 
  10   1   2 31378.6 832.325  27 
  10  -1   2 30671.8 710.310  12 
  10  -1  -3-25.9123 36.8923  21 
  10  -1   3-11.9187 31.0463  12 
  10  -1  -3 33.8658 38.4534  23 
  10   1  -3 252.003 66.9288  12 
  10  -1  -3 22.5018 54.4967  22 
  10   1   3 152.017 59.0376  12 
  10   1  -3 89.1585 51.9609  23 
  10  -1  -3 54.8135 51.2061  11 
  10  -1   3 107.378 60.3067  27 
  10   1  -3 9.47672 46.0469  18 
 -10  -1  -3 5.14535 26.8035  14 
  10   1   3 26.3336 57.6334  27 
  10  -1   3 28.1732 50.7270  23 
  10   1   3 22.9591 59.4527  23 
  10  -1  -3 15.5913 32.1156  19 
  10   1   3 23.8069 39.4053  18 
  10  -1   3 9.40595 49.3810  22 
  10   1  -3 86.4152 50.9310  21 
  10   1  -4 1041.67 129.574  12 
  10  -1   4 1203.17 154.694  23 
  10  -1   4 1271.49 152.667  12 
  10   1   4 1220.35 178.287  27 
  10   1   4 1231.26 155.459  12 
  10  -1   4 1206.05 148.683  22 
  10   1   4 1193.83 159.700  18 
  10   1  -4 1185.27 165.467  18 
 -10  -1  -4 1135.48 114.519  14 
 -10   1  -4 1246.78 131.382  14 
  10  -1  -4 1300.26 143.565  11 
  10  -1  -4 1034.02 137.243  23 
  10   1   4 1198.16 158.254  23 
  10  -1  -4 1302.00 144.334  22 
  10  -1  -4 1223.90 146.682  21 
  10  -1   4 1320.73 154.268  27 
  10   1  -4 1489.22 155.396  21 
  10  -1  -5 65.8177 50.1797  21 
  10  -1   5 27.8740 48.3282  12 
  10  -1   5 53.4104 49.9954  18 
  10   1   5 20.5947 39.2349  18 
  10   1  -5 101.281 62.9096  18 
  10  -1  -5 95.9081 61.3602  22 
  10  -1  -5 83.9221 44.9840  18 
  10  -1  -5 51.5228 43.6262  11 
  10   1  -5 36.1308 34.8102  21 
 -10   1  -5 54.7907 47.4305  14 
  10  -1   5 68.9833 55.3199  23 
 -10  -1  -5 58.4696 33.1093  14 
  10  -1  -5 18.6533 39.3285  23 
  10   1   5 29.6155 52.3620  23 
  10   1   5 45.3802 40.6857  12 
  10  -1   5-0.58974 59.1281  27 
  10   1   5 210.292 94.3603  27 
  10   1  -6 187.815 59.8759  21 
  10  -1  -6 199.833 66.4538  11 
  10  -1  -6 206.842 77.4311  21 
 -10  -1  -6 276.717 66.1603  14 
  10  -1  -6 247.629 71.7831  18 
  10   1   6 311.047 87.1982  18 
  10   1  -6 292.234 84.4732  18 
  10   1   6 319.080 103.531  27 
 -10   1  -6 309.529 70.6829  14 
  10  -1   6 283.445 86.3888  23 
  10   1   6 289.763 100.816  23 
  10  -1  -6 260.105 73.7977  23 
  10  -1  -6 203.059 67.6445  22 
  10  -1   6 286.953 82.4318  12 
  10   1   6 284.555 97.2713  12 
  10  -1   6 235.728 79.8184  18 
 -10  -1  -7 747.854 100.910  14 
  10  -1  -7 766.845 114.525  22 
  10   1  -7 757.714 114.187  21 
  10  -1   7 902.374 137.473  12 
  10   1   7 738.671 134.126  12 
  10  -1   7 687.469 117.043  18 
  10  -1  -7 759.230 123.143  18 
  10   1  -7 837.227 139.383  18 
  10   1   7 622.755 118.482  18 
  10  -1  -7 813.480 118.445  11 
  10   1   7 747.769 137.116  27 
  10  -1  -7 601.340 110.728  21 
 -10   1  -7 715.002 112.282  14 
  10  -1  -7 642.599 102.671  23 
  10  -1   7 828.792 144.412  23 
  10   1   7 675.013 134.457  23 
  10  -1   8 5438.41 337.409  12 
  10   1   8 4923.40 333.959  12 
  10   1   8 4849.82 337.125  27 
  10  -1  -8 4722.74 271.009  11 
 -10   1  -8 4964.97 275.010   6 
 -10   1  -8 5239.98 284.057  14 
 -10  -1  -8 5090.83 247.421   6 
  10  -1   8 4447.11 319.839  23 
  10  -1  -8 4672.52 289.574  21 
  10  -1  -8 4671.94 271.605  22 
 -10  -1  -8 4242.44 236.658  14 
  10   1  -8 4853.74 277.617  21 
  10   1   8 5156.24 368.479  23 
 -10  -1  -9 1335.86 131.962  14 
  10  -1  -9 1197.99 142.537  11 
 -10   1  -9 1409.16 149.138   6 
  10  -1   9 1394.75 172.040  12 
 -10   1  -9 1390.22 146.757  14 
  10  -1   9 1379.07 184.328  23 
  10   1   9 1407.20 201.619  23 
  10  -1  -9 1204.79 141.232  22 
 -10  -1  -9 1367.00 129.463   6 
  10  -1  -9 1512.90 174.058  21 
  10   1   9 1220.12 171.733  12 
  10   1  -9 1297.82 145.081  21 
  10   1  10 11502.4 499.295  12 
 -10   1 -10 11504.8 397.940  16 
  10  -1  10 12068.4 502.996  12 
  10   1 -10 10917.8 412.997  21 
 -10  -1 -10 11389.9 415.158   9 
 -10  -1 -10 11048.8 377.481   6 
 -10  -1 -10 10051.3 363.838  14 
 -10   1 -10 11131.3 421.601   6 
 -10   1 -10 11210.1 424.807  14 
  10  -1  10 9522.87 470.201  23 
  10   1  10 10991.5 544.480  23 
  10  -1 -10 10948.4 449.867  21 
  10  -1 -11 851.055 128.116  21 
  10   1 -11 859.410 117.574  21 
 -10   1 -11 954.901 119.855   6 
  10   1  11 1042.66 150.547  12 
 -10   1 -11 1068.04 129.765  14 
 -10  -1 -11 930.149 108.729  14 
 -10   1 -11 921.963 115.619  16 
  10  -1  11 896.057 140.435  23 
  10   1  11 802.426 157.664  23 
 -10  -1 -11 932.778 111.182   6 
 -10  -1 -11 891.149 111.924   9 
  10  -1  12 9169.77 418.765  12 
  10   1 -12 8892.44 348.524  25 
  10   1  12 8887.87 406.529  12 
 -10  -1 -12 8879.63 320.664  14 
 -10  -1 -12 8665.17 324.044   6 
 -10   1 -12 9123.65 358.377   6 
 -10   1 -12 8975.46 345.241  16 
  10   1  12 8417.90 452.639  23 
 -10   1 -12 8662.80 357.208  14 
 -10  -1 -12 9305.32 342.012   9 
  10   1 -12 8540.16 341.082  24 
  10   1 -12 8636.93 353.558  21 
  10  -1 -12 9638.48 401.870  21 
 -10  -1 -13 13236.3 378.688   9 
  10   1 -13 13364.0 410.344  24 
  10  -1  13 14534.7 495.447  12 
  10   1 -13 13761.8 429.217  21 
  10  -1 -13 13416.1 459.340  21 
 -10   1 -13 13350.7 406.759  16 
  10   1 -13 13569.1 412.553  25 
 -10  -1 -13 15145.9 393.834  14 
  10   1  13 13287.0 469.709  12 
 -10   1 -13 14022.3 425.333   6 
 -10   1 -13 13709.2 423.312  14 
  10   1  14 7097.34 309.074  12 
 -10   1 -14 8714.34 306.010  16 
 -10   1 -14 7977.99 296.950  14 
 -10   1 -14 8540.52 309.683   6 
 -10  -1 -14 8001.61 310.249  15 
  10  -1  14 8903.39 359.622  12 
  10  -1 -14 7555.26 319.347  21 
  10   1 -14 7455.32 296.387  21 
  10  -1  15 4700.09 232.930  12 
  10  -1 -15 4105.13 224.138  21 
 -10   1 -15 4920.16 213.498   6 
 -10   1 -15 4538.51 200.891  16 
 -10  -1 -15 5314.59 225.452  15 
 -10   1 -15 4524.36 201.745  14 
  11   1   0-49.2933 73.4904  27 
  11   1   0 0.59877 35.5732  12 
  11   1   0-6.86933 50.6639  18 
  11  -1   0-78.1621 60.9557  22 
  11  -1   0 37.5803 69.3483  23 
  11  -1   0 19.1157 58.3662  11 
  11  -1   0 36.5505 57.1860  21 
  11   1   0-37.8816 64.6214  23 
  11  -1   0 65.9972 54.8734  12 
  11   1   1 18615.8 668.516  27 
  11  -1   1 20495.9 626.176  23 
  11  -1   1 19298.9 585.171  12 
  11   1  -1 20166.4 688.948  27 
  11   1   1 19574.3 622.841  12 
  11   1  -1 19249.3 610.175  12 
  11   1  -1 18968.2 670.357  18 
  11  -1  -1 19023.3 596.153  11 
  11   1   1 20848.8 697.021  18 
  11  -1   1 19736.3 622.221  22 
  11  -1  -1 19038.6 595.462  23 
  11   1  -1 20185.9 634.456  23 
  11   1   1 19127.4 634.974  23 
  11  -1  -1 18930.7 595.859  22 
  11  -1  -1 19292.3 617.125  21 
  11   1   2 5088.85 352.145  27 
  11  -1   2 5261.13 304.380  12 
  11   1  -2 4909.65 301.822  12 
  11   1  -2 4545.83 326.822  18 
  11  -1  -2 5329.74 344.405  18 
  11  -1  -2 5088.54 301.685  11 
  11   1  -2 4963.82 348.438  27 
  11   1   2 5142.62 346.028  18 
  11  -1  -2 4998.27 308.507  23 
  11   1  -2 5328.00 301.351  21 
  11  -1   2 5225.60 321.116  23 
  11  -1  -2 5009.63 308.813  21 
  11   1  -2 5190.69 313.354  23 
  11   1   2 5031.80 332.610  23 
  11  -1   2 4957.58 312.760  22 
 -11  -1  -2 4869.11 251.828  14 
  11   1   2 5306.66 325.178  12 
  11  -1  -2 5371.55 311.444  22 
  11  -1   2 5487.25 332.888  27 
  11  -1  -3 12305.2 488.011  21 
  11  -1   3 13749.6 500.901  12 
  11   1  -3 14359.1 582.861  27 
  11   1  -3 12471.6 468.247  12 
  11  -1   3 13067.3 536.063  18 
  11  -1  -3 15036.4 557.308  18 
  11   1   3 13365.9 526.628  12 
  11   1   3 13700.2 567.010  18 
  11   1  -3 13636.2 563.093  18 
  11   1  -3 13806.7 496.336  23 
 -11   1  -3 14702.0 482.276  14 
  11   1  -3 13108.5 470.367  21 
  11  -1  -3 12916.7 471.982  11 
  11  -1  -3 12738.2 477.081  22 
  11   1   3 13503.7 558.587  23 
  11  -1   3 13933.0 537.684  22 
  11   1   3 13647.5 578.897  27 
  11  -1   3 13794.1 527.237  27 
 -11  -1  -3 13523.7 411.739  14 
  11  -1  -3 13078.0 494.098  23 
  11  -1   3 13286.1 526.850  23 
  11  -1  -4 4630.87 288.042  22 
  11  -1   4 4566.40 298.131  12 
  11   1   4 4545.89 313.471  12 
  11   1   4 4429.93 334.995  27 
 -11   1  -4 4924.32 277.158  14 
  11   1  -4 4669.08 324.375  18 
  11  -1   4 5379.09 334.356  18 
  11  -1  -4 4979.04 319.344  18 
  11  -1  -4 4387.04 290.596  21 
  11  -1  -4 4657.01 281.315  11 
  11   1  -4 4265.19 269.143  21 
  11   1   4 4076.45 307.877  18 
  11  -1   4 4536.08 313.625  23 
 -11  -1  -4 5214.41 259.238  14 
  11   1   4 4724.28 330.194  23 
  11  -1  -4 4310.77 281.848  23 
  11  -1   4 4291.18 292.634  27 
  11  -1   5 2932.39 242.977  12 
  11   1   5 2640.69 251.236  12 
  11   1   5 2279.75 229.876  18 
  11   1   5 2875.89 267.591  27 
  11   1   5 2733.85 263.902  23 
 -11   1  -5 3129.25 222.065  14 
  11  -1   5 3248.26 263.308  23 
 -11  -1  -5 2835.70 192.578  14 
  11  -1  -5 2728.20 217.548  11 
  11  -1   5 2755.09 235.951  27 
  11   1  -5 2491.52 241.770  18 
  11  -1  -5 2656.83 217.395  23 
  11  -1  -5 2856.00 245.939  18 
  11  -1   5 3022.15 249.087  18 
  11  -1  -5 2502.82 213.229  22 
  11  -1  -5 2779.83 228.245  21 
  11   1  -5 2534.25 206.140  21 
  11  -1  -6 615.378 120.273  21 
  11  -1   6 575.239 107.820  12 
  11   1   6 461.927 104.440  12 
  11  -1   6 587.165 109.650  18 
  11  -1  -6 533.638 109.318  18 
  11   1   6 535.328 117.293  18 
  11  -1  -6 594.136 102.162  11 
  11   1  -6 423.539 105.783  18 
  11   1  -6 564.213 96.8297  21 
 -11  -1  -6 662.023 94.8527  14 
  11  -1  -6 549.793 107.062  23 
  11  -1   6 556.894 120.984  23 
  11   1   6 435.455 115.518  23 
  11   1   6 537.969 114.413  27 
  11  -1  -6 494.588 99.4169  22 
 -11   1  -6 526.475 92.6010  14 
  11   1   7 2236.48 229.235  12 
  11  -1   7 2427.55 214.395  18 
  11  -1  -7 2276.44 213.271  18 
  11   1   7 2209.70 221.164  18 
  11   1  -7 2237.88 227.731  18 
 -11  -1  -7 2158.47 167.578  14 
  11  -1  -7 2074.24 191.165  22 
  11  -1   7 2214.08 228.299  23 
  11   1   7 2156.63 232.087  27 
  11   1   7 2266.81 248.518  23 
 -11   1  -7 2459.24 196.790  14 
  11  -1   7 2559.27 231.376  12 
 -11   1  -7 2165.36 181.199   6 
  11  -1  -7 2096.21 192.837  11 
  11  -1  -7 2210.63 209.996  21 
  11   1  -7 2291.24 191.033  21 
  11   1   8 13065.1 543.755  12 
  11   1  -8 13304.6 466.168  21 
 -11  -1  -8 12988.7 408.095  14 
  11  -1  -8 12667.8 448.132  11 
 -11   1  -8 13137.8 443.175   6 
  11   1   8 12445.5 583.046  23 
  11  -1   8 12881.2 555.585  23 
  11  -1   8 12930.9 520.283  12 
 -11   1  -8 12270.1 443.732  14 
  11  -1  -8 12807.8 492.220  21 
  11  -1  -8 12999.3 455.957  22 
  11  -1   9 17724.2 605.474  12 
  11   1   9 15367.9 585.825  12 
  11   1   9 16836.4 682.242  23 
 -11   1  -9 17124.6 522.683  14 
 -11   1  -9 17392.3 470.918  16 
 -11  -1  -9 16791.1 461.408  14 
 -11  -1  -9 16878.4 511.603   9 
  11  -1   9 15876.0 603.553  23 
  11  -1  -9 16471.2 554.870  21 
  11   1  -9 16807.4 519.407  21 
 -11   1  -9 16623.7 498.896   6 
  11   1 -10 192.826 65.1283  21 
  11   1  10 198.741 76.3803  12 
  11  -1 -10 285.579 86.1399  21 
 -11  -1 -10 136.543 44.6584   9 
 -11   1 -10 182.572 57.8367  16 
 -11   1 -10 220.454 54.9038   6 
  11   1  10 181.757 88.7040  23 
 -11  -1 -10 164.072 51.1367  14 
  11  -1  10 87.6199 59.8165  23 
  11   1 -10 145.185 67.9914  27 
  11  -1  10 155.938 71.6254  12 
 -11   1 -10 185.409 59.8471  14 
  11   1 -11 895.302 119.115  21 
  11  -1 -11 1002.84 136.595  21 
 -11   1 -11 1619.56 146.439   6 
  11  -1  11 1074.38 144.891  12 
  11   1  11 1107.60 146.722  12 
 -11   1 -11 1049.03 114.114  16 
  11  -1  11 957.794 149.354  23 
 -11   1 -11 1076.04 124.401  14 
 -11  -1 -11 885.445 97.6206  14 
 -11  -1 -11 963.997 112.228   9 
  11   1  11 969.821 156.206  23 
  11   1  12 77.1915 61.9773  23 
  11   1  12 49.1488 33.0160  12 
 -11   1 -12 92.4666 36.8800  16 
  11  -1  12 184.976 76.8653  12 
  11  -1 -12 116.602 45.2628  21 
 -11   1 -12 104.423 45.2336  14 
 -11   1 -12 102.624 41.3225   6 
  11  -1  12 123.961 71.0381  23 
  11   1 -12 63.8553 47.2259  21 
 -11  -1 -12 122.825 44.5916   9 
 -11   1 -13 16451.7 421.326   6 
  11  -1  13 16528.0 501.348  12 
  11   1 -13 14299.3 406.655  21 
 -11   1 -13 15974.9 397.089  16 
 -11   1 -13 15371.4 412.108  14 
  11   1  13 14929.3 466.301  12 
  11  -1 -13 14928.5 457.109  21 
 -11   1 -14 2234.00 141.434   6 
  11  -1  14 2253.75 164.100  12 
  11   1  14 1929.24 147.839  12 
 -11   1 -14 2038.45 137.202  14 
 -11  -1 -14 2246.39 148.730  15 
  11  -1 -14 1795.38 154.903  21 
  12  -1   0 44027.7 967.799  23 
  12   1   0 47742.9 1038.21  23 
  12  -1   0 44019.9 884.238  12 
  12   1   0 43268.4 960.465  12 
  12  -1   0 49191.6 1071.13  18 
  12   1   0 43035.5 1066.59  27 
  12   1   0 45666.3 1093.26  18 
  12  -1   0 43507.5 953.527  22 
  12  -1   1 8288.11 383.475  12 
  12   1  -1 8279.56 451.792  27 
  12   1   1 7760.05 408.464  12 
  12   1  -1 7675.95 393.231  12 
  12  -1   1 8926.29 445.827  18 
  12  -1  -1 8734.04 446.016  18 
  12   1   1 8212.21 456.134  18 
  12   1  -1 8019.35 447.782  18 
  12   1   1 7678.04 449.954  27 
  12  -1   1 9061.83 447.627  27 
 -12  -1  -1 8552.97 332.031  14 
  12  -1  -1 8667.14 419.120  23 
  12  -1   1 7365.30 399.159  23 
  12   1   1 8338.09 431.867  23 
  12  -1  -1 8550.31 411.850  22 
  12  -1   1 7655.33 397.120  22 
  12   1  -1 7704.20 403.933  23 
  12   1   2 8782.91 468.027  18 
  12   1  -2 9057.49 474.893  18 
  12  -1  -2 9062.09 418.569  23 
  12   1   2 8706.86 432.364  12 
  12  -1  -2 9830.90 477.444  18 
  12   1  -2 8574.22 404.574  12 
  12  -1   2 9595.13 466.124  18 
  12   1   2 8181.47 462.385  27 
  12  -1   2 9438.13 448.113  23 
  12  -1  -2 7949.03 410.414  21 
 -12  -1  -2 9122.10 344.059  14 
  12   1  -2 8815.99 420.937  23 
  12   1  -2 8605.32 466.193  27 
  12   1   2 10453.7 490.199  23 
  12  -1   2 9104.47 414.455  12 
  12  -1  -2 8888.39 412.640  22 
  12  -1   2 9275.38 446.943  27 
  12  -1   2 8201.43 415.233  22 
  12  -1  -2 8154.60 394.867  11 
  12  -1   3 52182.5 1107.37  23 
  12  -1   3 62425.2 1204.65  18 
  12   1   3 55137.0 1187.90  18 
  12  -1   3 62549.3 1189.97  27 
  12   1  -3 49461.8 958.956  12 
  12  -1  -3 51982.9 1001.30  11 
  12   1  -3 51746.3 1148.54  27 
  12   1   3 55177.0 1130.64  12 
  12   1  -3 54333.1 1003.67  21 
  12   1   3 54412.9 1219.32  27 
  12   1  -3 55258.5 1202.88  18 
  12   1   3 54499.6 1185.95  23 
  12   1  -3 50875.2 1012.02  23 
  12  -1  -3 54105.5 1057.15  23 
 -12   1  -3 55449.7 977.232  14 
 -12  -1  -3 58025.6 902.048  14 
  12  -1   3 53876.6 1052.01  12 
  12  -1  -3 56854.0 1147.14  18 
  12  -1  -3 53741.8 1025.31  22 
  12  -1  -3 54086.0 1081.53  21 
  12   1   4 36765.0 918.737  12 
  12  -1  -4 36324.8 904.396  18 
  12  -1   4 37823.9 912.912  18 
  12   1   4 40572.0 1012.18  18 
  12   1  -4 35567.6 947.887  18 
  12  -1  -4 37298.0 844.458  23 
  12  -1  -4 37213.3 833.829  22 
 -12  -1  -4 35582.2 689.362  14 
  12  -1  -4 34076.0 795.673  11 
  12   1  -4 40650.4 1011.57  27 
  12   1  -4 33260.8 777.486  21 
 -12   1  -4 40109.1 829.744  14 
  12   1   4 34294.4 946.062  27 
  12  -1   4 38124.4 949.471  23 
  12  -1   4 36888.2 902.497  27 
  12   1   4 34903.1 949.447  23 
  12  -1   4 35783.2 855.713  12 
  12  -1  -4 35955.6 867.496  21 
 -12  -1  -5 1242.26 127.209  14 
  12  -1  -5 1247.51 166.563  21 
  12   1  -5 1221.27 146.552  21 
  12  -1   5 1274.97 166.259  12 
  12   1   5 1097.97 174.300  27 
  12  -1   5 1213.10 167.064  18 
  12  -1  -5 1165.10 164.345  18 
  12   1   5 1253.63 177.231  12 
  12   1   5 1295.42 175.936  18 
  12  -1  -5 1227.88 152.971  11 
  12  -1   5 1147.76 157.811  27 
  12  -1  -5 965.734 135.984  22 
  12   1   5 1456.81 200.985  23 
  12  -1   5 1285.00 179.542  23 
 -12   1  -5 1428.22 152.467  14 
  12  -1  -5 1091.19 140.692  23 
  12   1  -5 1122.81 172.369  27 
  12   1  -5 1307.26 182.371  18 
  12  -1  -6 145.467 77.3614  21 
  12   1  -6 156.748 68.8181  21 
 -12   1  -6 63.6452 35.6158   6 
  12  -1   6 131.966 59.5481  12 
  12   1   6 14.3744 44.1989  12 
  12  -1  -6 95.8616 65.6919  18 
  12   1  -6 67.1368 55.2000  18 
  12  -1  -6 70.0262 56.0957  11 
  12   1   6 57.8008 40.0594  18 
  12   1   6 126.959 66.2609  27 
 -12  -1  -6 136.295 47.3931  14 
  12  -1  -6 109.212 65.0272  23 
  12  -1   6 93.6709 68.0500  23 
  12   1   6 89.2617 60.1337  23 
  12   1  -6 218.637 92.1724  27 
  12  -1   6 94.2698 39.7480  18 
  12  -1  -6 114.194 57.8408  22 
 -12   1  -6 62.9694 45.1221  14 
  12  -1   7 2208.77 212.045  12 
  12  -1   7 2379.65 213.227  18 
  12   1   7 2015.28 211.642  18 
  12   1  -7 2029.16 212.385  18 
  12   1  -7 2105.03 223.635  27 
  12  -1  -7 1639.40 175.693  11 
  12   1   7 1905.50 219.415  27 
 -12  -1  -7 1992.82 154.809  14 
  12  -1  -7 1864.62 177.991  22 
  12  -1  -7 2013.07 201.819  18 
  12   1  -7 2145.77 191.976  21 
  12  -1   7 1907.60 211.363  23 
 -12   1  -7 2232.85 190.453  14 
  12   1   7 2044.05 213.543  12 
  12   1   7 1779.76 216.543  23 
  12  -1  -7 2023.81 204.791  21 
 -12   1  -7 2042.65 169.432   6 
 -12   1  -8 5125.25 276.870  14 
  12   1   8 4999.58 330.177  12 
  12  -1  -8 4838.88 309.299  21 
  12   1  -8 4640.41 323.617  27 
  12  -1   8 5187.23 345.765  23 
  12   1  -8 4885.13 280.599  21 
 -12  -1  -8 4808.76 235.909  14 
 -12   1  -8 5023.98 260.228   6 
  12  -1   8 4932.56 317.894  12 
  12   1   8 5016.40 364.538  23 
  12  -1   9 7408.91 389.192  12 
 -12   1  -9 7565.21 314.338   6 
  12   1  -9 7226.81 382.157  27 
 -12  -1  -9 7910.95 334.948   9 
 -12   1  -9 8721.75 352.991  14 
  12   1  -9 7527.48 336.768  21 
  12   1   9 8084.13 456.249  23 
  12  -1   9 7277.96 396.804  23 
  12   1   9 7848.15 402.484  12 
  12  -1  -9 7797.20 375.017  21 
  12   1 -10-48.0550 41.6940  21 
  12  -1  10-26.8331 37.4737  12 
  12   1 -10 101.917 62.9194  27 
  12   1  10-25.5108 44.3537  12 
 -12   1 -10 63.1025 38.9013   6 
 -12   1 -10 24.9556 33.6952  14 
  12  -1 -10 77.3916 54.3450  21 
  12  -1  10 21.3651 48.3252  23 
  12   1  10 48.9703 71.0783  23 
 -12  -1 -10-24.1004 31.8460   9 
  12  -1  11 1623.55 169.493  12 
  12   1  11 1723.43 174.892  12 
  12   1 -11 1349.62 135.288  21 
 -12   1 -11 1829.21 142.004   6 
  12  -1  11 1378.05 166.930  23 
 -12   1 -11 1794.74 147.043  14 
 -12  -1 -11 1665.84 132.961   9 
  12   1  11 1488.72 181.483  23 
  12  -1 -11 1539.46 161.113  21 
  12   1  12 1671.50 156.359  12 
 -12   1 -12 1523.89 128.020  14 
 -12   1 -12 1613.01 123.516   6 
  12  -1  12 1528.45 149.606  12 
  12  -1 -12 1447.26 148.891  21 
  12  -1  13 1294.67 127.051  12 
  12   1  13 1184.04 118.367  12 
 -12  -1 -13 1285.89 112.826  15 
  12  -1 -13 953.149 114.832  21 
 -12   1 -13 1305.81 107.433  14 
 -12   1 -13 1248.63 101.083   6 
  13  -1   0 32.7560 57.6533  27 
  13   1   0 14.2765 60.7906  27 
  13   1   0 1.40290 52.6170  23 
  13   1   0 71.6934 54.9746  12 
  13   1   0-1.21884 57.6005  18 
 -13  -1   0 46.3996 40.8201  14 
  13  -1   0 41.9703 64.0071  23 
  13  -1   0-1.44244 42.8117  18 
  13  -1   0-5.91741 60.1661  22 
  13   1   1 1785.06 198.589  12 
  13  -1  -1 1697.72 190.604  23 
  13  -1   1 1787.12 177.273  12 
  13   1   1 1866.39 230.727  27 
  13  -1   1 1896.70 215.682  18 
  13   1  -1 1795.82 225.454  27 
  13  -1   1 1716.43 198.014  23 
  13  -1   1 1956.87 208.416  27 
 -13  -1  -1 1719.61 147.914  14 
  13   1   1 1907.31 227.181  18 
  13   1  -1 1912.30 203.373  23 
  13   1  -1 1848.27 220.586  18 
  13   1   1 1705.06 210.865  23 
  13   1  -1 1524.90 179.387  12 
  13  -1  -1 1635.65 197.988  18 
  13  -1  -1 1759.04 190.040  22 
  13  -1  -1 2147.21 226.388  27 
  13  -1   2-20.2166 44.9381  12 
  13   1   2 10.2066 51.6430  12 
  13   1  -2-15.8557 48.5033  12 
  13  -1  -2-12.7804 45.5412  18 
  13   1   2 31.8684 50.8577  18 
  13   1  -2 16.4154 55.3824  18 
 -13   1  -2-35.7722 32.9483  14 
  13   1   2 11.9311 70.5990  27 
  13  -1   2 61.7069 62.7942  27 
  13  -1   2 30.4506 48.1336  18 
  13  -1  -2 92.0095 67.4772  23 
  13  -1   2 58.7469 76.9796  23 
  13   1  -2 22.8238 55.2991  23 
  13   1   2-36.6252 62.3145  23 
  13   1  -2 147.994 87.4038  27 
  13  -1  -2 11.2858 54.8121  22 
  13   1  -3 12550.8 560.592  27 
 -13   1  -3 14237.5 481.626  14 
  13  -1   3 13327.8 509.664  12 
  13  -1   3 14219.3 571.049  18 
  13  -1  -3 14628.1 575.193  18 
  13   1  -3 13812.7 595.656  18 
  13   1   3 15359.8 621.156  18 
  13  -1   3 13178.0 536.534  27 
  13  -1  -3 13015.0 489.823  22 
  13   1   3 14380.4 609.956  27 
  13  -1  -3 13235.3 511.913  23 
  13  -1  -3 11609.4 499.133  21 
  13  -1   3 13700.8 558.113  23 
  13   1   3 14223.1 592.399  23 
  13   1   3 13140.8 535.222  12 
  13  -1   4 49368.9 998.552  12 
  13  -1  -4 45904.8 921.142  22 
  13  -1   4 52422.1 1084.87  18 
  13  -1  -4 48681.0 1052.31  18 
  13   1   4 49208.7 1055.68  12 
  13   1   4 47489.7 1107.50  23 
  13  -1   4 42960.1 970.265  27 
  13  -1  -4 49386.5 967.942  23 
  13   1  -4 50135.5 1113.77  27 
  13  -1   4 49947.9 1093.73  23 
 -13   1  -4 48596.0 901.803  14 
  13   1   4 48832.9 1132.48  27 
 -13   1  -4 48218.0 804.853   6 
  13   1   4 47278.9 1092.94  18 
  13  -1  -4 45057.0 981.544  21 
  13   1  -4 47467.4 1102.81  18 
  13   1  -5 48294.0 1075.58  27 
  13  -1  -5 43747.8 893.545  23 
  13  -1   5 45391.2 1037.13  23 
  13   1   5 44369.0 1077.04  23 
  13  -1   5 50207.6 1006.74  12 
  13  -1   5 47359.7 1010.17  18 
  13  -1  -5 46363.3 1006.27  18 
  13   1   5 50020.3 1099.59  18 
 -13   1  -5 49806.5 814.633   6 
 -13   1  -5 50059.6 900.420  14 
  13   1   5 49439.5 1050.56  12 
  13  -1  -5 45436.9 973.900  21 
  13   1   5 47403.0 1104.38  27 
  13   1  -5 43486.0 1033.10  18 
  13  -1  -5 46080.4 902.129  22 
  13  -1   5 43463.1 948.446  27 
  13   1   6 13571.1 546.879  12 
  13   1   6 13527.0 540.912  18 
  13  -1   6 13460.8 518.705  18 
  13  -1  -6 13537.6 520.511  18 
  13   1  -6 13169.1 538.227  18 
  13   1  -6 12905.7 538.463  27 
  13   1  -6 12220.7 450.805  21 
  13   1   6 13191.4 562.488  27 
  13   1   6 13135.5 578.723  23 
  13  -1   6 13488.5 551.313  23 
  13  -1   6 14042.8 523.724  12 
 -13   1  -6 13241.8 405.457   6 
 -13   1  -6 14156.1 457.915  14 
  13  -1  -6 13438.9 514.564  21 
  13  -1   7 11201.2 463.142  12 
  13   1   7 9861.93 454.865  12 
 -13   1  -7 10408.1 380.898  14 
  13   1   7 10984.9 465.678  18 
  13   1  -7 9541.46 439.173  18 
 -13   1  -7 9764.98 340.516   6 
  13   1   7 10252.0 507.004  23 
  13  -1   7 10922.3 494.993  23 
  13   1  -7 10260.9 468.506  27 
  13   1  -7 9414.42 384.875  21 
  13  -1  -7 9776.72 418.793  18 
  13  -1   7 9907.57 417.517  18 
  13  -1  -7 10040.8 430.321  21 
  13  -1  -8 59.8975 47.1912  21 
  13   1  -8-60.5913 37.7662  21 
  13   1  -8-62.5321 56.9858  27 
  13   1   8 10.4791 41.4215  12 
 -13  -1  -8 51.8097 35.7407   9 
 -13   1  -8 7.78474 26.6801   6 
  13  -1   8-40.3816 50.3851  12 
  13  -1   8-45.7637 57.1182  23 
  13   1   8 43.7049 54.0215  23 
 -13   1  -8 24.3901 31.2202  14 
  13   1  -9 339.249 82.1015  21 
  13   1   9 376.213 92.8683  12 
  13   1  -9 509.787 106.506  27 
  13  -1   9 513.437 99.9600  12 
 -13   1  -9 416.016 76.5188  14 
  13  -1  -9 340.541 91.9247  21 
  13   1   9 309.361 94.7404  23 
 -13  -1  -9 443.400 77.7045   9 
  13  -1   9 413.378 110.447  23 
 -13   1  -9 401.301 65.8165   6 
 -13   1 -10 1582.35 132.949  14 
  13   1 -10 1229.97 145.075  27 
  13  -1  10 1680.95 165.155  12 
 -13   1 -10 1531.07 120.420   6 
 -13  -1 -10 1514.84 122.835   9 
  13  -1 -10 1261.45 152.978  21 
  13  -1  10 1132.87 149.549  23 
  13   1  10 1415.83 176.403  23 
  13   1  10 1492.34 161.704  12 
  13  -1  11 2242.46 184.610  23 
  13  -1  11 3142.55 208.513  12 
  13  -1 -11 2581.54 190.730  21 
 -13   1 -11 2663.07 146.583   6 
 -13   1 -11 2773.71 164.354  14 
  13   1  11 2770.96 201.624  12 
  13   1  11 2471.83 212.793  23 
  13  -1  12 7983.67 304.685  12 
 -13   1 -12 8624.59 257.109  14 
  13   1  12 8554.39 310.897  12 
  14   1   0 14293.1 546.187  23 
  14   1   0 13567.8 501.236  12 
  14   1   0 14553.5 601.173  18 
 -14   1   0 14152.0 476.160  14 
  14  -1   0 15300.0 574.503  27 
  14   1   0 12991.1 570.686  27 
  14  -1   0 13038.6 519.134  23 
  14  -1   0 14136.0 565.333  18 
  14  -1  -1 3107.86 258.134  18 
  14   1  -1 3488.71 294.134  18 
  14   1  -1 2479.48 210.919  12 
  14  -1   1 3066.00 258.964  18 
  14   1   1 3335.55 285.700  18 
 -14   1  -1 3093.69 215.602  14 
  14   1  -1 3213.30 284.569  27 
  14   1  -1 2972.64 244.975  23 
  14   1   1 2681.71 234.641  12 
  14  -1  -1 2831.01 253.834  27 
  14  -1  -1 3089.37 251.580  23 
  14  -1   1 3125.49 255.421  23 
  14  -1   1 2732.26 238.710  27 
  14   1   1 3054.65 260.941  23 
  14   1   1 3079.14 280.819  27 
  14   1   2 6083.16 342.389  12 
  14  -1   2 6101.11 363.338  18 
  14  -1  -2 6109.25 361.531  18 
  14   1   2 6243.98 391.498  18 
  14   1  -2 6112.24 389.338  18 
  14  -1   2 5393.43 336.831  27 
 -14   1  -2 5524.30 286.768  14 
  14  -1   2 5853.49 355.622  23 
  14   1  -2 5478.01 363.764  27 
  14  -1  -2 6039.95 339.750  23 
  14  -1   2 5709.32 304.602  12 
  14   1   2 5109.37 354.241  27 
  14   1  -2 5511.70 322.025  23 
  14   1   2 6334.88 373.819  23 
  14  -1  -2 5753.73 349.981  27 
  14   1  -3 40740.6 979.941  27 
  14   1   3 39181.5 978.521  27 
  14  -1   3 40688.6 933.743  18 
  14  -1  -3 40218.5 945.103  18 
  14   1   3 42456.1 1010.50  18 
  14  -1  -3 34987.5 775.606  22 
  14  -1   3 35340.4 855.117  27 
  14  -1   3 41041.5 953.908  23 
 -14   1  -3 39708.2 777.746  14 
  14  -1  -3 38624.5 930.630  27 
  14  -1  -3 40483.5 874.507  23 
  14   1   3 37051.4 935.479  23 
  14  -1   3 39567.1 835.395  12 
  14   1  -3 40767.5 988.638  18 
  14   1   3 39871.3 893.283  12 
  14  -1  -4 8651.10 379.892  23 
  14   1  -4 9043.62 450.270  18 
  14  -1   4 9144.13 397.096  12 
 -14   1  -4 9194.77 357.298  14 
  14  -1   4 10509.6 460.985  18 
  14  -1  -4 9223.52 431.687  18 
  14   1   4 8593.09 436.644  18 
  14   1   4 9864.68 436.458  12 
  14  -1  -4 9763.71 457.785  27 
  14  -1   4 8771.02 436.025  23 
  14  -1   4 8301.99 396.626  27 
  14   1  -4 9051.73 445.997  27 
  14  -1  -4 8133.88 357.171  22 
  14   1   4 8995.90 458.181  23 
  14   1   4 8393.12 439.897  27 
  14  -1   5 15441.0 511.233  12 
  14   1   5 14667.8 539.619  12 
  14   1   5 13418.0 544.242  27 
  14  -1   5 15703.9 545.831  18 
  14  -1  -5 15044.1 535.848  18 
  14   1   5 15829.1 570.216  18 
  14   1  -5 14347.9 554.749  18 
 -14   1  -5 15364.5 453.630  14 
  14   1  -5 15287.2 576.774  27 
  14  -1   5 14938.5 564.927  23 
  14   1   5 14522.3 575.498  23 
  14   1  -6 4081.75 283.479  18 
  14  -1   6 4145.92 268.333  18 
  14   1   6 4087.70 275.153  18 
  14  -1   6 4398.34 301.505  23 
  14   1  -6 4611.59 305.342  27 
  14   1   6 4267.31 310.466  23 
  14  -1  -6 4264.02 278.208  18 
 -14   1  -6 4633.46 237.842  14 
  14  -1   6 4554.77 277.635  12 
  14   1   6 4168.83 281.731  12 
  14  -1  -6 3634.58 258.779  21 
  14   1   6 4129.04 292.771  27 
  14  -1   7 7791.28 354.454  12 
  14  -1   7 7048.11 327.705  18 
  14   1   7 7507.91 349.391  18 
  14   1  -7 6965.68 345.166  18 
 -14   1  -7 7357.94 292.950  14 
  14   1  -7 7204.78 369.119  27 
  14  -1   7 7598.37 385.417  23 
  14   1   7 8300.90 417.397  23 
  14   1   7 8022.60 375.899  12 
  14  -1  -7 7401.51 352.879  21 
  14   1   8 1776.28 176.113  12 
  14  -1   8 1998.82 196.541  23 
  14   1  -8 1551.43 162.505  27 
 -14   1  -8 1786.86 137.622  14 
 -14  -1  -8 1708.79 138.266   9 
  14   1   8 1812.95 194.724  23 
  14  -1  -8 1559.79 161.950  21 
  14  -1   8 1816.16 171.278  12 
  14  -1   9 1132.85 126.000  12 
  14   1   9 1159.29 137.912  12 
  14   1  -9 998.374 126.986  27 
  14  -1  -9 979.444 126.136  27 
 -14   1  -9 1047.28 99.2539  14 
  14  -1   9 994.110 132.037  23 
  14   1   9 1247.84 157.217  23 
 -14  -1  -9 1082.44 100.717   9 
  14  -1  -9 1079.70 130.568  21 
  14   1  10 1248.48 127.060  12 
  14  -1 -10 1056.48 120.008  27 
  14  -1 -10 993.369 118.933  21 
  14  -1  10 684.825 101.730  23 
 -14   1 -10 1162.05 96.3228  14 
  14   1  10 1090.54 130.516  23 
  14  -1  10 1187.89 120.421  12 
  15  -1   0 58.3638 52.5093  27 
  15   1   0-12.9454 34.5291  12 
  15  -1   0 4.61194 47.6570  18 
  15  -1   0 78.1457 54.6259  23 
  15   1   0 24.9940 49.7763  18 
  15   1   0 78.2581 60.9291  23 
  15   1   0-51.6069 72.0726  27 
 -15   1   0-8.84466 29.5195  14 
  15   1  -1 197.680 79.3535  27 
  15  -1   1 162.615 68.9361  23 
  15   1   1 249.780 71.3250  12 
  15  -1  -1 275.180 82.4641  27 
  15  -1   1 209.992 73.3947  18 
  15  -1  -1 188.916 64.3634  18 
  15   1   1 192.096 64.9842  18 
  15   1  -1 222.193 76.3516  18 
  15  -1   1 120.756 62.3126  27 
 -15   1   1 212.722 60.8926  14 
 -15   1  -1 222.617 59.4339  14 
  15  -1  -1 239.537 78.5811  23 
  15   1   1 153.485 68.3972  23 
  15   1  -1 158.772 67.3895  23 
  15   1   1 313.191 94.0110  27 
  15  -1  -2 3759.88 270.614  27 
  15  -1  -2 4386.47 288.399  18 
 -15   1   2 3585.26 209.445  14 
  15  -1  -2 3895.00 255.427  23 
  15   1   2 3812.18 250.213  12 
  15   1  -2 3836.40 283.981  27 
  15  -1   2 3362.35 244.299  27 
  15   1   2 3655.16 275.473  27 
 -15   1  -2 4048.22 221.929  14 
  15   1   2 3818.54 271.212  23 
  15   1  -2 3981.44 292.346  18 
  15  -1   2 3958.02 273.349  18 
  15  -1   2 4128.93 281.454  23 
  15   1   2 3883.82 286.039  18 
 -15   1  -3 259.962 60.3054  14 
  15   1  -3 204.817 77.2742  18 
  15   1   3 191.761 70.3941  12 
  15  -1   3 195.683 69.2297  18 
  15  -1  -3 218.775 71.6957  18 
  15  -1   3 178.400 69.5234  27 
  15   1  -3 279.220 86.2419  27 
  15   1   3 193.641 75.4170  18 
  15  -1  -3 126.212 65.4103  27 
  15   1   3 121.914 68.2042  23 
  15  -1   3 273.202 74.5852  23 
  15  -1  -3 343.223 79.7365  23 
  15   1   3 257.419 82.5704  27 
  15  -1   4 2941.93 224.425  18 
  15   1   4 3114.02 243.839  27 
  15  -1  -4 2970.94 228.608  18 
  15   1   4 2952.58 234.466  18 
  15  -1  -4 2907.48 228.054  27 
  15   1  -4 2687.64 234.362  27 
  15  -1   4 2541.56 191.840  12 
  15  -1   4 2846.47 228.908  23 
 -15   1  -4 2820.37 176.924  14 
  15   1   4 2773.52 233.548  23 
  15   1   4 2804.47 216.957  12 
  15   1  -4 2962.98 239.992  18 
  15   1  -5 8319.23 388.229  27 
  15  -1  -5 8001.58 359.541  18 
  15   1   5 7857.44 369.439  27 
  15   1   5 8212.60 373.731  18 
  15   1   5 8458.73 360.431  12 
  15   1   5 8098.98 397.529  23 
  15  -1   5 8964.32 376.780  18 
  15   1  -5 8188.11 379.338  18 
 -15   1  -5 8002.83 288.236  14 
  15  -1  -5 8428.91 379.678  27 
  15  -1   5 8270.01 331.468  12 
  15  -1   5 8187.31 379.643  23 
  15   1   6 12694.3 485.175  23 
  15   1  -6 12836.8 464.529  27 
  15   1   6 13715.7 450.522  12 
  15  -1  -6 13710.5 468.633  27 
  15  -1   6 11768.6 403.371  18 
  15  -1  -6 10661.4 384.732  18 
  15   1   6 11886.3 414.453  18 
 -15   1  -6 13144.5 356.631  14 
  15   1  -6 11362.4 416.177  18 
  15  -1   6 12886.2 410.581  12 
  15  -1   6 13125.1 469.292  23 
  15   1   7 13004.8 418.089  12 
  15   1  -7 10693.8 398.106  27 
 -15   1  -7 11632.5 317.123  14 
 -15  -1  -7 11594.5 332.688   9 
  15  -1   7 10764.5 410.659  23 
  15   1   7 12228.7 460.238  23 
  15  -1  -7 11458.8 409.734  27 
  15  -1   7 12189.6 384.187  12 
  15   1   8 1063.33 113.711  12 
  15   1   8 1094.69 135.184  23 
  15  -1  -8 980.830 115.691  27 
  15  -1   8 1096.79 109.967  12 
  15  -1   8 906.708 114.882  23 
 -15   1  -8 1005.14 87.7270  14 
  16   1   0 4262.36 269.007  27 
  16  -1   0 3954.18 239.357  27 
  16  -1   0 4474.25 265.700  18 
  16   1   0 3979.60 260.471  18 
 -16   1   0 3977.83 191.493  14 
  16  -1   0 4171.55 248.480  23 
 -16   1  -1 6165.66 236.174  14 
 -16   1   1 5439.14 223.360  14 
  16   1  -1 6256.09 323.910  27 
  16  -1   1 6997.98 330.756  18 
  16  -1  -1 7102.86 331.879  18 
  16   1  -1 7138.83 347.981  18 
  16  -1  -1 6704.73 314.172  27 
  16   1   1 5869.64 295.098  23 
  16   1   1 6962.14 338.278  27 
  16  -1  -1 6894.01 309.413  23 
  16  -1   1 7314.54 328.348  23 
  16  -1   1 6399.67 299.785  27 
  16   1   1 7539.94 357.154  18 
  16  -1  -2 3576.82 229.881  27 
  16  -1   2 3980.48 243.629  18 
  16  -1  -2 4341.30 257.762  18 
  16   1   2 3929.95 252.868  18 
  16   1  -2 4136.35 258.502  27 
  16  -1   2 3305.58 207.085  27 
 -16   1   2 3135.19 169.128  14 
  16   1   2 3538.88 240.450  27 
  16  -1  -2 3319.58 207.034  23 
  16  -1   2 3871.34 241.300  23 
  16   1   2 3666.73 237.835  23 
 -16   1  -2 3383.09 172.931  14 
  16   1  -2 3974.20 258.171  18 
  16   1   3 780.384 116.027  27 
  16   1  -3 661.350 107.637  18 
  16   1   3 530.994 79.2159  12 
  16  -1  -3 846.707 112.666  18 
  16   1   3 774.139 114.104  18 
  16  -1  -3 757.485 107.717  27 
 -16   1  -3 689.367 76.0440  14 
  16  -1   3 904.428 115.792  18 
  16  -1   3 756.862 110.666  23 
  16   1  -3 770.312 116.044  27 
  16   1   3 671.108 111.051  23 
 -16   1   3 438.257 61.5229  14 
  16  -1  -4 3258.36 214.591  27 
  16   1   4 3445.77 197.224  12 
  16  -1   4 3442.60 213.112  18 
  16  -1  -4 3290.53 210.689  18 
  16   1   4 3597.73 223.857  18 
  16   1  -4 3403.84 224.718  18 
 -16   1   4 2614.25 147.435  14 
  16   1  -4 3332.60 221.426  27 
  16  -1   4 3821.42 233.829  23 
  16   1   4 3537.62 231.585  23 
 -16   1  -4 3061.45 155.170  14 
  16  -1   5 7409.30 319.984  23 
  16  -1  -5 8032.00 324.805  27 
  16   1   5 8219.28 341.788  23 
  16   1  -5 7194.28 310.175  27 
   0  -2   0 48375.6 1047.53   1 
   0  -2   0 48772.5 879.870   1 
   0   2  -1 36359.3 799.042   2 
   0  -2   1 34517.7 888.095   1 
   0   2  -1 38397.4 820.738   3 
   0  -2  -1 34620.2 907.699   1 
   0  -2   1 40720.0 788.610   1 
   0   2  -2 80408.0 1246.54   2 
   0   2   2 86024.2 1552.82   1 
   0  -2   2 72775.7 1338.29   1 
   0   2  -2 81290.5 1261.63   3 
   0  -2   2 75135.3 1094.60   1 
   0  -2   3 17463.1 510.336   1 
   0   2   3 17171.9 707.934   1 
   0   2  -3 17254.4 579.383   3 
   0   2  -3 17211.8 583.207   2 
   0   2  -3 16381.3 509.859   1 
   0   2  -4 46219.6 917.751   1 
   0   2  -4 47679.7 1078.83   2 
   0   2  -4 49517.3 1090.85   3 
   0  -2   4 48001.8 932.500   1 
   0  -2   5 55966.8 1067.41   1 
   0   2  -5 55236.8 1258.60   2 
   0   2  -5 51986.9 1204.35   3 
   0   2   5 51733.0 1402.92   1 
   0   2   6 174710. 2796.50   1 
   0  -2   6 166912. 2046.93   1 
   0  -2  -7 97.7259 36.4875  16 
   0   2  -7 37.2020 34.5021  20 
   0   2  -7 103.426 34.6820  25 
   0  -2   7-30.0502 61.9487   1 
   0   2   7 365.630 139.949   1 
   0   2  -7 332.610 69.4848  26 
   0  -2  -7 56.0358 33.8483  15 
   0  -2   7 69.5753 47.9852   4 
   0   2   7 25.3830 33.4155  10 
   0   2  -7 124.455 38.4146  24 
   0  -2  -7 29.7362 26.7647   9 
   0  -2  -8 50878.1 733.990  24 
   0  -2  -8 53739.3 767.516   9 
   0   2   8 54191.1 1707.78   1 
   0  -2  -8 52859.5 767.766  16 
   0  -2  -8 46095.8 656.699  21 
   0   2  -8 39003.6 658.742  24 
   0   2  -8 52267.5 793.419  26 
   0   2  -8 50373.5 767.434  17 
   0   2   8 54950.1 865.641  10 
   0  -2   8 57625.6 1310.33   1 
   0   2  -8 54678.2 709.539  14 
   0   2  -8 39024.2 656.957  25 
   0   2  -8 53610.1 813.769   8 
   0   2  -8 52090.3 860.472  20 
   0  -2  -8 51316.2 737.145  25 
   0  -2  -8 54857.6 700.308  14 
   0  -2   8 50814.9 971.264   4 
   0  -2  -8 60773.9 796.794  15 
   0   2  -9 58427.8 899.305   8 
   0  -2  -9 58657.0 833.961  15 
   0   2   9 58108.7 1887.07   1 
   0   2  -9 56139.4 866.025  17 
   0   2   9 54129.8 919.600  10 
   0   2  -9 54672.5 745.622   6 
   0   2  -9 56758.0 776.480  14 
   0   2  -9 56025.5 880.995  26 
   0  -2  -9 54873.5 841.133  16 
   0  -2   9 54276.3 1372.23   1 
   0  -2  -9 53692.9 802.668  25 
   0  -2  -9 53041.6 738.101  14 
   0   2  -9 56083.5 942.117  20 
   0  -2  -9 55234.6 823.989   9 
   0   2  -9 56111.5 819.187  24 
   0   2  -9 53856.1 806.541  25 
   0  -2  -9 55492.2 765.758  21 
   0  -2  -9 55448.0 814.240  24 
   0  -2 -10 334.397 62.6352  21 
   0   2 -10 264.989 64.8176  26 
   0  -2 -10 268.960 59.2570  25 
   0   2 -10 219.760 64.7653   8 
   0  -2 -10 249.892 59.6180  16 
   0  -2 -10 256.040 58.1104  15 
   0  -2 -10 280.771 60.6564  14 
   0   2  10 310.842 183.234   1 
   0   2 -10 257.291 61.8087  24 
   0   2 -10 260.347 55.9746  25 
   0  -2 -10 225.993 56.3367  24 
   0   2 -10 201.208 49.5898   6 
   0   2 -10 284.362 60.4655  14 
   0   2 -10 239.793 55.1805  16 
   0   2  10 322.055 80.9801  10 
   0  -2 -10 277.433 65.4826   9 
   0   2 -10 294.458 70.5361  17 
   0   2  11 6533.77 699.123   1 
   0  -2 -11 6034.73 294.937  16 
   0   2 -11 5961.40 279.984  25 
   0  -2 -11 5837.37 283.395  25 
   0   2 -11 6090.86 300.790  17 
   0   2 -11 5959.53 308.973  26 
   0   2 -11 5915.52 257.237   6 
   0  -2 -11 6239.13 285.984  15 
   0  -2 -11 6773.28 280.536  21 
   0   2  11 6223.65 329.766  10 
   0  -2 -11 6854.94 284.281  14 
   0  -2 -11 6010.63 286.554  24 
   0   2 -11 6005.41 265.142  14 
   0  -2 -11 5234.39 269.295   9 
   0   2 -11 6034.18 271.026  16 
   0   2 -11 6079.73 282.259  24 
   0  -2 -12 10587.6 397.962  25 
   0  -2 -12 11688.0 409.728  15 
   0   2  12 12260.9 487.132  10 
   0   2 -12 10903.5 400.801  25 
   0   2 -12 11704.8 433.316  17 
   0  -2 -12 10945.5 383.258  21 
   0   2 -12 10797.6 385.483  16 
   0  -2 -12 11030.7 425.688  16 
   0  -2 -12 10859.2 400.406  24 
   0   2 -12 11466.2 440.734  26 
   0   2 -12 11229.9 406.526  24 
   0   2 -12 11363.9 388.249  14 
   0  -2 -12 11006.3 401.695  14 
   0   2 -12 11137.9 367.252   6 
   0   2 -12 11244.6 372.129  21 
   0  -2 -13 10999.2 395.233  21 
   0   2 -13 9854.90 396.692  25 
   0   2 -13 10907.0 453.436  26 
   0  -2 -13 9483.79 382.866  25 
   0  -2 -13 10526.6 430.529  16 
   0   2 -13 9990.96 400.339  24 
   0   2 -13 10480.2 422.211  17 
   0   2 -13 10288.1 388.328  16 
   0  -2  13 10078.1 381.414  12 
   0   2 -13 9924.96 379.203  14 
   0  -2 -13 10798.4 402.985  15 
   0   2 -13 9916.67 360.858   6 
   0   2  13 9424.68 444.380  10 
   0  -2 -13 9321.92 383.124  14 
   0  -2 -13 10070.6 394.610  24 
   0   2 -13 10475.7 368.134  21 
   0  -2 -14 4686.06 274.999  25 
   0  -2 -14 5319.37 285.484  15 
   0   2 -14 5178.19 307.186  17 
   0   2 -14 4903.96 284.498  24 
   0   2  14 4785.77 317.619  10 
   0  -2 -14 5206.92 314.332  16 
   0   2 -14 5060.95 314.267  26 
   0   2 -14 4922.14 284.427  25 
   0  -2 -14 4793.69 281.257  24 
   0  -2 -14 4643.73 278.470  14 
   0   2 -14 5120.11 279.942  16 
   0   2 -14 5389.72 266.516  21 
   0  -2 -14 4961.81 268.729  21 
   0   2 -14 5141.30 281.471  14 
   0   2 -15 13534.1 496.979  17 
   0  -2 -15 12348.7 439.591  15 
   0   2 -15 13033.5 469.859  24 
   0   2 -15 12755.4 507.773  26 
   0   2 -15 12990.5 468.340  25 
   0  -2 -15 12985.1 454.916  25 
   0  -2 -15 12050.8 442.276  14 
   0   2 -15 13237.8 446.312  14 
   0   2 -15 13160.9 453.342  16 
   0  -2 -15 12610.7 450.821  24 
   0  -2 -15 13604.4 517.115  16 
   0   2 -15 13554.4 425.650  21 
   0  -2 -15 13953.1 456.985  21 
   0   2  15 13469.6 535.095  10 
   0   2 -16 241.109 68.8693  26 
   0   2 -16 217.603 62.6560  16 
   0   2 -16 299.662 75.5498  17 
   0  -2 -16 101.567 60.3291  16 
   0   2 -16 140.799 70.9161  25 
   0   2  16 236.949 72.0260  10 
   0  -2 -16 155.040 57.2702  24 
   0   2 -16 149.847 45.9393  14 
   0   2 -16 194.897 57.7903  21 
   0   2 -16 141.270 59.1091  24 
   0  -2 -16 126.293 52.1768  15 
   0  -2 -16 185.082 62.6768  25 
   0  -2 -16 162.491 60.8566  21 
   0   2 -17 7643.07 313.681  16 
   0  -2 -17 6729.33 291.396  25 
   0  -2 -17 6630.45 291.563  24 
   0   2  17 7401.99 359.846  10 
   0   2 -17 8223.44 356.744  17 
   0  -2 -17 7379.66 353.721  16 
   0   2 -17 7907.94 316.056  14 
   0   2 -17 7835.24 334.593  25 
   0  -2 -17 7102.68 300.087  15 
   0  -2 -17 8174.26 319.880  21 
   0   2 -17 7921.71 337.432  24 
   0   2 -17 7783.07 296.938  21 
   0   2 -18 18521.3 478.913  24 
   0   2 -18 18423.8 447.112  16 
   0  -2 -18 17164.4 494.352  16 
   0   2 -18 18798.9 498.309  17 
   0   2 -18 18789.4 481.758  25 
   0   2 -18 18273.5 421.118  21 
   0   2 -18 18468.5 453.303  14 
   0  -2 -18 18415.3 446.017  21 
   0   2  18 18394.5 524.653  10 
   0  -2 -19 8910.26 274.032  21 
   0   2 -19 9336.07 297.391  25 
   0   2  19 9383.65 323.749  10 
   0   2 -19 8971.69 291.448  24 
   0  -2 -19 9457.42 319.218  16 
   1  -2   0-55.6599 58.6657   1 
   1  -2   0 21.7957 34.3087   1 
  -1  -2   0-6.58271 38.2003   1 
   1   2   0-19.0563 40.7584   1 
   1  -2  -1 34004.0 781.505   1 
  -1  -2   1 31741.7 784.287   1 
   1   2  -1 35703.7 809.373   3 
   1  -2   1 36504.9 994.279   1 
  -1   2  -1 34310.8 748.956   2 
   1   2  -1 33950.6 788.515   2 
  -1  -2   1 35070.7 695.228   1 
  -1  -2  -1 31003.1 839.031   1 
   1   2   1 33920.2 912.102   1 
   1  -2   1 35747.9 778.848   1 
  -1   2  -1 36956.5 783.248   3 
  -1   2  -2 11645.5 450.564   1 
   1   2   2 12202.1 563.005   1 
  -1  -2   2 11835.4 463.358   1 
   1   2  -2 13446.6 498.200   2 
   1   2  -2 12501.2 484.264   3 
  -1   2  -2 12468.1 462.235   3 
  -1  -2   2 11570.0 380.285   1 
   1  -2   2 11897.0 432.212   1 
  -1  -2   3 122771. 1326.01   1 
   1   2   3 105656. 1822.37   1 
   1  -2   3 115256. 1523.24   1 
  -1  -2   3 108274. 1534.97   1 
   1   2  -3 107938. 1599.28   3 
  -1   2  -3 110147. 1561.15   3 
  -1   2  -3 106130. 1544.51   2 
  -1  -2   3 112304. 985.549   5 
  -1   2   3 124348. 2037.52   1 
   1   2  -3 108371. 1612.39   2 
  -1   2  -4 2768.14 255.168   2 
   1   2  -4 3291.68 282.954   2 
  -1  -2   4 3436.57 213.877   1 
   1  -2   4 3223.31 254.252   1 
  -1   2   4 3546.08 342.774   1 
   1   2  -4 3135.93 277.563   3 
  -1   2  -4 2883.59 259.410   3 
  -1  -2   4 3563.90 281.205   1 
   1   2   4 2982.43 324.755   1 
   1   2   5 12202.4 671.848   1 
   1  -2   5 13658.7 560.051   1 
  -1   2   5 12652.5 680.827   1 
  -1  -2   5 13042.8 442.361   1 
   1   2  -5 13298.9 612.791   2 
   1   2  -5 12640.8 588.402   3 
   1   2  -5 12045.3 422.525   1 
   1  -2   6 207005. 2471.12   1 
  -1   2   6 204735. 3115.46   1 
  -1  -2   6 216307. 2141.72   1 
   1   2   6 216583. 3201.14   1 
   1  -2  -7 31.1500 27.6249  16 
   1   2  -7 41.6257 35.7021  20 
   1  -2   7 40.5527 51.4155   4 
  -1  -2  -7 133.064 41.8365  16 
  -1   2  -7 61.5996 32.0762  24 
   1   2   7 56.3752 42.9274  10 
  -1   2  -7 183.672 49.7564  26 
   1  -2  -7 32.9214 22.4982  15 
  -1   2  -7 497.385 66.9966  17 
  -1  -2   7 801.058 130.883   1 
   1   2  -7 465.998 76.9895  26 
  -1   2  -7 53.6021 32.1691  25 
   1  -2   7 103.296 77.9220   1 
  -1   2   7 53.5463 72.8495   1 
  -1  -2  -7 49.0824 32.6362  15 
   1   2  -7 49.5079 30.8211  24 
  -1  -2  -7 38.3641 24.7083   9 
   1  -2  -7 26.2620 27.6545   9 
   1   2   7 166.168 121.688   1 
   1   2  -7 13.9784 20.8081  25 
  -1   2  -7 69.9664 39.2129  20 
   1  -2  -8 5030.53 223.943  25 
   1   2  -8 4795.89 247.172  20 
  -1   2  -8 4944.78 244.196   8 
   1   2   8 4747.04 515.533   1 
   1   2  -8 4916.51 218.297  25 
  -1  -2  -8 5307.65 227.895  15 
   1  -2  -8 4912.19 200.261  21 
  -1   2   8 4883.69 506.956   1 
  -1  -2  -8 5057.29 223.815   9 
  -1   2  -8 5145.14 222.957  25 
  -1   2  -8 5573.21 245.626  26 
  -1   2  -8 4931.09 232.586  17 
   1   2  -8 5186.39 229.760  17 
  -1   2  -8 4608.85 201.777   6 
   1   2  -8 4945.42 197.051  14 
  -1   2   8 4831.41 244.677  10 
  -1   2  -8 5106.55 209.721  14 
  -1   2  -8 4927.41 259.352  20 
   1  -2  -8 5037.42 204.745  14 
   1  -2  -8 4960.54 228.305  16 
   1   2  -8 6072.32 258.515  26 
   1   2  -8 4734.50 212.474  24 
  -1  -2  -8 4385.66 211.581  16 
   1  -2  -8 4990.41 221.812  24 
  -1  -2  -8 4264.26 182.729  14 
  -1   2  -8 5578.91 231.500  24 
   1  -2  -8 5083.75 223.063   9 
   1  -2   8 5074.23 408.817   1 
  -1  -2   8 4856.82 339.159   1 
   1  -2  -8 4623.03 212.063  15 
   1  -2   8 4872.32 332.489   4 
   1   2   8 4749.27 248.676  10 
  -1   2  -9 21358.0 521.534  17 
   1   2   9 19905.0 1117.17   1 
   1   2  -9 20827.1 553.337  20 
   1  -2  -9 20958.9 494.351  25 
  -1   2  -9 21604.8 543.830   8 
  -1  -2  -9 21543.1 508.653  16 
  -1   2  -9 21228.0 521.422  26 
  -1   2  -9 21297.2 464.461   6 
  -1   2  -9 21616.8 469.012  14 
  -1   2   9 21938.2 1143.40   1 
   1   2  -9 20639.4 482.677  25 
   1   2  -9 20896.6 445.866  14 
   1   2  -9 21018.4 502.204  17 
   1   2  -9 20786.2 447.018  16 
  -1   2   9 19479.4 527.313  10 
  -1  -2  -9 20317.8 460.920  24 
   1   2  -9 21214.7 527.941  26 
   1  -2  -9 22347.4 496.535  15 
  -1  -2  -9 21725.5 497.650  15 
  -1  -2  -9 20314.6 484.181   9 
   1   2  -9 20812.7 483.408  24 
   1   2   9 21132.4 559.463  10 
   1  -2  -9 21206.8 509.442  16 
   1   2  -9 19953.4 490.172   8 
   1  -2  -9 20516.2 488.833  24 
  -1   2  -9 20337.8 475.032  24 
  -1  -2  -9 19755.8 454.369  25 
  -1   2  -9 21011.2 484.434  25 
   1  -2   9 22682.7 942.514   1 
   1  -2  -9 19466.4 434.703  14 
  -1  -2  -9 18820.6 422.470  14 
   1   2  -9 20019.2 416.405   6 
   1  -2  -9 22156.1 466.027  21 
   1  -2  -9 20064.5 478.583   9 
   1   2 -10 46476.5 777.624  25 
   1   2  10 46300.2 1812.17   1 
  -1  -2 -10 44341.6 773.259   9 
   1   2 -10 47156.5 810.446   8 
   1  -2 -10 47889.5 807.898  25 
  -1   2 -10 47482.4 839.103  26 
  -1   2  10 46520.8 1782.08   1 
  -1   2 -10 45221.3 770.978  24 
  -1  -2 -10 44529.2 739.319  24 
  -1   2 -10 45952.1 827.931  17 
   1   2 -10 46948.9 812.799  17 
   1  -2 -10 48794.8 750.646  21 
  -1   2 -10 46846.6 860.774   8 
  -1   2 -10 46299.2 780.045  25 
   1   2 -10 45953.9 727.687  16 
  -1   2  10 44871.1 866.329  10 
   1   2  10 46038.0 895.153  10 
  -1  -2 -10 43712.9 786.835  16 
  -1   2 -10 46107.7 737.266   6 
   1   2 -10 46952.4 712.951  21 
   1  -2 -10 48493.9 791.552  15 
   1   2 -10 45526.3 877.124  20 
   1  -2 -10 47217.6 804.729  24 
   1   2 -10 45259.8 688.725   6 
  -1  -2 -10 44564.1 739.655  25 
   1   2 -10 45910.9 773.804  24 
  -1   2 -10 46578.5 749.239  14 
   1   2 -10 47267.7 734.540  14 
  -1  -2 -10 41306.9 678.078  14 
   1  -2 -10 44110.4 715.967  14 
   1  -2 -10 46823.2 821.830  16 
   1   2 -10 45353.1 827.491  26 
  -1  -2 -10 46259.4 778.627  15 
  -1   2 -11 3378.01 204.168  14 
   1   2 -11 3433.68 233.708  26 
   1   2 -11 3562.47 201.438  14 
  -1  -2 -11 3456.85 212.018  15 
  -1   2 -11 3420.55 215.602  24 
  -1   2  11 3332.10 514.382   1 
   1   2 -11 3503.56 189.646   6 
  -1   2 -11 3375.94 212.510  25 
  -1  -2 -11 3375.55 207.518  24 
   1   2  11 3578.95 251.432  10 
   1  -2 -11 3478.61 231.212  16 
  -1   2 -11 3715.27 236.036  17 
   1   2 -11 3506.91 222.824  17 
   1   2 -11 3438.12 213.143  24 
  -1   2 -11 3471.63 209.832  16 
   1   2 -11 3639.08 207.850  16 
  -1  -2 -11 3712.91 227.884  16 
  -1  -2 -11 3323.62 214.057   9 
   1   2 -11 3459.60 213.697  25 
   1  -2 -11 3634.35 217.772  15 
  -1  -2 -11 3337.26 205.620  25 
   1  -2 -11 3273.69 213.601  25 
   1  -2 -11 3291.08 216.246  24 
  -1  -2 -11 3330.92 194.786  14 
   1  -2 -11 3305.98 202.852  14 
  -1   2  11 3213.48 234.431  10 
  -1   2 -11 3462.16 202.086   6 
  -1   2 -11 3457.03 232.009  26 
  -1  -2 -11 3519.97 201.019  21 
   1   2 -11 3803.93 201.213  21 
   1  -2 -11 3104.29 194.813  21 
  -1  -2 -12 457.558 88.6131  25 
   1   2 -12 602.136 97.0562  25 
   1  -2 -12 579.549 94.1714  15 
   1  -2 -12 467.789 89.1470  14 
   1   2 -12 512.329 97.2584  26 
  -1  -2 -12 582.206 92.8533  14 
  -1  -2 -12 437.679 84.5302   9 
  -1   2 -12 718.179 107.908  17 
   1   2 -12 543.675 93.2875  17 
  -1   2 -12 506.032 90.9240  16 
  -1   2 -12 1129.99 118.314   6 
  -1   2 -12 544.909 92.6344  25 
   1   2  12 630.677 110.183  10 
  -1   2 -12 596.621 101.813  26 
   1  -2 -12 510.181 94.3968  16 
  -1   2  12 604.595 113.229  10 
   1   2 -12 565.086 96.1871  24 
   1   2 -12 541.752 81.1997   6 
  -1  -2 -12 449.379 84.8278  24 
   1  -2 -12 458.026 88.7080  24 
   1   2 -12 457.835 88.5215  14 
  -1   2 -12 622.931 91.7145  14 
  -1   2 -12 511.667 83.8494  24 
   1  -2 -12 644.992 98.2889  21 
   1   2 -12 585.096 88.6444  16 
  -1  -2 -12 574.778 102.566  16 
   1  -2 -12 562.106 99.4968  25 
  -1  -2 -12 500.617 85.4250  21 
   1   2 -12 648.271 87.3922  21 
  -1  -2 -13 744.524 104.540  21 
  -1   2 -13 731.376 118.119  26 
  -1   2 -13 820.400 116.423  25 
  -1  -2 -13 615.908 105.288  25 
   1  -2  13 642.108 103.896  12 
  -1  -2 -13 535.370 96.9402  24 
   1   2 -13 719.946 101.688  16 
  -1   2 -13 821.413 123.875  17 
   1   2 -13 753.808 115.694  17 
   1   2  13 700.834 118.846  10 
   1   2 -13 855.797 101.887  21 
  -1   2 -13 798.222 107.796   6 
   1  -2 -13 735.603 106.779  21 
   1  -2 -13 758.113 120.411  16 
  -1   2 -13 738.218 105.714  16 
   1   2 -13 768.442 123.046  26 
   1  -2 -13 670.478 114.207  25 
   1   2 -13 696.065 111.514  24 
   1  -2 -13 611.008 111.776  24 
  -1   2  13 617.420 117.851  10 
   1  -2 -13 838.470 115.665  15 
  -1  -2 -13 573.401 102.931  14 
  -1   2 -13 699.428 100.251  14 
  -1  -2 -13 806.692 115.430  15 
   1  -2 -13 513.351 100.363  14 
  -1   2 -13 746.357 108.556  24 
   1   2 -13 661.221 106.705  14 
   1   2 -13 693.168 112.108  25 
  -1  -2 -13 771.436 120.765  16 
   1  -2 -14 1792.97 189.767  16 
  -1  -2 -14 1784.34 186.493  16 
  -1  -2 -14 1776.63 163.268  25 
   1   2 -14 1893.62 159.804  21 
   1  -2 -14 1602.49 172.156  24 
  -1  -2 -14 1899.35 171.453  24 
   1   2 -14 1407.43 165.731  26 
  -1   2 -14 1991.91 191.495  17 
   1   2 -14 2088.93 192.389  17 
  -1   2 -14 1918.34 175.605  25 
  -1   2  14 1847.93 200.639  10 
   1   2  14 1848.73 203.157  10 
  -1   2 -14 1885.90 196.593  26 
  -1   2 -14 1945.05 174.842  14 
  -1   2 -14 2077.01 180.158  16 
   1   2 -14 1870.09 182.124  24 
   1   2 -14 1840.05 179.954  25 
   1   2 -14 1959.95 169.948  16 
   1  -2 -14 1620.20 175.101  25 
  -1  -2 -14 1953.21 177.061  15 
   1  -2 -14 1862.58 169.991  15 
  -1   2 -14 1859.84 164.341   6 
  -1   2 -14 1978.61 180.260  24 
  -1   2 -14 1991.80 163.765  21 
   1   2 -14 1922.64 173.702  14 
  -1  -2 -14 1582.24 163.029  14 
   1  -2 -14 1487.91 165.308  14 
   1  -2  14 1854.73 166.702  12 
  -1  -2 -14 1941.20 165.405  21 
   1  -2 -14 1959.72 170.871  21 
   1   2 -15 82.6010 51.0845  26 
  -1  -2 -15 47.9609 40.3510  25 
  -1   2 -15 91.4552 51.8549  16 
   1   2 -15 125.267 62.4646  24 
  -1   2 -15 107.764 47.0829  25 
  -1   2 -15 80.2037 59.8722  24 
   1   2 -15 165.202 62.3579  16 
  -1   2 -15 29.9631 48.7867  17 
   1   2 -15 115.029 53.8022  17 
   1   2  15 120.990 68.6524  10 
   1  -2 -15 64.7414 57.8287  16 
   1   2 -15 107.527 52.3030  25 
  -1   2 -15-2.47898 48.2783  26 
  -1  -2 -15 87.5003 39.8016  15 
  -1   2  15 54.0239 61.1809  10 
   1   2 -15 150.592 57.2995  21 
  -1  -2 -15 86.9332 44.9952  24 
   1  -2 -15 31.7609 40.4073  24 
   1  -2 -15 174.782 66.3913  25 
  -1   2 -15 57.8751 39.7840  14 
   1  -2 -15 101.948 54.8862  15 
   1   2 -15 25.7201 32.7689  14 
  -1  -2 -15 85.0162 51.9816  14 
  -1  -2 -15 161.421 69.6781  16 
  -1   2 -15 103.958 50.2590  21 
  -1  -2 -15 59.6597 45.3506  21 
   1  -2 -15 48.6685 43.3442  21 
   1   2 -16 1506.83 161.440  25 
   1   2 -16 1650.09 179.454  26 
  -1   2 -16 1730.69 181.223  26 
   1   2  16 1773.54 194.909  10 
   1  -2 -16 1626.90 162.551  25 
  -1   2 -16 1848.05 183.513  17 
   1   2 -16 1932.09 180.253  17 
  -1  -2 -16 1652.87 179.165  16 
  -1   2 -16 1672.00 159.787  16 
   1   2 -16 1549.96 146.750  16 
  -1   2  16 1621.58 181.179  10 
   1   2 -16 1459.92 154.260  24 
   1  -2 -16 1375.50 139.530  15 
  -1   2 -16 1892.11 168.040  25 
  -1  -2 -16 1551.78 149.966  15 
  -1   2 -16 1696.30 158.777  24 
   1  -2 -16 1524.45 157.920  24 
  -1   2 -16 1618.38 150.585  14 
   1   2 -16 1602.60 149.529  14 
  -1  -2 -16 1300.41 142.332  14 
  -1   2 -16 1700.32 143.884  21 
  -1  -2 -16 1838.55 158.580  21 
   1   2 -16 1670.13 145.981  21 
   1  -2 -16 1637.62 154.630  21 
   1  -2 -16 1605.32 180.573  16 
  -1   2  17 45.2879 46.1941  10 
  -1   2 -17 84.8801 52.5706  16 
  -1   2 -17 101.622 52.2927  17 
   1   2 -17 79.2346 38.4922  17 
   1   2 -17 35.2374 28.3006  14 
   1  -2 -17 101.630 53.4553  15 
  -1  -2 -17 145.675 60.4691  16 
   1   2 -17 99.2410 59.5137  26 
   1  -2 -17 51.0689 43.6316  25 
   1   2  17 86.0597 59.7208  10 
  -1   2 -17 134.830 54.5785  24 
   1   2 -17 134.291 56.7491  16 
  -1   2 -17 124.964 58.1178  25 
  -1  -2 -17 43.7039 35.1505  15 
  -1   2 -17 50.2643 37.8444  14 
   1  -2 -17 104.810 49.5359  24 
   1   2 -17 78.5603 40.7173  21 
   1   2 -17 87.5237 42.5725  25 
   1  -2 -17 41.4332 40.6579  16 
   1   2 -17 111.308 56.7573  24 
  -1   2 -17 81.7837 37.3849  21 
  -1  -2 -17 94.4030 38.7114  21 
   1  -2 -17 170.036 51.4726  21 
   1  -2 -18 136.263 54.0081  16 
  -1   2 -18 247.188 53.3522  16 
  -1  -2 -18 273.084 70.8801  16 
  -1   2 -18 200.656 64.4801  17 
   1   2  18 206.874 64.8077  10 
  -1  -2 -18 186.316 50.0600  15 
  -1   2 -18 225.836 54.8609  25 
   1  -2 -18 268.087 58.5059  21 
  -1   2  18 181.814 60.3425  10 
  -1   2 -18 202.195 52.6990  24 
   1   2 -18 248.601 56.1039  24 
  -1   2 -18 210.993 53.2722  14 
  -1   2 -18 293.858 57.2886  21 
   1  -2 -18 327.205 66.1933  22 
   1   2 -18 243.885 61.3855  25 
  -1  -2 -18 268.540 56.5616  21 
   1   2 -18 216.529 49.7907  21 
  -1  -2 -19 21960.9 489.774  16 
  -1   2 -19 20913.6 438.787  25 
   1   2 -19 22509.5 472.173  25 
  -1   2 -19 21180.0 441.883  24 
   1   2 -19 22665.6 474.845  24 
  -1  -2 -19 20556.3 430.582  22 
   1  -2 -19 22827.6 448.393  21 
   1  -2 -19 21002.6 486.728  16 
   1   2  19 22432.6 514.371  10 
  -1  -2 -19 22409.0 430.391  21 
   2   2   0 55064.0 1087.47   1 
   2  -2   0 52713.4 1014.33   1 
   2  -2   1 61360.8 792.506   5 
  -2  -2   1 53356.2 968.666   1 
   2   2   1 53806.4 1143.09   1 
   2   2  -1 57507.1 1079.77   3 
   2  -2  -1 56651.4 1086.83   1 
   2   2  -1 56780.6 1072.08   2 
  -2   2  -1 52273.8 921.305   2 
  -2  -2  -1 52399.4 1106.16   1 
  -2   2  -1 53405.7 938.797   3 
  -2  -2   1 61096.8 902.965   1 
   2  -2   1 54402.5 1022.64   1 
   2   2  -2 2071.81 201.083   3 
   2  -2   2 1994.68 188.292   1 
   2   2   2 2099.64 232.117   1 
   2  -2  -2 1950.95 201.440   1 
  -2   2  -2 2118.65 189.276   3 
   2   2  -2 2088.63 201.104   2 
   2  -2   2 2269.16 119.666   5 
  -2  -2   2 1922.19 170.933   1 
  -2   2  -2 1997.86 183.209   2 
  -2  -2   2 2169.51 155.447   1 
  -2  -2   3 152274. 1373.94   1 
   2  -2   3 140806. 1846.06   1 
   2   2  -3 142668. 1913.20   2 
   2   2   3 150685. 2258.18   1 
   2   2  -3 142215. 1901.08   3 
  -2   2  -3 140926. 1773.52   3 
  -2   2  -3 149401. 1822.71   2 
  -2  -2   3 150153. 1417.40   5 
   2  -2  -3 155884. 2003.60   1 
  -2  -2   3 138033. 1564.97   1 
  -2   2  -4 77200.9 1372.63   2 
  -2  -2   4 74299.2 1063.16   1 
   2   2   4 70105.8 1609.12   1 
   2  -2   4 79156.0 1409.79   1 
  -2  -2   4 78816.4 948.678   1 
   2   2  -4 73228.3 1397.80   3 
  -2   2  -4 72136.2 1316.66   3 
  -2  -2   4 75697.9 893.288   5 
   2   2  -4 72922.4 1401.80   2 
  -2  -2   5 140348. 1546.00   1 
   2  -2   5 139886. 2042.81   1 
  -2  -2   5 137989. 1339.66   1 
   2   2  -5 132942. 2080.40   3 
   2   2   5 130419. 2358.07   1 
   2   2  -5 135518. 2128.98   2 
   2  -2   6 4731.87 374.180   1 
  -2   2   6 5709.04 498.472   1 
  -2  -2   6 4761.14 232.210   1 
   2   2   6 4937.37 457.932   1 
  -2   2  -7 152698. 1430.56  26 
   2   2  -7 154240. 1539.01  20 
  -2   2   7 168367. 2949.42   1 
   2   2   7 141655. 2788.92   1 
  -2   2  -7 160134. 1468.23  17 
   2   2  -7 160308. 1397.43  25 
   2  -2   7 156738. 2370.40   1 
   2   2   7 156857. 1561.44  10 
  -2  -2  -7 161206. 1421.31  16 
  -2   2  -7 153539. 1545.94   8 
   2  -2   7 155274. 2114.66   4 
   2  -2  -7 157324. 1444.00  24 
   2  -2  -7 153136. 1388.64  15 
   2  -2  -7 159786. 1448.12  25 
   2  -2  -7 143543. 1416.68  16 
  -2   2  -7 157391. 1406.28  24 
   2   2  -7 155567. 1376.14  24 
  -2   2  -7 158869. 1369.84  14 
  -2  -2  -7 159770. 1417.53   9 
  -2  -2  -7 151025. 1531.22  17 
   2   2  -7 156490. 1471.82  26 
  -2   2  -7 157289. 1402.97  25 
   2  -2  -7 148385. 1305.41  21 
   2   2  -8 2233.87 148.065  25 
   2  -2  -8 2622.46 160.157  15 
  -2   2  -8 2292.41 174.558   8 
   2   2  -8 2325.10 162.799  26 
  -2  -2  -8 2444.02 158.534  16 
  -2   2   8 2566.77 369.406   1 
   2  -2  -8 2335.91 161.471  24 
   2  -2  -8 2624.94 170.045  25 
   2  -2   8 2237.71 153.779   7 
   2   2  -8 2376.17 136.812  14 
  -2   2  -8 2159.50 157.249  17 
   2   2  -8 2219.23 148.584  17 
  -2  -2  -8 2454.45 180.434  17 
  -2   2   8 2123.19 162.532  10 
   2  -2  -8 2382.05 164.807  16 
  -2  -2  -8 1897.39 120.051  14 
   2   2  -8 2379.21 176.865  20 
  -2   2  -8 2423.66 154.136  25 
  -2   2  -8 2250.86 158.964  26 
  -2   2  -8 2281.43 149.257  24 
  -2   2  -8 2271.28 142.027  14 
  -2   2  -8 2354.97 149.493   6 
   2  -2  -8 2182.20 143.627  14 
   2   2   8 2506.14 373.401   1 
  -2  -2  -8 2214.59 151.973   9 
   2   2   8 2973.14 199.975  10 
   2  -2  -8 2278.35 141.923  21 
   2  -2   8 2340.24 299.423   1 
   2  -2   8 2287.70 250.053   4 
   2   2  -8 2384.44 152.113  24 
  -2   2  -9 34224.5 675.175  17 
  -2   2  -9 33701.7 627.096  25 
   2   2  -9 32646.1 696.704  20 
  -2   2  -9 31881.9 693.925   8 
  -2   2  -9 31734.5 612.512  24 
  -2   2  -9 31078.7 594.521   6 
   2  -2  -9 31571.9 630.452  25 
   2  -2   9 31714.0 628.121   7 
   2   2  -9 33436.6 572.574  14 
   2  -2   9 34105.9 1227.01   1 
  -2  -2  -9 34583.7 641.324  15 
  -2   2   9 34824.3 1462.20   1 
   2   2  -9 32847.6 622.028  17 
  -2  -2  -9 31239.2 721.065  17 
   2   2  -9 32909.0 618.172  24 
   2  -2  -9 33763.7 663.982  16 
  -2   2   9 32688.0 690.095  10 
   2   2   9 34307.9 733.759  10 
   2  -2  -9 33679.8 650.007  24 
   2   2  -9 32713.1 616.565  25 
  -2  -2  -9 31421.0 617.025  16 
  -2   2  -9 32238.6 598.723  14 
   2   2  -9 32167.6 554.813  16 
   2  -2  -9 31239.8 605.025  15 
  -2  -2  -9 31918.2 551.589  14 
   2   2  -9 34660.5 683.836  26 
  -2   2  -9 31982.0 640.728  26 
   2  -2  -9 31521.4 584.748  14 
  -2  -2  -9 31696.2 617.517   9 
   2   2  -9 33592.9 559.327  21 
   2  -2  -9 31792.3 582.075  21 
   2   2   9 31831.9 1442.11   1 
   2   2  10 22620.6 1302.30   1 
   2  -2  10 21804.9 1062.04   1 
  -2   2 -10 21289.3 591.346   8 
  -2   2 -10 21203.3 513.512  24 
   2  -2 -10 23721.0 577.657  16 
   2   2 -10 22355.8 577.816  26 
   2  -2  10 22215.9 543.878   7 
  -2   2  10 23370.5 1261.55   1 
  -2  -2 -10 24430.8 506.650  14 
  -2   2 -10 22645.7 577.831  17 
   2   2 -10 22886.3 539.520  17 
   2   2  10 22093.9 621.044  10 
   2  -2 -10 24184.2 544.067  15 
   2   2 -10 22787.5 486.499  16 
  -2  -2 -10 22659.9 548.380  16 
  -2   2 -10 21732.1 522.865  25 
  -2  -2 -10 18854.1 499.136  15 
  -2   2 -10 22344.3 561.718  26 
   2   2 -10 21841.6 590.570  20 
   2  -2 -10 21257.7 494.242  21 
   2   2 -10 21776.8 523.990  24 
   2  -2 -10 22045.7 548.106  24 
  -2   2 -10 22036.0 515.858  14 
   2   2 -10 22627.0 496.605  14 
   2  -2 -10 22875.4 521.363  14 
   2  -2 -10 22277.0 548.184  25 
   2   2 -10 21786.5 523.195  25 
  -2   2  10 21327.0 579.051  10 
  -2   2 -10 21771.0 512.725   6 
   2   2 -10 22087.0 474.617  21 
  -2  -2 -10 20786.0 525.063   9 
  -2   2  11 1238.29 148.857  10 
  -2   2 -11 771.465 103.345  24 
   2  -2 -11 772.491 99.6186  15 
  -2  -2 -11 1092.29 121.123  15 
  -2  -2 -11 684.110 102.167  16 
   2  -2 -11 601.692 98.2228  14 
  -2   2 -11 686.652 105.163  17 
  -2   2 -11 831.439 102.979  14 
   2   2 -11 707.393 100.659  17 
   2   2 -11 889.590 100.445  16 
   2   2 -11 868.100 120.183  26 
  -2   2 -11 758.752 113.325  26 
   2  -2 -11 641.535 105.537  16 
   2   2 -11 727.187 100.949  25 
   2  -2 -11 1013.22 123.283  25 
  -2   2 -11 696.717 94.9298  25 
   2   2  11 828.055 128.901  10 
  -2  -2 -11 711.273 104.100   9 
   2  -2 -11 942.131 119.842  24 
  -2   2 -11 667.332 94.0277   6 
   2   2 -11 724.108 100.733  24 
  -2  -2 -11 714.445 93.8578  14 
   2   2 -11 807.978 100.832  14 
   2   2 -11 765.778 92.4830  21 
   2  -2 -11 737.605 99.8032  21 
  -2   2 -12-24.8116 33.6498   6 
   2  -2  12-34.1437 38.4787  12 
  -2   2 -12-0.23131 34.7833  16 
   2   2 -12 25.8596 29.5267  16 
  -2  -2 -12-7.29762 40.3139  15 
   2   2 -12 69.9835 60.4508  26 
  -2   2 -12 343.142 79.1055  17 
   2   2 -12 40.4023 37.5724  17 
  -2   2  12 3.77411 55.2678  10 
   2   2  12 94.4230 67.8891  10 
   2  -2 -12-14.0524 36.5911  16 
  -2   2 -12-6.59825 32.7247  25 
   2  -2 -12 0.66128 39.4306  15 
  -2   2 -12 15.3829 37.7170  26 
   2   2 -12 86.7144 46.3318  25 
  -2   2 -12-3.42329 38.6702  24 
   2  -2 -12 234.450 64.9679  25 
   2   2 -12 130.091 58.2372  24 
   2  -2 -12 196.997 61.8672  24 
   2  -2 -12-1.30208 25.4434  14 
  -2   2 -12 68.8614 47.6318  14 
  -2  -2 -12 15.3364 27.8733  14 
   2   2 -12 53.1900 40.5385  14 
  -2  -2 -12-9.07576 36.2900  16 
  -2  -2 -12 36.7319 38.4459   9 
  -2  -2 -12 284.022 62.3985  21 
   2   2 -12 58.3729 40.1420  21 
   2  -2 -12 85.1129 49.1710  21 
   2  -2  13 2180.24 183.291  12 
  -2   2 -13 2343.75 188.531  25 
  -2  -2 -13 2433.34 188.617  15 
   2   2 -13 2193.91 205.549  26 
   2  -2 -13 2077.40 196.753  24 
   2  -2 -13 1894.75 170.618  15 
  -2   2 -13 2197.18 180.593  14 
  -2   2 -13 2294.34 207.619  17 
   2   2 -13 2380.40 189.865  17 
  -2   2 -13 2232.99 189.761  16 
  -2  -2 -13 2154.16 171.780  21 
  -2   2  13 2154.09 204.786  10 
  -2   2 -13 2325.79 205.866  26 
   2   2  13 2120.61 212.792  10 
   2   2 -13 1988.18 182.406  25 
  -2   2 -13 2115.45 176.103   6 
   2  -2 -13 2047.42 193.531  25 
  -2   2 -13 2280.17 188.537  24 
   2   2 -13 2148.12 171.113  16 
   2   2 -13 2199.64 193.594  24 
   2   2 -13 2038.95 176.906  14 
  -2  -2 -13 2123.36 185.885   9 
  -2  -2 -13 1951.93 165.375  14 
  -2  -2 -13 2044.07 192.064  16 
   2  -2 -13 2117.63 200.162  16 
   2   2 -13 2226.69 166.110  21 
   2  -2 -13 2021.38 173.104  21 
  -2  -2 -14 51.8460 38.2437  15 
  -2   2 -14 44.9473 40.1900  26 
   2   2 -14 147.412 44.9650  16 
   2  -2  14 35.3237 38.4796  12 
  -2   2 -14 94.6432 60.1865  17 
  -2   2 -14 130.543 52.7550  16 
   2   2 -14 77.0351 52.8658  17 
  -2   2 -14 124.890 55.8595  25 
   2  -2 -14 135.030 74.0623  16 
   2   2  14 128.016 72.4916  10 
   2  -2 -14 95.2047 48.2936  15 
  -2  -2 -14 129.568 54.8017  16 
   2   2 -14 98.3791 64.3555  26 
   2   2 -14 45.8142 37.9323  25 
   2   2 -14 84.5120 57.4870  24 
   2  -2 -14 95.0623 50.0672  25 
  -2   2 -14 89.1464 47.7211  24 
   2  -2 -14 164.782 76.6227  24 
  -2   2 -14 120.318 53.6721   6 
  -2   2 -14 101.722 48.2522  14 
  -2  -2 -14 121.250 51.4107  14 
  -2   2  14 63.8475 48.4948  10 
   2   2 -14 141.744 55.2329  14 
  -2  -2 -14 77.4569 34.0629  21 
   2   2 -14 50.3119 39.7341  21 
   2  -2 -14 25.3966 44.7176  21 
   2  -2  15 1460.91 146.812  12 
   2   2 -15 1610.52 159.137  25 
  -2   2 -15 1454.38 153.396  25 
  -2   2 -15 1635.98 162.472  16 
  -2   2  15 1428.00 171.607  10 
  -2   2 -15 1497.37 172.434  26 
  -2   2 -15 1685.33 182.036  17 
   2   2 -15 1715.70 166.305  17 
   2   2 -15 1596.21 167.976  24 
  -2   2 -15 1592.99 149.252   6 
   2   2  15 1567.20 181.584  10 
   2   2 -15 1595.68 180.779  26 
   2   2 -15 1460.03 153.918  14 
  -2  -2 -15 1497.92 152.515  15 
   2  -2 -15 1312.51 146.007  15 
   2  -2 -15 1369.19 168.572  25 
  -2   2 -15 1591.87 160.842  24 
  -2   2 -15 1685.51 160.043  14 
  -2  -2 -15 1498.56 169.301  16 
  -2  -2 -15 1462.75 147.275  14 
   2   2 -15 1659.81 142.037  21 
   2  -2 -15 1270.69 160.683  24 
  -2   2 -15 1614.71 145.429  21 
   2   2 -15 1424.13 138.807  16 
   2  -2 -15 1549.63 174.987  16 
  -2  -2 -15 1721.28 155.282  21 
   2  -2 -15 1514.00 155.479  21 
   2  -2 -16 193.106 68.6726  16 
   2  -2 -16 247.480 75.7883  24 
  -2   2 -16 323.047 73.0827  16 
   2  -2 -16 155.030 63.4216  25 
  -2   2 -16 337.651 75.0601  24 
   2   2 -16 292.389 73.2194  25 
  -2  -2 -16 267.458 75.5052  16 
  -2   2 -16 275.607 68.5691  14 
   2  -2 -16 400.765 79.5859  15 
  -2   2 -16 265.163 83.7704  17 
   2   2 -16 270.499 76.6984  17 
   2   2 -16 341.453 91.4481  26 
  -2   2 -16 274.981 79.2518  26 
  -2   2 -16 292.954 72.4790  25 
   2  -2 -16 258.817 66.7089  21 
  -2   2  16 222.462 72.6878  10 
   2   2 -16 267.211 75.1504  24 
  -2  -2 -16 209.813 62.8867  15 
  -2  -2 -16 287.262 75.1518  14 
   2   2  16 222.226 75.5920  10 
   2   2 -16 258.448 64.2876  14 
  -2   2 -16 328.480 67.7716  21 
  -2  -2 -16 362.791 73.6922  21 
   2   2 -16 275.707 60.2830  21 
   2   2 -17 4352.87 217.006  21 
   2   2 -17 4522.26 274.123  26 
  -2   2 -17 4265.79 232.633  25 
   2   2  17 4313.42 271.578  10 
  -2   2 -17 4188.92 233.551  24 
   2   2 -17 4293.90 249.651  25 
  -2   2 -17 4866.32 281.620  17 
   2  -2 -17 3921.33 243.493  25 
   2   2 -17 4349.25 253.166  24 
  -2   2  17 4168.88 255.319  10 
  -2  -2 -17 4349.85 231.561  15 
   2  -2 -17 4603.91 242.134  22 
   2  -2 -17 4322.00 268.660  16 
  -2  -2 -17 4311.92 261.021  16 
  -2   2 -17 4385.24 233.557  14 
  -2   2 -17 4488.41 250.438  16 
   2  -2 -17 3704.18 235.542  24 
   2  -2 -17 4515.07 238.835  21 
  -2   2 -17 4497.62 224.644  21 
  -2  -2 -17 4291.33 226.107  21 
  -2  -2 -18 13226.2 358.561  15 
  -2   2  18 12875.5 406.084  10 
  -2  -2 -18 13948.9 431.025  16 
   2  -2 -18 13399.1 385.159  21 
  -2   2 -18 14371.5 447.251  17 
   2  -2 -18 13230.2 423.155  16 
  -2   2 -18 13233.2 379.271  25 
  -2   2 -18 13554.0 358.618  21 
  -2   2 -18 13602.0 384.652  24 
   2   2 -18 13598.6 410.836  24 
  -2   2 -18 14182.6 388.824  14 
   2  -2 -18 13650.6 379.389  22 
   2   2 -18 13393.4 406.699  25 
  -2  -2 -18 14307.9 379.341  21 
   2   2 -18 13312.0 346.030  21 
   2   2  18 14148.2 456.459  10 
  -2   2 -18 14654.8 407.554  16 
   2   2  19 1771.67 140.624  10 
   2   2 -19 1822.31 133.743  24 
   2  -2 -19 1675.73 132.429  16 
  -2   2 -19 1891.91 143.669  17 
   2  -2 -19 1829.04 127.848  21 
  -2   2 -19 1653.66 115.282  14 
  -2  -2 -19 1748.78 134.318  16 
  -2  -2 -19 1711.32 114.294  21 
   2   2 -19 1915.53 134.937  25 
  -3   2   0-0.65873 28.2365   2 
  -3   2   0-8.38266 24.6853   3 
   3   2   0 38.5460 50.3153   1 
   3  -2   0 29.3585 31.3386   5 
   3  -2   0 16.7780 38.4231   1 
  -3  -2   0 38.3999 38.2298   1 
   3   2   1 3452.33 283.298   1 
   3  -2   1 2873.66 239.041   1 
   3   2  -1 3434.33 257.365   2 
   3   2  -1 3421.99 257.701   3 
  -3   2  -1 2892.32 205.974   3 
   3   2  -1 3601.27 250.040   1 
  -3  -2  -1 2647.00 241.592   1 
   3  -2  -1 3268.60 226.674   5 
   3  -2   1 2825.45 180.600   5 
   3  -2  -1 3038.40 261.515   1 
  -3   2  -1 3124.92 211.349   2 
  -3   2  -2 43972.3 866.854   2 
   3  -2   2 43699.5 1017.22   1 
   3   2  -2 46067.6 1041.21   3 
  -3   2  -2 48592.0 902.603   3 
   3   2  -2 45472.1 1027.34   2 
  -3  -2   2 43654.8 756.106   1 
   3  -2  -2 42794.5 1026.28   1 
  -3  -2   2 46795.8 704.009   1 
  -3  -2   2 45134.9 865.755   5 
   3  -2   2 45053.9 704.102   5 
   3   2   2 43174.2 1109.58   1 
  -3  -2   3 4702.84 174.266   1 
   3  -2   3 4948.61 346.833   1 
   3   2  -3 4523.33 327.942   3 
  -3   2  -3 5210.51 310.014   3 
   3   2  -3 4779.25 336.459   2 
  -3  -2   3 4674.53 206.450   1 
  -3   2  -3 5214.03 316.673   2 
  -3  -2   3 5443.08 330.370   4 
  -3  -2   3 4778.21 254.153   5 
   3  -2  -3 4554.73 334.397   1 
   3   2   3 5025.79 396.963   1 
   3  -2  -4 547.772 126.111   1 
  -3  -2   4 720.341 119.719   4 
   3   2  -4 575.431 126.780   3 
  -3  -2   4 358.849 35.6361   1 
  -3  -2   4 303.442 38.5670   1 
   3   2   4 570.236 149.989   1 
   3   2  -4 494.289 116.133   2 
  -3  -2   4 661.585 93.9339   5 
   3  -2   4 553.750 134.941   1 
   3   2  -5 12287.4 617.735   2 
   3  -2   5 13525.2 649.201   1 
   3   2  -5 11649.1 592.708   3 
   3  -2  -5 11193.1 556.773   1 
   3   2   5 11410.9 690.384   1 
  -3   2  -6 264465. 2162.04   8 
   3   2  -6 258851. 2026.04  26 
   3  -2  -6 259537. 2025.07  16 
   3   2   6 271238. 2430.34  23 
   3  -2   6 289139. 3351.41   1 
   3  -2   6 241541. 2900.65   4 
   3   2   6 263481. 2152.90  10 
   3  -2  -6 265571. 2043.18  25 
   3  -2  -6 270305. 1966.50  15 
   3  -2  -6 262455. 2040.36  24 
  -3  -2  -6 258394. 1987.37   9 
   3  -2  -6 254696. 3038.18   1 
   3   2   6 240845. 3599.76   1 
  -3   2  -6 271758. 2049.82  17 
   3   2  -7 154191. 1561.54  20 
  -3   2  -7 155951. 1592.01   8 
   3   2  -7 157040. 1389.73  25 
  -3   2  -7 148914. 1410.88  26 
  -3  -2  -7 158445. 1382.00   6 
  -3  -2  -7 143051. 1373.17  16 
   3   2   7 153364. 1581.80  10 
   3  -2   7 160132. 1499.20   7 
  -3   2  -7 151139. 1468.31  17 
  -3  -2  -7 152770. 1436.46   9 
  -3  -2  -7 165497. 1586.53  17 
   3  -2   7 166489. 2589.23   1 
   3  -2  -7 155557. 1483.92  25 
   3   2  -7 157124. 1494.31  26 
  -3   2  -7 155908. 1398.25  14 
  -3   2  -7 158244. 1405.30  13 
   3  -2  -7 158465. 1416.99  15 
   3   2  -7 155381. 1385.83  24 
   3  -2  -7 158438. 1490.94  16 
   3  -2  -7 151935. 1469.15  24 
  -3   2  -7 152346. 1406.95  25 
  -3   2  -7 156148. 1423.47  24 
   3   2   7 156253. 1812.79  23 
   3  -2  -7 150313. 2342.46   1 
   3   2   7 127354. 2706.85   1 
   3  -2  -7 156336. 1360.06  21 
   3  -2   7 149425. 2242.07   4 
  -3   2  -8 90925.7 1207.68   8 
   3   2  -8 91389.9 1051.59  24 
   3  -2   8 91722.8 1118.85   7 
  -3   2  -8 86156.5 1033.68  25 
   3  -2  -8 94693.6 1137.73  16 
  -3   2  -8 87974.6 1108.52  17 
  -3  -2  -8 84767.7 1164.91  17 
  -3   2  -8 97159.7 1109.41  26 
  -3   2  -8 89950.1 1044.02  14 
   3  -2   8 88665.6 1984.68   1 
  -3   2   8 88272.9 1108.25  10 
  -3  -2  -8 94505.8 1083.76  16 
   3   2  -8 92706.6 1128.35  26 
   3   2  -8 90138.9 1175.04  20 
   3  -2  -8 93541.7 1064.13  15 
  -3   2  -8 99284.1 1097.33  24 
   3   2   8 89287.6 1204.84  10 
  -3  -2  -8 81661.3 916.542  14 
   3  -2  -8 92752.0 1126.86  25 
   3   2  -8 94000.1 972.244  14 
   3   2  -8 91934.8 1048.26  25 
   3   2   8 85562.5 1342.10  23 
  -3  -2  -8 86816.1 1060.19   9 
   3  -2  -8 94435.8 1135.04  24 
   3  -2  -8 98349.3 1947.40   1 
   3   2  -8 90214.6 944.909  21 
   3   2   8 88315.0 2358.71   1 
   3  -2  -8 88596.4 1007.97  21 
  -3  -2  -8 81652.4 992.753   6 
   3  -2   8 88915.7 1748.65   4 
   3   2  -9 14129.4 453.102  20 
   3   2  -9 13540.9 392.507  25 
  -3   2  -9 12551.9 446.803   8 
   3  -2   9 13799.0 422.535   7 
  -3   2  -9 14010.3 400.030  24 
   3   2  -9 13746.9 383.764  17 
  -3   2  -9 14228.2 403.583  25 
  -3  -2  -9 11556.9 442.445  17 
  -3  -2  -9 12675.6 391.522  16 
  -3   2  -9 13852.2 397.484   6 
  -3   2  -9 14184.2 398.589  14 
   3   2  -9 14726.7 373.900  14 
  -3   2   9 13830.6 433.019  10 
   3  -2  -9 13488.1 416.046  25 
   3  -2  -9 14402.0 405.927  15 
   3   2  -9 14543.6 439.701  26 
  -3  -2  -9 14336.9 362.322  14 
   3   2  -9 13990.4 399.520  24 
   3  -2  -9 13619.5 417.754  24 
   3  -2  -9 13465.7 376.646  21 
   3   2   9 13843.1 467.981  10 
  -3   2  -9 13595.4 412.527  26 
   3  -2  -9 14849.1 784.489   1 
  -3  -2  -9 13524.9 405.054   9 
  -3   2  -9 14567.6 439.446  17 
   3  -2  -9 13185.9 418.216  16 
   3   2  -9 14168.2 360.713  21 
   3   2   9 13523.5 958.099   1 
   3  -2   9 13776.1 828.294   1 
   3  -2   9 11917.6 654.820   4 
   3   2 -10 36618.3 770.447  20 
  -3   2 -10 37694.1 736.903  26 
   3  -2  10 36335.7 1437.72   1 
   3  -2 -10 34557.9 726.411  16 
  -3   2 -10 37911.0 701.969  24 
   3  -2  10 41314.8 794.209   7 
  -3   2 -10 35419.0 743.414  17 
   3   2 -10 36244.1 670.865  17 
  -3   2 -10 38490.5 706.735  25 
  -3  -2 -10 32191.3 789.065  17 
   3   2  10 36692.2 818.844  10 
   3   2 -10 36841.6 698.233  25 
   3   2 -10 36629.7 755.232  26 
  -3   2 -10 34542.4 673.863   6 
  -3  -2 -10 34528.3 613.622  14 
  -3   2  10 36420.9 761.510  10 
  -3  -2 -10 33967.1 696.703  15 
  -3  -2 -10 36756.3 711.472  16 
   3  -2 -10 35702.8 728.876  25 
   3  -2 -10 38068.0 1354.61   5 
   3  -2 -10 35211.2 672.855  15 
   3   2 -10 36513.1 698.117  24 
   3  -2 -10 35368.8 727.228  24 
  -3   2 -10 34879.0 679.059  14 
   3   2 -10 37680.1 652.196  14 
   3  -2 -10 33668.9 651.056  21 
   3  -2 -10 34490.0 1264.61   1 
  -3  -2 -10 35020.5 697.976   9 
   3   2 -10 36599.4 630.302  21 
   3   2  10 39623.2 1771.14   1 
   3  -2  11 10130.0 392.611  12 
   3   2 -11 9803.93 403.659  26 
  -3  -2 -11 10259.0 385.304  16 
   3  -2 -11 10718.8 415.124  16 
   3   2 -11 10342.3 377.604  25 
   3  -2  11 10387.0 385.242   7 
  -3   2 -11 9933.74 402.057  17 
   3   2 -11 10059.5 359.538  17 
  -3   2  11 9833.05 402.192  10 
  -3   2 -11 10469.6 375.031  25 
  -3  -2 -11 10423.4 388.426  15 
  -3   2 -11 10034.8 365.254   6 
   3  -2 -11 9747.64 394.374  25 
   3  -2 -11 9545.62 355.194  15 
  -3   2 -11 10094.0 366.474  24 
   3   2 -11 10259.0 377.847  24 
   3  -2 -11 10021.5 402.159  24 
  -3   2 -11 10028.1 367.507  14 
  -3  -2 -11 9354.45 329.570  14 
   3   2 -11 10313.0 355.986  14 
  -3  -2 -11 9765.64 376.719   9 
  -3   2 -11 9882.02 388.449  26 
   3   2  11 9787.57 432.745  10 
   3   2 -11 10335.6 341.591  21 
   3  -2 -11 10530.3 369.018  21 
   3   2 -12 175.968 61.5470  26 
   3  -2  12 168.979 60.2890  12 
  -3   2 -12 154.072 56.3286   6 
  -3  -2 -12 149.223 50.0178  14 
  -3   2 -12 171.790 60.3362  17 
   3   2 -12 181.140 59.5135  17 
   3  -2 -12 126.467 60.5283  16 
  -3   2  12 162.308 68.4007  10 
   3   2  12 190.038 65.9954  10 
  -3  -2 -12 178.001 59.0749   9 
  -3   2 -12 78.4414 40.2579  24 
  -3   2 -12 132.224 48.1547  25 
   3   2 -12 177.255 57.8339  25 
  -3  -2 -12 168.080 49.3207  15 
   3  -2 -12 144.921 62.0496  25 
   3   2 -12 92.5132 49.0204  14 
  -3   2 -12 124.834 43.0179  14 
   3   2 -12 185.658 58.6333  24 
   3  -2 -12 153.228 62.1453  24 
   3  -2 -12 214.502 61.9382  15 
  -3   2 -12 143.737 57.5708  26 
   3  -2 -12 175.297 56.5986  21 
  -3  -2 -12 146.940 55.9745  16 
  -3   2 -12 159.050 47.2557  16 
   3   2 -12 156.130 45.9197  21 
   3  -2  13 1485.81 158.956  12 
   3   2  13 1472.45 179.759  10 
   3   2 -13 1579.14 177.162  26 
  -3  -2 -13 1523.74 143.216  21 
  -3   2 -13 1410.17 157.021  26 
  -3   2 -13 1449.83 150.557  25 
  -3  -2 -13 1461.49 151.897   9 
   3  -2 -13 1478.19 165.939  16 
   3   2 -13 1657.74 156.431  17 
  -3   2 -13 1347.26 161.322  17 
  -3   2 -13 1573.38 160.209  16 
  -3   2  13 1348.85 167.646  10 
  -3  -2 -13 1498.48 157.821  16 
  -3  -2 -13 1299.63 145.284  15 
   3   2 -13 1479.28 160.977  24 
   3   2 -13 1504.99 158.046  25 
   3  -2 -13 1201.64 139.660  15 
  -3   2 -13 1547.10 156.325   6 
   3  -2 -13 1305.55 161.035  25 
   3   2 -13 1363.96 145.882  14 
  -3  -2 -13 1504.72 146.493  14 
   3  -2 -13 1222.32 155.715  24 
  -3   2 -13 1466.57 146.515  14 
   3   2 -13 1489.13 140.312  21 
   3  -2 -13 1602.32 152.039  21 
  -3   2 -13 1409.88 144.507  24 
   3  -2  14 45.2800 47.2383  12 
  -3   2 -14 47.6191 38.5100  24 
   3   2 -14 63.1292 36.2399  14 
   3   2 -14 45.5715 36.6765  25 
  -3  -2 -14 45.7240 48.8324  16 
  -3   2 -14 39.3362 42.2339  26 
  -3   2 -14 110.708 62.5559  17 
   3  -2 -14-5.01288 43.8861  16 
  -3   2 -14 37.8967 47.1709  16 
   3   2 -14 14.2848 58.1187  26 
   3   2 -14 105.888 55.7778  24 
  -3   2 -14 71.9251 50.2018  25 
   3  -2 -14 36.8813 42.8686  25 
   3   2  14 14.6492 46.0578  10 
  -3  -2 -14 101.276 57.5140  15 
  -3  -2 -14 65.0849 39.5131  14 
  -3   2 -14 27.4713 41.8605   6 
   3  -2 -14-7.17537 47.6670  24 
  -3   2 -14 46.5801 39.5250  14 
  -3   2  14 86.9058 63.3212  10 
  -3  -2 -14 83.6113 50.7854   9 
   3  -2 -14 77.6881 47.2768  15 
  -3  -2 -14 110.120 54.9814  21 
   3   2 -14 90.6899 44.6075  21 
   3  -2 -14 119.763 55.7601  21 
   3  -2  15 1518.00 156.553  12 
  -3   2 -15 1616.47 154.553   6 
   3  -2 -15 1433.81 150.439  15 
  -3  -2 -15 1456.61 162.163  16 
  -3   2 -15 1749.84 186.414  17 
   3   2 -15 1690.85 167.757  24 
  -3   2 -15 1604.38 157.048  14 
  -3   2 -15 1612.75 159.530  16 
  -3   2  15 1561.86 168.802  10 
  -3   2 -15 1694.17 161.780  25 
   3   2 -15 1642.12 177.457  26 
  -3   2 -15 1480.67 164.574  26 
   3  -2 -15 1379.72 162.975  25 
  -3  -2 -15 1585.51 154.055  15 
   3   2 -15 1692.08 166.969  25 
   3   2 -15 1541.83 151.568  14 
   3  -2 -15 1483.85 165.301  16 
   3  -2 -15 1389.53 167.349  24 
   3   2 -15 1650.12 142.934  21 
  -3  -2 -15 1486.27 142.680  14 
  -3  -2 -15 1561.03 147.287  21 
   3   2  15 1547.27 180.556  10 
   3  -2 -15 1511.09 155.835  21 
  -3   2 -15 1519.90 152.090  24 
   3  -2 -16 1709.51 174.472  24 
  -3  -2 -16 1962.05 167.744  15 
   3  -2 -16 2077.92 170.081  22 
   3   2 -16 1586.57 160.632  24 
   3   2 -16 1669.70 165.149  25 
  -3  -2 -16 1592.61 163.928  16 
  -3   2 -16 1938.67 188.124  17 
  -3   2 -16 1849.64 170.584  16 
  -3   2  16 1689.82 170.229  10 
   3   2  16 1713.86 185.576  10 
  -3   2 -16 1737.07 153.043  25 
   3   2 -16 1811.95 178.035  26 
   3  -2 -16 1829.73 184.375  16 
   3  -2 -16 1694.02 173.496  25 
  -3   2 -16 1748.74 156.858   6 
   3  -2 -16 1576.10 147.593  15 
  -3   2 -16 1611.48 144.425  24 
   3  -2 -16 1726.37 158.367  21 
  -3   2 -16 1674.55 152.845  14 
  -3  -2 -16 1735.62 149.826  14 
  -3   2 -16 1591.16 143.017  21 
  -3  -2 -16 1737.87 149.164  21 
   3   2 -16 1775.45 141.992  21 
  -3  -2 -17 808.935 97.3800  14 
  -3   2 -17 1130.49 125.309  16 
  -3   2 -17 1347.06 125.994  25 
   3  -2 -17 884.957 121.575  16 
  -3  -2 -17 977.422 109.609  15 
  -3   2 -17 1049.53 134.696  17 
   3   2 -17 920.650 116.493  25 
  -3  -2 -17 1099.00 131.108  16 
   3   2 -17 929.357 114.087  24 
   3  -2 -17 915.703 122.962  25 
   3  -2 -17 939.750 126.898  24 
  -3   2 -17 1485.91 130.963  24 
   3   2  17 1112.63 142.480  10 
  -3   2  17 975.441 122.850  10 
  -3   2 -17 925.705 105.848  14 
   3  -2 -17 982.942 114.164  21 
   3  -2 -17 1042.29 116.391  22 
  -3   2 -17 1165.83 110.626  21 
  -3  -2 -17 1075.99 113.950  21 
   3   2 -17 918.754 99.1416  21 
  -3   2 -18 144.256 48.5537  16 
  -3  -2 -18 148.248 56.2089  16 
  -3   2 -18 160.158 41.9470  14 
   3  -2 -18 141.157 51.4163  11 
   3  -2 -18 94.5399 39.9076  16 
  -3   2 -18 95.5743 42.3641  17 
  -3   2 -18 66.2747 28.7324  25 
   3   2 -18 155.493 45.2279  25 
  -3  -2 -18 141.280 45.2742  15 
   3   2  18 105.821 53.8473  10 
  -3   2 -18 116.170 39.4298  24 
   3   2 -18 179.114 54.2751  24 
   3  -2 -18 84.3027 40.6435  22 
  -3   2 -18 140.227 39.4691  21 
  -3  -2 -18 123.413 38.8860  21 
   3  -2 -18 149.809 47.0842  21 
   3   2 -19 5154.74 219.009  25 
   3   2  19 6055.98 249.418  10 
  -3   2 -19 5886.94 211.131  14 
  -3   2 -19 6089.33 250.299  17 
   3  -2 -19 6025.78 223.236  21 
   3   2 -19 5210.36 220.587  24 
  -3  -2 -19 5709.17 231.096  16 
  -4   2   0 9346.48 336.452   2 
   4  -2   0 10332.2 405.312   5 
  -4   2   0 9376.41 339.264   3 
   4  -2   0 9057.93 465.693   1 
   4   2   0 9579.56 450.774   1 
  -4   2  -1 582.236 86.8751   2 
   4  -2  -1 585.069 124.903   1 
   4   2  -1 679.767 127.115   3 
   4   2  -1 859.247 124.962   1 
  -4  -2   1 876.686 117.664   1 
   4  -2  -1 735.160 110.679   5 
   4  -2   1 544.075 94.8273   5 
   4   2  -1 741.044 130.374   2 
   4   2   1 716.571 134.670   1 
   4  -2   1 549.014 123.724   1 
  -4   2  -1 627.347 94.3601   3 
   4   2  -2 12634.9 535.636   2 
   4  -2  -2 11759.0 547.827   1 
   4   2  -2 12361.3 531.658   3 
  -4   2  -2 12677.4 436.928   3 
  -4  -2   2 11096.5 334.802   1 
   4   2   2 12150.1 603.522   1 
   4  -2   2 11600.9 402.860   5 
  -4   2  -2 12206.1 434.998   2 
   4  -2  -2 13637.2 531.431   5 
  -4  -2   2 11912.8 315.944   1 
   4  -2   3 72687.4 1481.46   1 
   4   2  -3 70285.6 1363.55   3 
   4   2  -3 71715.1 1387.73   2 
   4  -2  -3 69547.0 1310.05   5 
   4   2   3 68515.8 1570.65   1 
   4  -2   4 113180. 1971.55   1 
   4   2  -4 108129. 1807.20   3 
   4  -2  -4 109419. 1813.90   1 
   4   2  -4 109971. 1830.85   2 
   4  -2  -4 107591. 1750.50   5 
   4  -2  -5 53699.8 1267.92   5 
   4   2  -5 56670.6 1379.45   2 
   4  -2   5 53664.7 767.011   7 
   4  -2   5 55322.7 1399.96   1 
  -4   2  -5 48628.5 709.145  17 
   4  -2  -5 50453.2 685.036  15 
  -4   2  -5 50688.4 790.713   8 
   4   2  -5 54576.7 1335.02   3 
   4  -2  -5 52952.4 752.785  24 
   4   2   5 48723.7 1480.86   1 
   4  -2  -5 52813.5 749.705  25 
   4   2   5 51611.0 906.262  27 
   4  -2  -5 49945.1 724.335  16 
   4   2   5 51292.0 905.698  23 
   4  -2  -5 47751.8 677.757  22 
   4  -2  -5 50840.8 1245.28   1 
   4  -2   5 47875.8 1226.64   4 
   4   2  -6 134405. 1417.47  20 
   4  -2  -6 134780. 2167.59   1 
   4   2  -6 139623. 1351.22  26 
  -4   2  -6 131788. 1441.34   8 
   4   2   6 135742. 1637.13  23 
   4  -2   6 137673. 2213.73   4 
   4  -2   6 146495. 1420.27   7 
   4  -2  -6 137678. 1365.53  24 
   4  -2  -6 138086. 1356.16  16 
  -4   2  -6 130971. 1323.95  17 
   4  -2   6 132780. 2323.11   1 
   4   2   6 133006. 1420.51  10 
   4  -2  -6 134765. 1361.95  25 
   4  -2  -6 134601. 1277.49  15 
  -4   2  -6 139760. 1301.43  14 
   4  -2  -6 139183. 1256.19  21 
   4   2   6 125362. 2584.19   1 
  -4   2  -6 135820. 1255.13  13 
   4   2  -7 354669. 2450.55  25 
   4   2  -7 355360. 2455.58  24 
  -4   2  -7 300252. 2626.38   8 
   4  -2  -7 328065. 2382.17  19 
   4   2   7 346779. 2726.26  10 
  -4   2  -7 340963. 2490.25  14 
   4  -2   7 361671. 2659.22   7 
  -4   2  -7 353358. 2501.94  24 
   4  -2  -7 345571. 2584.95  16 
  -4   2  -7 364627. 2618.27  17 
  -4  -2  -7 337764. 2673.63  17 
   4   2   7 338298. 3009.55  23 
   4   2  -7 347352. 2584.88  26 
   4  -2   7 341728. 4120.09   1 
  -4  -2  -7 334873. 2436.76  16 
  -4   2  -7 336284. 2420.01  13 
   4  -2   7 351924. 3896.58   4 
  -4   2  -7 345864. 2474.53  26 
   4  -2  -7 355532. 2621.18  25 
  -4  -2  -7 352952. 2565.53   9 
   4  -2  -7 349231. 2611.36  24 
   4  -2  -7 368508. 4000.55   5 
   4   2  -7 340539. 2667.76  20 
   4   2   7 332375. 2593.03  12 
   4  -2  -7 361262. 3897.14   1 
  -4  -2  -7 338020. 2395.19   6 
  -4   2  -7 355726. 2500.63  25 
   4   2   7 339499. 4684.16   1 
   4  -2  -7 356094. 2461.18  21 
   4  -2  -7 342294. 2489.14  15 
   4   2  -8 24599.0 588.013  20 
   4  -2  -8 24144.7 521.691  15 
  -4   2  -8 24872.6 625.575   8 
   4  -2  -8 26923.6 585.792  16 
   4   2   8 24899.1 572.051  12 
   4   2  -8 25368.7 570.149  26 
   4   2   8 25156.0 617.354  10 
   4  -2   8 23467.4 565.482   7 
   4  -2  -8 23906.3 566.295  24 
  -4   2  -8 22591.8 544.903  17 
  -4   2  -8 24859.8 534.316  26 
  -4  -2  -8 26743.7 613.952  17 
   4  -2   8 23425.3 1060.26   1 
  -4  -2  -8 24316.5 520.356  16 
   4   2  -8 25089.5 479.789  14 
  -4   2  -8 22947.7 501.393  24 
   4   2   8 25627.3 1294.81   1 
  -4  -2  -8 24765.3 508.938   6 
  -4  -2  -8 23432.5 458.058  14 
   4   2  -8 25465.9 519.199  24 
   4   2   8 24002.7 706.219  23 
  -4   2  -8 27555.5 545.026  25 
   4  -2  -8 25839.3 1025.81   5 
  -4  -2  -8 23832.5 535.654   9 
   4  -2  -8 23938.3 944.390   1 
  -4   2  -8 24591.3 527.286  14 
   4  -2  -8 24191.1 566.578  25 
   4   2  -8 23598.2 454.583  21 
   4  -2  -8 24639.7 510.169  21 
   4  -2   8 24180.0 964.020   4 
   4   2  -8 25170.3 514.865  25 
   4  -2   9 11272.0 683.974   4 
  -4   2  -9 11234.4 365.535  14 
   4   2  -9 11042.0 404.820  20 
   4   2   9 9675.07 362.700  12 
  -4   2  -9 10868.3 431.967   8 
   4   2   9 11491.2 430.086  10 
   4   2  -9 11450.0 398.404  26 
   4  -2   9 11485.6 796.492   1 
  -4  -2  -9 10836.8 350.294   6 
  -4  -2  -9 10995.5 363.286  16 
   4  -2   9 13407.4 443.000   7 
  -4   2  -9 11186.6 373.534  26 
  -4   2  -9 11385.0 400.792  17 
  -4  -2  -9 10154.2 421.528  17 
  -4   2  -9 11975.2 369.541  25 
  -4   2  -9 12062.8 383.539   6 
   4  -2  -9 10895.6 400.410  25 
   4  -2  -9 12778.3 388.149  15 
   4   2  -9 11220.3 363.558  24 
   4  -2  -9 10557.7 399.277  24 
   4  -2  -9 11373.8 396.653  16 
   4  -2  -9 11429.7 727.929   5 
   4   2  -9 11560.7 344.075  14 
   4   2   9 11146.9 488.106  23 
  -4  -2  -9 10818.9 369.456   9 
   4   2  -9 10974.8 359.104  25 
   4  -2  -9 10302.8 650.284   1 
   4   2  -9 11240.3 326.053  21 
   4  -2  -9 11049.0 352.477  21 
   4   2   9 10361.0 868.684   1 
  -4   2  -9 11097.3 356.843  24 
  -4  -2  -9 12011.2 338.897  14 
   4  -2   9 10985.8 389.550  12 
   4  -2  10 6358.03 308.641  12 
   4   2 -10 6355.02 310.526  26 
  -4   2  10 6262.77 305.802  10 
  -4  -2 -10 5846.55 281.130   9 
   4  -2 -10 6184.00 308.700  16 
  -4  -2 -10 6251.57 287.215  16 
   4  -2  10 6260.81 312.876   7 
  -4   2 -10 6811.22 323.339  17 
   4  -2 -10 6375.69 282.160  15 
   4   2 -10 6246.18 254.426  21 
  -4   2 -10 6386.91 296.384  26 
  -4   2 -10 6999.08 298.307  25 
   4   2 -10 6189.10 310.627  20 
   4   2 -10 6126.46 280.712  25 
   4  -2 -10 6080.35 310.833  25 
   4  -2  10 5901.54 613.488   1 
  -4   2 -10 6449.57 284.441  24 
   4   2  10 6225.55 329.925  10 
   4   2 -10 6200.94 282.775  24 
   4  -2 -10 5905.87 308.576  24 
  -4   2 -10 6361.51 288.282  14 
  -4  -2 -10 5530.34 240.485  14 
  -4   2 -10 6390.18 293.421   6 
   4   2 -10 6515.50 269.527  14 
   4  -2 -10 6195.94 279.430  21 
  -4   2  11 196.694 68.5173  10 
   4  -2 -11 280.464 78.9613  16 
   4  -2 -11 252.945 68.2198  24 
   4   2 -11 268.312 61.1397  25 
   4   2 -11 251.797 70.7008  20 
   4   2 -11 259.431 65.6956  14 
   4   2 -11 287.634 67.3689  24 
   4  -2  11 287.281 74.5455  12 
  -4   2 -11 334.155 70.4928   6 
  -4   2 -11 270.518 65.1520  17 
   4  -2 -11 300.402 72.6478  15 
   4  -2  11 315.872 74.4389   7 
   4   2 -11 282.647 74.1564  26 
  -4   2 -11 199.175 63.7850  26 
  -4  -2 -11 326.452 73.2675  15 
   4  -2 -11 305.111 76.5403  25 
   4   2  11 301.875 84.0717  10 
  -4   2 -11 211.741 59.6958  14 
  -4  -2 -11 261.491 60.4288  14 
  -4   2 -11 294.357 64.5134  24 
  -4   2 -11 224.397 46.8463  25 
  -4  -2 -11 357.356 75.5297  16 
  -4  -2 -11 269.693 69.2798   9 
   4   2 -11 284.655 59.1687  21 
   4  -2 -11 167.382 58.3004  21 
  -4   2  12 2866.52 225.204  10 
   4   2 -12 2959.16 214.638  25 
   4  -2 -12 3247.88 219.650  15 
  -4   2 -12 3376.54 248.518  17 
   4  -2 -12 3342.91 241.996  16 
   4  -2  12 3113.78 222.710   7 
  -4   2 -12 3135.57 215.573   6 
  -4  -2 -12 3133.66 220.806  16 
   4   2  12 2894.09 242.920  10 
  -4  -2 -12 2799.62 187.432  14 
  -4   2 -12 3277.07 229.177  26 
  -4  -2 -12 3226.42 223.335   9 
  -4   2 -12 3064.97 205.951  24 
  -4  -2 -12 3138.29 220.401  15 
   4  -2 -12 3142.90 239.688  25 
   4   2 -12 2966.91 189.429  21 
   4   2 -12 2889.82 212.165  24 
  -4   2 -12 3004.11 213.705  14 
  -4   2 -12 3136.09 209.009  25 
   4   2 -12 2624.26 202.115  14 
   4  -2 -12 3222.30 242.118  24 
   4  -2  12 3122.94 229.376  12 
   4  -2 -12 3401.59 221.952  21 
   4   2 -12 2968.76 226.787  26 
   4   2 -13 178.452 61.0658  24 
  -4  -2 -13 217.167 64.5181   9 
   4  -2 -13 255.180 81.1717  16 
   4  -2  13 296.747 85.6612  12 
   4   2 -13 169.081 58.2022  14 
   4   2 -13 281.781 78.5959  26 
  -4   2 -13 271.655 81.1245  17 
  -4   2 -13 183.405 54.1745  25 
   4   2 -13 288.898 72.8542  25 
  -4   2 -13 231.956 63.1703   6 
  -4   2 -13 230.975 68.2659  16 
  -4  -2 -13 170.110 64.5253  16 
  -4   2 -13 211.651 71.4404  26 
   4  -2 -13 229.563 67.4037  15 
  -4  -2 -13 328.996 72.0109  15 
   4  -2 -13 265.389 82.8789  25 
   4  -2 -13 364.660 88.1176  22 
  -4   2 -13 181.535 60.4975  24 
   4  -2 -13 206.960 62.2589  24 
   4   2  13 275.592 84.7234  10 
  -4   2 -13 300.370 74.1345  14 
  -4   2  13 239.626 65.2185  10 
  -4  -2 -13 228.566 61.3727  14 
   4   2 -13 359.317 74.2402  21 
   4  -2 -13 352.095 83.5200  21 
  -4  -2 -14 510.300 83.5252  14 
   4  -2 -14 547.632 95.5121  22 
   4  -2  14 419.651 85.4855  12 
   4  -2 -14 607.709 106.778  16 
  -4   2 -14 538.601 103.456  17 
   4  -2 -14 464.792 87.0818  21 
  -4  -2 -14 559.375 103.275  16 
   4   2 -14 615.018 114.434  26 
  -4   2 -14 523.847 99.4334  26 
  -4   2 -14 492.907 91.2907  25 
  -4   2 -14 590.173 101.253   6 
   4   2 -14 559.307 101.889  25 
   4  -2 -14 574.105 110.677  25 
  -4  -2 -14 611.665 99.1863  15 
   4  -2 -14 625.841 111.498  24 
  -4   2 -14 473.439 88.5738  24 
  -4   2  14 463.863 101.062  10 
   4   2  14 544.093 121.851  10 
  -4   2 -14 480.764 90.9952  16 
  -4  -2 -14 556.404 95.6310   9 
   4   2 -14 574.068 99.9682  24 
  -4   2 -14 528.496 95.0719  14 
   4  -2 -14 398.229 86.3888  15 
  -4  -2 -14 589.848 87.8526  21 
   4   2 -14 549.992 83.5265  21 
   4  -2  15 456.829 89.2803  12 
   4   2 -15 632.319 104.321  24 
   4  -2 -15 470.072 98.4313  16 
   4  -2 -15 393.885 86.0261  15 
  -4   2 -15 504.973 103.982  17 
   4   2 -15 618.679 106.551  25 
  -4  -2 -15 631.006 110.521  16 
   4   2 -15 678.345 120.737  26 
  -4   2 -15 459.645 89.3124  25 
   4  -2 -15 470.702 99.9421  25 
  -4   2  15 367.923 84.5867  10 
   4   2  15 365.289 85.6793  10 
  -4   2 -15 431.580 85.4743  24 
  -4   2 -15 433.956 84.9244   6 
   4  -2 -15 344.685 88.0769  24 
  -4  -2 -15 405.230 80.4848  15 
  -4  -2 -15 451.269 73.4478  14 
  -4   2 -15 406.597 81.1855  14 
  -4   2 -15 426.289 92.4773  16 
   4  -2 -15 407.884 83.5203  22 
  -4  -2 -15 452.692 82.5364  21 
   4   2 -15 464.248 82.3986  21 
   4  -2 -15 397.361 86.9179  21 
   4  -2 -16 1128.94 144.139  16 
   4  -2  16 1093.94 122.863  12 
   4   2 -16 1752.81 164.604  25 
  -4   2 -16 1218.96 136.565  16 
   4   2 -16 1040.29 136.241  26 
  -4  -2 -16 1269.01 149.084  16 
  -4   2 -16 1410.15 157.959  17 
   4   2 -16 1627.49 158.042  24 
  -4   2 -16 1291.20 128.703  25 
   4  -2 -16 1185.15 127.996  22 
   4  -2 -16 1032.98 141.868  25 
  -4   2 -16 1196.38 124.810   6 
   4  -2 -16 1183.23 131.703  21 
  -4   2 -16 1392.24 132.383  24 
   4   2  16 1278.33 152.229  10 
   4  -2 -16 1131.93 141.824  24 
  -4   2 -16 1219.82 127.902  14 
  -4  -2 -16 1096.55 112.646  14 
   4   2 -16 1190.92 117.816  21 
  -4  -2 -16 1232.38 129.113  15 
  -4   2 -16 1237.72 124.567  21 
  -4  -2 -16 1157.28 117.723  21 
   4   2  17 405.135 83.6237  10 
   4  -2 -17 468.674 88.8120  16 
  -4   2 -17 530.175 82.7721  14 
  -4   2 -17 556.724 89.9561  16 
   4  -2 -17 459.515 74.8825  11 
  -4   2 -17 458.018 91.7524  17 
  -4  -2 -17 465.550 83.2283  16 
  -4  -2 -17 544.723 81.7937  15 
   4  -2 -17 494.124 92.7113  24 
  -4   2 -17 581.624 81.9726  25 
   4   2 -17 518.055 87.3575  25 
   4  -2 -17 508.472 92.0829  25 
  -4   2 -17 483.957 77.0385  24 
  -4  -2 -17 414.879 66.0818  14 
   4   2 -17 494.424 87.3373  24 
  -4   2 -17 562.465 83.2345  21 
  -4  -2 -17 553.989 78.4431  21 
   4  -2 -17 553.299 86.3310  21 
   4  -2 -17 593.026 88.2637  22 
  -4   2 -18 3674.69 196.641  16 
  -4  -2 -18 3291.10 192.247  16 
   4   2  18 3552.46 210.503  10 
   4  -2 -18 3345.89 187.911  21 
  -4   2 -18 3596.54 216.212  17 
   4  -2  18 3062.44 189.566  10 
   4   2 -18 3282.06 191.384  25 
  -4  -2 -18 3315.94 171.310  15 
   4   2 -18 3350.96 193.193  24 
  -4   2 -18 3374.03 165.247  21 
  -4   2 -18 3255.95 172.798  14 
  -4  -2 -18 3137.29 162.703  21 
   5   2   0 24.3660 50.7193   1 
  -5  -2   0-18.7279 39.5314   1 
   5   2   0 21.9226 46.3428   3 
   5  -2   0-29.5375 76.3969   1 
   5   2   0-2.60930 39.8647   2 
  -5   2   0 20.6197 21.1847   2 
   5  -2   0 23.3347 52.5050   5 
  -5   2   0 19.3118 17.8978   3 
   5  -2   1 4314.56 369.380   1 
   5   2  -1 4607.67 328.691   2 
   5   2  -1 4400.12 279.820   1 
  -5   2   1 4236.64 202.011   3 
   5   2  -1 4686.18 334.632   3 
  -5  -2   1 4323.26 251.117   1 
   5  -2   1 3802.86 278.325   5 
   5   2   1 4276.03 338.904   1 
   5  -2  -1 4364.68 303.131   5 
   5  -2  -1 3879.00 326.701   1 
  -5   2   1 4298.69 203.344   2 
   5  -2  -2 11150.5 554.490   1 
   5  -2   2 11894.5 612.789   1 
   5   2  -2 12792.6 562.199   2 
   5  -2  -2 12080.3 539.606   5 
   5   2  -2 12152.8 545.278   3 
  -5  -2   2 11514.0 279.672   1 
   5   2   2 11760.9 618.187   1 
   5   2   3 213395. 1960.99  27 
   5  -2   3 215150. 1722.71   7 
   5  -2   3 205429. 2779.32   1 
   5  -2  -3 185241. 1567.99  11 
   5   2  -3 208724. 2546.43   2 
   5   2  -3 204448. 2518.78   3 
   5   2   3 193119. 2840.58   1 
   5  -2  -3 210791. 2527.95   5 
   5  -2  -3 171037. 1532.16  22 
   5  -2   3 199181. 2694.07   4 
   5  -2  -3 201175. 2546.05   1 
   5  -2  -4 30099.2 518.813  15 
  -5   2  -4 25805.4 551.486   8 
   5   2   4 22058.8 520.436  12 
   5  -2  -4 25812.8 521.561  25 
   5   2  -4 25566.1 883.100   2 
   5  -2   4 25390.7 966.910   1 
   5  -2  -4 25915.3 492.949  11 
   5  -2  -4 26022.7 524.357  24 
   5  -2   4 26076.8 532.113   7 
  -5   2  -4 25876.5 485.868  14 
   5  -2   4 26183.3 542.825  11 
   5   2  -4 25800.9 877.998   3 
   5  -2  -4 25427.6 872.718   5 
   5   2   4 26598.3 626.120  23 
   5  -2  -4 23495.9 471.383  22 
   5   2   4 23618.1 1003.65   1 
   5  -2   4 26806.9 549.456  22 
   5   2   4 27241.3 653.110  27 
   5  -2   4 26767.5 943.871   4 
   5  -2  -4 28834.8 498.805  21 
   5  -2  -4 25599.2 873.031   1 
   5   2  -5 16890.3 452.392  20 
  -5   2  -5 18731.2 486.340   8 
   5   2   5 16932.3 533.810  27 
   5  -2  -5 17780.0 395.508  19 
   5   2   5 16200.6 449.292  12 
   5  -2   5 17086.2 394.490  19 
   5   2   5 17521.3 452.195  10 
   5  -2   5 16553.4 436.205   7 
   5  -2   5 17235.0 827.777   1 
   5  -2   5 18262.7 473.357  22 
  -5   2  -5 17055.9 413.514  17 
   5  -2  -5 16456.7 419.903  16 
   5  -2  -5 16898.8 437.781  25 
   5  -2  -5 16129.3 392.269  15 
   5  -2  -5 16624.5 719.756   1 
  -5   2  -5 17498.3 410.481  14 
   5  -2  -5 17358.9 442.405  24 
   5  -2  -5 17280.8 751.569   5 
   5   2   5 14556.3 488.590  23 
   5  -2  -5 18260.6 423.899  22 
   5  -2  -5 16090.3 384.919  21 
   5  -2   5 16734.8 770.337   4 
   5   2   5 18177.9 926.169   1 
   5   2  -6 18965.0 495.152  20 
  -5   2  -6 19151.9 519.584   8 
   5   2   6 18867.9 577.870  27 
   5   2   6 18141.1 490.821  12 
   5  -2  -6 18941.9 422.458  19 
   5  -2   6 19831.3 433.341  19 
   5   2  -6 18815.8 514.200  18 
   5  -2   6 20780.7 507.664   7 
   5   2   6 18660.5 495.595  10 
   5  -2   6 18386.7 884.117   1 
   5   2  -6 18488.2 398.712  24 
   5  -2  -6 19673.3 486.788  24 
   5  -2  -6 19229.2 470.787  16 
   5  -2  -6 19457.1 453.566  22 
   5   2  -6 18296.4 395.880  25 
   5  -2  -6 19901.7 488.740  25 
  -5  -2  -6 17319.5 377.723   6 
   5  -2  -6 18601.5 436.246  15 
  -5   2  -6 19242.3 448.680  14 
   5  -2   6 19003.6 455.427  23 
   5  -2  -6 17661.9 808.480   5 
   5   2   6 17946.4 575.689  23 
   5  -2   6 18273.6 470.419  12 
  -5   2  -6 18242.7 449.108  17 
   5   2   6 17385.7 968.706   1 
   5  -2   6 19142.0 506.776  22 
   5  -2  -6 18604.9 784.717   1 
  -5   2  -6 19104.6 417.186  13 
   5  -2  -6 20756.1 453.547  21 
   5  -2   6 18449.3 835.410   4 
   5   2  -6 18734.5 448.413  26 
   5   2  -7 103019. 1274.44  20 
  -5   2  -7 103056. 1341.63   8 
   5   2   7 104590. 1291.11  12 
  -5   2  -7 108799. 1159.21  25 
   5  -2   7 97171.0 1242.07   7 
   5  -2  -7 93334.7 1062.94  19 
  -5   2  -7 106938. 1119.75  13 
  -5   2  -7 103990. 1224.94  17 
  -5  -2  -7 110684. 1117.46   6 
   5  -2  -7 106192. 1190.24  22 
   5  -2   7 100253. 2225.24   1 
   5  -2  -7 104596. 1149.22  21 
  -5  -2  -7 92795.3 1067.89  16 
   5  -2  -7 110456. 1256.96  16 
   5   2  -7 102361. 1188.48  26 
   5   2  -7 104555. 1107.27  25 
   5  -2  -7 107341. 1258.30  25 
   5   2   7 100431. 1282.14  10 
  -5   2  -7 110037. 1172.53  24 
   5   2  -7 105534. 1113.37  24 
   5  -2  -7 109681. 1186.95  15 
   5  -2   7 112825. 1287.31  12 
  -5   2  -7 101103. 1167.93  14 
   5  -2  -7 106414. 1260.35  24 
   5  -2  -7 94764.9 2017.69   5 
   5   2   7 108568. 1562.10  23 
   5   2   7 101446. 2563.56   1 
   5  -2  -7 100978. 1955.69   1 
   5  -2   7 86997.9 1960.86   4 
   5  -2   8 151840. 1614.51  12 
   5   2  -8 144970. 1597.24  20 
  -5   2  -8 148655. 1463.68  25 
   5   2   8 146049. 1921.84  23 
  -5   2  -8 144733. 1699.11   8 
   5   2   8 154475. 1648.74  12 
   5   2  -8 149588. 1457.59  24 
  -5  -2  -8 142805. 1401.12   6 
   5   2  -8 148893. 1452.99  25 
   5  -2   8 152342. 1647.11   7 
   5  -2  -8 144658. 1507.68  22 
  -5   2  -8 148299. 1507.46  14 
  -5   2  -8 137973. 1526.68  17 
   5  -2   8 137588. 2813.05   1 
  -5  -2  -8 153241. 1467.94  16 
   5   2  -8 149042. 1547.47  26 
   5  -2  -8 145791. 1564.06  16 
   5  -2  -8 146607. 1595.96  25 
   5  -2  -8 154255. 1506.26  15 
  -5   2  -8 155083. 1488.01  24 
  -5  -2  -8 140318. 1506.96   9 
   5  -2  -8 140918. 2446.88   1 
   5  -2  -8 149510. 1609.28  24 
   5   2   8 135234. 3152.11   1 
   5  -2  -8 150575. 2682.67   5 
   5   2  -8 142792. 1339.93  21 
   5  -2  -8 156056. 1496.14  21 
   5  -2   8 147130. 2669.28   4 
   5   2   8 149700. 1673.38  10 
   5  -2   9 18243.1 940.636   4 
   5   2  -9 17992.9 527.359  20 
   5  -2   9 19591.7 544.395  12 
  -5   2  -9 19136.6 505.420  14 
  -5   2  -9 18867.4 488.428  26 
   5  -2   9 18167.5 1054.06   1 
  -5  -2  -9 18858.1 487.018  16 
   5   2   9 19198.6 542.243  12 
   5  -2   9 21164.1 599.230   7 
  -5   2  -9 19111.2 537.387  17 
   5   2  -9 19530.4 526.338  26 
  -5   2  -9 19718.3 517.148   6 
   5   2   9 18925.4 569.522  10 
   5  -2  -9 18654.8 529.466  16 
  -5   2  -9 18718.7 477.368  25 
   5   2  -9 19580.9 487.933  25 
   5  -2  -9 19757.3 544.653  25 
  -5  -2  -9 19744.7 481.209   6 
  -5   2  -9 18885.6 478.885  24 
   5   2  -9 19603.5 488.690  24 
   5  -2  -9 19880.6 548.220  24 
  -5  -2  -9 19021.5 439.011  14 
   5   2   9 17391.1 641.617  23 
   5  -2  -9 19739.2 496.854  15 
   5  -2  -9 18952.7 967.128   5 
  -5  -2  -9 19699.0 520.513   9 
   5  -2  -9 18810.8 502.035  22 
   5   2   9 19191.6 1217.12   1 
   5   2  -9 19038.9 444.081  21 
   5  -2  -9 17547.9 469.889  21 
   5  -2  10 9944.44 401.752  12 
  -5   2 -10 10056.7 370.157  26 
  -5  -2 -10 9503.13 321.738  14 
   5   2  10 9301.05 382.594  12 
   5   2 -10 10121.7 395.922  26 
  -5  -2 -10 9109.78 355.385  16 
   5  -2 -10 10024.1 373.045  22 
   5  -2 -10 10109.2 367.022  21 
   5  -2  10 10390.7 413.548   7 
  -5   2 -10 11517.5 433.833  17 
   5  -2 -10 10090.0 402.385  16 
  -5  -2 -10 8908.67 341.394   6 
   5   2  10 10020.8 425.262  10 
  -5   2 -10 9719.47 365.614  14 
  -5   2 -10 10716.0 372.638  25 
   5  -2 -10 9883.05 403.884  25 
   5  -2 -10 10417.8 371.943  15 
  -5   2 -10 9548.05 371.633   6 
  -5   2 -10 9913.89 357.551  24 
   5   2 -10 10045.9 364.779  24 
   5  -2 -10 10184.4 410.528  24 
   5   2 -10 10051.2 364.799  25 
   5   2  10 9612.73 488.273  23 
  -5  -2 -10 9686.72 376.222   9 
   5   2 -10 9681.04 326.261  21 
   5  -2  11 694.871 110.251  12 
   5   2 -11 781.853 112.841  26 
  -5   2 -11 807.752 103.371  25 
  -5   2 -11 727.252 115.756  17 
   5  -2  11 820.852 116.535   7 
   5   2 -11 751.518 103.505  24 
  -5  -2 -11 676.756 102.683  16 
  -5   2 -11 819.912 116.198  26 
   5   2 -11 755.286 105.507  25 
   5  -2 -11 660.566 122.720  25 
   5  -2 -11 742.299 109.569  15 
  -5   2 -11 743.979 105.091   6 
   5   2  11 728.245 125.707  10 
   5  -2 -11 691.144 124.911  24 
  -5  -2 -11 704.965 89.7513  14 
   5  -2 -11 655.525 111.875  16 
   5  -2 -11 832.309 114.434  22 
  -5  -2 -11 772.730 113.435   9 
  -5   2 -11 788.058 107.330  24 
  -5   2 -11 721.996 106.701  14 
   5   2 -11 736.028 93.0143  21 
   5  -2 -11 683.776 106.964  21 
   5  -2  12 2471.78 209.376  12 
  -5   2 -12 2418.31 199.691   6 
   5  -2 -12 2357.84 209.517  16 
   5  -2  12 2230.51 193.583   7 
   5  -2 -12 2406.52 190.708  22 
   5   2  12 2421.25 219.548  10 
  -5  -2 -12 2426.90 170.010  14 
  -5   2 -12 2208.57 175.155  25 
   5   2 -12 2481.53 197.272  25 
   5  -2 -12 2384.04 218.552  25 
   5  -2 -12 2067.75 184.310  15 
  -5  -2 -12 2470.12 195.064  16 
  -5   2 -12 2461.31 184.681  24 
  -5   2 -12 2241.49 188.513  26 
   5   2 -12 2426.18 196.508  24 
   5  -2 -12 2231.84 211.780  24 
  -5   2 -12 2454.43 195.103  14 
  -5   2 -12 2271.28 202.386  17 
  -5  -2 -12 2288.06 189.717   9 
   5   2 -12 2455.21 208.049  26 
   5   2 -12 2355.97 174.926  21 
   5  -2 -12 2384.49 193.075  21 
  -5  -2 -12 2383.71 196.502  15 
   5   2  13 1606.84 180.242  10 
   5  -2  13 1338.49 154.227  12 
   5  -2 -13 1454.66 164.397  16 
  -5   2 -13 1371.65 147.199   6 
  -5   2 -13 1432.07 168.498  17 
  -5   2 -13 1361.34 152.918  16 
   5   2 -13 1512.22 167.409  26 
  -5   2 -13 1373.64 141.769  25 
  -5  -2 -13 1320.66 148.510  16 
   5  -2 -13 1261.90 165.819  25 
   5   2 -13 1463.15 157.999  24 
  -5   2 -13 1299.63 136.266  24 
   5  -2 -13 1323.21 165.837  24 
  -5   2 -13 1591.03 160.847  14 
  -5  -2 -13 1239.18 127.344  14 
  -5   2 -13 1376.86 152.846  26 
   5  -2 -13 1560.34 156.935  22 
  -5  -2 -13 1419.77 150.687   9 
   5   2 -13 1438.50 156.263  25 
   5  -2 -13 1202.97 148.349  15 
   5   2 -13 1403.59 139.407  21 
   5  -2 -13 1329.73 150.887  21 
  -5  -2 -13 1562.65 164.513  15 
  -5   2 -14 6732.39 302.299  24 
   5   2 -14 6929.80 353.083  26 
  -5   2 -14 6557.93 297.466  25 
   5   2 -14 6847.56 334.575  24 
  -5   2 -14 6744.78 324.306  14 
  -5   2 -14 6628.63 322.921   6 
  -5   2 -14 6905.60 362.566  17 
  -5   2 -14 7370.84 346.972  16 
  -5  -2 -14 6663.44 330.058  16 
  -5  -2 -14 7711.90 352.830  15 
   5   2 -14 6956.43 336.954  25 
   5  -2 -14 6998.52 368.181  25 
   5  -2 -14 6649.31 350.332  16 
   5  -2  14 7204.31 349.738  12 
   5  -2 -14 6969.62 365.999  24 
  -5  -2 -14 7303.45 302.181  14 
   5  -2 -14 7459.94 337.043  22 
  -5  -2 -14 6989.92 320.790   9 
   5   2  14 7032.24 381.714  10 
   5   2 -14 7036.46 302.797  21 
   5  -2 -14 6893.75 336.885  21 
   5  -2 -15 3897.57 259.420  16 
   5  -2 -15 3781.76 230.682  22 
   5  -2  15 4115.90 251.897  12 
   5  -2 -15 3792.18 267.795  25 
  -5   2 -15 3733.42 231.759  14 
   5   2 -15 3931.17 220.011  21 
   5  -2 -15 4322.86 246.743  11 
  -5  -2 -15 4093.91 245.689  15 
  -5   2 -15 4298.57 282.775  17 
  -5  -2 -15 4134.74 254.212  16 
  -5   2 -15 3618.13 236.493  16 
   5   2 -15 3944.20 260.112  26 
   5   2  15 4421.52 289.311  10 
   5   2 -15 4034.44 252.178  25 
  -5   2 -15 3914.33 239.446   6 
  -5   2 -15 3683.44 217.568  24 
   5   2 -15 3965.48 250.408  24 
   5  -2 -15 3745.53 264.536  24 
  -5   2 -15 3682.57 217.321  25 
  -5  -2 -15 3693.12 210.434  14 
  -5  -2 -15 4101.61 235.368   9 
  -5  -2 -15 4056.25 225.327  21 
   5  -2 -15 4083.12 252.700  21 
   5   2 -16 6687.13 320.082  26 
   5   2  16 6666.18 340.639  10 
   5  -2  16 7058.44 303.066  12 
   5  -2 -16 6733.40 290.765  11 
  -5  -2 -16 6316.81 255.316  14 
  -5   2 -16 6997.93 341.852  17 
   5  -2 -16 6482.98 330.258  24 
  -5  -2 -16 6890.34 281.824  21 
  -5   2 -16 7282.50 323.710  16 
  -5   2 -16 6294.74 261.698  24 
  -5  -2 -16 6487.28 293.558  15 
   5   2 -16 6819.84 315.109  25 
   5  -2 -16 6368.76 330.044  25 
   5   2 -16 7086.69 322.709  24 
  -5   2 -16 6758.74 293.994  14 
  -5   2 -16 7082.18 306.951   6 
   5  -2 -16 6914.57 295.495  22 
  -5  -2 -16 6564.07 309.813  16 
   5  -2 -16 7035.28 312.006  21 
   5  -2 -16 6217.05 309.980  16 
  -5   2 -16 6202.82 260.083  25 
   5  -2 -17-16.9729 34.9281  22 
   5  -2 -17 20.9618 33.3594  11 
  -5   2 -17 33.1917 39.8896  16 
  -5   2 -17 70.3729 54.3658  17 
  -5   2 -17-24.7322 33.3167  14 
   5   2 -17 35.5610 37.5087  25 
   5   2  17-30.1367 36.1417  10 
   5   2 -17 7.61674 39.4761  24 
  -5  -2 -17 38.0777 28.8267  15 
  -5  -2 -17-16.8078 34.1641  16 
  -5   2 -17 48.9005 31.8089  21 
  -5  -2 -17 21.8220 32.0799  21 
   5  -2 -17 39.1854 38.4319  21 
  -5  -2 -18 1948.58 138.650  16 
   5   2 -18 2076.57 147.517  25 
   5   2  18 2013.65 151.760  10 
  -5  -2 -18 1901.66 116.854  21 
  -5   2 -18 1654.61 135.583  17 
  -5   2 -18 2097.92 132.912  14 
   5   2 -18 1933.22 143.415  24 
  -5   2 -18 2192.61 146.177  16 
  -5   2 -18 1756.94 114.636  21 
   5  -2 -18 2079.89 143.604  21 
   6   2   0 15093.8 627.241   1 
   6  -2   0 14530.9 366.271  19 
   6   2   0 15544.9 434.589  12 
   6  -2   0 14758.7 695.158   1 
   6   2   0 14490.5 454.809  18 
   6   2   0 14166.5 596.634   3 
   6   2   0 15524.4 460.522  27 
   6  -2   0 14682.4 380.738  22 
   6   2   0 13505.4 577.402   2 
   6  -2   0 14513.7 384.642  23 
   6  -2   0 13323.3 588.476   5 
   6  -2   0 14735.1 380.512  21 
   6  -2   0 13757.5 371.043  11 
   6  -2  -1 319.252 58.8996  21 
   6  -2   1 297.617 60.3082  21 
   6   2  -1 248.202 60.6734  18 
   6  -2   1 245.231 53.7663  19 
   6  -2   1 226.755 56.7799  23 
   6  -2   1 276.902 104.485   4 
   6   2   1 288.052 65.7212  12 
   6  -2  -1 307.299 94.0172   5 
   6   2  -1 429.174 75.5126  12 
   6   2   1 304.096 69.2482  18 
   6  -2   1 457.652 71.4392   7 
   6  -2  -1 336.760 58.5640  11 
   6   2  -1 324.546 102.025   3 
   6  -2   1 298.900 59.5852  11 
   6   2  -1 329.678 72.7292  27 
   6   2   1 270.480 72.1634  27 
   6  -2   1 304.992 60.1329  22 
   6  -2  -1 315.871 57.5441  22 
   6   2  -1 598.758 104.948   1 
   6   2  -1 322.416 93.7988   2 
   6   2   1 261.203 94.8760   1 
   6  -2  -1 286.006 56.8758  23 
   6  -2  -1 282.649 100.109   1 
   6  -2   1 330.022 116.559   1 
   6  -2   1 222.372 90.8171   5 
   6  -2  -1 319.074 55.0175  19 
   6  -2  -2 21345.5 810.203   1 
   6  -2   2 23746.1 937.031   1 
   6   2   2 22937.7 539.284  12 
   6  -2   2 24232.6 485.635  19 
   6   2  -2 24338.0 549.894  12 
   6  -2   2 22750.3 492.827  23 
   6   2   2 21893.9 565.489  18 
   6   2  -2 22287.8 573.038  18 
   6   2   2 24384.8 953.053   1 
   6   2   2 24672.5 613.545  27 
   6  -2   2 22014.8 496.778  11 
   6   2  -2 23590.8 792.923   3 
   6  -2   2 23258.9 503.427   7 
   6   2  -2 22019.2 537.339  27 
   6  -2   2 21775.0 509.683  21 
   6   2  -2 24117.0 806.188   2 
   6  -2  -2 24544.2 505.454  11 
   6   2   2 22698.9 572.190  23 
   6  -2  -2 24503.2 837.163   5 
   6  -2  -2 26064.7 503.188  21 
   6  -2  -2 25730.0 510.543  22 
   6  -2   2 23685.1 514.822  22 
   6  -2  -2 24523.4 480.711  19 
   6  -2   2 20228.2 848.282   4 
   6  -2   3 138620. 1354.52  12 
   6  -2  -3 117499. 1959.20   1 
  -6   2  -3 136630. 1413.44   8 
   6   2   3 146902. 1521.99  12 
   6  -2  -3 132293. 1288.18  19 
   6  -2   3 137689. 1318.97  19 
   6   2  -3 136274. 1446.95  12 
   6  -2  -3 134835. 1323.60  22 
   6   2   3 142778. 1592.34  18 
   6   2  -3 134110. 1553.13  18 
   6  -2   3 122748. 1348.94   7 
   6  -2   3 134486. 2381.38   1 
   6  -2  -3 139999. 1350.14  11 
   6  -2   3 136863. 1417.96  11 
   6   2  -3 132071. 2036.14   3 
   6   2  -3 138029. 1476.09  27 
   6   2   3 150676. 1672.15  27 
   6  -2   3 134194. 2301.37   4 
   6   2   3 142801. 1606.39  23 
   6   2  -3 131249. 2041.96   2 
   6  -2  -3 134142. 1302.84  21 
   6  -2   3 140217. 1371.54  23 
   6  -2  -3 134059. 2085.61   5 
   6   2   3 125107. 2375.61   1 
   6  -2   3 131001. 1394.30  22 
   6  -2   4 982.383 103.873  12 
   6  -2  -4 1011.73 102.443  22 
   6  -2  -4 1385.83 207.535   1 
   6  -2   4 912.438 204.647   1 
   6  -2   4 1012.34 201.414   4 
   6   2   4 930.770 100.938  10 
   6   2   4 1051.24 125.522  18 
   6   2  -4 1005.11 122.290  18 
   6  -2   4 1073.76 113.367   7 
   6  -2  -4 983.180 101.401  11 
  -6   2  -4 913.462 97.0797  17 
   6  -2  -4 1030.47 100.666  19 
   6   2   4 987.183 219.597   1 
   6  -2   4 1043.78 115.418  11 
  -6   2  -4 1035.17 114.901   8 
  -6   2  -4 1042.22 102.947  14 
   6   2   4 995.914 128.277  23 
   6  -2   4 1027.26 110.032  23 
   6   2  -4 964.496 185.888   2 
   6  -2  -4 1010.02 190.634   5 
   6  -2   4 1075.10 120.288  22 
  -6   2  -4 1128.83 97.4646  13 
   6  -2  -4 988.513 99.4658  21 
   6   2   4 943.707 127.690  27 
   6   2  -4 860.546 174.390   3 
  -6   2  -5 9693.24 367.972   8 
   6   2  -5 9542.72 310.576  26 
   6  -2  -5 9361.80 338.284  24 
   6   2   5 9711.06 369.163  12 
   6  -2  -5 10162.1 314.033  19 
   6   2   5 10086.2 388.734  18 
   6   2  -5 9667.15 385.228  18 
   6   2   5 9008.57 685.958   1 
  -6   2  -5 9723.25 322.017  17 
   6  -2   5 9501.47 667.517   1 
   6  -2   5 9002.75 302.767  19 
   6   2   5 9840.30 417.894  27 
   6  -2   5 9078.70 344.876   7 
   6  -2  -5 9835.95 325.368  11 
   6  -2   5 10098.3 346.239  12 
   6  -2  -5 9351.43 338.192  25 
  -6   2  -5 9683.42 322.254  14 
   6  -2   5 10656.1 351.231  23 
   6  -2  -5 9075.24 308.059  21 
   6  -2  -5 8742.41 563.487   5 
   6   2   5 9547.60 408.327  23 
   6  -2  -5 8684.36 304.556  22 
   6  -2   5 9448.16 361.738  22 
   6  -2  -5 9269.72 508.232   4 
  -6   2  -5 11188.6 316.693  13 
   6   2   5 9371.47 339.187  10 
   6  -2   5 9554.25 629.211   4 
   6  -2  -5 9279.69 548.583   1 
   6  -2   6 19767.4 510.670  12 
   6  -2  -6 19323.4 511.753  25 
   6   2  -6 19015.0 515.615  20 
  -6   2  -6 17501.8 518.175   8 
   6   2   6 18126.0 519.026  12 
   6  -2  -6 18949.5 444.057  19 
   6  -2   6 18972.8 453.593  19 
   6   2  -6 18743.7 460.665  26 
   6   2  -6 19664.9 562.397  18 
   6  -2   6 19283.5 527.794   7 
   6  -2  -6 18746.2 506.298  24 
   6   2  -6 18697.9 409.763  25 
   6  -2   6 18183.9 929.561   1 
   6   2   6 20516.9 632.497  27 
   6  -2  -6 18702.4 464.945  11 
   6   2   6 19964.1 523.469  10 
   6  -2   6 20666.9 508.834  23 
  -6   2  -6 20460.1 497.006  17 
   6   2  -6 18834.3 412.229  24 
  -6   2  -6 20547.3 491.147  14 
   6   2   6 18409.5 542.172  18 
   6   2   6 18987.8 608.018  23 
   6  -2  -6 18114.4 854.307   5 
   6  -2  -6 19386.6 475.342  22 
   6   2   6 17375.4 1024.84   1 
   6  -2   6 19695.5 546.962  22 
  -6   2  -6 19794.7 435.160  13 
   6  -2  -6 20017.6 474.632  21 
   6  -2   6 19131.1 925.185   4 
   6  -2  -6 16437.1 744.901   1 
  -6   2  -7 138.031 42.3064  24 
   6   2  -7 138.171 40.3448  25 
   6  -2  -7 8708.56 344.378  25 
   6  -2  -7 105.341 43.2728  16 
   6  -2  -7 104.917 39.5952  19 
   6  -2   7 146.049 103.482   4 
   6  -2  -7 192.213 124.497   5 
  -6   2  -7 202.093 65.2734   8 
   6  -2   7 165.137 56.9687  12 
   6  -2  -7 103.549 38.8565  15 
   6  -2   7 265.183 154.637   1 
   6   2  -7 199.657 64.2511  18 
   6   2   7 135.125 49.6235  12 
   6  -2  -7 160.869 53.7907  11 
  -6   2  -7 175.560 61.2922  17 
   6  -2   7 108.838 42.9655   7 
   6   2   7-2.21039 103.888   1 
   6  -2   7 156.812 51.8227  23 
   6   2  -7 271.321 65.0814  20 
   6   2  -7 495.420 80.9357  26 
  -6   2  -7 163.458 44.5190  25 
   6  -2  -7 176.011 61.1039  22 
   6   2  -7 144.147 44.1595  24 
   6  -2  -7 132.748 83.1822   1 
   6   2   7 149.111 52.9511  10 
   6  -2  -7 8300.55 335.711  24 
  -6  -2  -7 136.326 44.1983   6 
   6   2   7 126.798 67.6832  23 
  -6   2  -7 99.7724 37.6679  14 
  -6   2  -7 187.372 48.7570  13 
   6  -2  -7 180.977 52.1131  21 
   6   2  -8 34842.5 735.087  20 
   6  -2  -8 37117.0 760.392  25 
  -6   2  -8 32447.0 625.609  24 
   6   2   8 36403.9 785.484  12 
   6  -2  -8 35703.0 703.056  11 
   6  -2   8 40958.7 853.686   7 
  -6   2  -8 39527.9 762.031  17 
   6  -2  -8 35006.3 722.413  16 
   6  -2   8 34597.5 1457.49   1 
   6   2  -8 35928.9 703.697  26 
   6   2   8 37152.2 784.663  10 
   6   2   8 34743.3 919.171  23 
  -6   2  -8 42441.2 708.273  25 
   6   2  -8 35977.6 653.136  25 
   6  -2   8 34012.1 731.997  12 
   6  -2  -8 36827.7 704.961  21 
  -6  -2  -8 33600.5 615.980   6 
   6  -2  -8 38228.6 725.539  22 
   6   2  -8 35355.7 649.215  24 
  -6   2  -8 37648.1 711.054  14 
   6  -2  -8 36617.7 757.440  24 
   6  -2   8 36077.0 728.739  23 
  -6  -2  -8 36986.4 731.931   9 
   6  -2  -8 34335.3 1292.40   5 
   6  -2  -8 35942.5 689.970  15 
   6   2   8 34082.1 1607.81   1 
   6   2  -8 35962.6 628.242  21 
  -6  -2  -8 35902.2 651.073  16 
   6  -2   8 34829.1 1360.87   4 
  -6   2  -9 12368.0 385.137  25 
   6  -2  -9 10463.3 406.986  16 
   6   2   9 11575.7 446.496  12 
   6   2  -9 11264.3 403.390  26 
   6  -2  -9 11268.7 429.829  25 
   6  -2   9 11912.3 455.748   7 
  -6   2  -9 11426.2 422.944  17 
   6  -2  -9 11221.2 390.401  22 
  -6   2  -9 11211.6 367.934  24 
  -6  -2  -9 10676.2 365.775  16 
   6   2   9 10937.7 434.654  10 
  -6   2  -9 10888.5 392.026  14 
   6   2  -9 11323.5 373.720  25 
   6   2  -9 11172.7 371.246  24 
  -6  -2  -9 11110.1 362.133   6 
   6  -2  -9 11081.6 426.897  24 
   6  -2   9 10340.8 411.798  12 
   6   2   9 11151.0 530.435  23 
  -6  -2  -9 10935.4 398.812   9 
   6  -2  -9 11301.4 388.176  15 
   6  -2  -9 11021.4 386.515  21 
   6   2  -9 11356.3 354.467  21 
   6  -2  10 18413.1 565.930  12 
   6   2 -10 19171.7 551.129  26 
   6   2  10 17274.4 549.396  12 
   6   2  10 18497.6 702.295  23 
   6  -2 -10 18363.9 581.524  25 
  -6   2 -10 16693.3 464.285  24 
  -6   2 -10 18703.7 526.294  14 
  -6  -2 -10 18037.6 493.578   6 
   6  -2  10 20667.2 609.647   7 
  -6   2 -10 19228.9 566.208  17 
  -6  -2 -10 19030.4 512.456  16 
   6   2  10 19579.4 607.760  10 
  -6   2 -10 19480.8 501.986  25 
   6   2 -10 18861.6 508.469  25 
   6  -2 -10 17139.6 503.864  15 
   6  -2 -10 17887.3 576.675  24 
  -6  -2 -10 21952.7 497.773  14 
  -6  -2 -10 18296.6 529.765   9 
   6  -2 -10 18497.8 521.735  22 
   6   2 -10 18861.2 510.101  24 
   6  -2 -10 18677.5 529.668  21 
   6   2 -10 18774.3 473.968  21 
  -6   2 -10 19674.1 549.771   6 
   6  -2 -10 18500.9 566.804  16 
   6   2  11 4768.63 286.160  12 
  -6   2 -11 4839.19 277.536   6 
   6   2  11 4958.63 305.884  10 
   6  -2 -11 4839.58 272.708  11 
  -6   2 -11 5190.40 258.350  25 
  -6   2 -11 4856.01 272.607  14 
  -6   2 -11 4522.62 282.471  17 
   6  -2  11 4773.64 290.494   7 
  -6  -2 -11 4529.63 255.799  16 
   6   2 -11 4819.12 264.613  25 
   6  -2 -11 4000.06 278.795  25 
  -6   2 -11 4908.25 251.198  24 
   6  -2  11 4935.16 298.086  12 
   6   2 -11 4787.74 264.517  24 
   6  -2 -11 4686.50 289.593  16 
   6  -2 -11 3866.14 272.226  24 
  -6  -2 -11 5234.86 244.917  14 
   6   2 -11 4707.98 276.231  26 
  -6  -2 -11 4787.41 274.884   9 
   6  -2 -11 4905.02 274.423  22 
   6  -2 -11 5002.65 277.549  21 
   6   2 -11 4926.77 248.776  21 
   6  -2  12 33072.5 791.987  12 
   6  -2 -12 31724.7 769.192  16 
   6  -2 -12 34592.6 746.748  11 
  -6   2 -12 32770.8 670.024  25 
  -6   2 -12 31742.7 784.517  17 
   6   2 -12 33071.7 762.283  26 
  -6  -2 -12 33673.0 725.235  16 
   6   2 -12 32921.8 732.678  25 
  -6   2 -12 32208.3 735.010   6 
   6  -2 -12 34116.4 825.998  25 
   6   2 -12 32503.7 729.974  24 
   6  -2 -12 34035.1 826.724  24 
  -6   2 -12 33791.6 747.937  14 
  -6  -2 -12 29333.2 610.873  14 
  -6   2 -12 33524.3 678.339  24 
   6  -2 -12 32428.6 727.473  22 
  -6  -2 -12 30751.8 717.168   9 
   6   2  12 33078.4 826.802  10 
   6  -2 -12 32480.4 739.134  21 
   6   2 -12 33048.2 683.468  21 
   6  -2  13 13651.8 495.875  12 
  -6  -2 -13 12485.0 443.285   9 
   6  -2 -13 12917.9 450.665  11 
  -6   2 -13 13006.6 498.838  17 
  -6  -2 -13 13225.9 474.339  15 
  -6   2 -13 12077.7 452.936  16 
  -6  -2 -13 13703.8 461.649  16 
   6  -2 -13 12655.5 447.240  22 
   6   2 -13 12769.3 454.988  25 
   6   2 -13 12718.1 470.811  26 
  -6   2 -13 13371.3 468.383   6 
   6  -2 -13 12897.8 512.520  25 
   6   2 -13 12327.7 447.593  24 
   6  -2 -13 12460.5 505.216  24 
  -6   2 -13 13027.8 461.213  14 
   6   2  13 13499.8 523.161  10 
  -6  -2 -13 12837.8 394.495  14 
   6  -2 -13 12320.2 471.128  16 
  -6   2 -13 12621.0 404.931  24 
  -6   2 -13 11848.7 392.821  25 
   6  -2 -13 13473.9 479.023  21 
   6   2 -13 12340.7 413.440  21 
   6  -2  14 8013.20 370.157  12 
   6  -2 -14 6987.94 318.851  11 
   6   2 -14 7745.57 351.907  25 
  -6   2 -14 7001.64 292.818  25 
   6   2  14 7551.40 386.772  10 
  -6   2 -14 7008.54 293.458  24 
   6   2 -14 7222.65 346.876  26 
   6  -2 -14 7548.86 332.270  22 
   6   2 -14 7791.55 314.622  21 
  -6   2 -14 7318.35 370.381  17 
  -6   2 -14 7982.96 360.967  16 
  -6  -2 -14 7294.40 329.326  16 
   6  -2 -14 7382.13 377.036  25 
   6  -2 -14 7233.24 343.677  21 
   6   2 -14 7628.95 349.630  24 
   6  -2 -14 7146.62 373.616  24 
  -6   2 -14 7749.10 342.636  14 
  -6  -2 -14 7109.27 284.827  14 
   6  -2 -14 7156.09 352.796  16 
  -6  -2 -14 8012.78 354.712  15 
  -6  -2 -14 7442.67 329.814   9 
  -6   2 -14 6897.13 328.956   6 
   6  -2  15 38936.1 791.607  12 
  -6  -2 -15 38284.2 766.315  15 
   6  -2 -15 40421.7 758.615  11 
  -6   2 -15 38627.6 840.564  17 
   6   2 -15 39385.2 789.806  25 
  -6  -2 -15 40776.2 743.499   9 
  -6   2 -15 38916.0 791.484  16 
  -6  -2 -15 40510.6 773.434  16 
   6   2  15 40643.8 870.238  10 
   6   2 -15 37880.3 785.533  26 
  -6   2 -15 39337.9 768.728   6 
   6  -2 -15 37794.1 837.834  25 
   6   2 -15 38656.9 784.723  24 
   6  -2 -15 37573.8 834.469  24 
  -6   2 -15 40719.0 771.007  14 
   6  -2 -15 39243.1 746.654  22 
  -6  -2 -15 39483.1 714.384  21 
   6  -2 -15 37551.5 774.316  21 
  -6   2 -16 30060.4 622.769   6 
   6  -2  16 29793.1 640.640  12 
  -6  -2 -16 31486.6 640.528  15 
   6  -2 -16 30397.4 603.747  11 
  -6   2 -16 30129.8 701.847  17 
  -6  -2 -16 29696.5 573.930  21 
   6  -2  16 28008.8 622.066  10 
  -6   2 -16 31501.8 659.087  16 
  -6  -2 -16 31585.4 642.309  16 
   6   2 -16 29985.8 644.941  25 
   6   2  16 31185.3 707.982  10 
   6  -2 -16 29744.9 645.111  21 
  -6   2 -16 32047.1 633.934  14 
   6   2 -16 30023.1 648.709  24 
   6  -2 -16 27727.8 576.071  22 
  -6   2 -17 4134.12 212.683  16 
   6   2  17 3745.19 219.759  10 
  -6   2 -17 4208.75 202.617  14 
  -6  -2 -17 3800.70 197.176  16 
  -6   2 -17 4125.22 233.362  17 
   6  -2 -17 3605.88 202.090  21 
  -6  -2 -17 4428.91 209.708  15 
   6   2 -17 3845.47 210.523  25 
   6   2 -17 3837.69 210.697  24 
  -6   2 -17 3809.38 185.684  21 
  -6  -2 -17 4191.46 185.776  21 
  -6   2 -18 209.753 56.9915  17 
  -6   2 -18 238.927 50.9865  16 
  -6   2 -18 189.943 40.3445  14 
   6  -2 -18 130.057 39.4249  21 
   7  -2   0 13.3839 32.0548  21 
   7  -2   0 24.8454 30.6267  19 
   7   2   0 7.30520 29.1408  12 
   7   2   0 7.90938 26.1557  18 
   7  -2   0 41.8880 31.2119   7 
   7  -2   0 41.9197 33.9693  11 
   7   2   0 5.09886 42.6905   3 
   7  -2   0 0.17682 31.3710  23 
   7   2   0 35.7586 40.4770  27 
   7   2   0 17.6766 52.6037   2 
   7   2   0 5.50272 32.7847  23 
   7  -2   0 117.438 81.6185   4 
   7  -2   0 130.718 80.4612   1 
   7  -2   0 46.6138 67.6185   5 
  -7   2   0 21.9561 25.0298  13 
   7  -2   0 23.3353 32.3628  22 
   7  -2  -1 28533.3 565.025  19 
   7   2   1 30415.2 664.659  12 
   7  -2   1 31355.6 590.897  19 
   7  -2  -1 32082.7 1098.03   1 
   7   2   1 31446.1 721.511  18 
   7   2  -1 30530.5 719.250  18 
   7  -2   1 30171.2 1118.66   1 
   7  -2  -1 30801.2 578.929   7 
   7  -2   1 31465.4 610.342   7 
  -7   2   1 29283.9 564.578  13 
   7   2   1 28845.2 895.093   3 
   7  -2  -1 27419.8 574.577  21 
   7  -2  -1 29176.2 594.119  11 
   7  -2   1 28065.0 594.276  11 
   7   2  -1 28179.3 868.123   3 
   7   2  -1 31486.0 697.630  27 
   7  -2   1 29801.4 562.822  12 
   7   2   1 30558.7 679.513  23 
   7   2   1 29127.1 1022.09   1 
   7   2  -1 31253.0 668.498  12 
   7   2  -1 28740.7 881.320   2 
   7   2   1 29416.6 703.073  27 
   7  -2  -1 30484.6 600.316  23 
   7  -2   1 32303.9 635.140  23 
   7   2  -1 26386.3 606.325  23 
   7  -2  -1 28265.3 979.924   5 
   7  -2  -1 31467.7 613.019  22 
  -7   2  -1 28000.2 526.062  13 
   7   2   1 27930.4 870.002   2 
   7  -2   1 30014.5 612.839  22 
   7  -2  -1 30286.5 1058.39   4 
   7  -2   1 28366.9 1070.68   4 
   7  -2   1 28281.2 609.040  21 
   7  -2  -2 521.489 80.1224  21 
   7  -2   2 512.873 158.776   1 
   7   2   2 417.009 71.3480  10 
   7  -2  -2 533.283 143.783   4 
   7  -2   2 532.413 151.788   4 
   7  -2  -2 475.190 77.1659  19 
   7  -2   2 605.781 83.8520  19 
  -7   2  -2 533.434 81.8026   8 
   7  -2   2 481.223 75.6794  12 
   7   2   2 504.858 86.4252  12 
   7   2  -2 525.749 92.0798  12 
   7  -2  -2 535.683 82.1730  23 
   7   2   2 540.249 99.6792  18 
   7   2  -2 482.271 91.9099  18 
   7   2   2 511.426 151.944   1 
   7  -2   2 566.967 86.2648   7 
   7  -2  -2 559.285 81.8135  11 
   7  -2   2 766.068 98.2164  11 
   7   2   2 565.602 104.046  27 
   7   2  -2 398.707 113.407   3 
  -7   2   2 494.185 74.1164  13 
   7  -2   2 722.776 98.4053  22 
   7   2  -2 500.287 127.041   2 
   7  -2   2 532.602 89.2519  23 
   7   2   2 545.796 96.5325  23 
   7  -2  -2 480.858 135.736   1 
   7   2  -2 545.730 95.2673  27 
   7  -2  -2 579.504 82.7570  22 
   7  -2  -2 461.888 130.430   5 
  -7   2  -2 493.832 66.1427  13 
   7  -2  -3 19.7450 22.7213  21 
   7  -2   3 36.8840 77.1702   1 
   7   2  -3 14.3711 63.5708   3 
   7  -2  -3 80.2470 72.5513   4 
   7  -2   3 27.4509 53.4336   4 
   7  -2  -3 56.3817 30.5725  19 
   7  -2   3 53.2965 39.3139  19 
  -7   2  -3-6.10907 34.9727   8 
   7  -2   3 67.0126 35.2085  12 
   7   2   3 124.804 57.2522  12 
   7   2  -3 66.3339 47.1997  12 
   7   2  -3 45.2353 46.5035  18 
  -7   2  -3 15.8509 22.3697  17 
   7  -2  -3 76.2505 45.6580  11 
   7  -2   3 24.5088 33.6914  11 
   7   2   3-6.81111 73.3129   1 
   7   2  -3-0.23072 40.7800  27 
   7  -2   3 51.5813 39.6328   7 
   7   2   3-27.5894 42.0211  27 
   7   2   3 74.3669 52.0341  18 
   7   2  -3 11.3623 50.6557   2 
   7  -2  -3 39.0771 40.6533  23 
   7  -2   3-5.07863 31.2546  23 
   7   2   3-1.32860 33.9336  23 
   7  -2  -3 214.679 103.762   1 
   7   2   3 2.80432 27.8870  10 
   7  -2  -3 2.31940 57.3288   5 
   7  -2  -3 34.5441 32.0000  22 
   7  -2   3 38.2635 35.1283  22 
   7  -2   4 10338.7 358.103  12 
  -7   2  -4 10273.5 381.866   8 
   7  -2  -4 9267.44 572.271   1 
   7   2   4 9947.36 389.468  12 
   7   2  -4 10852.2 408.994  27 
   7   2   4 9889.83 719.148   1 
   7   2  -4 10455.9 382.533  12 
   7   2   4 10790.6 425.217  18 
   7   2  -4 10256.1 416.453  18 
   7  -2  -4 10317.6 334.433  19 
   7  -2   4 10087.4 372.560   7 
   7  -2  -4 11332.0 367.216  11 
  -7   2  -4 9685.71 317.419  17 
   7  -2   4 10303.3 386.120  11 
   7   2   4 9946.02 432.486  27 
  -7   2  -4 11323.2 358.193  14 
   7  -2  -4 11115.0 354.763  21 
   7  -2  -4 10716.2 366.257  23 
   7  -2   4 10063.9 358.451  23 
   7   2   4 10277.8 426.923  23 
   7  -2  -4 9762.34 608.895   5 
   7  -2  -4 11312.7 364.497  22 
   7  -2   4 11177.2 402.607  22 
   7  -2   4 10573.3 348.540  19 
   7  -2   4 9809.45 716.815   1 
   7  -2  -4 9579.08 569.272   4 
   7  -2   4 9868.51 671.244   4 
   7   2   4 10347.3 356.578  10 
   7  -2  -5 4517.47 401.253   1 
  -7   2  -5 5217.46 283.490   8 
   7   2   5 4674.24 270.620  12 
   7  -2  -5 4997.62 233.747  19 
   7  -2  -5 4834.73 240.594  22 
   7  -2   5 5204.03 245.472  19 
   7   2   5 5534.74 305.592  18 
   7   2  -5 4892.69 291.877  18 
   7  -2   5 5074.34 271.659   7 
   7  -2  -5 5564.20 261.696  11 
  -7   2  -5 5147.56 240.166  17 
   7  -2   5 4918.61 503.176   1 
   7  -2   5 5341.68 283.249  22 
   7   2   5 5160.94 320.584  27 
   7  -2   5 5286.66 262.774  12 
  -7   2  -5 5395.16 255.019  14 
   7  -2  -5 5032.22 254.762  23 
   7  -2   5 4933.49 258.485  23 
   7   2   5 5157.91 312.919  23 
   7   2   5 5339.25 261.774  10 
   7  -2  -5 4741.97 447.184   5 
   7   2   5 4783.82 530.421   1 
   7  -2  -5 5254.43 249.255  21 
   7  -2   5 5132.12 502.276   4 
   7   2  -6 177.131 57.1894  20 
   7  -2  -6 241.993 57.1779  19 
   7  -2   6 407.041 159.458   4 
   7  -2   6 155.121 50.9450  19 
   7  -2   6 223.456 59.4341  12 
   7   2   6 311.517 74.9895  12 
   7  -2   6 304.531 135.662   1 
   7   2   6 325.108 78.2638  18 
   7  -2  -6 244.891 65.4129  11 
  -7   2  -6 310.935 70.3388  17 
   7   2   6 298.780 177.276   1 
   7  -2   6 221.402 67.1750   7 
   7   2   6 292.845 99.5372  27 
  -7   2  -6 223.412 59.4722  14 
   7   2   6 230.016 61.2458  10 
   7  -2  -6 148.310 46.1374  22 
   7   2  -6 176.546 60.3103  18 
   7  -2   6 308.087 71.7749  23 
   7   2   6 209.073 68.8213  23 
   7  -2  -6 157.900 102.071   5 
   7  -2   6 229.691 71.8800  22 
   7  -2  -6 173.797 52.6655  21 
  -7   2  -7 2601.71 168.563  24 
   7  -2   7 2863.22 208.491  12 
   7   2  -7 2487.63 195.137  20 
   7   2  -7 3023.36 190.039  26 
   7   2   7 3036.78 231.691  12 
   7  -2  -7 2579.33 168.923  19 
   7  -2   7 2446.09 380.856   4 
   7   2   7 2877.49 222.429  18 
   7   2  -7 2599.57 212.086  18 
   7  -2  -7 2711.47 192.917  11 
   7   2   7 2800.20 202.449  10 
   7  -2   7 3131.25 236.153   7 
  -7   2  -7 2973.48 198.943  17 
   7   2   7 2426.25 431.369   1 
   7   2   7 2524.63 237.173  27 
   7   2   7 2749.48 259.314  23 
  -7   2  -7 2410.10 161.474  25 
   7  -2  -7 2748.07 210.415  25 
  -7   2  -7 3177.81 201.975  14 
   7  -2  -7 2714.55 208.453  24 
   7  -2   7 2736.84 201.287  23 
   7  -2  -7 2926.24 198.543  22 
   7  -2  -7 2539.16 182.712  21 
   7   2   8 33252.9 792.218  12 
   7  -2  -8 30152.2 665.832  11 
   7  -2   8 32998.0 780.906   7 
  -7   2  -8 35352.3 729.402  17 
   7   2   8 32692.8 741.935  10 
   7   2  -8 29968.6 637.364  26 
   7   2   8 30997.2 888.117  23 
   7   2  -8 31001.5 608.740  25 
   7  -2  -8 31129.3 721.539  25 
  -7   2  -8 30705.8 607.871  24 
   7   2  -8 31266.9 611.576  24 
  -7   2  -8 30676.8 671.689  14 
  -7  -2  -8 29507.6 581.554   6 
   7  -2  -8 31931.6 729.920  24 
   7  -2  -8 31546.6 670.944  23 
   7  -2   8 33639.0 750.204  23 
   7  -2  -8 30807.2 671.420  22 
  -7   2  -8 28576.2 585.033  25 
   7  -2  -8 30608.9 674.443  21 
   7   2  -8 29807.3 591.451  21 
   7  -2   9 102274. 1422.73  12 
   7   2   9 98080.0 1434.36  12 
   7   2  -9 101895. 1237.42  25 
   7   2   9 105668. 1444.39  10 
   7  -2   9 96676.2 1425.25   7 
  -7   2  -9 100664. 1360.47  17 
  -7   2  -9 102773. 1218.58  24 
  -7   2  -9 96919.3 1307.21   6 
   7  -2  -9 104301. 1434.05  25 
   7   2  -9 102651. 1298.12  26 
   7  -2  -9 100762. 1323.64  11 
  -7  -2  -9 102919. 1345.60   9 
   7  -2  -9 106325. 1346.33  22 
  -7  -2  -9 102811. 1216.67   6 
   7   2   9 95657.0 1691.35  23 
   7   2  -9 103066. 1243.70  24 
   7  -2  -9 102020. 1421.46  24 
  -7   2  -9 97981.0 1196.80  25 
   7  -2  -9 111199. 1322.94  23 
   7  -2   9 103768. 1407.86  23 
  -7   2  -9 105247. 1340.64  14 
   7  -2  -9 102098. 1332.46  21 
   7   2  -9 105438. 1218.25  21 
   7  -2  10 14047.0 510.034  12 
   7   2  10 14920.1 535.541  12 
   7   2 -10 14814.6 455.485  24 
  -7  -2 -10 14355.4 433.042  16 
  -7   2 -10 13790.1 480.243  17 
   7  -2  10 13500.9 509.628   7 
  -7   2 -10 14922.6 428.928  24 
  -7   2 -10 15063.9 491.133   6 
   7   2 -10 14486.5 468.284  26 
  -7   2 -10 15041.2 433.335  25 
   7   2 -10 14532.0 452.116  25 
   7  -2 -10 14396.9 521.668  25 
  -7  -2 -10 13870.7 431.283   6 
   7  -2 -10 14173.6 515.916  24 
  -7   2 -10 14116.3 473.247  14 
   7   2  10 13864.8 619.130  23 
  -7  -2 -10 13864.3 476.022   9 
   7  -2 -10 15248.2 485.495  22 
   7  -2 -10 14534.0 478.598  11 
   7   2  10 14430.4 516.594  10 
   7  -2 -10 15034.4 492.100  21 
   7   2 -10 14575.7 431.747  21 
   7  -2  11 2192.18 205.431  12 
   7   2  11 2193.84 203.593  12 
  -7  -2 -11 2106.63 169.399  16 
  -7   2 -11 2002.65 179.325   6 
   7  -2 -11 2223.50 187.334  11 
  -7   2 -11 2221.10 199.543  17 
   7  -2  11 1950.59 196.533   7 
  -7   2 -11 1911.77 155.943  25 
   7   2 -11 2030.24 179.318  26 
   7   2  11 2340.59 210.143  10 
   7   2 -11 2226.72 176.987  24 
   7  -2 -11 2031.62 205.598  24 
  -7   2 -11 2199.82 186.910  14 
   7   2 -11 2149.65 175.019  25 
  -7  -2 -11 2068.12 179.494   9 
   7   2  11 1813.54 222.193  23 
   7  -2 -11 2081.82 181.681  22 
  -7   2 -11 1987.25 158.454  24 
   7  -2 -11 2135.66 192.042  21 
   7   2 -11 2024.48 167.481  21 
   7  -2 -11 2042.83 206.451  25 
   7  -2  12 8541.90 402.931  12 
  -7  -2 -12 8407.74 346.290  16 
   7   2  12 8758.21 407.899  10 
   7   2  12 8794.30 398.543  12 
   7  -2 -12 9207.88 379.548  11 
   7  -2 -12 9290.20 434.710  25 
  -7   2 -12 9123.31 335.032  24 
  -7   2 -12 9406.43 415.658  17 
   7   2 -12 8813.29 368.030  25 
   7   2 -12 8365.60 368.067  26 
   7   2 -12 8786.79 367.546  24 
  -7   2 -12 8986.97 387.660   6 
  -7   2 -12 8990.13 381.328  14 
  -7  -2 -12 8971.62 374.705   9 
   7  -2 -12 8936.76 371.391  22 
   7  -2 -12 9693.17 444.606  24 
   7  -2 -12 9300.20 401.473  21 
   7   2 -12 8251.79 340.821  21 
  -7   2 -12 8719.70 327.483  25 
   7  -2  13 4640.57 289.843  12 
  -7  -2 -13 4896.86 261.485  16 
   7   2  13 4779.87 294.987  10 
  -7  -2 -13 4523.61 260.873   9 
   7  -2 -13 4956.90 275.154  11 
   7  -2 -13 4548.54 278.920  21 
  -7   2 -13 5176.92 305.090  17 
   7  -2 -13 4651.86 306.896  24 
  -7   2 -13 5066.18 282.958  16 
  -7   2 -13 4931.01 281.306   6 
  -7  -2 -13 4266.91 267.531  15 
   7   2 -13 4895.69 273.334  25 
   7  -2 -13 4295.28 297.912  25 
   7   2 -13 4758.53 271.060  24 
  -7   2 -13 4935.22 275.198  14 
   7  -2 -13 4622.02 262.523  22 
   7   2 -13 4680.39 270.000  26 
   7   2 -13 4844.03 251.544  21 
   7  -2 -14 1735.69 181.518  25 
   7  -2  14 1933.74 179.747  12 
   7   2 -14 1660.48 158.115  25 
   7  -2 -14 1690.80 152.415  22 
   7  -2 -14 1925.51 166.452  11 
   7   2  14 1963.19 190.643  10 
  -7   2 -14 1872.72 182.148  17 
  -7   2 -14 1832.08 165.364   6 
  -7   2 -14 1748.94 165.615  16 
  -7  -2 -14 1625.59 146.734  16 
   7   2 -14 2052.10 173.233  26 
   7   2 -14 1872.88 168.422  24 
  -7  -2 -14 1761.96 156.010   9 
   7  -2 -14 1845.08 187.471  24 
  -7   2 -14 1939.68 167.485  14 
  -7  -2 -14 1788.40 164.084  15 
   7  -2 -14 1756.95 169.729  21 
  -7  -2 -15 52869.6 873.848  15 
   7  -2  15 50716.2 891.088  12 
  -7  -2 -15 47400.0 791.663  16 
  -7  -2 -15 43965.6 725.420  21 
   7  -2 -15 44351.2 772.432  11 
   7   2  15 47857.4 892.486  10 
  -7   2 -15 47223.7 897.121  17 
  -7   2 -15 48793.8 853.228  16 
  -7   2 -15 46586.3 810.737  14 
   7  -2 -15 44622.5 771.005  22 
  -7   2 -15 47401.0 823.554   6 
   7   2 -15 47942.6 832.854  25 
   7   2 -15 47500.0 829.590  24 
  -7  -2 -15 48386.5 780.202   9 
   7  -2 -15 47388.7 855.590  21 
   7  -2  16 25299.4 564.152  12 
   7  -2 -16 25857.4 576.632  21 
   7   2  16 25657.0 588.771  10 
  -7  -2 -16 25169.6 544.348  15 
  -7   2 -16 27135.7 624.697  17 
   7   2 -16 25460.0 557.660  24 
   7   2 -16 25261.6 554.992  25 
  -7   2 -16 26224.8 541.813  14 
  -7  -2 -16 25546.3 493.420  21 
  -7   2 -16 25349.7 542.850   6 
  -7  -2 -16 25070.6 520.245  16 
  -7   2 -16 26250.7 573.780  16 
  -7   2 -17 9972.10 338.601  17 
  -7   2 -17 10411.3 320.191  16 
   7   2  17 9161.19 307.538  10 
   7   2 -17 9319.83 297.395  25 
   7   2 -17 9202.72 296.779  24 
  -7   2 -17 10354.8 302.298  14 
  -7  -2 -17 9939.10 297.433  15 
  -7   2 -17 9309.29 274.041  21 
   7  -2 -17 9592.84 314.041  21 
   8  -2   0 23187.4 538.324  19 
   8   2   0 19808.5 570.005  12 
   8  -2   0 23182.6 561.359  23 
   8   2   0 20447.9 621.161  18 
   8  -2   0 19859.3 956.061   1 
   8  -2   0 22461.5 545.839   7 
   8  -2   0 21992.3 549.973  11 
   8   2   0 23752.0 664.227  27 
   8  -2   0 20512.3 963.137   4 
   8   2   0 19663.9 566.119  23 
   8  -2   0 21778.6 548.686  22 
  -8   2   0 20738.0 466.205  13 
   8  -2   0 21676.2 547.677  21 
   8  -2   1 17669.2 459.330  12 
   8  -2  -1 17558.8 467.100  19 
   8   2   1 16854.4 523.611  12 
   8  -2   1 14487.3 424.615  19 
   8   2   1 17300.8 567.294  18 
   8   2  -1 18372.0 588.122  18 
   8  -2   1 19586.4 964.185   1 
   8  -2   1 17733.3 492.163   7 
   8  -2  -1 17858.1 487.872  11 
   8  -2   1 18071.6 513.932  22 
   8  -2   1 17363.7 497.544  11 
   8  -2   1 17400.6 494.863  23 
   8   2  -1 16958.4 549.679  27 
   8   2   1 16953.3 562.682  27 
   8  -2  -1 15818.4 825.862   1 
   8  -2  -1 16239.2 468.978  23 
  -8   2   1 17161.3 434.969  13 
   8   2  -1 15731.6 494.209  23 
   8   2   1 17465.5 542.108  23 
   8  -2  -1 17085.5 458.820   7 
   8  -2  -1 15830.3 799.394   5 
   8  -2  -1 17817.0 487.586  22 
   8  -2  -1 15896.9 836.112   4 
   8  -2  -1 17309.0 478.672  21 
   8   2  -1 16947.7 521.622  12 
   8  -2   1 17190.2 894.977   4 
   8  -2   1 16698.6 491.214  21 
   8  -2  -2 618.317 91.9295  21 
   8  -2   2 630.823 186.737   1 
   8  -2   2 603.373 180.405   4 
   8  -2   2 609.184 91.6024  19 
   8  -2   2 678.730 89.5976  12 
   8  -2  -2 647.566 183.459   4 
   8   2   2 620.061 104.393  12 
   8   2  -2 596.986 100.255  12 
   8   2   2 688.953 113.383  18 
   8   2  -2 616.691 109.310  18 
   8  -2   2 735.821 103.131   7 
   8  -2  -2 688.771 97.9576  11 
   8  -2   2 740.203 103.691  11 
   8   2  -2 646.447 107.199  27 
   8   2   2 678.775 124.245  27 
   8  -2   2 697.897 103.688  22 
   8  -2  -2 660.585 91.1355  19 
   8   2   2 773.032 198.015   1 
   8  -2  -2 747.774 102.279  23 
   8  -2   2 675.943 103.004  23 
   8   2   2 756.302 120.280  23 
   8  -2  -2 570.369 167.263   5 
   8  -2  -2 474.084 165.298   1 
  -8   2   2 568.689 83.8958  13 
   8  -2  -2 643.547 102.034  22 
   8  -2  -3 58253.6 922.566  22 
   8   2   3 57797.6 1025.84  12 
   8  -2  -3 60518.2 898.996  19 
   8  -2   3 60086.7 909.559  19 
   8   2  -3 60211.7 1004.68  12 
   8  -2  -3 50490.2 1450.39   1 
   8   2   3 54631.8 1045.13  18 
   8   2  -3 57523.4 1085.37  18 
   8  -2  -3 56601.3 1538.41   4 
   8  -2   3 59904.2 986.519   7 
   8  -2   3 55572.8 976.311  22 
   8  -2  -3 56102.7 909.607  11 
   8  -2   3 58246.3 1755.34   1 
   8  -2   3 59055.5 998.058  11 
   8   2  -3 60232.1 1053.84  27 
   8   2   3 55335.3 1087.81  27 
   8  -2   3 61068.2 928.853  12 
   8  -2   3 54943.0 1689.21   4 
   8  -2  -3 54322.3 909.317  23 
   8  -2   3 60611.2 981.972  23 
   8   2   3 57216.7 1063.51  23 
   8  -2  -3 60101.2 1644.62   5 
  -8   2   3 61463.8 909.864  13 
   8   2   3 52896.5 1688.83   1 
   8  -2  -3 61044.3 931.235  21 
   8  -2   4 25169.2 600.224  12 
   8   2   4 23628.5 649.252  12 
   8  -2  -4 25862.1 569.457  19 
   8  -2  -4 22350.6 949.751   1 
   8   2  -4 24999.7 633.249  12 
   8   2  -4 23627.9 683.670  18 
  -8   2  -4 25623.2 577.471  14 
   8  -2   4 25683.9 646.994   7 
   8  -2  -4 22731.8 568.306  11 
   8  -2   4 25198.6 1176.39   1 
   8   2  -4 24989.1 666.834  27 
   8   2   4 24876.3 729.345  27 
   8  -2   4 24763.1 576.505  19 
   8   2   4 24543.5 705.075  23 
   8   2   4 25120.9 563.452  10 
   8   2   4 23636.3 1187.98   1 
   8  -2  -4 26686.9 616.222  23 
   8   2   4 22518.0 662.320  18 
   8  -2   4 26578.7 634.795  23 
   8  -2  -4 23018.5 1042.60   5 
   8  -2  -4 24644.8 588.442  22 
   8  -2   4 26143.9 669.645  22 
   8  -2  -4 24057.0 576.591  21 
   8  -2   4 20483.5 1047.52   4 
   8  -2   5 1025.68 126.308  12 
   8   2   5 1002.42 138.430  12 
   8  -2  -5 1188.85 123.390  19 
   8  -2   5 1012.68 118.774  19 
   8  -2  -5 1078.70 128.340  22 
   8  -2   5 1006.90 262.400   1 
   8   2   5 913.345 131.720  18 
   8  -2   5 1252.49 144.970   7 
  -8   2  -5 981.452 110.655  17 
   8  -2  -5 1080.07 126.230  11 
   8   2   5 991.793 274.146   1 
   8   2  -5 1080.73 140.179  27 
   8   2  -5 1000.44 139.887  18 
   8   2   5 1125.64 123.419  10 
   8  -2  -5 936.809 119.069  23 
  -8   2  -5 1201.16 126.975  14 
   8  -2   5 941.884 124.166  23 
   8   2   5 1073.41 147.828  23 
   8  -2   5 1036.49 255.606   4 
   8  -2  -5 849.184 223.595   5 
   8  -2   5 1007.64 141.016  22 
   8  -2  -5 1029.39 120.406  21 
   8   2   5 1078.36 158.437  27 
   8  -2  -6 24.3693 44.9760  21 
   8   2  -6 43.9972 42.8147  20 
   8  -2  -6 0.19130 33.2773  19 
   8  -2   6-11.5434 29.8924  12 
   8   2   6-21.7902 41.3308  12 
   8   2   6 5.54023 40.6779  18 
   8  -2  -6 11.7364 54.3367  22 
  -8   2  -6 85.5691 44.6539  17 
   8  -2  -6 13.6628 40.1336  11 
   8  -2   6 51.0984 52.9933   7 
   8   2  -6 5.76479 41.6806  27 
   8   2   6 2.60631 63.3389  27 
   8  -2  -6 65.2567 50.8590  23 
   8  -2   6 57.4152 48.4412  23 
   8   2   6 9.86720 66.9327  23 
   8   2  -6-11.5124 34.6976  18 
  -8   2  -6 10.6722 39.3646  14 
   8  -2   7 23485.7 633.278  12 
   8  -2  -7 24036.6 606.993  21 
   8   2   7 26994.3 727.779  12 
   8   2   7 24999.6 702.756  18 
   8   2  -7 24060.2 695.593  18 
   8  -2  -7 23472.8 538.542  19 
   8  -2  -7 25840.6 628.307  11 
  -8   2  -7 24820.4 532.793  25 
   8  -2   7 24969.3 686.199   7 
  -8   2  -7 24337.5 591.878  17 
   8   2  -7 24480.5 669.137  27 
   8   2   7 23423.8 761.831  27 
   8  -2  -7 24029.7 602.151  23 
  -8   2  -7 24285.4 604.199  14 
  -8   2  -7 23991.2 529.426  24 
   8   2   7 25308.9 625.808  10 
   8  -2   7 23304.9 642.260  23 
   8   2   7 24097.2 783.203  23 
   8  -2  -7 26159.7 625.534  22 
  -8   2  -8 54069.2 827.440  25 
   8  -2   8 56639.2 1037.40  12 
   8   2   8 63397.6 1147.55  12 
   8  -2  -8 59444.5 991.903  11 
   8  -2   8 58573.2 1083.47   7 
  -8   2  -8 56770.3 956.404  17 
   8   2   8 58073.2 1005.25  10 
   8  -2  -8 59149.7 965.900  23 
  -8   2  -8 51493.8 810.127  24 
  -8   2  -8 60567.6 998.869  14 
   8  -2  -8 55549.2 966.458  21 
   8  -2   8 52183.5 1005.86  23 
   8  -2  -8 53446.5 940.676  22 
   8   2   8 50700.3 1206.87  23 
   8  -2   9 30807.5 777.359  12 
   8   2   9 30746.4 792.925  12 
   8  -2  -9 30658.8 713.032  11 
  -8   2  -9 32724.4 736.727  17 
   8  -2   9 31578.5 799.234   7 
   8   2  -9 32939.9 662.035  25 
  -8   2  -9 32952.9 745.632   6 
   8  -2  -9 33814.7 753.481  21 
   8   2   9 33363.6 767.143  10 
  -8  -2  -9 29991.9 612.577   6 
  -8  -2  -9 33103.7 747.376   9 
   8   2   9 33100.2 982.777  23 
   8   2  -9 33002.0 663.629  24 
  -8   2  -9 33708.3 739.810  14 
   8  -2  -9 31980.9 693.249  23 
   8  -2   9 29659.0 756.205  23 
   8  -2  -9 31927.7 722.997  22 
   8   2 -10 985.698 118.978  21 
   8   2  10 1284.05 164.089  12 
   8  -2  10 1136.85 147.227  12 
  -8   2 -10 1235.01 141.275  17 
   8  -2 -10 1020.46 133.234  11 
   8  -2  10 1066.52 150.006   7 
  -8   2 -10 1078.39 138.563   6 
   8   2 -10 1102.19 122.809  25 
  -8  -2 -10 1011.34 115.114   6 
   8   2 -10 1129.22 126.517  24 
   8   2  10 1241.58 146.575  10 
  -8  -2 -10 1171.36 139.383   9 
  -8   2 -10 1042.49 126.674  14 
   8   2  10 1321.56 215.598  23 
   8  -2 -10 1063.58 136.583  22 
   8  -2 -10 1063.42 139.591  21 
   8  -2  11 92.1294 42.5435  12 
   8   2  11 134.524 68.6170  12 
  -8   2 -11 99.5275 49.1977  14 
   8  -2 -11 251.757 76.2445  11 
  -8   2 -11 174.049 65.7936  17 
   8   2  11 135.539 54.0314  10 
   8   2 -11 110.753 43.7404  25 
  -8   2 -11 120.421 56.6366   6 
   8   2 -11 129.515 49.9358  24 
   8   2  11 230.294 109.527  23 
   8  -2 -11 196.157 65.5406  22 
  -8  -2 -11 132.728 53.2903   9 
   8  -2 -11 157.198 76.9180  21 
   8  -2  12 159.730 74.4947  12 
   8   2  12 102.494 57.9716  12 
   8  -2 -12 43.5976 52.7004  11 
  -8   2 -12 83.3207 51.8905  17 
  -8   2 -12 49.3599 51.9976  16 
  -8   2 -12 101.292 53.7527  14 
   8   2 -12 283.499 72.0224  25 
  -8   2 -12 27.9921 37.4143   6 
   8   2  12 78.3700 51.1789  10 
   8   2 -12 254.188 70.0856  24 
   8  -2 -12 137.611 65.5243  22 
  -8  -2 -12 101.843 51.7743   9 
   8  -2 -12 74.2676 52.7799  21 
  -8   2 -13 8664.38 362.197   6 
   8  -2  13 8208.85 384.638  12 
   8   2  13 8439.95 366.736  12 
   8   2  13 8862.67 386.389  10 
   8  -2 -13 8522.60 352.368  11 
  -8   2 -13 8565.04 377.715  17 
  -8   2 -13 8372.89 357.675  16 
  -8  -2 -13 9066.52 377.524  15 
   8   2 -13 9142.08 358.424  25 
   8   2 -13 8879.29 353.021  24 
   8  -2 -13 9311.14 365.024  22 
  -8   2 -13 8707.58 361.446  14 
  -8  -2 -13 8789.29 352.410   9 
   8  -2 -13 8573.10 378.034  21 
   8   2 -14 362.115 76.7340  25 
   8  -2  14 351.999 81.1827  12 
   8  -2 -14 440.911 85.2988  11 
  -8   2 -14 329.229 80.3202  17 
   8  -2 -14 348.924 77.9012  21 
   8   2  14 359.714 80.6525  10 
  -8  -2 -14 328.730 74.7881  15 
  -8   2 -14 370.531 74.4230   6 
   8   2 -14 305.893 69.0737  24 
  -8   2 -14 304.456 65.7655  14 
   8  -2 -14 305.614 71.1025  22 
  -8  -2 -14 322.798 67.8383   9 
  -8   2 -14 360.899 76.3827  16 
   8  -2  15 8935.62 354.968  12 
  -8   2 -15 9754.76 369.343  17 
  -8   2 -15 8926.59 333.559  16 
   8   2  15 8814.45 340.965  10 
  -8  -2 -15 9131.86 331.758  15 
  -8   2 -15 8698.93 327.279   6 
   8   2 -15 8855.29 322.106  25 
   8   2 -15 8640.79 317.822  24 
  -8   2 -15 8998.09 325.746  14 
  -8  -2 -15 9308.85 294.735  21 
  -8  -2 -15 9161.54 304.683   9 
   8  -2 -15 8941.31 347.631  21 
   8  -2  16 25179.3 531.881  12 
  -8   2 -16 24532.1 542.712  17 
  -8   2 -16 25666.3 525.443  16 
  -8  -2 -16 24760.0 440.059  21 
   8   2  16 22937.7 498.889  10 
  -8  -2 -16 24368.8 501.316  15 
   8   2 -16 24150.6 494.534  25 
  -8   2 -16 26099.2 518.767   6 
   8   2 -16 23225.9 485.512  24 
   8  -2 -16 25224.0 540.202  21 
  -8   2 -16 25516.2 503.053  14 
   9  -2   0 60.5418 46.0867  21 
   9  -2   0 5.71255 85.6843   1 
   9  -2   0 46.4410 101.125   4 
   9  -2   0-12.3157 37.0310  19 
   9   2   0 21.0578 42.5151  12 
   9   2   0 39.8186 50.5751  18 
   9  -2   0 81.8257 41.5273   7 
   9  -2   0 64.2785 53.6973  11 
   9   2   0 29.4579 53.5157  27 
   9  -2   0 59.6116 46.9586  23 
   9   2   0-11.4158 40.8502  23 
   9  -2   0-22.5336 47.3246  22 
   9  -2   1 15236.1 448.746  12 
   9   2   1 14297.7 512.944  12 
   9  -2  -1 16441.8 470.997  19 
   9  -2   1 14698.7 456.795  19 
   9   2  -1 15133.2 521.338  12 
   9   2   1 15457.7 576.422  18 
   9   2  -1 14700.0 564.146  18 
   9  -2  -1 13250.1 839.818   1 
   9  -2   1 17898.8 529.692   7 
   9  -2  -1 17001.0 478.520   7 
   9  -2   1 14054.8 878.107   1 
   9   2  -1 15071.8 555.645  27 
   9  -2  -1 14546.0 474.048  11 
   9  -2   1 15504.2 501.233  11 
   9   2   1 15765.8 577.434  27 
   9  -2  -1 15687.3 488.355  23 
   9  -2   1 14463.3 476.188  23 
   9   2  -1 14952.7 505.339  23 
   9   2   1 15603.3 538.789  23 
   9  -2  -1 15045.0 484.427  22 
   9  -2   1 15540.0 505.082  22 
   9  -2  -1 15564.5 490.690  21 
   9  -2   1 13920.6 480.422  21 
   9  -2  -1 13735.3 847.512   4 
   9  -2   1 14287.6 895.733   4 
   9  -2  -2 622.712 96.2030  21 
   9  -2   2 585.726 195.379   1 
   9  -2  -2 484.992 172.716   4 
   9  -2   2 612.119 211.746   4 
   9  -2  -2 645.669 93.6152  19 
   9  -2   2 590.174 94.6520  19 
   9  -2   2 605.622 96.0759  12 
   9   2   2 606.716 112.938  12 
   9   2  -2 617.949 107.780  12 
   9   2   2 680.858 128.507  18 
   9   2  -2 667.406 121.751  18 
   9  -2   2 762.922 115.149   7 
   9  -2  -2 568.158 100.040  11 
   9  -2   2 552.941 104.322  11 
   9   2  -2 617.464 114.441  27 
   9   2   2 551.988 113.218  27 
   9  -2  -2 605.088 187.547   1 
   9  -2  -2 640.293 106.543  23 
   9  -2   2 581.537 100.251  23 
   9   2  -2 629.015 104.451  23 
   9   2   2 777.526 118.492  23 
   9  -2  -2 743.414 109.221  22 
   9  -2   2 505.286 97.3960  22 
  -9   2   2 639.950 94.3299  13 
   9  -2   3 1540.24 152.420  12 
   9   2   3 1498.69 171.768  12 
   9  -2  -3 1513.69 143.890  19 
   9   2  -3 1392.11 158.633  12 
   9   2   3 1537.35 184.721  18 
   9   2  -3 1356.54 170.124  18 
   9  -2   3 1675.46 166.262   7 
   9  -2  -3 1660.25 161.146  11 
   9   2  -3 1587.83 174.721  27 
   9  -2   3 1486.82 166.874  11 
   9   2   3 1439.35 184.146  27 
   9  -2  -3 1450.54 154.429  23 
   9  -2   3 1853.72 178.926  23 
   9   2   3 1530.39 182.096  23 
  -9   2   3 1504.53 137.578  13 
   9  -2  -3 1628.13 161.200  22 
   9  -2   3 1587.07 171.899  22 
   9  -2  -3 1643.58 159.866  21 
   9  -2   3 1319.73 141.474  19 
   9  -2  -4-19.2975 36.5410  21 
   9  -2   4-7.19664 48.1328  23 
  -9   2  -4 33.7464 28.1668  14 
   9  -2   4 7.76142 47.6871  19 
   9  -2   4 30.3621 43.3379  12 
   9   2   4 20.0197 37.8033  12 
   9   2  -4 38.5053 51.6769  18 
   9  -2  -4 0.41715 37.4475  19 
   9  -2  -4 249.742 72.4916  11 
   9  -2   4-3.55744 44.5798   7 
   9   2  -4 58.8550 47.3724  27 
   9   2   4 21.9044 66.9267  27 
   9   2   4 54.2267 39.4528  18 
   9  -2  -4 13.9933 34.2734  23 
   9   2   4 90.3557 72.0333  23 
   9  -2   4 85.6911 70.7356  22 
   9  -2  -4 171.396 60.2777  22 
  -9   2   4 8.79798 30.6139  13 
   9  -2   5 26918.7 676.532  12 
   9   2   5 26997.7 743.270  12 
   9  -2  -5 26714.6 601.894  19 
   9   2  -5 28200.4 785.176  18 
  -9   2  -5 29358.6 668.241  14 
   9  -2   5 27705.0 712.928   7 
   9  -2  -5 27184.1 661.561  11 
   9   2  -5 30232.5 788.818  27 
   9   2   5 30518.7 813.345  18 
   9   2   5 27515.6 837.508  27 
   9  -2  -5 25588.8 643.761  22 
   9  -2  -5 25677.5 656.727  23 
   9  -2   5 27887.1 711.555  23 
   9   2   5 26789.9 814.071  23 
   9  -2   5 27811.1 739.962  22 
   9  -2  -5 27438.8 667.782  21 
   9   2  -6 11261.7 426.831  20 
   9  -2   6 11547.3 446.910  12 
   9  -2  -6 13235.7 414.144  19 
   9   2   6 12002.7 493.538  12 
   9   2  -6 11626.6 505.296  18 
   9   2   6 11969.2 507.052  18 
   9  -2  -6 11511.6 430.591  11 
   9  -2   6 11732.9 469.541   7 
   9   2  -6 13026.2 503.927  27 
   9   2   6 11167.8 530.476  27 
  -9   2  -6 12374.8 436.101  14 
   9  -2  -6 11232.5 425.505  22 
   9  -2  -6 10634.6 427.776  23 
   9  -2   6 11078.2 454.101  23 
   9   2   6 11778.0 545.902  23 
   9  -2  -6 13180.2 461.454  21 
   9  -2   7 22143.6 643.041  12 
   9   2   7 23845.5 712.536  12 
   9   2  -7 23098.4 711.174  18 
   9  -2  -7 23163.4 553.170  19 
   9   2   7 24309.1 719.768  18 
   9  -2  -7 24855.5 641.426  11 
   9  -2   7 22522.8 664.479   7 
  -9   2  -7 23971.1 579.403  17 
   9   2  -7 24660.2 698.638  27 
   9   2   7 22354.4 767.679  27 
  -9   2  -7 23201.5 611.129  14 
   9  -2   7 22170.3 658.214  23 
   9   2   7 23957.0 812.489  23 
   9  -2  -7 22592.5 609.480  22 
   9   2   7 24667.4 610.027  10 
   9  -2  -7 22835.9 613.407  23 
   9  -2  -7 24893.8 647.932  21 
   9  -2   8 53900.6 1046.19  12 
   9   2   8 54465.4 1100.91  12 
   9  -2  -8 51863.2 954.630  11 
  -9   2  -8 55289.1 932.909  17 
   9  -2   8 51005.2 1037.63   7 
   9   2  -8 54051.4 1041.96  27 
   9   2   8 55295.9 958.023  10 
  -9   2  -8 57412.8 990.087  14 
   9  -2  -8 53724.4 946.651  23 
   9  -2   8 53292.2 1053.35  23 
   9   2   8 49861.7 1220.83  23 
   9  -2  -8 55358.8 979.006  22 
   9  -2  -8 55441.9 1001.76  21 
   9  -2   9 9833.77 438.844  12 
   9   2   9 9720.71 457.217  12 
   9  -2  -9 10263.9 417.459  11 
  -9   2  -9 10701.7 405.778  17 
   9  -2   9 9078.62 429.970   7 
   9  -2  -9 10413.5 416.554  22 
  -9   2  -9 11236.2 429.551   6 
   9   2   9 10836.7 420.176  10 
  -9   2  -9 10419.5 412.171  14 
   9  -2   9 8806.18 418.764  23 
  -9  -2  -9 11115.8 427.796   9 
   9   2   9 10647.6 554.231  23 
   9  -2  -9 10374.8 425.795  21 
   9  -2  -9 9552.06 379.031  23 
   9   2  10 2877.55 243.489  12 
   9  -2 -10 2622.73 211.762  11 
  -9   2 -10 2680.15 209.288  17 
  -9   2 -10 2706.07 211.342   6 
   9   2  10 3166.44 224.349  10 
  -9   2 -10 2725.15 208.081  14 
   9  -2  10 2373.68 219.880  23 
   9   2  10 2903.92 291.292  23 
   9  -2  10 2866.50 238.130  12 
  -9  -2 -10 2739.19 209.280   9 
   9  -2 -10 2685.69 215.019  22 
   9  -2 -10 2864.99 232.149  21 
   9  -2  11 5563.82 333.172  12 
   9   2  11 5444.50 331.449  12 
   9  -2 -11 4851.56 278.723  11 
  -9   2 -11 5478.51 296.540  17 
  -9   2 -11 5150.06 288.219   6 
   9   2  11 5399.47 291.515  10 
   9  -2 -11 5118.66 285.787  22 
  -9   2 -11 5863.05 301.639  14 
   9   2  11 5412.14 383.855  23 
  -9  -2 -11 5070.70 279.883   9 
   9  -2 -11 5329.67 311.170  21 
   9  -2  12 19328.5 602.074  12 
   9   2  12 19476.2 601.711  12 
   9  -2 -12 19075.9 535.065  11 
  -9   2 -12 20437.3 577.949  17 
  -9   2 -12 19928.2 550.185  14 
   9  -2 -12 20386.4 550.337  22 
  -9   2 -12 18464.8 527.365  16 
   9   2  12 19322.5 547.898  10 
  -9   2 -12 20652.7 562.752   6 
   9  -2 -12 18369.8 559.494  21 
  -9  -2 -12 19656.1 535.192   9 
   9  -2  13 11257.4 438.638  12 
   9   2  13 12234.9 441.252  12 
  -9  -2 -13 12401.7 424.676  15 
  -9   2 -13 12209.6 414.345   6 
   9  -2 -13 11494.3 390.683  11 
  -9   2 -13 12020.2 427.613  17 
  -9  -2 -13 11966.4 395.952   9 
  -9   2 -13 11761.7 399.885  16 
   9   2  13 11588.2 402.329  10 
  -9   2 -13 12430.3 416.856  14 
   9  -2 -13 11194.6 386.006  22 
   9  -2 -13 12242.0 435.424  21 
   9  -2  14 2209.59 182.210  12 
  -9   2 -14 2279.06 179.326  17 
  -9   2 -14 2399.34 168.658  16 
  -9  -2 -14 2082.10 162.555  15 
   9   2  14 2118.92 161.442  10 
  -9   2 -14 2267.47 165.995   6 
  -9   2 -14 2247.46 162.788  14 
  -9  -2 -14 2138.06 153.237   9 
   9  -2 -14 1909.65 167.299  21 
   9  -2  15 12581.0 392.875  12 
  -9   2 -15 11888.9 368.563  17 
  -9   2 -15 12560.6 363.547  16 
  -9  -2 -15 12849.7 369.538  15 
  -9   2 -15 10672.5 332.962   6 
  -9   2 -15 13569.2 372.313  14 
  -9  -2 -15 11313.2 293.336  21 
   9  -2 -15 13071.8 398.213  21 
  -9  -2 -16 3565.11 170.780  15 
  -9   2 -16 3580.20 172.406  16 
  -9   2 -16 3786.22 174.801   6 
  -9   2 -16 3552.46 165.590  14 
   9  -2 -16 3377.18 182.214  21 
  10  -2   0 228206. 2174.77  19 
  10   2   0 228456. 2416.86  12 
  10   2   0 218622. 2543.69  18 
  10  -2   0 242621. 2188.20   7 
  10  -2   0 213131. 2251.74  11 
  10   2   0 225008. 2536.40  27 
  10  -2   0 228774. 2280.32  23 
  10   2   0 226092. 2397.52  23 
  10  -2   0 229842. 2323.62  22 
  10  -2   0 241190. 2356.20  21 
  10  -2  -1 43.5376 40.7303  21 
  10  -2  -1 106.838 51.4998  19 
  10  -2   1 53.2469 50.0923  19 
  10  -2   1 115.575 50.9943  12 
  10   2   1 183.719 59.2011  12 
  10   2  -1 137.939 71.1521  12 
  10   2   1 109.565 58.8217  18 
  10   2  -1 78.5517 52.0869  18 
  10  -2  -1 21.0420 44.4755  11 
  10  -2   1 125.746 56.3725   7 
  10  -2   1 118.677 68.4470  11 
  10   2  -1 75.2344 76.4056  27 
  10   2   1 132.921 82.4462  27 
  10  -2  -1 151.207 62.3952  23 
  10   2  -1 300.381 76.5888  23 
  10   2   1 88.2569 58.6584  23 
  10  -2   1 130.935 50.4314  23 
  10  -2  -1 86.7882 58.4294  22 
  10  -2   1 70.8095 55.3067  22 
  10  -2   2 3293.55 229.142  12 
  10   2   2 3342.46 261.053  12 
  10  -2  -2 2798.91 206.974  19 
  10   2   2 3259.87 277.295  18 
  10   2  -2 3223.04 279.895  18 
  10   2  -2 2905.62 238.835  12 
  10  -2   2 2786.17 213.997  19 
  10  -2   2 3461.53 237.556   7 
  10  -2  -2 3227.00 232.677  11 
  10  -2   2 3539.02 262.786  11 
  10   2  -2 3074.91 265.286  27 
  10   2   2 2743.16 260.930  27 
  10  -2  -2 3371.05 244.148  23 
  10  -2   2 2777.45 234.253  23 
  10   2  -2 3073.44 231.323  23 
  10   2   2 3059.53 262.143  23 
  10  -2  -2 3247.51 239.940  22 
  10  -2   2 3808.11 269.269  22 
  10  -2  -2 3256.58 243.399  21 
  10  -2   3 68364.5 1099.01  12 
  10   2   3 62522.6 1191.92  12 
  10  -2   3 61411.8 1033.92  19 
  10   2  -3 62240.7 1116.88  12 
  10  -2  -3 62275.0 1001.58  19 
  10   2   3 58782.0 1220.94  18 
  10   2  -3 64713.1 1281.83  18 
  10  -2   3 65994.0 1108.96   7 
  10  -2  -3 67710.8 1118.56  11 
  10  -2   3 64418.1 1079.62  27 
  10   2  -3 64875.0 1243.13  27 
  10   2   3 69484.3 1346.80  27 
  10  -2  -3 64976.0 1091.57  23 
  10  -2   3 73698.2 1213.11  23 
  10   2   3 69235.7 1302.25  23 
  10  -2  -3 63802.3 1091.76  22 
  10  -2   3 59389.3 1126.93  22 
  10  -2  -3 64523.9 1093.36  21 
  10   2   4 39691.1 1022.60  27 
  10  -2   4 40900.1 849.717  12 
  10   2   4 33578.6 858.069  12 
  10  -2  -4 36269.2 744.510  19 
  10   2   4 38445.4 966.582  18 
  10   2  -4 38080.6 973.828  18 
  10  -2   4 38782.8 853.633   7 
  10  -2  -4 37367.2 816.781  11 
  10   2  -4 41215.5 960.123  27 
  10  -2  -4 40983.3 852.055  23 
  10  -2  -4 38556.2 825.050  22 
  10   2   4 40582.0 1008.90  23 
  10  -2   4 40451.6 891.748  23 
 -10   2   4 36445.0 741.628  13 
 -10   2  -4 39481.0 809.067  14 
  10  -2   4 40607.0 923.870  22 
  10  -2  -4 39374.6 839.271  21 
  10   2  -5 10310.3 419.346  20 
  10  -2   5 10976.0 443.729  12 
  10  -2   5 11518.0 473.839  23 
  10   2   5 11393.7 506.220  12 
  10  -2  -5 11732.1 408.254  19 
  10   2   5 11242.7 514.720  18 
  10   2  -5 10540.6 501.294  18 
  10  -2  -5 10196.9 421.688  23 
  10  -2  -5 10560.9 424.088  11 
  10  -2   5 11503.8 470.799   7 
  10   2  -5 11301.4 497.497  27 
  10   2   5 11078.5 542.215  27 
 -10   2  -5 9573.59 390.912  14 
  10  -2  -5 11065.3 436.480  21 
  10   2   5 12448.9 568.058  23 
 -10   2   5 10782.5 404.673  13 
  10  -2  -5 10711.1 427.728  22 
  10  -2  -6 219.573 88.6958  21 
  10  -2  -6 241.116 74.7257  19 
  10  -2   6 129.882 66.2576  12 
  10   2   6 122.621 67.1315  12 
  10   2   6 162.747 71.4540  18 
  10   2  -6 164.930 60.3950  18 
  10  -2  -6 155.240 67.8811  11 
  10  -2   6 161.732 55.2076   7 
  10   2  -6 109.254 68.8233  27 
  10  -2  -6 215.077 83.3160  22 
  10   2   6 318.882 107.321  27 
  10  -2  -6 281.476 86.6021  23 
  10   2   6 116.499 83.8606  23 
  10  -2   6 100.706 72.0290  23 
 -10   2   6 98.7431 38.6445  13 
 -10   2  -6 111.496 45.2088  14 
  10  -2  -7 4962.65 288.636  22 
  10  -2   7 4882.46 306.101  12 
  10   2   7 5311.08 342.976  12 
  10  -2  -7 4842.28 300.414  18 
  10   2   7 4374.02 312.317  18 
  10   2  -7 4883.03 336.289  18 
  10  -2  -7 4985.80 292.755  11 
  10  -2   7 4588.42 306.547   7 
  10   2  -7 4855.97 320.355  27 
  10   2   7 4818.50 361.663  27 
  10  -2   7 5001.64 327.153  23 
 -10   2  -7 3974.86 253.137  14 
  10  -2  -7 5015.32 288.261  23 
  10   2   7 5319.95 379.801  23 
  10  -2  -7 4651.81 293.910  21 
  10  -2   8 15367.3 553.394  12 
  10   2   8 15662.7 596.087  12 
  10  -2   8 17189.0 540.914  18 
  10  -2  -8 17765.9 547.096  11 
  10   2  -8 15566.4 561.356  27 
  10  -2  -8 17136.4 535.166  22 
  10  -2  -8 17336.7 565.623  21 
 -10   2  -8 15673.7 508.980  14 
  10  -2   8 15712.4 570.785  23 
  10  -2  -8 15037.7 485.302  23 
  10   2   8 15773.1 680.050  23 
  10  -2   9 2723.06 230.943  12 
  10   2   9 2328.82 225.632  12 
  10  -2  -9 2752.36 215.140  11 
 -10   2  -9 2404.71 200.974   6 
  10  -2  -9 2494.64 200.603  22 
 -10   2  -9 2453.28 198.474  14 
  10  -2   9 1991.18 199.142  23 
 -10  -2  -9 2051.88 179.375   9 
  10  -2  -9 2333.37 210.648  21 
  10   2   9 2571.65 275.108  23 
  10  -2 -10 857.904 133.361  21 
  10  -2  10 816.524 132.257  12 
  10   2  10 794.722 131.414  12 
  10   2  10 754.373 163.760  23 
  10  -2 -10 830.981 122.112  11 
 -10   2 -10 916.669 117.535  17 
 -10   2 -10 943.401 126.306   6 
 -10   2 -10 799.146 116.880  14 
  10  -2  10 742.661 125.418  23 
  10  -2 -10 812.056 120.723  22 
 -10  -2 -10 994.141 126.967   9 
  10  -2  11 20634.7 627.265  12 
  10   2  11 21621.9 646.930  12 
 -10   2 -11 20059.1 554.723   6 
  10  -2 -11 18623.3 534.925  11 
 -10   2 -11 21413.7 550.129  17 
 -10   2 -11 20497.6 540.070  16 
 -10   2 -11 21688.3 577.068  14 
  10  -2 -11 20982.6 560.607  22 
  10   2  11 19424.7 723.323  23 
 -10  -2 -11 22686.0 577.823   9 
  10  -2 -11 20769.7 607.547  21 
  10  -2  12 106.902 45.3009  12 
  10   2  12 58.2522 40.0612  12 
  10  -2 -12 90.3449 53.0655  11 
 -10   2 -12 44.8728 39.2531  17 
 -10   2 -12 138.483 45.7192  16 
  10  -2 -12 81.8643 49.2004  22 
 -10   2 -12 149.838 61.2380   6 
 -10   2 -12 56.4230 38.9992  14 
  10  -2 -12 98.1330 56.2784  21 
 -10  -2 -12 117.227 46.4524   9 
  10  -2  13 1381.64 147.536  12 
  10   2  13 1246.05 138.198  12 
 -10   2 -13 1309.48 126.676  17 
 -10   2 -13 1504.76 130.644  16 
 -10  -2 -13 1249.90 123.863   9 
 -10   2 -13 1290.84 128.555  14 
 -10   2 -13 1297.45 125.903   6 
 -10  -2 -13 1493.42 139.641  15 
  10  -2 -13 1490.65 150.555  21 
  10  -2 -14 81.4165 46.1203  21 
 -10   2 -14 98.1808 41.1020   6 
 -10   2  14 87.1065 39.8763  13 
  10  -2  14 218.887 58.3483  12 
 -10  -2 -14 159.209 48.5556  15 
 -10   2 -14 130.357 40.5176  16 
 -10   2 -14 117.823 40.2095  14 
 -10  -2 -14 98.2117 36.7044   9 
  10  -2 -15 491.273 77.4722  21 
  10  -2  15 473.702 71.1891  12 
 -10   2 -15 516.676 68.0434   6 
 -10   2 -15 492.711 65.2928  16 
 -10  -2 -15 630.781 76.2094  15 
 -10   2 -15 489.028 65.9049  14 
  11  -2   0-28.5599 43.1789  19 
  11   2   0 17.4021 45.7516  12 
  11   2   0-22.1156 54.7197  18 
  11  -2   0-33.0287 51.5334  11 
  11   2   0 39.6045 63.4108  27 
  11  -2   0 138.218 63.2785  23 
  11   2   0 58.8817 71.4135  23 
  11  -2   0 14.8981 60.0862  22 
  11  -2   1 161837. 1777.24  12 
  11  -2  -1 166412. 1811.53  19 
  11   2  -1 152556. 1957.67  12 
  11   2   1 152588. 2142.08  18 
  11   2  -1 166384. 2224.78  18 
  11  -2   1 163192. 1806.71   7 
  11  -2  -1 156573. 1908.58  11 
  11  -2   1 151879. 1912.06  11 
  11   2  -1 160334. 2148.75  27 
  11   2   1 163563. 2209.12  27 
  11   2   1 155823. 2003.28  12 
  11  -2  -1 164387. 1925.28  23 
  11  -2   1 167822. 1957.13  23 
  11   2  -1 165540. 2007.16  23 
  11   2   1 168710. 2110.93  23 
  11  -2  -1 160174. 1933.73  22 
  11  -2   1 152960. 1942.01  22 
  11  -2  -1 160057. 1945.28  21 
  11  -2   2 11878.7 448.440  12 
  11   2   2 11744.0 514.299  12 
  11  -2  -2 10858.0 422.768  19 
  11   2  -2 10910.6 477.760  12 
  11   2   2 12744.6 571.630  18 
  11   2  -2 10735.2 533.151  18 
  11  -2   2 10774.4 430.151   7 
  11  -2  -2 12464.1 489.765  11 
  11  -2   2 12439.3 480.553  27 
  11   2  -2 11601.1 533.122  27 
  11   2   2 11104.4 548.494  27 
  11  -2  -2 10171.6 441.106  23 
  11   2   2 10785.0 508.721  23 
  11  -2   2 11261.1 477.421  23 
  11  -2  -2 11881.1 480.329  22 
  11  -2   2 10723.6 478.276  22 
  11  -2  -2 11484.4 471.351  21 
  11  -2   3 2002.19 189.574  12 
  11   2   3 1797.64 208.014  12 
  11  -2  -3 1912.30 179.700  19 
  11   2  -3 1909.39 200.187  12 
  11   2   3 2167.94 235.520  18 
  11   2  -3 2102.65 235.255  18 
  11  -2  -3 2021.87 198.850  11 
  11  -2   3 1724.14 175.888   7 
  11  -2   3 2123.45 195.211  27 
  11   2  -3 2105.00 234.027  27 
  11   2   3 2110.50 241.627  27 
 -11   2  -3 2093.50 184.645  14 
  11  -2  -3 1851.84 190.080  22 
  11  -2  -3 1918.82 191.466  23 
  11  -2   3 1898.82 204.687  23 
  11   2   3 2282.81 234.216  23 
  11  -2   3 1798.21 205.453  22 
  11  -2  -3 1989.10 197.267  21 
  11  -2   4 14161.5 513.515  12 
  11   2   4 13508.0 559.416  12 
  11   2   4 12895.2 572.091  18 
  11  -2  -4 11968.0 431.185  19 
  11   2  -4 12752.9 572.198  18 
  11  -2  -4 12422.8 484.575  11 
  11  -2   4 12438.8 482.688   7 
  11   2  -4 13468.5 569.690  27 
  11   2   4 12036.7 575.645  27 
  11  -2  -4 13288.0 505.839  21 
  11  -2  -4 12604.5 484.435  23 
 -11   2  -4 13278.8 469.547  14 
  11  -2   4 13607.7 528.442  23 
  11   2   4 12730.6 573.980  23 
  11  -2  -4 13167.7 499.791  22 
  11  -2   4 13111.7 547.472  22 
  11  -2   5 10440.9 444.712  12 
  11  -2  -5 9925.36 384.876  19 
  11   2   5 10145.0 484.598  12 
  11   2   5 9859.43 493.626  18 
  11   2  -5 10221.9 505.359  18 
  11  -2  -5 9198.86 414.043  11 
  11   2   5 10395.7 534.803  27 
  11  -2  -5 10814.8 453.663  21 
 -11   2  -5 10609.8 422.390  14 
  11  -2  -5 9627.49 422.958  23 
  11  -2   5 10992.8 479.608  23 
  11   2   5 9896.27 517.447  23 
  11   2  -5 10281.4 491.011  27 
  11  -2  -5 9935.63 429.607  22 
  11  -2   6 3635.93 266.987  12 
  11   2   6 3576.00 291.530  12 
  11  -2  -6 3559.20 272.632  18 
  11   2   6 3391.15 290.320  18 
  11   2  -6 3129.27 276.851  18 
  11  -2  -6 3830.26 263.801  11 
  11   2  -6 3237.45 273.444  27 
  11   2   6 3345.03 301.102  27 
 -11   2  -6 3540.84 244.230  14 
  11  -2  -6 3801.02 257.920  23 
  11  -2   6 3617.05 278.565  23 
  11   2   6 3455.66 307.504  23 
  11  -2  -6 3824.04 263.597  22 
  11  -2  -6 3501.17 263.215  21 
  11  -2   7 5281.28 319.639  12 
  11   2   7 5147.23 345.759  12 
  11  -2   7 5910.45 333.335  18 
  11  -2  -7 4751.37 301.494  18 
  11   2   7 5202.16 344.653  18 
  11   2  -7 4905.65 331.277  18 
  11  -2  -7 5040.44 298.598  11 
  11   2  -7 4798.28 326.788  27 
 -11   2  -7 5223.18 296.361  14 
  11  -2  -7 4661.17 276.588  23 
  11  -2   7 4696.24 315.879  23 
  11   2   7 5501.91 394.229  23 
 -11   2   7 4978.27 272.220  13 
  11  -2  -7 4779.25 284.373  22 
  11  -2  -7 4871.71 311.098  21 
 -11   2  -8 174.259 60.7957   6 
  11  -2   8 218.880 69.1373  12 
  11   2   8 388.030 105.519  12 
  11  -2   8 170.005 62.0785  18 
  11  -2  -8 128.553 64.1351  11 
  11   2  -8 111.216 71.6448  27 
  11  -2  -8 61.0581 60.6488  21 
 -11   2  -8 146.894 55.5092  14 
  11  -2  -8 116.311 53.0138  23 
  11  -2   8 177.585 78.9632  23 
  11   2   8 197.288 100.866  23 
  11  -2  -8 122.879 70.5587  22 
 -11   2   8 177.389 61.4169  13 
 -11   2  -9 6022.37 299.057   6 
 -11   2  -9 6417.15 316.929  14 
  11  -2   9 6348.07 349.915  12 
  11   2   9 6081.50 358.719  12 
  11  -2  -9 5846.77 308.659  11 
  11  -2   9 4899.52 321.480  23 
  11   2   9 6208.85 408.157  23 
 -11  -2  -9 6435.12 316.659   9 
 -11   2   9 6154.82 305.233  13 
  11  -2  -9 6072.13 315.661  22 
  11  -2  -9 5934.58 332.037  21 
  11  -2 -10 678.309 111.555  21 
 -11   2 -10 774.892 105.267  16 
  11  -2  10 658.088 115.435  12 
  11   2  10 808.863 132.679  12 
  11  -2 -10 618.221 105.647  11 
 -11   2 -10 666.530 97.7324   6 
 -11   2 -10 926.082 115.522  14 
  11  -2  10 545.526 102.859  23 
  11   2  10 860.299 158.475  23 
  11  -2 -10 590.936 100.715  22 
 -11  -2 -10 621.993 98.6172   9 
 -11   2  10 718.479 105.644  13 
 -11   2 -11 3299.30 206.834   6 
  11  -2  11 2868.45 220.638  12 
  11   2  11 3179.66 240.373  12 
  11  -2 -11 2829.63 196.405  22 
  11  -2 -11 2602.33 188.302  11 
 -11   2 -11 2894.24 186.830  16 
 -11   2 -11 3144.06 204.333  14 
  11   2  11 2825.89 258.151  23 
 -11  -2 -11 2899.99 193.088   9 
 -11   2  11 2787.75 194.243  13 
  11  -2 -11 2989.69 224.444  21 
  11  -2 -12 32.3967 46.2864  21 
  11  -2  12 100.675 41.4285  12 
  11   2  12-39.1076 46.3597  12 
 -11  -2 -12 8.38056 35.7090  15 
 -11   2 -12 26.9176 26.5406   6 
 -11   2 -12 4.28821 29.0756  14 
 -11   2 -12-6.10471 25.8105  16 
 -11  -2 -12-33.9809 36.4394   9 
 -11   2  12 55.3854 41.6680  13 
  11  -2  13 8799.18 340.700  12 
 -11   2 -13 8695.90 295.205   6 
  11   2  13 7435.04 298.925  12 
 -11  -2 -13 7735.27 284.948  15 
 -11  -2 -13 8758.35 280.747   9 
 -11   2 -13 8408.73 280.529  16 
 -11   2 -13 8685.20 295.682  14 
 -11   2  13 6630.48 262.672  13 
  11  -2 -13 8850.71 332.716  21 
  11  -2  14 1221.66 117.930  12 
 -11   2 -14 1278.65 103.111   6 
 -11  -2 -14 1175.99 102.237  15 
 -11   2 -14 1241.28 102.859  14 
  11  -2 -14 1215.72 116.277  21 
  12   2   0 73413.7 1309.76  12 
  12   2   0 73646.5 1461.96  18 
  12   2   0 76227.7 1477.43  27 
  12  -2   0 72234.6 1260.39  23 
  12   2   0 72208.0 1330.59  23 
  12  -2   0 71934.2 1276.23  22 
  12   2   1 24803.8 756.965  12 
  12   2  -1 23897.0 723.201  12 
  12   2   1 25761.1 849.350  18 
  12   2  -1 25487.0 843.553  18 
  12  -2  -1 24603.5 722.023  11 
  12  -2   1 26938.4 743.888  27 
  12   2  -1 25406.5 823.952  27 
  12   2   1 26078.1 848.822  27 
  12  -2   1 25276.8 735.476  23 
  12   2   1 24322.4 766.246  23 
  12   2  -1 23779.4 721.339  23 
  12  -2  -1 26702.0 747.484  22 
  12  -2   1 22498.5 707.246  22 
  12  -2  -1 27480.0 750.085  23 
  12  -2   2 25956.3 675.965  12 
  12   2   2 24160.9 750.426  12 
  12   2  -2 22573.5 689.939  12 
  12   2   2 24546.1 819.482  18 
  12   2  -2 25683.5 836.376  18 
  12  -2  -2 24904.0 709.198  11 
  12  -2   2 25689.5 712.073  27 
  12   2  -2 26558.9 833.133  27 
  12   2   2 23504.5 811.040  27 
 -12   2  -2 26022.0 678.761  14 
  12  -2  -2 25234.1 708.399  23 
  12  -2   2 26179.8 761.424  23 
  12   2   2 24408.1 778.110  23 
  12  -2  -2 24664.7 710.358  22 
  12  -2   2 23482.7 730.670  22 
  12  -2  -2 23254.0 710.250  21 
  12  -2  -3 1093.22 157.827  21 
  12  -2   3 1204.62 150.507  12 
  12   2  -3 1456.82 198.529  27 
  12  -2  -3 1483.27 184.026  18 
  12   2   3 1210.62 172.432  12 
  12   2   3 1273.89 188.240  18 
  12   2  -3 1318.73 192.606  18 
 -12   2  -3 1465.65 155.451  14 
  12  -2  -3 1123.00 157.021  11 
  12  -2   3 1119.56 150.174  27 
  12   2   3 1360.14 203.759  27 
  12  -2  -3 1317.88 166.201  23 
  12  -2   3 1309.34 172.114  23 
  12   2   3 1147.59 170.700  23 
  12  -2  -3 1189.23 164.125  22 
  12  -2   3 1177.12 165.928  22 
  12  -2  -4 337.941 92.1973  21 
  12   2   4 317.962 104.147  27 
  12  -2   4 347.551 90.4963  12 
  12   2   4 384.628 118.284  12 
  12  -2  -4 381.130 99.3442  18 
  12   2   4 301.885 86.6260  18 
  12   2  -4 273.976 91.0157  18 
  12  -2  -4 346.445 95.2251  11 
  12   2  -4 307.022 105.937  27 
  12  -2  -4 355.386 94.9041  22 
 -12   2  -4 351.615 89.7523  14 
  12  -2  -4 336.765 91.1605  23 
  12  -2   4 170.178 57.0256  23 
  12   2   4 420.996 114.087  23 
  12  -2   4 390.454 102.993  18 
  12  -2   5 7037.57 362.697  12 
  12   2   5 7077.46 403.237  12 
  12  -2   5 7605.33 392.137  18 
  12  -2  -5 6719.30 374.317  18 
  12   2   5 6391.93 397.001  18 
  12   2  -5 6942.25 421.168  18 
  12  -2  -5 7149.58 365.458  11 
  12  -2  -5 6353.09 345.675  23 
  12   2  -5 6547.43 398.036  27 
  12   2   5 6476.34 415.406  27 
 -12   2  -5 7095.91 344.919  14 
  12  -2   5 7166.59 396.604  23 
  12   2   5 6909.10 428.080  23 
  12  -2  -5 6594.27 355.030  22 
  12  -2  -5 6104.74 362.827  21 
  12  -2   6 1516.78 183.291  23 
  12  -2   6 1893.91 192.333  12 
  12   2   6 1473.94 193.753  12 
  12  -2   6 1715.21 181.167  18 
  12  -2  -6 1533.81 178.901  18 
  12   2   6 1633.67 197.928  18 
  12   2  -6 1586.58 195.377  18 
  12  -2  -6 1575.93 171.142  22 
  12  -2  -6 1572.60 170.042  11 
  12   2  -6 1417.17 187.361  27 
  12   2   6 1609.90 207.750  27 
 -12   2  -6 1674.72 163.113  14 
  12  -2  -6 1509.66 161.938  23 
  12   2   6 1727.54 212.601  23 
  12  -2  -6 1436.66 178.033  21 
  12  -2   7 3529.23 256.735  12 
  12   2   7 3211.39 277.133  12 
  12  -2   7 3242.83 237.982  18 
  12  -2  -7 3281.83 240.125  18 
  12   2   7 2815.33 244.940  18 
  12   2  -7 3178.74 263.722  18 
  12  -2  -7 3308.29 244.254  11 
 -12   2  -7 3502.18 227.861   6 
  12   2  -7 3138.88 257.938  27 
 -12   2  -7 3756.16 241.417  14 
  12  -2  -7 3317.81 232.192  23 
  12  -2   7 3252.26 263.871  23 
  12  -2  -7 3190.74 242.341  22 
  12   2   7 3711.65 320.967  23 
  12  -2  -7 3328.95 264.958  21 
  12  -2  -8-18.4435 42.7374  21 
  12  -2   8 132.658 58.5726  12 
 -12   2  -8 27.9933 36.8676  14 
  12   2   8 33.2168 54.7966  12 
  12  -2  -8-41.2226 57.1222  11 
  12   2  -8 68.8366 67.9371  27 
 -12   2  -8 15.1487 35.5050   6 
  12  -2   8 45.6067 55.4804  23 
  12   2   8 149.351 94.6382  23 
  12  -2  -8 36.4377 47.3544  22 
 -12  -2  -8 29.4818 32.7645   9 
  12  -2   9 70.9689 52.4025  12 
  12   2   9 60.6757 50.2190  12 
  12  -2  -9 88.6490 54.2786  11 
 -12  -2  -9 138.185 57.4465   9 
  12  -2  -9 140.102 66.0640  21 
 -12   2  -9 68.9914 43.1931   6 
 -12   2  -9 89.0055 48.4880  14 
  12  -2   9 139.527 60.5928  23 
  12   2   9-3.64376 60.6529  23 
  12  -2  -9 51.9705 45.7953  22 
 -12   2  -9 48.8886 41.4436  16 
  12  -2 -10 128.947 67.0368  21 
  12   2  10 47.7091 52.6332  23 
  12  -2  10 118.080 43.0772  12 
  12   2  10 31.1161 37.8208  12 
 -12  -2 -10 90.9898 44.2398   9 
 -12   2 -10 108.006 49.3408   6 
  12  -2  10 174.454 68.8755  23 
 -12   2 -10 159.777 51.8821  14 
 -12   2 -10 121.043 42.1444  16 
  12  -2  11 2812.02 202.298  12 
 -12   2 -11 2554.29 157.147  16 
  12   2  11 2712.26 202.320  12 
 -12   2 -11 2780.24 178.097  14 
 -12  -2 -11 2643.44 167.596   9 
 -12   2 -11 2884.95 175.649   6 
  12  -2 -11 2440.16 190.951  21 
  12  -2  12 9686.05 348.522  12 
  12   2  12 9067.77 335.539  12 
 -12   2 -12 9798.68 301.342   6 
 -12  -2 -12 11046.1 334.163  15 
 -12   2 -12 10502.0 319.921  14 
 -12  -2 -12 10692.0 308.441   9 
  12  -2 -12 9864.68 350.237  21 
  12  -2  13 17434.1 431.807  12 
 -12  -2 -13 17560.3 384.505  15 
 -12   2 -13 16923.7 361.285   6 
 -12   2 -13 16939.7 373.657  14 
  13  -2   0 43.0781 45.3988  18 
  13   2   0 1.28623 42.4712  12 
  13   2   0-47.9393 62.9893  18 
  13  -2   0 86.5639 51.7915  27 
  13   2   0 46.4857 68.2236  27 
  13  -2   0-7.39887 62.8371  23 
  13   2   0 23.1880 55.7158  23 
  13  -2   0-6.47308 62.1798  22 
 -13   2  -1 28249.7 699.245  14 
  13   2   1 24842.2 736.121  12 
  13   2  -1 24007.6 708.382  12 
  13  -2   1 25956.7 771.789  18 
  13  -2  -1 29499.7 812.826  18 
  13   2   1 27154.6 859.792  18 
  13   2  -1 25549.2 834.771  18 
  13  -2   1 25768.2 714.074  27 
  13   2  -1 26157.6 827.381  27 
  13   2   1 24897.9 824.822  27 
  13   2  -1 24352.5 719.115  23 
  13  -2   1 26296.4 755.008  23 
  13  -2  -1 24480.9 711.765  23 
  13   2   1 26490.4 789.987  23 
  13  -2  -1 24573.2 712.293  22 
  13  -2   1 25012.1 734.279  22 
  13  -2   2 4686.34 316.028  18 
  13  -2  -2 4507.33 313.645  18 
  13   2   2 4021.79 324.732  18 
  13   2  -2 4380.11 342.660  18 
  13  -2   2 3469.51 261.706  27 
  13   2  -2 4035.62 318.527  27 
  13   2   2 4099.70 332.213  27 
  13   2   2 3986.01 297.616  12 
 -13   2  -2 4183.31 260.222  14 
  13  -2  -2 3980.10 283.485  23 
  13  -2   2 3912.97 288.846  23 
  13   2   2 4051.92 309.595  23 
  13  -2  -2 3715.84 274.188  22 
  13  -2   3 1857.28 173.718  12 
  13   2   3 1796.13 203.281  12 
  13  -2   3 2135.34 210.938  18 
  13  -2  -3 2098.23 211.646  18 
  13   2   3 2051.58 230.865  18 
  13   2  -3 1705.68 211.206  18 
  13  -2  -3 1558.37 177.859  11 
  13   2  -3 1855.67 216.992  27 
  13   2   3 1938.95 225.845  27 
 -13   2  -3 2008.48 180.293  14 
  13  -2   3 1718.86 195.981  23 
  13   2   3 1895.40 217.166  23 
  13  -2  -3 1706.67 185.234  22 
  13  -2  -3 1954.04 196.225  23 
  13  -2   4 10982.7 436.384  12 
  13   2   4 10482.3 479.871  12 
  13  -2   4 11537.7 478.564  18 
  13  -2  -4 11862.2 490.851  18 
  13   2   4 10768.1 512.590  18 
  13   2  -4 10243.0 507.539  18 
  13  -2  -4 9760.15 426.169  11 
  13   2  -4 9759.65 485.425  27 
  13   2   4 11189.6 539.344  27 
  13   2   4 11217.1 528.259  23 
 -13   2  -4 11741.2 431.019  14 
  13  -2  -4 10344.0 436.792  22 
  13  -2  -4 10957.2 446.212  23 
  13  -2   4 11232.2 490.489  23 
  13  -2  -4 9572.23 455.041  21 
  13  -2  -5 511.310 117.263  21 
  13  -2   5 742.591 117.557  12 
  13   2   5 509.143 111.588  12 
  13  -2   5 662.229 117.555  18 
  13  -2  -5 707.706 119.083  18 
  13   2   5 690.200 134.604  18 
  13   2  -5 598.056 117.846  18 
  13  -2  -5 497.959 99.8454  11 
  13   2  -5 612.009 134.045  27 
  13   2   5 773.048 151.243  27 
  13  -2  -5 621.276 116.435  23 
  13  -2   5 610.226 117.830  23 
  13   2   5 745.682 145.042  23 
  13  -2  -5 620.676 114.404  22 
 -13   2  -5 631.840 99.8708  14 
  13  -2   6 1214.00 147.421  12 
  13  -2   6 1164.25 146.586  18 
  13  -2  -6 1157.69 149.579  18 
  13  -2  -6 948.904 126.311  23 
  13   2   6 1046.19 152.932  12 
  13   2   6 1266.25 164.338  18 
  13   2  -6 1215.95 167.101  18 
  13  -2  -6 1102.60 142.914  11 
 -13   2  -6 1263.68 129.065   6 
  13   2  -6 1057.31 159.458  27 
  13  -2  -6 1099.97 148.453  21 
 -13   2  -6 1110.52 132.163  14 
  13  -2   6 1052.79 152.310  23 
  13   2   6 1100.89 159.616  23 
  13  -2  -6 1196.16 147.340  22 
  13  -2   7 2137.20 187.180  12 
  13   2   7 2100.27 211.064  12 
  13  -2   7 2036.55 181.395  18 
  13  -2  -7 1876.44 177.209  18 
  13   2   7 2126.50 198.007  18 
  13   2  -7 1848.21 191.647  18 
  13  -2  -7 1591.12 165.286  11 
  13   2  -7 1859.35 198.070  27 
 -13   2  -7 2200.46 165.645   6 
 -13   2  -7 2103.70 169.873  14 
  13  -2  -7 1721.17 167.291  22 
  13   2   7 2432.47 246.592  23 
  13  -2   7 1955.59 190.313  23 
  13  -2  -7 2001.32 191.841  21 
  13  -2  -8 203.847 74.9447  21 
  13   2  -8 200.491 72.5129  27 
  13  -2   8 160.625 61.1962  12 
  13   2   8 134.215 54.1770  12 
  13  -2  -8 50.1879 48.7445  11 
 -13   2  -8 203.475 53.5343   6 
 -13   2  -8 195.879 58.7306  14 
  13  -2   8 221.721 78.4485  23 
  13   2   8 202.359 78.1873  23 
  13  -2  -8 74.1163 51.9963  22 
 -13  -2  -8 115.909 54.0395   9 
  13  -2  -9 41.4137 41.9733  21 
  13  -2   9 12.5272 31.4616  12 
  13   2   9 104.308 62.1991  12 
 -13   2  -9 22.7696 24.6036   6 
 -13   2  -9 142.791 48.8004  14 
  13  -2   9 65.0616 45.3496  23 
  13   2   9-65.4610 69.0012  23 
 -13  -2  -9 82.1789 40.1862   9 
  13  -2  10 6544.41 294.178  12 
  13   2  10 6665.24 314.735  12 
 -13   2 -10 6847.82 265.373  14 
 -13   2 -10 6948.39 253.326   6 
 -13  -2 -10 6804.91 259.480   9 
  13  -2 -10 6375.06 295.715  21 
  13  -2  11 3302.68 196.715  12 
  13   2  11 2466.39 176.037  12 
 -13   2 -11 3147.51 167.273  14 
 -13   2 -11 2832.52 149.512   6 
 -13  -2 -11 3275.75 169.592  15 
 -13  -2 -11 2753.58 149.207   9 
  13  -2 -11 2714.17 179.922  21 
  14   2   0 4727.37 293.690  12 
  14  -2   0 5240.05 332.600  18 
  14   2   0 5486.43 373.888  18 
  14  -2   0 4913.18 304.724  27 
  14   2   0 4908.67 344.445  27 
  14  -2   0 4960.39 313.021  23 
  14   2   0 4522.14 308.658  23 
 -14   2   0 4823.57 272.375  14 
  14   2   1 8786.97 402.401  12 
  14  -2   1 8943.36 425.427  18 
  14  -2  -1 8828.51 422.380  18 
  14   2   1 10155.1 498.669  18 
  14   2  -1 9557.78 485.235  18 
  14  -2  -1 9152.21 417.457  27 
  14  -2   1 7910.66 384.307  27 
  14   2  -1 8824.74 452.371  27 
  14   2   1 7710.06 425.503  27 
 -14   2  -1 8436.70 367.950  14 
  14  -2  -1 8244.33 395.096  23 
  14   2   1 8934.81 427.462  23 
  14  -2   1 9733.50 435.319  23 
  14  -2  -1 7799.12 376.422  22 
  14   2   2 15910.7 546.348  12 
  14  -2   2 15748.5 562.945  18 
  14  -2  -2 17144.6 583.865  18 
  14   2   2 16489.5 628.409  18 
  14   2  -2 15944.5 619.318  18 
  14  -2  -2 15814.9 551.412  27 
  14  -2   2 14774.6 507.868  27 
  14   2  -2 15643.8 601.408  27 
  14   2   2 16056.4 618.836  27 
 -14   2  -2 16031.5 496.321  14 
  14  -2   2 17433.3 581.726  23 
  14   2   2 16378.5 598.814  23 
  14  -2  -2 14170.2 504.177  22 
  14  -2  -2 16281.5 549.276  23 
  14  -2   3 1131.39 151.081  18 
  14  -2  -3 1270.72 157.303  18 
  14   2   3 1050.99 149.791  12 
  14   2   3 1128.60 164.557  18 
  14   2  -3 1164.66 169.259  18 
  14  -2  -3 1114.66 149.981  27 
  14   2  -3 1055.42 157.941  27 
  14   2   3 1168.22 167.572  27 
 -14   2  -3 1337.68 137.975  14 
  14  -2  -3 1118.38 139.978  23 
  14  -2   3 1128.43 146.280  23 
  14   2   3 1310.06 177.691  23 
  14  -2  -3 1112.43 142.357  22 
  14   2  -4 45.0781 58.5057  27 
  14  -2   4 20.4936 41.1377  12 
  14   2   4-36.6561 34.1060  12 
  14  -2   4 28.1062 39.5612  18 
  14  -2  -4 56.5423 49.4863  18 
 -14   2  -4-2.42681 33.6660   6 
  14   2   4 50.3914 49.9320  18 
  14   2  -4 60.8455 49.2393  18 
  14   2   4-76.8055 67.5031  27 
 -14   2  -4-0.85619 27.8941  14 
  14  -2  -4 11.3287 41.5294  23 
  14  -2   4 13.1706 60.0798  23 
  14   2   4-26.5631 55.6615  23 
  14  -2  -4 64.3558 60.0290  22 
  14  -2   5 708.963 105.725  12 
  14   2   5 778.309 139.729  23 
  14   2   5 667.642 116.445  12 
  14  -2   5 770.225 118.037  18 
  14  -2  -5 713.948 115.978  18 
  14   2   5 735.310 124.071  18 
  14   2  -5 734.532 130.711  18 
  14   2  -5 699.137 125.851  27 
 -14   2  -5 672.375 85.4947   6 
 -14   2  -5 749.390 99.9045  14 
  14  -2  -5 625.155 102.658  23 
  14  -2   5 636.946 111.569  23 
  14  -2  -5 473.773 99.2693  22 
  14  -2   6 289.960 75.4134  12 
  14   2   6 366.903 88.2664  12 
  14  -2   6 438.220 81.8161  18 
  14  -2  -6 324.879 79.1081  18 
  14   2   6 351.340 89.6142  18 
  14   2  -6 377.937 91.9275  18 
  14   2  -6 266.891 81.5558  27 
 -14   2  -6 309.119 61.2981   6 
 -14   2  -6 353.496 70.7388  14 
  14  -2  -6 235.330 68.6226  23 
  14  -2   6 298.714 78.1078  23 
  14   2   6 313.584 93.2419  23 
  14  -2  -6 201.102 62.9306  22 
  14  -2  -7 521.727 96.4114  21 
  14  -2   7 577.893 92.6120  12 
  14   2   7 414.254 91.8964  12 
  14  -2   7 531.464 85.3379  18 
  14   2  -7 447.102 94.7490  27 
 -14   2  -7 580.518 75.8417   6 
 -14   2  -7 534.543 80.8883  14 
  14  -2   7 472.450 94.8852  23 
  14   2   7 439.650 103.608  23 
 -14  -2  -7 512.275 81.4611   9 
  14  -2  -8 5.97140 34.0312  21 
  14  -2   8 93.9228 44.9059  12 
  14   2   8-15.3227 31.8954  12 
 -14   2  -8 28.5283 23.6728   6 
 -14   2  -8 38.0819 31.4019  14 
  14  -2   8-1.64542 41.1653  23 
  14   2   8 56.2936 51.9850  23 
 -14  -2  -8 6.91178 24.8691   9 
  14  -2  -9 223.891 58.9256  21 
  14  -2   9 231.859 55.4028  12 
  14   2   9 216.537 61.5200  12 
 -14   2  -9 241.926 50.0038  14 
  14  -2   9 172.911 58.0889  23 
 -14  -2  -9 210.559 49.1911   9 
 -14   2 -10 4705.24 187.013  14 
  15  -2   0 35.5411 52.8876  18 
  15   2   0 36.0833 56.8224  18 
  15  -2   0 66.2218 51.1973  27 
  15   2   0-1.28072 50.1108  27 
 -15   2   0 20.3096 28.4586  14 
  15  -2   0-5.11125 37.4110  23 
  15  -2   1 680.387 114.926  18 
  15  -2  -1 750.276 118.748  18 
  15   2   1 708.154 123.482  18 
  15   2  -1 656.563 125.701  18 
  15  -2  -1 638.869 103.404  27 
  15  -2   1 473.311 92.2266  27 
  15   2  -1 685.454 130.351  27 
  15   2   1 731.906 129.810  27 
 -15   2   1 624.552 92.1969  14 
 -15   2  -1 642.228 92.0123  14 
  15  -2  -1 644.993 106.830  23 
  15  -2   1 684.550 112.113  23 
  15   2   1 559.198 109.430  23 
  15   2   2 1878.96 173.067  12 
  15  -2   2 2173.21 191.236  18 
  15  -2  -2 2201.29 194.115  18 
  15   2   2 2075.74 204.850  18 
  15   2  -2 2102.37 206.993  18 
  15  -2  -2 2003.54 177.411  27 
  15   2  -2 1997.82 198.760  27 
  15   2   2 1942.60 200.566  27 
 -15   2   2 1770.89 152.254  14 
 -15   2  -2 2012.10 158.215  14 
  15  -2  -2 1866.50 175.106  23 
  15  -2   2 1941.54 182.534  23 
  15   2   2 1875.18 186.494  23 
  15   2   3 970.972 142.925  27 
  15   2  -3 896.439 140.990  27 
  15  -2   3 960.568 130.141  18 
  15   2   3 817.032 115.687  12 
  15  -2  -3 1029.38 125.089  18 
  15   2   3 1036.99 142.111  18 
  15   2  -3 957.288 140.259  18 
  15  -2  -3 1073.77 128.719  27 
 -15   2  -3 855.495 103.593  14 
  15  -2  -3 915.809 119.913  23 
  15  -2   3 833.387 120.639  23 
  15   2   3 986.257 138.507  23 
  15   2   4 3199.69 217.603  12 
  15  -2   4 2945.30 205.887  18 
  15  -2  -4 3061.35 213.929  18 
  15   2   4 3386.78 240.136  18 
  15   2  -4 3154.18 239.166  18 
  15  -2  -4 3390.23 229.909  27 
  15   2  -4 2835.09 221.463  27 
 -15   2  -4 3200.49 191.237  14 
  15  -2  -4 2808.45 191.376  23 
  15  -2   4 3144.67 226.445  23 
  15   2   4 3097.92 242.279  23 
  15   2   5 2973.59 205.894  12 
  15  -2   5 3010.54 199.440  18 
  15  -2  -5 2683.75 187.841  18 
  15   2   5 2731.36 203.929  18 
  15   2  -5 2724.68 210.070  18 
  15  -2  -5 2524.15 192.395  27 
  15   2  -5 2575.71 204.539  27 
 -15   2  -5 2743.51 168.118  14 
  15  -2   5 2612.96 198.643  23 
  15   2   5 2708.24 217.361  23 
  15   2   6-31.0925 33.7258  12 
  15  -2   6 21.2640 30.8190  18 
  15  -2  -6 46.9080 44.3268  27 
  15   2  -6-44.6840 54.4815  27 
 -15   2  -6 93.6239 40.5686  14 
  15  -2   6 38.4163 46.4535  23 
  15   2   6 20.9838 43.2346  23 
 -15  -2  -6 75.1468 35.1275   9 
  15   2   7 354.909 69.5365  12 
  15  -2  -7 420.150 80.8929  27 
 -15   2  -7 322.502 52.8100  14 
  15  -2   7 244.990 59.8249  23 
  15   2   7 426.729 89.0559  23 
 -15  -2  -7 351.511 58.0881   9 
  16  -2   0 3556.22 219.222  18 
  16   2   0 3660.64 237.798  18 
  16   2   0 3218.05 222.207  27 
 -16   2   0 3234.54 168.991  14 
  16  -2   0 3304.29 206.604  23 
  16  -2   1 11945.1 396.024  18 
  16  -2  -1 10726.9 378.479  18 
  16   2   1 11359.7 413.950  18 
  16   2  -1 11006.5 412.496  18 
  16   2  -1 10441.3 395.917  27 
  16   2   1 10466.1 397.231  27 
 -16   2   1 9338.49 288.321  14 
 -16   2  -1 10311.0 300.860  14 
  16  -2  -1 9920.44 349.941  23 
  16  -2   1 10346.9 365.649  23 
  16  -2   2 11435.3 381.813  18 
  16  -2  -2 11772.9 384.238  18 
  16   2   2 11445.3 409.444  18 
  16   2  -2 12058.9 424.871  18 
  16   2  -2 12149.6 422.153  27 
 -16   2  -2 11486.4 312.187  14 
  16  -2   2 11367.3 386.559  23 
  16  -2   3 7388.94 294.612  18 
  16   2   3 7143.60 309.589  18 
  16   2  -3 7161.26 314.030  18 
  16   2  -3 7114.21 313.131  27 
 -16   2  -3 7042.81 237.269  14 
  16  -2   3 7244.92 303.439  23 
  16  -2   4 1566.42 140.437  23 
 -16  -2  -4 1746.04 121.751   9 
   0  -3   0 4.93705 37.4291   1 
   0   3  -1-15.9714 47.7225   2 
   0   3  -1 57.1408 44.8695   3 
   0  -3  -1 48.5372 50.8403   1 
   0  -3   1 31.6534 39.0136   1 
   0  -3  -2 63.8707 59.7640   1 
   0   3  -2-24.8119 54.7708   3 
   0  -3   2 3.00042 46.1649   1 
   0   3  -2 29.9816 59.9869   2 
   0   3   3 75.9695 101.321   1 
   0   3  -3-22.5237 49.7571   3 
   0  -3   3 209.876 74.5916   1 
   0   3  -3 5.81985 41.8296   2 
   0   3  -4-8.13268 34.4924  20 
   0   3  -4 27.5093 72.9269   3 
   0   3   4 64.1016 104.552   1 
   0   3  -4-13.1417 55.7469   2 
   0  -3   4-35.0516 56.5859   1 
   0   3  -4 5.34414 20.2644  13 
   0   3   5 61.3992 86.5642   1 
   0  -3  -5-7.44837 23.9137  16 
   0   3  -5-20.4093 35.4145  20 
   0   3  -5-7.06099 31.8766   8 
   0  -3  -5 30.4633 28.4889  15 
   0   3  -5-13.3575 24.7621  26 
   0   3   5 52.3275 34.4777  10 
   0   3  -5 40.3565 65.5724   2 
   0  -3   5 19.3148 54.6751   1 
   0  -3  -5 5.79945 18.6995   9 
   0   3  -5-27.5833 58.1580   3 
   0  -3   6-0.91518 49.0524   1 
   0   3  -6 16.0705 26.0916  20 
   0   3  -6 1.96719 21.7550  25 
   0   3  -6-7.13120 32.7000   8 
   0   3  -6 1.00945 22.5996  17 
   0   3  -6 16.4241 27.7670  26 
   0  -3  -6-13.2757 28.9955  16 
   0  -3  -6-9.39814 22.1870  15 
   0   3   6 9.02280 22.8816  10 
   0   3  -6-2.74467 24.3390  24 
   0   3   6 62.3740 82.6952   1 
   0   3  -6-8.62013 79.8990   2 
   0   3  -6 57.9679 70.5771   3 
   0  -3  -6 28.6598 25.0271   9 
   0   3  -6 16.2348 24.7813  13 
   0   3  -7 19.5491 33.1637  20 
   0   3  -7-0.21207 29.3185   8 
   0  -3   7 8.03317 51.2199   1 
   0   3   7-55.5563 112.260   1 
   0   3  -7 116.152 60.5138  17 
   0  -3  -7 29.6697 39.5405  16 
   0   3  -7-24.5525 25.3392  25 
   0  -3  -7 0.16576 23.5780  15 
   0  -3  -7 36.1877 36.3775  25 
   0   3   7 52.8741 42.2436  10 
   0   3  -7-24.4769 21.0552  24 
   0  -3  -7 11.5577 33.3560  24 
   0  -3  -7 103.893 35.6662   9 
   0   3  -7 6.82914 25.6633  26 
   0   3  -8 51.8129 38.9656  20 
   0   3  -8 8.22270 38.9868   8 
   0   3   8 5.95785 130.723   1 
   0  -3  -8 16.0825 36.6832  16 
   0   3  -8 27.0800 26.6082  25 
   0  -3  -8 94.9032 40.6857  25 
   0  -3  -8 35.8319 30.0201  15 
   0   3   8 34.4205 38.0429  10 
   0   3  -8 15.1124 31.8642  24 
   0  -3  -8 83.6814 33.8427  24 
   0   3  -8 39.3228 31.2151  14 
   0   3  -8 38.3067 44.7654  26 
   0  -3  -8 34.8076 29.7129  21 
   0   3  -9 7.94064 34.5606  20 
   0   3  -9 43.6225 49.4896   8 
   0   3  -9 48.6173 43.3691  17 
   0   3  -9 17.6128 32.0093  26 
   0  -3  -9 17.1606 29.3171  16 
   0   3  -9 13.1593 25.8525  25 
   0  -3  -9 85.7206 44.2687  25 
   0  -3  -9 14.1089 32.2112  15 
   0   3  -9 43.8116 31.6881  24 
   0  -3  -9 68.9169 43.9267  24 
   0   3  -9-4.46091 21.0823  14 
   0   3   9 14.6098 36.3019  10 
   0  -3  -9-3.67767 25.5056   9 
   0   3   9 143.492 164.748   1 
   0  -3  -9 9.29964 31.0574  21 
   0   3 -10 72.5357 59.5531  20 
   0   3 -10 42.8634 40.7464   8 
   0   3 -10-1.42787 36.6045  17 
   0  -3 -10-17.7962 29.5191  14 
   0  -3 -10-10.8138 32.1542  16 
   0   3 -10 46.1667 46.1275  25 
   0  -3 -10 62.7925 47.7980  25 
   0  -3 -10 21.7288 36.6977  15 
   0   3  10 35.1023 40.0379  10 
   0   3 -10-5.87686 34.7077  24 
   0  -3 -10 10.4267 33.2032  24 
   0   3 -10 24.8191 30.1333  14 
   0  -3 -10-21.2077 29.7426   9 
   0  -3 -10 44.9815 32.3540  21 
   0   3 -11 51.3985 58.7637   8 
   0  -3 -11 5.11444 46.9643  15 
   0   3 -11 74.2826 55.8823  17 
   0   3 -11 18.8588 27.6129  16 
   0   3 -11 47.7843 41.4541  26 
   0   3 -11 15.8550 40.1594  25 
   0   3  11 22.8067 44.7226  10 
   0  -3 -11-9.54161 34.1817  25 
   0   3 -11 18.9842 38.6970  24 
   0  -3 -11 14.3562 38.8935  24 
   0   3 -11-8.79972 27.4092  14 
   0  -3 -11 108.572 58.7242  16 
   0  -3 -11 26.4015 29.0800   9 
   0  -3 -11 43.2433 33.0327  21 
   0   3 -12 4.76020 41.5576  25 
   0   3 -12 47.5162 29.1660  16 
   0   3 -12 6.52230 35.1538  17 
   0  -3 -12 39.1078 45.4500  24 
   0  -3 -12 17.1142 49.6551  16 
   0  -3 -12 35.8988 40.8743  25 
   0  -3 -12 46.9263 37.1177  15 
   0   3  12 72.7738 65.1296  10 
   0   3 -12 23.3718 45.6003  24 
   0   3 -12 4.42313 26.6411  14 
   0   3 -12 38.4693 45.5306  26 
   0  -3 -12 25.5502 29.8723  21 
   0  -3 -13 58.6107 50.0815  15 
   0   3 -13 67.7550 47.3727  24 
   0   3 -13 65.2310 48.5489  26 
   0   3 -13 210.381 60.9116  16 
   0   3 -13 47.4160 39.7093  14 
   0   3 -13 18.9312 35.6789  17 
   0   3 -13 79.9487 42.2947  25 
   0  -3 -13 103.269 53.8706  25 
   0   3  13 69.5020 65.5525  10 
   0  -3 -13 87.4200 50.2026  24 
   0  -3 -13 61.6313 55.7474  16 
   0  -3 -13 75.0731 43.4699  21 
   0  -3  14 30.9507 45.3598  12 
   0   3 -14-37.2693 45.4206  17 
   0  -3 -14-24.0998 41.8415  16 
   0   3 -14 81.4028 46.2598  16 
   0   3 -14-5.85746 48.5504  26 
   0  -3 -14-2.03255 45.2028  15 
   0   3  14-6.65691 46.8027  10 
   0   3 -14-10.2830 48.8000  24 
   0   3 -14-25.8378 30.2443  14 
   0   3 -14 0.52533 45.4079  25 
   0  -3 -14-19.8640 31.0010  21 
   0   3 -15 47.5019 40.3298  25 
   0  -3 -15 80.3427 64.2117  16 
   0   3 -15-7.71698 43.5133  17 
   0   3 -15 76.8221 42.6949  26 
   0   3  15 17.8806 48.1632  10 
   0   3 -15 18.6132 35.1526  16 
   0   3 -15 16.5617 43.3212  24 
   0   3 -15 78.3002 46.6994  14 
   0  -3 -15 69.6023 52.1737  15 
   0  -3 -15 67.6304 43.8376  21 
   0  -3 -16-16.8120 42.3686  16 
   0   3 -16 30.3873 38.3635  24 
   0   3 -16 75.7119 46.8703  16 
   0   3 -16 23.8995 27.8209  14 
   0   3 -16 3.40418 36.8895  17 
   0   3 -16 53.6174 35.9625  25 
   0   3 -16 43.0135 46.8460  26 
   0  -3 -16 7.00019 33.5524  15 
   0   3  16 23.1599 40.5924  10 
   0  -3 -16 52.1010 41.4607  21 
   0   3 -17-17.1698 36.5667  17 
   0   3 -17 21.1442 35.1228  26 
   0  -3 -17-0.66466 35.6307  16 
   0   3 -17-29.2044 34.6557  25 
   0   3  17 20.2039 36.6750  10 
   0   3 -17 1.97430 29.4055  24 
   0  -3 -17-5.47792 32.3327  15 
   0   3 -17 3.58147 25.7528  14 
   0  -3 -17 60.8642 35.8091  21 
   0  -3 -18 43.7249 39.8813  16 
   0  -3 -18-18.5531 28.4578  15 
   0   3  18-33.6752 37.9351  10 
   0   3 -18-30.3079 32.6919  24 
   0  -3 -18-15.5648 32.1512  22 
   0   3 -18-24.6132 24.3474  25 
  -1  -3   0 20.1665 37.9747   1 
   1  -3   0-19.2496 45.9380   1 
   1  -3  -1 1582.32 214.442   1 
   1   3  -1 1752.13 237.068   3 
  -1   3  -1 1815.29 232.005   3 
   1   3  -1 1610.51 225.815   2 
  -1   3  -1 1619.26 213.637   2 
  -1  -3  -1 1567.69 210.457   1 
  -1  -3   1 1700.02 202.544   1 
   1  -3   1 1560.27 210.845   1 
   1  -3   2 17288.1 672.608   1 
   1   3  -2 17329.8 736.785   3 
  -1   3  -2 16612.8 703.844   3 
   1  -3  -2 16384.2 708.566   1 
  -1   3  -2 17185.3 707.062   2 
   1   3  -2 16753.1 720.735   2 
  -1  -3   2 18318.3 637.660   1 
  -1  -3   3 13750.1 537.896   1 
   1  -3   3 13094.5 575.232   1 
   1   3  -3 12665.7 645.383   3 
  -1   3  -3 12320.5 607.819   3 
   1   3  -3 13052.1 656.154   2 
  -1   3  -3 13629.0 643.982   2 
   1  -3  -3 12739.0 634.590   1 
   1  -3   3 11081.2 224.513   5 
   1   3  -4 50087.7 802.690  20 
  -1   3  -4 50418.0 802.268  20 
  -1  -3   4 51798.7 1081.49   1 
   1   3   4 49378.5 770.396  10 
   1  -3   4 53125.4 1250.38   1 
   1   3  -4 51002.8 1339.49   2 
   1   3   4 52784.8 1630.96   1 
   1   3  -4 49812.8 742.447  10 
   1   3  -4 50023.8 1317.82   3 
  -1   3  -4 48330.2 1285.44   3 
   1  -3  -4 53139.9 1365.01   1 
  -1   3  -4 51674.2 725.493  13 
  -1   3  -4 46493.3 1267.49   2 
   1   3  -5 486.677 78.1217  20 
  -1   3  -5 705.444 97.0350  20 
  -1   3  -5 823.700 92.8887  26 
  -1   3  -5 649.321 92.5076   8 
   1   3   5 704.932 200.444   1 
   1   3  -5 741.192 79.3466  24 
  -1   3   5 719.814 89.8406  10 
  -1   3  -5 671.729 173.773   2 
  -1  -3  -5 676.975 78.9243   9 
   1   3  -5 689.857 86.7031  17 
  -1   3   5 774.354 224.398   1 
   1   3  -5 798.653 176.455   3 
  -1   3  -5 644.850 164.497   3 
   1   3  -5 688.805 78.3001  25 
   1  -3  -5 683.066 86.4527  16 
  -1  -3  -5 689.897 76.3982  15 
   1  -3  -5 820.431 83.6997  15 
   1   3  -5 769.406 94.1596  10 
   1   3   5 716.664 91.3154  10 
   1  -3  -5 668.319 77.2596   9 
   1   3  -5 781.571 172.331   2 
  -1  -3   5 633.945 123.823   1 
   1  -3   5 800.535 158.237   1 
  -1   3  -5 678.176 83.4193  13 
   1   3  -5 705.483 87.2804  26 
   1   3  -5 768.528 79.9301  13 
  -1  -3  -6 11307.6 330.821  15 
   1   3  -6 12013.5 408.750  20 
  -1   3  -6 12361.1 415.936  20 
   1  -3  -6 10310.5 345.539  16 
   1   3   6 11581.0 387.310  10 
   1   3  -6 10662.4 351.573  26 
   1   3   6 15338.0 960.027   1 
   1  -3   6 11475.9 618.550   1 
  -1  -3   6 11769.5 528.311   1 
  -1   3  -6 11773.1 346.182  24 
  -1   3  -6 11529.0 365.094  17 
   1   3  -6 10865.3 350.562  17 
   1   3  -6 11318.6 332.176  25 
  -1   3   6 13151.0 902.159   1 
   1   3  -6 12767.1 726.319   3 
  -1   3   6 11857.0 380.463  10 
  -1   3  -6 11487.5 359.256  26 
   1  -3  -6 10790.1 325.325  15 
   1   3  -6 11606.8 336.580  24 
   1   3  -6 13028.0 749.476   2 
  -1  -3  -6 10628.4 327.567   9 
   1  -3  -6 12438.9 353.261   9 
  -1   3  -6 11715.1 345.043  25 
  -1   3  -6 11111.6 341.587  13 
   1   3  -6 11516.7 333.838  13 
   1   3  -6 11016.2 376.684   8 
  -1  -3  -6 11751.0 350.848  16 
  -1   3  -6 11030.2 388.673   8 
  -1   3  -7 3437.75 221.483   8 
   1   3  -7 3464.20 231.012  20 
  -1  -3  -7 3689.19 201.853  16 
  -1   3  -7 3466.72 195.624  25 
   1   3  -7 3335.80 207.154  26 
  -1   3  -7 3394.12 200.044  26 
   1   3   7 3621.19 485.807   1 
  -1  -3  -7 3096.95 180.042  15 
  -1   3  -7 3334.35 201.972  17 
   1   3  -7 3133.43 195.246  17 
   1  -3  -7 3380.77 203.665  25 
   1  -3   7 3428.42 351.383   1 
  -1   3   7 3670.76 502.128   1 
   1  -3  -7 3424.34 206.109  16 
  -1  -3  -7 3836.96 204.778   9 
   1  -3  -7 3309.56 201.623  24 
  -1   3  -7 3175.61 221.957  20 
   1   3   7 3574.31 224.367  10 
   1   3  -7 3455.30 191.669  25 
   1  -3  -7 3516.69 196.125  15 
  -1   3  -7 3417.31 194.200  24 
   1   3  -7 3426.03 191.370  24 
  -1   3  -7 3748.53 173.291  14 
   1  -3  -7 3494.23 194.149   9 
  -1   3   7 3292.04 207.186  10 
   1  -3  -7 3111.60 158.494  21 
  -1   3  -7 3255.37 186.382  13 
   1   3  -7 3238.54 207.669   8 
   1   3  -8 48.7203 45.1504  20 
  -1   3  -8-7.38708 43.9390  20 
   1   3  -8-1.75682 29.9619   8 
   1  -3   8 4.37772 72.3976   1 
   1  -3  -8-0.83077 25.2855  16 
   1  -3   8 27.1906 36.6492   7 
  -1   3  -8-32.3067 37.4372  17 
   1   3  -8 8.34825 27.1849  17 
   1   3  -8 125.592 46.9365  26 
  -1   3  -8 25.9341 27.5555  26 
  -1   3  -8 86.1103 33.3672  25 
   1   3  -8-16.7862 25.5627  25 
  -1  -3  -8 26.7480 35.5436  15 
   1  -3  -8-6.53379 26.8039  25 
   1  -3  -8 27.0000 34.1414  15 
  -1   3  -8-10.2796 23.5582   6 
   1   3   8 24.8505 36.1222  10 
  -1   3   8 18.5564 30.5353  10 
  -1   3  -8 92.6437 36.7452  24 
   1   3  -8 26.2250 35.9278  24 
   1  -3  -8 34.8918 37.2996  24 
  -1   3  -8-7.95621 18.9524  14 
  -1  -3  -8-29.0378 29.9863   9 
   1   3   8 61.1144 123.157   1 
   1  -3  -8-9.43429 26.5304   9 
  -1   3  -8 66.1602 49.4863   8 
  -1   3   8 17.1674 119.177   1 
   1  -3  -8 24.6691 31.1637  21 
  -1   3  -9 1105.34 139.320   8 
  -1   3  -9 1092.83 129.806  26 
   1   3  -9 1043.37 137.749  20 
  -1   3  -9 1232.63 151.427  20 
   1   3  -9 1230.92 139.888  26 
   1   3  -9 960.973 125.588   8 
   1  -3   9 1155.73 121.440   7 
  -1   3  -9 1068.69 106.974   6 
  -1   3  -9 1113.92 126.163  17 
   1   3  -9 1094.25 124.539  17 
  -1   3   9 1045.33 132.298  10 
   1   3   9 1072.50 137.235  10 
  -1  -3  -9 1948.70 165.708  16 
   1   3   9 1252.74 335.147   1 
  -1  -3  -9 1157.20 124.134  15 
   1  -3  -9 1220.06 125.104  15 
  -1   3  -9 1176.44 107.581  14 
   1  -3  -9 893.076 125.296  25 
   1   3  -9 1215.22 103.909  14 
  -1   3  -9 830.502 104.284  25 
   1  -3  -9 1160.64 131.630  16 
   1  -3  -9 946.052 121.665  24 
  -1   3  -9 854.733 103.544  24 
  -1   3   9 1117.40 317.681   1 
   1   3  -9 1106.08 118.506  24 
  -1  -3  -9 1208.05 130.774   9 
   1  -3  -9 1096.19 123.007   9 
  -1  -3  -9 1085.24 102.125  21 
   1  -3  -9 1247.08 114.242  21 
   1   3  -9 1076.18 118.388  25 
   1   3 -10 1279.26 160.889  20 
  -1   3 -10 1256.94 149.185   8 
  -1  -3 -10 1196.87 112.717  21 
   1   3 -10 1040.70 133.335   8 
   1  -3 -10 1199.75 142.944  16 
  -1   3 -10 1375.62 148.710  26 
  -1   3 -10 1562.60 146.778  24 
  -1   3 -10 1238.77 139.527  17 
   1   3 -10 1276.32 137.694  17 
   1   3 -10 1113.09 111.203  16 
  -1   3  10 1223.66 149.447  10 
   1   3  10 1326.74 153.040  10 
  -1  -3 -10 1357.26 145.720  16 
   1   3 -10 1153.20 140.547  26 
   1  -3 -10 1190.17 137.160  15 
   1  -3 -10 1032.17 128.960  25 
   1   3 -10 1295.96 132.827  24 
   1  -3 -10 1100.54 137.798  24 
   1   3 -10 1164.29 109.860  14 
   1   3 -10 1304.75 132.273  25 
  -1  -3 -10 1143.26 130.518   9 
  -1   3 -10 1228.72 116.620   6 
  -1  -3 -10 1011.36 119.700  15 
   1  -3 -10 1351.42 121.914  21 
  -1   3 -10 1686.70 154.983  25 
   1  -3 -11 7066.62 335.908  25 
   1   3 -11 6940.49 331.901   8 
  -1   3 -11 7583.55 370.454   8 
  -1   3 -11 7334.21 334.258  25 
   1   3 -11 7464.12 363.297  26 
  -1   3 -11 8551.97 377.113  17 
   1   3 -11 7762.52 345.844  17 
  -1   3 -11 7850.90 366.671  26 
   1   3 -11 8003.35 305.726  16 
  -1   3  11 7355.11 375.151  10 
   1   3  11 7582.06 390.194  10 
  -1  -3 -11 8004.29 363.846  16 
   1  -3 -11 7216.18 354.263  16 
  -1   3 -11 7501.25 296.908   6 
  -1  -3 -11 7199.46 331.923  15 
   1  -3 -11 7677.43 338.855  15 
  -1   3 -11 7159.66 329.632  24 
   1  -3 -11 7582.14 344.754  24 
  -1   3 -11 7749.96 306.035  14 
   1   3 -11 7505.42 296.610  14 
  -1  -3 -11 7515.56 342.549   9 
   1   3 -11 7624.16 337.005  24 
  -1  -3 -11 8021.84 304.726  21 
   1   3 -11 7446.61 331.492  25 
   1  -3 -11 7996.43 311.416  21 
   1   3 -12 16798.7 565.503  26 
   1  -3 -12 15275.8 517.286  25 
  -1   3 -12 17307.6 474.485  14 
  -1   3 -12 17774.8 566.962  17 
   1   3 -12 17318.6 532.179  17 
  -1   3 -12 17173.7 495.144  16 
   1   3 -12 16474.7 464.257  16 
  -1   3  12 17250.0 585.843  10 
  -1  -3 -12 16727.2 551.896  16 
  -1   3 -12 18082.2 579.606  26 
  -1   3 -12 17209.9 464.702   6 
  -1   3 -12 17237.4 527.114  25 
  -1  -3 -12 17841.9 542.965  15 
   1  -3 -12 16714.1 521.887  15 
   1  -3 -12 17174.5 566.272  16 
  -1   3 -12 16280.6 515.976  24 
   1   3 -12 16421.1 518.609  24 
   1  -3 -12 15140.1 518.595  24 
   1   3 -12 16781.4 458.577  14 
  -1  -3 -12 15414.2 441.236  14 
   1   3 -12 15820.2 508.983  25 
  -1  -3 -12 17304.0 534.297   9 
  -1   3 -12 16272.1 446.506  21 
  -1  -3 -12 17857.6 478.715  21 
   1  -3 -12 16994.7 474.964  21 
   1   3  12 17407.5 608.687  10 
  -1   3 -13 79231.2 1091.40  14 
   1  -3 -13 74020.6 1260.47  16 
  -1   3 -13 75075.2 1170.76  24 
  -1   3 -13 75853.4 1228.26  17 
   1   3 -13 75136.2 1173.23  17 
  -1  -3 -13 75215.1 1181.82  15 
  -1   3 -13 75435.7 1169.85  25 
  -1   3 -13 74455.9 1105.59  16 
   1   3 -13 76904.7 1070.97  16 
   1   3 -13 78355.6 1288.84  26 
  -1   3 -13 75386.1 1255.79  26 
   1   3  13 74918.0 1318.96  10 
   1  -3 -13 76216.6 1167.36  15 
  -1   3 -13 75976.1 1038.19   6 
   1  -3 -13 73030.3 1175.12  25 
   1   3 -13 75778.5 1177.34  25 
   1   3 -13 76819.4 1186.31  24 
   1  -3 -13 74057.1 1179.83  24 
   1   3 -13 75838.5 1052.74  14 
  -1  -3 -13 75518.0 1247.82  16 
  -1   3 -13 76264.3 1025.20  21 
  -1  -3 -13 80150.2 1088.74  21 
   1  -3 -13 76907.2 1083.47  21 
  -1   3  13 75191.5 1291.25  10 
   1  -3  14 2129.28 184.739  12 
  -1   3 -14 2238.91 189.620  25 
  -1  -3 -14 2091.55 202.063  16 
   1   3 -14 2229.08 190.359  25 
  -1   3 -14 2322.90 205.908  17 
   1   3 -14 2074.72 182.992  17 
  -1   3 -14 2321.33 183.598  16 
  -1   3  14 2082.38 206.570  10 
  -1   3 -14 2212.42 172.391  14 
   1  -3 -14 1873.99 192.813  16 
   1   3 -14 2221.82 216.834  26 
  -1  -3 -14 2037.10 185.021  15 
   1  -3 -14 2084.95 184.384  15 
   1  -3 -14 1976.20 185.752  25 
  -1   3 -14 2051.94 155.443   6 
  -1   3 -14 2270.24 193.405  24 
   1   3 -14 2014.19 180.345  24 
   1  -3 -14 1834.67 180.385  24 
   1   3  14 2399.49 225.415  10 
   1   3 -14 2052.96 164.653  14 
  -1   3 -14 2485.91 217.870  26 
  -1   3 -14 2205.42 159.008  21 
  -1  -3 -14 2115.52 164.841  21 
   1  -3 -14 2140.32 170.260  21 
  -1  -3  14 2131.94 182.356  12 
   1  -3  15 37320.2 747.489  12 
   1  -3 -15 38128.5 769.809  15 
  -1   3 -15 37807.2 787.629  25 
   1   3 -15 37431.2 858.284  26 
   1   3  15 37459.7 882.003  10 
  -1   3 -15 37551.8 786.434  24 
  -1   3 -15 37387.8 822.512  17 
   1   3 -15 36623.7 776.271  17 
  -1   3 -15 38172.0 749.121  16 
  -1  -3 -15 36952.3 829.591  16 
   1  -3 -15 38774.3 877.924  16 
  -1   3  15 35115.2 829.303  10 
  -1   3 -15 38319.3 847.401  26 
  -1  -3 -15 34376.3 748.179  15 
   1   3 -15 37654.5 790.457  24 
   1   3 -15 38105.9 705.846  14 
   1   3 -15 37291.5 786.084  25 
  -1   3 -15 37526.4 712.259  14 
  -1  -3 -15 38753.9 708.889  21 
   1  -3 -15 34517.7 694.588  21 
   1   3 -16 18258.9 561.228  26 
  -1   3 -16 18678.3 547.986  17 
   1   3 -16 18681.6 521.047  17 
  -1   3 -16 18313.9 485.455  16 
   1   3  16 17219.6 557.542  10 
  -1   3  16 18911.8 563.520  10 
   1   3 -16 17571.3 506.196  25 
  -1   3 -16 17162.4 536.018  26 
   1   3 -16 17151.6 501.422  24 
  -1   3 -16 17094.4 494.373  25 
  -1  -3 -16 17922.9 500.093  15 
   1  -3 -16 16841.9 483.607  15 
  -1  -3 -16 17169.5 533.265  16 
  -1   3 -16 17669.2 503.422  24 
   1  -3 -16 17869.3 559.786  16 
  -1   3 -16 17455.9 459.630  14 
   1   3 -16 16891.9 444.536  14 
  -1  -3 -16 17714.8 450.026  21 
   1  -3 -16 17640.0 467.007  21 
  -1   3 -17 467.046 72.4423  16 
   1  -3 -17 411.335 80.8033  16 
  -1   3 -17 420.905 83.1410  17 
  -1  -3 -17 431.331 76.1666  15 
  -1   3 -17 506.466 91.4416  26 
  -1   3  17 474.403 86.3435  10 
   1  -3 -17 429.145 76.3056  15 
   1   3 -17 487.861 91.1867  26 
  -1   3 -17 464.060 77.6560  25 
   1   3 -17 363.020 69.5551  25 
   1   3  17 510.648 94.5199  10 
   1   3 -17 390.720 79.8511  24 
  -1  -3 -17 492.670 92.8291  16 
  -1   3 -17 414.845 67.6269  14 
  -1   3 -17 483.436 79.8056  24 
   1  -3 -17 508.241 82.7607  22 
  -1  -3 -17 407.577 67.8355  21 
   1  -3 -17 451.984 74.7247  21 
  -1   3 -18 157.869 43.8526  24 
  -1   3 -18 109.164 43.5552  17 
   1  -3 -18 135.585 48.6742  16 
   1   3  18 176.632 55.4187  10 
  -1  -3 -18 164.700 50.8374  16 
  -1   3 -18 130.405 40.4801  25 
   1   3 -18 151.759 44.5541  25 
  -1  -3 -18 153.534 43.1852  15 
   1   3 -18 209.693 51.7189  24 
   1  -3 -18 122.171 43.1620  22 
  -1  -3 -18 136.557 46.0703  22 
  -1   3  18 155.616 46.9941  10 
  -2   3   0 242625. 2791.47   3 
  -2  -3   0 239684. 2648.98   1 
   2  -3   0 248857. 2970.38   1 
   2   3  -1 11572.7 602.953   3 
  -2   3  -1 11500.3 553.256   3 
  -2   3  -1 11727.7 550.802   2 
   2   3   1 13922.8 756.066   1 
   2   3  -1 11140.0 591.795   2 
  -2  -3   1 12521.7 526.021   1 
   2  -3  -1 11585.3 599.469   1 
   2  -3   1 12289.1 590.332   1 
   2   3  -2 291.155 103.547   3 
   2  -3   2 147.438 42.3105   5 
  -2   3  -2 156.930 76.5046   2 
  -2   3  -2 212.697 99.3845   3 
   2  -3  -2 304.847 114.692   1 
   2   3  -2 235.355 86.7040   2 
  -2  -3   2 144.209 63.1846   1 
   2  -3   2 138.691 79.1867   1 
   2   3   2 192.061 114.847   1 
  -2  -3   3 12391.4 475.190   1 
   2   3  -3 11723.1 368.745  20 
   2  -3   3 11155.4 579.341   1 
   2   3   3 12785.2 773.475   1 
   2   3  -3 11588.3 626.094   3 
  -2   3  -3 11606.9 577.923   3 
   2   3   3 11822.1 358.025  10 
   2   3  -3 11952.4 636.270   2 
  -2   3  -3 11629.4 580.947   2 
   2   3  -3 11869.1 342.211  10 
   2  -3   3 10763.3 243.241   5 
   2  -3  -3 13284.7 670.639   1 
  -2   3  -3 11652.0 327.646  13 
   2   3  -4 2685.25 180.705  20 
  -2   3  -4 3120.55 192.036  20 
  -2  -3   4 3473.10 249.540   1 
   2  -3   4 3250.15 317.838   1 
   2   3   4 3383.22 401.714   1 
   2   3  -4 3693.83 368.934   2 
   2   3  -4 3243.63 342.453   3 
   2  -3  -4 3364.90 189.017  16 
  -2   3  -4 3971.70 362.953   3 
   2   3   4 3414.01 199.802  10 
   2  -3  -4 3070.25 157.672  15 
   2   3  -4 2727.05 167.205  10 
  -2   3  -4 3629.08 349.411   2 
  -2  -3  -4 2883.47 154.633   9 
   2  -3  -4 3182.90 338.021   1 
  -2   3  -4 3302.05 177.434  13 
  -2   3  -4 3225.79 200.380   8 
   2   3  -5 5062.71 260.337  20 
   2  -3  -5 5227.94 242.846  16 
  -2   3  -5 5080.86 258.389  20 
   2   3   5 5586.24 546.941   1 
   2  -3   5 5013.53 414.347   1 
  -2  -3   5 5645.70 320.030   1 
   2   3  -5 4768.86 258.482  18 
  -2   3  -5 5705.65 246.641  17 
   2   3  -5 5506.49 470.602   3 
  -2   3  -5 6068.73 461.117   3 
   2   3  -5 5154.80 235.442  26 
  -2   3  -5 4583.98 211.674  26 
  -2  -3  -5 5166.01 212.528  15 
   2   3  -5 5312.96 213.518  25 
   2  -3  -5 5100.60 214.876  15 
   2   3  -5 4988.72 239.473  10 
   2   3   5 5222.70 256.359  10 
   2   3  -5 5362.86 465.593   2 
   2   3  -5 5149.75 210.656  24 
  -2   3  -5 5721.75 453.361   2 
  -2  -3  -5 5051.24 217.335   9 
   2  -3  -5 4590.63 427.955   1 
  -2   3  -5 5585.95 234.219  13 
   2   3  -5 5276.21 211.059  13 
  -2   3  -5 4983.76 256.339   8 
   2  -3   6 655.144 158.021   1 
   2   3  -6 626.215 97.1808  20 
   2   3  -6 707.447 184.629   2 
  -2   3  -6 610.333 96.2569  20 
  -2  -3  -6 645.206 81.5188  16 
  -2   3  -6 634.451 95.3994   8 
   2   3  -6 608.359 83.1868  26 
   2   3  -6 671.807 82.4410  24 
   2   3  -6 540.459 92.2777  18 
  -2   3  -6 541.880 81.5792  17 
   2   3  -6 629.089 85.2875  17 
   2  -3  -6 580.680 85.9688  16 
   2  -3  -6 384.084 143.937   1 
   2  -3  -6 515.479 71.7830  15 
  -2   3  -6 679.199 88.2625  26 
   2   3   6 687.961 212.027   1 
   2   3  -6 632.641 78.3877  25 
  -2  -3  -6 595.031 74.9227  15 
   2   3   6 603.513 95.2940  10 
  -2   3   6 523.697 83.4074  10 
  -2  -3  -6 533.228 77.8153   9 
   2   3  -6 534.167 167.436   3 
  -2   3  -6 617.299 82.5459  13 
  -2   3  -6 716.271 77.1501  14 
   2   3  -6 935.678 108.243   8 
   2   3  -7 27.1634 33.8920  20 
  -2   3  -7 34.1792 29.2168  20 
   2  -3   7 73.6879 58.0306   1 
   2   3  -7 97.9845 42.0914   8 
  -2   3  -7 82.4860 39.0312  26 
   2  -3  -7-7.09123 29.5899  15 
  -2   3  -7 37.1798 28.3204   8 
   2   3  -7-2.77492 21.1789  25 
  -2   3  -7-11.4908 24.8255  17 
   2   3  -7 33.0254 32.8719  17 
   2   3  -7 16.2043 28.7702  24 
   2  -3  -7 97.0922 98.4130   1 
  -2   3  -7 23.4844 31.1116  25 
   2   3   7 73.7730 116.986   1 
   2   3  -7 376.325 70.5975  26 
  -2  -3  -7 82.0800 39.2186  16 
   2  -3  -7-11.0289 34.4833  16 
  -2  -3  -7 39.6843 35.1039  15 
   2  -3  -7 28.4650 37.7834  25 
   2   3   7 30.0671 32.9299  10 
  -2   3   7 8.45991 26.5393  10 
  -2   3  -7 10.9489 26.7425  24 
   2  -3  -7 8.95280 32.7265  24 
  -2   3  -7 427.845 63.6848  14 
  -2  -3  -7 24.9546 23.8120   9 
   2  -3  -7-4.82343 23.1596  21 
  -2   3  -7 16.8637 31.3038  13 
   2   3  -8 4927.40 260.074   8 
   2   3   8 5303.53 289.113  10 
  -2   3  -8 5832.35 307.031   8 
   2   3  -8 4830.97 285.238  20 
   2   3  -8 4836.88 263.538  26 
   2   3   8 5077.68 610.030   1 
   2  -3   8 4979.45 253.010   7 
  -2   3  -8 5385.04 268.372  17 
   2   3  -8 4836.58 243.044  17 
   2   3  -8 5053.63 240.276  25 
   2   3  -8 4854.31 233.918  24 
   2  -3   8 4502.53 441.363   1 
  -2  -3  -8 5134.06 250.089  16 
   2  -3  -8 4882.93 257.090  16 
  -2   3  -8 5178.88 256.231  26 
   2  -3  -8 4904.29 263.108  24 
  -2  -3  -8 5042.95 247.240  15 
   2  -3  -8 3611.70 209.395  15 
  -2   3  -8 4544.62 236.162  24 
  -2   3  -8 5324.22 255.508  25 
  -2   3  -8 5319.03 228.608  14 
   2  -3  -8 5019.98 508.645   1 
  -2  -3  -8 4865.71 245.334   9 
   2  -3  -8 4815.23 262.773  25 
  -2   3   8 4677.48 258.344  10 
   2  -3  -8 5116.24 219.118  21 
   2  -3   8 4778.93 417.248   4 
  -2  -3  -9 370.495 75.3520  16 
  -2   3  -9 398.579 83.2679  26 
  -2   3  -9 338.955 73.9264  24 
   2   3  -9 341.143 86.3983  20 
   2   3   9 482.902 230.174   1 
   2   3  -9 238.732 65.3240   8 
  -2   3  -9 304.371 77.7824   8 
   2  -3   9 299.141 156.671   1 
   2  -3   9 318.348 68.7232   7 
  -2   3  -9 393.400 83.4861  17 
   2   3  -9 644.043 92.5057  17 
   2  -3  -9 277.014 146.035   1 
   2   3  -9 277.936 70.4072  26 
   2  -3  -9 308.555 75.4644  16 
  -2   3  -9 315.587 69.5485  25 
   2   3  -9 280.189 64.3313  25 
  -2  -3  -9 239.467 63.5717  15 
   2  -3  -9 255.257 70.1942  25 
  -2   3  -9 403.304 75.1856   6 
   2   3   9 238.650 61.5278  10 
  -2   3   9 256.378 65.4644  10 
   2   3  -9 338.764 68.3287  24 
   2  -3  -9 249.323 65.2670  24 
  -2   3  -9 358.162 68.3755  14 
   2  -3  -9 305.077 69.2526  15 
  -2  -3  -9 327.000 68.5668   9 
  -2  -3  -9 416.595 64.4658  21 
   2  -3  -9 304.149 61.2259  21 
   2   3 -10 21205.5 639.070  20 
  -2   3 -10 20654.1 617.912   8 
   2  -3 -10 19931.7 502.491  19 
  -2   3 -10 21264.5 561.209  25 
   2  -3  10 22963.7 576.809   7 
   2   3 -10 21873.0 613.131  26 
  -2   3 -10 21003.0 515.138   6 
  -2   3 -10 22031.0 606.087  17 
   2   3 -10 22588.1 570.018  17 
  -2   3 -10 22705.2 581.098  24 
  -2   3 -10 20952.9 575.341  26 
  -2  -3 -10 20088.2 557.732  16 
   2   3  10 20169.0 623.152  10 
  -2   3  10 19301.2 579.164  10 
   2  -3 -10 21992.1 623.326  16 
   2  -3 -10 19691.9 568.921  25 
   2  -3 -10 21439.9 555.152  15 
   2   3 -10 21219.0 545.527  24 
   2  -3 -10 20375.9 576.601  24 
  -2   3 -10 21642.1 514.204  14 
   2   3 -10 20492.0 471.650  14 
  -2  -3 -10 19881.6 543.930  15 
  -2  -3 -10 22132.7 577.928   9 
   2   3 -10 21451.7 548.444  25 
  -2  -3 -10 23522.8 510.245  21 
   2  -3 -10 22452.1 516.321  21 
  -2   3 -11 4177.32 248.997  24 
  -2   3 -11 4238.63 233.177  14 
   2   3 -11 4156.48 285.419  20 
  -2   3 -11 4102.95 282.640   8 
  -2   3 -11 3913.93 222.465   6 
  -2   3 -11 4603.91 280.376  17 
   2   3 -11 4438.73 254.352  25 
   2   3 -11 4276.29 249.378  17 
   2   3 -11 4311.34 280.676  26 
  -2  -3 -11 4693.21 276.641  16 
   2   3  11 3816.92 280.853  10 
   2  -3 -11 4381.96 279.184  16 
  -2   3 -11 4323.54 256.553  25 
  -2  -3 -11 4351.99 263.818  15 
   2  -3 -11 4305.87 253.341  15 
   2  -3 -11 3788.67 262.034  25 
   2   3 -11 4324.91 252.014  24 
   2  -3 -11 3658.63 258.212  24 
   2   3 -11 3926.42 214.231  14 
  -2   3 -11 4214.60 265.624  26 
  -2  -3 -11 4408.23 261.763   9 
  -2  -3 -11 4776.42 235.706  21 
   2  -3 -11 3817.10 218.232  21 
  -2   3  11 3868.51 267.086  10 
   2  -3 -12 6581.50 357.565  16 
  -2   3  12 6608.45 362.047  10 
   2   3  12 6643.43 377.154  10 
  -2   3 -12 6864.66 328.033  25 
  -2   3 -12 7026.59 356.776  17 
   2   3 -12 7283.62 334.289  17 
  -2   3 -12 6781.20 298.583   6 
  -2   3 -12 7076.34 324.617  16 
  -2   3 -12 6539.65 342.397  26 
  -2   3 -12 6680.01 324.835  24 
  -2  -3 -12 7180.32 343.156  15 
   2  -3 -12 7070.69 335.208  15 
   2  -3 -12 6168.83 347.001  25 
   2   3 -12 7171.73 337.714  24 
   2  -3 -12 5967.25 343.114  24 
   2   3 -12 7081.04 335.314  25 
  -2   3 -12 7229.98 309.987  14 
   2   3 -12 7434.96 376.442  26 
  -2  -3 -12 6551.75 344.683  16 
   2   3 -12 6860.32 290.140  14 
  -2  -3 -12 7185.59 345.323   9 
  -2  -3 -12 7124.78 297.725  21 
   2  -3 -12 7586.11 316.877  21 
  -2   3 -13 947.745 128.402  24 
   2   3 -13 944.485 121.790  25 
   2  -3  13 1081.38 137.288  12 
  -2   3 -13 928.738 137.410  17 
   2   3 -13 991.495 129.272  17 
   2   3 -13 990.102 141.408  26 
  -2   3 -13 874.401 132.411  26 
   2   3 -13 1025.22 131.433  24 
  -2   3 -13 918.944 130.700  25 
   2  -3 -13 692.885 130.786  25 
  -2  -3 -13 916.750 122.489  15 
   2  -3 -13 841.129 132.030  16 
   2   3  13 1003.59 152.825  10 
  -2   3  13 949.946 139.043  10 
  -2   3 -13 925.610 113.851   6 
   2  -3 -13 764.503 130.003  24 
  -2   3 -13 891.868 117.044  16 
  -2   3 -13 976.846 118.906  14 
   2   3 -13 1004.39 109.561  14 
   2  -3 -13 909.564 124.752  15 
  -2   3 -13 1016.56 114.207  21 
  -2  -3 -13 859.257 128.302  16 
  -2  -3 -13 902.642 127.112   9 
  -2  -3 -13 880.864 106.379  21 
   2  -3 -13 970.347 118.196  21 
  -2  -3 -14 4884.92 299.611  16 
   2  -3  14 5449.98 296.795  12 
   2  -3 -14 4302.25 291.400  16 
  -2   3 -14 5168.40 307.092  26 
  -2   3 -14 5176.27 309.945  17 
   2   3 -14 5180.74 282.169  17 
   2   3 -14 5446.99 322.756  26 
  -2   3 -14 5145.62 278.105  16 
   2   3  14 5316.70 338.518  10 
  -2   3  14 5517.11 326.758  10 
   2   3 -14 5168.58 292.671  25 
  -2  -3 -14 5127.96 292.104  15 
   2  -3 -14 4561.05 288.614  25 
   2  -3 -14 5472.08 292.770  15 
  -2   3 -14 5245.87 258.972   6 
  -2   3 -14 5205.52 289.112  24 
   2   3 -14 4846.64 285.653  24 
   2  -3 -14 4669.08 292.526  24 
  -2   3 -14 5400.80 291.481  25 
  -2   3 -14 5367.74 266.948  14 
   2   3 -14 5229.40 256.984  14 
  -2   3 -14 5203.66 246.957  21 
  -2  -3 -14 5257.46 256.790  21 
   2  -3 -14 4842.19 259.066  21 
   2  -3  15 4210.98 249.132  12 
   2  -3 -15 3879.60 285.211  16 
  -2   3 -15 4419.10 237.912  14 
  -2   3 -15 4610.47 283.856  17 
   2   3 -15 4181.59 249.969  17 
  -2   3 -15 4605.99 256.246  16 
   2   3  15 4269.06 292.372  10 
  -2   3  15 4600.75 285.706  10 
   2   3 -15 4424.86 285.623  26 
  -2   3 -15 4101.98 267.899  26 
  -2   3 -15 4262.66 253.600  25 
   2   3 -15 4380.82 260.438  24 
  -2  -3 -15 4310.69 259.539  15 
   2  -3 -15 3923.40 241.622  15 
  -2   3 -15 4503.30 259.656  24 
  -2  -3 -15 4048.12 269.421  16 
   2   3 -15 4397.01 227.219  14 
  -2   3 -15 4426.84 218.096  21 
  -2  -3 -15 4117.54 220.244  21 
   2  -3 -15 4332.88 242.671  21 
   2   3 -15 4314.32 257.245  25 
  -2   3 -15 4327.52 227.910   6 
  -2  -3 -16 581.561 104.129  16 
  -2   3 -16 805.564 118.590  17 
   2   3 -16 961.919 130.504  26 
  -2   3 -16 613.518 98.1250  26 
   2  -3 -16 695.766 116.837  16 
  -2   3 -16 683.854 96.5433  25 
   2   3 -16 724.626 104.150  25 
  -2   3 -16 696.055 97.7739  16 
  -2  -3 -16 539.839 86.3509  15 
   2  -3 -16 719.015 102.081  15 
   2   3  16 960.607 135.195  10 
  -2   3  16 656.202 108.866  10 
  -2   3 -16 760.634 102.383  24 
   2   3 -16 810.213 112.821  24 
  -2   3 -16 713.436 90.2207  14 
   2  -3 -16 688.385 100.464  22 
  -2  -3 -16 716.140 89.3505  21 
   2  -3 -16 681.447 98.1712  21 
  -2   3 -17 700.791 92.0897  24 
   2  -3 -17 541.269 83.0320  15 
  -2  -3 -17 566.475 85.2932  15 
  -2   3 -17 617.900 96.4662  17 
  -2   3 -17 618.277 86.5806  16 
   2   3 -17 588.344 96.9934  26 
  -2  -3 -17 568.303 90.7561  16 
   2  -3 -17 637.873 102.362  16 
  -2   3 -17 677.559 88.7354  25 
   2   3 -17 534.172 81.2702  25 
  -2   3  17 668.205 94.2185  10 
   2   3  17 624.453 97.5976  10 
   2   3 -17 557.560 84.0636  24 
  -2   3 -17 519.377 74.7068  14 
   2  -3 -17 642.141 91.0379  22 
  -2  -3 -17 611.487 75.8660  21 
   2  -3 -17 530.794 82.7635  21 
  -2  -3 -18 725.701 91.7809  16 
   2  -3 -18 711.082 85.8435  11 
  -2   3 -18 976.425 106.553  17 
   2   3 -18 931.615 98.5728  25 
  -2   3 -18 935.237 90.7995  25 
  -2   3 -18 901.907 89.5477  24 
   2   3 -18 804.592 91.6235  24 
   2   3  18 910.131 105.499  10 
   2  -3 -18 772.256 85.6261  22 
  -2  -3 -18 792.759 85.0498  15 
  -3  -3   0-27.4642 46.9181   1 
  -3   3   0-13.4204 60.6215   3 
   3  -3   0 160.282 85.3892   1 
  -3   3   0 21.1397 64.8417   2 
   3  -3   0 17.9990 40.0831   5 
   3  -3   1 292580. 3354.42   1 
   3   3  -1 320966. 3569.35   2 
   3   3  -1 329541. 3656.82   3 
  -3   3  -1 301871. 3152.23   2 
  -3   3  -1 309758. 3193.47   3 
   3   3   1 371766. 4109.79   1 
   3  -3   1 293359. 2646.18   5 
  -3   3   1 310969. 2307.59  13 
  -3  -3   1 344927. 3117.80   1 
   3  -3  -1 290059. 3429.44   1 
   3  -3   2 29617.4 967.003   1 
   3  -3  -2 34787.1 570.003  19 
   3   3  -2 31743.3 692.184  18 
   3   3   2 33719.3 1210.52   1 
   3   3  -2 31888.8 1055.28   3 
  -3   3  -2 27577.2 856.440   3 
   3   3   2 30793.5 593.126  10 
  -3   3   2 33641.7 597.749  13 
   3   3  -2 30696.8 1028.91   2 
   3   3  -2 32378.6 578.704  10 
   3  -3   2 31441.0 622.074   5 
  -3   3  -2 35934.5 976.979   2 
  -3   3  -2 31833.6 567.933  13 
   3  -3  -2 32673.5 1056.46   1 
  -3  -3   2 33984.2 815.900   1 
  -3  -3   3 9149.83 379.865   1 
   3   3  -3 9316.51 337.491  20 
   3  -3  -3 8465.26 278.599  19 
   3  -3   3 9440.15 564.089   1 
   3   3   3 9666.07 659.269   1 
   3   3   3 9055.05 364.778  18 
   3   3  -3 8662.94 356.523  18 
  -3   3  -3 9268.55 513.428   2 
   3   3  -3 8832.71 554.606   3 
  -3   3  -3 9293.42 511.421   3 
   3   3   3 8885.51 321.689  10 
   3   3  -3 9221.60 572.634   2 
   3  -3  -3 9616.37 279.810  15 
   3   3  -3 9064.01 306.082  10 
   3  -3  -3 9186.22 280.797  22 
  -3   3  -3 9124.38 301.117  13 
   3  -3  -3 10920.1 629.216   1 
  -3   3  -3 9167.89 331.191   8 
   3   3  -4 33487.9 678.092  20 
  -3   3  -4 34787.6 679.208  20 
   3  -3  -4 35617.5 601.602  19 
   3  -3  -4 34389.8 575.123  15 
   3  -3   4 34484.2 1122.87   1 
   3   3   4 33649.0 1318.42   1 
   3   3   4 33459.8 660.063  10 
   3   3   4 32690.8 715.394  18 
   3   3  -4 35198.2 744.901  18 
   3   3  -4 36377.5 1185.51   3 
  -3   3  -4 36979.2 1091.98   3 
   3  -3  -4 31820.5 626.625  16 
   3   3  -4 36318.1 643.515  10 
  -3   3  -4 35292.9 1084.27   2 
  -3  -3  -4 35793.8 590.015   9 
   3  -3  -4 32920.5 570.684  22 
   3  -3  -4 36036.2 1173.23   1 
  -3   3  -4 34126.3 605.735  13 
  -3   3  -4 33191.1 668.163   8 
   3   3  -4 34940.8 1168.27   2 
  -3  -3  -4 34022.0 558.141  15 
   3   3  -5 4111.71 237.055  20 
  -3   3  -5 4142.81 237.081  20 
   3  -3  -5 3797.25 196.203  19 
  -3   3  -5 4073.54 198.333  26 
   3   3   5 4471.53 230.711  12 
   3   3   5 4013.53 485.194   1 
   3  -3   5 4635.13 423.535   1 
   3   3   5 4497.16 258.553  18 
   3   3  -5 4120.46 248.227  18 
  -3   3  -5 4395.22 223.051  17 
   3   3  -5 4307.10 427.549   3 
   3   3  -5 4244.19 219.348  26 
  -3  -3  -5 4625.19 204.799  15 
   3   3  -5 4513.21 195.949  24 
   3   3  -5 4380.21 433.629   2 
  -3   3  -5 4153.95 185.332  14 
   3  -3  -5 4564.22 232.189  16 
  -3  -3  -5 4251.87 208.014   9 
   3  -3  -5 5049.03 224.607  22 
   3   3  -5 4396.37 227.530  10 
   3  -3  -5 4285.35 415.513   1 
  -3   3  -5 4213.71 210.844  13 
   3   3   5 4156.35 232.777  10 
   3  -3  -5 4643.16 209.076  15 
   3   3  -5 4380.86 191.731  25 
  -3   3  -5 3936.75 234.768   8 
  -3   3  -6 92712.7 1247.91   8 
   3  -3  -6 88435.0 2005.55   1 
   3   3  -6 98394.0 1289.89  20 
  -3   3  -6 105446. 1151.14  26 
   3  -3  -6 97628.6 1098.53  15 
   3  -3  -6 93235.3 1088.40  19 
   3   3   6 89284.2 2418.46   1 
  -3  -3  -6 88883.1 1042.68  16 
   3   3   6 92972.8 1168.21  12 
   3   3   6 94054.3 1300.55  18 
   3   3  -6 90436.2 1271.40  18 
   3  -3   6 95484.8 2054.64   1 
  -3   3  -6 101158. 1191.76  17 
   3   3  -6 90830.8 1037.85  17 
   3   3  -6 93263.6 2109.65   3 
   3  -3  -6 90237.1 1151.94  16 
   3   3  -6 92309.6 1153.48  26 
   3   3   6 91776.3 1218.83  10 
  -3  -3  -6 96945.7 1093.73  15 
   3   3  -6 95631.9 1047.80  25 
  -3   3  -6 93569.6 1021.89  14 
   3   3  -6 95178.5 1039.99  24 
  -3  -3  -6 92496.4 1090.36   9 
   3   3  -6 93849.1 2148.83   2 
  -3   3  -6 92390.7 1103.12  13 
   3  -3  -6 93357.1 1004.04  21 
   3   3  -6 87596.3 1122.75   8 
  -3   3  -7 32812.4 736.271   8 
   3   3  -7 33168.3 741.818  20 
  -3  -3  -7 33506.4 627.126  16 
  -3   3  -7 36219.7 664.270  26 
   3  -3  -7 32427.8 617.497  19 
   3   3  -7 33578.6 606.503  25 
   3   3   7 33713.2 1532.45   1 
  -3   3  -7 35384.5 653.121  25 
   3  -3   7 29601.3 643.374   7 
   3   3  -7 30683.8 710.268  18 
  -3   3  -7 35595.5 692.403  17 
   3   3  -7 32144.3 595.718  17 
   3  -3   7 31062.0 1190.20   1 
   3  -3  -7 34624.4 690.359  16 
   3   3   7 27570.0 663.224  10 
   3   3  -7 33598.4 686.757  26 
  -3  -3  -7 34211.9 644.487  15 
   3  -3  -7 33308.6 640.112  15 
   3  -3  -7 34239.4 683.764  25 
  -3   3  -7 34903.6 652.310  24 
   3   3  -7 33639.0 605.370  24 
   3  -3  -7 34780.9 689.684  24 
  -3   3  -7 34328.9 599.205  14 
  -3   3   7 30406.5 628.102  10 
  -3  -3  -7 32147.0 635.251   9 
   3  -3  -7 31911.2 1239.92   1 
   3  -3   7 33114.7 1143.59   4 
   3  -3  -7 31120.6 559.745  21 
  -3   3  -7 31718.9 623.320  13 
   3   3  -7 31748.4 647.864   8 
   3   3  -8 42616.9 876.072  20 
  -3   3  -8 43800.6 878.332   8 
  -3   3  -8 43259.6 769.422  26 
   3  -3  -8 48930.9 785.333  19 
   3   3   8 41356.5 1792.80   1 
   3  -3   8 45357.3 808.970   7 
  -3   3  -8 45073.5 824.481  17 
   3   3  -8 43323.4 729.338  17 
   3  -3   8 41747.0 1443.32   1 
  -3  -3  -8 43477.5 766.247  15 
  -3  -3  -8 42086.9 746.892  16 
   3   3   8 44230.7 887.295  10 
  -3   3   8 41598.4 783.704  10 
   3   3  -8 42347.5 811.304  26 
  -3   3  -8 48298.9 805.870  25 
   3   3  -8 44651.6 737.406  25 
   3  -3  -8 42069.0 750.914  15 
   3  -3  -8 43256.6 816.623  25 
   3  -3  -8 45189.6 831.518  16 
  -3   3  -8 45205.8 783.302  24 
   3   3  -8 44205.4 735.975  24 
   3  -3  -8 43679.9 818.898  24 
  -3   3  -8 43403.5 712.467  14 
  -3  -3  -8 42863.0 766.691   9 
   3  -3  -8 48235.4 1588.90   1 
   3  -3  -8 45577.8 714.705  21 
   3  -3   8 44506.2 1364.37   4 
   3   3   9 6781.50 349.992  10 
   3   3  -9 6778.72 351.484  20 
  -3   3  -9 6723.29 346.578   8 
   3  -3  -9 6885.41 287.940  19 
   3   3  -9 6847.66 329.092  26 
   3  -3   9 7242.73 323.960   7 
  -3   3  -9 6884.86 324.322  17 
   3   3  -9 7016.21 295.074  17 
   3   3  -9 7000.20 296.728  25 
  -3   3   9 7215.57 326.102  10 
   3  -3   9 6125.82 581.705   1 
  -3   3  -9 7023.18 295.680   6 
  -3  -3  -9 7719.91 320.209  16 
   3  -3  -9 6434.02 319.322  16 
  -3   3  -9 6622.48 303.502  25 
  -3  -3  -9 6791.49 304.250  15 
   3  -3  -9 6701.32 309.173  15 
   3  -3  -9 6407.73 317.594  25 
  -3   3  -9 6573.08 300.327  24 
   3  -3  -9 7124.93 334.154  24 
  -3   3  -9 7790.47 329.875  26 
  -3   3  -9 6886.77 285.470  14 
  -3  -3  -9 6954.98 309.525   9 
   3  -3  -9 7432.37 646.637   1 
   3   3  -9 7207.24 300.654  24 
   3  -3  -9 7187.57 282.084  21 
   3  -3 -10 1143.39 148.460  16 
   3   3 -10 1165.39 149.200  20 
  -3   3 -10 1989.45 195.062   8 
   3  -3 -10 1334.97 130.026  19 
  -3   3 -10 1141.20 131.076  26 
   3  -3  10 1319.39 143.674   7 
  -3   3 -10 1369.89 140.342  25 
  -3   3 -10 1385.85 154.567  17 
   3   3 -10 1270.41 131.283  17 
  -3  -3 -10 1637.57 156.867  16 
  -3   3 -10 1345.03 129.426   6 
  -3   3  10 1196.69 140.935  10 
   3   3 -10 1273.22 132.450  25 
   3  -3 -10 1129.97 146.194  25 
   3  -3 -10 1262.27 135.648  15 
  -3   3 -10 1502.87 147.112  24 
   3   3  10 1328.03 158.495  10 
   3  -3 -10 1087.42 145.170  24 
  -3   3 -10 1364.61 131.834  14 
   3   3 -10 1314.42 134.973  24 
  -3  -3 -10 1364.76 143.817   9 
  -3  -3 -10 1340.52 118.169  21 
   3  -3 -10 1083.50 116.406  21 
   3   3 -10 1237.71 150.447  26 
  -3  -3 -10 1453.82 149.593  15 
  -3   3 -11 3719.84 240.761  25 
   3   3 -11 3913.48 279.159  20 
   3   3  11 3692.14 277.661  10 
   3  -3  11 4395.52 272.019   7 
  -3   3 -11 3845.31 260.241  17 
   3   3 -11 3729.57 226.197  17 
  -3  -3 -11 3898.63 249.926  16 
  -3   3  11 3586.60 252.062  10 
   3   3 -11 3801.80 264.404  26 
  -3   3 -11 3765.69 225.206   6 
  -3   3 -11 4026.68 253.739  26 
   3   3 -11 3826.98 239.608  25 
   3  -3 -11 3054.35 256.614  25 
   3  -3 -11 3865.87 245.594  15 
   3  -3 -11 3780.07 262.155  16 
   3   3 -11 3665.59 236.004  24 
   3  -3 -11 3529.06 265.831  24 
  -3   3 -11 3923.27 230.258  14 
  -3   3 -11 3831.08 242.591  24 
  -3  -3 -11 3890.51 247.452   9 
  -3  -3 -11 4298.91 219.715  21 
   3  -3 -11 3955.42 226.306  21 
  -3  -3 -11 3980.68 249.395  15 
   3   3 -12 47686.2 968.331  26 
  -3   3 -12 47238.5 891.237  25 
  -3   3 -12 46627.3 840.034   6 
  -3   3 -12 47116.6 968.510  17 
  -3  -3 -12 47135.9 927.711  16 
   3  -3 -12 48160.0 980.917  16 
   3   3  12 47788.1 1043.08  10 
  -3   3  12 47362.4 947.813  10 
  -3   3 -12 48503.3 941.128  26 
   3  -3 -12 45105.2 875.945  15 
  -3   3 -12 46628.6 837.852  14 
  -3  -3 -12 45731.9 898.585  15 
   3  -3 -12 43185.9 941.605  25 
   3   3 -12 46090.0 878.490  24 
   3  -3 -12 42651.2 932.018  24 
  -3   3 -12 47898.7 897.104  24 
   3   3 -12 44367.2 767.452  14 
   3   3 -12 45245.4 869.566  25 
  -3  -3 -12 44052.9 886.150   9 
  -3  -3 -12 43925.0 766.834  21 
   3  -3 -12 46801.7 836.243  21 
   3  -3  12 45338.4 916.180  12 
   3  -3  13 30.1084 40.9553  12 
  -3   3 -13-0.29945 57.8428  17 
  -3   3 -13 2.49375 41.8803  16 
   3   3 -13-8.89518 44.9623  26 
  -3   3 -13 19.5412 43.4677  26 
  -3  -3 -13-44.7533 53.2409  16 
  -3   3 -13 22.1281 35.5310  25 
   3   3 -13-10.3231 48.4889  25 
  -3  -3 -13 6.64152 42.4155  15 
   3  -3 -13 45.8722 37.0996  15 
   3   3  13 77.1793 68.0764  10 
  -3   3  13 35.9353 44.8830  10 
  -3   3 -13 53.2191 52.2984  24 
  -3   3 -13-29.4248 42.1339   6 
   3   3 -13 12.6913 38.8071  24 
   3  -3 -13 13.2549 40.5667  24 
   3  -3 -13-6.31543 37.7544  25 
  -3   3 -13 41.3483 39.9015  14 
   3   3 -13-4.92829 34.0307  14 
   3  -3 -13 26.1980 48.3459  16 
  -3  -3 -13-24.2819 40.3134   9 
  -3  -3 -13-0.79904 36.0006  21 
   3  -3 -13-23.7285 33.8195  21 
   3  -3  14 6764.56 332.613  12 
  -3   3 -14 6989.28 364.215  17 
  -3   3 -14 7144.39 329.884  16 
   3   3  14 6641.75 376.710  10 
  -3   3  14 6490.13 333.413  10 
   3  -3 -14 6399.07 363.015  16 
   3   3 -14 6664.25 358.268  26 
  -3   3 -14 6421.04 333.319  26 
  -3   3 -14 6548.27 297.853  14 
   3   3 -14 6621.72 325.651  25 
  -3  -3 -14 5904.86 315.430  15 
  -3   3 -14 6778.10 301.392   6 
   3  -3 -14 5632.84 296.921  15 
  -3  -3 -14 6674.07 339.464  16 
  -3   3 -14 6795.56 320.418  24 
   3   3 -14 6443.89 321.714  24 
   3  -3 -14 6048.44 320.359  22 
  -3  -3 -14 6689.40 329.576   9 
  -3   3 -14 6474.42 283.332  21 
  -3  -3 -14 6415.00 277.889  21 
   3  -3 -14 6156.27 298.463  21 
  -3   3 -14 6824.30 322.449  25 
   3  -3  15 524.380 96.6191  12 
  -3   3 -15 598.909 113.081  17 
  -3   3 -15 584.478 94.0236  16 
   3   3 -15 555.251 103.791  26 
  -3   3 -15 640.740 103.163  26 
  -3  -3 -15 454.441 88.2567  16 
   3  -3 -15 448.261 106.727  16 
  -3   3 -15 536.566 88.8377  25 
   3   3 -15 441.378 88.8308  25 
  -3  -3 -15 489.774 90.2714  15 
   3  -3 -15 336.950 71.8770  15 
   3   3  15 469.283 98.1813  10 
  -3   3  15 549.468 98.6304  10 
  -3   3 -15 508.517 94.1170  24 
   3   3 -15 497.976 97.3188  24 
  -3   3 -15 500.359 82.2679   6 
  -3   3 -15 520.483 85.7107  14 
   3  -3 -15 519.401 95.4566  22 
  -3   3 -15 500.774 76.0894  21 
  -3  -3 -15 452.362 73.3533  21 
   3  -3 -15 458.264 83.8527  21 
   3  -3  16 4714.58 244.807  12 
  -3   3 -16 5140.86 254.459  25 
  -3   3 -16 5625.03 295.561  17 
   3   3 -16 5021.24 261.709  24 
  -3   3 -16 5221.16 258.163  16 
   3  -3 -16 4729.64 282.394  16 
   3   3 -16 4948.26 285.393  26 
  -3   3 -16 4529.42 261.726  26 
  -3  -3 -16 5198.00 274.413  16 
   3  -3 -16 5221.64 264.629  22 
  -3   3 -16 4871.67 247.705  24 
   3   3 -16 4844.01 257.024  25 
  -3  -3 -16 4801.41 257.159  15 
   3  -3 -16 4342.02 238.789  15 
  -3   3 -16 5165.54 240.420  14 
  -3  -3 -16 4782.91 217.265  21 
   3  -3 -16 4971.01 249.657  21 
   3   3  16 5146.67 294.058  10 
   3   3  17-1.82223 32.9120  10 
  -3  -3 -17 3.77942 33.0354  16 
  -3   3 -17 99.1904 41.3064  16 
   3  -3 -17 17.8206 39.6118  11 
  -3   3 -17 93.3497 50.8978  17 
   3   3 -17-2.79549 33.9684  26 
   3  -3 -17 2.73761 31.8919  16 
  -3   3 -17-23.7982 34.8636  25 
   3   3 -17 17.6111 33.6294  25 
  -3  -3 -17 8.82261 28.1052  15 
  -3   3 -17 32.4496 31.7035  24 
   3   3 -17-44.6606 42.2644  24 
  -3   3 -17 31.4544 29.8980  14 
   3  -3 -17 53.1682 39.3999  22 
   3  -3 -17-16.9592 27.2684  21 
  -3   3 -18 1051.42 107.485  17 
   3   3  18 1137.28 113.559  10 
   3   3 -18 1008.47 97.9562  25 
   3   3 -18 961.408 95.7421  24 
  -3  -3 -18 900.350 94.6688  16 
   4  -3   0 257417. 3213.43   1 
  -4   3   0 257424. 2784.32   2 
   4  -3   0 274602. 2046.29  19 
   4   3   0 283969. 2270.91  12 
   4   3   0 272203. 2434.36  18 
   4   3   0 276527. 3383.91   3 
  -4   3   0 238289. 2718.26   3 
   4  -3   0 266185. 2035.65  11 
   4   3   0 274408. 3367.65   2 
   4  -3   0 282329. 2768.57   5 
   4  -3   0 263261. 2025.62  22 
  -4   3   0 271670. 2123.19  13 
   4   3   0 271231. 2153.73  10 
   4  -3  -1 56194.5 751.817  22 
   4  -3   1 50578.6 1323.60   1 
   4  -3  -1 55068.4 749.844  19 
   4  -3   1 54912.2 737.994  19 
   4   3   1 54835.8 849.165  12 
   4   3  -1 54525.4 846.735  12 
   4   3   1 50821.2 917.748  18 
   4   3  -1 52027.9 930.846  18 
  -4   3   1 57864.4 1207.48   3 
  -4   3  -1 55199.9 786.602  13 
   4   3  -1 50607.2 1345.06   3 
   4  -3  -1 51165.3 724.283  11 
   4   3   1 58198.8 1544.77   1 
  -4   3  -1 50644.3 1111.43   3 
   4   3   1 48155.7 869.580  27 
  -4   3   1 48172.5 1098.61   2 
   4   3  -1 48864.8 1308.24   2 
   4   3   1 52552.4 800.773  10 
   4   3  -1 53159.4 786.057  10 
  -4   3  -1 54121.1 1153.47   2 
  -4   3   1 52232.5 784.800  13 
   4  -3  -1 52119.8 1138.75   5 
   4  -3   1 50536.2 975.743   5 
  -4  -3   1 52116.1 1060.85   1 
  -4   3  -1 50373.3 794.959   8 
   4  -3  -1 47661.6 1300.28   1 
   4  -3  -2 34244.4 589.140  19 
   4  -3   2 35782.3 1142.37   1 
   4  -3   2 39692.2 609.316  19 
   4   3   2 34712.0 679.909  12 
  -4   3  -2 33939.2 610.360  13 
   4   3   2 35589.4 1263.44   1 
   4   3   2 35248.0 761.350  18 
   4   3  -2 36314.2 775.270  18 
   4  -3  -2 33703.7 580.219  11 
   4   3  -2 35180.0 1150.68   3 
  -4   3  -2 31561.9 899.971   3 
   4   3   2 37562.2 777.116  27 
   4   3   2 37126.3 672.539  10 
   4   3  -2 34981.7 1141.17   2 
   4   3  -2 35539.7 632.543  10 
  -4   3  -2 39865.5 1014.98   2 
   4  -3  -2 35829.7 993.673   5 
   4   3   2 36473.6 764.701  23 
   4  -3  -2 34150.9 567.000  15 
   4  -3   2 41617.0 832.753   5 
   4  -3  -2 37178.1 601.813  22 
  -4   3   2 35671.4 648.410  13 
  -4  -3   2 37976.8 814.937   1 
   4  -3  -2 41658.6 1240.79   1 
  -4   3  -2 35094.0 663.242   8 
   4  -3  -3 93734.5 1066.26  19 
   4  -3   3 93980.9 1028.12  19 
   4   3   3 94355.7 1180.73  12 
   4  -3   3 93502.0 1927.68   1 
   4   3   3 95145.8 2188.63   1 
   4   3   3 97381.0 1326.36  18 
   4   3  -3 99916.1 1349.18  18 
   4  -3  -3 104505. 1104.46  11 
   4   3  -3 94585.4 1927.94   3 
   4  -3   3 95996.3 1092.04  11 
  -4   3  -3 106977. 1769.72   3 
   4   3   3 96523.4 1174.22  10 
   4   3  -3 95548.0 1946.67   2 
   4   3  -3 99579.2 1130.61  10 
   4  -3  -3 92596.7 1037.08  15 
  -4   3  -3 101442. 1740.88   2 
   4  -3   3 96067.8 1046.70  23 
   4  -3   3 91621.5 1074.40  22 
   4  -3  -3 89358.7 1692.75   5 
   4   3   3 96513.2 1351.18  23 
   4  -3  -3 95865.1 1067.70  22 
  -4   3  -3 92598.2 1083.69  13 
   4  -3  -3 102162. 2030.57   1 
  -4   3  -3 107594. 1245.81   8 
  -4   3  -4 1121.72 123.832   8 
   4   3  -4 1099.52 121.793  20 
   4  -3  -4 1153.15 110.983  19 
   4  -3   4 1334.55 109.173  19 
   4   3  -4 981.588 204.468   3 
   4   3   4 1326.99 131.084  12 
   4   3   4 1194.92 138.989  18 
   4   3  -4 1222.45 142.121  18 
  -4   3  -4 1211.38 120.453  17 
   4  -3   4 1101.64 111.250  11 
   4   3   4 1197.63 251.311   1 
   4   3  -4 1213.42 114.058  26 
   4   3   4 1207.77 127.903  10 
   4  -3  -4 1114.06 216.108   1 
   4  -3   4 1070.55 109.409  22 
   4  -3  -4 1120.43 104.434  15 
   4   3  -4 1217.07 119.602  10 
  -4   3  -4 1151.41 99.5434  14 
   4  -3   4 1192.54 106.492  23 
   4   3  -4 1147.31 218.597   2 
   4   3   4 1183.90 151.074  23 
   4  -3  -4 968.322 99.8607  22 
   4  -3  -4 1124.59 198.892   5 
  -4   3  -4 1233.95 115.290  13 
   4  -3   4 1136.78 220.229   1 
   4  -3  -4 1003.21 94.8080  21 
   4  -3  -5 1071.97 223.595   1 
  -4   3  -5 934.000 117.603   8 
   4   3  -5 909.163 116.834  20 
   4  -3  -5 999.969 106.430  19 
   4  -3   5 1067.34 101.560  19 
   4   3   5 1013.29 131.144  18 
   4   3   5 832.698 106.113  12 
   4   3   5 917.708 238.411   1 
   4   3  -5 916.435 125.858  18 
  -4   3  -5 916.146 108.105  17 
   4   3  -5 1029.47 91.0152  25 
   4   3  -5 870.588 103.706  26 
  -4   3  -5 1003.75 99.8574  26 
   4   3  -5 848.323 188.264   3 
   4  -3  -5 998.845 103.095  15 
   4   3  -5 980.955 111.466  10 
  -4   3  -5 942.460 95.5350  14 
   4   3   5 948.422 114.478  10 
   4   3  -5 884.046 84.8837  24 
  -4  -3  -5 970.811 107.700   9 
   4   3  -5 892.298 201.690   2 
   4   3   5 1039.69 137.690  23 
   4  -3  -5 878.518 97.5710  22 
   4  -3  -5 888.400 185.055   5 
   4  -3   5 835.981 103.299  22 
  -4   3  -5 1056.37 108.845  13 
   4  -3  -5 928.390 92.5863  21 
   4  -3   5 1003.15 219.448   1 
   4   3  -6 25103.6 636.722  20 
  -4   3  -6 26934.1 655.212   8 
   4   3  -6 26884.8 509.996  25 
   4   3   6 27170.6 1345.76   1 
   4  -3  -6 26100.7 549.603  19 
   4  -3   6 24111.9 494.848  19 
   4   3   6 26289.5 601.882  12 
  -4   3  -6 28810.2 562.620  26 
   4  -3   6 23135.0 571.524   7 
   4   3   6 25932.5 665.929  18 
   4   3  -6 25415.5 663.429  18 
  -4  -3  -6 26766.9 574.824   9 
   4  -3   6 24790.8 1083.99   1 
  -4   3  -6 25194.1 577.176  17 
   4   3  -6 26416.1 1141.15   3 
   4   3  -6 26005.6 581.532  26 
   4   3   6 24178.3 607.495  10 
   4  -3  -6 24634.8 585.075  16 
   4  -3  -6 27952.2 571.741  15 
   4   3  -6 26410.8 506.018  24 
  -4   3  -6 25925.0 526.637  14 
   4   3  -6 26782.4 1162.60   2 
   4  -3  -6 28132.0 1069.78   5 
   4  -3  -6 27701.0 574.639  22 
   4  -3   6 24889.4 581.433  22 
   4  -3  -6 25432.4 1085.14   1 
   4  -3   6 26322.5 1047.02   4 
  -4   3  -6 25581.6 548.911  13 
   4  -3  -6 24972.4 504.806  21 
   4   3  -7 25077.7 654.965  20 
  -4   3  -7 25524.0 662.776   8 
   4   3   7 24115.3 1338.03   1 
   4  -3  -7 24459.8 545.157  19 
   4   3  -7 26384.9 613.462  26 
   4  -3   7 25983.9 615.364   7 
   4   3  -7 24461.1 653.146  18 
  -4   3  -7 25601.8 601.316  17 
   4  -3   7 24753.1 1111.43   1 
   4   3   7 24957.4 604.455  12 
  -4  -3  -7 23592.9 524.330  16 
   4  -3  -7 23417.7 599.801  16 
   4   3  -7 26147.4 530.415  25 
   4  -3  -7 23725.6 549.344  15 
   4   3   7 25826.9 649.168  10 
  -4   3  -7 24915.2 547.908  26 
   4   3  -7 26452.6 533.844  24 
  -4   3  -7 25370.4 537.023  14 
   4  -3  -7 25743.9 1082.48   5 
  -4  -3  -7 23024.7 549.242   9 
   4  -3  -7 25677.8 579.503  22 
   4  -3  -7 25240.3 1122.45   1 
  -4   3  -7 25687.9 560.231  13 
   4  -3  -7 23259.5 506.371  21 
   4  -3   7 24738.3 1040.21   4 
   4   3  -8 129.653 67.8173  20 
  -4   3  -8 135.352 48.4990  24 
   4  -3   8 117.360 101.622   4 
   4  -3  -8 198.536 58.6995  19 
  -4   3  -8 146.555 57.7013   8 
   4  -3   8 14.0165 86.3396   1 
   4   3   8 141.000 152.823   1 
   4  -3   8 93.3006 42.6892   7 
  -4   3  -8 80.9343 44.9902  17 
   4   3  -8 120.188 51.4163  26 
   4  -3  -8 91.8197 102.100   1 
  -4   3  -8 174.807 56.0204  26 
  -4  -3  -8 171.101 53.8827  16 
   4   3  -8 104.957 41.9557  24 
  -4  -3  -8 153.300 57.7944  15 
   4  -3  -8 53.7024 49.6459  25 
   4  -3  -8 173.638 54.6761  15 
   4   3   8 205.594 77.6743  10 
   4  -3  -8 82.1762 51.8484  24 
  -4   3  -8 158.815 53.7280  25 
  -4   3  -8 103.524 39.6682  14 
   4  -3  -8 59.5584 89.6944   5 
   4  -3  -8 96.1400 41.0440  22 
   4  -3  -8 130.600 52.3175  16 
  -4  -3  -8 68.1779 44.5204   9 
   4   3  -8 113.219 37.8397  25 
   4  -3  -8 89.2553 37.5956  21 
  -4   3  -8 85.8840 35.9104  13 
   4   3  -9 1073.19 145.896  20 
   4  -3  -9 915.225 109.201  19 
  -4   3  -9 960.263 141.509   8 
   4   3  -9 1010.02 112.141  24 
   4  -3   9 1104.43 131.072   7 
  -4   3  -9 1003.40 128.965  17 
  -4   3  -9 1060.03 117.617   6 
  -4  -3  -9 950.222 117.330  16 
   4   3  -9 1122.80 137.458  26 
  -4   3  -9 940.551 116.190  26 
   4  -3  -9 868.666 123.411  16 
  -4   3  -9 883.112 115.372  25 
   4   3  -9 957.304 109.372  25 
   4  -3  -9 1025.64 124.341  15 
  -4  -3  -9 930.542 115.549  15 
   4  -3  -9 922.027 129.216  25 
  -4   3  -9 1021.78 124.301  24 
   4   3   9 1013.13 142.175  10 
  -4   3  -9 982.619 110.498  14 
   4  -3  -9 908.233 130.515  24 
   4  -3  -9 1041.51 124.625  22 
  -4  -3  -9 585.637 96.0950   9 
   4  -3  -9 993.043 110.088  21 
   4  -3 -10 59782.7 1058.10  16 
   4   3 -10 55800.8 1062.66  20 
  -4   3 -10 60959.5 1139.29   8 
   4  -3 -10 54769.6 857.137  19 
   4  -3 -10 54191.1 939.358  15 
   4  -3  10 59448.9 1027.94   7 
  -4   3 -10 60144.7 1055.71  17 
  -4   3 -10 57783.7 940.915   6 
  -4  -3 -10 62134.3 980.777  16 
   4   3  10 57170.5 1104.72  10 
  -4   3 -10 60766.4 982.783  25 
   4   3 -10 57009.9 923.504  25 
   4  -3 -10 56846.1 1036.06  25 
  -4  -3 -10 55903.5 965.699  15 
  -4   3 -10 54950.6 940.516  24 
   4   3 -10 56950.6 925.118  24 
   4  -3 -10 55584.5 1027.61  24 
  -4   3 -10 55930.9 951.146  26 
  -4   3 -10 56449.8 910.295  14 
   4  -3 -10 54283.5 955.355  22 
  -4  -3 -10 53195.7 947.918   9 
   4   3 -10 57872.5 1032.23  26 
   4  -3 -10 56965.6 908.406  21 
   4  -3  11 81438.1 1264.00  12 
   4   3 -11 81045.7 1315.49  20 
  -4   3 -11 84753.5 1200.46  24 
  -4   3 -11 82533.1 1167.74   6 
  -4   3 -11 84791.1 1234.32  26 
   4   3 -11 82635.0 1171.10  25 
   4  -3  11 93073.1 1356.02   7 
  -4   3 -11 81827.6 1294.11  17 
   4  -3 -11 81381.4 1196.57  15 
  -4  -3 -11 76025.4 1176.63  15 
  -4  -3 -11 80358.2 1185.33  16 
   4   3  11 83575.4 1387.03  10 
   4  -3 -11 83786.0 1316.86  16 
   4   3 -11 83873.8 1289.77  26 
   4  -3 -11 81725.9 1294.52  25 
  -4   3 -11 78147.4 1163.71  25 
   4   3 -11 83441.2 1177.06  24 
   4  -3 -11 80691.7 1289.71  24 
  -4   3 -11 80931.9 1144.95  14 
   4  -3 -11 91261.6 1284.02  22 
  -4  -3 -11 80504.8 1220.50   9 
  -4  -3 -11 77565.6 1022.72  21 
   4  -3 -11 82309.9 1149.26  21 
   4  -3  12 28859.3 730.810  12 
   4   3  12 28981.9 808.367  10 
   4  -3 -12 27993.4 748.442  16 
   4  -3  12 29330.6 706.780   7 
  -4   3 -12 29223.2 762.378  17 
  -4   3 -12 28524.4 674.607  24 
  -4  -3 -12 30927.5 725.033  16 
   4   3 -12 29144.5 749.193  26 
  -4   3 -12 28962.4 666.378   6 
  -4  -3 -12 28903.9 707.451  15 
  -4   3 -12 28586.1 675.026  25 
   4  -3 -12 28434.5 749.802  25 
   4  -3 -12 30346.8 708.283  15 
  -4   3 -12 29867.9 716.236  26 
   4   3 -12 28765.8 679.721  24 
   4  -3 -12 28516.4 753.876  24 
  -4   3 -12 28601.8 658.368  14 
   4  -3 -12 28631.4 706.067  22 
  -4  -3 -12 32415.5 636.593  21 
  -4  -3 -12 29001.4 709.243   9 
   4   3 -12 28660.7 678.811  25 
   4  -3 -12 29816.3 673.197  21 
   4  -3  13 25036.6 670.573  12 
   4   3  13 26024.8 755.774  10 
  -4   3 -13 23790.6 679.989  17 
   4   3 -13 23666.8 675.067  26 
  -4   3 -13 24848.9 630.001  24 
  -4   3 -13 24574.7 636.689  16 
  -4  -3 -13 25452.9 662.897  16 
   4  -3 -13 25385.3 714.109  16 
  -4   3 -13 24060.9 643.332  26 
  -4   3 -13 24013.2 599.670   6 
   4  -3 -13 24030.9 647.878  22 
  -4   3 -13 24214.5 620.702  25 
  -4  -3 -13 21260.1 609.537  15 
   4   3 -13 23392.8 615.578  25 
   4  -3 -13 22546.6 600.627  15 
   4   3 -13 23423.1 616.403  24 
  -4   3 -13 24108.0 602.150  14 
  -4  -3 -13 24781.6 652.627   9 
  -4  -3 -13 22722.6 533.797  21 
   4  -3 -13 24332.1 612.596  21 
   4  -3  14 3801.90 254.150  12 
  -4  -3 -14 4057.78 258.122  16 
  -4   3 -14 3896.55 239.931  25 
  -4   3 -14 4100.63 279.637  17 
  -4   3 -14 3903.31 243.349  16 
   4   3  14 4053.64 288.101  10 
   4  -3 -14 3508.23 265.103  16 
   4   3 -14 3868.05 265.541  26 
  -4   3 -14 4126.97 236.771   6 
  -4  -3 -14 3647.10 243.521  15 
   4   3 -14 3970.40 245.777  25 
   4  -3 -14 3761.63 239.930  15 
  -4   3 -14 3883.44 240.537  24 
   4   3 -14 4150.03 253.476  24 
  -4   3 -14 3762.81 245.401  26 
  -4  -3 -14 4032.61 253.627   9 
   4  -3 -14 4208.63 260.587  22 
  -4  -3 -14 3980.16 213.273  21 
   4  -3 -14 4045.35 239.374  21 
  -4   3 -14 4078.90 234.096  14 
  -4   3 -15 68.9693 48.5944  16 
   4  -3  15 101.301 44.8043  12 
  -4   3 -15 134.956 65.8265  17 
  -4   3 -15 101.285 52.1296  24 
   4   3 -15 226.994 66.0745  26 
  -4   3 -15 144.652 59.8666  26 
  -4  -3 -15 107.273 52.1623  16 
   4  -3 -15 35.1624 40.9503  16 
  -4   3 -15 119.001 54.2599  25 
   4   3 -15 35.6926 38.6465  25 
   4  -3 -15 128.781 55.2298  15 
   4   3  15 107.942 62.8577  10 
  -4  -3 -15 157.926 60.2220  15 
   4   3 -15 129.725 54.5644  24 
  -4   3 -15 109.417 45.2834   6 
  -4   3 -15 125.552 51.0932  14 
   4  -3 -15 143.925 61.6935  22 
  -4   3 -15 115.797 44.3743  21 
  -4  -3 -15 133.639 44.1989  21 
   4  -3 -15 138.990 59.4958  21 
   4  -3  16 353.137 66.9957  12 
   4  -3 -16 463.854 78.1604  11 
  -4   3 -16 568.370 97.6026  17 
   4  -3 -16 538.085 84.9746  22 
  -4   3 -16 473.025 79.0961  16 
   4   3 -16 446.447 87.0003  26 
  -4   3 -16 538.497 79.2501  25 
   4   3 -16 427.836 76.5067  25 
  -4  -3 -16 490.215 82.7655  15 
   4   3  16 470.608 87.9588  10 
  -4   3 -16 479.760 75.3129  24 
   4   3 -16 428.975 78.8184  24 
  -4   3 -16 462.800 72.5852   6 
  -4   3 -16 558.905 79.1134  14 
  -4  -3 -16 493.606 84.4309  16 
  -4   3 -16 501.502 72.4123  21 
   4  -3 -16 461.333 79.3633  21 
  -4  -3 -17 64.0292 40.7155  16 
  -4   3 -17 77.4842 40.8636  16 
   4  -3 -17 38.6290 30.6636  11 
  -4   3 -17 19.1776 32.1141  17 
   4   3 -17 76.0070 39.7605  26 
  -4   3 -17 24.5969 28.8659  25 
   4   3 -17 79.2045 38.8944  25 
  -4  -3 -17 18.4486 26.2162  15 
   4   3  17-19.2792 42.3438  10 
  -4   3 -17 41.6426 30.8776  24 
   4   3 -17 24.6726 35.0218  24 
  -4   3 -17 102.599 34.5137  14 
   4  -3 -17 31.6201 35.9729  22 
   4  -3 -17 14.4490 26.3111  21 
  -4   3 -18 99.9077 41.9236  17 
   4   3  18 71.8084 28.3041  10 
  -5   3   0 11.6630 25.9593   8 
   5  -3   0-2.28660 24.3067  19 
   5   3   0 27.0394 42.2339  12 
   5   3   0-3.98105 31.1489  18 
   5  -3   0 36.9244 27.0028  11 
   5   3   0 36.9280 56.6317   3 
   5   3   0 7.24970 63.9489   1 
  -5   3   0 8.66656 42.6937   3 
   5   3   0 7.04868 75.2319   2 
   5   3   0 29.9604 29.5933  10 
   5  -3   0 64.1140 66.7838   1 
  -5   3   0-4.22246 54.5530   2 
   5   3   0 36.3762 45.9416  27 
   5  -3   0 82.3832 55.1702   5 
   5  -3   0 54.2945 28.0288  22 
  -5   3   0-1.34875 33.3362  13 
   5  -3  -1 48118.4 1349.09   1 
   5   3   1 49871.1 922.638  23 
   5  -3   1 53524.7 1478.14   1 
   5  -3  -1 53905.8 773.266  19 
   5  -3   1 52796.4 760.519  19 
   5   3  -1 52136.7 902.435  27 
   5   3   1 58775.4 927.695  12 
   5   3  -1 57025.8 905.349  12 
   5   3   1 52610.0 974.512  18 
   5   3  -1 49806.7 957.664  18 
   5   3   1 54114.8 1521.92   1 
  -5   3   1 43599.1 989.623   3 
   5   3  -1 51681.7 1412.16   3 
   5  -3  -1 47695.3 748.168  11 
   5  -3   1 49447.8 763.074  11 
  -5   3  -1 53434.3 1092.12   3 
   5   3   1 47951.5 912.843  27 
  -5   3   1 45421.9 1004.53   2 
   5   3   1 52235.8 820.104  10 
   5   3  -1 50024.3 1383.76   2 
   5   3  -1 51547.7 794.147  10 
  -5   3  -1 54885.8 1110.63   2 
   5  -3  -1 49448.1 1165.61   5 
   5  -3   1 49176.0 1089.31   5 
   5  -3   1 48241.9 751.140  22 
  -5   3   1 53862.9 812.981  13 
  -5   3  -1 51648.4 781.757  13 
  -5  -3   1 52556.5 1042.49   1 
   5  -3  -1 50402.7 734.818  21 
   5  -3  -1 48516.3 749.711  22 
  -5   3  -1 53777.3 831.894   8 
   5  -3  -2 15985.3 415.861  22 
   5  -3  -2 15489.7 781.392   1 
   5  -3  -2 15426.4 402.074  19 
   5  -3   2 15254.6 394.711  19 
   5  -3   2 14861.0 788.199   1 
   5   3   2 14530.0 450.063  12 
   5   3   2 16132.4 860.195   1 
   5   3   2 16033.4 527.641  18 
   5   3  -2 15237.3 518.300  18 
  -5   3   2 15111.3 584.265   3 
   5  -3  -2 14962.4 405.612  11 
   5   3  -2 14689.5 751.790   3 
   5  -3   2 16918.9 436.992  11 
  -5   3  -2 14792.1 591.726   3 
   5   3  -2 14858.1 459.942  27 
   5   3   2 16261.1 527.473  27 
  -5   3   2 15016.7 578.968   2 
   5   3   2 15303.7 434.761  10 
   5   3  -2 14635.6 751.430   2 
   5   3  -2 15119.3 416.856  10 
  -5   3  -2 15550.8 415.359  13 
  -5   3  -2 14295.7 591.429   2 
   5  -3   2 17149.2 428.458  23 
   5  -3  -2 14650.4 661.367   5 
   5   3   2 15010.9 501.570  23 
  -5   3   2 15178.2 429.130  13 
   5  -3   2 14126.0 540.570   5 
   5  -3   2 15944.6 425.628  22 
   5  -3  -2 15634.8 384.589  21 
  -5   3  -2 14679.8 432.517   8 
  -5   3  -3 17759.6 493.535   8 
   5  -3  -3 16319.0 421.690  19 
   5  -3   3 19630.1 451.012  19 
   5   3   3 17662.1 950.752   1 
   5   3   3 17907.0 510.674  12 
   5  -3   3 16962.6 854.686   1 
   5   3   3 18324.2 570.368  18 
   5   3  -3 17988.2 568.636  18 
   5  -3   3 18716.7 473.422  22 
   5  -3  -3 17849.4 449.086  11 
   5  -3   3 17665.4 459.870  11 
   5   3  -3 16553.7 815.991   3 
   5   3   3 16996.6 561.232  27 
   5   3   3 17376.9 479.008  10 
   5   3  -3 17543.5 455.425  10 
   5   3  -3 16556.0 823.824   2 
  -5   3  -3 18250.3 427.482  14 
   5  -3   3 16505.0 427.333  23 
   5  -3  -3 18142.1 773.448   5 
   5   3   3 17007.9 560.283  23 
   5  -3  -3 17132.9 439.415  22 
  -5   3   3 16561.7 461.834  13 
  -5   3  -3 17212.1 438.099  13 
   5  -3  -3 17283.7 409.972  21 
   5  -3  -3 17032.8 829.793   1 
  -5   3  -4 2971.01 204.710   8 
   5   3  -4 2910.82 183.840  26 
   5   3   4 3320.43 431.763   1 
   5  -3  -4 3445.03 195.800  19 
   5  -3   4 3002.45 175.363  19 
   5   3   4 2967.35 209.284  12 
   5  -3   4 2850.77 199.475   7 
   5  -3   4 3099.36 380.068   1 
   5   3   4 4198.54 269.449  18 
   5   3  -4 3047.16 235.166  18 
   5  -3  -4 3030.41 184.516  11 
  -5   3  -4 2727.74 183.632  17 
   5  -3   4 2992.90 195.237  11 
   5   3  -4 3048.47 369.729   3 
   5   3   4 3144.04 247.653  27 
   5   3   4 3003.64 204.024  10 
   5  -3  -4 3277.81 187.823  15 
   5   3  -4 3270.73 196.429  10 
   5   3  -4 3269.71 388.724   2 
  -5   3  -4 3220.17 177.883  14 
   5  -3   4 3015.95 180.795  23 
   5  -3  -4 2811.53 317.959   5 
   5   3   4 2854.43 232.441  23 
   5  -3  -4 2953.35 183.118  22 
  -5   3  -4 3315.01 189.894  13 
   5  -3  -4 3135.05 177.352  21 
   5  -3   4 3230.26 202.802  22 
   5  -3  -4 2976.28 361.144   1 
   5   3  -5 6352.25 316.100  20 
  -5   3  -5 6318.07 308.731   8 
   5   3   5 6498.66 643.680   1 
   5  -3  -5 6641.72 272.760  19 
   5  -3   5 6605.30 264.801  19 
   5   3   5 6390.51 307.156  12 
   5  -3   5 6352.37 297.844   7 
   5   3   5 6964.00 354.362  18 
   5   3  -5 6483.21 339.200  18 
   5  -3   5 6536.95 566.307   1 
   5  -3  -5 6888.65 285.239  11 
  -5   3  -5 7172.04 298.573  17 
   5   3  -5 6670.73 570.613   3 
   5   3  -5 6254.07 279.385  26 
   5   3   5 6417.55 303.981  10 
   5  -3  -5 6635.49 275.773  15 
   5   3  -5 6489.17 293.024  10 
  -5   3  -5 6227.34 262.614  14 
   5   3  -5 6361.92 562.840   2 
   5   3   5 6503.73 371.449  23 
   5  -3   5 7100.71 283.614  23 
   5  -3  -5 6960.92 525.256   5 
   5  -3  -5 6570.83 278.668  22 
   5  -3   5 6813.35 303.511  22 
  -5   3  -5 6917.83 277.083  13 
   5  -3   5 6176.30 531.108   4 
   5  -3  -5 7209.77 270.100  21 
   5  -3  -5 6491.96 550.413   1 
   5   3  -6 4962.85 288.029  20 
  -5   3  -6 4662.76 277.611   8 
   5   3   6 5334.91 609.212   1 
   5  -3  -6 5016.40 244.833  19 
   5   3   6 4870.28 268.212  12 
   5  -3   6 4913.70 271.617   7 
   5   3   6 5739.67 324.874  18 
   5   3  -6 5020.48 303.657  18 
   5  -3   6 4654.83 509.649   1 
  -5   3  -6 5356.67 267.022  17 
   5   3   6 5379.65 288.957  10 
   5   3  -6 5059.53 257.633  26 
   5  -3  -6 4624.84 239.339  15 
   5   3  -6 5154.05 216.512  24 
  -5   3  -6 5017.07 238.865  14 
   5  -3  -6 4897.97 475.493   5 
  -5  -3  -6 6071.92 279.170   9 
   5   3   6 5264.07 342.040  23 
   5  -3  -6 5016.94 252.235  22 
   5   3  -6 5224.18 217.183  25 
   5  -3   6 5052.44 230.436  19 
   5  -3   6 4776.17 261.972  22 
  -5   3  -6 4970.97 239.619  13 
   5  -3   6 5221.44 491.687   4 
   5  -3  -6 5354.72 512.166   1 
   5  -3  -6 5446.24 243.951  21 
   5   3  -7 13718.2 492.385  20 
   5   3   7 12590.9 999.319   1 
  -5   3  -7 13651.2 494.455   8 
   5  -3  -7 13307.7 403.881  19 
   5   3   7 13410.4 462.698  12 
   5  -3   7 15261.2 410.954  19 
   5  -3   7 15057.3 486.906   7 
   5   3  -7 13663.7 501.537  18 
  -5   3  -7 14013.2 452.576  17 
   5  -3   7 12249.1 831.038   1 
   5   3  -7 13965.4 451.825  26 
   5   3   7 14348.6 488.721  10 
   5   3  -7 14073.3 382.403  25 
   5  -3  -7 15788.9 460.891  15 
   5   3  -7 14251.4 386.044  24 
  -5   3  -7 13665.6 411.188  14 
   5  -3  -7 13456.2 812.684   5 
   5   3   7 13838.0 583.916  23 
  -5  -3  -7 13388.5 431.719   9 
   5  -3  -7 12406.1 411.489  22 
   5  -3  -7 13387.6 831.595   1 
  -5   3  -7 13710.9 408.370  13 
   5  -3  -7 14934.0 419.781  21 
   5  -3   7 12354.6 789.032   4 
   5   3  -8 493.756 98.4254  20 
   5  -3  -8 356.564 70.3524  19 
  -5   3  -8 394.141 85.3304   8 
   5  -3   8 452.227 88.7705  12 
   5   3   8 374.704 80.7100  12 
  -5   3  -8 475.444 86.7550  17 
   5  -3   8 496.005 95.2099   7 
   5  -3  -8 179.483 140.395   1 
   5   3  -8 414.114 78.5937  26 
   5  -3  -8 362.927 88.6667  16 
  -5   3  -8 383.463 73.2145  25 
   5   3  -8 481.154 77.7711  25 
   5   3   8 423.201 85.6681  10 
  -5   3  -8 419.320 71.5094  24 
   5   3  -8 435.288 74.8349  24 
  -5   3  -8 461.720 84.6097  14 
   5  -3  -8 314.661 72.5301  15 
   5  -3  -8 479.862 87.8886  22 
  -5  -3  -8 393.555 83.8864   9 
   5  -3  -8 386.859 73.1658  21 
  -5  -3  -9 24587.4 617.798  15 
   5   3  -9 25464.6 693.762  20 
  -5   3  -9 24924.1 717.976   8 
   5  -3  -9 24862.9 616.108  15 
   5  -3  -9 23481.2 550.568  19 
   5   3   9 28098.7 689.820  12 
   5   3   9 27298.1 732.173  10 
   5  -3   9 25716.6 679.143   7 
  -5   3  -9 25984.9 662.892  17 
  -5  -3  -9 27359.3 606.090  16 
   5   3  -9 25835.3 659.612  26 
   5  -3  -9 24683.2 667.709  16 
  -5   3  -9 29008.4 648.976  25 
  -5   3  -9 26482.6 605.153  26 
   5   3  -9 26624.4 588.898  25 
   5   3  -9 26413.5 587.220  24 
  -5   3  -9 24981.3 590.592  14 
  -5  -3  -9 25623.6 632.166   9 
   5  -3  -9 25820.9 634.667  22 
  -5   3  -9 22573.8 578.229  24 
   5  -3  -9 24287.4 583.722  21 
   5  -3   9 27685.9 690.118  12 
   5  -3  10 86073.9 1313.45  12 
  -5  -3 -10 90580.4 1279.01  15 
   5   3 -10 89850.6 1375.44  20 
   5   3  10 87493.4 1407.95  10 
  -5   3 -10 88948.1 1227.02  25 
   5  -3  10 90477.2 1357.50   7 
  -5   3 -10 87991.9 1326.53  17 
   5   3 -10 91201.1 1203.83  25 
  -5   3 -10 88150.3 1204.05  26 
  -5   3 -10 93206.2 1266.38   6 
  -5  -3 -10 85739.3 1182.27  16 
   5   3 -10 91324.0 1321.72  26 
   5  -3 -10 91469.2 1353.78  16 
  -5   3 -10 92001.1 1244.15  24 
   5   3 -10 91636.6 1205.97  24 
  -5   3 -10 89611.3 1215.07  14 
  -5  -3 -10 93075.1 1298.18   9 
   5  -3 -10 92162.8 1290.99  22 
   5  -3 -10 93083.8 1232.56  21 
   5  -3  11 106248. 1497.84  12 
   5   3 -11 115003. 1530.42  26 
   5   3 -11 111666. 1554.64  20 
  -5   3 -11 107997. 1395.17  26 
   5   3  11 107410. 1602.52  10 
  -5   3 -11 115315. 1426.05  24 
   5  -3  11 126211. 1621.57   7 
  -5   3 -11 106264. 1514.82  17 
  -5  -3 -11 105374. 1365.22  16 
  -5   3 -11 110761. 1416.90   6 
  -5   3 -11 107894. 1390.47  25 
  -5  -3 -11 116163. 1491.36  15 
   5   3 -11 114015. 1395.81  25 
   5  -3 -11 109234. 1419.11  15 
   5   3 -11 114425. 1398.90  24 
  -5   3 -11 112741. 1398.75  14 
   5  -3 -11 113516. 1553.28  16 
   5  -3 -11 111557. 1467.66  22 
  -5  -3 -11 116231. 1494.22   9 
   5  -3 -11 115975. 1426.04  21 
   5  -3  12 47044.1 956.392  12 
   5   3 -12 47189.1 950.298  26 
   5  -3 -12 44782.4 951.223  16 
  -5   3 -12 44807.0 850.261  24 
   5  -3  12 46288.9 919.685   7 
  -5   3 -12 48846.4 987.081  17 
  -5  -3 -12 51158.6 962.125  15 
  -5  -3 -12 44253.5 891.914   9 
  -5  -3 -12 45397.2 868.584  16 
   5   3  12 48318.9 1042.38  10 
  -5   3 -12 45003.0 853.826  25 
  -5   3 -12 44161.0 856.083  26 
   5   3 -12 47169.4 868.516  25 
   5  -3 -12 46550.6 891.970  15 
   5   3 -12 46090.7 861.658  24 
  -5   3 -12 46219.4 856.483  14 
  -5   3 -12 45073.5 862.158   6 
   5  -3 -12 50495.1 952.347  22 
  -5  -3 -12 48384.0 783.926  21 
   5  -3 -12 43984.8 850.224  21 
   5   3 -13 33630.7 731.536  24 
   5  -3  13 34136.8 796.073  12 
   5  -3 -13 33671.4 826.140  16 
  -5   3 -13 34979.9 728.220  25 
  -5   3 -13 32805.1 798.930  17 
  -5   3 -13 33553.9 750.593  16 
   5   3 -13 33233.0 723.632  25 
  -5   3 -13 33783.8 718.293  14 
   5  -3 -13 34556.1 740.031  21 
  -5   3 -13 32252.6 715.554  26 
  -5   3 -13 33606.8 725.168   6 
  -5  -3 -13 31229.2 742.812  15 
  -5  -3 -13 34746.5 746.400  16 
   5  -3 -13 34125.4 749.047  15 
   5   3  13 35099.5 869.044  10 
  -5   3 -13 36206.1 741.811  24 
   5   3 -13 33200.4 788.065  26 
   5  -3 -13 33748.3 762.217  22 
  -5  -3 -13 33701.0 759.253   9 
  -5  -3 -13 35677.5 658.298  21 
   5  -3  14 1303.12 148.900  12 
  -5  -3 -14 1189.32 134.920  16 
  -5   3 -14 1217.06 128.005  24 
   5  -3 -14 1259.52 146.310  11 
  -5   3 -14 1120.40 124.445  25 
  -5   3 -14 1266.77 159.810  17 
  -5   3 -14 1227.97 136.412  16 
   5  -3 -14 1034.16 144.188  16 
   5   3 -14 1170.82 148.506  26 
  -5   3 -14 1099.21 125.346  26 
  -5   3 -14 1204.78 131.507   6 
  -5  -3 -14 1275.91 142.385  15 
   5   3 -14 1104.11 129.317  25 
   5   3  14 1297.01 162.030  10 
   5   3 -14 1129.39 127.546  24 
  -5   3 -14 1178.73 130.742  14 
  -5  -3 -14 1250.95 139.901   9 
   5  -3 -14 1183.71 139.779  22 
   5  -3 -14 1239.46 134.849  21 
  -5   3 -15 193.176 57.6587  25 
   5  -3  15 254.148 67.9824  12 
   5  -3 -15 135.825 55.4658  11 
  -5   3 -15 157.244 61.6795  17 
  -5   3 -15 222.886 61.6352  16 
   5   3 -15 167.045 61.3339  26 
   5   3 -15 225.082 67.1508  25 
  -5  -3 -15 177.570 58.9744  15 
   5   3  15 194.836 63.7762  10 
  -5   3 -15 203.714 50.9285  24 
   5   3 -15 158.013 56.8302  24 
  -5   3 -15 235.821 63.9650   6 
  -5   3 -15 178.258 51.6989  14 
   5  -3 -15 239.525 69.3498  22 
  -5   3 -15 184.342 49.5003  21 
   5  -3 -15 208.991 65.8857  21 
  -5  -3 -15 191.909 57.3546  16 
  -5  -3 -16 4629.29 231.118  16 
   5  -3  16 4267.22 226.850  12 
   5  -3 -16 4885.75 242.465  11 
  -5   3 -16 4974.73 268.692  17 
   5   3 -16 4537.85 231.914  25 
  -5   3 -16 4913.62 241.276  16 
   5   3 -16 4437.96 246.004  26 
  -5   3 -16 4523.71 212.997  25 
  -5  -3 -16 4679.93 241.715  15 
  -5   3 -16 4684.97 218.215   6 
  -5   3 -16 4317.51 208.603  24 
   5   3 -16 4706.96 237.536  24 
  -5   3 -16 4668.95 219.540  14 
   5   3  16 4852.00 267.138  10 
   5  -3 -16 4464.96 228.666  22 
  -5   3 -16 4191.42 190.135  21 
   5  -3 -16 4654.38 232.759  21 
   5  -3 -17 473.558 74.1088  11 
  -5   3 -17 564.796 85.7688  17 
  -5   3 -17 575.539 73.9901  16 
   5   3 -17 564.632 77.9431  25 
  -5  -3 -17 525.033 74.9825  15 
   5   3  17 501.216 79.2821  10 
   5   3 -17 565.085 77.2663  24 
  -5   3 -17 520.821 66.4588  14 
   5  -3 -17 416.698 66.5504  22 
   5  -3 -17 391.286 63.1205  21 
  -6   3   0 27645.1 584.373   8 
   6  -3   0 25754.3 552.069  19 
   6  -3   0 24435.4 1059.74   1 
   6   3   0 29299.4 683.134  12 
   6   3   0 25936.2 705.255  18 
   6   3   0 24645.7 989.775   3 
   6  -3   0 31055.1 623.013  11 
   6   3   0 28970.2 714.417  27 
   6   3   0 24761.1 976.655   2 
   6   3   0 25765.1 651.216  23 
   6   3   0 26334.2 574.296  10 
   6  -3   0 26065.5 576.074  23 
   6  -3   0 24256.9 858.469   5 
  -6   3   0 27997.9 588.100  13 
   6  -3   0 27471.9 581.372  22 
   6  -3   0 26393.2 572.396  21 
   6  -3  -1 81.2522 38.8158  21 
   6  -3   1 141.237 49.6737  21 
   6   3   1 103.191 108.247   1 
  -6   3  -1 149.697 55.6279   8 
   6  -3  -1 87.5104 42.2925  19 
   6  -3   1 342.399 68.2388  19 
   6  -3   1 145.890 45.3412  12 
   6   3   1 66.8879 38.4465  12 
   6   3  -1 78.7576 44.0454  12 
   6   3   1 69.6306 48.7511  18 
   6   3  -1 88.5377 53.5084  18 
   6  -3   1 110.561 45.5367   7 
   6  -3  -1 111.236 41.2138  11 
   6  -3   1 102.564 45.7690  11 
   6   3   1 1510.93 242.062   3 
   6   3  -1 69.8486 83.9490   3 
   6   3  -1 90.8211 52.6146  27 
   6   3   1 66.1290 49.5228  27 
   6   3   1 1408.13 234.424   2 
   6   3   1 118.332 44.8940  10 
   6   3  -1 171.043 113.265   2 
   6   3  -1 97.8466 37.6866  10 
   6  -3  -1 86.4477 78.7738   1 
   6  -3   1 106.808 39.0722  23 
   6   3   1 149.787 70.7003  23 
   6  -3   1 50.8644 81.6120   1 
   6  -3  -1 78.4934 35.0102  22 
   6  -3  -1 170.894 96.7323   5 
   6  -3   1 108.143 46.2892  22 
   6  -3   1-2.61841 56.0468   5 
  -6   3   1 140.294 50.1024  13 
  -6   3  -1 97.4511 41.9074  13 
   6  -3  -2 282.028 60.5495  21 
  -6   3  -2 383.949 76.1801   8 
   6  -3  -2 333.262 67.1104  19 
   6  -3   2 503.232 77.4378  19 
   6  -3   2 358.975 67.1644  12 
   6   3   2 303.775 69.4333  12 
   6   3  -2 326.726 75.9289  12 
   6   3   2 362.955 91.5924  18 
   6   3  -2 443.181 94.4763  18 
   6  -3   2 382.180 78.4525   7 
   6  -3  -2 328.486 61.6039  11 
   6  -3   2 249.716 58.3381  11 
   6   3  -2 305.201 117.273   3 
   6   3  -2 336.383 84.2902  27 
   6   3   2 387.072 98.1754  27 
   6   3   2 380.094 156.339   1 
   6   3   2 317.586 66.5618  10 
   6  -3  -2 295.388 113.253   1 
   6   3  -2 342.630 69.7243  10 
   6   3  -2 217.200 111.573   2 
   6  -3   2 284.476 65.0269  23 
   6   3   2 294.465 82.4802  23 
   6  -3   2 196.153 127.858   1 
   6  -3  -2 348.249 110.313   5 
   6  -3  -2 364.614 71.2815  22 
   6  -3   2 287.186 57.9413  22 
  -6   3   2 339.055 66.0234  13 
  -6   3  -2 350.301 63.3049  13 
   6  -3  -3 631.018 86.0486  21 
  -6   3  -3 593.502 95.7741   8 
   6  -3  -3 653.243 88.7526  19 
   6  -3   3 579.208 83.0325  19 
   6  -3   3 662.586 89.4993  12 
   6   3   3 616.138 104.995  12 
   6   3   3 577.096 112.368  18 
   6   3  -3 644.695 117.205  18 
   6   3   3 613.671 197.400   1 
   6  -3   3 570.769 93.0635   7 
  -6   3  -3 536.135 94.4624  17 
   6  -3  -3 733.961 95.7989  11 
   6  -3   3 673.124 97.7244  11 
   6   3  -3 605.362 100.020  27 
   6   3   3 530.755 106.157  27 
   6   3  -3 581.614 166.697   3 
   6   3  -3 580.996 84.4276  26 
   6  -3  -3 438.965 155.651   1 
   6   3   3 638.192 95.0658  10 
   6   3  -3 593.056 88.3864  10 
   6   3  -3 600.337 177.817   2 
   6  -3   3 697.334 93.8208  23 
   6   3   3 594.401 112.744  23 
   6  -3  -3 602.467 147.591   5 
   6  -3  -3 621.692 87.8463  22 
   6  -3   3 682.222 99.8538  22 
  -6   3   3 627.851 93.6100  13 
   6  -3   3 545.550 186.672   1 
  -6   3  -3 622.034 84.5963  13 
   6  -3  -4 20456.2 958.746   1 
  -6   3  -4 23799.5 602.831   8 
   6   3   4 22703.8 694.324  27 
   6   3   4 24562.2 639.967  12 
   6   3   4 23336.2 1200.52   1 
   6  -3  -4 23014.0 530.258  19 
   6  -3   4 24266.6 538.175  19 
   6   3  -4 23776.5 556.272  10 
   6  -3   4 22624.5 574.238   7 
   6   3   4 21067.1 646.644  18 
   6   3  -4 23263.8 681.725  18 
   6  -3   4 22790.5 1096.03   1 
   6  -3  -4 22970.0 548.258  11 
  -6   3  -4 23215.6 545.675  17 
   6  -3   4 23168.0 583.562  11 
   6   3  -4 23508.6 1051.40   3 
   6   3  -4 21911.6 582.727  27 
   6   3  -4 23268.3 537.402  26 
   6   3   4 23287.4 590.293  10 
  -6   3  -4 23472.8 530.312  14 
   6   3  -4 24089.6 1072.64   2 
   6  -3   4 23011.7 534.491  23 
   6   3   4 21994.9 698.769  23 
   6  -3  -4 24104.7 557.932  22 
   6  -3   4 23442.3 585.235  22 
   6  -3  -4 22028.7 938.208   5 
  -6   3  -4 23177.7 524.877  13 
   6  -3   4 21550.7 1023.55   4 
   6  -3  -4 24642.5 537.252  21 
   6  -3   4 23609.5 558.387  12 
   6  -3  -5 380.988 73.3127  21 
   6   3  -5 424.537 86.3041  20 
   6  -3   5 355.330 165.185   1 
   6  -3   5 409.181 158.971   4 
  -6   3  -5 488.003 91.6227   8 
   6  -3  -5 662.999 89.8721  19 
   6  -3   5 368.323 65.5708  19 
   6  -3   5 528.221 84.2100  12 
   6   3   5 514.739 223.835   1 
   6   3   5 482.569 92.7213  12 
   6   3  -5 377.284 161.941   2 
   6   3   5 415.893 93.2403  18 
   6   3  -5 409.942 94.7636  18 
   6  -3   5 420.689 89.3354   7 
  -6   3  -5 441.838 79.7375  17 
   6  -3  -5 573.058 93.7095  11 
   6   3  -5 380.736 165.363   3 
   6   3  -5 355.802 71.3207  26 
   6  -3  -5 424.089 156.651   1 
   6   3   5 469.727 85.2742  10 
  -6   3  -5 400.552 75.7586  14 
   6  -3   5 424.810 75.9203  23 
   6   3   5 460.437 101.140  23 
   6  -3  -5 643.134 174.308   5 
   6  -3  -5 460.334 85.6321  22 
   6  -3   5 493.746 94.5663  22 
  -6   3  -5 493.344 78.6906  13 
   6  -3   6 14652.4 465.281  12 
   6   3  -6 14289.2 501.599  20 
   6   3   6 13364.2 1015.56   1 
  -6   3  -6 13795.0 502.974   8 
   6  -3  -6 14554.5 430.130  19 
   6   3   6 15794.9 518.746  12 
   6  -3   6 14606.6 420.525  19 
   6   3   6 15281.8 550.305  18 
   6   3  -6 14578.0 538.498  18 
   6  -3   6 13532.9 469.306   7 
   6  -3  -6 14995.4 456.814  11 
  -6   3  -6 15567.1 465.171  17 
   6  -3   6 13882.9 904.277   1 
   6   3  -6 14361.9 445.068  26 
   6   3   6 15262.3 501.354  10 
  -6   3  -6 15087.6 440.968  14 
   6  -3   6 13866.3 427.908  23 
   6  -3  -6 14056.1 818.929   5 
   6   3   6 13351.3 568.172  23 
   6  -3  -6 14329.1 447.203  22 
   6  -3   6 12542.0 459.770  22 
  -6   3  -6 13260.1 402.082  13 
   6  -3  -6 14837.2 428.355  21 
   6  -3   6 13022.4 836.796   4 
   6  -3  -6 12844.1 785.472   1 
   6   3  -7 232.189 76.1572  20 
   6  -3  -7 64.4759 46.4524  19 
  -6   3  -7 97.8123 49.8539   8 
   6  -3   7 69.6274 36.9779  19 
   6  -3   7 83.6700 40.6722  12 
   6   3   7 95.9753 47.5937  12 
   6   3   7 58.1068 48.5773  18 
   6   3  -7 104.730 63.6859  18 
   6  -3  -7 105.476 53.4042  11 
  -6   3  -7 95.3722 39.5196  17 
   6  -3   7 61.0837 42.5558   7 
   6   3  -7 73.1318 46.3410  26 
   6  -3  -7 35.5924 107.662   1 
   6   3   7 125.758 50.7197  10 
  -6   3  -7 124.794 49.6400  14 
   6   3   7 42.7382 72.3017  23 
  -6  -3  -7 74.1567 42.6139   9 
   6  -3  -7 123.894 53.2078  22 
  -6   3  -7 72.7757 38.3750  13 
   6  -3  -7 39.7974 31.7031  21 
   6   3  -8 28.0606 38.5922  20 
   6  -3  -8 72.4269 35.1850  19 
  -6   3  -8 84.9613 72.4360   8 
   6  -3   8 98.9036 54.6080  12 
   6   3   8 73.0484 52.9980  12 
   6  -3  -8 88.8275 60.8651  11 
  -6   3  -8 101.716 53.2828  17 
   6  -3   8 53.1478 43.8316   7 
   6   3  -8 158.257 68.1641  26 
   6   3  -8 63.9584 27.9506  25 
   6   3   8 105.356 56.3850  10 
  -6   3  -8 11.4855 34.4860  24 
   6   3  -8 72.3750 38.5225  24 
  -6   3  -8 84.5211 46.6376  14 
   6  -3  -8 46.9848 41.0211  22 
   6   3   8 74.9700 73.6001  23 
   6  -3  -8 125.089 55.3017  15 
  -6  -3  -8 88.3982 44.9872   9 
  -6   3  -8 61.7652 39.9809  25 
   6  -3  -8 57.2914 42.4142  21 
   6  -3   9 32433.5 768.255  12 
   6   3  -9 32602.3 794.815  20 
   6  -3  -9 32966.6 660.582  19 
   6   3   9 30109.0 747.090  12 
   6  -3  -9 34125.7 757.755  11 
   6  -3   9 36500.6 849.115   7 
  -6   3  -9 34908.2 788.651  17 
   6   3  -9 32816.0 743.039  26 
   6   3   9 34389.1 826.278  10 
  -6   3  -9 32545.4 695.087  25 
   6   3  -9 33081.1 661.773  25 
   6  -3  -9 34901.0 748.831  15 
   6   3  -9 32982.2 659.576  24 
  -6   3  -9 32830.4 703.979  14 
  -6  -3  -9 32560.2 737.564   9 
   6  -3  -9 32771.0 743.935  22 
  -6   3  -9 34721.6 719.846  24 
   6  -3  -9 34210.9 720.820  21 
   6  -3  10 41535.3 893.285  12 
   6   3 -10 42567.4 917.048  20 
   6   3  10 39546.1 860.231  12 
   6   3 -10 44449.7 793.389  25 
   6  -3 -10 44118.4 880.775  11 
   6  -3  10 45863.8 966.491   7 
  -6   3 -10 43516.5 905.200  17 
  -6   3 -10 41664.8 844.770   6 
   6   3  10 44486.8 970.145  10 
   6   3 -10 43521.3 876.574  26 
  -6   3 -10 43327.1 817.496  25 
  -6  -3 -10 43454.9 869.353  15 
  -6   3 -10 41911.7 807.675  24 
   6   3 -10 44386.9 794.741  24 
  -6   3 -10 42376.2 824.185  14 
  -6  -3 -10 42522.1 861.989   9 
   6  -3 -10 43748.8 878.619  22 
   6  -3 -10 43800.5 839.920  21 
   6  -3  11 112060. 1549.75  12 
   6   3 -11 106635. 1491.85  20 
   6  -3 -11 105343. 1435.13  11 
   6  -3  11 105608. 1506.21   7 
  -6   3 -11 108075. 1519.57  17 
  -6   3 -11 110795. 1433.43   6 
   6   3 -11 108050. 1461.27  26 
   6   3  11 112199. 1612.57  10 
   6   3 -11 111035. 1353.32  25 
  -6   3 -11 112426. 1381.57  24 
   6   3 -11 110585. 1355.93  24 
  -6   3 -11 108558. 1394.01  14 
  -6  -3 -11 104581. 1436.92  15 
  -6  -3 -11 115655. 1494.76   9 
   6  -3 -11 110649. 1472.05  22 
  -6   3 -11 114179. 1401.36  25 
   6  -3 -11 108832. 1407.85  21 
  -6   3 -12 5824.12 286.913  25 
   6  -3  12 5185.09 308.850  12 
  -6   3 -12 5511.98 296.405   6 
  -6  -3 -12 5685.22 283.038  16 
   6  -3 -12 6060.79 319.027  11 
  -6   3 -12 5587.39 323.735  17 
   6  -3  12 5569.17 313.250   7 
   6   3 -12 5630.59 307.833  26 
   6   3 -12 5585.05 284.389  25 
   6   3 -12 5678.68 288.850  24 
  -6   3 -12 5755.56 293.544  14 
   6  -3 -12 6199.64 324.007  22 
  -6   3 -12 6051.34 293.492  24 
  -6  -3 -12 5581.45 306.831   9 
   6  -3 -12 6100.04 307.265  21 
  -6  -3 -12 5639.73 308.079  15 
   6   3  12 5820.46 345.026  10 
   6  -3  13 30561.4 744.304  12 
   6  -3 -13 33108.7 743.175  11 
  -6   3 -13 30273.1 755.252  17 
  -6   3 -13 30816.7 712.635  16 
  -6  -3 -13 31198.2 674.407  16 
   6   3 -13 30826.6 733.426  26 
  -6   3 -13 32128.6 708.401   6 
  -6   3 -13 31929.5 669.613  25 
  -6  -3 -13 33987.1 753.387  15 
   6   3 -13 32202.3 694.566  25 
  -6   3 -13 32023.2 671.770  24 
   6   3 -13 31630.1 689.606  24 
  -6   3 -13 30959.9 684.541  14 
   6   3  13 31194.8 796.257  10 
   6  -3 -13 29883.3 706.675  22 
  -6  -3 -13 32554.9 732.749   9 
   6  -3 -13 31659.7 706.669  21 
   6  -3  14 8856.09 377.213  12 
   6   3  14 9045.47 403.091  10 
   6  -3 -14 8808.63 362.156  11 
  -6   3 -14 8779.87 385.706  17 
  -6   3 -14 8948.59 361.380  16 
  -6  -3 -14 8135.11 324.591  16 
  -6   3 -14 8882.34 345.206  14 
   6   3 -14 8479.86 364.638  26 
  -6   3 -14 8880.78 329.180  25 
  -6  -3 -14 8902.30 365.538  15 
   6   3 -14 8677.16 343.019  25 
  -6   3 -14 8406.46 321.374  24 
   6   3 -14 8786.51 344.983  24 
   6  -3 -14 8191.92 349.250  22 
  -6  -3 -14 8255.57 345.614   9 
  -6   3 -14 8621.83 341.725   6 
   6  -3 -14 9204.19 361.004  21 
  -6  -3 -15 261.679 63.1793  15 
   6  -3  15 372.500 76.5233  12 
   6  -3 -15 384.971 80.1103  11 
  -6   3 -15 236.217 60.1232  17 
  -6   3 -15 287.118 70.9210  16 
   6   3 -15 240.648 65.2813  26 
  -6   3 -15 222.784 59.0020  25 
   6   3 -15 304.840 70.4336  25 
   6   3  15 300.642 73.1028  10 
  -6   3 -15 242.175 53.4631  24 
   6   3 -15 265.104 64.5376  24 
  -6   3 -15 303.510 64.0847   6 
  -6   3 -15 299.610 62.9348  14 
   6  -3 -15 287.516 61.7006  22 
  -6  -3 -15 388.286 75.7745   9 
   6  -3 -15 221.934 58.3627  21 
   6  -3  16 10985.4 352.755  12 
   6  -3 -16 11037.5 346.666  11 
  -6   3 -16 11876.6 395.974  17 
  -6   3 -16 11458.5 355.628  16 
   6   3  16 11666.8 393.673  10 
   6   3 -16 10482.7 348.712  26 
   6   3 -16 11144.9 341.971  25 
  -6  -3 -16 11296.8 353.478  15 
  -6   3 -16 11622.9 335.839   6 
   6   3 -16 10879.7 338.312  24 
  -6   3 -16 11850.3 339.809  14 
   6  -3 -16 10953.9 343.217  22 
   6  -3 -16 10460.3 336.619  21 
  -6   3 -17 3458.33 191.332  17 
  -6   3 -17 3615.01 175.112  16 
   6   3  17 3327.15 184.622  10 
  -6  -3 -17 3556.09 173.144  15 
   7  -3   0 20.9748 36.9881  21 
   7  -3   0-15.9433 40.5883  19 
   7   3   0 14.2946 29.3083  12 
   7   3   0 39.2067 61.5660  18 
   7  -3   0 32.5654 39.4721  23 
   7  -3   0 7.27842 37.0141   7 
   7  -3   0 31.8532 39.0949  11 
   7   3   0 70.2080 100.773   3 
   7   3   0-30.0103 48.2232  27 
   7   3   0-1.35051 89.2513   2 
   7   3   0 54.0142 41.9939  10 
   7   3   0 20.4694 45.6414  23 
   7  -3   0 10.2306 75.8905   1 
   7  -3   0 39.2741 29.7697  22 
   7  -3   0-20.8395 62.4051   5 
  -7   3   0 5.42650 27.3280  13 
   7  -3   1 8315.65 305.301  12 
  -7   3  -1 8201.39 330.392   8 
   7  -3  -1 7910.90 317.430  19 
   7  -3   1 9096.71 339.810  19 
   7  -3  -1 8002.21 643.544   1 
   7   3   1 8089.18 379.333  12 
   7   3  -1 7958.47 368.034  12 
   7  -3   1 8004.44 652.555   1 
   7  -3  -1 7808.72 319.235   7 
   7  -3   1 8103.66 332.046   7 
   7   3   1 8412.35 426.491  18 
   7   3  -1 7969.03 410.784  18 
   7   3   1 7644.38 571.072   3 
   7  -3  -1 8894.01 348.224  23 
   7  -3   1 8447.73 348.426  23 
   7  -3  -1 7753.20 323.300  11 
   7   3  -1 7781.10 563.946   3 
   7  -3   1 8006.44 339.185  11 
   7   3  -1 7898.59 383.896  27 
   7   3   1 7626.07 390.020  27 
   7   3   1 7188.98 546.692   2 
   7   3   1 8100.71 328.094  10 
   7   3  -1 8007.43 322.412  10 
   7   3  -1 7533.83 559.258   2 
   7   3   1 8405.28 393.920  23 
   7  -3  -1 7386.32 529.789   5 
   7  -3  -1 8381.12 338.382  22 
   7  -3   1 8348.25 349.643  22 
  -7   3   1 8662.61 334.320  13 
  -7   3  -1 8608.11 322.574  13 
   7  -3   1 9477.96 692.338   4 
   7  -3  -1 8013.75 327.108  21 
   7  -3   2 1309.06 122.378  12 
  -7   3  -2 1361.63 137.240   8 
   7  -3  -2 1224.85 128.767  19 
   7  -3   2 1317.48 131.372  19 
   7  -3   2 1074.83 259.692   4 
   7   3   2 1259.00 153.644  12 
   7   3  -2 1128.35 139.619  12 
   7  -3  -2 1010.94 115.710   7 
   7  -3   2 1321.89 138.582   7 
   7   3   2 1222.65 162.033  18 
   7   3  -2 1095.14 156.150  18 
  -7   3  -2 1168.95 125.185  17 
   7  -3  -2 1230.86 132.150  11 
   7  -3   2 1188.07 133.242  11 
   7   3   2 1312.58 249.880   3 
   7   3  -2 1348.70 164.137  27 
   7   3  -2 1225.80 231.322   3 
   7   3   2 1183.66 160.273  27 
   7   3   2 1289.21 131.320  10 
   7   3  -2 1159.72 125.266  10 
   7  -3  -2 1229.13 130.706  22 
   7   3   2 1440.95 247.731   2 
   7  -3  -2 1244.56 133.048  23 
   7  -3   2 1243.54 134.986  23 
   7   3  -2 1235.94 240.299   2 
   7  -3  -2 1197.39 262.345   1 
   7   3   2 1284.16 159.238  23 
  -7   3   2 1400.36 138.312  13 
  -7   3  -2 1213.55 120.575  13 
   7  -3   2 1100.46 131.769  22 
   7  -3  -2 1085.39 212.146   5 
   7  -3   2 1106.82 257.014   1 
   7  -3  -2 1106.94 124.350  21 
   7  -3   3 1405.42 137.066  12 
  -7   3  -3 1521.71 149.707   8 
   7  -3  -3 1347.95 129.917  19 
   7  -3   3 1304.73 133.787  19 
   7   3   3 1253.73 151.572  12 
   7  -3   3 1265.11 268.018   4 
   7   3   3 1388.24 174.182  18 
   7   3  -3 1366.97 172.903  18 
  -7   3  -3 1129.51 126.147  17 
   7  -3  -3 1327.39 138.920  11 
   7  -3   3 1198.98 139.321  11 
   7   3   3 1220.20 267.289   1 
   7  -3  -3 1150.88 125.475  22 
   7   3  -3 1336.22 154.838  27 
   7   3   3 1431.56 181.812  27 
   7   3  -3 1269.83 124.886  26 
   7   3   3 1214.21 131.674  10 
   7   3  -3 1153.79 126.742  10 
   7   3  -3 1263.57 241.288   3 
   7  -3   3 1417.29 143.915  23 
   7   3  -3 1107.07 229.213   2 
   7  -3  -3 1341.71 265.741   1 
   7   3   3 1217.01 162.104  23 
  -7   3   3 1296.45 136.837  13 
   7  -3   3 1254.61 142.330  22 
   7  -3  -3 1211.39 222.070   5 
  -7   3  -3 1346.74 127.144  13 
   7  -3  -3 1393.40 132.451  21 
   7  -3   3 1248.14 278.300   1 
   7  -3   4 14551.4 454.790  12 
  -7   3  -4 13326.1 472.958   8 
   7  -3  -4 12046.4 758.647   1 
   7   3   4 13938.8 960.322   1 
   7  -3  -4 14836.2 443.731  19 
   7  -3   4 14091.7 432.298  19 
   7   3   4 14209.5 514.509  12 
   7   3   4 13843.4 544.631  18 
   7   3  -4 14093.2 553.001  18 
   7  -3   4 13741.1 463.198   7 
   7  -3   4 13059.9 886.181   1 
   7  -3  -4 14375.0 458.434  11 
  -7   3  -4 13483.4 420.588  17 
   7  -3  -4 13711.3 445.609  22 
   7  -3   4 14146.7 482.142  11 
   7   3  -4 12890.3 785.985   3 
   7   3  -4 14703.6 507.303  27 
   7   3   4 13756.1 560.018  27 
   7   3  -4 13699.9 412.709  26 
   7   3   4 14103.5 459.082  10 
  -7   3  -4 14167.8 433.127  14 
   7   3  -4 14590.4 445.443  10 
   7   3  -4 13327.8 808.203   2 
   7  -3   4 13899.4 440.481  23 
   7   3   4 14731.4 582.473  23 
   7  -3  -4 12387.1 749.613   5 
  -7   3   4 14469.0 469.587  13 
   7  -3   4 13715.1 480.853  22 
  -7   3  -4 14454.7 414.498  13 
   7  -3   4 14484.2 888.822   4 
   7  -3  -4 14080.9 433.131  21 
   7  -3   5 3470.51 228.510  12 
   7   3  -5 3157.65 238.405  20 
  -7   3  -5 3253.36 237.305   8 
   7  -3  -5 3590.68 218.696  19 
   7   3   5 3202.59 240.731  12 
   7  -3   5 3384.27 210.352  19 
   7   3   5 3199.32 492.318   1 
   7   3   5 3665.55 275.433  18 
   7   3  -5 3263.74 264.148  18 
   7  -3   5 3446.58 235.389   7 
   7  -3  -5 3683.29 231.468  11 
  -7   3  -5 3471.39 216.243  17 
   7  -3  -5 3296.50 223.359  22 
   7   3   5 2586.01 252.486  27 
   7   3  -5 3167.10 205.535  26 
   7   3   5 3128.09 223.960  10 
  -7   3  -5 3431.07 213.610  14 
   7  -3  -5 2378.62 355.334   1 
   7  -3   5 3289.80 219.081  23 
   7   3   5 3280.82 280.372  23 
   7  -3   5 3413.07 245.543  22 
  -7   3  -5 3058.27 192.050  13 
   7  -3  -5 3179.08 201.497  21 
   7  -3   6 2859.74 212.831  12 
   7   3  -6 3083.19 239.548  20 
  -7   3  -6 3088.50 239.973   8 
   7  -3  -6 3122.28 204.261  19 
   7   3   6 2929.66 240.174  12 
   7  -3   6 3096.16 202.538  19 
   7   3   6 2957.92 251.477  18 
   7   3  -6 3063.28 256.858  18 
   7  -3   6 3144.37 235.101   7 
   7  -3  -6 3004.80 213.766  11 
  -7   3  -6 2985.46 209.312  17 
   7   3   6 2842.43 219.900  10 
   7   3  -6 2940.46 201.281  26 
  -7   3  -6 3038.92 201.888  14 
   7  -3   6 3387.51 223.805  23 
   7   3   6 2910.42 271.649  23 
   7  -3  -6 2978.64 212.146  22 
   7  -3   6 3043.09 233.514  22 
  -7   3  -6 2930.19 186.364  13 
   7  -3  -6 3133.77 207.188  21 
   7  -3   7 2107.68 186.559  12 
   7   3  -7 1701.85 183.588  20 
  -7   3  -7 1970.71 196.884   8 
   7  -3  -7 2160.98 170.135  19 
   7   3   7 1979.69 200.749  12 
   7  -3   7 1503.07 145.325  19 
   7   3   7 1861.09 201.147  18 
   7   3  -7 1969.47 208.189  18 
   7  -3   7 1953.26 190.292   7 
   7  -3  -7 2026.16 179.714  11 
  -7   3  -7 1982.36 174.911  17 
   7   3  -7 1744.61 163.880  26 
   7   3   7 1974.09 187.389  10 
  -7   3  -7 1854.19 163.584  14 
   7  -3   7 1987.09 171.938  23 
  -7  -3  -7 1901.05 173.096   9 
   7   3   7 1908.39 225.619  23 
   7  -3  -7 1947.43 174.204  22 
  -7   3  -7 1937.36 154.258  13 
   7  -3  -7 1797.78 165.394  21 
   7   3  -8 732.863 120.585  20 
   7  -3  -8 621.355 94.6222  19 
   7  -3   8 721.538 113.459  12 
   7   3   8 819.700 134.209  12 
   7  -3  -8 695.981 113.534  11 
  -7   3  -8 859.309 119.027  17 
   7  -3   8 744.923 124.549   7 
   7   3  -8 759.407 108.869  26 
  -7   3  -8 729.948 103.275  25 
  -7   3  -8 703.427 99.9956  24 
   7   3   8 756.488 119.555  10 
  -7   3  -8 797.227 111.059  14 
   7   3   8 683.470 142.755  23 
   7  -3  -8 856.175 118.894  22 
  -7  -3  -8 736.292 108.212   9 
   7  -3  -8 747.954 113.934  21 
   7  -3   9 5126.72 310.799  12 
   7   3  -9 5485.81 321.298  20 
  -7   3  -9 5510.07 282.339  25 
   7  -3  -9 5700.55 273.622  19 
   7   3   9 4858.50 307.208  12 
   7  -3  -9 5747.50 315.038  11 
   7  -3   9 6492.86 366.679   7 
  -7   3  -9 5917.39 316.901  17 
   7  -3  -9 5395.86 304.281  22 
   7   3  -9 5603.07 294.860  26 
   7   3   9 5634.64 323.450  10 
  -7   3  -9 5036.71 270.201  24 
  -7   3  -9 5381.17 287.786  14 
  -7  -3  -9 5366.41 298.661   9 
   7  -3  -9 5378.87 292.709  21 
   7  -3  10 34427.8 818.197  12 
   7   3 -10 32552.6 782.516  20 
   7   3  10 31346.2 782.665  12 
   7  -3 -10 35613.6 799.670  11 
   7  -3  10 35901.6 853.587   7 
  -7   3 -10 35269.3 808.197  17 
  -7   3 -10 32700.5 702.376  24 
  -7   3 -10 32096.4 742.168   6 
   7   3  10 33113.8 819.666  10 
  -7  -3 -10 31563.1 743.398  15 
  -7   3 -10 35068.2 724.510  25 
   7   3 -10 33736.4 676.112  25 
   7   3 -10 33774.7 676.751  24 
  -7   3 -10 33639.5 735.313  14 
   7  -3 -10 33185.4 740.916  23 
   7   3 -10 33605.9 748.695  26 
  -7  -3 -10 33406.4 766.114   9 
   7  -3 -10 33578.2 773.040  22 
   7  -3 -10 33456.3 743.295  21 
   7  -3  11 57864.9 1089.92  12 
  -7   3 -11 67220.0 1000.02  24 
   7  -3 -11 57119.2 1038.61  11 
   7  -3  11 64489.7 1148.40   7 
  -7   3 -11 62259.0 1092.01  17 
  -7   3 -11 64189.9 1060.20   6 
   7   3 -11 63024.0 1050.07  26 
   7   3  11 62921.8 1145.05  10 
  -7  -3 -11 62967.8 1070.48  15 
  -7   3 -11 59298.1 949.304  25 
   7   3 -11 63001.4 963.745  25 
   7   3 -11 64088.1 973.348  24 
  -7   3 -11 62792.6 1022.72  14 
   7  -3 -11 55984.6 958.724  23 
  -7  -3 -11 63204.4 1070.12   9 
   7  -3 -11 63841.8 1080.03  22 
   7  -3 -11 63179.9 1047.58  21 
   7  -3  12-11.8756 52.7221  12 
   7  -3 -12 83.8715 58.8711  11 
  -7   3 -12 12.2306 45.9833  17 
   7  -3  12-12.3418 38.4123   7 
   7   3 -12 11.0100 38.0872  26 
  -7   3 -12-16.3530 34.3484  25 
   7   3 -12 31.3768 39.3766  25 
  -7  -3 -12-12.8324 50.0324  15 
  -7   3 -12-22.4609 44.7546   6 
   7   3  12 19.1730 51.7120  10 
  -7   3 -12-8.30226 31.5064  24 
   7   3 -12 9.78794 32.3568  24 
  -7   3 -12-9.01662 30.1705  14 
   7  -3 -12 91.1012 58.8088  22 
  -7  -3 -12 88.9719 60.0102   9 
   7  -3 -12-2.72637 39.3664  21 
   7  -3  13 15938.1 523.122  12 
   7  -3 -13 16924.8 516.439  11 
  -7   3 -13 16616.5 531.395  17 
  -7   3 -13 14558.1 471.098  16 
   7   3 -13 16132.3 497.237  26 
   7   3  13 17392.2 562.689  10 
  -7   3 -13 16924.7 499.790   6 
  -7  -3 -13 16916.3 509.017  15 
   7   3 -13 17113.0 474.298  25 
  -7   3 -13 15738.4 436.642  24 
   7   3 -13 16824.5 471.182  24 
  -7   3 -13 16324.2 480.211  14 
   7  -3 -13 16559.2 506.093  22 
  -7  -3 -13 16606.1 503.464   9 
   7  -3 -13 18524.5 529.971  21 
  -7   3 -13 16356.5 442.621  25 
  -7   3 -14 20590.1 469.465  24 
  -7  -3 -14 21141.6 546.116  15 
   7  -3  14 20799.7 566.096  12 
   7  -3 -14 23306.4 574.660  11 
  -7   3 -14 19740.6 459.671  25 
  -7   3 -14 21253.0 580.066  17 
  -7   3 -14 21747.5 553.182  16 
   7   3 -14 20424.4 533.127  26 
   7   3  14 21119.5 590.823  10 
  -7   3 -14 21066.5 530.014   6 
   7   3 -14 22026.0 523.617  25 
   7   3 -14 21951.3 523.301  24 
  -7   3 -14 22207.5 530.035  14 
   7  -3 -14 21034.1 542.055  22 
  -7  -3 -14 23070.9 558.367   9 
   7  -3 -14 21394.2 543.315  21 
   7  -3  15 8258.68 324.424  12 
   7   3  15 8771.11 346.458  10 
   7  -3 -15 8140.39 310.277  11 
  -7   3 -15 9106.00 352.364  17 
  -7   3 -15 9097.42 327.597  16 
  -7  -3 -15 8160.01 311.614  15 
   7   3 -15 8004.87 301.129  26 
   7   3 -15 8605.70 303.849  25 
  -7   3 -15 8882.60 312.359   6 
   7   3 -15 8439.69 300.139  24 
  -7   3 -15 8567.26 307.555  14 
   7  -3 -15 9066.12 323.901  22 
  -7  -3 -15 8847.46 311.758   9 
   7  -3 -15 8579.59 319.032  21 
   7  -3 -16 116.998 37.0674  21 
   7  -3  16 211.079 50.6668  12 
  -7  -3 -16 185.673 50.5121  15 
   7  -3 -16 219.959 50.9241  11 
  -7   3 -16 130.862 49.2447  17 
  -7   3 -16 190.913 50.5260  16 
   7   3  16 255.387 61.3563  10 
  -7   3 -16 217.403 46.6091   6 
  -7   3 -16 211.737 47.0556  14 
   7  -3 -16 158.095 47.8762  22 
  -7   3  16 168.874 49.8233  13 
   8  -3   0 10660.7 386.633  19 
   8   3   0 13311.5 505.579  12 
   8  -3   0 11413.2 815.216   1 
   8   3   0 12399.9 534.391  18 
   8  -3   0 14438.3 455.216   7 
   8  -3   0 14282.9 476.685  11 
   8   3   0 13097.3 530.601  27 
   8   3   0 12961.6 410.259  10 
   8  -3   0 14491.3 482.017  23 
   8   3   0 13665.2 511.927  23 
   8  -3   0 13852.7 467.875  22 
  -8   3   0 14728.9 438.786  13 
   8  -3   0 12327.5 829.256   4 
   8  -3   0 13106.7 451.652  21 
   8  -3   1 7304.49 299.271  12 
   8  -3  -1 7330.74 322.196  19 
   8  -3   1 6404.17 304.086  19 
   8   3   1 6536.80 354.186  12 
   8   3  -1 7112.54 368.827  12 
   8  -3  -1 6857.29 630.619   1 
   8   3   1 6462.36 391.712  18 
   8   3  -1 6735.58 393.305  18 
   8  -3  -1 7702.35 329.872   7 
   8  -3   1 8161.70 343.165   7 
   8  -3  -1 7748.21 347.220  11 
   8  -3   1 7733.73 353.266  11 
   8   3  -1 7902.17 402.670  27 
   8   3   1 7739.74 403.247  27 
  -8   3   1 8201.90 332.931  13 
   8   3   1 7639.68 319.494  10 
   8   3  -1 7387.81 308.077  10 
   8  -3  -1 7890.29 348.351  23 
   8  -3   1 6974.42 341.402  23 
   8   3   1 7455.68 389.972  23 
   8  -3  -1 6863.63 559.977   5 
   8  -3  -1 7715.11 345.091  22 
   8  -3   1 8236.90 362.865  22 
  -8   3  -1 7748.46 314.019  13 
   8  -3  -1 6723.95 613.023   4 
   8  -3  -1 8087.53 343.653  21 
   8  -3   2 13791.9 427.958  12 
  -8   3  -2 13241.1 451.407   8 
   8  -3  -2 13505.2 439.161  19 
   8  -3   2 14650.6 457.785  19 
   8   3   2 13607.4 519.627  12 
   8  -3  -2 12683.6 847.288   1 
   8   3  -2 12573.4 485.663  12 
   8   3   2 13736.4 568.317  18 
   8   3  -2 12358.0 544.776  18 
   8  -3  -2 12448.6 407.982   7 
   8  -3   2 13992.2 463.804   7 
   8  -3  -2 13164.9 456.392  11 
   8  -3   2 13399.7 474.176  11 
   8   3  -2 12829.4 511.664  27 
   8   3   2 14071.1 564.399  27 
   8   3  -2 13051.4 414.213  10 
   8   3   2 13524.2 439.772  10 
   8  -3  -2 12345.6 770.417   5 
   8  -3  -2 13125.2 449.799  23 
   8  -3   2 13573.8 458.903  23 
   8   3   2 12776.5 532.785  23 
   8  -3  -2 13270.8 454.900  22 
  -8   3   2 13264.3 433.169  13 
   8  -3   2 13723.1 478.517  22 
  -8   3  -2 12027.5 392.038  13 
   8  -3  -2 11988.7 797.747   4 
   8  -3  -2 13643.0 450.102  21 
   8  -3   3 67058.8 1017.24  12 
  -8   3  -3 65704.2 1075.16   8 
   8  -3  -3 58345.5 953.558  19 
   8  -3   3 59421.2 967.372  19 
   8   3   3 62606.3 1151.18  12 
   8  -3  -3 51342.5 1705.55   1 
   8   3   3 63873.9 1260.23  18 
   8   3  -3 63793.4 1259.70  18 
   8  -3   3 60450.6 1029.64   7 
  -8   3  -3 59353.9 906.544  17 
   8  -3  -3 71026.2 1085.13  11 
   8  -3   3 58988.7 1062.34  11 
   8   3  -3 60989.3 1136.10  27 
   8   3   3 61780.9 1248.74  27 
   8   3   3 64355.3 1014.58  10 
   8  -3   3 65690.9 1115.35  22 
   8   3  -3 66846.9 985.137  10 
   8  -3  -3 67269.0 1060.41  23 
   8   3   3 64491.7 1253.36  23 
   8  -3  -3 63311.4 1031.27  22 
  -8   3   3 66626.0 1042.40  13 
  -8   3  -3 60628.4 913.207  13 
   8  -3   3 70452.8 1091.06  23 
   8  -3  -3 51566.5 1666.40   4 
   8  -3  -3 68136.4 1033.37  21 
   8  -3   4 14396.5 467.483  12 
  -8   3  -4 14013.5 494.739   8 
   8  -3  -4 14882.7 462.972  19 
   8  -3   4 14772.8 464.486  19 
   8   3   4 13181.5 517.709  12 
   8   3   4 14261.7 582.368  18 
   8   3  -4 14751.4 590.308  18 
   8  -3   4 14378.3 499.519   7 
  -8   3  -4 15251.8 449.016  17 
   8  -3  -4 14349.9 480.407  11 
   8   3  -4 14949.5 542.897  27 
   8   3   4 15518.1 626.047  27 
   8   3   4 14032.0 468.905  10 
   8  -3  -4 14160.5 477.207  22 
  -8   3  -4 15640.1 467.238  14 
   8  -3  -4 14924.8 493.173  23 
   8  -3   4 14306.6 477.269  23 
   8   3   4 14317.8 590.806  23 
  -8   3   4 15102.2 488.056  13 
   8  -3   4 14366.3 510.132  22 
  -8   3  -4 14116.8 414.670  13 
   8  -3  -4 14359.8 462.027  21 
   8   3  -5 34950.5 830.777  20 
   8  -3   5 34400.3 758.874  12 
  -8   3   5 34095.1 771.690  13 
  -8   3  -5 33301.6 807.066   8 
   8  -3  -5 35290.8 726.831  19 
   8   3   5 34270.1 848.212  12 
   8  -3   5 33850.1 721.303  19 
   8   3   5 36609.6 929.395  18 
   8   3  -5 35379.1 925.708  18 
   8  -3   5 34487.9 809.561   7 
   8  -3  -5 39736.9 824.404  11 
  -8   3  -5 32230.3 685.723  17 
   8   3  -5 34124.6 821.347  27 
   8   3   5 35366.9 971.644  27 
   8   3   5 36250.3 781.164  10 
  -8   3  -5 37740.4 758.274  14 
   8  -3  -5 34960.3 774.670  23 
   8  -3   5 31999.0 741.693  23 
   8   3   5 32975.1 950.326  23 
   8  -3  -5 32572.8 744.522  22 
   8  -3   5 35813.7 841.700  22 
  -8   3  -5 38288.8 696.716  13 
   8  -3  -5 34269.9 736.398  21 
   8   3  -6 63384.2 1140.77  20 
   8  -3   6 62420.5 1065.43  12 
   8  -3  -6 64085.8 1001.32  19 
   8   3   6 60003.1 1150.03  12 
   8  -3   6 65740.6 1024.97  19 
   8   3   6 59607.6 1324.34  23 
   8   3   6 64168.7 1243.01  18 
   8   3  -6 63643.3 1250.02  18 
   8  -3   6 64879.4 1164.03   7 
   8  -3  -6 61132.7 1053.32  11 
  -8   3  -6 64916.6 1019.56  17 
   8  -3  -6 60354.5 1048.13  22 
   8   3   6 65027.7 1088.60  10 
   8  -3  -6 62372.6 1058.60  23 
  -8   3  -6 64752.4 1027.65  14 
   8  -3   6 62925.9 1075.07  23 
   8  -3   6 64073.5 1163.93  22 
  -8   3   6 61231.8 1083.83  13 
  -8   3  -6 63108.6 918.574  13 
   8  -3  -6 65054.9 1041.78  21 
   8  -3   7 16295.5 540.414  12 
   8   3  -7 15514.0 546.685  20 
   8   3  -7 15475.4 469.023  26 
   8  -3  -7 16346.4 482.034  19 
   8   3   7 14790.0 556.083  12 
   8   3   7 16588.4 610.690  18 
   8   3  -7 15738.0 594.453  18 
   8  -3   7 17238.2 605.892   7 
   8  -3  -7 15711.3 527.178  11 
  -8   3  -7 16013.9 501.527  17 
   8   3   7 15611.4 521.965  10 
  -8   3  -7 16740.0 477.410  24 
  -8   3  -7 16553.3 504.777  14 
   8  -3  -7 15059.0 513.524  23 
   8  -3   7 15355.1 514.614  23 
  -8   3  -7 17090.8 480.267  25 
  -8  -3  -7 16244.1 525.047   9 
   8   3   7 14224.5 645.202  23 
   8  -3  -7 14981.4 512.011  22 
   8  -3  -7 15432.6 497.581  21 
   8  -3  -8 747.452 115.611  21 
   8   3  -8 686.712 119.905  20 
  -8   3  -8 737.915 102.823  25 
   8  -3  -8 756.373 105.357  19 
   8  -3   8 841.741 137.018  12 
  -8   3  -8 724.096 107.575  14 
   8   3   8 752.835 128.680  12 
   8   3  -8 717.703 128.371  18 
   8  -3  -8 710.325 119.336  11 
  -8   3  -8 759.017 114.224  17 
   8  -3   8 756.673 128.693   7 
   8   3  -8 752.043 104.749  26 
  -8   3  -8 739.932 103.869  24 
   8   3   8 793.322 124.183  10 
   8  -3  -8 733.149 128.065  23 
   8  -3   8 688.322 116.014  23 
   8   3   8 823.682 174.649  23 
   8  -3  -8 706.133 117.034  22 
  -8  -3  -8 611.233 109.078   9 
   8  -3   9 24894.0 693.834  12 
   8   3  -9 23924.8 666.596  20 
  -8   3  -9 23091.6 570.191  25 
   8   3   9 27705.3 759.842  12 
   8  -3  -9 24808.7 665.876  11 
   8  -3   9 27198.7 750.495   7 
  -8   3  -9 25677.4 663.856  17 
   8   3   9 25020.2 683.436  10 
  -8   3  -9 25176.3 593.918  24 
   8   3  -9 24166.4 605.236  26 
  -8   3  -9 24776.6 632.836  14 
   8  -3  -9 23373.7 626.032  23 
  -8  -3  -9 25718.9 673.874   9 
   8  -3  -9 27119.7 695.700  22 
   8  -3  -9 25837.3 659.113  21 
   8  -3 -10 872.128 122.871  21 
   8  -3  10 749.840 125.761  12 
   8   3  10 819.958 130.306  12 
  -8   3 -10 827.062 105.792  24 
   8  -3 -10 879.936 134.474  11 
  -8   3 -10 909.475 124.822  17 
   8  -3  10 859.473 137.858   7 
   8   3 -10 800.319 113.346  26 
  -8   3 -10 866.893 110.506  25 
  -8  -3 -10 909.316 127.085  15 
  -8   3 -10 886.905 124.980   6 
   8   3  10 791.021 122.670  10 
   8  -3 -10 683.677 109.881  23 
  -8   3 -10 822.793 116.254  14 
   8  -3 -10 923.385 132.273  22 
  -8  -3 -10 804.898 123.392   9 
   8  -3 -11 681.708 111.113  21 
   8  -3  11 572.438 108.467  12 
  -8   3 -11 564.341 85.9125  25 
   8   3  11 499.638 103.797  12 
   8  -3 -11 495.120 102.946  11 
  -8   3 -11 493.558 89.4602  17 
   8   3 -11 592.180 96.9010  26 
   8  -3  11 578.021 109.949   7 
  -8   3 -11 467.208 73.2377  24 
  -8  -3 -11 596.091 101.375  15 
  -8   3 -11 462.559 91.5705   6 
   8   3  11 518.416 102.202  10 
   8  -3 -11 422.530 84.2414  23 
  -8   3 -11 533.127 92.1924  14 
   8  -3 -11 547.641 106.724  22 
  -8  -3 -11 555.748 103.069   9 
   8  -3  12 3472.61 252.923  12 
   8  -3 -12 3840.58 251.790  11 
  -8   3 -12 3796.10 244.622  17 
  -8   3 -12 4063.90 248.581   6 
  -8  -3 -12 3973.24 243.743  15 
  -8   3 -12 3727.71 205.264  25 
  -8   3 -12 3745.62 206.555  24 
  -8   3 -12 3940.90 236.681  14 
  -8  -3 -12 3969.02 244.827   9 
   8  -3 -12 3899.18 249.384  22 
   8   3  12 3789.38 254.033  10 
   8  -3 -12 4158.55 254.109  21 
   8  -3  13 2786.97 211.980  12 
  -8  -3 -13 2538.22 187.718   9 
   8  -3 -13 2747.61 202.289  11 
  -8   3 -13 2698.93 204.665  17 
  -8   3 -13 2444.44 183.376  16 
   8   3  13 2683.12 200.704  10 
  -8   3 -13 2499.37 185.715   6 
  -8  -3 -13 2353.09 182.281  15 
  -8   3 -13 2705.21 187.432  14 
   8  -3 -13 2553.62 195.634  22 
   8  -3 -13 2451.95 188.147  21 
   8  -3 -14 41.7164 45.2196  21 
   8  -3  14 105.443 42.2130  12 
   8  -3 -14 86.3822 46.0354  11 
  -8   3 -14 47.2275 37.2364  17 
  -8  -3 -14 116.212 41.1381  15 
  -8   3 -14 13.2941 29.6717   6 
   8   3  14 128.079 53.4276  10 
  -8   3 -14 61.3905 35.0583  14 
   8  -3 -14 93.3381 45.4019  22 
  -8   3 -14 86.3004 41.7326  16 
  -8  -3 -14 111.021 45.7674   9 
   8  -3 -15 8276.42 289.446  22 
   8  -3  15 9814.74 339.694  12 
   8  -3 -15 8662.42 294.786  11 
  -8   3 -15 9728.79 339.710  17 
  -8   3 -15 9763.51 317.730  16 
   8   3  15 8551.71 307.247  10 
  -8  -3 -15 8718.66 300.099  15 
  -8   3 -15 8812.24 293.950   6 
  -8   3 -15 9478.47 298.614  14 
  -8   3  15 8849.33 330.404  13 
  -8  -3 -15 9149.57 290.288   9 
   8  -3 -15 8159.04 299.542  21 
  -8  -3 -16 3677.72 172.999  15 
  -8   3  16 3303.60 178.730  13 
   9  -3   0-43.2848 51.3332  21 
   9  -3   0 10.6040 42.9904  19 
   9   3   0-36.6613 54.0727  12 
   9   3   0-1.99448 61.9442  18 
   9  -3   0 8.90068 32.0308   7 
   9  -3   0 2.49596 50.6432  11 
   9   3   0 97.6821 70.2596  27 
   9  -3   0-33.7749 54.4675  23 
   9   3   0-62.7880 69.0389  23 
   9  -3   0-34.7437 44.4212  22 
  -9   3   0 15.8153 28.3436  13 
   9  -3  -1 258.904 78.4436  21 
   9  -3  -1 156.123 53.3403  19 
   9  -3   1 368.638 81.1974  19 
   9   3   1 309.485 97.9121  12 
   9   3  -1 219.904 74.8395  12 
   9   3   1 307.733 93.1173  18 
   9   3  -1 295.152 88.8199  18 
   9  -3   1 293.929 80.6165   7 
   9  -3  -1 212.063 65.8995   7 
   9  -3  -1 272.149 79.9812  11 
   9  -3   1 255.744 81.8206  11 
   9   3  -1 258.366 87.1619  27 
   9   3   1 342.258 104.139  27 
   9   3   1 218.581 58.6283  10 
   9  -3  -1 215.020 65.5544  23 
   9  -3   1 255.043 66.9955  23 
   9   3   1 226.544 79.2401  23 
   9  -3  -1 229.655 70.9017  22 
   9  -3   1 290.114 84.1740  22 
  -9   3   1 236.593 63.5836  13 
  -9   3  -1 230.504 61.4763  13 
   9  -3   2 34844.2 723.836  12 
   9  -3  -2 35125.7 750.210  19 
   9  -3   2 29131.9 686.960  19 
   9   3   2 29492.0 817.517  12 
   9   3  -2 33508.2 843.406  12 
   9   3   2 33744.5 937.674  18 
   9   3  -2 32239.6 914.565  18 
   9  -3   2 36066.6 797.662   7 
   9  -3  -2 29777.4 730.748  11 
   9  -3   2 36742.8 844.601  11 
   9   3  -2 31756.7 852.021  27 
   9   3   2 32244.3 677.863  10 
   9  -3  -2 31688.6 750.682  23 
   9  -3   2 31833.3 753.570  23 
   9   3   2 34053.6 933.835  27 
   9   3   2 32222.9 888.658  23 
   9  -3  -2 30469.8 743.807  22 
   9  -3   2 32049.4 791.177  22 
  -9   3   2 33249.8 707.531  13 
  -9   3  -2 28479.9 615.184  13 
   9  -3  -2 33597.4 758.774  21 
   9  -3   3 135310. 1557.28  12 
   9  -3  -3 114955. 1464.64  19 
   9  -3   3 132100. 1567.18  19 
   9   3   3 123847. 1760.33  12 
   9   3   3 130329. 1920.55  18 
   9   3  -3 124369. 1889.20  18 
   9  -3   3 129639. 1665.46   7 
   9  -3  -3 137802. 1666.25  11 
   9  -3   3 128273. 1685.21  11 
   9   3  -3 132436. 1818.02  27 
   9   3   3 121792. 1885.85  27 
   9   3   3 122331. 1457.89  10 
  -9   3  -3 130920. 1534.14  14 
   9  -3  -3 124024. 1583.29  23 
   9  -3   3 130649. 1621.32  23 
   9   3   3 130006. 1903.05  23 
   9  -3  -3 136326. 1655.86  22 
  -9   3   3 130078. 1531.55  13 
   9  -3   3 124852. 1680.96  22 
  -9   3  -3 119750. 1352.09  13 
   9  -3  -3 137797. 1634.89  21 
   9  -3   4 17380.8 532.515  12 
   9  -3  -4 16221.1 501.727  19 
   9  -3   4 18588.5 546.390  19 
   9   3   4 15533.8 592.710  12 
   9   3   4 16611.2 647.960  18 
   9   3  -4 16002.1 643.512  18 
   9  -3   4 17274.6 580.512   7 
   9  -3  -4 18177.6 565.224  11 
   9   3  -4 15921.6 586.085  27 
   9   3   4 16347.6 670.514  27 
   9   3   4 15642.7 491.754  10 
   9  -3   4 17543.9 563.133  23 
   9   3   4 16780.6 659.454  23 
   9  -3  -4 17879.8 563.975  23 
   9  -3  -4 16508.1 536.088  22 
  -9   3   4 16299.5 517.239  13 
  -9   3  -4 17164.0 515.212  14 
   9  -3   4 16433.1 578.793  22 
   9  -3  -4 16345.0 529.864  21 
   9   3  -5 100468. 1493.77  20 
   9  -3   5 103613. 1413.73  12 
   9  -3  -5 93475.8 1286.18  19 
   9   3   5 100798. 1576.46  12 
   9  -3   5 104299. 1369.17  19 
   9   3   5 98088.6 1641.53  18 
   9   3  -5 103747. 1684.28  18 
   9  -3   5 115885. 1619.17   7 
   9  -3  -5 99214.1 1409.12  11 
  -9   3  -5 98644.7 1256.48  17 
   9   3  -5 98815.7 1519.07  27 
   9   3   5 102865. 1753.82  27 
   9   3   5 101345. 1345.18  10 
  -9   3  -5 104996. 1369.60  14 
   9  -3  -5 99217.7 1404.94  23 
   9  -3   5 92424.0 1374.21  23 
   9   3   5 99839.8 1747.78  23 
   9  -3  -5 103599. 1434.59  22 
  -9   3   5 104783. 1412.58  13 
   9  -3   5 104880. 1537.78  22 
   9  -3  -5 104992. 1417.62  21 
   9   3  -6 87823.9 1379.17  20 
   9  -3   6 85642.9 1304.38  12 
   9   3   6 84940.0 1626.09  23 
   9  -3  -6 92848.1 1251.81  19 
   9   3   6 89030.1 1471.86  12 
   9   3   6 88924.7 1530.88  18 
   9   3  -6 87512.2 1533.77  18 
   9  -3   6 102392. 1540.79   7 
   9  -3  -6 99520.3 1396.12  11 
  -9   3  -6 87132.3 1195.87  17 
   9   3  -6 82002.0 1348.70  27 
   9   3   6 89218.0 1281.76  10 
  -9   3  -6 91362.0 1284.75  14 
   9  -3  -6 90269.7 1324.85  23 
   9  -3   6 95315.9 1392.01  23 
  -9   3   6 86376.1 1313.57  13 
   9  -3  -6 94191.6 1360.97  22 
   9  -3  -6 91245.5 1318.75  21 
   9  -3  -7 424.457 97.3299  21 
   9   3  -7 410.426 95.8613  20 
   9  -3  -7 368.046 81.5595  19 
   9  -3   7 297.241 78.6663  12 
   9   3   7 357.109 87.2416  12 
   9   3   7 352.013 99.4600  18 
   9   3  -7 345.402 100.099  18 
  -9   3  -7 386.035 81.8733  17 
   9  -3  -7 390.571 99.2586  11 
   9  -3   7 689.587 127.827   7 
  -9   3  -7 357.940 72.8622  25 
  -9   3  -7 335.585 67.6582  24 
   9   3   7 541.750 100.028  10 
  -9   3  -7 341.623 77.1721  14 
   9  -3  -7 366.932 94.7067  23 
   9  -3   7 380.850 93.0794  23 
   9   3   7 584.882 145.972  23 
   9  -3  -7 358.528 89.7584  22 
  -9  -3  -7 300.515 67.6038   9 
  -9   3   7 371.740 85.7277  13 
  -9   3  -8 16139.3 459.409  25 
   9   3  -8 16145.3 547.770  20 
   9  -3   8 17234.3 574.636  12 
   9  -3  -8 16874.2 482.600  19 
   9   3   8 17575.4 615.729  12 
   9   3  -8 15976.5 592.674  18 
   9  -3  -8 17537.8 566.250  11 
   9  -3   8 16300.5 582.751   7 
  -9   3  -8 16888.0 514.837  17 
   9   3   8 16966.6 536.807  10 
  -9   3  -8 17411.6 478.040  24 
  -9   3  -8 17053.6 522.395  14 
   9  -3   8 15367.7 531.491  23 
  -9  -3  -8 16870.3 546.834   9 
   9   3   8 17271.5 714.289  23 
  -9   3   8 16728.3 559.149  13 
   9  -3  -8 16553.3 550.184  22 
   9  -3  -8 17351.0 545.189  23 
   9  -3  -8 16922.4 546.703  21 
   9  -3   9 6752.59 358.468  12 
   9   3   9 6198.64 354.982  12 
   9  -3  -9 5993.74 331.839  11 
   9  -3   9 6686.13 368.332   7 
  -9   3  -9 6320.63 312.246  17 
  -9   3  -9 6341.58 324.820   6 
  -9   3  -9 6029.96 274.950  25 
   9   3   9 6634.78 335.497  10 
  -9   3  -9 7209.53 302.430  24 
  -9   3  -9 6698.92 325.174  14 
   9  -3  -9 6800.26 334.413  23 
   9   3   9 6710.65 441.426  23 
  -9  -3  -9 7105.46 349.302   9 
  -9   3   9 6571.64 354.034  13 
   9  -3  -9 6293.32 336.788  22 
   9  -3  -9 6194.86 321.894  21 
   9  -3 -10 72.1821 51.3970  21 
   9  -3  10 8.26481 37.2216  12 
   9   3  10 11.3249 38.8607  12 
   9  -3 -10 29.1416 50.6341  11 
  -9   3 -10 5.39982 42.1187  17 
   9  -3  10 6.95885 49.4478   7 
  -9  -3 -10-15.4226 39.3958  15 
  -9   3 -10 21.0353 38.0917   6 
   9   3  10 130.414 55.3673  10 
   9  -3 -10 23.9510 39.2383  23 
  -9   3 -10 5.74556 32.1960  14 
   9  -3 -10 20.7200 40.4899  22 
  -9  -3 -10 45.4785 46.8019   9 
  -9   3  10-3.47365 45.8115  13 
   9  -3 -11 61.0140 44.2615  21 
   9   3  11-36.1270 44.9710  12 
   9  -3 -11-21.8123 42.3327  11 
  -9   3 -11 32.9044 42.3013  17 
  -9  -3 -11 24.5193 40.4214  15 
  -9   3 -11 66.7657 49.4321   6 
   9   3  11 60.1224 45.1756  10 
  -9   3 -11 116.019 48.7154  14 
   9  -3 -11 71.8478 52.8627  22 
  -9  -3 -11-27.9828 42.1429   9 
  -9   3  11-35.2064 46.4831  13 
   9  -3  12 9066.38 385.267  12 
  -9  -3 -12 7424.50 322.012  15 
   9  -3 -12 8118.08 346.664  11 
  -9   3 -12 8969.25 355.220  17 
  -9   3 -12 9042.54 354.439  16 
  -9   3 -12 7628.43 325.202   6 
   9   3  12 8069.60 341.662  10 
  -9   3 -12 7991.72 331.859  14 
  -9  -3 -12 8495.94 342.893   9 
  -9   3  12 7973.44 366.625  13 
   9  -3 -12 8176.23 347.394  22 
   9  -3 -12 7745.18 335.842  21 
   9  -3 -13 124.237 47.8814  21 
   9  -3  13 87.0181 47.7687  12 
   9  -3 -13 71.2833 49.3064  11 
  -9   3 -13 17.6599 31.4981  17 
  -9   3 -13 77.1538 44.9000  16 
  -9  -3 -13 76.6455 45.4332  15 
  -9   3 -13 56.2466 40.0927   6 
   9   3  13-10.3743 38.3149  10 
  -9   3 -13 75.7867 38.8611  14 
   9  -3 -13 153.768 59.7965  22 
  -9  -3 -13 44.4071 27.7208   9 
  -9   3  13 70.9181 45.6656  13 
   9  -3  14 2748.02 185.987  12 
  -9   3 -14 2771.90 168.151   6 
   9  -3 -14 2606.94 164.895  11 
  -9   3 -14 2776.12 175.039  17 
  -9   3 -14 2679.24 169.480  16 
   9   3  14 2404.51 157.945  10 
  -9  -3 -14 2788.11 171.432  15 
  -9   3 -14 2730.26 164.776  14 
  -9   3  14 2716.74 185.720  13 
   9  -3 -14 2737.36 170.301  22 
  -9  -3 -14 2904.93 168.189   9 
   9  -3 -14 2796.00 180.654  21 
   9  -3 -15 78.2448 35.6457  21 
   9  -3  15 101.298 38.8858  12 
  -9  -3 -15 111.193 38.5770  15 
  -9   3 -15 87.8561 33.3469   6 
  -9   3 -15 103.562 34.0739  14 
  -9   3 -15 78.9060 33.0939  16 
  -9   3  15 70.5145 35.9557  13 
  10  -3   0 18487.3 561.025  19 
  10   3   0 18448.7 648.493  12 
  10   3   0 19740.2 736.509  18 
  10  -3   0 19249.6 574.321   7 
  10  -3   0 21257.7 657.942  11 
  10   3   0 20411.9 723.041  27 
  10  -3   0 20670.0 632.249  23 
  10   3   0 17817.7 629.570  23 
  10  -3   0 20954.8 656.177  22 
  10  -3  -1 4046.43 259.867  19 
  10  -3   1 4268.57 272.656  19 
  10   3   1 3652.45 288.884  12 
  10   3  -1 4058.72 299.902  12 
  10   3   1 4561.24 350.910  18 
  10   3  -1 4732.61 358.864  18 
  10  -3   1 4467.79 282.658   7 
  10  -3  -1 4552.59 271.316   7 
  10  -3  -1 3564.38 263.580  11 
  10  -3   1 3982.79 284.441  11 
  10   3  -1 4897.17 348.875  27 
  10   3   1 4295.83 340.163  27 
  10  -3  -1 4391.95 289.432  23 
  10  -3   1 3829.01 274.594  23 
  10   3   1 4257.93 314.148  23 
  10  -3  -1 3581.18 267.795  22 
  10  -3   1 4391.51 297.985  22 
 -10   3   1 4616.57 253.281  13 
  10  -3  -1 4179.94 276.726  21 
  10  -3   2 77254.9 1149.55  12 
  10  -3  -2 85208.5 1229.72  19 
  10  -3   2 73612.8 1168.69  19 
  10   3   2 74111.7 1349.22  12 
  10   3   2 77865.6 1499.23  18 
  10   3  -2 73058.4 1467.45  18 
  10  -3   2 81496.3 1265.61   7 
  10  -3  -2 79072.1 1282.46  11 
  10  -3   2 74275.7 1285.34  11 
  10   3  -2 73212.5 1385.61  27 
  10   3   2 70651.0 1423.27  27 
  10  -3  -2 79365.5 1259.66  23 
  10  -3   2 76252.6 1248.81  23 
  10   3   2 75538.4 1410.64  23 
  10  -3  -2 77384.7 1264.76  22 
  10  -3   2 78965.4 1325.48  22 
 -10   3   2 72421.8 1086.05  13 
  10  -3  -2 71097.9 1200.13  21 
  10  -3  -3 47061.2 948.952  23 
  10  -3   3 47336.6 899.650  12 
  10  -3  -3 44838.3 879.672  19 
  10  -3   3 41429.6 861.705  19 
  10   3   3 43436.0 1031.74  12 
  10   3   3 43143.1 1093.27  18 
  10   3  -3 44886.5 1121.52  18 
  10  -3   3 45594.5 954.810   7 
  10  -3  -3 45240.3 950.137  11 
  10  -3  -3 43297.9 931.721  22 
  10   3  -3 44040.3 1039.53  27 
  10   3   3 42266.1 1098.47  27 
 -10   3  -3 47489.1 907.269  14 
  10  -3   3 41562.7 917.416  23 
  10   3   3 42880.4 1077.22  23 
 -10   3   3 47048.4 861.508  13 
  10  -3   3 48014.5 1038.30  22 
  10  -3  -3 45660.5 936.812  21 
  10   3  -4 10451.3 466.864  20 
  10  -3   4 11334.9 431.643  12 
  10  -3  -4 11006.4 423.101  19 
  10   3   4 11198.7 517.411  12 
  10  -3   4 10868.5 431.398  19 
  10   3   4 11541.3 554.683  18 
  10   3  -4 10600.4 534.751  18 
  10  -3   4 12836.3 502.908   7 
  10  -3  -4 10543.5 448.469  11 
  10   3  -4 10686.1 499.762  27 
  10   3   4 10709.6 556.591  27 
 -10   3  -4 11649.8 438.102  14 
  10  -3  -4 12153.2 474.648  23 
  10  -3   4 10790.0 458.850  23 
  10   3   4 11885.0 572.606  23 
  10  -3  -4 10779.5 456.184  22 
 -10   3   4 11801.9 431.365  13 
  10  -3   4 11146.6 486.856  22 
  10  -3  -4 11310.2 453.198  21 
  10   3  -5 43987.3 958.050  20 
  10  -3   5 46853.9 926.917  12 
  10  -3  -5 49072.5 886.405  19 
  10   3   5 44423.8 1051.16  12 
  10   3   5 44905.1 1095.56  18 
  10   3  -5 42425.4 1073.56  18 
  10  -3   5 45213.2 971.706   7 
  10  -3  -5 43437.7 922.886  11 
  10   3  -5 43559.1 1002.90  27 
  10   3   5 43289.6 1131.78  27 
 -10   3  -5 48290.9 917.936  14 
  10  -3  -5 46391.0 942.312  23 
  10  -3   5 43032.8 939.417  23 
  10   3   5 43045.3 1121.67  23 
  10  -3  -5 43875.6 927.717  22 
 -10   3   5 46067.7 895.925  13 
  10  -3   5 42760.5 988.179  22 
  10  -3  -5 44450.5 921.241  21 
  10  -3  -6 1199.30 152.925  21 
  10   3  -6 835.378 127.502  20 
  10  -3  -6 909.791 118.759  19 
  10  -3   6 990.799 137.931  12 
  10   3   6 898.570 155.807  12 
  10   3   6 824.011 144.683  18 
  10   3  -6 863.510 159.968  18 
  10  -3  -6 1004.32 144.868  11 
  10  -3   6 809.199 133.206   7 
  10   3  -6 795.378 136.543  27 
 -10   3  -6 718.063 101.439  25 
 -10   3  -6 607.108 96.3347  24 
 -10   3  -6 986.315 128.545  14 
  10  -3  -6 795.728 129.580  23 
  10  -3   6 929.475 142.293  23 
  10   3   6 1052.00 183.292  23 
  10  -3  -6 998.541 146.846  22 
 -10   3   6 849.618 124.162  13 
  10   3  -7 17665.3 572.919  20 
  10  -3   7 20320.7 615.525  12 
  10  -3  -7 17280.5 498.669  19 
  10   3   7 18098.0 644.342  12 
  10   3   7 18898.3 664.979  18 
  10   3  -7 17961.0 647.324  18 
  10  -3  -7 17414.3 571.019  11 
  10  -3   7 17489.1 598.178   7 
 -10   3  -7 17233.3 537.199  14 
  10  -3  -7 18358.0 570.789  23 
  10  -3   7 18092.8 592.569  23 
 -10  -3  -7 18585.3 575.035   9 
  10   3   7 18090.0 729.699  23 
 -10   3   7 19567.5 590.092  13 
  10  -3  -7 16984.9 561.806  22 
  10  -3  -7 17903.2 570.990  21 
  10  -3  -8 1191.30 147.964  21 
  10   3   8 1384.05 175.663  12 
  10  -3   8 1172.14 149.444  12 
  10   3  -8 1524.10 179.847  18 
  10  -3  -8 1128.02 149.921  11 
  10  -3   8 1149.88 156.849   7 
 -10   3  -8 1337.60 145.384  14 
 -10  -3  -8 1401.46 159.245   9 
  10  -3  -8 1013.17 136.494  23 
  10  -3   8 1214.60 155.170  23 
  10   3   8 1290.85 206.282  23 
 -10   3   8 1311.84 155.530  13 
  10  -3  -8 1131.68 143.510  22 
  10  -3   9 10494.0 438.553  12 
  10   3   9 10406.3 462.635  12 
  10  -3  -9 11119.5 435.171  11 
 -10   3  -9 10273.5 374.966  17 
  10  -3   9 9460.44 423.557   7 
 -10   3  -9 10208.0 403.394   6 
 -10   3  -9 10287.9 398.971  14 
  10  -3  -9 9279.44 379.175  23 
 -10  -3  -9 10679.7 413.520   9 
 -10   3   9 10256.3 422.151  13 
  10  -3  -9 10616.4 423.014  22 
  10  -3  -9 9943.48 416.772  21 
  10  -3  10 16135.2 533.040  12 
  10   3  10 15238.1 531.986  12 
  10  -3 -10 16510.8 521.374  11 
 -10   3 -10 16758.6 473.329  17 
 -10   3 -10 16677.3 501.710   6 
 -10  -3 -10 15959.4 484.669  15 
 -10   3 -10 16377.0 487.690  14 
  10  -3 -10 14594.3 449.241  23 
 -10  -3 -10 17543.5 514.633   9 
 -10   3  10 16018.5 514.071  13 
  10  -3 -10 16318.8 513.679  22 
  10  -3 -10 16248.6 519.300  21 
  10  -3 -11 422.717 83.1671  21 
  10  -3  11 382.653 84.6915  12 
  10   3  11 261.833 77.4257  12 
  10  -3 -11 514.667 95.5242  11 
 -10   3 -11 452.949 80.8773  17 
 -10  -3 -11 468.253 81.8919  15 
 -10   3 -11 461.959 87.3560   6 
 -10   3 -11 394.136 76.8148  14 
  10  -3 -11 396.612 86.8734  22 
 -10  -3 -11 418.860 79.5435   9 
 -10   3  11 467.166 90.4467  13 
  10  -3 -12 878.921 112.182  21 
  10  -3  12 651.779 100.416  12 
  10   3  12 647.769 99.2695  12 
  10  -3 -12 865.835 110.972  11 
 -10   3 -12 869.309 100.484  17 
 -10   3 -12 950.732 107.573  16 
 -10   3 -12 848.054 103.881   6 
 -10  -3 -12 973.845 109.943  15 
 -10   3 -12 896.401 103.712  14 
 -10  -3 -12 901.976 104.975   9 
  10  -3 -12 828.959 104.637  22 
 -10   3  12 865.326 111.693  13 
  10  -3 -13 40.7946 39.5185  21 
  10  -3  13-32.7876 32.4921  12 
  10  -3 -13 47.5282 37.3863  11 
 -10   3 -13 76.8798 42.3187  16 
 -10  -3 -13 48.5257 29.1192  15 
 -10   3 -13-4.51176 31.3232   6 
 -10   3 -13-27.6135 27.3027  14 
  10  -3 -13 54.7500 41.0659  22 
 -10  -3 -13 61.1552 34.8988   9 
 -10   3  13 10.5641 34.4982  13 
  10  -3  14 2103.00 148.414  12 
 -10   3 -14 1929.14 126.745  16 
 -10  -3 -14 1740.81 121.762  15 
 -10   3 -14 1992.18 129.503   6 
 -10   3 -14 1882.94 125.029  14 
 -10   3  14 1489.90 119.813  13 
  10  -3 -14 1611.35 129.900  21 
  11  -3   0 12.1908 55.8563  19 
  11   3   0-23.2875 47.0915  12 
  11   3   0-70.8241 63.0593  18 
  11  -3   0 83.5505 53.9365   7 
  11  -3   0-37.0446 65.1417  11 
  11   3   0 30.4928 58.4102  27 
  11  -3   0-34.9009 50.1379  23 
  11   3   0 3.72339 53.9083  23 
  11  -3   0 31.3322 56.0595  22 
  11  -3  -1 559.033 104.815  19 
  11  -3   1 641.289 111.883  19 
  11   3   1 522.034 119.462  12 
  11   3  -1 477.532 112.401  12 
  11   3   1 519.846 126.150  18 
  11   3  -1 546.403 155.416  18 
  11  -3   1 676.501 112.901   7 
  11  -3  -1 376.287 111.938  11 
  11  -3   1 515.984 112.593  11 
  11   3  -1 636.571 144.563  27 
  11   3   1 619.672 148.753  27 
  11  -3  -1 641.860 126.745  23 
  11  -3   1 621.225 115.290  23 
  11   3   1 638.351 127.550  23 
  11  -3  -1 432.694 109.957  22 
  11  -3   1 500.276 115.112  22 
  11  -3  -2 29024.5 713.303  19 
  11  -3   2 30399.2 743.573  19 
  11   3   2 27597.2 816.277  12 
  11   3   2 29648.6 925.627  18 
  11   3  -2 28935.3 916.891  18 
  11  -3   2 29431.2 731.509   7 
  11  -3  -2 28923.8 777.313  11 
  11   3  -2 29192.9 873.077  27 
  11   3   2 31126.1 939.772  27 
 -11   3  -2 29895.9 719.441  14 
  11  -3   2 29963.2 785.325  23 
  11   3   2 30856.9 894.504  23 
  11  -3  -2 28618.8 780.245  22 
  11  -3   2 31859.7 848.119  22 
  11  -3  -2 31346.0 793.648  23 
  11  -3  -2 28161.2 753.890  21 
  11  -3   3 61350.9 1040.77  12 
  11  -3  -3 57475.9 1008.80  19 
  11   3   3 54017.2 1177.13  12 
  11   3   3 56822.0 1291.10  18 
  11   3  -3 53885.6 1254.46  18 
  11  -3   3 57966.5 1060.54   7 
  11  -3  -3 58309.0 1101.55  11 
  11   3  -3 53857.1 1175.26  27 
  11   3   3 54434.9 1272.50  27 
 -11   3  -3 58812.2 1025.76  14 
  11  -3  -3 55950.4 1067.08  23 
  11  -3   3 53121.9 1067.29  23 
  11   3   3 56408.9 1247.73  23 
  11  -3  -3 60245.2 1129.16  22 
  11  -3   3 46309.3 1051.92  22 
  11  -3  -3 58248.8 1094.29  21 
  11   3  -4 12387.0 494.291  20 
  11  -3   4 13986.7 492.384  12 
  11  -3  -4 12169.0 445.221  19 
  11   3   4 13168.4 565.821  12 
  11   3   4 13285.1 594.145  18 
  11   3  -4 11953.2 566.814  18 
  11  -3   4 13195.3 499.489   7 
  11  -3  -4 12874.5 505.143  11 
  11   3  -4 12160.8 539.290  27 
  11   3   4 11559.6 571.996  27 
 -11   3  -4 12680.1 465.188  14 
  11  -3  -4 13678.4 508.380  23 
  11  -3   4 11957.6 493.760  23 
  11   3   4 12667.2 581.255  23 
  11  -3  -4 12618.9 501.876  22 
 -11   3   4 12610.0 422.278  13 
  11  -3   4 10621.3 482.949  22 
  11  -3  -4 12036.7 480.534  21 
  11   3  -5 32341.4 793.180  20 
  11  -3   5 33803.9 780.478  12 
  11  -3  -5 32831.2 722.571  19 
  11   3   5 32465.8 885.874  12 
  11   3   5 35786.8 969.224  18 
  11   3  -5 32385.8 924.968  18 
  11  -3   5 34585.8 819.490   7 
  11  -3  -5 33410.7 809.301  11 
  11   3  -5 31994.9 863.980  27 
  11   3   5 31380.1 955.581  27 
 -11   3  -5 37207.5 795.965  14 
  11  -3  -5 34826.8 804.412  23 
  11  -3   5 32539.8 824.549  23 
  11  -3  -5 33221.6 809.045  22 
 -11   3   5 36140.6 744.408  13 
  11  -3  -5 33123.8 806.054  21 
  11   3   5 31927.4 969.562  23 
  11   3  -6 5001.01 297.921  20 
  11  -3   6 5394.38 310.210  12 
  11  -3  -6 5044.54 272.585  19 
  11   3   6 5457.86 357.037  12 
  11   3   6 5456.76 362.378  18 
  11   3  -6 5056.47 350.432  18 
  11  -3  -6 5413.87 326.589  11 
  11  -3   6 5426.35 321.215   7 
  11   3  -6 4683.84 320.438  27 
 -11   3  -6 5859.29 304.344  14 
  11  -3  -6 5631.22 315.576  23 
  11  -3   6 4852.92 304.016  23 
  11   3   6 5461.92 392.315  23 
  11  -3  -6 5295.39 318.069  22 
 -11   3   6 5685.83 291.320  13 
  11  -3  -6 4869.62 304.053  21 
  11  -3  -7 988.853 139.766  21 
  11  -3   7 1207.43 144.994  12 
  11  -3  -7 880.077 110.574  19 
  11   3   7 1048.59 156.751  12 
  11  -3  -7 934.985 132.416  18 
  11   3   7 1045.63 156.933  18 
  11   3  -7 945.226 149.821  18 
  11  -3  -7 895.750 126.954  11 
  11  -3   7 945.529 139.968   7 
 -11   3  -7 1104.04 131.561  14 
  11  -3  -7 938.154 138.010  23 
  11  -3   7 1045.31 143.648  23 
  11   3   7 932.381 175.944  23 
 -11   3   7 1094.66 131.858  13 
  11  -3  -7 989.113 141.281  22 
 -11  -3  -7 905.158 131.610   9 
  11  -3   8 6059.36 322.092  12 
  11   3   8 5968.65 352.230  12 
  11  -3   8 6336.88 310.468  18 
  11  -3  -8 6231.72 326.653  11 
 -11   3  -8 6598.41 318.903   6 
  11  -3  -8 6275.47 325.223  22 
 -11   3  -8 6629.46 313.380  14 
  11  -3  -8 6193.94 309.241  23 
  11  -3   8 5799.74 321.552  23 
  11   3   8 6247.76 408.500  23 
 -11  -3  -8 6017.98 309.730   9 
 -11   3   8 6122.01 303.012  13 
  11  -3  -8 5863.25 322.088  21 
  11  -3   9 9046.71 392.550  12 
  11   3   9 9164.78 416.413  12 
  11  -3  -9 8647.53 368.750  11 
 -11   3  -9 8216.62 343.904   6 
 -11   3  -9 8478.19 343.614  14 
  11  -3  -9 7418.75 321.066  23 
 -11  -3  -9 8674.47 355.208   9 
  11  -3  -9 8767.10 372.276  22 
 -11   3   9 8214.43 344.444  13 
  11  -3  -9 8730.31 378.954  21 
 -11  -3 -10 3516.60 208.871  15 
  11  -3  10 3616.93 237.777  12 
  11   3  10 3334.84 240.180  12 
  11  -3 -10 3492.78 225.242  11 
 -11   3 -10 3701.32 219.087   6 
 -11   3 -10 3657.97 215.953  14 
 -11  -3 -10 3514.00 212.364   9 
 -11   3  10 3348.44 208.742  13 
  11  -3 -10 3494.39 222.905  22 
  11  -3 -10 3262.38 225.324  21 
  11  -3  11 3211.42 211.631  12 
 -11  -3 -11 3269.18 192.456  15 
  11   3  11 2768.59 198.841  12 
 -11   3 -11 3075.88 188.401   6 
  11  -3 -11 2746.27 188.898  11 
 -11   3 -11 3131.08 183.678  16 
 -11   3 -11 3098.14 188.043  14 
 -11  -3 -11 3053.87 189.201   9 
 -11   3  11 2731.17 181.314  13 
  11  -3 -11 2757.07 189.519  22 
  11  -3 -11 3068.44 208.238  21 
  11  -3 -12 115.847 51.2298  21 
  11  -3  12 56.0404 34.0944  12 
  11  -3 -12 172.683 59.0873  11 
 -11   3 -12 38.2084 35.2479  16 
 -11  -3 -12 59.7616 30.8157  15 
 -11   3 -12 58.5895 33.2716   6 
 -11   3 -12 39.4862 27.2364  14 
  11  -3 -12 28.2455 39.5724  22 
 -11  -3 -12 68.5349 30.3718   9 
 -11   3  12 18.7722 25.8856  13 
  11  -3  13 1687.03 133.812  12 
 -11   3 -13 1525.17 112.108   6 
 -11  -3 -13 1300.06 103.302  15 
 -11   3 -13 1416.83 108.551  14 
  11  -3 -13 1177.78 113.872  21 
  12   3   0 92.7193 56.0413  12 
  12   3   0 29.0575 70.8564  18 
  12  -3   0 36.6622 68.1909  11 
  12   3   0 88.0078 73.9429  27 
  12  -3   0 6.50912 58.5744  23 
  12  -3   0-47.0024 64.8333  22 
  12  -3  -1 3906.78 255.826  19 
  12   3   1 3731.39 293.069  12 
  12   3   1 3875.69 332.899  18 
  12   3  -1 3694.84 323.461  18 
  12  -3  -1 3807.44 287.236  11 
  12   3  -1 3946.09 317.398  27 
  12   3   1 3985.08 323.207  27 
 -12   3  -1 4049.95 262.568  14 
  12  -3  -1 3259.08 258.771  23 
  12  -3   1 3826.22 284.798  23 
  12   3   1 3509.58 301.451  23 
  12  -3  -1 3768.75 281.274  22 
  12  -3   1 3433.01 275.930  22 
  12  -3  -2 2852.85 238.584  23 
  12  -3  -2 2760.59 213.208  19 
  12   3   2 2457.99 246.383  12 
  12   3   2 2824.19 280.687  18 
  12   3  -2 2763.23 285.041  18 
  12  -3  -2 2916.21 247.008  11 
  12   3  -2 2703.93 262.157  27 
  12   3   2 2983.11 288.299  27 
 -12   3  -2 3032.54 224.247  14 
  12  -3   2 2433.51 226.542  23 
  12   3   2 2877.61 269.158  23 
  12  -3  -2 2837.30 241.442  22 
  12  -3   2 2775.55 252.830  22 
  12   3  -3 3383.51 255.007  20 
  12  -3  -3 3295.36 228.576  19 
  12   3   3 3346.79 281.999  12 
  12   3   3 3437.36 305.956  18 
  12   3  -3 3331.56 300.463  18 
  12  -3  -3 3716.74 277.475  11 
  12   3  -3 3591.27 297.895  27 
  12   3   3 3201.87 293.572  27 
 -12   3  -3 3700.88 245.234  14 
  12  -3  -3 3609.97 263.577  23 
  12  -3   3 3571.17 272.380  23 
  12   3   3 3525.01 302.713  23 
  12  -3  -3 3489.56 269.004  22 
  12  -3   3 2999.26 259.307  22 
  12   3  -4 10934.5 445.465  20 
  12  -3   4 11793.9 438.482  12 
  12  -3  -4 10843.0 409.042  19 
  12   3   4 9402.43 464.386  12 
  12   3   4 12560.0 565.043  18 
  12   3  -4 10741.6 528.487  18 
  12  -3  -4 12524.0 493.234  11 
  12   3  -4 11330.2 516.560  27 
  12   3   4 11072.3 544.323  27 
 -12   3  -4 12081.2 442.319  14 
  12  -3  -4 11272.0 458.158  23 
  12  -3   4 11370.5 473.880  23 
  12   3   4 11231.7 550.478  23 
  12  -3  -4 12728.5 500.903  22 
  12  -3  -4 11557.4 476.013  21 
  12  -3   5 2395.76 196.789  12 
  12   3   5 2442.82 246.171  12 
  12  -3  -5 2287.45 211.655  18 
  12   3   5 2113.51 225.564  18 
  12   3  -5 2069.96 230.055  18 
  12  -3  -5 2162.75 208.304  11 
  12   3  -5 2217.28 223.233  27 
 -12   3  -5 2389.43 192.600  14 
  12  -3  -5 2238.54 205.841  23 
  12  -3   5 2105.53 203.113  23 
  12   3   5 2342.22 248.235  23 
  12  -3  -5 2288.67 216.696  22 
  12  -3  -5 2198.58 213.603  21 
  12  -3   6 1866.86 172.617  12 
  12   3   6 1783.92 206.466  12 
  12  -3   6 2071.28 196.129  18 
  12  -3  -6 2018.74 188.558  18 
  12   3   6 2004.85 211.851  18 
  12   3  -6 1798.44 203.849  18 
  12  -3  -6 1920.61 189.229  11 
  12   3  -6 1779.16 196.205  27 
 -12   3  -6 1960.97 170.606  14 
  12  -3  -6 1756.07 175.214  23 
  12  -3   6 1921.86 185.658  23 
  12   3   6 1895.13 227.916  23 
  12  -3  -6 1810.16 187.167  22 
  12  -3  -6 1908.66 191.082  21 
  12  -3   7 21326.3 589.181  12 
  12   3   7 19336.7 641.247  12 
  12  -3   7 19853.1 560.680  18 
  12  -3  -7 17085.0 516.681  18 
  12   3   7 18979.5 606.228  18 
  12   3  -7 18391.8 614.470  18 
  12  -3  -7 19431.2 573.594  11 
 -12   3  -7 21063.4 549.210   6 
 -12   3  -7 20127.7 538.705  14 
  12  -3  -7 19543.4 550.331  23 
  12  -3   7 19257.6 590.843  23 
 -12  -3  -7 14660.5 471.590   9 
  12   3   7 18632.8 686.079  23 
  12  -3  -7 18451.6 562.807  22 
  12  -3  -7 18297.6 570.958  21 
  12  -3  -8 869.751 126.027  21 
  12  -3   8 949.332 125.138  12 
  12   3   8 830.329 126.660  12 
  12  -3  -8 925.488 120.554  11 
 -12   3  -8 1010.61 116.342   6 
 -12   3  -8 1113.71 121.541  14 
 -12  -3  -8 968.185 119.792   9 
  12  -3  -8 738.944 105.843  23 
  12  -3   8 867.999 127.570  23 
  12  -3  -8 887.207 122.658  22 
  12  -3   9 27944.5 646.590  12 
 -12  -3  -9 25474.0 540.684  15 
  12   3   9 24476.9 636.172  12 
  12  -3  -9 25714.5 607.002  11 
 -12   3  -9 27781.5 586.954   6 
 -12  -3  -9 26096.8 577.909   9 
  12  -3  -9 25671.2 610.365  22 
 -12   3  -9 25520.2 566.072  14 
  12  -3  -9 26214.5 634.283  21 
  12  -3  10 2528.98 180.913  12 
  12   3  10 2069.65 175.365  12 
 -12   3 -10 2286.99 157.270   6 
  12  -3 -10 2076.98 163.480  11 
 -12   3 -10 2295.88 147.888  16 
 -12  -3 -10 2486.59 158.015  15 
 -12   3 -10 2363.09 159.815  14 
 -12  -3 -10 2422.48 162.900   9 
  12  -3 -10 2051.44 164.184  22 
  12  -3 -10 2213.32 175.477  21 
  12  -3 -11 831.813 101.889  21 
  12  -3  11 1026.20 109.220  12 
  12   3  11 650.551 87.7567  12 
 -12   3 -11 637.090 75.2005  16 
 -12   3 -11 874.480 90.1867   6 
 -12  -3 -11 1032.93 99.0398  15 
 -12   3 -11 755.716 87.6508  14 
 -12  -3 -11 888.323 91.7879   9 
  12  -3  12 1008.91 100.520  12 
 -12   3 -12 966.686 85.6114   6 
 -12   3 -12 1051.69 88.6370  14 
  13   3   0 58.6164 52.5916  18 
  13  -3   0-23.9338 50.2826  27 
  13   3   0 63.5689 79.2041  27 
 -13   3   0-1.19389 37.5301  14 
  13  -3   0-57.0698 56.4644  23 
  13  -3   0 0.31033 63.5095  22 
  13   3   1 4553.29 309.762  12 
  13   3   1 4631.92 346.667  18 
  13   3  -1 4678.02 344.656  18 
 -13   3  -1 4824.93 277.650  14 
  13   3  -1 4715.38 343.604  27 
  13   3   1 5291.35 360.969  27 
  13  -3  -1 4899.07 308.721  23 
  13  -3   1 4853.60 310.338  23 
  13   3   1 4592.06 316.587  23 
  13  -3  -1 4833.88 312.651  22 
  13  -3   1 4553.50 304.178  22 
  13   3  -2 987.868 136.010  20 
  13  -3  -2 1052.01 145.485  18 
  13   3   2 905.720 144.372  12 
  13   3   2 1096.79 172.428  18 
  13   3  -2 1046.25 165.140  18 
  13  -3  -2 988.517 144.694  11 
  13   3  -2 976.084 157.289  27 
  13   3   2 890.700 161.113  27 
 -13   3  -2 857.205 122.406  14 
  13  -3  -2 848.259 131.116  23 
  13  -3   2 1045.07 146.941  23 
  13   3   2 1049.11 154.526  23 
  13  -3  -2 1066.38 152.866  22 
  13  -3   2 957.254 144.572  22 
  13   3  -3 490.450 93.5803  20 
  13  -3   3 510.946 110.546  18 
  13  -3  -3 536.594 104.297  18 
  13   3   3 440.373 104.374  12 
  13   3   3 441.863 105.819  18 
  13   3  -3 481.453 108.612  18 
  13  -3  -3 589.978 111.635  11 
  13   3  -3 503.523 123.858  27 
  13   3   3 916.832 157.143  27 
 -13   3  -3 518.163 97.3864  14 
  13  -3  -3 472.080 97.0100  23 
  13  -3   3 533.250 107.297  23 
  13   3   3 576.361 119.657  23 
  13  -3  -3 569.367 114.429  22 
  13   3   4 7687.52 398.925  12 
  13  -3   4 8646.30 392.566  18 
  13  -3  -4 8236.99 384.399  18 
  13   3   4 7458.33 409.252  18 
  13   3  -4 7492.10 417.106  18 
  13  -3  -4 7180.80 361.294  11 
  13   3  -4 7031.56 392.357  27 
 -13   3  -4 7092.73 325.068  14 
  13  -3  -4 7413.82 353.108  23 
  13  -3   4 7966.79 385.426  23 
  13   3   4 6997.27 403.917  23 
  13  -3  -4 7237.64 360.989  22 
  13  -3   5 2505.47 187.537  12 
  13   3   5 2010.66 214.239  12 
  13  -3   5 2546.21 206.451  18 
  13  -3  -5 2407.51 199.835  18 
  13   3   5 2345.98 223.744  18 
  13   3  -5 2179.08 221.892  18 
  13  -3  -5 2134.06 192.528  11 
  13   3  -5 2369.14 217.105  27 
 -13   3  -5 2179.60 175.908  14 
  13  -3  -5 2098.50 185.602  23 
  13  -3   5 2194.14 195.704  23 
  13   3   5 2292.29 226.246  23 
  13  -3  -5 2219.61 198.835  22 
  13  -3  -6 313.810 83.5278  21 
  13  -3   6 418.690 81.3424  12 
  13   3   6 265.130 82.4693  12 
  13  -3   6 342.336 76.1766  18 
  13  -3  -6 276.107 73.7767  18 
  13   3   6 382.765 94.4265  18 
  13   3  -6 325.960 89.3760  18 
  13  -3  -6 304.004 83.1185  11 
  13   3  -6 396.947 98.7808  27 
 -13   3  -6 335.444 69.8937   6 
 -13   3  -6 341.442 65.9907  14 
  13  -3  -6 340.945 78.9447  23 
  13  -3   6 365.618 83.1567  23 
  13   3   6 432.866 106.877  23 
 -13  -3  -6 411.821 79.9701   9 
  13  -3  -6 316.047 84.4315  22 
  13  -3   7 3192.70 205.101  12 
  13   3   7 2764.67 222.785  12 
  13  -3   7 3162.60 202.534  18 
  13   3  -7 2422.79 203.645  18 
  13  -3  -7 2720.06 204.072  11 
 -13   3  -7 2946.39 184.582   6 
 -13  -3  -7 3046.70 170.688  15 
 -13   3  -7 2908.52 186.158  14 
  13  -3  -7 2404.83 178.114  23 
  13  -3   7 2736.08 210.990  23 
 -13  -3  -7 2909.51 191.787   9 
  13  -3  -7 2806.24 207.365  22 
  13  -3  -7 2635.08 205.698  21 
  13  -3   8 9304.06 341.673  12 
  13   3   8 8922.19 371.141  12 
 -13   3  -8 9545.39 316.805   6 
  13  -3  -8 8071.67 325.147  11 
 -13  -3  -8 8712.89 281.335  15 
 -13   3  -8 8931.34 312.427  14 
  13  -3   8 7273.61 314.317  23 
 -13  -3  -8 9396.56 325.791   9 
  13  -3  -8 7974.11 323.414  22 
  13  -3  -8 8395.85 347.703  21 
  13  -3   9 2910.10 183.413  12 
  13   3   9 2337.24 177.686  12 
  13  -3  -9 2003.11 152.732  11 
 -13   3  -9 2661.34 156.606   6 
 -13  -3  -9 2300.47 138.304  15 
 -13   3  -9 2761.64 162.757  14 
 -13  -3  -9 2501.40 157.624   9 
  13  -3  -9 2101.08 156.179  22 
  13  -3  -9 2307.16 174.787  21 
  13  -3  10 3067.97 175.961  12 
  13   3  10 2578.57 164.583  12 
 -13   3 -10 2818.09 149.404   6 
 -13   3 -10 2782.42 154.935  14 
 -13  -3 -10 3260.28 163.445   9 
  13  -3 -10 2307.51 162.431  21 
  14  -3   0 1281.46 157.252  18 
  14   3   0 1168.11 166.617  18 
  14   3   0 1387.07 179.607  27 
 -14   3   0 995.961 126.318  14 
  14  -3   0 1244.88 148.006  23 
  14  -3   0 1111.95 148.435  22 
  14   3  -1 190.732 64.0630  20 
  14  -3   1 220.952 70.8055  18 
  14  -3  -1 190.890 68.4770  18 
  14   3   1 248.462 92.6933  18 
  14   3  -1 170.899 69.7372  18 
  14  -3  -1 157.703 60.6733  27 
  14   3  -1 162.101 82.7767  27 
  14   3   1 343.902 92.7873  27 
 -14   3   1 189.720 62.1458  14 
 -14   3  -1 192.395 57.9203  14 
  14  -3  -1 71.4765 46.8786  23 
  14  -3   1 174.746 62.5233  23 
  14  -3  -1 234.252 80.2509  22 
  14  -3   2 248.973 77.2801  18 
  14  -3  -2 217.286 70.3242  18 
  14   3   2 146.288 66.0883  18 
  14   3  -2 158.012 63.9214  18 
  14  -3  -2 255.377 74.3950  27 
  14   3  -2 309.021 102.700  27 
  14   3   2 226.803 80.5464  27 
 -14   3  -2 194.210 59.0994  14 
  14  -3  -2 230.525 67.9439  23 
  14  -3   2 250.019 73.7591  23 
  14  -3  -2 166.045 70.2335  22 
  14  -3   3 133.102 57.6724  18 
  14  -3  -3 172.095 62.4542  18 
  14   3   3 83.1864 47.5636  12 
  14   3   3 95.2315 47.8005  18 
  14   3  -3 137.966 72.8919  18 
  14  -3  -3 47.3839 45.7261  27 
  14   3  -3 96.6380 59.4811  27 
 -14   3  -3 82.8750 40.4458  14 
  14  -3  -3 95.5678 44.4111  23 
  14  -3   3 58.8444 42.3353  23 
  14  -3  -3 114.523 50.4853  22 
  14  -3   4 33.6478 33.3168  18 
  14  -3  -4 9.32059 33.9881  18 
  14   3   4 60.6757 41.5660  12 
  14   3   4-0.88538 40.4083  18 
  14   3  -4 42.7448 49.9862  18 
  14   3  -4 77.0866 62.1922  27 
 -14   3  -4 10.2963 26.4754  14 
  14  -3  -4-36.0412 43.4215  23 
  14  -3   4-2.50641 42.5126  23 
  14  -3  -4 10.9174 45.0549  22 
  14   3   5 2035.51 184.433  12 
  14  -3   5 2378.10 180.451  18 
  14  -3  -5 2076.69 172.347  18 
  14   3   5 2275.00 194.617  18 
  14   3  -5 2189.70 196.882  18 
 -14   3  -5 2370.99 155.477   6 
  14   3  -5 2171.78 188.774  27 
 -14   3  -5 2307.50 159.602  14 
  14  -3  -5 2147.84 169.956  23 
  14  -3   5 2048.94 174.769  23 
 -14  -3  -5 2540.68 171.660   9 
  14  -3  -5 2219.96 181.061  22 
  14   3   6 7606.50 334.566  12 
  14  -3   6 7746.45 303.249  18 
  14   3   6 6522.66 300.378  18 
  14   3  -6 6755.92 321.038  18 
 -14   3  -6 7581.00 265.329   6 
 -14   3  -6 8156.57 286.642  14 
  14  -3  -6 6642.70 276.025  23 
  14  -3   6 6806.69 310.858  23 
 -14  -3  -6 8223.69 294.307   9 
  14  -3  -6 6841.91 297.657  22 
  14   3   7 7621.51 318.004  12 
 -14   3  -7 7592.05 253.057   6 
 -14   3  -7 7388.31 260.731  14 
  14  -3   7 6615.81 284.665  23 
 -14  -3  -7 7608.59 271.511   9 
  14   3   8 9283.08 329.189  12 
 -14  -3  -8 9269.27 278.230   9 
 -14   3  -8 8948.73 272.510  14 
  15  -3   0 25.3875 39.0839  18 
  15   3   0 40.2239 44.1232  18 
  15   3   0 39.6504 55.0648  27 
 -15   3   0 23.3176 24.0759  14 
  15  -3   0 8.58053 38.3016  23 
  15   3   1-34.9197 36.3959  20 
  15  -3   1 45.4655 40.3997  18 
  15  -3  -1-18.5121 29.6473  18 
  15   3   1 21.5847 35.1615  18 
  15   3  -1-58.0312 48.6499  18 
  15   3  -1 85.8013 55.0648  27 
 -15   3   1 18.1050 26.9176  14 
 -15   3  -1-34.5659 32.9779  14 
  15  -3  -1-35.5871 42.6611  23 
  15  -3   1 18.0794 37.2578  23 
  15  -3   2 69.4231 43.8875  18 
  15  -3  -2 48.1028 41.2736  18 
  15   3   2 16.3128 36.3758  18 
  15   3  -2 26.3422 41.0477  18 
  15   3  -2 113.354 60.6913  27 
 -15   3   2 28.0198 26.9583  14 
 -15   3  -2 20.9149 26.2007  14 
  15  -3  -2 67.2100 37.6473  23 
  15  -3   2-65.5593 50.2497  23 
  15  -3   3-36.7163 29.7462  18 
  15  -3  -3 27.9901 36.0447  18 
  15   3   3 27.5696 33.9252  18 
  15   3  -3 20.8267 40.4765  18 
  15   3  -3 18.1927 41.7291  27 
 -15   3   3 16.2294 25.7723  14 
 -15   3  -3-3.80581 24.0704  14 
  15  -3  -3 51.7291 41.0750  23 
  15  -3   3 20.7922 38.7837  23 
 -15  -3  -3 30.8057 33.5691   9 
  15  -3   4 4722.35 232.512  18 
  15   3   4 4401.51 245.790  18 
  15   3  -4 4719.04 267.778  18 
 -15   3   4 3833.43 186.979  14 
 -15   3  -4 4602.48 199.954  14 
  15  -3   4 4664.28 245.304  23 
 -15  -3  -4 5424.68 221.995   9 
 -15   3  -5 5029.70 199.039  14 
  15  -3   5 4534.72 229.065  23 
   0   4   0 48411.4 824.256  20 
   0   4   0 48189.4 1438.65   2 
   0   4   0 47562.1 1439.10   3 
   0   4   0 51764.6 781.384  13 
   0  -4   0 50204.5 1421.70   1 
   0   4   1 135.782 48.4545  20 
   0   4  -1 212.923 58.5731  20 
   0   4  -1 138.765 88.8412   3 
   0  -4  -1 80.2385 66.5383   1 
   0  -4   1 100.813 81.7559   1 
   0   4   1 107.196 43.7795  10 
   0   4  -1 55.3743 71.5083   2 
   0   4  -1 93.8776 39.0664  10 
   0   4   1 194.009 49.0935  13 
   0   4  -1 130.102 39.5665  13 
   0   4  -2 34.1427 35.0693  20 
   0  -4   2 59.8759 38.6795  19 
   0   4  -2 34.6355 86.9551   3 
   0  -4  -2 44.7808 34.1530  15 
   0  -4   2 24.3629 64.4549   1 
   0   4   2 136.879 49.2265  10 
   0   4  -2-64.4007 75.1452   2 
   0   4  -2 40.6298 31.2440  10 
   0   4   2 55.7641 31.2376  13 
   0   4  -2 69.4799 31.4654  13 
   0  -4  -2 55.0161 70.7147   1 
   0   4  -3 72833.9 1086.98  20 
   0  -4   3 63911.1 1513.66   1 
   0  -4   3 68171.0 849.824  19 
   0  -4  -3 66517.6 1763.14   1 
   0   4  -3 68318.6 1773.54   3 
   0   4   3 69152.6 995.434  10 
   0  -4  -3 69764.9 858.858  15 
   0   4  -3 66221.7 1759.33   2 
   0   4  -3 67302.3 960.032  10 
   0  -4  -3 65254.6 829.514  22 
   0   4   3 68550.9 938.418  13 
   0  -4  -3 67519.8 831.267   9 
   0   4  -3 68468.2 928.960  13 
   0   4  -4 123855. 1513.51  20 
   0  -4   4 123004. 2186.12   1 
   0   4  -4 120698. 2455.71   3 
   0   4  -4 120937. 1353.04  26 
   0   4   4 119645. 1407.39  10 
   0  -4  -4 113778. 1213.69  15 
   0   4  -4 123534. 2496.49   2 
   0   4  -4 124865. 1399.20  10 
   0  -4  -4 117104. 2447.38   1 
   0   4   4 118722. 1323.11  13 
   0  -4  -4 120870. 1225.44   9 
   0   4  -4 118518. 1307.10  13 
   0   4  -5 34391.8 776.092  20 
   0  -4   5 34884.6 1156.24   1 
   0   4  -5 36122.2 1370.65   3 
   0   4  -5 32683.0 676.740  26 
   0  -4  -5 32724.5 677.530  16 
   0   4   5 34152.3 722.560  10 
   0  -4  -5 30383.0 600.301  15 
   0   4  -5 36894.0 1394.98   2 
   0  -4  -5 37283.3 1390.36   1 
   0   4   5 34426.0 675.095  13 
   0  -4  -5 37722.6 656.734   9 
   0   4  -5 34251.6 660.564  13 
   0   4  -5 32198.3 743.564   8 
   0   4  -6 188.795 63.1253  20 
   0   4  -6 189.782 61.8426   8 
   0  -4  -6 227.829 57.1941  15 
   0   4  -6 216.079 68.9632  17 
   0  -4  -6 151.699 51.9542  16 
   0  -4  -6 136.366 98.8333   1 
   0   4  -6 162.679 115.905   3 
   0   4  -6 224.271 63.4676  26 
   0   4  -6 224.153 59.4615  25 
   0   4  -6 212.956 61.3810  24 
   0   4   6 199.318 61.9276  10 
   0   4  -6 205.358 147.425   2 
   0  -4  -6 174.411 49.1863   9 
   0   4   6 190.726 55.5682  13 
   0   4  -6 239.598 60.9063  13 
   0   4  -7 148.579 63.1862  20 
   0   4  -7 169.510 62.1625   8 
   0  -4  -7 264.488 66.5696  16 
   0   4  -7 185.429 62.1509  17 
   0   4  -7 107.240 38.3088  26 
   0   4  -7 128.553 55.0287  25 
   0  -4  -7 112.670 40.9769  15 
   0   4  -7 159.269 56.8774  24 
   0   4   7 213.698 60.9404  10 
   0  -4  -7 161.829 52.6852   9 
   0   4   7 123.235 43.6386  13 
   0   4  -7 148.446 54.3434  13 
   0   4  -8 7086.02 362.596   8 
   0   4  -8 7153.37 384.740  20 
   0   4  -8 7736.94 341.316  17 
   0   4  -8 7412.28 349.569  26 
   0  -4  -8 7220.46 344.326  16 
   0   4   8 7368.32 359.712  10 
   0   4  -8 7649.34 331.341  25 
   0  -4  -8 7359.47 329.490  15 
   0   4  -8 7368.79 325.113  24 
   0   4   8 7143.89 320.441  13 
   0  -4  -8 7637.00 329.396   9 
   0   4  -9 1658.72 181.859   8 
   0   4  -9 1662.49 199.156  20 
   0  -4  -9 1707.99 175.245  16 
   0  -4   9 1807.34 165.109   7 
   0   4  -9 1739.73 164.029  24 
   0   4  -9 2118.51 188.788  26 
   0   4  -9 1839.01 172.986  17 
   0   4   9 1674.17 179.758  10 
   0   4  -9 1793.60 161.324  25 
   0  -4  -9 1819.43 166.677  15 
   0  -4  -9 1617.29 159.059   9 
   0   4 -10 13465.2 504.786   8 
   0   4 -10 13177.7 551.167  20 
   0  -4 -10 12768.7 486.071  16 
   0   4 -10 13425.3 479.082  17 
   0   4  10 12678.9 501.429  10 
   0  -4 -10 14386.8 482.548  15 
   0   4 -10 12855.0 450.641  24 
   0   4 -10 13064.9 456.425  25 
   0   4 -10 13634.7 500.251  26 
   0   4 -11 4338.45 285.377   8 
   0   4  11 4165.57 290.093  10 
   0   4 -11 4431.53 281.210  17 
   0   4 -11 4616.27 240.223  16 
   0  -4 -11 3888.60 274.447  16 
   0   4 -11 4318.44 289.087  26 
   0  -4 -11 4081.49 261.539  15 
   0   4 -11 4338.27 264.677  25 
   0   4 -11 4487.23 268.131  24 
   0  -4 -12 4521.24 253.117  19 
   0   4 -12 4848.69 299.606   8 
   0   4 -12 4016.10 279.519  26 
   0   4 -12 4760.06 288.594  17 
   0  -4 -12 4040.76 280.179  16 
   0   4 -12 4165.48 258.773  25 
   0  -4 -12 3969.41 261.411  15 
   0   4 -12 4174.99 258.923  24 
   0   4  12 3937.34 286.028  10 
   0   4  13 13816.9 453.419  13 
   0   4 -13 15134.8 505.383  17 
   0   4  13 15319.6 547.870  10 
   0   4 -13 15617.4 540.494  26 
   0  -4 -13 15241.6 536.106  16 
   0   4 -13 15268.5 496.015  25 
   0  -4 -13 15443.7 506.943  15 
   0   4 -13 15530.1 502.954  24 
   0  -4  14 713.749 109.009  12 
   0   4 -14 792.538 112.511  17 
   0   4 -14 673.760 101.695  25 
   0   4 -14 693.684 113.189  26 
   0  -4 -14 666.568 117.301  16 
   0  -4 -14 671.393 105.436  15 
   0   4  14 763.229 119.056  10 
   0   4 -14 654.625 100.560  24 
   0  -4  15 14090.8 426.905  12 
   0   4 -15 15970.2 478.847  17 
   0  -4 -15 15198.5 495.641  16 
   0   4 -15 15120.0 490.443  26 
   0   4  15 14282.4 478.856  10 
   0   4 -15 15250.6 456.885  25 
   0  -4 -15 13617.3 446.042  15 
   0   4 -15 15212.8 457.790  24 
   0   4 -16 10596.7 355.243  17 
   0  -4 -16 10212.4 375.079  16 
   0   4 -16 10458.9 376.241  26 
   0   4  16 10885.0 378.700  10 
   0   4 -16 10426.2 349.156  25 
   0  -4 -16 9929.93 344.753  15 
   0   4 -16 10624.4 352.040  24 
   0  -4 -16 10889.5 360.835  22 
   0   4 -17 1766.96 139.316  26 
   0   4 -17 1873.96 130.430  25 
   0  -4 -17 1936.63 137.024  15 
   0   4 -17 1892.83 131.356  24 
   0  -4 -17 1791.87 132.517  22 
   1   4   0 56.7853 38.0226  20 
  -1   4   0-7.16184 30.4325  20 
   1   4   0-12.7289 83.6780   3 
  -1   4   0 43.0598 81.9325   3 
  -1  -4   0 29.5331 77.7517   1 
   1  -4   0 149.777 100.199   1 
   1   4   0 29.2889 85.9332   2 
  -1   4   0 13.5477 62.2287   2 
   1   4   0 7.28946 23.4684  10 
  -1   4   0-47.5826 23.3252  10 
  -1   4   0 22.3180 24.8099  13 
   1   4   0-16.1394 27.1874  13 
   1   4   1 2382.42 175.345  20 
   1   4  -1 2191.13 176.296  20 
  -1   4  -1 2360.97 173.379  20 
   1  -4   1 2400.85 151.697  19 
   1   4  -1 2402.38 326.919   3 
  -1   4  -1 2320.73 314.776   3 
  -1   4  -1 2082.85 294.527   2 
   1   4   1 2609.37 180.347  10 
  -1   4   1 2451.47 166.938  10 
   1   4  -1 2220.77 166.860  10 
  -1   4  -1 2493.35 166.416  10 
   1   4  -1 2010.70 290.972   2 
  -1   4   1 2152.88 157.231  13 
  -1  -4  -1 2407.19 312.949   1 
   1   4   1 2242.14 149.766  13 
  -1   4  -1 2201.45 156.599  13 
   1   4  -1 2088.47 146.420  13 
   1  -4  -1 2397.01 321.400   1 
  -1  -4   1 2127.18 272.056   1 
   1  -4   1 2171.83 295.718   1 
   1  -4   2 24381.5 960.546   1 
   1   4  -2 24253.4 599.154  20 
   1  -4  -2 24695.5 475.816  15 
  -1   4  -2 25100.4 596.165  20 
  -1   4   2 27385.7 577.666  10 
   1  -4   2 23342.2 483.366  19 
   1  -4  -2 23387.2 464.977  11 
   1   4  -2 25415.5 1087.80   3 
  -1   4  -2 23560.6 1003.15   3 
   1   4   2 25143.4 583.657  10 
   1   4  -2 23868.8 1050.02   2 
  -1   4  -2 25199.5 1038.31   2 
  -1   4  -2 25492.1 548.987  10 
   1   4  -2 22029.5 531.660  10 
   1  -4  -2 24381.1 474.465  22 
  -1  -4  -2 23285.6 988.916   1 
  -1   4   2 23721.0 536.144  13 
   1   4   2 24356.6 509.964  13 
  -1   4  -2 24423.7 534.937  13 
   1  -4  -2 25735.0 1075.33   1 
   1   4  -2 24334.9 513.617  13 
  -1  -4   2 22618.9 867.910   1 
   1   4  -3 30657.2 694.246  20 
  -1   4  -3 29223.7 670.723  20 
  -1  -4   3 28368.6 948.779   1 
   1  -4   3 29037.5 1056.38   1 
   1  -4   3 31729.2 563.987  19 
   1   4  -3 30597.4 1196.81   3 
  -1   4  -3 27962.1 1100.03   3 
   1   4  -3 28800.5 1171.88   2 
  -1   4   3 29820.0 620.398  10 
  -1  -4  -3 31479.4 548.965  15 
   1  -4  -3 32293.5 565.990  15 
   1   4  -3 29284.6 621.308  10 
  -1   4  -3 29784.9 1140.90   2 
  -1   4  -3 29512.2 603.305  10 
   1   4   3 29299.5 643.711  10 
  -1  -4  -3 30428.0 1168.27   1 
   1  -4  -3 29932.7 546.468  22 
  -1  -4  -3 28189.1 521.035   9 
  -1   4   3 29466.0 615.135  13 
   1   4   3 30250.9 581.508  13 
   1  -4  -3 32377.5 1232.38   1 
  -1   4  -3 29846.1 603.212  13 
   1   4  -3 30329.3 586.922  13 
   1   4  -4 8633.16 373.978  20 
  -1   4  -4 8679.22 369.362  20 
  -1  -4   4 8183.31 515.545   1 
   1  -4   4 8138.18 575.193   1 
   1   4  -4 7971.17 624.582   3 
  -1   4  -4 7615.92 595.805   3 
  -1   4  -4 8052.13 313.342  26 
   1   4   4 8135.64 344.802  10 
  -1   4   4 8945.90 341.420  10 
  -1  -4  -4 9303.29 307.954  15 
   1  -4  -4 8155.90 288.617  15 
   1   4  -4 8342.06 333.665  10 
   1   4  -4 8073.35 634.311   2 
  -1   4  -4 8062.84 316.885  10 
  -1   4  -4 7618.34 599.903   2 
  -1  -4  -4 7630.13 606.689   1 
   1  -4  -4 7504.76 276.883  22 
  -1  -4  -4 9034.43 302.062   9 
  -1   4   4 7952.01 320.540  13 
   1   4   4 8393.47 303.092  13 
   1  -4  -4 9503.78 682.304   1 
   1  -4  -4 8273.31 279.752   9 
  -1   4  -4 8379.97 315.625  13 
   1   4  -4 8587.30 307.599  13 
   1   4  -5 20785.8 603.979  20 
  -1   4  -5 20920.9 600.140  20 
   1   4  -5 21081.3 544.950  26 
  -1  -4  -5 20990.5 527.725  16 
   1  -4   5 20519.7 930.716   1 
   1   4  -5 23195.9 1111.12   3 
  -1   4  -5 21669.3 1039.38   3 
   1   4   5 21177.5 576.298  10 
  -1   4   5 23045.4 573.989  10 
   1   4  -5 21365.8 502.504  25 
  -1  -4  -5 20853.6 490.956  15 
   1  -4  -5 19994.7 479.730  15 
   1   4  -5 21325.7 501.841  24 
   1   4  -5 23218.4 578.823  10 
  -1   4  -5 21986.6 537.059  26 
   1   4  -5 22948.6 1112.19   2 
  -1   4  -5 21846.0 1056.35   2 
   1  -4  -5 20841.4 1052.74   1 
  -1   4   5 21180.5 537.697  13 
  -1  -4  -5 22952.0 510.612   9 
   1   4   5 21439.3 507.756  13 
   1  -4  -5 21077.6 481.101   9 
  -1   4  -5 20537.3 512.918  13 
   1   4  -5 20981.5 503.849  13 
  -1   4  -5 21239.6 603.375   8 
   1  -4  -6 4729.21 267.762  16 
   1   4  -6 4835.64 303.606  20 
  -1   4  -6 4962.19 302.137  20 
   1  -4   6 4821.77 470.749   1 
  -1   4  -6 5194.08 276.472  17 
   1   4  -6 4923.48 269.226  17 
   1   4   6 5810.64 728.746   1 
   1   4  -6 5195.65 554.463   3 
  -1   4  -6 4821.14 522.615   3 
  -1   4  -6 4893.71 261.123  26 
  -1  -4  -6 4995.54 259.336  16 
   1   4   6 5428.10 294.883  10 
  -1   4   6 5025.69 270.888  10 
  -1   4  -6 4875.80 250.307  25 
   1   4  -6 5075.99 246.139  25 
  -1  -4  -6 5327.99 252.542  15 
   1  -4  -6 5284.37 250.396  15 
  -1   4  -6 4980.63 253.956  24 
   1   4  -6 5063.55 247.833  24 
   1   4  -6 5125.24 556.178   2 
   1   4  -6 5058.23 270.368  26 
  -1   4  -6 4739.96 518.780   2 
   1  -4  -6 5030.92 566.327   1 
  -1   4   6 4816.40 262.604  13 
   1   4   6 5213.89 254.005  13 
  -1  -4  -6 4417.43 231.312   9 
   1  -4  -6 5529.79 254.458   9 
  -1   4  -6 4792.84 253.376  13 
   1   4  -6 4753.03 242.484  13 
   1   4  -6 4869.34 284.665   8 
  -1   4  -6 4578.03 280.770   8 
  -1   4  -7 11362.6 447.853   8 
   1   4  -7 11214.4 466.886  20 
  -1   4  -7 11734.0 479.305  20 
  -1   4  -7 11301.3 394.013  24 
  -1   4  -7 11737.6 425.816  17 
   1   4  -7 11021.8 403.861  17 
  -1  -4  -7 11494.9 404.622  16 
   1   4  -7 10971.1 419.689  26 
   1  -4  -7 11458.3 420.335  16 
   1   4   7 10573.7 427.218  10 
  -1   4   7 9785.33 392.710  10 
  -1   4  -7 10749.1 384.066  25 
  -1  -4  -7 10825.6 381.366  15 
   1  -4  -7 11004.7 383.506  15 
   1   4  -7 11328.2 384.100  25 
   1   4  -7 11557.4 387.333  24 
  -1   4   7 10758.7 400.142  13 
   1   4   7 11541.9 383.287  13 
  -1  -4  -7 10957.4 380.671   9 
  -1   4  -7 11191.5 410.948  26 
  -1   4  -7 11240.0 394.587  13 
   1   4  -7 10804.6 428.245   8 
   1   4  -8 28448.0 717.529   8 
  -1   4  -8 28837.7 740.870   8 
   1   4  -8 27708.3 767.664  20 
  -1   4  -8 28440.3 775.822  20 
  -1   4  -8 28723.4 658.960  25 
  -1   4  -8 29220.8 696.570  17 
   1   4  -8 30816.0 683.533  17 
  -1   4  -8 28786.2 689.167  26 
  -1  -4  -8 29226.3 674.679  16 
   1  -4  -8 28258.1 690.467  16 
   1   4   8 31256.8 768.145  10 
  -1   4   8 26924.5 687.806  10 
  -1  -4  -8 33382.8 703.015  15 
   1  -4  -8 26965.3 634.855  15 
  -1   4  -8 28613.2 658.565  24 
   1   4  -8 29055.8 646.402  24 
   1   4   8 29209.1 635.346  13 
  -1  -4  -8 27094.6 636.012   9 
   1   4  -8 29060.1 644.736  25 
   1   4  -8 28021.7 699.616  26 
   1   4  -9 3223.25 241.097   8 
  -1   4  -9 3012.52 244.414   8 
   1   4  -9 3300.56 267.444  20 
  -1   4  -9 2910.15 252.344  20 
  -1   4  -9 3025.34 215.290  25 
   1  -4   9 3432.68 228.038   7 
  -1   4  -9 3356.41 234.078  17 
   1   4  -9 3385.05 225.007  17 
  -1  -4  -9 3287.28 235.685  16 
  -1   4  -9 3360.54 235.232  26 
   1  -4  -9 2693.90 222.217  16 
   1   4   9 3371.82 253.441  10 
  -1   4   9 3258.04 246.963  10 
   1   4  -9 3206.47 214.284  25 
  -1  -4  -9 3346.68 225.885  15 
   1  -4  -9 3256.19 221.937  15 
  -1   4  -9 3122.28 217.672  24 
   1   4   9 3131.67 206.907  13 
  -1  -4  -9 3116.58 218.756   9 
   1   4  -9 3217.82 214.605  24 
   1   4  -9 3957.01 260.134  26 
   1   4 -10 6375.72 338.427   8 
   1   4 -10 5993.37 372.905  20 
  -1   4 -10 6639.50 362.243   8 
  -1   4  10 5807.17 332.609  10 
   1   4 -10 6843.45 354.842  26 
   1  -4  10 6227.77 306.921   7 
  -1   4 -10 6599.16 336.500  17 
  -1   4 -10 6207.11 316.647  25 
   1   4 -10 6363.57 317.822  17 
  -1  -4 -10 5839.00 322.449  16 
   1  -4 -10 5587.69 332.864  16 
  -1   4 -10 6470.91 342.538  26 
   1   4  10 6092.12 354.299  10 
  -1  -4 -10 6948.92 338.385  15 
   1  -4 -10 6169.36 317.711  15 
   1   4 -10 6382.48 311.812  24 
   1   4  10 6032.75 291.406  13 
  -1  -4 -10 6288.79 320.337   9 
  -1   4 -10 5750.55 306.502  24 
   1   4 -10 6301.22 308.825  25 
   1   4 -11 7867.95 377.482   8 
  -1   4 -11 8171.22 404.917   8 
   1  -4 -11 8272.40 350.901  19 
  -1   4 -11 8063.06 364.460  24 
   1   4 -11 8224.26 359.140  24 
  -1   4 -11 8298.13 390.727  17 
   1   4 -11 8439.73 374.459  17 
  -1  -4 -11 8120.93 387.368  16 
   1  -4 -11 7442.55 388.779  16 
   1   4  11 8739.21 427.559  10 
  -1   4 -11 7854.33 381.581  26 
  -1   4  11 7963.56 391.201  10 
  -1   4 -11 8054.84 364.141  25 
   1   4 -11 8266.04 362.453  25 
  -1  -4 -11 7712.90 362.539  15 
   1  -4 -11 8104.69 369.221  15 
   1   4 -11 8155.67 397.037  26 
   1   4  11 8047.15 342.086  13 
  -1  -4 -11 7801.36 366.588   9 
   1  -4 -12 4482.21 249.325  19 
  -1   4 -12 4851.14 304.791   8 
  -1  -4 -12 4456.72 289.684  16 
  -1   4 -12 4764.83 296.936  17 
   1   4 -12 4604.55 273.367  17 
  -1   4 -12 4501.62 272.597  25 
  -1   4 -12 4765.44 251.714  16 
   1  -4 -12 4013.18 287.835  16 
   1   4 -12 4531.63 299.012  26 
  -1   4 -12 4612.64 299.061  26 
  -1   4  12 4614.16 298.439  10 
   1   4 -12 4324.85 260.953  25 
  -1  -4 -12 3847.44 261.410  15 
   1  -4 -12 4302.01 271.341  15 
  -1   4 -12 4445.14 270.522  24 
   1   4 -12 4394.44 265.539  24 
   1   4  12 4214.78 300.640  10 
  -1  -4 -13 10130.3 366.334  19 
  -1   4 -13 9904.60 418.557  17 
   1   4 -13 9894.54 398.570  17 
  -1   4 -13 10132.1 363.623  16 
  -1  -4 -13 9319.51 411.544  16 
   1  -4 -13 9108.94 423.607  16 
   1   4  13 9776.58 447.843  10 
   1   4 -13 9890.07 432.031  26 
  -1   4 -13 10136.2 428.691  26 
  -1   4 -13 9753.66 395.535  25 
   1   4 -13 9640.18 390.831  25 
   1  -4 -13 9664.67 403.127  15 
  -1   4 -13 9536.88 394.612  24 
   1   4 -13 9470.53 388.490  24 
  -1   4  13 9748.25 423.272  10 
   1  -4  14 152.132 57.1123  12 
  -1   4 -14 139.365 62.8870  17 
   1   4 -14 167.887 58.3242  17 
  -1   4 -14 129.566 47.5275  16 
   1   4 -14 74.3957 41.0790  26 
  -1   4 -14 152.158 60.6527  26 
  -1  -4 -14 128.707 60.9492  16 
   1  -4 -14 136.380 70.8050  16 
  -1   4 -14 171.889 63.8849  25 
   1   4 -14 153.948 60.9249  25 
  -1  -4 -14 168.021 71.3038  15 
   1   4  14 160.701 57.2049  10 
  -1   4  14 110.398 61.0511  10 
  -1   4 -14 71.2043 41.5210  24 
   1   4 -14 90.6802 47.6665  24 
   1  -4 -14 179.330 62.6616  15 
   1  -4 -14 156.593 65.5272  22 
  -1   4  14 157.557 59.1236  13 
  -1  -4  15 2647.15 180.855  12 
   1  -4  15 2620.06 185.382  12 
  -1   4 -15 2906.98 206.856  17 
   1   4 -15 2891.40 193.593  17 
  -1  -4 -15 2446.71 198.341  16 
   1  -4 -15 2701.01 212.202  16 
  -1   4 -15 2873.31 207.842  26 
   1   4  15 2713.40 209.734  10 
  -1   4  15 2815.96 204.253  10 
   1   4 -15 2868.51 195.786  25 
  -1   4 -15 2858.25 196.813  25 
  -1  -4 -15 2778.59 199.848  15 
   1  -4 -15 2726.13 198.260  15 
  -1   4 -15 2813.26 196.870  24 
   1   4 -15 2943.80 197.604  24 
   1   4 -15 2865.66 211.186  26 
   1  -4 -15 2988.65 200.917  22 
  -1   4  15 2308.10 172.727  13 
  -1  -4 -16 4640.84 246.228  16 
  -1   4 -16 4833.79 245.458  17 
   1   4 -16 4499.69 247.877  26 
  -1   4 -16 4405.17 240.769  26 
   1   4  16 4682.23 254.591  10 
  -1   4  16 4698.87 236.442  10 
  -1   4 -16 4531.38 226.158  25 
  -1   4 -16 4610.55 228.402  24 
   1   4 -16 4420.41 226.259  24 
   1  -4 -16 4206.46 224.137  15 
  -1  -4 -16 5493.88 252.875  22 
   1  -4 -16 4647.62 236.988  22 
  -1  -4 -16 4315.27 224.840  15 
   1   4 -16 4244.03 221.518  25 
   1  -4 -17 6600.21 251.824  11 
   1   4 -17 6191.08 261.071  26 
  -1   4 -17 5667.26 242.424  26 
   1   4  17 5834.71 248.273  10 
  -1   4 -17 6633.71 246.230  25 
   1   4 -17 6381.11 244.862  25 
  -1  -4 -17 6163.75 236.865  15 
   1  -4 -17 6595.70 244.765  15 
  -1   4 -17 6544.36 246.125  24 
   1   4 -17 6342.33 244.642  24 
  -1  -4 -17 6584.74 249.467  22 
   1  -4 -17 6931.46 257.080  22 
   2  -4   0 345.415 61.0553  19 
   2   4   0 470.148 105.442  18 
   2   4   0 354.341 133.914   3 
  -2   4   0 396.862 132.157   3 
  -2  -4   0 493.435 132.990   1 
   2  -4   0 370.925 129.265   1 
   2   4   0 429.345 156.825   2 
  -2   4   0 439.628 134.758   2 
   2   4   0 398.676 73.8396  10 
  -2   4   0 441.709 69.4546  10 
  -2   4   0 445.013 72.6252  13 
   2   4   0 403.835 61.1992  13 
   2  -4   1 9600.58 623.693   1 
   2   4  -1 10460.0 389.563  20 
  -2   4  -1 11121.8 379.932  20 
   2  -4  -1 10696.4 343.865  19 
   2  -4   1 10954.1 337.754  19 
   2   4   1 10121.8 451.296  18 
   2   4  -1 9848.88 443.224  18 
  -2   4   1 9940.77 643.223   3 
   2  -4  -1 9813.62 305.813  11 
   2   4  -1 7635.25 591.685   3 
  -2   4  -1 11954.0 691.874   3 
  -2   4   1 9366.90 624.317   2 
   2   4  -1 7737.04 589.496   2 
   2   4   1 10651.1 374.963  10 
  -2   4  -1 10546.9 646.421   2 
  -2   4   1 10740.2 343.482  10 
   2   4  -1 10681.8 368.230  10 
  -2   4  -1 10722.5 337.713  10 
   2  -4  -1 11992.7 329.053  15 
   2  -4  -1 10071.9 306.766  22 
  -2  -4  -1 11261.5 665.005   1 
  -2   4   1 9949.39 347.698  13 
  -2   4  -1 10475.6 354.087  13 
   2   4   1 10458.8 314.816  13 
   2   4  -1 10659.3 319.533  13 
  -2  -4   1 10966.5 616.207   1 
   2  -4  -1 10464.0 683.043   1 
   2   4  -2 368.731 75.3592  20 
  -2   4  -2 379.007 81.4012  20 
   2  -4  -2 346.781 71.8833  19 
   2  -4   2 312.254 57.4658  19 
   2   4   2 377.198 93.0655  18 
   2   4  -2 363.922 92.5624  18 
   2  -4  -2 305.934 56.8595  11 
   2   4  -2 277.418 121.031   3 
  -2  -4  -2 360.805 130.569   1 
  -2   4  -2 270.782 110.761   3 
   2  -4  -2 421.657 153.150   1 
  -2  -4   2 356.215 122.746   1 
   2  -4  -2 327.681 59.6595  15 
   2   4   2 346.274 73.7554  10 
   2  -4   2 282.925 113.285   1 
  -2   4   2 310.327 65.0543  10 
   2   4  -2 266.435 118.335   2 
   2   4  -2 306.032 64.5619  10 
  -2   4  -2 281.835 116.915   2 
  -2   4  -2 302.280 55.7092  10 
   2  -4  -2 332.778 62.6527  22 
  -2  -4  -2 305.867 52.6546   9 
  -2   4   2 376.051 74.2590  13 
   2   4   2 336.951 60.5645  13 
  -2   4  -2 315.367 66.2373  13 
   2   4  -2 313.009 59.8460  13 
   2   4  -3 62088.9 1027.77  20 
  -2  -4   3 54837.6 1262.71   1 
  -2   4  -3 64687.1 1011.89  20 
   2  -4   3 60328.6 818.063  19 
   2  -4   3 55301.5 1556.40   1 
   2   4   3 58015.0 947.965  10 
   2   4   3 60992.4 1123.77  18 
   2   4  -3 61112.8 1121.92  18 
   2   4  -3 52676.0 1608.19   3 
  -2   4  -3 64669.0 1672.59   3 
   2   4  -3 58610.4 800.085  25 
  -2   4   3 70068.1 949.116  10 
  -2  -4  -3 52082.5 746.883  15 
   2   4  -3 52629.2 1617.92   2 
   2  -4  -3 59740.2 815.341  15 
   2   4  -3 62054.6 941.104  10 
   2   4  -3 58713.3 803.239  24 
  -2   4  -3 70747.2 1760.37   2 
  -2   4  -3 53937.7 834.109  10 
  -2  -4  -3 58997.1 1642.10   1 
  -2  -4  -3 61882.7 818.320   9 
   2  -4  -3 58073.5 814.670  22 
  -2   4   3 59285.8 917.293  13 
  -2   4  -3 59217.9 893.338  13 
   2  -4  -3 60536.1 1729.68   1 
   2   4  -3 60768.8 835.365  13 
   2   4  -4 39480.0 833.263  20 
  -2   4  -4 39979.2 818.628  20 
   2  -4   4 37325.1 622.117  19 
   2  -4   4 41911.1 1378.09   1 
   2   4  -4 37068.0 1380.96   3 
  -2   4  -4 36220.1 1302.43   3 
   2   4   4 45524.5 1890.01   1 
  -2   4  -4 38473.7 703.323  26 
   2   4   4 38785.1 781.572  10 
  -2  -4  -4 38757.3 647.727  15 
  -2   4   4 37028.3 702.975  10 
   2  -4  -4 39817.1 681.404  15 
   2   4  -4 41127.1 669.192  24 
   2   4  -4 40061.1 763.502  10 
  -2   4  -4 37790.7 1335.99   2 
   2   4  -4 40057.7 658.325  25 
  -2  -4  -4 41909.3 681.741   9 
   2  -4  -4 40002.3 680.652  22 
  -2   4   4 37386.3 739.169  13 
   2  -4  -4 38114.3 1414.84   1 
  -2   4  -4 40507.6 734.290  13 
   2   4  -4 39551.2 675.425  13 
   2   4  -4 37671.0 1400.67   2 
  -2   4  -4 36049.6 793.074   8 
   2   4  -5 730.455 113.210  20 
  -2   4  -5 633.355 103.754  20 
  -2   4  -5 627.632 105.563   8 
   2  -4  -5 561.217 82.5299  15 
  -2   4  -5 601.318 94.8734  17 
   2   4  -5 562.932 94.6322  17 
   2  -4  -5 585.226 205.858   1 
   2   4  -5 554.129 207.113   3 
  -2   4  -5 507.577 179.695   3 
   2   4  -5 584.819 87.6385  26 
   2   4   5 651.583 264.761   1 
  -2   4  -5 609.258 90.2427  26 
  -2  -4  -5 456.544 80.1611  16 
   2   4  -5 678.716 88.5568  25 
  -2  -4  -5 622.328 86.3437  15 
   2   4  -5 659.581 88.7066  24 
   2   4   5 639.134 103.440  10 
  -2   4   5 616.099 94.0163  10 
   2   4  -5 550.001 92.4245  10 
   2   4  -5 615.103 203.845   2 
  -2   4  -5 648.481 198.431   2 
   2  -4  -5 482.612 77.8512  22 
   2  -4   5 594.153 170.608   1 
  -2  -4  -5 551.172 81.6505   9 
   2   4  -5 655.521 89.9346  13 
  -2   4   5 629.081 99.8492  13 
  -2   4  -5 553.989 86.9618  13 
   2   4  -6 12251.2 483.990  20 
  -2   4  -6 12637.5 482.890  20 
   2  -4   6 11929.7 780.188   1 
  -2   4  -6 12192.4 431.594  17 
   2   4  -6 12848.1 416.026  17 
   2   4   6 13324.5 1072.61   1 
   2   4  -6 12251.1 860.711   3 
   2   4  -6 10652.8 404.416  26 
  -2   4  -6 12187.8 410.368  26 
  -2  -4  -6 12234.9 401.805  16 
   2   4   6 12206.9 457.219  10 
  -2   4   6 13577.6 438.144  10 
   2   4  -6 12846.0 391.245  25 
  -2  -4  -6 11816.0 376.481  15 
   2  -4  -6 11853.9 387.730  15 
   2   4  -6 12471.3 386.190  24 
   2   4  -6 11982.7 865.121   2 
   2  -4  -6 12210.7 392.285  22 
  -2  -4  -6 12791.7 398.267   9 
  -2   4   6 12213.2 428.189  13 
   2  -4  -6 12541.7 863.199   1 
  -2   4  -6 12583.4 417.901  13 
   2   4  -6 12410.0 454.908   8 
  -2   4  -6 12754.6 475.355   8 
  -2   4  -7 6482.89 345.752   8 
   2   4  -7 6792.63 364.555  20 
  -2   4  -7 6904.73 370.681  20 
   2   4  -7 6693.88 289.594  24 
   2  -4   7 5683.59 557.893   1 
  -2   4  -7 7135.23 335.913  17 
   2   4  -7 6896.71 310.302  17 
  -2   4  -7 6592.48 310.274  26 
  -2  -4  -7 7012.75 305.777  16 
   2  -4  -7 6940.75 336.237  16 
   2   4   7 7508.91 364.903  10 
  -2   4   7 6799.25 318.186  10 
  -2   4  -7 6893.25 308.776  25 
   2   4  -7 7305.23 303.974  25 
  -2  -4  -7 5919.88 277.978  15 
   2  -4  -7 7085.74 310.057  15 
  -2   4  -7 7003.79 311.784  24 
  -2  -4  -7 6356.79 294.919   9 
  -2   4  -7 6664.72 308.100  13 
   2   4  -7 5656.48 301.612  26 
   2   4  -7 7064.68 341.457   8 
   2   4  -8 30264.8 728.306   8 
  -2   4  -8 29229.3 766.307   8 
   2   4  -8 30216.5 802.188  20 
   2  -4  -8 31689.7 690.568  19 
   2  -4   8 32130.8 721.864   7 
   2   4  -8 30732.9 648.057  24 
  -2   4  -8 31541.6 725.737  17 
   2   4  -8 30312.0 668.447  17 
  -2   4  -8 31076.0 610.340   6 
  -2  -4  -8 31395.8 690.000  16 
   2  -4  -8 31641.7 743.627  16 
   2   4   8 30161.7 768.845  10 
  -2   4   8 29852.9 705.292  10 
  -2   4  -8 28913.1 686.056  26 
  -2   4  -8 33348.9 715.112  25 
  -2  -4  -8 32696.8 692.248  15 
   2  -4  -8 31712.9 690.542  15 
  -2   4  -8 29033.2 670.743  24 
   2   4  -8 31134.3 656.874  25 
  -2  -4  -8 31480.7 690.464   9 
   2   4  -9 35611.7 800.120   8 
  -2   4  -9 38303.5 791.550  24 
  -2   4  -9 37325.2 880.314   8 
   2   4  -9 35970.6 902.446  20 
  -2   4  -9 37900.5 784.961  25 
   2  -4  -9 38898.4 774.755  19 
   2  -4   9 37792.1 790.593   7 
   2   4  -9 37924.4 752.231  25 
  -2   4  -9 36270.4 809.471  17 
   2   4  -9 37038.7 752.507  17 
  -2   4  -9 36816.3 681.423   6 
  -2   4  -9 38299.7 811.538  26 
   2  -4  -9 38329.8 850.741  16 
   2   4   9 35708.6 865.941  10 
  -2   4   9 41667.9 864.404  10 
  -2  -4  -9 36162.3 765.390  15 
   2  -4  -9 38363.9 786.053  15 
   2   4  -9 36808.6 740.805  24 
  -2  -4  -9 35127.5 763.416   9 
  -2  -4  -9 36952.0 772.517  16 
   2   4 -10 3247.63 270.216  20 
   2   4 -10 3195.97 234.610   8 
  -2   4 -10 3499.03 269.887   8 
   2  -4 -10 3261.36 222.036  19 
   2  -4  10 3663.48 243.741   7 
  -2   4 -10 3527.94 249.383  17 
   2   4 -10 3267.37 223.616  17 
  -2  -4 -10 2955.97 226.053  16 
   2   4 -10 2887.20 231.559  26 
   2  -4 -10 3079.79 247.874  16 
  -2   4 -10 3623.57 249.035  26 
  -2   4  10 3057.01 236.173  10 
  -2   4 -10 3314.09 229.758  25 
   2   4 -10 3492.84 227.293  25 
  -2  -4 -10 3465.61 240.546  15 
   2  -4 -10 3126.48 225.929  15 
  -2   4 -10 3209.28 226.551  24 
   2   4 -10 3470.78 226.660  24 
   2   4  10 3340.91 262.200  10 
  -2  -4 -10 3603.92 243.091   9 
  -2   4 -11 10683.2 422.809  25 
   2   4 -11 9889.76 475.923  20 
  -2   4 -11 10362.6 470.126   8 
   2  -4 -11 9542.96 370.844  19 
   2  -4  11 9454.09 391.459   7 
  -2   4 -11 10525.8 442.312  17 
   2   4 -11 10313.1 405.213  17 
   2  -4 -11 9755.18 448.294  16 
  -2  -4 -11 9419.70 409.697  16 
   2   4 -11 10219.9 398.177  25 
   2   4 -11 9543.24 429.336  26 
   2   4  11 9940.34 465.654  10 
  -2   4 -11 10269.3 427.300  26 
  -2   4  11 10057.0 425.452  10 
  -2  -4 -11 10994.5 437.449  15 
   2  -4 -11 9750.87 404.437  15 
  -2   4 -11 10065.4 409.000  24 
   2   4 -11 10225.7 399.874  24 
  -2  -4 -11 10169.0 415.608   9 
   2  -4 -12 601.456 118.830  16 
  -2  -4 -12 677.118 113.788  16 
   2  -4 -12 650.796 98.1794  19 
  -2   4 -12 766.512 130.536  17 
   2   4 -12 723.610 111.737  17 
  -2   4 -12 671.096 104.388  16 
   2   4 -12 620.353 116.072  26 
  -2   4 -12 624.791 105.281  26 
  -2   4 -12 699.581 108.683  25 
   2   4 -12 666.978 108.678  25 
   2  -4 -12 670.017 109.818  15 
   2   4  12 673.579 126.988  10 
  -2   4  12 765.414 123.187  10 
  -2   4 -12 594.436 106.160  24 
   2   4 -12 688.165 108.018  24 
  -2  -4 -12 763.042 122.841  15 
   2  -4 -12 782.405 116.146  22 
  -2  -4 -12 757.226 115.530   9 
   2  -4  13 108.995 49.8482  12 
  -2   4 -13 124.571 63.8698  17 
   2   4 -13 144.252 59.8716  17 
  -2   4 -13 99.8309 45.2826  16 
   2   4 -13 170.816 65.2534  26 
  -2  -4 -13 106.393 52.7441  16 
  -2   4 -13 88.4140 47.7584  25 
   2   4 -13 95.4454 52.5624  25 
  -2  -4 -13 102.058 51.6740  15 
   2  -4 -13 115.101 56.4622  15 
   2   4  13 159.286 73.4900  10 
  -2   4  13 138.109 56.1352  10 
  -2   4 -13 108.671 47.5933  24 
   2   4 -13 141.014 53.1540  24 
  -2   4 -13 54.6406 45.8461  26 
   2  -4 -13 231.587 74.3438  22 
   2  -4 -13 81.2692 61.4484  16 
   2  -4  14 2129.23 180.197  12 
  -2   4 -14 2413.34 201.403  17 
  -2   4 -14 2342.21 173.719  16 
   2  -4 -14 2131.80 204.712  16 
   2   4 -14 2547.50 215.202  26 
   2   4  14 2310.28 210.317  10 
  -2   4 -14 2530.41 203.394  26 
  -2   4  14 2267.37 187.394  10 
  -2   4 -14 2448.28 188.833  25 
  -2  -4 -14 2150.61 180.936  15 
   2  -4 -14 2058.84 180.437  15 
   2   4 -14 2324.11 184.640  25 
  -2   4 -14 2243.71 179.474  24 
   2   4 -14 2381.66 187.624  24 
   2  -4 -14 2614.60 196.168  22 
  -2   4  14 2272.84 187.456  13 
  -2  -4 -14 2230.74 193.011  16 
   2  -4  15 7411.30 313.150  12 
  -2   4 -15 7347.67 328.289  17 
  -2   4 -15 7055.13 284.594  16 
   2   4 -15 7682.47 343.834  26 
  -2   4 -15 7253.87 324.738  26 
   2   4  15 7444.20 348.156  10 
  -2   4  15 7229.17 309.026  10 
  -2   4 -15 7351.46 308.469  25 
   2   4 -15 7273.07 307.101  25 
  -2  -4 -15 6917.53 309.996  15 
   2  -4 -15 6463.06 301.684  15 
  -2   4 -15 7355.39 310.354  24 
   2   4 -15 7130.79 304.640  24 
   2  -4 -15 7265.69 315.528  22 
  -2   4  15 6477.25 293.936  13 
  -2  -4 -15 7137.70 321.429  16 
   2  -4  16 7868.89 286.567  12 
   2   4 -16 8646.60 309.983  25 
  -2   4 -16 9063.87 338.082  17 
  -2  -4 -16 7958.75 313.148  16 
   2   4 -16 8619.08 339.766  26 
  -2   4 -16 8216.94 316.282  26 
   2   4  16 9142.31 354.016  10 
  -2   4 -16 8732.16 309.914  25 
  -2  -4 -16 8452.75 310.515  15 
   2  -4 -16 7698.45 297.476  15 
  -2   4 -16 9139.71 316.469  24 
   2   4 -16 8823.80 314.320  24 
   2  -4 -16 8629.48 316.220  22 
  -2   4  16 7219.25 276.135  13 
   2  -4 -17 5421.42 224.563  11 
   2   4 -17 5288.46 236.579  26 
   2   4  17 5250.27 235.795  10 
  -2   4 -17 5414.16 216.188  25 
   2   4 -17 5224.68 216.525  25 
  -2  -4 -17 5319.35 216.822  15 
  -2   4 -17 5461.57 218.233  24 
   2   4 -17 5317.82 218.944  24 
  -2  -4 -17 5575.78 223.908  22 
   2  -4 -17 5677.45 230.372  22 
   3  -4   0 33.9524 37.1306  19 
   3   4   0 78.5298 56.7726  18 
   3  -4   0 54.1026 35.9183  11 
   3   4   0 38.9699 90.4757   3 
  -3   4   0 1.24352 56.8425   3 
  -3  -4   0 73.3095 72.0078   1 
   3  -4   0 73.9934 94.1272   1 
   3   4   0-8.45476 82.3176   2 
  -3   4   0 9.18925 78.7110   2 
   3   4   0 20.7519 33.4169  10 
   3  -4   0-1.17765 49.3240   5 
   3  -4   0 67.6719 38.5033  22 
  -3   4   0-6.52028 31.7260  13 
   3  -4   1 13869.3 765.098   1 
  -3   4  -1 15496.7 453.545  20 
   3  -4  -1 14520.3 412.402  19 
   3  -4   1 14131.8 400.132  19 
   3   4   1 16427.8 578.502  18 
   3   4  -1 16648.1 588.208  18 
   3   4   1 15543.8 879.832   3 
  -3   4   1 13996.0 745.522   3 
   3  -4  -1 16257.4 412.084  11 
   3   4  -1 14452.1 839.624   3 
   3  -4   1 16088.0 411.591  11 
  -3   4  -1 16475.1 801.595   3 
   3   4   1 14712.8 854.150   2 
  -3   4   1 17157.6 817.090   2 
   3   4  -1 14265.7 822.202   2 
   3   4   1 16254.9 479.114  10 
  -3   4  -1 15936.9 787.224   2 
   3   4  -1 12859.6 415.877  10 
  -3   4  -1 14904.2 395.753  10 
   3  -4  -1 16232.1 679.457   5 
   3  -4  -1 16725.2 417.277  22 
  -3  -4  -1 15704.2 776.753   1 
   3  -4   1 16380.7 413.007  22 
  -3   4   1 15643.3 454.092  13 
  -3   4  -1 14525.2 430.611  13 
  -3  -4   1 16095.4 727.625   1 
   3   4  -1 14920.6 369.352  13 
   3  -4  -1 15129.5 830.309   1 
   3   4  -2 57.8416 44.2733  20 
  -3   4  -2 275.359 70.0696  20 
   3  -4  -2 25.5147 38.7794  19 
   3  -4   2 28.7061 34.0848  19 
   3   4   2 77.5240 52.4888  18 
   3   4  -2 158.762 60.5482  18 
   3  -4  -2 5.07086 31.1434  11 
  -3  -4  -2 22.4926 62.0397   1 
   3   4  -2 137.848 107.209   3 
  -3   4  -2 47.2940 61.8216   3 
   3  -4  -2 64.1107 67.2584   1 
   3  -4  -2 53.4095 35.4943  15 
   3   4   2 1.58325 31.4496  10 
   3   4  -2 20.7544 59.3420   2 
   3   4  -2 44.2900 34.2859  10 
  -3   4  -2 93.9570 95.3339   2 
  -3   4  -2 60.4015 37.0041  10 
   3  -4   2 53.1525 84.1099   1 
   3  -4  -2 47.3481 29.5776  22 
  -3  -4  -2 30.2071 22.9615   9 
  -3   4   2 79.6965 34.6419  13 
  -3   4  -2 32.4915 31.5651  13 
   3   4  -2 17.2078 24.7917  13 
   3   4  -3 70490.2 1134.53  20 
  -3   4  -3 70063.2 1086.64  20 
   3  -4  -3 65169.7 955.777  19 
   3  -4   3 73810.4 950.517  19 
   3  -4   3 72095.3 1865.01   1 
   3   4   3 76801.8 1307.02  18 
   3   4  -3 71975.7 1265.41  18 
   3  -4  -3 73895.5 965.886  11 
   3   4  -3 70477.5 1917.94   3 
  -3   4  -3 75239.7 1798.46   3 
   3   4   3 80525.1 2437.60   1 
  -3   4  -3 78464.9 996.545  26 
   3   4   3 73355.0 1095.66  10 
  -3  -4  -3 72518.9 890.208  15 
   3   4  -3 70416.5 1927.86   2 
   3  -4  -3 68109.0 919.924  15 
   3   4  -3 74930.3 1072.81  10 
  -3   4  -3 74318.8 1794.73   2 
  -3  -4  -3 76253.0 946.361   9 
   3  -4  -3 71673.8 955.171  22 
  -3   4   3 70125.2 1047.57  13 
  -3   4  -3 66863.1 989.182  13 
   3  -4  -3 69780.1 1918.27   1 
   3   4  -3 72236.7 909.772  13 
  -3   4  -3 74516.7 1148.37   8 
   3   4  -4 2088.64 192.666  20 
  -3   4  -4 2132.79 187.326  20 
   3  -4  -4 1990.02 162.096  19 
   3  -4   4 2213.52 152.456  19 
   3   4   4 2223.74 215.882  18 
   3   4  -4 2154.70 210.263  18 
   3  -4  -4 1860.01 148.532  11 
   3   4   4 2210.04 399.795   1 
  -3   4  -4 2141.72 324.444   3 
   3   4  -4 2078.97 345.926   3 
  -3   4  -4 2157.52 164.384  26 
   3   4   4 2102.53 184.776  10 
   3   4  -4 2270.34 148.827  25 
   3  -4  -4 1993.54 334.619   1 
  -3  -4  -4 1939.13 141.949  15 
   3  -4  -4 2147.92 157.974  15 
   3   4  -4 2128.96 178.403  10 
   3   4  -4 2371.11 152.374  24 
  -3   4  -4 2063.82 323.379   2 
   3   4  -4 2003.63 339.821   2 
  -3  -4  -4 2150.61 154.349   9 
   3  -4  -4 2041.23 158.471  22 
  -3   4   4 2083.05 176.676  13 
   3  -4   4 2001.97 315.882   1 
  -3   4  -4 2241.47 172.342  13 
   3   4  -4 2215.27 150.007  13 
  -3   4  -4 2183.02 192.671   8 
   3   4  -5 11.9944 45.4452  20 
  -3   4  -5 41.4147 37.5522  20 
  -3   4  -5 105.596 55.9151   8 
   3  -4  -5 58.2445 43.0671  19 
   3  -4   5-5.49904 32.5896  19 
   3   4   5 21.2402 39.3208  18 
   3   4  -5 42.1201 46.4997  18 
   3   4   5 50.5379 144.393   1 
  -3   4  -5 1.85458 35.3611  17 
   3   4  -5 66.0393 38.9319  17 
   3   4  -5 81.3945 92.1234   3 
   3   4  -5 25.3150 42.8219  26 
  -3   4  -5 15.4586 29.5524  26 
   3  -4  -5-40.9114 109.634   1 
   3   4  -5 40.8286 30.2501  25 
  -3  -4  -5 27.3590 33.6115  15 
   3  -4  -5 39.5001 36.0942  15 
   3   4  -5 69.0505 39.0383  24 
   3   4   5 16.2075 36.0918  10 
   3   4  -5 29.7903 27.4797  10 
   3   4  -5 94.5115 126.047   2 
   3  -4  -5 33.5500 32.3257  22 
  -3  -4  -5 26.1975 24.5784   9 
  -3   4   5 17.8900 35.1786  13 
   3  -4   5 115.219 103.315   1 
  -3   4  -5 14.8855 29.5628  13 
   3  -4   6 1211.92 279.936   1 
   3   4  -6 928.952 140.398  20 
   3   4  -6 821.398 117.878   8 
  -3   4  -6 723.112 117.933   8 
   3  -4  -6 846.147 108.882  19 
  -3   4  -6 928.217 124.682  17 
   3   4  -6 787.665 102.739  17 
   3   4  -6 815.694 120.249  26 
   3   4  -6 961.003 108.310  25 
  -3  -4  -6 1167.17 117.430  15 
   3   4  -6 857.742 98.3155  24 
   3  -4  -6 855.844 107.148  15 
   3   4   6 825.253 126.910  10 
  -3  -4  -6 906.695 107.099   9 
   3  -4  -6 843.204 109.642  22 
  -3   4  -6 881.730 112.637  26 
  -3   4   6 841.634 116.324  13 
  -3   4  -6 791.397 106.302  13 
   3   4  -7 70.8746 54.8350  20 
   3   4  -7 29.6001 46.2574   8 
  -3   4  -7-31.9369 39.3208   8 
   3  -4  -7 82.5660 50.6031  19 
   3  -4   7 39.7401 48.9625   7 
  -3   4  -7 60.2034 43.5060  17 
   3   4  -7 40.7608 32.2476  17 
   3   4  -7-3.10046 39.8991  26 
  -3   4  -7 32.7340 32.9189  26 
  -3  -4  -7 118.814 55.5838  16 
  -3   4  -7 21.5611 38.1432  25 
   3   4  -7 27.7148 28.6504  25 
  -3  -4  -7 43.7958 38.6263  15 
   3  -4  -7 98.6380 45.0990  15 
  -3   4  -7 2.28993 28.8253  24 
   3   4  -7 14.9209 28.2650  24 
   3   4   7 187.369 66.9367  10 
  -3   4   7 102.292 60.4997  10 
   3  -4  -7 65.7023 44.8958  22 
  -3  -4  -7 15.5445 34.7870   9 
  -3   4  -7 30.7195 32.7102  13 
   3   4  -8 53583.1 970.300   8 
  -3   4  -8 51607.5 1047.66   8 
   3   4  -8 53964.1 1094.73  20 
   3  -4  -8 51180.9 907.399  19 
   3  -4   8 55527.4 985.532   7 
  -3   4  -8 59977.2 1037.68  17 
   3   4  -8 54198.4 882.373  17 
   3   4  -8 54008.5 1007.49  26 
  -3  -4  -8 56507.5 922.035  16 
  -3   4  -8 55876.9 948.541  26 
   3   4   8 51464.0 1037.34  10 
  -3   4   8 53367.2 933.191  10 
  -3   4  -8 57799.6 972.357  25 
   3   4  -8 56036.4 887.325  25 
  -3  -4  -8 50128.9 887.659  15 
   3  -4  -8 55561.8 948.501  15 
  -3   4  -8 56621.5 967.709  24 
   3   4  -8 56108.5 886.970  24 
   3  -4  -8 53200.2 936.767  22 
  -3  -4  -8 59616.9 981.801   9 
  -3   4  -8 57613.4 957.275  13 
   3   4  -9 87267.4 1258.19   8 
   3   4  -9 88711.6 1453.06  20 
  -3   4  -9 88540.0 1426.00   8 
   3  -4  -9 92181.1 1238.76  19 
   3  -4   9 82792.6 1254.30   7 
  -3   4  -9 93187.1 1346.50  17 
   3   4  -9 88115.7 1183.14  17 
  -3   4  -9 90240.7 1165.13   6 
  -3  -4  -9 90584.2 1227.99  16 
   3   4  -9 88600.8 1338.84  26 
  -3   4  -9 86744.6 1255.31  26 
   3  -4  -9 88714.7 1371.03  16 
   3   4   9 85147.1 1399.00  10 
  -3   4   9 90304.3 1265.77  10 
  -3   4  -9 89386.9 1268.82  25 
   3   4  -9 89466.2 1188.19  25 
  -3  -4  -9 91699.1 1261.98  15 
   3  -4  -9 88614.1 1265.49  15 
  -3   4  -9 87746.1 1257.55  24 
   3   4  -9 90386.3 1193.50  24 
  -3   4  -9 88917.6 1096.85  14 
   3  -4  -9 82199.6 1225.18  22 
  -3  -4  -9 83930.5 1238.03   9 
   3   4 -10 36933.8 923.980  20 
  -3   4 -10 37495.7 914.733   8 
   3  -4 -10 37390.6 752.441  19 
   3  -4  10 38035.4 812.541   7 
  -3   4 -10 36584.9 838.424  17 
   3   4 -10 36130.9 741.136  17 
  -3   4 -10 36852.9 714.023   6 
  -3  -4 -10 34250.8 750.131  16 
   3   4 -10 37722.9 860.409  26 
  -3   4 -10 36045.3 787.774  26 
   3  -4 -10 36901.1 869.167  16 
   3   4  10 40710.5 945.622  10 
  -3   4  10 38429.2 804.990  10 
  -3   4 -10 36896.6 797.547  25 
   3   4 -10 37179.6 753.343  25 
  -3  -4 -10 34164.9 767.093  15 
   3  -4 -10 34376.7 770.887  15 
  -3   4 -10 35985.2 790.779  24 
   3   4 -10 37334.6 755.634  24 
  -3   4 -10 37603.3 694.582  14 
   3  -4 -10 34451.1 778.162  22 
  -3  -4 -10 35653.1 785.176   9 
   3   4 -11 9093.17 451.875  20 
  -3   4 -11 9466.79 453.654   8 
   3  -4 -11 9278.72 360.740  19 
   3  -4  11 9139.41 394.612   7 
  -3   4 -11 10100.3 442.386  17 
  -3  -4 -11 8340.18 372.479  16 
   3   4 -11 9720.05 434.925  26 
   3  -4 -11 9095.11 433.188  16 
  -3   4 -11 9278.54 400.108  26 
   3   4  11 10067.2 465.988  10 
  -3   4 -11 9503.45 351.475   6 
  -3   4  11 9691.35 400.937  10 
  -3   4 -11 9212.16 392.497  25 
   3   4 -11 9471.06 378.941  25 
  -3  -4 -11 8456.52 383.374  15 
   3  -4 -11 9721.26 410.354  15 
  -3   4 -11 9557.48 396.806  24 
   3   4 -11 9734.87 384.318  24 
  -3   4 -11 9140.59 342.391  14 
   3  -4 -11 10150.4 418.319  22 
  -3  -4 -11 8898.70 395.872   9 
   3  -4 -11 8990.15 342.258  21 
   3  -4  12 5114.46 285.269   7 
  -3   4 -12 5238.32 315.465  17 
  -3  -4 -12 4974.97 285.228  16 
   3   4 -12 5620.94 328.191  26 
   3  -4 -12 5341.00 342.557  16 
  -3   4 -12 5531.61 301.862  26 
   3   4  12 5649.18 346.819  10 
  -3   4 -12 5216.80 256.282   6 
   3   4 -12 5717.02 294.003  25 
  -3  -4 -12 5062.66 293.299  15 
  -3   4 -12 5825.93 303.653  25 
  -3   4 -12 5373.60 293.780  24 
   3   4 -12 5504.14 289.088  24 
   3  -4 -12 5296.51 299.746  15 
  -3   4 -12 5333.77 253.906  14 
   3  -4 -12 5403.99 304.564  22 
  -3  -4 -12 4776.94 285.819   9 
   3  -4 -12 5394.03 270.531  21 
   3  -4  12 5015.74 298.842  12 
   3  -4  13 12803.4 467.008  12 
  -3   4 -13 12999.6 487.839  17 
  -3   4 -13 13189.4 433.575  16 
  -3  -4 -13 12636.0 449.532  16 
   3   4 -13 13075.5 492.301  26 
   3   4  13 12833.7 513.441  10 
  -3   4 -13 12486.0 454.484  26 
  -3   4 -13 12918.4 447.137  25 
   3   4 -13 13212.7 443.200  25 
  -3  -4 -13 14026.9 477.223  15 
   3  -4 -13 13225.4 468.247  15 
   3   4 -13 13267.0 445.619  24 
  -3   4 -13 13396.2 457.480  24 
  -3   4 -13 13180.5 389.924  14 
   3  -4 -13 13720.6 477.877  22 
  -3  -4 -13 13417.2 468.229   9 
   3  -4 -13 13530.7 408.642  21 
   3  -4  14 703.353 107.601  12 
  -3   4 -14 785.745 110.301  17 
  -3   4 -14 708.845 99.0603  16 
   3   4 -14 748.811 119.173  26 
  -3   4 -14 586.726 100.068  26 
  -3   4 -14 779.184 108.167  25 
   3   4 -14 732.054 103.691  25 
  -3  -4 -14 624.034 105.989  15 
   3  -4 -14 627.165 105.516  15 
   3   4  14 711.022 117.461  10 
  -3   4 -14 734.037 106.533  24 
   3   4 -14 646.302 99.4599  24 
  -3   4 -14 719.163 91.3618  14 
   3  -4 -14 628.814 100.542  22 
  -3  -4 -14 684.210 106.461  16 
  -3   4  14 584.687 100.237  13 
   3  -4  15 225.730 62.2654  12 
   3  -4 -15 206.837 55.0116  11 
  -3   4 -15 207.066 62.2805  17 
  -3   4 -15 166.426 49.3256  16 
   3   4 -15 227.617 65.6501  26 
  -3   4 -15 188.342 62.8856  26 
  -3  -4 -15 147.792 51.0975  16 
  -3   4 -15 183.777 53.1220  25 
   3   4 -15 193.994 55.1759  25 
  -3  -4 -15 87.4228 40.1328  15 
   3  -4 -15 157.880 52.0997  15 
   3   4  15 180.542 52.3186  10 
  -3   4 -15 205.407 54.7966  24 
   3   4 -15 214.931 62.1739  24 
   3  -4 -15 247.820 64.4723  22 
  -3   4  15 225.064 61.4651  13 
   3  -4  16 2685.24 166.524  12 
   3  -4 -16 3100.30 187.472  11 
  -3   4 -16 3099.89 195.427  17 
  -3   4 -16 2819.94 159.634  16 
  -3  -4 -16 2595.54 167.564  16 
   3   4 -16 2954.46 192.957  26 
   3   4  16 2929.16 198.887  10 
  -3   4 -16 2945.60 172.097  25 
   3   4 -16 2819.76 171.519  25 
  -3  -4 -16 2606.95 168.554  15 
  -3   4 -16 2916.05 171.586  24 
   3   4 -16 2995.75 179.040  24 
   3  -4 -16 3005.22 184.480  22 
  -3   4  16 2304.68 158.529  13 
   3  -4 -17 5410.24 220.581  11 
   3   4 -17 5281.40 230.933  26 
   3   4  17 5262.81 230.405  10 
  -3   4 -17 5208.53 201.522  25 
  -3  -4 -17 5202.34 207.808  15 
  -3   4 -17 5179.28 200.986  24 
  -3  -4 -17 5192.92 208.096  22 
   3  -4 -17 5325.98 217.022  22 
   4  -4   0 11140.0 715.511   1 
   4  -4   0 12961.5 391.651  19 
   4   4   0 12326.5 514.127  18 
   4   4   0 12436.8 802.849   3 
   4  -4   0 13149.5 390.742  11 
  -4   4   0 13375.2 716.837   3 
   4   4   0 12191.9 780.695   2 
  -4   4   0 12678.6 690.554   2 
   4   4   0 12587.8 424.678  10 
   4  -4   0 13094.6 389.041  22 
  -4   4   0 12750.5 417.018  13 
  -4  -4   0 12880.3 672.947   1 
   4  -4  -1 19035.3 954.028   1 
   4  -4   1 19637.1 968.629   1 
   4  -4  -1 22050.5 524.049  19 
   4  -4   1 23335.2 526.134  19 
   4   4   1 22126.6 695.928  18 
   4   4  -1 22208.0 698.792  18 
   4   4   1 20727.6 1043.95   3 
  -4   4   1 23569.2 933.976   3 
   4  -4  -1 23100.0 524.359  11 
   4   4  -1 20491.1 1043.77   3 
  -4   4   1 21691.5 882.938   2 
   4  -4   1 21808.6 509.105  11 
  -4   4  -1 21057.8 883.473   3 
   4   4   1 20071.8 1023.90   2 
   4   4  -1 20377.2 1031.80   2 
   4   4   1 21456.9 567.420  10 
   4   4  -1 22671.7 570.251  10 
  -4   4  -1 23196.0 933.482   2 
   4  -4  -1 22001.5 823.587   5 
  -4  -4  -1 21050.1 463.522   9 
  -4  -4  -1 22204.2 924.231   1 
   4  -4  -1 20995.2 500.070  22 
   4  -4   1 21849.6 509.634  22 
  -4   4   1 22558.6 562.438  13 
  -4   4  -1 22601.2 557.366  13 
  -4   4  -1 22288.8 590.696   8 
   4   4  -2 2259.73 197.849  20 
   4  -4  -2 2420.78 173.756  19 
   4  -4   2 2183.34 157.257  19 
   4   4   2 2181.63 218.802  18 
   4   4  -2 2184.44 216.323  18 
  -4   4   2 2272.69 305.324   3 
   4  -4  -2 2211.92 162.593  11 
   4  -4   2 2250.24 164.215  11 
  -4  -4  -2 1998.15 292.471   1 
   4   4  -2 2414.07 352.787   3 
  -4   4  -2 1895.22 270.969   3 
  -4   4   2 2112.27 292.092   2 
   4   4   2 2362.56 187.679  10 
   4   4  -2 2296.99 180.035  10 
  -4   4  -2 2137.83 298.767   2 
   4  -4  -2 1950.09 323.131   1 
   4   4  -2 2610.30 369.786   2 
   4  -4  -2 2650.17 305.538   5 
  -4  -4  -2 2402.79 160.433   9 
   4  -4   2 2171.75 327.764   1 
   4  -4  -2 2423.28 170.737  22 
   4  -4   2 2257.13 165.646  22 
  -4   4   2 2422.69 185.953  13 
  -4   4  -2 2189.22 171.163  13 
  -4   4  -2 2189.17 184.913   8 
   4   4  -3-6.89651 36.9851  20 
  -4   4  -3-6.89087 33.6551   8 
   4  -4  -3 43.4050 42.7214  19 
   4  -4   3-0.70357 28.4985  19 
   4   4   3 7.07955 41.8575  18 
   4   4  -3-1.36049 37.2987  18 
  -4   4  -3-15.9638 27.9086  26 
   4  -4  -3 61.9656 44.3541  11 
   4  -4   3 21.9309 33.6888  11 
   4   4  -3 37.6152 98.0299   3 
  -4   4  -3 27.4279 82.6937   3 
   4  -4  -3 11.7606 79.4756   1 
   4   4   3 346.593 85.8805  10 
   4   4  -3 14.7275 93.5253   2 
   4   4  -3 20.8228 27.8978  10 
  -4   4  -3-49.9858 78.5760   2 
   4  -4   3 9.23062 32.5916  23 
   4  -4   3 45.8415 87.8891   1 
   4  -4  -3 22.2323 71.6305   5 
   4  -4  -3 42.4427 34.3733  22 
   4  -4   3 45.2852 37.2399  22 
  -4  -4  -3 17.1765 22.6654   9 
  -4   4   3-13.8831 31.8937  13 
  -4   4  -3 17.5041 40.7582  13 
   4   4   3 176.929 178.332   1 
   4   4  -4 1173.46 155.502  20 
   4   4  -4 987.543 125.819  10 
   4  -4  -4 1025.06 117.116  19 
   4  -4   4 952.382 107.961  19 
  -4   4  -4 846.198 130.955   8 
   4   4  -4 874.081 118.090  26 
   4   4   4 944.044 125.431  12 
   4  -4  -4 1009.61 112.152  11 
   4   4   4 949.166 142.191  18 
   4   4  -4 907.032 149.216  18 
   4   4   4 965.134 285.286   1 
   4   4  -4 870.080 232.041   3 
  -4   4  -4 908.974 106.386  26 
  -4   4  -4 926.207 215.816   3 
  -4  -4  -4 918.585 100.380  15 
   4  -4  -4 906.861 109.969  15 
   4   4   4 1000.69 128.814  10 
   4   4  -4 786.885 221.613   2 
  -4   4  -4 738.391 195.738   2 
  -4  -4  -4 827.265 102.010   9 
   4  -4  -4 912.312 114.308  22 
  -4   4   4 912.439 123.345  13 
   4  -4  -4 1071.84 221.422   5 
   4  -4   4 799.406 228.441   1 
  -4   4  -4 897.815 113.586  13 
   4   4  -5 431.423 98.4441  20 
  -4   4  -5 297.595 87.5549   8 
   4  -4  -5 258.540 66.2790  19 
   4  -4   5 394.392 69.3037  19 
   4   4   5 252.503 66.9001  12 
   4   4   5 252.668 74.1175  18 
   4   4  -5 367.752 95.7888  18 
  -4   4  -5 300.749 76.9885  17 
   4  -4  -5 323.727 71.4362  11 
   4   4  -5 282.052 74.3704  26 
  -4   4  -5 320.429 68.4625  26 
  -4  -4  -5 422.829 75.2143  15 
   4  -4  -5 224.571 62.5982  15 
   4   4   5 596.561 105.848  10 
   4   4   5 261.009 193.800   1 
   4   4  -5 318.405 79.4262  10 
   4  -4  -5 500.538 165.379   5 
   4  -4  -5 313.231 76.6319  22 
  -4  -4  -5 293.547 64.9045   9 
  -4   4   5 266.229 74.1422  13 
   4  -4   5 388.619 180.134   1 
  -4   4  -5 402.045 76.9822  13 
   4   4  -6 0.31356 43.8331  20 
   4   4  -6 1.00020 37.2232   8 
  -4   4  -6 35.0769 50.8011   8 
   4  -4  -6 6.49587 38.8128  19 
   4   4   6 10.0773 32.1856  12 
   4   4   6 30.0732 46.2469  18 
   4   4  -6 64.9990 67.7013  18 
   4  -4   6-16.8310 31.8566   7 
   4  -4  -6 54.9719 47.5232  11 
  -4   4  -6 79.6033 58.6185  17 
   4   4  -6-13.0047 42.2789  26 
  -4   4  -6 20.4302 32.9359  26 
   4   4  -6 9.19566 27.8698  25 
  -4  -4  -6 21.2008 27.7678  15 
   4  -4  -6-30.7651 35.6936  15 
   4   4  -6-13.7492 28.0319  24 
   4   4   6-4.31647 34.7007  10 
  -4   4  -6 2.52892 27.4549  14 
   4  -4  -6 0.22502 36.6554  22 
  -4  -4  -6-9.59291 28.2837   9 
  -4   4   6 1.59590 37.9280  13 
  -4   4  -6 25.1175 38.5770  13 
   4   4  -7-31.9624 41.8792  20 
   4   4  -7 18.9701 41.3099   8 
  -4   4  -7 3.44082 40.3600   8 
   4  -4  -7-9.67600 39.2207  19 
   4  -4   7 18.7676 39.7942   7 
  -4   4  -7 17.6982 37.6140  17 
   4   4  -7 5.83719 42.9776  26 
  -4   4  -7 161.392 51.4294  26 
   4   4  -7 8.75254 26.9623  25 
  -4  -4  -7-34.7671 42.5141  15 
   4  -4  -7 29.9495 46.9508  15 
   4   4  -7-9.14600 29.3300  24 
   4   4   7 71.5737 54.9960  10 
  -4   4  -7 48.8792 30.2815  14 
   4  -4  -7-47.1904 41.8259  22 
  -4  -4  -7-23.5212 32.3688   9 
  -4   4   7 90.3473 64.4213  13 
  -4   4  -7 22.3930 31.2006  13 
   4   4  -8 52016.3 1078.02  20 
  -4   4  -8 51539.7 1070.69   8 
   4  -4  -8 52760.3 913.005  19 
   4  -4   8 54664.2 1002.08   7 
  -4   4  -8 55288.0 1006.25  17 
   4   4  -8 53290.1 995.507  26 
  -4   4  -8 50017.0 885.366  26 
   4   4   8 49790.2 1034.39  10 
  -4   4  -8 53429.1 945.279  25 
   4   4  -8 53140.0 853.576  25 
  -4  -4  -8 50259.0 889.553  15 
   4  -4  -8 56270.5 965.796  15 
  -4   4  -8 54856.4 961.795  24 
   4   4  -8 53534.4 859.249  24 
  -4   4  -8 53310.8 830.634  14 
   4  -4  -8 57336.7 984.413  22 
  -4  -4  -8 53832.4 945.070   9 
  -4   4  -8 51688.2 912.336  13 
   4   4  -9 111054. 1649.55  20 
  -4   4  -9 109982. 1632.02   8 
   4  -4  -9 110009. 1371.54  19 
   4  -4   9 115922. 1531.72   7 
  -4   4  -9 122812. 1592.41  17 
  -4   4  -9 111425. 1368.00   6 
   4   4  -9 114888. 1552.44  26 
  -4   4  -9 116444. 1437.70  26 
   4   4   9 109193. 1621.17  10 
  -4   4  -9 111107. 1445.49  25 
   4   4  -9 111592. 1331.33  25 
  -4  -4  -9 107965. 1408.14  15 
   4  -4  -9 117024. 1487.95  15 
  -4   4  -9 116049. 1472.95  24 
   4   4  -9 112240. 1338.49  24 
  -4   4  -9 112810. 1302.80  14 
   4  -4  -9 113748. 1480.17  22 
  -4  -4  -9 108873. 1441.85   9 
   4  -4  -9 117891. 1347.03  21 
   4   4 -10 2722.27 247.249  20 
  -4   4 -10 2810.86 246.002   8 
   4  -4 -10 2675.04 193.637  19 
  -4   4 -10 2705.54 214.800  24 
   4  -4  10 2574.63 218.422   7 
  -4   4 -10 2527.93 218.912  17 
  -4   4 -10 2615.21 192.907   6 
  -4  -4 -10 2435.98 194.310  16 
   4   4 -10 2725.37 231.918  26 
  -4   4 -10 2714.67 206.855  26 
   4   4  10 2442.60 230.604  10 
  -4   4 -10 2598.13 210.237  25 
   4   4 -10 2748.14 194.434  25 
  -4  -4 -10 2779.92 212.325  15 
   4  -4 -10 2331.27 203.785  15 
   4   4 -10 2493.36 185.908  24 
  -4   4 -10 2516.93 180.004  14 
   4  -4 -10 2931.97 222.472  22 
  -4  -4 -10 2672.64 213.882   9 
   4  -4 -10 2608.93 184.751  21 
   4   4 -11 4130.41 297.498  20 
   4  -4 -11 4063.63 232.630  19 
  -4   4 -11 3991.89 297.442   8 
   4  -4  11 3903.05 266.410   7 
  -4   4 -11 3525.35 256.669  17 
  -4  -4 -11 3679.08 237.382  16 
  -4   4 -11 4151.20 237.973   6 
   4   4 -11 3827.72 271.756  26 
  -4   4 -11 3711.55 244.829  26 
   4   4  11 3736.32 286.412  10 
  -4   4 -11 3959.71 254.123  25 
   4   4 -11 4185.49 244.799  25 
  -4  -4 -11 3652.62 245.749  15 
   4  -4 -11 3940.64 265.071  15 
  -4   4 -11 4192.89 262.424  24 
   4   4 -11 4157.17 244.737  24 
  -4   4 -11 4299.12 232.146  14 
   4  -4 -11 4277.95 271.769  22 
  -4  -4 -11 3774.79 253.052   9 
   4  -4 -11 3571.39 217.704  21 
   4  -4  11 4286.32 283.404  12 
   4  -4  12 4071.80 271.464  12 
   4  -4  12 3860.50 251.135   7 
  -4   4 -12 4313.83 285.577  17 
  -4  -4 -12 3733.44 239.516  16 
   4   4 -12 4250.15 280.264  26 
  -4   4 -12 3681.90 241.663  26 
   4   4  12 4527.86 309.722  10 
  -4   4 -12 4036.11 230.228   6 
  -4   4 -12 4181.05 255.809  25 
   4   4 -12 4147.70 241.791  25 
  -4  -4 -12 3668.42 243.059  15 
   4  -4 -12 3564.15 249.777  15 
  -4   4 -12 3781.66 245.468  24 
   4   4 -12 4065.29 240.282  24 
  -4   4 -12 4004.76 225.918  14 
   4  -4 -12 4154.92 263.598  22 
  -4  -4 -12 3721.60 245.910   9 
   4  -4 -12 4058.46 230.801  21 
   4  -4  13 1499.07 157.899  12 
  -4   4 -13 1517.78 149.547  25 
   4  -4 -13 1516.94 157.819  11 
  -4   4 -13 1546.67 168.262  17 
  -4   4 -13 1488.67 143.441  16 
  -4  -4 -13 1470.29 147.019  16 
   4   4 -13 1428.68 162.535  26 
  -4   4 -13 1385.78 143.227  26 
   4   4  13 1536.57 176.370  10 
  -4   4 -13 1467.46 131.103   6 
   4   4 -13 1631.54 151.178  25 
  -4  -4 -13 1702.62 165.805  15 
   4  -4 -13 1330.45 150.234  15 
  -4   4 -13 1437.83 146.049  24 
   4   4 -13 1665.03 153.662  24 
  -4   4 -13 1375.64 129.160  14 
   4  -4 -13 1485.49 156.471  22 
  -4  -4 -13 1593.91 157.937   9 
   4  -4 -13 1367.68 131.651  21 
   4  -4  14 2691.21 199.716  12 
   4   4 -14 2573.63 181.989  25 
   4  -4 -14 2637.44 196.984  11 
  -4   4 -14 2718.20 209.019  17 
  -4   4 -14 2895.53 190.102  16 
  -4  -4 -14 2326.98 181.470  16 
   4   4 -14 2959.62 218.047  26 
  -4   4 -14 2205.62 176.330  26 
   4   4  14 2660.17 217.573  10 
  -4   4 -14 2658.66 185.892  25 
  -4  -4 -14 2731.42 198.177  15 
  -4   4 -14 2635.03 166.143   6 
   4  -4 -14 2229.28 186.233  15 
  -4   4 -14 2799.59 192.516  24 
   4   4 -14 2741.31 188.256  24 
  -4   4 -14 2606.21 164.603  14 
   4  -4 -14 2806.73 200.088  22 
  -4   4  14 2608.72 204.408  13 
   4  -4 -14 2371.02 162.030  21 
   4  -4  15 3829.26 219.538  12 
   4  -4 -15 3701.32 216.241  11 
  -4   4 -15 4182.99 241.354  17 
  -4   4 -15 3993.21 212.328  16 
  -4  -4 -15 3439.75 196.531  16 
   4   4 -15 3924.19 234.707  26 
  -4   4 -15 3159.79 188.437  26 
   4   4  15 3974.35 246.611  10 
  -4   4 -15 4149.18 215.163  25 
   4   4 -15 4000.29 214.307  25 
  -4  -4 -15 2889.93 189.162  15 
  -4   4 -15 4001.80 211.431  24 
   4   4 -15 3801.89 207.696  24 
   4  -4 -15 3741.75 216.989  22 
  -4   4  15 3814.24 225.828  13 
   4  -4  16 1268.18 112.127  12 
   4  -4 -16 1622.18 132.005  11 
  -4   4 -16 1508.15 135.791  17 
  -4   4 -16 1584.25 118.840  16 
   4   4 -16 1509.31 135.963  26 
   4   4  16 1536.97 140.288  10 
  -4   4 -16 1588.13 120.228  25 
   4   4 -16 1665.97 126.599  25 
  -4  -4 -16 1600.57 129.505  15 
  -4   4 -16 1614.28 121.791  24 
   4   4 -16 1539.19 121.352  24 
   4  -4 -16 1515.37 126.206  22 
  -4   4  16 1305.70 118.819  13 
  -5   4   0-3.78425 31.1842   8 
   5  -4   0 78.6884 39.5482  19 
   5   4   0 61.9847 68.7198  18 
   5  -4   0 43.4077 46.2890  11 
   5   4   0 25.0921 90.6877   3 
   5   4   0 32.1802 82.8499   2 
   5   4   0 31.6450 40.8053  10 
   5  -4   0-99.5388 115.349   1 
   5  -4   0-68.2372 44.4064  22 
  -5   4   0 10.2607 34.1901  13 
   5  -4  -1 15941.0 905.058   1 
   5  -4  -1 20109.3 512.342  19 
   5  -4   1 17810.2 988.932   1 
   5  -4   1 18975.3 492.507  19 
   5   4   1 18120.8 641.373  18 
   5   4  -1 19095.6 660.764  18 
   5   4   1 17951.1 1003.39   3 
   5  -4  -1 19905.2 509.975  11 
   5   4  -1 18841.2 1022.20   3 
   5  -4   1 18008.5 494.738  11 
   5   4   1 17699.9 989.197   2 
   5   4   1 18357.8 539.765  10 
   5   4  -1 18962.7 1022.80   2 
   5   4  -1 18760.4 534.915  10 
   5  -4  -1 21072.8 523.847  22 
   5  -4   1 19014.6 507.439  22 
  -5   4   1 19547.8 534.469  13 
  -5   4  -1 17563.9 508.330  13 
  -5   4   1 20588.8 551.934   8 
  -5   4  -1 19185.0 546.651   8 
   5  -4  -2 40902.9 1508.24   1 
   5  -4  -2 47736.6 821.596  19 
   5  -4   2 46180.6 785.115  19 
   5   4   2 46197.3 883.001  10 
   5  -4   2 47379.3 1632.45   1 
   5   4   2 43949.6 900.241  12 
   5   4   2 43564.9 1015.35  18 
   5   4  -2 47004.0 1052.92  18 
   5   4   2 44493.4 1586.34   3 
   5  -4  -2 43588.0 791.642  11 
   5   4  -2 44563.6 1571.05   3 
   5  -4   2 46934.6 816.950  11 
   5   4   2 45339.2 1598.00   2 
   5   4  -2 43813.3 1567.44   2 
   5   4  -2 45764.5 853.217  10 
  -5   4  -2 46315.8 729.032  14 
   5  -4   2 49192.3 815.746  23 
  -5  -4  -2 46186.0 761.960   9 
   5  -4  -2 44111.4 1297.08   5 
   5  -4  -2 46816.7 816.264  22 
   5  -4   2 48514.8 829.950  22 
  -5   4   2 47545.8 871.321  13 
  -5   4  -2 46349.7 838.168  13 
  -5   4   2 48707.7 866.922   8 
  -5   4  -2 43637.8 867.219   8 
   5  -4  -3 2783.36 419.822   1 
  -5   4  -3 3334.00 238.391   8 
   5   4  -3 3429.10 258.604  20 
   5  -4  -3 3544.50 221.191  19 
   5  -4   3 3147.75 198.091  19 
   5   4   3 2935.04 224.853  12 
   5  -4   3 3242.04 438.951   1 
   5   4   3 3498.12 283.180  18 
   5   4  -3 2989.52 262.233  18 
   5  -4  -3 3666.95 223.307  11 
   5  -4   3 3341.78 214.147  11 
   5   4  -3 2846.75 411.594   3 
   5   4   3 3138.67 224.086  10 
   5   4  -3 3447.09 231.093  10 
   5   4  -3 3082.78 433.060   2 
  -5   4  -3 3366.46 189.579  14 
   5  -4   3 3005.81 195.349  23 
   5  -4  -3 2821.33 341.523   5 
  -5  -4  -3 3293.31 198.184   9 
   5  -4  -3 2899.94 197.389  22 
  -5   4   3 3367.54 229.427  13 
   5  -4   3 3249.45 210.177  22 
  -5   4  -3 3403.07 219.670  13 
   5   4   3 3554.33 520.360   1 
   5   4  -4 173.643 73.8343  20 
   5   4   4 74.0617 157.329   1 
  -5   4  -4 158.712 59.3665   8 
   5  -4  -4 148.588 57.0024  19 
   5  -4   4 146.315 53.8359  19 
   5   4   4 142.630 49.7477  12 
   5   4   4 223.036 83.4029  18 
   5   4  -4 146.396 73.1611  18 
  -5   4  -4 577.632 92.6452  17 
   5  -4  -4 172.076 57.1940  11 
   5  -4   4 708.737 110.619  11 
  -5  -4  -4 138.460 41.9605  15 
   5   4   4 158.208 65.1938  10 
   5   4  -4 210.309 70.4879  10 
  -5   4  -4 205.455 50.4998  14 
   5  -4   4 123.971 48.4278  23 
   5   4  -4 135.658 47.8197  26 
   5  -4  -4 201.575 123.621   5 
   5  -4  -4 186.135 58.7704  22 
   5  -4   4 692.503 114.391  22 
  -5  -4  -4 123.860 46.9752   9 
  -5   4   4 149.871 59.3255  13 
   5   4  -5 18594.1 615.545  20 
  -5   4  -5 18040.2 586.494   8 
   5  -4  -5 18581.2 520.283  19 
   5  -4   5 19261.5 491.779  19 
   5   4   5 17920.2 557.579  12 
   5  -4   5 18506.8 564.634   7 
   5   4   5 16708.8 626.814  18 
   5   4  -5 17938.0 648.355  18 
   5  -4  -5 19328.4 535.288  11 
  -5   4  -5 19515.1 555.705  17 
   5   4  -5 17956.4 536.390  26 
   5   4   5 17731.0 565.373  10 
  -5  -4  -5 16609.2 452.488  15 
   5   4  -5 18717.7 559.585  10 
  -5   4  -5 17905.8 458.859  14 
  -5  -4  -5 18932.6 514.654   9 
   5  -4  -5 18318.7 518.839  22 
  -5   4   5 18575.8 567.286  13 
   5  -4   5 18563.9 535.256  22 
  -5   4  -5 17398.9 509.016  13 
   5   4  -6 89.0425 58.9420  20 
  -5   4  -6 52.3530 52.2029   8 
   5  -4  -6 6.41616 32.9390  19 
   5  -4   6 11.4236 29.0448  19 
   5   4   6 86.1924 40.9853  12 
   5   4   6 45.6667 53.6571  18 
   5   4  -6 47.3018 45.1715  18 
   5  -4   6-24.0346 35.9653   7 
  -5   4  -6-19.5929 49.6295  17 
   5  -4  -6 44.4921 45.6896  11 
   5   4  -6 33.6523 39.3054  26 
  -5  -4  -6 13.6793 32.8986  15 
   5  -4  -6 48.7681 40.8062  15 
   5   4   6 13.3778 44.8779  10 
  -5   4  -6-0.55955 25.1401  14 
   5  -4  -6-4.08658 39.9282  22 
  -5  -4  -6 11.5247 36.7359   9 
  -5   4   6 46.4655 44.2108  13 
  -5   4  -6 136.514 47.8647  13 
   5  -4  -7 107.877 49.6285  21 
   5   4  -7 161.312 72.4641  20 
  -5   4  -7 136.362 71.3045   8 
   5  -4  -7 67.3283 47.7441  19 
   5   4   7 95.7646 44.8998  12 
   5   4   7 81.9015 53.9490  18 
   5   4  -7 110.154 67.3622  18 
   5  -4   7 91.2000 50.6198   7 
   5  -4  -7 106.255 56.5225  11 
  -5   4  -7 107.576 50.3141  17 
   5   4  -7 53.8200 44.1011  26 
  -5  -4  -7 111.623 46.3513  15 
   5  -4  -7 66.2353 33.8259  15 
   5   4   7 130.880 60.3541  10 
  -5   4  -7 123.623 47.8913  14 
   5  -4  -7 63.9786 60.3494  22 
  -5  -4  -7 142.346 56.0773   9 
  -5   4   7 92.7098 53.3685  13 
  -5   4  -7 153.196 51.1405  13 
   5   4  -8 17.3793 26.5811  25 
   5   4  -8 11.6411 45.1325  20 
   5  -4  -8 63.1372 55.5270  19 
  -5   4  -8 78.5767 51.7635   8 
   5  -4  -8 80.8732 49.8027  11 
   5  -4   8 15.7820 45.5469   7 
  -5   4  -8 19.3513 37.4861  17 
   5   4  -8 30.7376 43.4001  26 
  -5   4  -8 22.3329 35.7985  25 
  -5  -4  -8 15.5270 41.0408  15 
   5  -4  -8 44.5017 42.2013  15 
  -5   4  -8 70.2156 48.5848  24 
   5   4   8 37.7667 52.4479  10 
   5   4  -8-22.8150 30.2348  24 
  -5   4  -8-23.6483 34.6177  14 
   5  -4  -8 41.8765 42.0793  22 
  -5  -4  -8 20.0924 33.2271   9 
  -5   4   8 13.3491 50.3420  13 
  -5   4  -8 10.0553 31.3299  13 
   5  -4  -8-13.3281 35.5731  21 
   5   4  -9 49876.5 1070.38  20 
  -5   4  -9 47727.6 1055.20   8 
   5  -4  -9 47714.6 863.931  19 
   5  -4   9 55136.3 1049.79   7 
   5  -4  -9 53292.7 985.699  11 
  -5   4  -9 54097.4 1024.99  17 
  -5   4  -9 52420.7 914.235   6 
   5   4  -9 50585.7 988.927  26 
   5   4   9 51156.6 1067.27  10 
  -5   4  -9 52396.9 949.399  25 
  -5  -4  -9 49638.1 918.097  15 
   5   4  -9 53474.5 857.723  25 
   5  -4  -9 54668.6 990.996  15 
  -5   4  -9 49599.7 923.892  24 
   5   4  -9 51845.0 847.198  24 
  -5   4  -9 49918.8 846.261  14 
  -5  -4  -9 46982.6 913.734   9 
   5  -4  -9 49370.0 953.083  22 
   5  -4  -9 49836.2 852.540  21 
   5  -4   9 48271.6 983.768  12 
   5  -4  10 12282.7 475.633  12 
   5   4 -10 11826.9 503.557  20 
  -5   4 -10 11669.0 513.064   8 
   5  -4 -10 11350.3 400.038  19 
   5  -4 -10 12101.2 465.917  11 
   5  -4  10 12462.4 486.173   7 
  -5   4 -10 11865.3 476.605  17 
  -5   4 -10 11505.6 414.601   6 
   5   4 -10 11553.6 465.416  26 
   5   4  10 11971.4 508.010  10 
  -5   4 -10 12302.2 446.636  25 
  -5  -4 -10 11462.1 431.430  15 
   5   4 -10 12329.2 405.405  25 
   5  -4 -10 12046.9 462.438  15 
  -5   4 -10 11862.9 439.642  24 
   5   4 -10 11937.5 400.281  24 
  -5   4 -10 11802.8 397.777  14 
   5  -4 -10 11537.0 456.222  22 
  -5  -4 -10 11863.4 453.871   9 
   5  -4 -10 12507.6 419.362  21 
   5  -4  11 7280.99 367.883  12 
   5   4 -11 7074.78 383.853  20 
   5  -4 -11 6480.99 330.183  11 
   5  -4  11 7643.83 384.145   7 
  -5   4 -11 7417.29 376.830  17 
  -5   4 -11 7490.47 327.213   6 
   5   4 -11 7215.86 365.446  26 
   5   4  11 7927.63 405.940  10 
  -5   4 -11 7567.91 345.707  25 
  -5  -4 -11 7725.51 351.343  15 
   5   4 -11 7587.25 319.444  25 
   5  -4 -11 7554.58 358.632  15 
  -5   4 -11 7295.82 339.118  24 
   5   4 -11 7688.60 322.082  24 
  -5   4 -11 7242.46 310.929  14 
   5  -4 -11 7028.41 346.833  22 
  -5  -4 -11 7875.29 364.659   9 
   5  -4 -11 7518.39 324.503  21 
   5  -4  12 456.780 90.2641  12 
   5  -4 -12 482.156 103.186  11 
  -5   4 -12 503.143 96.4262  17 
   5  -4  12 422.964 90.6501   7 
   5   4 -12 458.139 95.1735  26 
  -5   4 -12 457.761 91.8153  25 
   5   4 -12 474.042 84.0293  25 
  -5  -4 -12 424.269 88.8594  15 
  -5   4 -12 436.482 82.4528   6 
  -5   4 -12 462.253 84.8386  24 
   5   4  12 379.454 88.5624  10 
   5   4 -12 421.752 79.3732  24 
  -5   4 -12 396.052 75.6887  14 
   5  -4 -12 495.021 102.161  22 
  -5  -4 -12 426.090 92.5748   9 
   5  -4 -12 400.467 79.0586  21 
   5  -4  13 15127.1 504.931  12 
  -5   4 -13 16748.4 479.815  25 
   5  -4 -13 16605.7 512.839  11 
  -5   4 -13 15473.4 513.382  17 
   5  -4  13 15358.4 467.532   7 
  -5   4 -13 17027.9 491.680  16 
   5   4 -13 15321.2 507.049  26 
   5   4  13 15815.4 547.018  10 
  -5   4 -13 15934.0 444.291   6 
   5   4 -13 15831.4 453.103  25 
  -5  -4 -13 16887.7 509.065  15 
  -5   4 -13 15365.3 460.574  24 
   5   4 -13 16065.9 457.917  24 
  -5   4 -13 15584.8 431.080  14 
   5  -4 -13 15109.8 487.898  22 
  -5   4  13 15088.5 512.753  13 
  -5  -4 -13 15338.2 484.861   9 
   5  -4 -13 14491.5 426.503  21 
   5  -4 -14 221.820 58.2132  21 
   5  -4  14 286.660 68.8615  12 
   5  -4 -14 290.999 69.6239  11 
  -5   4 -14 266.607 68.3376  17 
  -5   4 -14 337.381 72.4349  16 
   5   4 -14 326.934 77.1856  26 
  -5   4 -14 268.201 56.4930  25 
   5   4 -14 283.568 61.9094  25 
  -5  -4 -14 318.555 72.2786  15 
  -5   4 -14 383.574 77.3091  24 
   5   4  14 312.337 77.4333  10 
   5   4 -14 203.092 54.2889  24 
  -5   4 -14 288.811 60.9474   6 
  -5   4 -14 204.274 49.6798  14 
   5  -4 -14 134.495 44.6986  22 
  -5   4  14 312.969 71.9811  13 
  -5  -4 -14 326.544 67.7320   9 
   5  -4  15 8257.78 316.117  12 
   5  -4 -15 8292.24 317.845  11 
  -5   4 -15 6816.49 297.960  17 
  -5   4 -15 8038.91 296.490  16 
   5   4 -15 7949.27 320.065  26 
   5   4  15 7804.28 328.900  10 
  -5   4 -15 8074.72 283.750  25 
   5   4 -15 8225.37 286.927  25 
  -5  -4 -15 7449.58 293.705  15 
  -5   4 -15 8204.62 286.586  24 
   5   4 -15 8019.81 284.222  24 
  -5   4 -15 7294.84 245.916  14 
   5  -4 -15 8247.24 314.676  22 
  -5   4  15 7949.24 320.547  13 
   5  -4  16 525.237 71.2074  12 
   5  -4 -16 524.326 77.4046  11 
  -5   4 -16 604.050 85.0521  17 
  -5   4 -16 543.373 70.3613  16 
   5   4 -16 533.438 77.0348  26 
  -5   4 -16 556.040 67.0860  25 
  -5  -4 -16 605.356 77.0604  15 
  -5   4 -16 513.868 64.9685  24 
   5   4  16 618.919 85.1404  10 
   5  -4 -16 587.949 77.8143  22 
  -5   4  16 439.380 67.5813  13 
   6  -4   0 62681.1 973.584  19 
   6   4   0 65374.4 1288.77  18 
   6   4   0 58001.5 1858.53   3 
   6  -4   0 63921.7 1003.74  11 
   6   4   0 59032.5 1140.46  27 
   6   4   0 56366.5 1818.59   2 
   6   4   0 61646.7 1027.89  10 
   6  -4   0 64467.1 1004.34  23 
   6  -4   0 64038.1 1006.75  22 
  -6   4   0 60066.5 991.753  13 
  -6   4   0 59368.1 1000.44   8 
  -6   4  -1 27104.8 670.339   8 
   6  -4  -1 27458.7 629.625  19 
   6  -4   1 28001.4 629.522  19 
   6   4   1 28818.3 849.067  18 
   6   4  -1 27683.8 835.856  18 
   6   4   1 25006.8 1199.63   3 
   6  -4  -1 27878.1 648.198  11 
   6   4  -1 24921.1 1213.25   3 
   6  -4   1 30677.4 684.393  11 
   6   4  -1 26840.8 736.233  27 
   6   4   1 24620.0 1174.25   2 
   6   4   1 27023.5 665.908  10 
   6   4  -1 24885.7 1213.21   2 
   6   4  -1 27102.9 656.164  10 
   6  -4   1 28041.2 639.471  23 
   6  -4  -1 25908.3 627.376  22 
   6  -4   1 29482.4 673.286  22 
  -6   4   1 28028.2 670.510  13 
  -6   4  -1 28449.9 660.615  13 
  -6   4   1 30257.4 677.600   8 
   6  -4   1 27280.9 591.107  12 
  -6   4  -2 13585.7 479.578   8 
   6  -4  -2 13118.3 431.760  19 
   6  -4   2 15344.4 462.069  19 
   6   4   2 12231.2 489.392  12 
   6   4   2 13177.0 570.276  18 
   6   4  -2 12561.6 563.382  18 
   6  -4  -2 13612.7 451.564  11 
   6  -4   2 14597.8 469.595  11 
   6   4  -2 12959.9 490.752  27 
   6   4   2 13462.9 469.676  10 
   6   4  -2 13346.2 456.586  10 
  -6   4  -2 13152.1 396.355  14 
   6  -4   2 15452.5 467.650  23 
   6  -4  -2 11391.8 665.689   5 
   6  -4  -2 14461.4 461.785  22 
   6  -4   2 13095.0 450.984  22 
  -6   4   2 13407.4 465.682  13 
  -6   4  -2 13892.1 455.609  13 
   6  -4   2 13376.6 425.510  12 
   6   4  -3 1545.91 179.899  20 
  -6   4  -3 1846.03 177.787   8 
   6  -4  -3 1660.06 159.914  19 
   6  -4   3 1660.46 150.059  19 
   6   4   3 1535.96 178.109  12 
   6  -4   3 1630.56 170.137   7 
   6   4   3 1655.32 205.238  18 
   6   4  -3 1764.55 209.678  18 
  -6   4  -3 1699.93 164.539  17 
   6  -4  -3 1566.83 158.744  11 
   6  -4   3 1639.16 159.400  11 
   6   4  -3 1585.88 152.603  26 
   6   4   3 1606.86 162.447  10 
   6   4  -3 1597.66 162.814  10 
  -6   4  -3 1525.74 136.537  14 
   6  -4   3 1599.14 151.895  23 
  -6  -4  -3 1800.89 154.426   9 
   6  -4  -3 1761.27 165.776  22 
  -6   4   3 1658.65 168.203  13 
   6  -4   3 1731.99 167.441  22 
  -6   4  -3 1798.63 164.885  13 
   6  -4   3 1751.48 157.125  12 
   6   4  -4 7587.89 398.020  20 
  -6   4  -4 7508.45 372.978   8 
   6  -4  -4 7048.66 321.754  19 
   6  -4   4 7942.71 329.571  19 
   6   4   4 6644.47 356.859  12 
   6  -4   4 7575.46 363.127   7 
   6   4   4 7679.24 433.562  18 
   6   4  -4 7489.88 425.741  18 
  -6   4  -4 7608.78 346.272  17 
   6  -4  -4 7221.97 336.490  11 
   6  -4   4 7012.64 338.223  11 
   6   4  -4 7552.60 340.347  26 
   6   4   4 7145.24 357.335  10 
  -6  -4  -4 7018.85 282.307  15 
   6   4  -4 7717.64 350.940  10 
  -6   4  -4 7474.74 305.408  14 
   6  -4   4 7561.02 322.605  23 
  -6  -4  -4 7677.68 326.820   9 
   6  -4  -4 7289.38 336.023  22 
  -6   4   4 7768.62 367.717  13 
   6  -4   4 7084.89 342.057  22 
  -6   4  -4 7650.83 332.868  13 
   6  -4  -4 7166.35 302.810  21 
   6  -4   4 7865.34 345.837  12 
   6   4  -5 2421.04 227.331  20 
  -6   4  -5 2512.63 224.894   8 
   6  -4  -5 2241.28 184.015  19 
   6  -4   5 2392.38 180.752  19 
   6   4   5 2131.46 207.290  12 
   6  -4   5 2410.36 214.241   7 
   6   4   5 2488.76 250.669  18 
   6   4  -5 2468.29 245.597  18 
   6  -4  -5 2466.30 199.227  11 
  -6   4  -5 2810.16 216.451  17 
   6   4  -5 2332.09 191.533  26 
   6   4   5 2384.36 211.139  10 
  -6  -4  -5 2604.52 177.258  15 
  -6   4  -5 2483.22 178.956  14 
   6  -4   5 2562.47 186.372  23 
  -6  -4  -5 2379.49 187.414   9 
   6  -4  -5 2595.12 203.620  22 
  -6   4   5 2562.41 212.836  13 
   6  -4   5 2077.24 195.420  22 
  -6   4  -5 2484.77 190.286  13 
   6  -4  -5 2419.42 179.945  21 
   6  -4   5 2378.32 197.122  12 
   6   4  -6 40603.4 949.749  20 
  -6   4  -6 40342.2 933.102   8 
   6  -4  -6 38186.9 775.954  19 
   6  -4   6 43827.1 784.504  19 
   6   4   6 42260.6 906.307  12 
   6  -4   6 39051.6 862.882   7 
   6   4   6 35916.2 936.042  18 
   6   4  -6 40715.5 1003.32  18 
   6  -4  -6 37732.3 812.185  11 
  -6   4  -6 42009.6 851.622  17 
   6   4  -6 39611.9 831.461  26 
   6   4   6 39257.3 889.225  10 
  -6  -4  -6 34999.1 710.414  15 
  -6   4  -6 40430.9 741.986  14 
  -6  -4  -6 42745.8 827.883   9 
   6  -4  -6 39576.5 825.586  22 
  -6   4   6 39608.3 881.246  13 
  -6   4  -6 39804.8 793.215  13 
   6  -4  -6 40601.1 762.128  21 
   6  -4   6 39986.0 836.140  12 
   6  -4   7 55884.0 1022.35  12 
   6   4  -7 56257.4 1140.22  20 
  -6   4  -7 59419.7 1150.42   8 
   6  -4  -7 61190.5 990.373  19 
   6  -4   7 55106.8 880.115  19 
   6   4   7 54355.9 1048.03  12 
   6  -4   7 57574.3 1070.65   7 
   6   4   7 50240.0 1113.80  18 
   6   4  -7 54785.4 1153.81  18 
   6  -4  -7 55168.9 1011.04  11 
  -6   4  -7 57471.8 1028.29  17 
   6   4  -7 55823.8 1007.83  26 
   6   4   7 54559.5 1079.92  10 
  -6  -4  -7 59215.3 962.281  15 
  -6   4  -7 54545.6 893.190  14 
  -6  -4  -7 54872.6 970.102   9 
   6  -4  -7 55697.3 1009.50  22 
  -6   4   7 53008.5 1050.67  13 
  -6   4  -7 55283.2 945.506  13 
   6  -4  -7 59249.9 943.033  21 
   6  -4   8 15112.8 526.312  12 
   6   4  -8 14908.5 573.198  20 
  -6   4  -8 14844.1 575.624   8 
   6  -4  -8 14802.9 473.372  19 
   6   4   8 13760.6 506.237  12 
   6  -4   8 16667.5 571.404   7 
   6  -4  -8 15533.0 524.271  11 
  -6   4  -8 15706.3 529.188  17 
   6   4  -8 14910.0 514.054  26 
   6   4   8 15404.1 566.617  10 
  -6   4  -8 16101.3 506.607  25 
  -6  -4  -8 13409.9 454.157  15 
  -6   4  -8 14592.2 486.692  24 
  -6   4  -8 14922.1 451.647  14 
  -6  -4  -8 15615.4 509.918   9 
   6  -4  -8 15054.3 512.411  22 
  -6   4   8 16029.9 569.861  13 
   6  -4  -8 15986.3 475.770  21 
   6  -4   9 5224.61 308.669  12 
   6   4  -9 5029.87 326.556  20 
  -6   4  -9 4746.39 327.697   8 
   6  -4  -9 4861.72 266.165  19 
   6  -4   9 5301.35 326.023   7 
   6  -4  -9 5225.14 304.791  11 
  -6   4  -9 4796.62 298.572  17 
   6   4  -9 4559.77 286.653  26 
   6   4   9 4972.29 323.534  10 
  -6   4  -9 5415.20 291.763  25 
  -6  -4  -9 4530.44 266.598  15 
  -6   4  -9 4949.97 279.384  24 
  -6   4  -9 4887.66 258.041  14 
  -6  -4  -9 4718.66 282.729   9 
   6  -4  -9 4862.95 294.488  22 
  -6   4   9 5205.25 320.403  13 
   6  -4  -9 4697.38 259.898  21 
   6  -4  10 22660.6 666.681  12 
   6   4 -10 23109.1 698.482  20 
   6  -4 -10 23324.8 569.028  19 
   6  -4 -10 24757.7 665.123  11 
   6  -4  10 26361.5 742.612   7 
  -6  -4 -10 21529.6 590.236  15 
  -6   4 -10 23748.2 671.040  17 
  -6   4 -10 24112.9 615.605   6 
   6   4 -10 23645.3 651.845  26 
   6   4  10 23820.4 709.337  10 
  -6   4 -10 23641.9 618.307  25 
  -6   4 -10 24985.1 634.959  24 
  -6   4 -10 23211.9 572.049  14 
  -6  -4 -10 24254.7 649.411   9 
   6  -4 -10 22580.5 636.151  22 
  -6   4  10 21804.5 669.965  13 
   6  -4 -10 24021.5 593.473  21 
   6  -4  11 20790.5 623.283  12 
   6   4 -11 22030.3 663.344  20 
   6  -4 -11 22652.1 631.554  11 
   6  -4  11 21494.1 634.437   7 
  -6   4 -11 22034.1 641.590  17 
  -6   4 -11 22497.5 579.016   6 
   6   4 -11 21804.8 615.752  26 
   6   4  11 22261.5 671.887  10 
  -6   4 -11 21995.9 580.713  25 
  -6  -4 -11 21883.0 591.524  15 
   6   4 -11 22311.4 533.110  25 
  -6   4 -11 22161.8 581.938  24 
   6   4 -11 22075.8 531.701  24 
  -6   4 -11 22013.1 550.647  14 
   6  -4 -11 22704.8 629.100  22 
  -6   4  11 21918.6 667.464  13 
  -6  -4 -11 22390.6 615.637   9 
   6  -4 -11 22579.9 566.675  21 
   6  -4  12 3988.59 264.617  12 
   6  -4 -12 4198.90 265.088  11 
   6  -4  12 4402.10 269.303   7 
  -6   4 -12 4150.13 267.453  17 
   6   4 -12 3872.68 250.157  26 
  -6   4 -12 4213.29 237.026   6 
   6   4  12 4100.62 275.431  10 
  -6   4 -12 4270.45 240.475  25 
  -6  -4 -12 4031.83 246.673  15 
   6   4 -12 4204.10 223.391  25 
  -6   4 -12 4141.98 237.210  24 
   6   4 -12 4242.36 226.733  24 
  -6   4 -12 3893.42 220.665  14 
   6  -4 -12 4389.23 265.619  22 
  -6   4  12 4056.69 271.713  13 
  -6  -4 -12 4051.64 249.743   9 
   6  -4 -12 3788.35 229.756  21 
   6  -4  13 29755.6 692.944  12 
   6  -4 -13 28247.3 660.176  11 
  -6   4 -13 29428.1 686.779  17 
  -6   4 -13 30354.0 648.180  16 
   6   4 -13 28233.4 659.916  26 
   6   4  13 29544.9 719.343  10 
  -6   4 -13 29439.3 606.391   6 
  -6   4 -13 28671.6 604.509  25 
  -6  -4 -13 26563.2 622.301  15 
   6   4 -13 29217.3 588.677  25 
  -6   4 -13 29497.7 613.226  24 
   6   4 -13 28727.6 585.400  24 
   6  -4 -13 24951.2 560.875  23 
  -6   4 -13 28238.2 578.467  14 
   6  -4 -13 29239.1 668.121  22 
  -6   4  13 28469.1 700.670  13 
  -6  -4 -13 26665.8 626.650   9 
   6  -4 -13 28462.6 593.301  21 
   6  -4  14 14687.2 446.847  12 
   6  -4 -14 14705.7 441.062  11 
  -6   4 -14 14979.6 459.476  17 
  -6   4 -14 14980.3 422.057  16 
   6   4 -14 14000.6 432.388  26 
   6   4  14 14788.8 474.572  10 
  -6   4 -14 14809.7 395.717  25 
  -6   4 -14 14864.7 393.071   6 
  -6  -4 -14 14502.0 429.417  15 
   6   4 -14 13867.2 373.556  25 
  -6   4 -14 14638.6 394.486  24 
   6   4 -14 14075.7 377.937  24 
  -6   4 -14 14252.4 369.631  14 
   6  -4 -14 15377.4 449.303  22 
  -6   4  14 13974.1 454.512  13 
  -6  -4 -14 14959.5 427.882   9 
   6  -4 -14 13865.5 383.460  21 
   6  -4  15 2548.37 165.749  12 
   6  -4 -15 2573.67 168.486  11 
  -6   4 -15 2602.23 176.865  17 
  -6   4 -15 2409.96 153.877  16 
   6   4 -15 2205.63 155.818  26 
   6   4  15 2357.93 170.931  10 
  -6   4 -15 2290.86 138.462  25 
  -6  -4 -15 2469.72 159.519  15 
  -6   4 -15 2185.25 131.975   6 
  -6   4 -15 2315.65 139.347  24 
   6  -4 -15 2312.59 159.858  22 
  -6   4  15 2308.45 166.855  13 
  -6   4 -16 68.4176 32.2611  17 
  -6  -4 -16 76.9856 30.6793  15 
  -7   4   0 35.0992 48.7891   8 
   7  -4   0 52.2244 59.9959  19 
   7   4   0-3.29091 63.4118  18 
   7  -4   0 6.17479 36.5226   7 
   7  -4   0-1.78102 41.9737  11 
   7   4   0-18.6655 48.8510  27 
   7   4   0 27.3682 36.7854  10 
   7  -4   0 5.71511 45.4222  23 
   7  -4   0-14.2492 41.0240  22 
  -7   4   0 96.9632 54.8420  13 
  -7   4  -1 25406.3 654.089   8 
   7  -4  -1 26480.4 646.671  19 
   7  -4   1 25774.5 630.881  19 
   7   4   1 25115.1 718.725  12 
   7  -4  -1 21864.5 594.280   7 
   7  -4   1 24433.1 642.667   7 
   7   4   1 24669.3 808.360  18 
   7   4  -1 23268.8 786.922  18 
   7  -4  -1 25082.5 643.906  11 
   7  -4   1 24290.1 644.118  11 
   7   4  -1 23511.2 718.226  27 
   7   4   1 24515.7 758.245  27 
   7   4   1 24720.7 650.772  10 
   7   4  -1 23695.0 639.570  10 
   7  -4  -1 26436.9 664.585  23 
   7  -4   1 24561.6 630.956  23 
   7  -4  -1 26016.7 652.270  22 
   7  -4   1 25824.0 660.732  22 
  -7   4   1 25669.0 647.490  13 
  -7   4  -1 26180.4 642.282  13 
   7  -4  -1 22668.1 579.357  21 
   7  -4  -2-17.2492 36.0670  21 
  -7   4  -2 80.4149 34.8752   8 
   7  -4  -2 27.9797 35.3817  19 
   7  -4   2 44.0346 43.4925  19 
   7  -4   2 103.136 51.4589  12 
   7   4   2 84.4110 45.4287  12 
   7   4   2 159.982 76.8435  18 
   7   4  -2 133.369 81.3487  18 
   7  -4  -2 127.760 56.2272   7 
   7  -4   2 32.2530 41.9999   7 
  -7   4  -2 32.4206 35.1817  17 
   7  -4  -2 65.1105 56.5337  11 
   7  -4   2 37.0629 46.9244  11 
   7   4  -2 97.6422 72.2319  27 
   7   4   2 86.7798 47.4948  10 
   7   4  -2 102.830 50.3692  10 
  -7   4  -2 76.4083 42.7513  14 
   7  -4  -2 49.8768 40.3685  23 
   7  -4   2 74.4315 51.8583  23 
   7  -4  -2 33.7428 47.8073  22 
   7  -4   2 59.9533 65.9677  22 
  -7   4   2 63.3372 42.4586  13 
  -7   4  -2 63.0692 42.4098  13 
   7  -4   3 9532.83 373.289  12 
   7   4  -3 9097.35 441.100  20 
  -7   4  -3 8719.14 398.424   8 
   7  -4  -3 9316.54 380.465  19 
   7  -4   3 8477.11 355.176  19 
   7   4   3 9090.63 431.626  12 
   7  -4  -3 8240.47 350.264   7 
   7  -4   3 8900.16 397.255   7 
   7   4   3 9645.74 501.529  18 
   7   4  -3 9315.20 490.735  18 
   7   4  -3 8330.40 354.985  26 
  -7   4  -3 9150.63 377.129  17 
   7  -4  -3 8754.79 379.325  11 
   7  -4   3 9259.28 405.055  11 
   7   4   3 8800.88 400.396  10 
   7   4  -3 8383.83 375.741  10 
  -7   4  -3 9050.30 352.417  14 
   7  -4   3 8617.43 369.508  23 
   7  -4  -3 8768.01 377.535  22 
  -7   4   3 9667.54 405.277  13 
   7  -4   3 8619.87 392.410  22 
  -7   4  -3 8798.86 366.830  13 
   7  -4  -3 8956.07 357.076  21 
   7  -4  -4 599.851 96.2540  21 
   7   4  -4 673.058 125.773  20 
  -7   4  -4 847.004 133.459   8 
   7  -4  -4 593.940 99.5253  19 
   7  -4   4 776.942 109.877  19 
   7  -4   4 666.081 104.517  12 
   7   4   4 677.077 124.544  12 
   7   4   4 603.945 125.306  18 
   7   4  -4 735.577 144.377  18 
   7  -4   4 643.468 112.748   7 
  -7   4  -4 788.397 112.488  17 
   7  -4  -4 696.052 115.415  11 
   7   4  -4 648.289 108.065  26 
   7   4   4 568.773 111.267  10 
   7   4  -4 729.919 113.671  10 
  -7   4  -4 729.558 105.659  14 
   7  -4   4 694.205 111.707  23 
   7  -4  -4 771.035 126.068  22 
  -7  -4  -4 857.616 113.433   9 
   7  -4   4 726.984 121.102  22 
  -7   4   4 698.688 119.523  13 
  -7   4  -4 709.759 103.212  13 
   7  -4   5 1319.33 146.844  12 
   7   4  -5 1435.71 173.157  20 
  -7   4  -5 1676.94 184.318   8 
   7  -4  -5 1205.99 142.388  19 
   7  -4   5 1444.40 144.686  19 
   7   4   5 1211.08 163.837  12 
   7  -4   5 1416.86 165.813   7 
   7   4   5 1489.42 198.819  18 
   7   4  -5 1467.41 197.890  18 
   7  -4  -5 1488.39 161.782  11 
  -7   4  -5 1521.45 159.779  17 
   7   4  -5 1817.72 169.323  26 
   7   4   5 1281.91 164.321  10 
  -7  -4  -5 1339.02 130.798  15 
  -7   4  -5 1711.43 153.182  14 
   7  -4   5 1595.79 153.654  23 
  -7  -4  -5 1289.66 143.093   9 
   7  -4  -5 1393.49 158.510  22 
  -7   4   5 1487.27 166.085  13 
   7  -4   5 1293.66 163.328  22 
  -7   4  -5 2008.12 171.656  13 
   7  -4  -5 1412.43 142.501  21 
   7  -4   6 86535.2 1281.07  12 
   7   4  -6 82562.2 1406.00  20 
  -7   4  -6 80335.4 1347.63   8 
   7  -4  -6 83746.1 1203.94  19 
   7  -4   6 79459.9 1154.96  19 
   7   4   6 82015.8 1357.77  12 
   7   4   6 78292.8 1442.50  18 
   7   4  -6 83283.2 1496.44  18 
   7  -4   6 85226.0 1344.01   7 
   7  -4  -6 85427.0 1287.78  11 
  -7   4  -6 85041.0 1244.30  17 
   7   4  -6 79033.4 1206.87  26 
   7   4   6 84031.2 1336.78  10 
  -7   4  -6 82416.6 1140.23  14 
  -7  -4  -6 83317.3 1138.58  15 
   7  -4   6 84091.8 1190.45  23 
  -7  -4  -6 81696.0 1210.62   9 
   7  -4  -6 80741.5 1252.40  22 
  -7   4   6 82521.8 1322.36  13 
  -7   4  -6 83966.3 1170.79  13 
   7  -4  -6 85407.6 1180.76  21 
   7  -4   7 60774.3 1083.59  12 
   7   4  -7 62961.5 1208.35  20 
  -7   4  -7 65817.3 1223.34   8 
   7  -4  -7 62683.3 1018.69  19 
   7  -4   7 60244.4 968.804  19 
   7   4   7 62716.2 1156.47  12 
   7   4   7 60653.4 1223.22  18 
   7   4  -7 59946.5 1230.97  18 
   7  -4   7 58732.6 1115.11   7 
   7  -4  -7 63053.7 1100.54  11 
  -7   4  -7 60085.4 1052.24  17 
   7   4  -7 60754.3 1037.73  26 
  -7   4  -7 64669.3 1046.68  25 
   7   4   7 61081.0 1132.53  10 
  -7  -4  -7 61043.5 981.630  15 
  -7   4  -7 62404.9 1035.73  24 
  -7   4  -7 61449.2 970.860  14 
  -7  -4  -7 63926.0 1066.39   9 
   7  -4  -7 68928.4 1145.59  22 
  -7   4   7 61584.8 1136.88  13 
  -7   4  -7 56313.2 942.410  13 
   7  -4  -7 61769.2 1003.97  21 
   7  -4   8 26206.3 697.258  12 
   7   4  -8 25326.0 739.493  20 
  -7   4  -8 24659.3 751.581   8 
   7  -4  -8 26186.6 635.708  19 
   7   4   8 24033.4 690.293  12 
   7   4  -8 23975.9 737.311  18 
   7  -4   8 27798.4 763.204   7 
   7  -4  -8 26885.4 707.131  11 
  -7   4  -8 27670.2 703.250  17 
   7   4  -8 25438.9 659.489  26 
   7   4   8 25691.5 723.859  10 
  -7   4  -8 24681.6 629.875  25 
  -7  -4  -8 24638.7 616.878  15 
  -7   4  -8 24849.5 631.838  24 
  -7   4  -8 24356.1 595.646  14 
  -7  -4  -8 25262.7 659.857   9 
   7  -4  -8 24008.6 666.900  22 
  -7   4   8 24663.2 719.052  13 
   7  -4  -8 24772.3 621.340  21 
   7  -4   9 3790.70 264.786  12 
   7   4  -9 3672.36 276.408  20 
   7  -4  -9 3458.59 220.576  19 
   7   4   9 3580.23 251.707  12 
   7  -4   9 4885.09 323.939   7 
   7  -4  -9 3592.15 262.403  11 
  -7   4  -9 4077.89 272.809  17 
   7   4  -9 3623.07 247.250  26 
   7   4   9 3772.97 274.567  10 
  -7   4  -9 4033.00 247.726  25 
  -7  -4  -9 4062.89 249.118  15 
  -7   4  -9 3875.03 243.794  24 
  -7   4  -9 3564.48 220.263  14 
  -7  -4  -9 3240.24 233.816   9 
   7  -4  -9 3721.01 260.826  22 
  -7   4   9 3730.29 277.765  13 
   7  -4  -9 3662.04 231.337  21 
   7  -4 -10 50.8089 48.6767  21 
   7   4 -10 43.7009 53.2600  20 
   7  -4 -10-5.99783 36.8986  19 
   7  -4  10 41.1979 43.3118  12 
   7  -4 -10 89.9237 46.0856  11 
  -7   4 -10 58.5771 55.9148  17 
   7  -4  10 64.4500 52.6011   7 
   7   4 -10 75.6834 44.1997  26 
  -7   4 -10 37.5235 35.4628  25 
  -7  -4 -10 55.8130 38.9070  15 
  -7   4 -10 20.9823 44.5024   6 
  -7   4 -10 23.6581 37.1713  24 
   7   4  10 36.6905 37.8956  10 
   7  -4 -10-17.3895 44.5114  23 
  -7   4 -10 24.4118 31.0245  14 
   7  -4 -10 12.1376 55.6645  22 
  -7  -4 -10-6.17053 38.3811   9 
  -7   4  10 83.1157 59.7114  13 
   7  -4  11 6409.92 336.806  12 
   7   4 -11 6444.89 340.582  20 
   7  -4 -11 6967.99 343.640  11 
   7  -4  11 6904.88 349.126   7 
  -7   4 -11 6871.01 338.606  17 
  -7   4 -11 6529.94 308.571   6 
   7   4 -11 6528.43 317.601  26 
   7   4  11 6337.16 343.806  10 
  -7   4 -11 6434.42 295.782  25 
  -7  -4 -11 6337.49 307.742  15 
  -7   4 -11 6322.30 290.148  24 
  -7   4 -11 6257.24 293.047  14 
   7  -4 -11 5850.86 299.160  23 
   7  -4 -11 6059.81 319.072  22 
  -7  -4 -11 6172.12 312.959   9 
  -7   4  11 6724.32 351.337  13 
   7  -4 -11 6278.92 298.117  21 
   7  -4  12 2473.12 199.810  12 
   7  -4 -12 2634.73 202.591  11 
  -7   4 -12 2680.54 202.823  17 
   7  -4  12 2612.51 202.370   7 
   7   4 -12 2529.13 193.165  26 
  -7   4 -12 2533.02 182.987   6 
   7   4  12 2455.60 206.141  10 
  -7   4 -12 2621.20 178.572  25 
  -7  -4 -12 2411.78 184.368  15 
  -7   4 -12 2319.01 171.446  14 
   7  -4 -12 2298.15 175.235  23 
   7  -4 -12 3023.64 215.952  22 
  -7   4  12 2518.00 208.994  13 
  -7  -4 -12 2556.46 194.545   9 
  -7   4 -12 2720.47 181.258  24 
   7  -4 -12 2153.18 169.863  21 
   7  -4  13 44745.2 829.345  12 
   7  -4 -13 47584.2 841.053  11 
  -7   4 -13 45517.3 824.675  17 
  -7   4 -13 44514.4 778.123  16 
   7   4 -13 44949.9 790.066  26 
   7   4  13 46026.8 859.124  10 
  -7   4 -13 46623.9 753.591   6 
  -7   4 -13 43444.1 707.997  25 
  -7  -4 -13 44529.8 777.966  15 
  -7   4 -13 41165.6 693.006  24 
  -7   4 -13 44482.6 711.700  14 
   7  -4 -13 45694.0 820.086  22 
  -7   4  13 45578.8 855.472  13 
  -7  -4 -13 44816.1 783.535   9 
   7  -4 -13 42134.2 727.585  21 
   7  -4  14 36565.0 687.658  12 
   7  -4 -14 37095.9 684.323  11 
  -7   4 -14 39355.7 715.341  17 
  -7   4 -14 40118.8 676.202  16 
   7   4 -14 35443.6 638.113  26 
   7   4  14 37604.1 714.439  10 
  -7   4 -14 34288.2 567.157  25 
  -7   4 -14 38714.5 625.464   6 
  -7  -4 -14 37387.8 659.508  15 
  -7   4 -14 34133.2 567.203  24 
  -7   4 -14 36924.2 584.968  14 
   7  -4 -14 40825.2 712.953  22 
  -7   4  14 37380.9 715.493  13 
  -7  -4 -14 37194.0 650.841   9 
   7  -4 -14 30837.1 576.239  21 
   7  -4  15 596.880 77.4090  12 
   7  -4 -15 568.106 77.7356  11 
  -7   4 -15 574.649 77.1285  17 
  -7   4 -15 591.022 73.1417  16 
  -7  -4 -15 583.607 73.1174  15 
   7   4  15 528.302 75.7032  10 
   7  -4 -15 499.376 72.4204  22 
  -7   4  15 551.028 77.7144  13 
   8  -4   0 1127.39 142.025  19 
   8  -4   0 1053.96 137.414   7 
   8   4   0 1200.80 186.865  18 
  -8   4   0 779.796 113.195  17 
   8  -4   0 983.764 138.134  11 
   8   4   0 1078.85 167.595  27 
   8   4   0 906.472 130.908  10 
   8  -4   0 1076.51 144.766  23 
  -8   4   0 1045.12 130.981  13 
   8  -4   0 955.645 141.298  22 
  -8   4  -1 5773.58 308.514   8 
   8  -4  -1 5233.36 292.351  19 
   8  -4   1 6222.40 316.228  19 
   8   4   1 5676.38 360.709  12 
   8  -4  -1 5223.36 296.103   7 
   8  -4   1 5659.56 313.185   7 
   8   4   1 5709.57 402.163  18 
   8   4  -1 5864.25 402.506  18 
  -8   4  -1 5931.77 294.634  17 
   8  -4  -1 5820.50 324.735  11 
   8  -4   1 5912.22 330.582  11 
   8   4  -1 5658.75 360.925  27 
   8   4   1 5908.53 385.618  27 
   8   4   1 5726.92 311.359  10 
   8   4  -1 5259.17 300.564  10 
   8  -4  -1 5273.75 310.981  23 
   8  -4   1 5868.08 318.463  23 
   8  -4  -1 5875.71 325.930  22 
   8  -4   1 6243.40 341.378  22 
  -8   4   1 6001.18 312.692  13 
  -8   4  -1 6211.14 306.677  13 
   8  -4   2 1317.75 136.141  12 
  -8   4  -2 1291.27 150.319   8 
   8  -4  -2 1313.92 150.748  19 
   8  -4   2 1279.41 145.949  19 
   8  -4  -2 1165.51 140.562   7 
   8  -4   2 1336.08 154.540   7 
   8   4  -2 1581.08 215.280  18 
   8   4   2 1128.01 163.204  12 
   8   4   2 1529.75 201.771  18 
  -8   4  -2 1175.73 137.091  17 
   8  -4  -2 1325.67 158.773  11 
   8  -4   2 1329.58 158.215  11 
   8   4  -2 1308.66 174.293  27 
   8   4  -2 1140.29 132.255  26 
   8   4   2 1162.99 150.901  10 
   8   4  -2 1207.50 145.392  10 
  -8   4  -2 1449.03 147.123  14 
   8  -4  -2 1222.37 155.289  23 
   8  -4   2 1412.74 160.730  23 
  -8   4   2 1267.92 145.939  13 
   8  -4  -2 1378.53 156.840  22 
  -8   4  -2 1249.18 137.892  13 
   8  -4   2 1326.46 160.381  22 
   8  -4  -2 1295.73 148.110  21 
   8   4  -3 20532.0 689.203  20 
   8  -4   3 20462.4 562.630  12 
  -8   4  -3 20696.9 619.326   8 
   8  -4  -3 21081.1 595.835  19 
   8  -4   3 19018.8 557.875  19 
   8   4   3 20077.8 667.589  12 
   8   4   3 19191.3 730.101  18 
   8   4  -3 19023.6 727.502  18 
   8  -4   3 21765.6 641.936   7 
  -8   4  -3 22047.0 579.992  17 
   8  -4  -3 20482.5 610.867  11 
   8  -4   3 19377.0 612.360  11 
   8   4  -3 18761.4 634.535  27 
   8   4  -3 19553.4 548.290  26 
   8   4   3 20390.0 606.172  10 
   8   4  -3 18999.9 568.726  10 
  -8   4  -3 21007.5 558.644  14 
   8  -4  -3 19629.9 596.319  23 
   8  -4   3 20475.0 589.742  23 
   8  -4  -3 20451.7 610.019  22 
  -8   4   3 20186.8 597.518  13 
   8  -4   3 21423.7 641.123  22 
  -8   4  -3 20802.9 562.874  13 
   8  -4  -3 20150.7 570.778  21 
   8  -4  -4 1009.52 129.234  21 
   8  -4   4 1170.60 136.137  12 
   8   4  -4 942.894 152.252  20 
   8  -4  -4 1001.12 137.126  19 
  -8   4  -4 1032.35 146.339   8 
   8  -4   4 934.191 126.273  19 
   8   4   4 957.445 150.707  12 
   8   4   4 1062.39 166.440  18 
   8   4  -4 1015.90 167.221  18 
  -8   4  -4 945.812 125.200  17 
   8  -4   4 983.597 141.594   7 
   8  -4  -4 1005.25 142.275  11 
   8   4  -4 888.068 122.224  26 
  -8   4  -4 1001.02 123.093  14 
   8   4   4 931.965 139.241  10 
   8  -4   4 1222.78 151.251  23 
   8  -4  -4 1242.05 155.672  23 
  -8   4   4 1169.46 147.325  13 
   8  -4  -4 1099.01 147.695  22 
  -8  -4  -4 1012.17 130.394   9 
   8  -4   4 1168.98 153.997  22 
  -8   4  -4 1192.17 132.063  13 
   8  -4   5 73377.5 1150.43  12 
   8   4  -5 66172.6 1256.73  20 
  -8   4  -5 65131.7 1192.51   8 
   8  -4  -5 65704.5 1078.34  19 
   8  -4   5 66173.3 1059.77  19 
   8   4   5 67361.5 1250.06  12 
   8   4   5 64942.3 1354.87  18 
   8   4  -5 67340.5 1373.83  18 
   8  -4   5 69315.8 1214.20   7 
  -8   4  -5 64086.0 1049.88  17 
   8  -4  -5 66962.5 1150.29  11 
   8   4  -5 64146.0 1038.50  26 
  -8  -4  -5 66809.6 975.575  15 
   8   4   5 65069.8 1154.90  10 
  -8   4  -5 68026.9 1044.34  14 
   8  -4  -5 67591.4 1148.88  23 
   8  -4   5 64707.9 1076.97  23 
  -8  -4  -5 69997.9 1113.89   9 
   8  -4  -5 65911.4 1140.25  22 
  -8   4   5 68236.7 1167.16  13 
   8  -4   5 66195.2 1187.54  22 
  -8   4  -5 68514.7 1030.65  13 
   8  -4  -5 65891.9 1065.50  21 
   8  -4   6 7735.01 367.197  12 
   8   4  -6 7487.11 405.348  20 
  -8   4  -6 7845.18 403.214   8 
   8  -4  -6 8598.73 369.969  19 
   8  -4   6 7215.78 335.982  19 
   8   4   6 7530.06 405.880  12 
   8   4   6 7412.40 431.569  18 
   8   4  -6 7709.69 448.769  18 
   8  -4   6 7418.59 392.206   7 
   8  -4  -6 7957.46 385.168  11 
  -8   4  -6 8540.99 370.261  17 
   8   4  -6 7593.11 346.583  26 
  -8  -4  -6 6688.01 302.486  15 
   8   4   6 7499.87 380.504  10 
  -8   4  -6 7412.15 331.935  14 
   8  -4  -6 7114.42 356.427  23 
   8  -4   6 7679.90 353.776  23 
  -8  -4  -6 7270.77 344.265   9 
   8  -4  -6 7514.08 372.099  22 
  -8   4   6 7322.43 375.906  13 
  -8   4  -6 7186.93 316.891  13 
   8  -4  -6 7868.79 350.947  21 
   8  -4   7 49000.0 959.190  12 
   8   4  -7 48663.8 1046.92  20 
   8  -4  -7 45232.8 862.406  19 
   8   4   7 48795.9 1028.78  12 
   8   4   7 44671.5 1050.76  18 
   8   4  -7 46759.0 1095.05  18 
   8  -4   7 52041.9 1070.44   7 
   8  -4  -7 48096.7 979.400  11 
  -8   4  -7 49812.0 931.358  17 
   8   4  -7 47445.8 879.765  26 
  -8   4  -7 47872.2 893.255  25 
   8   4   7 48277.8 983.650  10 
  -8  -4  -7 48071.8 858.023  15 
  -8   4  -7 46905.3 885.957  24 
  -8   4  -7 47174.5 854.406  14 
   8  -4  -7 47848.3 951.938  23 
  -8  -4  -7 41993.2 868.142   9 
   8  -4  -7 49341.1 986.240  22 
  -8   4   7 47382.8 991.662  13 
  -8   4  -7 51190.8 854.487  13 
   8  -4  -7 49943.8 917.651  21 
   8  -4   8 1372.63 156.715  12 
   8   4  -8 1238.84 160.234  20 
   8  -4  -8 1831.04 163.509  19 
   8   4   8 1165.26 155.732  12 
   8   4  -8 1281.69 172.415  18 
  -8   4  -8 1315.50 150.193  17 
   8  -4  -8 1342.28 164.849  11 
   8  -4   8 1238.26 164.635   7 
   8   4  -8 1362.40 147.145  26 
  -8   4  -8 1319.16 139.077  25 
   8   4   8 1227.44 152.672  10 
  -8  -4  -8 1460.79 146.202  15 
  -8   4  -8 1211.87 134.852  24 
  -8   4  -8 1276.31 133.625  14 
   8  -4  -8 1365.19 159.057  23 
  -8  -4  -8 1165.35 139.938   9 
  -8   4   8 1394.01 169.364  13 
   8  -4  -8 1249.23 160.433  22 
   8  -4  -8 1284.10 140.645  21 
   8  -4  -9 669.267 105.708  21 
   8   4  -9 652.835 118.329  20 
   8  -4  -9 548.489 90.5745  19 
   8  -4   9 648.074 114.012  12 
   8   4   9 558.002 101.104  12 
  -8   4  -9 682.225 111.429  17 
   8  -4  -9 656.500 113.123  11 
   8  -4   9 575.743 114.081   7 
   8   4  -9 787.785 110.358  26 
  -8   4  -9 636.846 96.5325  25 
  -8  -4  -9 648.251 102.015  15 
  -8   4  -9 624.752 105.035   6 
  -8   4  -9 641.122 95.7470  24 
   8   4   9 665.188 113.771  10 
   8  -4  -9 584.725 99.7257  23 
  -8   4  -9 630.170 96.8499  14 
   8  -4  -9 714.445 113.242  22 
  -8  -4  -9 627.959 104.671   9 
  -8   4   9 678.502 127.978  13 
   8  -4 -10 292.025 71.2554  21 
   8   4 -10 447.407 95.4374  20 
   8  -4  10 428.113 91.7711  12 
   8  -4 -10 512.240 106.193  11 
  -8   4 -10 486.645 93.0045  17 
   8  -4  10 446.903 97.4208   7 
   8   4 -10 423.053 84.5218  26 
  -8   4 -10 391.890 75.4924  25 
  -8  -4 -10 417.212 81.4259  15 
  -8   4 -10 398.859 85.4368   6 
  -8   4 -10 461.682 83.8049  24 
   8   4  10 376.288 90.2134  10 
   8  -4 -10 382.006 84.3391  23 
  -8   4 -10 444.983 79.0683  14 
   8  -4 -10 496.742 103.210  22 
  -8  -4 -10 426.116 80.5250   9 
  -8   4  10 447.700 104.796  13 
   8  -4 -11 948.030 119.761  21 
   8  -4  11 1188.41 141.228  12 
  -8   4 -11 1132.92 133.001  17 
   8  -4 -11 1293.25 150.298  11 
   8  -4  11 1040.29 131.451   7 
  -8   4 -11 1117.67 127.988   6 
   8   4 -11 1120.06 125.153  26 
   8   4  11 1076.08 137.872  10 
  -8   4 -11 1136.00 115.263  25 
  -8  -4 -11 1127.66 125.979  15 
  -8   4 -11 1139.50 115.279  24 
  -8   4 -11 1120.36 119.217  14 
   8  -4 -11 1011.36 121.201  23 
  -8  -4 -11 1123.96 129.668   9 
   8  -4 -11 1094.20 135.059  22 
  -8   4  11 1057.01 138.138  13 
   8  -4 -12 3488.10 223.948  11 
  -8   4 -12 3986.50 233.678  17 
  -8   4 -12 3132.11 179.627  25 
  -8   4 -12 3709.42 211.336   6 
   8   4  12 3379.00 224.236  10 
  -8  -4 -12 3432.55 206.443  15 
  -8   4 -12 3078.29 178.027  24 
  -8   4 -12 3417.06 193.438  14 
   8  -4 -12 3459.67 219.855  22 
  -8   4  12 3498.91 231.959  13 
  -8  -4 -12 3604.03 216.244   9 
   8  -4 -12 3187.59 202.426  21 
   8  -4  13 13602.4 421.985  12 
   8  -4 -13 12971.9 402.570  11 
  -8   4 -13 12991.0 401.600  17 
  -8   4 -13 13110.5 370.930   6 
  -8   4 -13 14232.5 400.085  16 
   8   4  13 13054.6 408.624  10 
  -8   4 -13 11178.6 309.621  25 
  -8  -4 -13 12373.7 369.432  15 
  -8   4 -13 11147.4 309.431  24 
  -8   4 -13 12815.9 348.091  14 
   8  -4 -13 13549.7 410.748  22 
  -8   4  13 12635.5 412.743  13 
  -8  -4 -13 12821.6 380.231   9 
   8  -4 -13 10922.9 343.649  21 
   8  -4  14 17089.6 431.234  12 
   8  -4 -14 15991.2 409.470  11 
  -8   4 -14 16707.8 421.388  17 
  -8   4 -14 16379.9 395.417  16 
   8   4  14 16266.1 413.820  10 
  -8   4 -14 16973.5 380.381   6 
  -8  -4 -14 15702.5 385.780  15 
   8  -4 -14 16815.4 420.810  22 
  -8   4  14 16606.1 435.088  13 
  -8  -4 -14 16999.7 397.123   9 
   9  -4   0-4.25075 46.7688  19 
   9   4   0 66.9972 53.4032  18 
   9  -4   0 39.9322 37.8220   7 
   9  -4   0 130.107 66.3941  11 
   9   4   0 51.3440 57.2393  27 
   9   4   0 110.763 56.7569  10 
   9  -4   0-57.2188 62.0255  23 
   9  -4   0 100.306 65.4945  22 
  -9   4   0 12.4459 32.5815  13 
   9  -4  -1 1812.61 179.296  19 
   9  -4   1 1775.94 180.199  19 
   9   4   1 1656.19 200.093  12 
   9   4   1 1915.65 242.282  18 
   9   4  -1 1952.04 240.478  18 
   9  -4   1 1813.61 181.726   7 
   9  -4  -1 1637.84 171.636   7 
   9  -4  -1 1961.73 199.527  11 
   9  -4   1 1832.51 196.997  11 
   9   4  -1 1962.81 223.994  27 
   9   4   1 2150.35 244.802  27 
   9   4   1 1752.92 174.825  10 
   9   4  -1 1731.55 170.348  10 
   9  -4  -1 1991.20 196.197  23 
   9  -4   1 1869.88 189.817  23 
   9  -4  -1 2015.07 204.005  22 
   9  -4   1 1874.53 198.687  22 
  -9   4   1 2068.78 181.222  13 
  -9   4  -1 1963.32 175.204  13 
   9  -4  -2 19.4600 38.9221  21 
   9  -4  -2 74.6657 54.4728  19 
   9  -4   2 59.6215 65.2978  19 
   9   4   2 91.6583 61.9784  12 
   9   4   2 56.6614 61.0741  18 
   9   4  -2 148.629 79.5189  18 
   9  -4   2 63.8466 58.8962   7 
   9  -4  -2 45.7952 50.2389   7 
   9  -4  -2 104.929 54.3103  11 
   9  -4   2 114.391 73.4411  11 
   9   4  -2-61.1231 60.9670  27 
   9   4   2 180.361 67.6866  10 
   9   4  -2 89.1578 51.6870  10 
  -9   4  -2 37.2316 28.2056  14 
   9  -4  -2 85.8136 59.6498  23 
   9  -4   2 142.947 60.0468  23 
   9  -4  -2 14.2081 54.6079  22 
   9  -4   2 32.2504 64.2964  22 
  -9   4   2 40.2971 36.7083  13 
  -9   4  -2 59.3846 32.3886  13 
   9   4  -3 16287.7 612.311  20 
   9  -4   3 16977.9 514.163  12 
  -9   4  -3 18758.5 583.560   8 
   9  -4  -3 17608.7 550.404  19 
   9  -4   3 15833.2 520.567  19 
   9   4   3 15591.2 610.795  12 
   9   4   3 16347.0 675.101  18 
   9   4  -3 15595.0 670.783  18 
   9  -4   3 17222.0 583.117   7 
  -9   4  -3 17411.2 499.337  17 
   9  -4  -3 16434.7 562.984  11 
   9   4  -3 15618.0 595.186  27 
   9   4   3 16192.3 526.739  10 
  -9   4  -3 17207.1 523.089  14 
   9  -4  -3 17934.1 583.535  23 
   9  -4   3 18570.8 588.264  23 
   9  -4  -3 17550.4 582.012  22 
   9  -4   3 16508.7 579.858  22 
  -9   4   3 16389.2 534.528  13 
  -9   4  -3 16538.0 491.341  13 
   9  -4  -3 15972.6 528.676  21 
   9   4  -4 3768.88 291.916  20 
   9  -4   4 4259.79 260.051  12 
   9  -4  -4 3747.77 254.840  19 
   9  -4   4 3781.46 254.022  19 
   9   4   4 3467.87 288.976  12 
   9   4   4 4027.92 337.810  18 
   9   4  -4 3549.17 315.619  18 
   9  -4   4 4419.07 297.607   7 
  -9   4  -4 3755.49 234.889  17 
   9  -4  -4 3984.95 274.114  11 
   9   4   4 3799.23 260.182  10 
  -9   4  -4 3958.03 245.504  14 
   9  -4  -4 4045.16 279.659  23 
   9  -4   4 3844.28 263.618  23 
   9  -4  -4 4266.55 284.855  22 
  -9   4   4 4177.95 269.129  13 
   9  -4   4 3928.03 279.295  22 
  -9   4  -4 3996.64 232.268  13 
   9  -4  -4 3834.66 257.007  21 
   9   4  -5 27134.4 782.563  20 
   9  -4   5 28591.9 695.532  12 
   9  -4  -5 28983.1 696.233  19 
   9  -4   5 28226.2 688.368  19 
   9   4   5 25288.8 772.697  12 
   9   4   5 27614.7 858.156  18 
   9   4  -5 26013.5 842.424  18 
   9  -4   5 32075.3 825.227   7 
  -9   4  -5 28677.3 667.698  17 
   9  -4  -5 28969.1 752.284  11 
   9   4   5 26613.4 694.092  10 
  -9   4  -5 28193.9 659.434  14 
   9  -4  -5 27838.7 733.209  23 
   9  -4   5 26790.5 691.430  23 
  -9  -4  -5 28648.8 699.008   9 
   9  -4  -5 28290.0 741.972  22 
  -9   4   5 28486.9 723.975  13 
   9  -4   5 28415.9 777.161  22 
  -9   4  -5 27810.8 615.145  13 
   9  -4  -5 26993.5 690.677  21 
   9   4  -6 32865.2 851.163  20 
   9  -4   6 34099.1 774.811  12 
   9  -4  -6 33951.0 746.261  19 
   9   4   6 34175.5 884.262  12 
   9   4   6 31425.6 896.785  18 
   9   4  -6 33932.7 937.094  18 
   9  -4   6 38183.4 921.340   7 
   9  -4  -6 33894.8 814.805  11 
  -9   4  -6 35759.0 750.881  17 
  -9  -4  -6 35437.3 695.255  15 
   9   4   6 33255.4 775.000  10 
  -9   4  -6 34114.1 729.567  14 
   9  -4  -6 31551.1 776.067  23 
   9  -4   6 33265.1 765.424  23 
  -9  -4  -6 31892.5 748.219   9 
   9  -4  -6 35468.4 828.707  22 
  -9   4   6 34620.8 807.612  13 
  -9   4  -6 35340.5 680.031  13 
   9  -4  -6 33752.9 760.022  21 
   9  -4  -7 535.134 92.4339  21 
   9   4  -7 552.906 114.572  20 
   9  -4  -7 590.306 100.128  19 
   9  -4   7 603.021 109.594  12 
   9   4   7 504.415 109.538  12 
   9   4   7 443.699 107.040  18 
   9   4  -7 564.840 117.995  18 
  -9   4  -7 599.959 97.0096  17 
   9  -4  -7 521.757 106.170  11 
   9  -4   7 701.743 136.212   7 
  -9   4  -7 665.225 100.183  25 
  -9  -4  -7 623.021 92.5384  15 
  -9   4  -7 619.912 97.0797  24 
   9   4   7 500.659 97.9789  10 
   9  -4  -7 525.013 99.7674  23 
  -9   4  -7 484.307 88.4683  14 
   9  -4   7 426.513 88.7235  23 
   9  -4  -7 577.075 108.801  22 
  -9  -4  -7 498.704 95.4281   9 
  -9   4   7 623.421 114.761  13 
   9   4  -8 9056.02 416.180  20 
   9  -4   8 9486.63 403.856  12 
   9  -4  -8 9579.22 363.878  19 
   9   4   8 8265.89 407.100  12 
   9   4  -8 8574.51 431.049  18 
   9  -4   8 9096.51 428.200   7 
   9  -4  -8 8958.36 404.715  11 
  -9   4  -8 8594.49 363.650  17 
  -9   4  -8 9683.73 360.031  25 
  -9  -4  -8 9824.89 364.810  15 
   9   4   8 9178.65 395.772  10 
  -9   4  -8 9143.41 349.730  24 
  -9   4  -8 9146.36 357.650  14 
   9  -4  -8 9468.97 403.786  23 
  -9  -4  -8 9948.77 398.014   9 
   9  -4  -8 8516.07 392.885  22 
  -9   4   8 9227.87 412.895  13 
   9  -4  -8 8255.71 366.499  21 
   9  -4  -9 264.013 77.8745  21 
   9   4  -9 147.108 60.7972  20 
   9  -4  -9 205.374 59.6560  19 
   9  -4   9 189.236 63.6686  12 
   9   4   9 209.555 71.0286  12 
  -9   4  -9 249.443 67.5908  17 
   9  -4  -9 382.343 87.3519  11 
   9  -4   9 231.950 68.8207   7 
  -9   4  -9 225.090 57.9568  25 
  -9  -4  -9 213.456 63.5279  15 
  -9   4  -9 242.866 69.7144   6 
  -9   4  -9 186.028 56.0275  24 
   9   4   9 224.092 70.9084  10 
   9  -4  -9 199.557 67.4498  23 
  -9   4  -9 263.664 65.5703  14 
   9  -4  -9 298.583 78.3361  22 
  -9  -4  -9 138.667 53.0993   9 
  -9   4   9 216.632 63.0687  13 
   9  -4 -10 38.6628 44.7578  21 
   9  -4  10 40.6516 36.5776  12 
   9   4  10 40.7050 43.7192  12 
  -9   4 -10-48.2705 40.1488  17 
   9  -4 -10 76.4788 55.9382  11 
   9  -4  10 19.3211 41.3773   7 
  -9   4 -10 29.5230 27.7807  25 
  -9  -4 -10-29.5256 35.0678  15 
  -9   4 -10 23.4706 47.5105   6 
  -9   4 -10-29.2633 33.9899  24 
   9   4  10-8.96969 41.4748  10 
   9  -4 -10 42.8830 40.6199  23 
  -9   4 -10-17.5967 32.0295  14 
   9  -4 -10-34.5579 44.7274  22 
  -9  -4 -10-10.9427 36.1637   9 
  -9   4  10-47.4338 49.2567  13 
   9  -4  11 2342.70 187.119  12 
   9  -4 -11 2495.52 189.383  11 
  -9   4 -11 2372.29 173.429  17 
  -9   4 -11 2409.93 177.279   6 
   9   4  11 2226.62 176.629  10 
  -9   4 -11 2211.28 146.070  25 
  -9  -4 -11 2217.61 160.938  15 
  -9   4 -11 2107.04 142.042  24 
  -9   4 -11 2349.19 162.060  14 
   9  -4 -11 1862.82 151.307  23 
  -9  -4 -11 2219.48 170.784   9 
   9  -4 -11 2367.27 186.086  22 
  -9   4  11 2222.16 183.991  13 
   9  -4 -11 1999.80 167.536  21 
   9  -4  12 1350.24 133.065  12 
   9  -4 -12 1288.25 131.311  11 
  -9   4 -12 1167.46 115.094  17 
  -9   4 -12 1263.53 121.474  16 
  -9   4 -12 1200.93 113.781   6 
   9   4  12 1140.92 120.353  10 
  -9  -4 -12 1275.61 116.674  15 
  -9   4 -12 1309.72 113.801  14 
   9  -4 -12 1151.35 123.238  22 
  -9  -4 -12 1341.76 123.648   9 
  -9   4  12 1252.57 127.524  13 
   9  -4 -12 1078.17 113.950  21 
   9  -4  13 4027.33 211.186  12 
   9  -4 -13 4005.93 206.276  11 
  -9   4 -13 3882.48 192.847  17 
  -9   4 -13 4121.64 197.270  16 
  -9   4 -13 4287.56 195.968   6 
  -9  -4 -13 4255.70 194.628  15 
  -9   4 -13 3816.74 173.774  14 
   9  -4 -13 3901.11 202.904  22 
  -9   4  13 4159.78 213.827  13 
  -9  -4 -13 3733.78 186.393   9 
  10  -4   0 9289.17 412.918  19 
  10   4   0 9281.36 521.012  18 
  10  -4   0 9799.96 419.556   7 
  10  -4   0 10576.9 468.245  11 
  10   4   0 8737.41 471.840  27 
  10  -4   0 9151.37 417.712  23 
  10  -4   0 10346.0 461.610  22 
 -10   4   0 9411.01 370.829  13 
  10  -4  -1 7321.62 357.950  19 
  10  -4   1 7856.82 369.553  19 
  10   4   1 7909.40 483.027  18 
  10   4  -1 7317.22 463.676  18 
  10  -4   1 8491.18 400.487   7 
  10  -4  -1 7817.77 366.420   7 
  10  -4  -1 8190.39 405.027  11 
  10  -4   1 7858.76 404.752  11 
  10   4  -1 6911.61 416.677  27 
  10   4   1 7054.77 432.076  27 
  10   4   1 7361.30 327.443  10 
 -10   4  -1 6454.64 324.527  14 
  10  -4  -1 7320.49 375.752  23 
  10  -4   1 8594.14 406.120  23 
  10  -4  -1 7988.05 404.585  22 
  10  -4   1 8378.60 421.087  22 
 -10   4   1 8231.09 350.974  13 
 -10   4  -1 8785.80 353.536  13 
  10  -4  -2 16332.9 531.636  19 
  10  -4   2 14961.1 514.599  19 
  10   4   2 16593.9 630.335  12 
  10   4   2 14693.4 652.275  18 
  10   4  -2 15515.9 677.508  18 
  10  -4   2 18937.9 609.369   7 
  10  -4  -2 16302.4 573.452  11 
  10  -4   2 15948.0 575.979  11 
  10   4  -2 17114.1 643.187  27 
  10   4   2 15931.1 489.642  10 
 -10   4  -2 15869.7 506.391  14 
  10  -4  -2 17879.7 591.499  23 
  10  -4   2 15347.8 535.132  23 
  10  -4  -2 16086.4 571.726  22 
  10  -4   2 17644.0 611.395  22 
 -10   4   2 16678.8 515.510  13 
 -10   4  -2 17349.7 486.280  13 
  10   4  -3 16032.0 601.615  20 
  10  -4  -3 16706.7 534.195  19 
  10  -4   3 18223.0 562.064  19 
  10   4   3 15437.1 600.196  12 
  10   4   3 16282.8 678.249  18 
  10   4  -3 15190.1 662.200  18 
  10  -4   3 18444.8 610.276   7 
  10  -4  -3 17468.5 588.967  11 
  10   4  -3 17237.5 631.096  27 
  10   4   3 15536.5 485.760  10 
 -10   4  -3 16885.9 513.402  14 
  10  -4  -3 16440.6 565.601  23 
  10  -4   3 16836.4 562.317  23 
  10  -4  -3 15556.6 556.873  22 
  10  -4   3 16644.4 597.069  22 
 -10   4   3 17215.3 530.085  13 
 -10   4  -3 16301.8 462.807  13 
  10  -4  -3 16109.8 532.152  21 
  10  -4   4 1259.38 139.543  12 
  10   4  -4 1268.36 169.163  20 
  10  -4  -4 1501.78 162.664  19 
  10   4   4 1317.51 179.673  12 
  10  -4   4 1222.08 144.518  19 
  10   4   4 1554.05 206.582  18 
  10   4  -4 1384.03 202.102  18 
  10  -4   4 1551.69 182.161   7 
  10  -4  -4 1534.89 182.805  11 
  10   4  -4 1272.23 170.988  27 
  10   4   4 1249.78 142.943  10 
 -10   4  -4 1395.16 149.073  14 
  10  -4   4 1393.11 166.488  23 
 -10  -4  -4 1506.16 155.985   9 
  10  -4  -4 1226.12 157.009  23 
 -10   4   4 1464.80 156.649  13 
  10  -4  -4 1346.62 172.139  22 
  10  -4   4 1352.08 172.374  22 
  10  -4  -4 1371.25 155.725  21 
  10   4  -5 44832.5 989.851  20 
  10  -4   5 50088.8 919.622  12 
  10  -4  -5 51691.4 919.155  19 
  10   4   5 46273.1 1036.42  12 
  10   4   5 46746.7 1114.17  18 
  10   4  -5 45412.6 1111.00  18 
  10  -4   5 45881.9 975.095   7 
  10  -4  -5 40858.7 907.698  11 
  10   4   5 45301.8 851.505  10 
 -10   4  -5 45870.6 855.697  14 
  10  -4  -5 46941.4 956.471  23 
  10  -4   5 43580.5 901.716  23 
 -10  -4  -5 47493.5 902.435   9 
  10  -4  -5 38823.5 888.698  22 
 -10   4   5 49858.2 924.832  13 
  10  -4  -5 44269.7 897.021  21 
  10   4  -6 6579.44 360.337  20 
  10  -4   6 7737.55 352.617  12 
  10  -4  -6 6406.47 308.854  19 
  10   4   6 6906.95 388.943  12 
  10   4   6 6903.29 404.968  18 
  10   4  -6 6727.23 407.778  18 
  10  -4   6 6729.93 359.673   7 
  10  -4  -6 6987.39 359.032  11 
 -10   4  -6 6311.69 288.803  25 
  10   4   6 7212.65 325.044  10 
 -10   4  -6 6805.83 300.056  24 
 -10   4  -6 6825.08 314.908  14 
  10  -4  -6 6765.35 349.739  23 
  10  -4   6 6734.51 337.122  23 
 -10  -4  -6 6549.76 321.091   9 
  10  -4  -6 7214.31 365.934  22 
 -10   4   6 7233.48 346.209  13 
  10  -4  -6 6394.50 331.696  21 
  10   4  -7 2618.29 224.144  20 
  10  -4   7 2880.04 213.703  12 
  10  -4  -7 2500.10 188.694  19 
  10   4   7 2511.35 221.796  12 
 -10  -4  -7 2922.94 188.852  15 
  10   4   7 2605.38 233.403  18 
  10   4  -7 2391.57 232.923  18 
  10  -4   7 2472.78 215.673   7 
  10  -4  -7 2650.26 215.441  11 
 -10   4  -7 2685.69 181.847  25 
  10   4   7 2619.91 191.920  10 
 -10   4  -7 2630.46 179.085  24 
 -10   4  -7 2573.90 190.295  14 
  10  -4  -7 2341.38 204.247  23 
  10  -4   7 2339.36 189.391  23 
 -10  -4  -7 2339.63 193.619   9 
  10  -4  -7 2656.94 217.319  22 
 -10   4   7 2670.27 209.542  13 
  10  -4  -7 2341.01 201.281  21 
  10  -4  -8 118.356 49.9100  21 
  10   4  -8 134.561 61.1679  20 
  10  -4  -8 186.829 57.5645  19 
  10  -4   8 189.549 62.2029  12 
  10   4   8 136.778 57.7146  12 
 -10   4  -8 97.3853 39.7080  17 
  10  -4  -8 84.2629 51.1219  11 
  10  -4   8 200.384 73.5918   7 
 -10   4  -8 121.415 45.3391  25 
 -10  -4  -8 161.123 56.8479  15 
 -10   4  -8 124.522 44.8532  24 
  10   4   8 76.5375 38.8973  10 
  10  -4  -8 116.892 52.8939  23 
 -10   4  -8 168.518 54.6799  14 
  10  -4  -8 175.007 70.6910  22 
 -10  -4  -8 127.731 47.0376   9 
 -10   4   8 156.842 54.3319  13 
  10  -4  -9 36.3726 45.7857  21 
  10  -4   9 46.1041 44.2755  12 
  10   4   9-20.7447 41.7788  12 
 -10   4  -9 35.0234 43.9847  17 
  10  -4  -9-16.8021 50.9949  11 
  10  -4   9 63.6051 41.5637   7 
 -10   4  -9 35.7439 31.7752  25 
 -10  -4  -9 141.141 53.8263  15 
 -10   4  -9 121.649 53.0379   6 
 -10   4  -9 66.8216 36.5111  24 
  10   4   9 72.4022 49.7347  10 
  10  -4  -9 6.91157 38.8088  23 
 -10   4  -9-4.41009 30.1267  14 
  10  -4  -9-3.70407 49.6491  22 
 -10  -4  -9 37.7808 30.2287   9 
 -10   4   9 49.9902 47.4725  13 
  10  -4  10 5513.03 280.063  12 
  10  -4 -10 5345.29 275.422  11 
 -10   4 -10 5379.91 244.231  17 
 -10   4 -10 5748.15 268.929   6 
 -10  -4 -10 5659.55 245.401  15 
  10   4  10 4069.97 221.779  10 
 -10   4 -10 5837.20 253.248  14 
  10  -4 -10 4698.33 240.400  23 
 -10  -4 -10 5189.62 256.818   9 
  10  -4 -10 5593.09 281.374  22 
 -10   4  10 5611.70 275.934  13 
  10  -4 -10 4660.38 249.509  21 
  10  -4  11 3867.26 220.424  12 
  10  -4 -11 3636.93 219.061  11 
 -10   4 -11 3774.81 202.248   6 
 -10  -4 -11 3557.37 185.698  15 
 -10   4 -11 3695.36 189.304  14 
 -10  -4 -11 3615.33 202.293   9 
  10  -4 -11 3697.26 221.496  22 
 -10   4  11 3765.40 213.061  13 
  10  -4 -11 3066.63 189.691  21 
  10  -4  12 66.6610 37.9078  12 
  10  -4 -12 5.21325 36.5308  11 
 -10   4 -12 7.78588 23.5397  16 
 -10  -4 -12-13.5025 24.4531  15 
 -10   4 -12 60.4027 31.6842   6 
 -10   4 -12-3.26929 25.4344  14 
  10  -4 -12 25.6124 31.0083  22 
 -10  -4 -12-7.35225 23.3274   9 
 -10   4  12 15.5181 31.6039  13 
  11  -4   0 43.1641 50.5918  19 
  11   4   0 30.9516 67.9956  18 
  11  -4   0 28.9304 40.4426   7 
  11  -4   0-25.2800 53.8264  11 
  11   4   0-11.7453 62.0654  27 
 -11   4   0-3.34633 34.3228  14 
  11  -4   0 40.3494 56.9497  23 
  11  -4   0 42.2453 76.8231  22 
  11  -4  -1 27951.0 693.152  19 
  11  -4   1 26506.7 678.878  19 
  11   4   1 26067.1 867.840  18 
  11   4  -1 25300.8 852.923  18 
  11  -4   1 26261.0 665.884   7 
  11  -4  -1 26000.2 736.889  11 
  11  -4   1 25268.1 726.305  11 
  11   4  -1 25140.3 794.073  27 
  11   4   1 26186.4 823.849  27 
 -11   4  -1 27162.2 653.973  14 
  11  -4  -1 26501.2 716.247  23 
  11  -4   1 25163.5 695.272  23 
  11  -4  -1 27170.3 751.295  22 
  11  -4   1 26246.5 748.280  22 
 -11   4   1 26921.7 603.627  13 
  11   4  -2 39526.8 943.791  20 
  11  -4  -2 40436.0 834.570  19 
  11  -4   2 42789.2 861.090  19 
  11   4   2 40644.8 1067.21  18 
  11   4  -2 38115.5 1057.94  18 
  11  -4   2 41887.7 863.431   7 
  11  -4  -2 39889.5 911.873  11 
  11   4  -2 41917.7 1010.10  27 
 -11   4  -2 42397.7 824.866  14 
  11  -4  -2 33710.8 813.502  23 
  11  -4   2 43607.8 917.094  23 
  11  -4  -2 40624.6 922.193  22 
  11  -4   2 38280.2 915.428  22 
 -11   4   2 43077.6 781.729  13 
  11   4  -3 6705.38 371.646  20 
  11  -4  -3 6956.07 335.805  19 
  11  -4   3 6908.69 335.023  19 
  11   4   3 6290.86 379.153  12 
  11   4   3 7278.33 439.257  18 
  11   4  -3 6259.92 412.218  18 
  11  -4   3 6517.86 340.584   7 
  11  -4  -3 6692.41 364.550  11 
  11   4  -3 6340.37 376.206  27 
 -11   4  -3 6941.63 324.344  14 
  11  -4  -3 7102.25 367.732  23 
  11  -4   3 5844.68 329.349  23 
  11  -4  -3 6684.35 361.100  22 
  11  -4   3 5850.51 352.979  22 
 -11   4   3 6982.77 310.346  13 
  11   4  -4-14.5359 41.6963  20 
  11  -4  -4-9.21854 42.6597  19 
  11   4   4 31.8838 50.8722  12 
  11   4   4-29.0137 67.8690  18 
  11   4  -4 53.0924 72.9353  18 
  11  -4  -4 58.8109 60.2266  11 
  11  -4   4 5.55350 39.5116   7 
  11   4  -4-8.19756 57.9236  27 
 -11   4  -4-14.4761 30.3935  14 
  11  -4  -4 80.6301 53.3450  23 
  11  -4   4-15.0611 41.8277  23 
  11  -4  -4 54.6776 53.2298  22 
 -11  -4  -4 59.9579 37.9707   9 
 -11   4   4 157.936 52.8331  13 
  11   4  -5 13782.6 512.327  20 
  11  -4   5 15414.2 480.570  12 
  11  -4  -5 13000.1 438.445  19 
  11   4   5 12877.8 524.845  12 
  11   4   5 14075.0 580.091  18 
  11   4  -5 12619.6 560.630  18 
  11  -4   5 13630.8 490.651   7 
  11  -4  -5 13039.0 489.842  11 
 -11   4  -5 12455.6 392.245  25 
 -11   4  -5 11967.0 386.597  24 
 -11   4  -5 14366.1 450.541  14 
  11  -4  -5 14104.8 497.450  23 
  11  -4   5 12473.5 462.905  23 
 -11  -4  -5 13759.9 455.357   9 
  11  -4  -5 13485.4 501.599  22 
 -11   4   5 14425.9 455.011  13 
  11  -4  -5 12074.0 453.741  21 
  11  -4  -6 182.028 66.4866  21 
  11   4  -6 254.905 81.1999  20 
  11  -4  -6 286.491 74.8281  19 
  11  -4   6 292.053 72.8287  12 
  11   4   6 179.909 63.3429  12 
  11   4   6 275.953 80.0297  18 
  11   4  -6 280.324 89.7989  18 
  11  -4  -6 227.352 83.4051  11 
  11  -4   6 262.275 70.0642   7 
 -11   4  -6 187.981 53.2078  25 
 -11   4  -6 192.961 54.5003  24 
 -11   4  -6 177.589 49.6202  14 
  11  -4  -6 299.299 76.7877  23 
  11  -4   6 328.042 82.2523  23 
  11  -4  -6 352.361 93.1380  22 
 -11  -4  -6 214.778 65.6634   9 
 -11   4   6 215.462 60.7782  13 
  11   4  -7 32598.1 726.164  20 
  11  -4   7 34971.2 724.289  12 
  11  -4  -7 30887.9 627.973  19 
  11   4   7 31586.3 775.704  12 
  11   4   7 28702.1 745.779  18 
  11   4  -7 32784.2 825.448  18 
  11  -4  -7 31314.4 733.207  11 
  11  -4   7 35916.8 777.981   7 
 -11   4  -7 34078.6 673.899  14 
  11  -4  -7 36024.7 750.512  23 
  11  -4   7 31129.8 699.854  23 
 -11  -4  -7 36817.2 726.431   9 
  11  -4  -7 33773.9 758.897  22 
 -11   4   7 35151.7 698.977  13 
  11  -4  -7 32167.3 721.367  21 
  11  -4   8 2472.65 186.377  12 
  11   4   8 2215.86 200.973  12 
  11  -4  -8 2420.94 193.008  11 
 -11   4  -8 2569.82 187.468   6 
 -11  -4  -8 2465.09 156.271  15 
 -11   4  -8 2564.24 175.126  14 
  11  -4  -8 2135.98 170.284  23 
 -11  -4  -8 2327.22 172.660   9 
  11  -4  -8 2326.09 190.623  22 
 -11   4   8 2286.30 170.638  13 
  11  -4  -8 1760.13 169.602  21 
  11  -4  -9 32.9301 38.8968  21 
  11  -4   9 100.972 44.4636  12 
  11  -4  -9 65.3160 37.9023  11 
 -11  -4  -9 75.1070 36.9916  15 
 -11   4  -9 24.6788 26.1894   6 
  11  -4  -9 58.2554 43.3292  23 
 -11   4  -9 81.3724 40.2649  14 
  11  -4  -9 57.2957 42.5275  22 
 -11  -4  -9 128.166 50.1436   9 
 -11   4   9 57.8407 36.9981  13 
  11  -4 -10 16.1108 40.2122  21 
  11  -4  10 176.858 51.2125  12 
  11  -4 -10 104.480 54.4162  11 
 -11  -4 -10 154.521 43.3563  15 
 -11   4 -10 117.671 41.9678   6 
 -11   4 -10 154.683 41.7211  14 
  11  -4 -10 64.9191 36.9481  22 
 -11  -4 -10 187.496 54.9783   9 
 -11   4  10 41.2760 26.7897  13 
  11  -4  11 988.576 102.200  12 
  11  -4 -11 743.329 92.4231  11 
 -11   4 -11 807.537 88.8272  16 
 -11   4 -11 926.563 92.4402   6 
 -11   4 -11 875.977 83.5963  14 
 -11  -4 -11 1014.29 93.0157   9 
  11  -4 -11 714.694 89.3283  22 
  12  -4   0 37319.1 775.390  19 
  12   4   0 38950.9 1022.32  18 
 -12   4   0 38550.3 754.198  14 
  12  -4   0 38815.1 842.749  23 
  12  -4   0 38640.9 879.034  22 
  12   4  -1 32153.3 809.382  20 
  12  -4  -1 33635.6 727.467  19 
  12   4   1 33925.5 943.843  18 
  12   4  -1 32971.3 934.452  18 
  12  -4  -1 33811.6 814.539  11 
  12   4  -1 30700.1 842.979  27 
 -12   4   1 28016.2 644.214  14 
 -12   4  -1 30506.8 671.819  14 
  12  -4  -1 33830.5 777.257  23 
  12  -4   1 31668.2 760.804  23 
  12  -4  -1 31777.1 789.719  22 
  12  -4   1 30255.9 779.136  22 
  12   4  -2 13092.4 500.409  20 
  12  -4  -2 11676.9 424.485  19 
  12   4   2 13242.3 573.471  18 
  12   4  -2 12792.7 570.002  18 
  12  -4   2 12283.9 424.772   7 
  12  -4  -2 13657.5 505.885  11 
  12   4  -2 13051.4 531.911  27 
 -12   4  -2 13142.5 430.005  14 
  12  -4  -2 12288.1 470.558  23 
  12  -4   2 11794.3 459.005  23 
  12  -4  -2 12970.9 496.828  22 
  12  -4   2 12563.5 492.410  22 
  12   4  -3 1691.89 175.908  20 
  12  -4  -3 1521.36 155.580  19 
  12   4   3 1739.81 206.353  18 
  12   4  -3 1601.62 203.483  18 
  12  -4   3 1524.19 151.352   7 
  12  -4  -3 1755.82 178.784  11 
  12   4  -3 1567.61 182.458  27 
 -12   4  -3 1632.68 149.206  14 
  12  -4  -3 1590.15 173.392  23 
  12  -4   3 1633.26 169.097  23 
 -12  -4  -3 1657.84 155.442   9 
  12  -4  -3 1539.97 169.710  22 
  12   4  -4 1823.92 178.569  20 
  12  -4  -4 1756.07 159.125  19 
  12   4   4 1969.04 208.420  18 
  12   4  -4 1789.70 203.615  18 
  12  -4   4 1784.56 168.685   7 
  12  -4  -4 1761.08 177.120  11 
 -12   4  -4 1802.14 152.792  14 
  12  -4  -4 2017.96 183.657  23 
  12  -4   4 1818.31 176.894  23 
 -12  -4  -4 1976.29 165.459   9 
  12  -4  -4 1846.40 185.025  22 
  12   4  -5 2801.93 209.119  20 
  12  -4  -5 2622.38 187.221  19 
  12   4   5 2808.95 237.781  18 
  12   4  -5 2537.24 239.754  18 
  12  -4  -5 2707.79 215.506  11 
 -12   4  -5 2834.40 187.113  14 
  12  -4  -5 2575.27 199.950  23 
  12  -4   5 3002.35 219.267  23 
 -12  -4  -5 2912.37 195.026   9 
  12  -4  -5 2498.18 211.891  22 
  12  -4   6 14.1511 34.4733  12 
  12  -4  -6 14.2393 34.9652  18 
  12   4   6-16.2985 44.6856  18 
  12   4  -6 43.4509 49.2197  18 
  12  -4  -6-13.2883 42.9962  11 
 -12   4  -6-17.1750 29.4652  14 
  12  -4  -6 77.0959 51.2473  23 
  12  -4   6-11.0912 36.7000  23 
  12  -4  -6 61.4085 52.9653  22 
 -12  -4  -6 49.8901 30.1083   9 
  12  -4   7 1803.53 146.488  12 
  12  -4   7 1706.25 143.599  18 
  12   4  -7 1300.98 147.924  18 
  12  -4  -7 1529.97 159.233  11 
 -12   4  -7 1610.80 140.444   6 
 -12   4  -7 1597.04 131.740  14 
  12  -4  -7 1231.57 128.479  23 
 -12  -4  -7 1852.98 146.654   9 
  12  -4   7 1242.82 129.308  23 
  12  -4  -7 1499.87 153.329  22 
  12  -4   8 5577.26 248.401  12 
  12  -4  -8 5221.30 271.314  11 
 -12   4  -8 5801.97 249.439   6 
 -12   4  -8 5095.06 223.569  14 
  12  -4  -8 4490.65 226.969  23 
 -12  -4  -8 5632.57 242.759   9 
  12  -4  -8 4955.28 263.924  22 
  12  -4   9 1732.46 133.753  12 
  12  -4  -9 1451.21 135.716  11 
 -12   4  -9 1571.02 122.259   6 
 -12   4  -9 1557.04 115.659  14 
 -12  -4  -9 1579.86 121.345   9 
  12  -4  -9 1580.71 140.552  22 
 -12   4 -10 12868.0 320.054   6 
 -12  -4 -10 10250.1 289.844   9 
  13   4   0-7.74536 42.1524  20 
  13   4   0-1.75392 44.3875  18 
 -13   4   0 24.4299 33.1322  14 
  13  -4   0 63.5827 51.0735  23 
  13  -4   0-14.6326 57.4092  22 
  13   4  -1 11708.1 438.834  20 
  13   4   1 11820.8 511.373  18 
  13   4  -1 11786.0 509.518  18 
 -13   4   1 9914.65 348.047  14 
 -13   4  -1 10694.8 364.477  14 
  13  -4  -1 11013.7 415.110  23 
  13  -4   1 11618.7 428.041  23 
  13  -4  -1 11941.8 446.791  22 
  13  -4   1 10415.4 421.841  22 
  13   4  -2 13666.0 460.575  20 
  13   4   2 13042.3 528.783  18 
  13   4  -2 13019.7 532.889  18 
 -13   4   2 11070.7 364.985  14 
 -13   4  -2 12709.4 391.362  14 
  13  -4  -2 12059.0 432.261  23 
  13  -4   2 12179.5 435.414  23 
 -13  -4  -2 13528.5 396.202   9 
  13  -4  -2 12744.1 460.873  22 
  13   4  -3 2663.21 197.641  20 
  13  -4  -3 3128.99 224.454  18 
  13   4   3 2848.63 237.013  18 
  13   4  -3 2671.92 236.733  18 
 -13   4   3 2166.97 157.378  14 
 -13   4  -3 2566.87 172.336  14 
  13  -4  -3 2743.07 203.177  23 
  13  -4   3 2624.81 199.530  23 
 -13  -4  -3 2862.75 183.264   9 
  13  -4  -3 2715.96 211.724  22 
  13   4  -4 341.663 72.7466  20 
  13  -4   4 568.320 93.6786  18 
  13  -4  -4 526.079 92.1294  18 
  13   4   4 514.361 100.442  18 
  13   4  -4 451.496 100.147  18 
  13  -4  -4 627.247 106.551  11 
 -13   4  -4 500.663 75.6090  14 
  13  -4  -4 487.408 87.8946  23 
  13  -4   4 367.908 76.5802  23 
  13  -4  -4 609.759 105.288  22 
 -13  -4  -4 556.129 78.7385   9 
  13  -4   5 3702.51 218.145  18 
  13  -4  -5 2873.74 194.263  18 
  13   4   5 2931.11 217.935  18 
  13   4  -5 3171.91 234.925  18 
  13  -4  -5 3051.70 213.447  11 
 -13   4  -5 3128.73 179.628  14 
  13  -4  -5 3165.87 205.322  23 
  13  -4   5 3062.96 201.652  23 
 -13  -4  -5 3544.56 195.381   9 
  13  -4  -5 3248.43 218.786  22 
  13  -4   6 624.682 86.3997  18 
  13   4  -6 501.710 95.0468  18 
  13  -4  -6 510.702 92.7384  11 
 -13   4  -6 645.808 83.2835   6 
 -13   4  -6 589.511 76.8139  14 
  13  -4  -6 560.987 84.6667  23 
 -13  -4  -6 713.004 87.5207   9 
  13  -4   6 453.377 76.4165  23 
  13  -4  -6 598.205 100.869  22 
  13  -4  -7 2966.22 191.197  11 
 -13   4  -7 3123.29 169.489   6 
 -13   4  -7 2902.88 157.250  14 
 -13  -4  -7 3239.80 170.115   9 
  13  -4  -7 2912.20 189.929  22 
 -13   4  -8 4692.73 193.258   6 
 -13  -4  -8 5048.76 199.918   9 
  14   4   0 49537.0 817.037  20 
  14  -4   0 50416.5 848.726  18 
  14   4   0 49591.2 956.773  18 
  14  -4   0 49740.2 833.412  23 
  14   4   1 219.848 60.3508  20 
  14   4  -1 195.294 58.7745  20 
  14  -4   1 295.807 68.8276  18 
  14  -4  -1 287.353 63.9374  18 
  14   4   1 211.736 67.9480  18 
  14   4  -1 176.447 58.4233  18 
 -14   4   1 162.324 43.8479  14 
 -14   4  -1 224.240 50.0307  14 
  14  -4  -1 281.126 71.4357  23 
  14  -4   1 170.779 57.6071  23 
 -14  -4  -1 197.307 45.1851   9 
  14  -4  -1 198.470 63.4317  22 
  14   4   2 51.1994 45.7391  20 
  14  -4   2-13.4142 31.8756  18 
  14  -4  -2 108.755 50.3169  18 
  14   4   2 9.68623 34.2609  18 
  14   4  -2-40.0219 45.3608  18 
 -14   4   2-7.85551 23.1034  14 
 -14   4  -2-12.9936 29.8327  14 
  14  -4  -2 19.7179 31.6189  23 
  14  -4   2 69.3560 38.4178  23 
 -14  -4  -2 67.6518 34.7843   9 
  14  -4  -2 83.5922 48.4743  22 
  14  -4   3-13.3452 26.5469  18 
  14  -4  -3 10.3942 31.7626  18 
  14   4   3 46.2706 49.3220  18 
  14   4  -3 37.9096 39.3658  18 
 -14   4   3-29.1960 26.2736  14 
 -14   4  -3 22.4578 26.5695  14 
  14  -4  -3 33.0098 35.9512  23 
  14  -4   3-3.80187 35.6922  23 
  14  -4  -3-26.1914 37.0653  22 
 -14  -4  -3 6.08718 24.6768   9 
  14  -4   4 151.914 44.1528  18 
  14   4   4 144.177 56.3925  18 
  14   4  -4 41.5251 40.9855  18 
 -14   4  -4 97.9080 33.4882   6 
 -14   4   4 46.0240 25.6302  14 
 -14   4  -4 71.3279 34.0073  14 
  14  -4  -4 53.0995 32.4240  23 
  14  -4   4 164.104 50.8652  23 
  14  -4  -4 94.9432 48.4722  22 
 -14  -4  -4 103.020 37.0905   9 
 -14  -4  -5 1152.96 95.9578   9 
  14  -4  -5 869.669 99.5978  22 
   0   5   0-3.16316 37.8449  20 
   0  -5   0 8.94252 38.7684  19 
   0   5   0-16.0926 29.9840  10 
   0   5   0 6.97082 27.5789  13 
   0   5   1 29.1922 40.7159  20 
   0   5  -1-13.7568 40.2305  20 
   0  -5   1 9.84038 30.5745  19 
   0  -5   1-22.1067 94.3524   1 
   0   5   1 22.5508 45.6948  10 
   0   5  -1 54.1319 31.1279  10 
   0   5   1 8.06358 32.8122  13 
   0   5  -1 1.08391 29.1651  13 
   0   5  -2-10.3341 51.3373  20 
   0  -5   2 47.9505 38.4242  19 
   0  -5   2 7.15923 87.8739   1 
   0   5   2 44.0863 36.8208  10 
   0   5  -2 8.75311 28.3994  10 
   0   5   2 49.2421 43.1686  13 
   0   5  -2 46.6795 39.6862  13 
   0   5  -3 57.3431 44.2096  20 
   0  -5   3 4.57500 30.4857  19 
   0  -5  -3 83.6067 37.7160  15 
   0   5   3 4.90635 39.0474  10 
   0   5  -3 28.7597 37.5509  10 
   0   5   3 18.6141 28.2739  13 
   0   5  -3 26.1689 32.9311  13 
   0   5  -4 39.9370 47.2724  20 
   0   5  -4 45.9398 40.2806  26 
   0  -5  -4 41.2209 37.1209  15 
   0   5   4 9.67958 36.0465  10 
   0   5  -4 27.0697 38.8997  10 
   0   5   4 0.45680 34.2482  13 
   0   5  -4 25.9436 31.3739  13 
   0   5  -5 57.5000 50.4663  20 
   0   5  -5 0.32392 49.1708   8 
   0   5  -5 47.3681 35.9542  17 
   0   5  -5 87.9317 58.7390  26 
   0   5  -5 49.6762 45.0789  25 
   0  -5  -5 28.1573 29.2604  15 
   0   5  -5 46.7343 31.9642  24 
   0   5   5 26.3468 39.4135  10 
   0  -5  -5-2.93764 36.0325  22 
   0   5   5 56.2243 47.4999  13 
   0   5  -5 37.6698 31.7113  13 
   0   5  -6 3.13391 50.5029  20 
   0   5  -6 5.88426 45.5832   8 
   0   5  -6 73.1184 58.2703  17 
   0   5  -6 45.3778 51.1502  26 
   0   5  -6 109.130 48.4359  25 
   0  -5  -6 33.5945 39.8651  15 
   0   5  -6 35.7475 37.2622  24 
   0   5   6 11.9279 42.8852  10 
   0  -5  -6 42.7471 39.6489  22 
   0   5   6 32.5209 39.8230  13 
   0   5  -6 63.2981 39.7784  13 
   0   5  -7 52.9463 63.3104  20 
   0   5  -7 6.63538 53.5471   8 
   0   5  -7 84.8147 42.5297  17 
   0   5  -7 52.0305 47.3295  26 
   0   5  -7-17.1779 35.9951  25 
   0  -5  -7-1.84170 36.6940  15 
   0   5  -7 1.91243 33.4963  24 
   0   5   7-5.38610 36.2399  10 
   0  -5  -7 54.0753 46.1421  22 
   0   5   7 115.576 47.1406  13 
   0   5  -8 71.4804 65.4892  20 
   0   5  -8 37.2313 51.2631   8 
   0   5  -8 25.6488 39.2824  17 
   0   5  -8 53.3558 62.8532  26 
   0   5  -8 42.1660 44.4208  25 
   0  -5  -8 51.5303 43.7887  15 
   0   5  -8 24.5366 38.3822  24 
   0   5   8 48.2022 53.3450  10 
   0  -5  -8 69.0458 45.8409  22 
   0   5   8 60.2208 42.9990  13 
   0   5  -9-36.0819 53.7080  20 
   0   5  -9 78.4510 71.7150   8 
   0  -5   9 7.45088 33.4065   7 
   0   5  -9 4.64971 40.5257  17 
   0   5  -9 82.4513 51.1426  26 
   0  -5  -9 22.0034 36.5981  15 
   0   5  -9 6.71324 41.7103  24 
   0   5   9-14.2383 39.2443  10 
   0   5  -9 8.51614 34.0067  25 
   0  -5  -9 4.38882 50.2514  22 
   0   5   9-40.8020 48.3204  13 
   0  -5 -10 117.912 65.0539  19 
   0   5 -10 81.3136 42.5245   8 
   0   5 -10-17.0418 38.5376  17 
   0   5 -10 68.8522 45.0805  26 
   0   5 -10 11.1864 34.1926  25 
   0  -5 -10 8.83997 42.6271  15 
   0   5 -10-36.8499 41.1914  24 
   0   5  10 10.7031 47.8935  10 
   0   5  10 12.2287 43.3416  13 
   0  -5 -11 48.1814 45.3804  19 
   0   5 -11 24.1774 55.9246   8 
   0   5 -11 26.3398 34.9199  17 
   0   5 -11 125.362 66.6804  26 
   0   5 -11 10.3892 42.4332  25 
   0  -5 -11 10.9887 45.3238  15 
   0   5 -11 24.9545 40.3993  24 
   0   5  11 9.11886 45.5389  10 
   0  -5 -11 67.8151 55.5255  22 
   0   5  11-40.4353 43.6159  13 
   0  -5 -12-22.2802 39.8363  19 
   0   5 -12 5.45899 38.7735  17 
   0   5 -12 8.09148 37.1725  26 
   0   5 -12-9.15746 40.8401  25 
   0  -5 -12 30.1421 33.6185  15 
   0   5 -12-11.9796 34.9316  24 
   0   5  12 92.0186 47.5003  10 
   0  -5 -12 34.2691 45.4672  22 
   0  -5 -13 22.7099 33.7633  19 
   0   5 -13 50.0454 43.0484  17 
   0   5 -13 45.6562 43.0213  26 
   0   5 -13-4.01419 34.3191  25 
   0  -5 -13 16.8949 40.2321  15 
   0   5 -13 6.58220 29.8243  24 
   0   5  13 0.73443 41.3167  10 
   0  -5 -13-15.7643 41.0080  22 
   0  -5  14 51.0356 39.6284  12 
   0   5 -14-10.2528 35.6338  17 
   0   5 -14 18.4614 34.2944  26 
   0   5 -14 71.7709 36.2226  25 
   0  -5 -14 17.2819 31.5365  15 
   0   5 -14 55.1019 40.1004  24 
   0   5  14 5.79281 32.8489  10 
   0  -5 -14-5.31265 34.2558  22 
   0  -5  15 31.7839 29.7143  12 
   0  -5 -15 2.72067 32.5030  11 
   0   5 -15 31.2077 34.8118  26 
   0   5 -15 76.6689 38.4514  25 
   0  -5 -15 4.86512 30.4036  15 
   0   5 -15 27.0534 23.6193  24 
   0   5  15 13.9104 29.5388  10 
   0  -5 -15 36.6252 32.3970  22 
   1   5   0 24.8451 45.6136  20 
  -1   5   0 24.5886 50.1889  20 
   1  -5   0-25.5381 44.7949  19 
  -1  -5   0-28.9465 108.578   1 
   1   5   0 54.0051 48.2920  10 
  -1   5   0 34.1895 38.2832  10 
  -1   5   0 28.6285 36.7154  13 
   1   5   0 49.7542 39.0348  13 
   1   5   1 2226.21 194.220  20 
   1   5  -1 2177.48 199.751  20 
  -1   5  -1 1963.61 185.023  20 
   1  -5  -1 1860.87 162.318  19 
   1  -5   1 2114.66 166.601  19 
   1   5   1 2011.26 178.119  10 
  -1   5   1 2060.89 176.934  10 
   1   5  -1 2178.86 187.268  10 
  -1   5  -1 2134.30 178.580  10 
  -1  -5   1 1789.27 313.636   1 
  -1   5   1 2020.43 173.445  13 
   1   5   1 2161.79 166.596  13 
  -1   5  -1 2053.05 174.098  13 
   1   5  -1 2127.33 165.864  13 
   1   5   2 9369.68 394.410  20 
   1   5  -2 10482.1 446.508  20 
  -1   5  -2 10558.9 433.732  20 
   1  -5  -2 9926.06 382.390  19 
  -1  -5   2 10107.4 349.885  19 
   1  -5   2 9527.67 347.557  19 
   1   5   2 9507.04 401.969  10 
  -1   5   2 11128.8 407.990  10 
   1   5  -2 9697.34 397.652  10 
  -1   5  -2 9971.81 390.987  10 
  -1   5   2 9908.80 389.906  13 
   1   5   2 10400.5 367.283  13 
  -1   5  -2 9759.87 380.528  13 
   1   5  -2 10333.3 367.419  13 
   1   5  -3 3113.01 245.572  20 
  -1   5  -3 3231.92 245.152  20 
   1  -5  -3 3237.10 220.199  19 
   1  -5   3 3145.61 192.786  19 
   1   5   3 2890.07 224.706  10 
  -1   5   3 3172.02 223.918  10 
   1  -5  -3 3778.00 207.939  15 
   1   5  -3 3073.24 229.701  10 
  -1   5  -3 3087.22 216.581  10 
  -1   5   3 3100.30 214.645  13 
   1   5   3 3052.09 202.185  13 
  -1   5  -3 2975.25 211.711  13 
   1   5  -3 3072.08 200.005  13 
   1   5  -4 33716.0 842.245  20 
  -1   5  -4 34420.9 837.761  20 
   1  -5  -4 33865.4 667.575  11 
   1   5  -4 32817.3 751.224  26 
  -1   5  -4 33802.4 741.772  26 
   1   5  -4 34352.7 676.569  25 
   1   5   4 30875.7 757.235  10 
  -1   5   4 35276.9 763.180  10 
  -1  -5  -4 32039.7 628.148  15 
   1  -5  -4 32823.1 649.452  15 
   1   5  -4 34396.2 677.174  24 
   1   5  -4 35014.3 788.890  10 
   1  -5  -4 32967.1 654.655  22 
  -1   5   4 33703.5 731.848  13 
   1   5   4 34263.6 692.280  13 
  -1  -5  -4 32095.1 626.142   9 
  -1   5  -4 33025.7 718.785  13 
   1   5  -4 33992.4 704.474  13 
  -1   5  -4 33057.4 834.723   8 
   1   5  -5 103942. 1570.19  20 
  -1   5  -5 98287.9 1508.96  20 
   1  -5  -5 99892.0 1245.51  11 
  -1   5  -5 104475. 1431.15  17 
   1   5  -5 101701. 1381.28  17 
  -1   5  -5 97507.4 1351.14  26 
   1   5  -5 100650. 1253.96  25 
   1   5   5 100963. 1450.91  10 
  -1   5   5 92751.3 1334.11  10 
  -1  -5  -5 103267. 1234.69  15 
   1  -5  -5 103009. 1264.19  15 
   1   5  -5 104803. 1280.09  24 
   1   5  -5 100915. 1413.91  26 
   1  -5  -5 103696. 1263.03  22 
  -1   5   5 102823. 1359.51  13 
   1   5   5 100223. 1262.84  13 
  -1  -5  -5 99268.8 1217.56   9 
  -1   5  -5 99599.7 1323.84  13 
   1   5  -5 100121. 1289.48  13 
   1   5  -5 101951. 1516.68   8 
  -1   5  -5 98869.3 1514.06   8 
   1   5  -6 207601. 2388.39  20 
  -1   5  -6 208196. 2378.11  20 
  -1   5  -6 208746. 2184.18  17 
   1   5  -6 207638. 2113.49  17 
  -1   5  -6 208633. 2148.72  26 
   1   5  -6 217293. 2220.01  26 
  -1   5  -6 207229. 2047.07  25 
   1   5   6 208555. 2248.41  10 
   1   5  -6 209989. 1992.80  25 
  -1   5   6 202152. 2129.03  10 
  -1  -5  -6 217648. 1993.88  15 
   1  -5  -6 205124. 1987.61  15 
  -1   5  -6 207038. 2048.18  24 
   1   5  -6 210378. 1996.09  24 
  -1  -5  -6 224741. 1984.96  22 
   1  -5  -6 210462. 2000.65  22 
  -1   5   6 203394. 2089.58  13 
   1   5   6 210306. 1976.06  13 
  -1  -5  -6 208244. 1969.56   9 
  -1   5  -6 206314. 2075.73  13 
   1   5  -6 205128. 2288.09   8 
  -1   5  -6 205457. 2317.85   8 
  -1   5  -7 19261.2 651.728   8 
   1   5  -7 19935.2 686.497  20 
  -1   5  -7 20219.2 687.618  20 
   1  -5  -7 20840.3 597.409  19 
  -1   5  -7 20608.7 611.401  17 
   1   5  -7 21212.3 597.332  17 
   1   5  -7 19704.8 617.792  26 
  -1   5  -7 22544.7 636.910  26 
   1   5   7 21887.2 661.500  10 
  -1   5  -7 20703.0 572.564  25 
  -1   5   7 18405.6 586.163  10 
   1   5  -7 21074.6 559.103  25 
  -1  -5  -7 18652.6 525.750  15 
   1  -5  -7 21472.0 572.827  15 
  -1   5  -7 20564.4 572.407  24 
   1   5  -7 21107.8 560.635  24 
  -1  -5  -7 21391.9 546.742  22 
   1  -5  -7 20321.6 553.102  22 
  -1   5   7 20279.4 579.451  13 
   1   5   7 19954.5 529.431  13 
  -1  -5  -7 18306.9 523.592   9 
  -1   5  -7 20472.1 577.252  13 
   1   5  -7 19541.8 637.814   8 
   1   5  -8 44074.8 970.153   8 
  -1   5  -8 48036.7 1039.96   8 
   1   5  -8 49153.2 1104.07  20 
  -1   5  -8 47149.4 1082.56  20 
   1  -5  -8 44717.7 899.961  19 
  -1   5  -8 46303.5 941.095  17 
   1   5  -8 45894.0 898.663  17 
   1   5  -8 46828.5 966.336  26 
  -1   5  -8 46496.8 940.238  26 
   1   5   8 46041.4 991.605  10 
  -1   5   8 42223.2 900.938  10 
  -1   5  -8 46726.1 895.291  25 
   1   5  -8 47604.7 874.683  25 
  -1  -5  -8 42974.9 831.570  15 
   1  -5  -8 42734.0 849.553  15 
  -1   5  -8 46521.6 893.519  24 
   1   5  -8 47393.7 870.556  24 
   1  -5  -8 46035.2 867.444  22 
  -1   5   8 44555.2 897.044  13 
  -1  -5  -8 49736.8 891.829   9 
   1   5  -9 177.112 82.6310  20 
   1   5  -9 260.429 83.2337   8 
   1  -5  -9 304.193 79.4385  19 
  -1   5  -9 202.275 79.4514   8 
   1  -5   9 244.504 75.1571   7 
  -1   5  -9 225.806 67.8441  17 
   1   5  -9 300.583 74.7326  17 
   1   5  -9 658.164 115.080  26 
  -1   5  -9 327.169 91.6756  26 
  -1   5  -9 261.421 75.2982  25 
   1   5  -9 289.431 81.3722  25 
  -1  -5  -9 258.509 73.9170  15 
   1  -5  -9 280.217 75.9343  15 
  -1   5  -9 278.295 75.1688  24 
   1   5  -9 258.421 72.6382  24 
   1   5   9 228.823 71.1530  10 
  -1   5   9 261.862 79.4357  10 
   1  -5  -9 267.067 70.0257  22 
  -1   5   9 208.370 66.3175  13 
   1   5 -10 1481.63 173.078   8 
  -1   5 -10 1630.74 189.018   8 
   1   5 -10 1564.26 196.184  20 
   1  -5 -10 1421.26 153.579  19 
   1  -5  10 1416.77 151.642   7 
  -1   5 -10 1454.75 167.480  17 
   1   5 -10 1609.65 165.467  17 
   1   5 -10 1688.49 176.937  26 
  -1   5 -10 1643.30 170.841  26 
   1   5  10 1569.31 175.381  10 
  -1   5  10 1444.69 164.359  10 
  -1   5 -10 1705.84 168.957  25 
   1   5 -10 1578.24 156.482  25 
  -1  -5 -10 1577.00 161.928  15 
   1  -5 -10 1731.03 168.089  15 
  -1   5 -10 1447.01 152.591  24 
   1   5 -10 1525.33 152.188  24 
   1  -5 -10 1491.46 152.487  22 
  -1   5  10 1530.07 161.430  13 
   1  -5 -11 103.986 49.5713  19 
   1   5 -11 117.682 70.5792   8 
  -1   5 -11 122.401 67.4746   8 
  -1   5 -11 99.7283 49.8043  17 
   1   5 -11 196.808 66.4829  17 
   1   5 -11 352.779 88.3889  26 
  -1   5 -11 163.946 71.4858  26 
  -1   5 -11 99.1644 43.1867  25 
   1   5 -11 99.4861 49.5447  25 
  -1  -5 -11 131.407 60.3042  15 
   1  -5 -11 98.0487 55.4493  15 
  -1   5 -11 188.232 65.2401  24 
   1   5 -11 146.048 53.3255  24 
   1   5  11 156.962 66.7779  10 
  -1   5  11 149.837 63.9769  10 
  -1  -5 -11 120.842 55.9359  22 
   1  -5 -11 147.489 65.9605  22 
  -1   5  11 128.275 51.7526  13 
  -1  -5 -12-14.4676 35.3302  19 
   1  -5 -12 27.7215 39.1208  19 
  -1   5 -12-77.2955 54.9503  17 
   1   5 -12 20.5609 35.6852  17 
   1   5 -12 16.7224 42.7600  26 
  -1   5 -12-18.7930 34.4040  26 
  -1   5 -12 29.8198 42.9069  25 
   1   5 -12-30.0629 35.5116  25 
  -1  -5 -12 8.85397 38.4295  15 
   1  -5 -12 33.4078 46.6990  15 
  -1   5 -12-52.6334 45.8551  24 
   1   5 -12 20.5797 39.3189  24 
   1   5  12 25.0973 47.0928  10 
  -1   5  12-27.6084 39.8221  10 
  -1  -5 -12 13.8626 36.5008  22 
   1  -5 -12-17.1370 44.8624  22 
  -1   5  12 36.2547 40.3647  13 
  -1  -5 -13 879.317 105.330  19 
   1  -5  13 887.257 117.395  12 
  -1   5 -13 893.862 117.894  17 
   1   5 -13 910.755 111.948  17 
   1   5 -13 982.436 129.241  26 
  -1   5 -13 851.469 116.403  26 
  -1   5 -13 995.664 113.871  25 
   1   5 -13 890.989 110.150  25 
  -1  -5 -13 883.746 112.444  15 
   1  -5 -13 871.440 113.706  15 
   1   5 -13 1015.80 116.535  24 
  -1   5 -13 968.743 113.863  24 
   1   5  13 951.660 124.298  10 
  -1   5  13 957.962 123.246  10 
   1  -5 -13 1093.44 125.247  22 
  -1  -5 -13 1036.67 117.297  22 
  -1   5  13 910.870 108.890  13 
  -1  -5  14 0.37135 28.0380  12 
   1  -5  14 97.6829 43.6399  12 
   1  -5 -14 5.40046 32.9587  11 
  -1   5 -14-9.94422 32.7936  17 
   1   5 -14 53.6197 45.4545  26 
  -1   5 -14 55.4730 35.4211  26 
  -1   5 -14 99.9017 45.8414  25 
   1   5 -14-1.62574 30.0909  25 
  -1  -5 -14 22.6278 31.1860  15 
   1  -5 -14 51.3750 36.1885  15 
  -1   5 -14 46.4978 31.5590  24 
   1   5 -14-10.3339 31.9012  24 
   1   5  14 31.7496 34.9326  10 
  -1   5  14 73.3243 41.3699  10 
  -1  -5 -14 66.0370 47.4501  22 
   1  -5 -14 124.189 48.0826  22 
   1  -5  15 1161.41 108.324  12 
   1   5  15 1147.11 115.310  10 
   1  -5 -15 1160.65 109.703  11 
  -1   5 -15 1238.03 114.144  17 
   1   5 -15 1242.11 121.251  26 
  -1   5 -15 1109.99 108.990  26 
  -1   5 -15 1149.29 105.364  25 
   1   5 -15 1171.14 105.297  25 
  -1  -5 -15 1102.28 107.512  15 
   1  -5 -15 1089.04 108.907  15 
  -1   5 -15 1237.58 110.068  24 
   1   5 -15 1246.07 109.276  24 
  -1  -5 -15 1234.21 107.973  22 
   1  -5 -15 1264.89 111.985  22 
   2   5   0 6812.94 355.764  20 
   2  -5   0 6416.82 298.979  19 
   2   5   0 5810.64 315.028  10 
  -2   5   0 6667.10 300.186  10 
  -2   5   0 6754.53 321.042  13 
   2   5   0 6815.74 284.853  13 
   2   5   1 6260.31 336.526  20 
   2   5  -1 7460.64 379.105  20 
  -2   5  -1 7374.74 350.901  20 
   2  -5  -1 6290.48 301.109  19 
   2  -5   1 7316.48 311.174  19 
   2   5   1 7009.78 347.537  10 
  -2   5   1 6841.80 306.400  10 
   2   5  -1 6285.11 326.360  10 
  -2   5  -1 7023.02 310.416  10 
  -2   5   1 6352.28 318.619  13 
  -2   5  -1 6633.54 317.547  13 
   2   5   1 6971.83 288.254  13 
   2   5  -1 6956.59 290.525  13 
   2   5   2 187.736 69.2414  20 
   2   5  -2 85.9287 52.4582  20 
  -2   5  -2-14.9118 54.4261  20 
   2  -5  -2 128.977 52.3741  19 
   2  -5   2 137.159 47.7197  19 
   2   5   2 57.5406 43.4108  10 
   2   5  -2 110.867 56.8679  10 
  -2   5  -2 253.524 65.2595  10 
  -2   5   2 120.654 56.3372  13 
   2   5   2 91.6369 41.9784  13 
  -2   5  -2 58.1446 28.3900  13 
   2   5  -2 86.0898 40.1239  13 
   2   5   3 16882.1 540.982  20 
   2   5  -3 15527.6 565.479  20 
  -2   5  -3 16949.4 564.836  20 
   2  -5  -3 15887.5 495.086  19 
   2  -5   3 17342.3 466.989  19 
   2  -5  -3 15512.4 444.756  11 
  -2   5  -3 18101.3 520.062  26 
   2   5  -3 16128.5 436.457  25 
   2   5   3 16338.3 544.182  10 
  -2   5   3 16347.3 491.564  10 
   2  -5  -3 17718.1 467.896  15 
   2   5  -3 16265.2 533.850  10 
   2   5  -3 16989.1 449.622  24 
  -2   5  -3 15009.8 477.034  10 
   2  -5  -3 16262.9 452.582  22 
  -2   5   3 16186.7 512.541  13 
  -2   5  -3 16778.8 509.379  13 
   2   5  -3 17003.6 467.048  13 
  -2   5  -3 17033.3 585.938   8 
   2   5   4 19013.9 570.228  20 
   2   5  -4 21115.4 673.207  20 
  -2   5  -4 22253.4 671.929  20 
   2  -5  -4 23868.1 620.384  19 
   2  -5   4 24463.5 548.113  19 
   2  -5  -4 20712.4 533.172  11 
   2   5  -4 22313.4 622.584  26 
  -2   5  -4 22536.9 595.623  26 
   2   5  -4 21934.5 520.092  25 
   2   5   4 20735.6 625.599  10 
  -2   5   4 24254.3 615.053  10 
  -2  -5  -4 23578.1 527.608  15 
   2  -5  -4 20444.7 524.943  15 
   2   5  -4 22975.9 533.597  24 
   2   5  -4 23074.0 643.658  10 
   2  -5  -4 21056.9 533.479  22 
  -2  -5  -4 24398.4 548.715   9 
  -2   5   4 21424.5 599.877  13 
  -2   5  -4 22330.8 593.448  13 
   2   5  -4 22592.3 551.868  13 
  -2   5  -4 21996.9 675.818   8 
   2   5  -5 71923.7 1299.81  20 
  -2   5  -5 69869.0 1249.50  20 
   2  -5  -5 69620.9 1118.87  19 
   2  -5  -5 68805.8 1038.56  11 
  -2   5  -5 74155.6 1199.06  17 
   2   5  -5 68737.3 1093.80  17 
   2   5  -5 66756.5 1132.97  26 
  -2   5  -5 73640.2 1133.22  26 
   2   5  -5 71816.2 1010.12  25 
   2   5   5 66367.0 1182.22  10 
  -2   5   5 70670.4 1094.12  10 
  -2  -5  -5 68511.8 978.998  15 
   2  -5  -5 65559.7 1008.72  15 
   2   5  -5 70965.4 1004.67  24 
   2  -5  -5 74658.4 1074.67  22 
  -2  -5  -5 68764.0 996.671   9 
  -2   5   5 66465.4 1106.60  13 
  -2   5  -5 66623.1 1078.99  13 
  -2   5  -5 65535.4 1218.65   8 
  -2   5  -6 81139.1 1380.24   8 
   2   5  -6 83987.4 1441.56  20 
  -2   5  -6 80460.8 1385.82  20 
   2  -5  -6 89462.7 1286.72  19 
   2  -5  -6 80892.4 1162.65  11 
  -2   5  -6 80403.6 1275.27  17 
   2   5  -6 83987.8 1210.55  17 
   2   5  -6 82071.5 1289.31  26 
  -2   5  -6 78348.0 1204.85  26 
  -2   5  -6 82843.0 1205.31  25 
   2   5   6 83256.0 1351.53  10 
   2   5  -6 83965.6 1126.21  25 
  -2   5   6 83319.9 1221.00  10 
  -2  -5  -6 80980.8 1113.02  15 
   2  -5  -6 86295.7 1181.85  15 
  -2   5  -6 81173.5 1198.91  24 
   2   5  -6 85514.6 1135.80  24 
   2  -5  -6 77400.0 1135.34  22 
  -2   5   6 80053.9 1237.58  13 
  -2  -5  -6 81001.1 1132.45   9 
  -2   5  -6 85531.9 1236.47  13 
   2   5  -6 79814.5 1324.63   8 
   2   5  -7 122.401 71.6074  20 
   2   5  -7 201.903 73.8257   8 
  -2   5  -7 208.399 91.1540   8 
   2  -5  -7 64.5340 58.6173  19 
  -2   5  -7 227.562 75.1428  17 
   2   5  -7 155.896 58.1422  17 
   2   5  -7 98.2513 62.2201  26 
  -2   5  -7 156.249 60.1462  26 
  -2   5  -7 196.749 64.3339  25 
   2   5  -7 139.038 52.7120  25 
  -2  -5  -7 341.715 71.1794  15 
   2  -5  -7 160.720 46.7857  15 
  -2   5  -7 228.766 75.2761  24 
   2   5  -7 200.208 57.8449  24 
   2   5   7 266.539 89.2576  10 
  -2   5   7 174.777 62.9767  10 
   2  -5  -7 199.088 62.4971  22 
  -2  -5  -7 141.944 54.1848   9 
  -2   5   7 169.033 52.6643  13 
  -2   5  -7 135.719 57.5861  13 
   2   5  -8 4738.03 305.520   8 
  -2   5  -8 4965.57 331.045   8 
   2   5  -8 4988.50 348.209  20 
   2  -5  -8 5016.48 290.297  19 
   2  -5   8 4782.09 293.836   7 
  -2   5  -8 4793.98 299.162  17 
   2   5  -8 4574.02 274.631  17 
   2   5  -8 5138.48 326.157  26 
  -2   5  -8 5556.60 310.110  26 
   2   5   8 4476.97 305.392  10 
  -2   5  -8 5046.31 287.256  25 
  -2   5   8 5354.62 298.136  10 
   2   5  -8 4897.80 267.372  25 
  -2  -5  -8 4585.89 264.956  15 
   2  -5  -8 4807.63 277.721  15 
  -2   5  -8 4987.07 284.677  24 
   2   5  -8 4685.45 259.483  24 
   2  -5  -8 4412.54 266.715  22 
  -2   5   8 4755.41 290.743  13 
  -2  -5  -8 5157.65 280.148   9 
   2   5  -9 8915.60 412.126   8 
  -2   5  -9 9179.47 448.918   8 
   2   5  -9 9801.11 485.197  20 
   2  -5  -9 9730.78 399.745  19 
   2  -5   9 9177.06 398.921   7 
  -2   5  -9 9837.10 427.853  17 
   2   5  -9 8447.01 367.958  17 
   2   5  -9 9260.14 428.982  26 
  -2   5  -9 9314.08 402.889  26 
   2   5   9 9154.80 441.469  10 
  -2   5   9 8987.45 388.645  10 
  -2   5  -9 9186.84 390.850  25 
   2   5  -9 8955.25 361.006  25 
  -2  -5  -9 9118.24 378.002  15 
   2  -5  -9 9607.50 398.672  15 
  -2   5  -9 9679.75 400.209  24 
   2   5  -9 8857.41 359.923  24 
   2  -5  -9 10027.4 404.276  22 
  -2   5   9 8847.91 396.879  13 
  -2  -5  -9 9166.39 383.713   9 
   2   5 -10 160.884 89.6066  20 
   2  -5 -10 135.287 53.8431  19 
   2   5 -10 111.852 59.2107   8 
  -2   5 -10 128.929 78.1871   8 
   2  -5  10 76.4389 52.6583   7 
  -2   5 -10 97.7082 45.9518  17 
   2   5 -10 51.2715 45.0013  17 
   2   5 -10 154.820 77.1880  26 
  -2   5 -10 118.362 57.8529  26 
  -2   5 -10 101.800 50.2731  25 
   2   5 -10 84.1687 42.9670  25 
  -2  -5 -10 84.0128 44.8197  15 
   2  -5 -10 86.6948 54.9233  15 
  -2   5 -10 135.420 48.4444  24 
   2   5 -10 61.5795 38.0694  24 
   2   5  10 129.853 63.4449  10 
  -2   5  10 107.202 47.8819  10 
   2  -5 -10 12.1422 43.8451  22 
  -2   5  10 89.5297 44.7162  13 
  -2  -5 -10 68.9635 39.1628   9 
   2  -5 -11 1393.07 145.017  19 
  -2   5 -11 1326.34 166.943   8 
   2  -5  11 1166.86 137.079   7 
  -2   5 -11 1350.02 158.912  17 
   2   5 -11 1210.55 134.446  17 
   2   5 -11 1315.73 160.058  26 
  -2   5 -11 1302.22 144.916  26 
  -2   5  11 1331.10 145.229  10 
  -2   5 -11 1260.39 141.267  25 
   2   5 -11 1250.90 134.261  25 
  -2  -5 -11 1370.90 149.000  15 
   2  -5 -11 1342.79 154.960  15 
  -2   5 -11 1386.89 150.176  24 
   2   5 -11 1153.23 129.274  24 
   2   5  11 1289.00 159.564  10 
   2  -5 -11 1213.45 145.244  22 
  -2   5  11 1367.28 148.998  13 
   2  -5 -12 1032.76 116.879  19 
  -2   5 -12 1068.94 137.119  17 
  -2   5 -12 1197.34 140.335  26 
   2   5 -12 1265.69 145.641  26 
  -2   5 -12 1100.66 127.809  25 
   2   5 -12 1110.59 123.203  25 
  -2  -5 -12 1018.79 126.230  15 
   2  -5 -12 1061.14 132.838  15 
  -2   5 -12 1209.20 132.603  24 
   2   5 -12 1225.31 129.991  24 
   2   5  12 1207.96 147.516  10 
   2  -5 -12 1102.78 134.665  22 
  -2   5  12 1078.26 126.408  13 
  -2  -5 -13 502.583 80.1735  19 
   2  -5  13 582.094 97.9515  12 
   2  -5 -13 599.092 98.0628  11 
  -2   5 -13 591.317 94.9419  17 
   2   5 -13 587.806 96.7746  26 
  -2   5 -13 419.927 83.5284  26 
  -2   5 -13 510.063 81.8215  25 
   2   5 -13 574.677 87.9675  25 
  -2  -5 -13 447.925 81.0814  15 
   2  -5 -13 457.786 87.8554  15 
  -2   5 -13 596.841 91.9543  24 
   2   5 -13 518.904 83.4914  24 
   2   5  13 587.632 101.083  10 
  -2  -5 -13 552.513 86.9493  22 
   2  -5 -13 592.449 92.8134  22 
  -2   5  13 514.317 84.5791  13 
   2  -5  14 5111.80 251.767  12 
   2  -5 -14 5739.81 262.495  11 
  -2   5 -14 5548.68 266.850  17 
   2   5 -14 5444.61 270.312  26 
  -2   5 -14 5223.61 251.097  26 
   2   5  14 5189.92 270.333  10 
  -2   5 -14 5292.19 245.181  25 
   2   5 -14 5343.72 240.016  25 
  -2  -5 -14 5034.77 245.694  15 
   2  -5 -14 5614.94 265.228  15 
  -2   5 -14 5406.24 248.481  24 
   2   5 -14 5338.95 240.173  24 
  -2  -5 -14 5226.09 239.957  22 
   2  -5 -14 5316.30 253.395  22 
  -2   5  14 4796.36 222.429  13 
  -2  -5  14 4884.78 237.667  12 
   2  -5  15 531.760 71.5407  12 
   2  -5 -15 628.805 82.8370  11 
  -2   5 -15 569.790 80.9877  17 
   2   5 -15 576.483 83.4071  26 
  -2   5 -15 459.370 70.6092  26 
  -2   5 -15 523.398 72.1773  25 
   2   5 -15 603.552 76.5375  25 
  -2  -5 -15 560.212 77.5335  15 
  -2   5 -15 476.987 69.4057  24 
   2   5 -15 609.919 76.9084  24 
   2   5  15 530.895 79.3669  10 
  -2  -5 -15 583.321 78.3386  22 
   2  -5 -15 615.531 82.6175  22 
   3   5   0 30.3697 41.0924  20 
   3  -5   0 46.8385 52.0403  19 
   3   5   0-31.7684 45.0226  10 
  -3   5   0-33.4124 39.5020  10 
  -3   5   0-16.0164 29.6104  13 
   3   5   1 884.463 135.477  20 
   3   5  -1 805.511 131.334  20 
   3  -5  -1 957.275 122.765  19 
   3  -5   1 963.695 118.743  19 
   3  -5  -1 913.643 111.419  11 
  -3   5  -1 1014.03 119.585  10 
   3   5   1 887.882 131.973  10 
   3   5  -1 708.715 115.590  10 
   3  -5  -1 926.234 108.250  22 
  -3   5   1 878.881 124.393  13 
  -3   5  -1 956.077 124.257  13 
   3   5  -1 793.811 95.5351  13 
   3   5   2 11363.7 464.664  20 
   3   5  -2 10611.2 469.591  20 
  -3   5  -2 12114.7 460.145  20 
   3  -5  -2 11519.0 417.863  19 
   3  -5   2 10479.0 375.702  19 
   3  -5  -2 10731.9 378.012  11 
  -3   5  -2 10991.0 394.584  26 
   3   5   2 10695.9 442.061  10 
   3   5  -2 10974.5 443.049  10 
  -3   5  -2 9837.52 367.853  10 
   3  -5  -2 11139.3 382.165  22 
  -3   5   2 10922.7 428.460  13 
  -3   5  -2 11310.6 422.556  13 
   3   5  -2 11530.4 367.770  13 
  -3   5  -2 10701.9 461.516   8 
   3   5   3 360.130 86.8756  20 
   3   5  -3 396.321 97.9909  20 
  -3   5  -3 424.392 95.8397  20 
  -3   5  -3 391.960 100.633   8 
   3  -5  -3 427.127 87.8145  19 
   3  -5   3 370.400 69.2860  19 
   3  -5  -3 415.326 79.8004  11 
  -3   5  -3 318.534 75.5641  26 
   3   5   3 418.699 96.6332  10 
   3   5  -3 464.027 104.120  10 
   3  -5  -3 388.605 79.8450  22 
  -3  -5  -3 465.762 75.1404   9 
  -3   5   3 381.031 84.5483  13 
  -3   5  -3 405.263 84.5454  13 
   3   5  -3 402.722 76.0910  13 
   3   5  -4 941.859 147.642  20 
  -3   5  -4 1044.01 151.402  20 
  -3   5  -4 857.717 140.051   8 
   3  -5  -4 1029.02 134.777  19 
   3  -5   4 1045.93 114.869  19 
   3  -5  -4 1094.48 130.177  11 
  -3   5  -4 1094.29 132.764  26 
   3   5  -4 903.859 131.482  26 
   3   5  -4 1006.73 142.377  10 
   3   5   4 995.708 138.329  10 
  -3  -5  -4 1037.34 115.321   9 
   3  -5  -4 1076.73 123.084  22 
  -3   5  -4 1069.29 131.999  13 
  -3   5   4 1008.57 134.091  13 
   3   5  -5 9070.56 452.603  20 
   3  -5  -5 9292.27 387.326  19 
   3  -5  -5 9714.97 376.994  11 
  -3   5  -5 8444.08 396.970  17 
   3   5  -5 8937.75 372.989  17 
   3   5  -5 8962.63 402.902  26 
  -3   5  -5 8539.30 365.142  26 
   3   5   5 8280.10 410.670  10 
  -3  -5  -5 9525.58 344.480  15 
   3  -5  -5 10074.0 381.970  15 
   3  -5  -5 8497.56 353.941  22 
  -3  -5  -5 9042.72 348.106   9 
  -3   5   5 8757.84 397.841  13 
  -3   5  -5 8427.38 373.979  13 
  -3   5  -5 8694.02 433.984   8 
  -3   5  -6 11070.4 501.269   8 
   3   5  -6 11374.8 513.864  20 
   3  -5  -6 11889.2 449.045  19 
   3  -5  -6 12174.1 434.557  11 
  -3   5  -6 12103.1 477.906  17 
   3   5  -6 11391.0 412.837  17 
   3   5  -6 12110.6 479.364  26 
  -3   5  -6 11067.4 422.737  26 
   3   5   6 10526.6 472.280  10 
   3   5  -6 11824.1 383.799  25 
  -3  -5  -6 11662.1 397.015  15 
   3  -5  -6 12187.3 437.370  15 
   3   5  -6 12019.3 385.313  24 
   3  -5  -6 10854.2 409.680  22 
  -3  -5  -6 11502.8 406.191   9 
  -3   5   6 11290.5 454.350  13 
  -3   5  -6 11183.1 434.003  13 
   3   5  -6 11852.9 480.224   8 
  -3   5  -7 14075.1 562.103   8 
   3   5  -7 14320.7 586.315  20 
   3  -5  -7 14910.2 499.672  19 
   3  -5   7 14706.4 525.954   7 
   3  -5  -7 14441.1 483.523  11 
  -3   5  -7 14095.7 518.089  17 
   3   5  -7 13424.4 451.008  17 
   3   5  -7 13889.1 522.217  26 
  -3   5  -7 14135.7 479.157  26 
  -3   5  -7 13968.0 483.275  25 
   3   5   7 13376.5 531.886  10 
   3   5  -7 14343.6 431.426  25 
  -3  -5  -7 14985.3 464.678  15 
   3  -5  -7 12840.4 462.136  15 
  -3   5  -7 14162.1 485.624  24 
   3   5  -7 13983.3 426.591  24 
   3  -5  -7 14220.5 480.304  22 
  -3   5   7 13885.4 515.938  13 
  -3  -5  -7 13220.1 450.576   9 
  -3   5  -7 13493.4 477.954  13 
   3   5  -7 14256.0 526.154   8 
   3   5  -8 8306.22 394.807   8 
  -3   5  -8 8744.81 443.420   8 
   3   5  -8 8541.83 448.655  20 
   3  -5  -8 9005.90 389.028  19 
   3  -5   8 8188.88 386.374   7 
   3  -5  -8 9086.77 386.772  11 
  -3   5  -8 9374.05 418.062  17 
   3   5  -8 7998.04 343.634  17 
   3   5  -8 8544.80 412.916  26 
  -3   5  -8 8351.22 369.803  26 
   3   5   8 8411.42 419.569  10 
  -3   5  -8 8557.76 377.015  25 
   3   5  -8 9066.56 345.401  25 
  -3  -5  -8 8313.16 355.884  15 
   3  -5  -8 8145.81 368.966  15 
  -3   5  -8 8936.40 386.202  24 
   3   5  -8 9075.76 347.372  24 
   3  -5  -8 8409.62 373.720  22 
  -3   5   8 8558.31 395.718  13 
  -3  -5  -8 8042.69 354.877   9 
   3   5  -9 20673.5 607.029   8 
   3   5  -9 20671.3 705.629  20 
  -3   5  -9 22967.0 719.133   8 
   3  -5  -9 20545.3 579.936  19 
   3  -5   9 20529.2 607.171   7 
   3  -5  -9 21124.0 598.407  11 
  -3   5  -9 20818.5 631.292  17 
   3   5  -9 21425.3 648.816  26 
  -3   5  -9 22051.2 607.786  26 
   3   5   9 21203.8 678.186  10 
  -3   5  -9 21497.0 608.987  25 
   3   5  -9 21437.0 542.101  25 
  -3  -5  -9 22123.9 589.783  15 
   3  -5  -9 19987.2 587.264  15 
  -3   5  -9 21101.6 603.362  24 
   3   5  -9 21370.8 542.997  24 
   3  -5  -9 24178.9 639.062  22 
  -3   5   9 19851.8 616.785  13 
  -3  -5  -9 22201.3 602.472   9 
   3   5 -10 11104.9 511.892  20 
  -3   5 -10 10706.2 479.467   8 
   3  -5 -10 12198.0 428.162  19 
   3  -5  10 10769.1 427.258   7 
   3  -5 -10 11711.5 440.638  11 
  -3   5 -10 12006.8 475.297  17 
   3   5 -10 11350.3 466.704  26 
  -3   5 -10 11420.0 428.454  26 
   3   5  10 11805.6 495.262  10 
  -3   5 -10 11802.2 439.954  25 
   3   5 -10 11682.2 396.813  25 
  -3  -5 -10 11790.0 430.642  15 
   3  -5 -10 10513.4 420.551  15 
  -3   5 -10 12462.9 452.959  24 
   3   5 -10 11492.1 395.109  24 
   3  -5 -10 12838.8 462.437  22 
  -3   5  10 10897.0 440.220  13 
  -3  -5 -10 11448.7 427.038   9 
   3   5 -11 15361.0 583.963  20 
  -3   5 -11 16943.0 584.579   8 
   3  -5 -11 16452.9 475.883  19 
   3  -5 -11 16020.1 509.422  11 
   3  -5  11 15581.5 500.937   7 
  -3   5 -11 15407.8 530.959  17 
   3   5 -11 15866.1 539.694  26 
  -3   5 -11 15456.4 493.804  26 
   3   5  11 16096.0 571.535  10 
  -3   5 -11 16508.6 508.048  25 
   3   5 -11 16000.0 465.393  25 
  -3  -5 -11 15008.8 478.131  15 
   3  -5 -11 16751.2 525.878  15 
  -3   5 -11 16234.3 500.896  24 
   3   5 -11 16090.6 467.771  24 
   3  -5 -11 15418.8 500.147  22 
  -3   5  11 15056.0 509.392  13 
  -3  -5 -11 16667.9 507.040   9 
   3  -5 -12 1185.53 119.158  19 
   3  -5  12 967.154 127.226  12 
   3  -5 -12 1067.90 128.345  11 
  -3   5 -12 1083.76 135.173  17 
  -3   5 -12 998.575 115.278  16 
   3   5 -12 1072.33 135.291  26 
  -3   5 -12 995.011 123.772  26 
  -3   5 -12 1113.29 129.478  25 
   3   5 -12 1087.81 116.176  25 
  -3  -5 -12 1134.59 132.772  15 
  -3   5 -12 1101.53 128.365  24 
   3  -5 -12 1003.81 128.594  15 
   3   5 -12 1131.51 120.022  24 
   3   5  12 1087.13 134.898  10 
   3  -5 -12 1038.98 129.840  22 
  -3   5  12 1017.64 125.000  13 
  -3  -5 -13 24.6020 31.6810  19 
   3  -5  13 62.0474 43.1369  12 
   3  -5 -13 19.3510 43.2162  11 
  -3   5 -13 18.3951 38.1879  17 
  -3   5 -13-35.2782 37.0916  16 
   3   5 -13 89.0617 43.8013  26 
  -3   5 -13 35.6838 40.1422  26 
  -3   5 -13 30.7386 29.2525  25 
   3   5 -13 4.72947 28.3800  25 
  -3  -5 -13 34.6402 32.2345  15 
   3  -5 -13 49.3958 38.4363  15 
  -3   5 -13 37.3592 34.9630  24 
   3   5 -13 67.9399 41.3876  24 
   3   5  13 45.3899 47.2117  10 
   3  -5 -13 67.9659 46.3166  22 
  -3   5  13 51.9107 39.2901  13 
   3  -5  14 493.043 79.9930  12 
   3  -5 -14 584.973 84.9809  11 
  -3   5 -14 563.879 89.1295  17 
   3   5 -14 427.692 78.6493  26 
  -3   5 -14 292.971 55.3390  26 
  -3   5 -14 516.105 75.0484  25 
   3   5 -14 514.059 74.8335  25 
  -3  -5 -14 423.393 72.8886  15 
  -3   5 -14 500.496 77.4804  24 
   3   5 -14 447.063 67.9626  24 
   3   5  14 596.091 96.2269  10 
  -3  -5 -14 479.481 71.7729  22 
   3  -5 -14 368.650 63.4137  22 
  -3   5  14 408.648 70.1629  13 
   3  -5  15-0.29614 22.5863  12 
   3  -5 -15 6.83725 27.5848  11 
  -3   5 -15-39.3969 39.0191  17 
   3   5 -15-4.64039 30.7423  26 
  -3   5 -15 53.9093 30.6768  25 
  -3  -5 -15 20.4455 28.5588  15 
  -3   5 -15 46.6176 29.7010  24 
   3   5  15 42.6271 38.9044  10 
  -3  -5 -15-16.6571 30.2079  22 
   3  -5 -15 43.4292 30.6427  22 
   4   5   0 11762.0 491.855  20 
   4  -5   0 12888.6 437.588  19 
   4   5   0 11934.3 575.388  18 
   4  -5   0 13155.4 429.840  11 
   4   5   0 12055.9 472.235  10 
   4  -5   0 12798.8 423.339  22 
  -4   5   0 12593.4 464.659  13 
  -4   5   0 12012.9 491.156   8 
   4   5   1 1544.47 177.684  20 
   4   5  -1 1670.88 190.686  20 
   4  -5  -1 1781.61 165.567  19 
   4  -5   1 1527.49 150.714  19 
   4   5  -1 1451.34 212.175  18 
   4   5   1 1218.57 184.359  18 
   4  -5  -1 1557.80 154.820  11 
  -4   5  -1 1601.50 149.802  26 
   4   5   1 1520.10 170.960  10 
   4   5  -1 1699.19 176.228  10 
   4  -5  -1 1562.81 153.415  22 
  -4   5   1 1708.67 170.890  13 
  -4   5  -1 1287.13 144.250  13 
  -4   5  -1 1509.88 178.305   8 
   4   5  -2 6965.71 389.009  20 
   4  -5  -2 7193.17 336.940  19 
   4  -5   2 8242.34 340.379  19 
   4   5   2 6373.71 423.203  18 
   4   5  -2 6722.22 431.254  18 
   4  -5  -2 7168.20 323.332  11 
  -4   5  -2 7056.39 307.810  26 
   4   5   2 6669.69 357.020  10 
   4   5  -2 7155.27 368.100  10 
   4  -5   2 7539.20 318.920  23 
   4  -5  -2 7274.53 323.595  22 
  -4   5   2 7000.86 347.274  13 
  -4   5  -2 7286.02 348.302  13 
  -4   5  -2 7491.18 389.477   8 
   4   5  -3 14.2808 44.7772  20 
  -4   5  -3-0.96848 40.7150   8 
   4  -5  -3 78.9213 50.9378  19 
   4  -5   3 8.00200 32.6362  19 
   4  -5  -3 81.6437 54.2885  11 
  -4   5  -3-2.35388 39.6732  26 
   4   5   3-2.73662 37.0331  10 
   4   5  -3 77.2790 49.4778  10 
   4  -5   3 21.4917 35.5670  23 
   4  -5  -3 67.6280 50.2328  22 
  -4  -5  -3 11.2696 29.5356   9 
  -4   5   3-49.8302 46.7264  13 
  -4   5  -3 21.6647 39.9924  13 
  -4   5  -4 2218.68 220.886   8 
   4   5  -4 2000.89 217.322  20 
   4  -5  -4 2081.95 186.278  19 
   4  -5   4 2269.28 173.594  19 
  -4   5  -4 1875.61 189.997  17 
   4   5  -4 1909.05 172.614  17 
   4  -5  -4 2330.64 187.275  11 
   4   5  -4 2347.26 208.345  26 
  -4   5  -4 2097.49 173.933  26 
   4   5   4 1998.74 209.974  10 
   4   5  -4 2122.26 206.476  10 
  -4  -5  -4 2246.12 174.789   9 
   4  -5  -4 2384.47 191.626  22 
  -4   5   4 2122.61 199.074  13 
  -4   5  -4 2201.94 192.575  13 
   4   5  -5 83.6122 52.5383  20 
  -4   5  -5 118.467 67.4267   8 
   4  -5  -5 27.7785 41.1346  19 
   4  -5   5 55.3634 42.9858  19 
  -4   5  -5 59.4107 53.2804  17 
   4  -5  -5 131.415 56.0757  11 
   4   5  -5 104.980 63.8864  26 
  -4   5  -5 121.584 55.2559  26 
  -4  -5  -5 65.5049 41.3389  15 
   4   5   5 86.3804 57.2697  10 
   4  -5  -5 125.999 59.9931  22 
  -4  -5  -5 25.8835 30.1866   9 
  -4   5   5 118.934 57.6701  13 
  -4   5  -5 135.802 49.4787  13 
  -4   5  -6 11141.2 499.058   8 
   4   5  -6 10988.1 513.071  20 
   4  -5  -6 10810.3 425.416  19 
   4  -5   6 11307.8 467.435   7 
   4  -5  -6 11586.8 436.211  11 
  -4   5  -6 11430.0 466.926  17 
   4   5  -6 11089.6 459.198  26 
  -4   5  -6 11586.3 418.932  26 
   4   5   6 11480.9 498.965  10 
  -4  -5  -6 11633.1 395.161  15 
   4  -5  -6 11143.9 426.199  22 
  -4  -5  -6 10243.6 389.782   9 
  -4   5   6 10761.1 452.746  13 
  -4   5  -6 11382.8 436.577  13 
   4   5  -6 10799.4 452.224   8 
   4   5  -7 5931.12 380.926  20 
  -4   5  -7 5832.76 360.155   8 
   4  -5  -7 6431.55 324.408  19 
   4  -5   7 5915.78 336.624   7 
   4  -5  -7 6460.48 327.101  11 
  -4   5  -7 5652.42 327.819  17 
   4   5  -7 5644.48 330.061  26 
  -4   5  -7 5755.83 295.741  26 
  -4   5  -7 6558.61 332.431  25 
   4   5   7 6080.23 361.955  10 
  -4  -5  -7 6812.28 311.507  15 
   4  -5  -7 6507.67 332.436  15 
  -4   5  -7 6849.29 341.724  24 
   4  -5  -7 6194.94 318.418  22 
  -4  -5  -7 6018.20 304.092   9 
  -4   5   7 5800.62 334.676  13 
  -4   5  -7 5904.20 312.097  13 
   4   5  -7 5649.71 325.338   8 
   4   5  -8 36525.8 809.836   8 
   4   5  -8 38973.6 975.169  20 
  -4   5  -8 39332.1 960.007   8 
   4  -5  -8 40136.1 824.708  19 
   4  -5   8 41486.8 902.704   7 
   4  -5  -8 37498.2 816.447  11 
  -4   5  -8 40783.3 896.309  17 
  -4   5  -8 35525.2 709.341   6 
   4   5  -8 38714.1 880.768  26 
  -4   5  -8 38701.7 785.500  26 
   4   5   8 39493.4 938.514  10 
  -4   5  -8 42913.8 870.365  25 
   4   5  -8 37109.6 697.687  25 
  -4  -5  -8 40594.7 793.926  15 
   4  -5  -8 36339.6 799.483  15 
  -4   5  -8 39258.2 833.581  24 
   4   5  -8 36909.1 697.074  24 
   4  -5  -8 39620.9 837.315  22 
  -4   5   8 38519.8 881.092  13 
  -4  -5  -8 43103.2 846.581   9 
   4   5  -9 6049.61 375.990  20 
  -4   5  -9 6526.63 380.843   8 
   4  -5  -9 6011.78 306.503  19 
   4  -5   9 5976.64 330.822   7 
   4  -5  -9 5789.74 315.519  11 
  -4   5  -9 6016.80 342.652  17 
  -4   5  -9 5476.75 264.651   6 
   4   5  -9 6347.19 345.807  26 
  -4   5  -9 5886.89 296.068  26 
   4   5   9 5518.87 343.685  10 
  -4   5  -9 6426.07 328.158  25 
   4   5  -9 6345.76 280.240  25 
  -4  -5  -9 6317.69 304.490  15 
   4  -5  -9 5148.04 297.948  15 
  -4   5  -9 6879.73 340.218  24 
   4   5  -9 6349.38 280.160  24 
   4  -5  -9 6111.72 320.365  22 
  -4   5   9 5900.83 330.897  13 
  -4  -5  -9 5855.55 302.789   9 
   4   5 -10 19052.5 658.287  20 
  -4   5 -10 19799.6 655.847   8 
   4  -5 -10 19539.8 536.093  19 
   4  -5  10 21528.2 615.148   7 
   4  -5 -10 19398.7 571.652  11 
  -4   5 -10 19887.4 613.513  17 
   4   5 -10 19924.7 611.341  26 
  -4   5 -10 17590.8 508.980  26 
   4   5  10 19521.1 633.267  10 
  -4   5 -10 20799.9 582.808  25 
   4   5 -10 19632.1 499.218  25 
  -4  -5 -10 19962.4 551.876  15 
   4  -5 -10 19462.8 576.058  15 
  -4   5 -10 20352.2 577.734  24 
   4   5 -10 19804.2 502.223  24 
   4  -5 -10 19993.4 577.510  22 
  -4   5  10 18572.4 587.629  13 
  -4  -5 -10 19406.7 557.493   9 
   4  -5  10 18350.3 582.049  12 
   4  -5  11 22193.5 617.661  12 
   4   5 -11 20707.6 661.879  20 
   4  -5 -11 20549.9 520.576  19 
   4  -5 -11 18691.3 552.084  11 
   4  -5  11 20826.8 586.528   7 
  -4   5 -11 22540.6 631.259  17 
   4   5 -11 20862.7 609.449  26 
  -4   5 -11 19405.7 521.329  26 
   4   5  11 20352.2 629.253  10 
  -4   5 -11 21915.6 577.921  25 
   4   5 -11 21361.6 512.629  25 
  -4  -5 -11 21199.9 557.574  15 
  -4   5 -11 21192.2 564.844  24 
   4   5 -11 21283.7 512.947  24 
   4  -5 -11 21196.6 586.386  22 
  -4   5  11 20556.0 596.145  13 
  -4  -5 -11 21448.3 572.642   9 
   4  -5  12 3918.96 248.005  12 
   4  -5 -12 4737.74 259.509  11 
   4  -5  12 4195.30 236.039   7 
  -4   5 -12 4571.48 266.031  17 
  -4   5 -12 3823.72 219.576  16 
   4   5 -12 4232.48 258.978  26 
  -4   5 -12 3959.39 221.829  26 
   4   5  12 4573.81 282.252  10 
  -4   5 -12 4271.89 239.195  25 
   4   5 -12 4504.33 224.101  25 
  -4  -5 -12 4247.38 240.741  15 
  -4   5 -12 4436.60 244.199  24 
   4   5 -12 4426.09 221.964  24 
   4  -5 -12 4203.66 245.072  22 
  -4   5  12 4252.11 252.715  13 
   4  -5  13 2672.25 194.741  12 
   4  -5 -13 3133.70 204.354  11 
  -4   5 -13 2932.87 201.651  17 
  -4   5 -13 2658.92 167.421  16 
   4   5 -13 3015.84 207.459  26 
   4   5  13 2938.42 210.286  10 
  -4   5 -13 3030.54 188.289  25 
   4   5 -13 3058.41 176.675  25 
  -4  -5 -13 2779.88 182.987  15 
  -4   5 -13 3040.36 190.035  24 
   4   5 -13 2976.70 175.415  24 
   4  -5 -13 3133.46 201.621  22 
  -4   5  13 3023.54 199.927  13 
   4  -5  14 6760.57 278.159  12 
   4  -5 -14 6856.52 276.559  11 
  -4   5 -14 6988.81 286.788  17 
  -4   5 -14 5095.45 211.808  16 
   4   5 -14 6532.60 282.827  26 
   4   5  14 6498.06 291.983  10 
  -4   5 -14 6775.17 260.332  25 
   4   5 -14 6114.84 227.708  25 
  -4  -5 -14 6611.82 261.747  15 
  -4   5 -14 6883.50 263.276  24 
   4   5 -14 6213.43 229.928  24 
   4  -5 -14 4666.39 209.266  23 
  -4  -5 -14 6542.84 242.417  22 
   4  -5 -14 6439.15 266.772  22 
  -4   5  14 6531.66 265.056  13 
   4  -5 -15 99.9876 37.0616  11 
  -4   5 -15 113.016 42.3163  17 
   4   5 -15 82.8162 39.8670  26 
  -4   5 -15 87.0861 32.0456  25 
  -4  -5 -15 75.9142 34.0258  15 
  -4   5 -15 137.650 40.3509  24 
   4   5  15 139.848 45.6153  10 
   4  -5 -15 67.4588 32.6811  22 
   5   5   0 38.6233 62.7346  20 
  -5   5   0-43.5818 50.7054   8 
   5  -5   0 41.1378 43.5814  19 
   5   5   0 52.1362 57.0234  18 
   5  -5   0 78.7316 48.8696  11 
   5   5   0-26.5150 40.2895  10 
   5  -5   0 31.6345 42.0203  22 
  -5   5   0 43.6037 51.2310  13 
   5   5  -1 4814.27 330.609  20 
   5  -5  -1 4027.17 255.901  19 
   5  -5   1 4948.28 275.950  19 
   5   5   1 4046.34 346.399  18 
   5   5  -1 4258.43 352.351  18 
   5  -5  -1 4547.04 269.953  11 
   5  -5   1 4122.25 254.702  11 
   5   5   1 3915.37 282.143  10 
   5   5  -1 4090.10 282.514  10 
   5  -5   1 4331.73 258.946  23 
   5  -5  -1 4339.27 259.939  22 
   5  -5   1 4478.64 264.378  22 
  -5   5   1 4463.01 281.758  13 
  -5   5  -1 4441.63 281.146  13 
  -5   5   1 4520.46 290.989   8 
  -5   5  -1 4260.57 292.330   8 
   5   5  -2 12712.9 539.984  20 
   5  -5  -2 13493.4 467.253  19 
   5  -5   2 13619.8 450.148  19 
   5   5   2 12424.5 603.478  18 
   5   5  -2 12399.5 602.181  18 
   5  -5  -2 12534.8 444.576  11 
   5  -5   2 12901.0 445.422  11 
   5   5   2 12766.5 502.117  10 
   5   5  -2 12229.1 489.448  10 
   5  -5   2 13096.6 443.108  23 
   5  -5  -2 13488.7 461.420  22 
   5  -5   2 12392.4 439.064  22 
  -5   5   2 13487.0 490.815  13 
  -5   5  -2 13842.4 488.415  13 
  -5   5   2 12405.6 475.585   8 
  -5   5  -2 13210.1 515.878   8 
  -5   5  -3 14584.3 553.535   8 
   5   5  -3 14697.1 586.777  20 
   5  -5  -3 14917.6 497.830  19 
   5  -5   3 13936.7 451.497  19 
   5   5   3 13538.6 629.177  18 
   5   5  -3 13869.8 626.967  18 
   5  -5  -3 14923.2 490.533  11 
   5   5  -3 13724.8 493.737  26 
   5   5   3 14190.6 538.413  10 
   5   5  -3 14230.0 529.776  10 
   5  -5   3 16040.7 480.304  23 
  -5  -5  -3 12377.7 404.343   9 
   5  -5  -3 14098.0 472.285  22 
  -5   5   3 13361.8 498.930  13 
  -5   5  -3 14727.9 505.238  13 
  -5   5   3 15150.1 511.924   8 
  -5   5  -4 1475.83 183.368   8 
   5   5  -4 1105.80 170.786  20 
   5  -5  -4 1359.37 154.574  19 
   5  -5   4 1272.77 139.594  19 
  -5   5  -4 1348.63 159.143  17 
   5  -5  -4 1295.66 147.311  11 
   5   5  -4 1321.69 159.297  26 
   5   5  -4 1164.56 157.751  10 
   5   5   4 1170.65 154.553  10 
  -5  -5  -4 1234.91 131.406   9 
   5  -5  -4 1346.64 151.755  22 
  -5   5   4 1410.89 168.091  13 
  -5   5  -4 1316.31 149.513  13 
   5   5  -5 696.270 144.005  20 
  -5   5  -5 623.363 120.453   8 
   5  -5  -5 772.753 116.815  19 
   5  -5   5 827.644 109.161  19 
   5  -5   5 872.162 133.453   7 
  -5   5  -5 747.856 126.249  17 
   5  -5  -5 922.671 128.759  11 
   5   5  -5 765.458 126.497  26 
   5   5   5 770.359 131.381  10 
   5  -5  -5 806.297 119.644  22 
  -5  -5  -5 817.356 112.245   9 
  -5   5   5 785.714 131.765  13 
  -5   5  -5 792.790 117.539  13 
   5   5  -6 6172.32 387.147  20 
  -5   5  -6 6387.74 378.190   8 
   5  -5  -6 6276.99 325.552  19 
   5  -5   6 6134.93 349.751   7 
   5  -5  -6 6888.08 342.630  11 
  -5   5  -6 6376.97 345.413  17 
   5   5  -6 6185.26 343.578  26 
   5   5   6 6022.47 367.235  10 
  -5  -5  -6 6158.40 282.882  15 
  -5  -5  -6 6263.55 308.506   9 
   5  -5  -6 5672.16 309.162  22 
  -5   5   6 5994.80 341.567  13 
  -5   5  -6 6114.36 322.484  13 
   5   5  -6 6212.64 331.733   8 
   5   5  -7 650.032 128.103  20 
  -5   5  -7 745.823 136.288   8 
   5  -5  -7 820.778 119.651  19 
   5  -5   7 761.608 126.508   7 
  -5   5  -7 843.668 129.578  17 
   5  -5  -7 715.065 116.276  11 
   5   5  -7 665.417 122.256  26 
  -5   5  -7 576.257 111.153  25 
  -5  -5  -7 827.580 110.280  15 
  -5   5  -7 706.841 116.486  24 
   5   5   7 724.722 130.326  10 
   5  -5  -7 751.538 120.010  22 
  -5  -5  -7 789.293 115.436   9 
  -5   5   7 756.178 123.253  13 
  -5   5  -7 638.151 107.746  13 
   5   5  -8 12088.7 534.429  20 
  -5   5  -8 11883.0 520.683   8 
   5  -5  -8 12811.4 456.552  19 
   5  -5   8 12075.6 482.036   7 
   5  -5  -8 11656.3 454.047  11 
  -5   5  -8 12925.6 492.896  17 
   5   5  -8 11866.9 475.376  26 
  -5   5  -8 12512.6 460.467  25 
   5   5   8 11591.5 501.018  10 
  -5  -5  -8 11827.4 413.453  15 
  -5   5  -8 12327.9 456.934  24 
   5  -5  -8 12284.4 461.717  22 
  -5  -5  -8 12158.9 439.488   9 
  -5   5   8 11583.9 475.572  13 
   5  -5   8 11502.8 459.642  12 
   5  -5   9 6337.68 336.975  12 
   5   5  -9 6452.89 382.471  20 
  -5   5  -9 6297.38 370.552   8 
   5  -5  -9 6175.48 306.527  19 
   5  -5   9 6358.40 342.104   7 
   5  -5  -9 6329.51 328.540  11 
  -5   5  -9 6558.30 348.215  17 
  -5   5  -9 5973.71 283.143   6 
   5   5  -9 6164.36 334.575  26 
   5   5   9 6393.10 363.058  10 
  -5   5  -9 6663.94 328.743  25 
  -5  -5  -9 5888.68 292.781  15 
  -5   5  -9 6473.49 324.793  24 
   5  -5  -9 6269.63 325.619  22 
  -5   5   9 5978.23 335.341  13 
  -5  -5  -9 6227.89 312.220   9 
   5  -5  10 82367.8 1260.62  12 
   5   5 -10 86444.8 1419.42  20 
  -5   5 -10 85514.1 1395.44   8 
   5  -5 -10 85350.1 1152.91  19 
   5  -5  10 84815.1 1295.84   7 
   5  -5 -10 85062.9 1257.62  11 
  -5   5 -10 88880.0 1319.40  17 
  -5   5 -10 84644.2 1089.62   6 
   5   5 -10 86307.0 1297.55  26 
   5   5  10 89964.1 1382.43  10 
  -5   5 -10 92135.8 1255.12  25 
  -5  -5 -10 78978.8 1139.57  15 
  -5   5 -10 91447.0 1253.76  24 
   5  -5 -10 88400.6 1268.78  22 
  -5   5  10 84500.2 1300.50  13 
  -5  -5 -10 82146.1 1191.18   9 
   5  -5  11 26646.7 672.960  12 
   5   5 -11 26652.6 726.989  20 
   5  -5 -11 26223.7 568.815  19 
   5  -5 -11 25296.4 637.829  11 
   5  -5  11 29404.0 705.278   7 
  -5   5 -11 28560.8 696.320  17 
   5   5 -11 26366.9 662.365  26 
  -5   5 -11 25318.2 533.343   6 
   5   5  11 27535.1 715.585  10 
  -5   5 -11 27235.8 629.810  25 
  -5  -5 -11 25206.2 596.198  15 
  -5   5 -11 26273.7 615.773  24 
   5  -5 -11 26782.2 648.704  22 
  -5   5  11 26581.0 672.304  13 
  -5  -5 -11 24698.5 607.151   9 
   5  -5  12 245.132 68.3055  12 
   5  -5 -12 234.434 58.8041  11 
  -5   5 -12 260.145 70.9496  17 
   5  -5  12 235.239 64.0684   7 
  -5   5 -12 287.263 68.5632  16 
   5   5 -12 268.473 72.1026  26 
  -5   5 -12 187.563 52.9500  25 
  -5  -5 -12 260.208 61.9850  15 
  -5   5 -12 273.965 67.5621  24 
   5   5  12 274.826 69.8986  10 
   5  -5 -12 223.005 60.7884  22 
  -5  -5 -12 177.018 54.3975   9 
  -5   5  12 317.588 76.1271  13 
   5  -5  13 4044.05 225.084  12 
   5  -5 -13 4442.27 232.587  11 
  -5   5 -13 4105.06 232.749  17 
  -5   5 -13 3868.40 198.606  16 
   5   5 -13 3990.98 227.385  26 
   5   5  13 4070.72 239.230  10 
  -5   5 -13 4161.66 210.657  25 
  -5  -5 -13 4033.41 207.668  15 
  -5   5 -13 4337.31 215.680  24 
   5  -5 -13 3760.10 201.029  23 
   5  -5 -13 3851.20 215.110  22 
  -5   5  13 3876.34 220.552  13 
   5  -5  14 57.1453 37.6905  12 
   5  -5 -14 94.5135 45.1293  11 
  -5   5 -14 94.4262 40.6194  17 
   5   5 -14 83.1808 39.2973  26 
  -5   5 -14 35.6559 31.8473  25 
  -5  -5 -14 58.7919 35.4249  15 
  -5   5 -14 71.8078 35.8216  24 
   5   5  14 89.0441 45.5106  10 
   5  -5 -14 77.0925 42.5093  22 
  -5   5  14 44.8475 33.8942  13 
   6   5   0 763.408 134.725  20 
  -6   5   0 636.890 116.384   8 
   6  -5   0 797.062 118.123  19 
   6   5   0 741.835 142.993  18 
   6  -5   0 621.241 115.790  11 
   6   5   0 744.238 123.934  10 
   6  -5   0 825.296 121.131  23 
   6  -5   0 725.866 113.325  22 
  -6   5   0 727.943 118.135  13 
   6   5  -1 535.661 117.401  20 
  -6   5   1 568.694 107.270   8 
  -6   5  -1 588.151 110.535   8 
   6  -5  -1 658.535 107.536  19 
   6  -5   1 565.121 105.683  19 
   6   5   1 891.115 163.145  18 
   6   5  -1 684.932 150.312  18 
   6  -5  -1 537.216 100.976  11 
   6  -5   1 653.985 111.226  11 
   6   5   1 528.108 109.266  10 
   6   5  -1 644.209 125.735  10 
   6  -5  -1 594.984 104.725  23 
   6  -5   1 584.819 105.711  23 
   6  -5  -1 555.078 104.991  22 
   6  -5   1 707.565 113.580  22 
  -6   5   1 628.192 110.506  13 
  -6   5  -1 626.342 112.659  13 
   6  -5   2 7517.13 332.739  12 
  -6   5  -2 7185.27 379.633   8 
   6   5  -2 7222.52 414.572  20 
   6  -5  -2 6720.58 332.598  19 
   6  -5   2 7258.05 337.880  19 
   6  -5   2 7211.74 369.484   7 
   6   5   2 6808.01 443.019  18 
   6   5  -2 7308.98 457.259  18 
   6  -5  -2 6779.10 336.000  11 
   6  -5   2 6794.39 342.867  11 
   6   5   2 6912.83 373.288  10 
   6   5  -2 6960.32 371.864  10 
   6  -5   2 6910.48 330.998  23 
  -6  -5  -2 6696.68 291.149   9 
   6  -5  -2 7338.05 345.816  22 
   6  -5   2 6825.66 345.929  22 
  -6   5   2 7307.26 365.647  13 
  -6   5  -2 7310.19 354.779  13 
  -6   5   2 7048.44 348.230   8 
   6  -5   3 12320.8 437.774  12 
   6   5  -3 12118.3 542.329  20 
  -6   5  -3 11539.6 486.291   8 
   6  -5  -3 13757.2 484.508  19 
   6  -5   3 10830.2 412.152  19 
   6  -5   3 12294.6 490.719   7 
   6   5   3 12326.8 591.581  18 
   6   5  -3 12388.5 603.228  18 
  -6   5  -3 11949.5 465.301  17 
   6  -5  -3 12416.0 457.207  11 
   6  -5   3 10850.8 432.789  11 
   6   5  -3 11395.1 449.483  26 
   6   5   3 12094.9 492.874  10 
   6   5  -3 11367.2 477.956  10 
   6  -5   3 14746.9 477.074  23 
  -6  -5  -3 12401.4 411.150   9 
   6  -5  -3 12821.9 464.010  22 
   6  -5   3 11296.2 445.620  22 
  -6   5   3 12817.6 490.293  13 
  -6   5  -3 12161.4 459.962  13 
   6   5  -4 1739.19 206.505  20 
  -6   5  -4 1809.34 197.850   8 
   6  -5  -4 1508.81 164.236  19 
   6  -5   4 1768.29 162.004  19 
   6  -5   4 1831.35 192.502   7 
   6   5   4 1636.68 214.309  18 
   6   5  -4 1598.93 215.171  18 
  -6   5  -4 1646.87 173.811  17 
   6  -5  -4 1749.68 171.187  11 
   6   5  -4 1725.13 177.639  26 
   6   5   4 1659.35 189.540  10 
   6   5  -4 1645.04 182.790  10 
   6  -5   4 1645.59 155.706  23 
  -6  -5  -4 1596.91 154.207   9 
   6  -5  -4 1749.03 171.999  22 
  -6   5   4 1678.28 180.388  13 
  -6   5  -4 1612.86 167.865  13 
   6  -5   4 1646.21 162.817  12 
   6  -5   5 19936.7 583.199  12 
   6   5  -5 20468.4 703.032  20 
  -6   5  -5 20112.0 665.957   8 
   6  -5  -5 19293.4 571.270  19 
   6  -5   5 20455.2 547.674  19 
   6  -5   5 20350.2 639.387   7 
  -6   5  -5 20149.4 604.654  17 
   6  -5  -5 20416.3 604.704  11 
   6   5  -5 18895.4 590.700  26 
   6   5   5 18860.4 632.583  10 
  -6  -5  -5 20585.3 552.353   9 
   6  -5  -5 20495.3 602.853  22 
  -6   5   5 19224.7 617.617  13 
  -6   5  -5 21062.4 595.393  13 
   6  -5   6 1645.66 165.775  12 
   6   5  -6 1610.53 200.096  20 
  -6   5  -6 1889.48 206.113   8 
   6  -5  -6 1860.54 178.099  19 
   6  -5   6 1572.76 148.103  19 
   6  -5   6 1593.99 179.496   7 
   6  -5  -6 1650.24 171.850  11 
  -6   5  -6 1623.87 172.760  17 
   6   5  -6 1918.34 185.588  26 
   6   5   6 1568.88 187.735  10 
  -6  -5  -6 1795.16 162.318   9 
   6  -5  -6 1587.58 172.538  22 
  -6   5   6 1772.69 187.488  13 
  -6   5  -6 1633.75 163.955  13 
   6  -5   7 11000.4 439.253  12 
   6   5  -7 10846.1 504.698  20 
  -6   5  -7 10913.5 495.360   8 
   6  -5  -7 10700.2 418.009  19 
   6  -5   7 11868.0 479.393   7 
   6  -5  -7 11014.2 440.616  11 
  -6   5  -7 10951.6 443.880  17 
   6   5  -7 10836.0 445.423  26 
  -6   5  -7 11049.7 426.980  25 
   6   5   7 10640.8 470.534  10 
  -6  -5  -7 9514.64 357.042  15 
  -6   5  -7 11145.9 431.026  24 
  -6  -5  -7 10642.5 407.810   9 
   6  -5  -7 11856.1 455.146  22 
  -6   5   7 10644.5 457.916  13 
  -6   5  -7 11322.9 425.184  13 
   6  -5   8 25454.8 674.511  12 
   6   5  -8 25113.7 761.196  20 
  -6   5  -8 24787.2 737.281   8 
   6  -5  -8 26268.4 638.697  19 
   6  -5   8 26484.5 719.773   7 
   6  -5  -8 26851.0 691.978  11 
  -6   5  -8 25078.7 674.594  17 
   6   5  -8 23831.4 660.064  26 
  -6   5  -8 25607.8 647.601  25 
   6   5   8 24645.7 717.624  10 
  -6  -5  -8 23139.7 568.208  15 
  -6   5  -8 25894.6 650.361  24 
   6  -5  -8 24522.0 658.077  22 
  -6  -5  -8 22421.6 599.056   9 
  -6   5   8 26232.2 717.726  13 
   6  -5   9 19594.3 586.128  12 
   6   5  -9 19027.9 642.381  20 
  -6   5  -9 19656.4 642.635   8 
   6  -5  -9 19801.6 536.056  19 
   6  -5   9 20273.0 616.525   7 
   6  -5  -9 18217.9 563.491  11 
  -6   5  -9 19611.9 590.204  17 
  -6   5  -9 19026.5 511.754   6 
   6   5  -9 18990.7 570.564  26 
  -6   5  -9 19175.4 549.330  25 
   6   5   9 19220.8 617.048  10 
  -6  -5  -9 18502.5 508.579  15 
  -6   5  -9 20691.2 570.257  24 
   6  -5  -9 18665.2 568.602  22 
  -6  -5  -9 19832.8 550.678   9 
  -6   5   9 18417.8 585.498  13 
   6  -5  10 24911.0 648.265  12 
   6   5 -10 24269.2 699.639  20 
   6  -5 -10 23638.0 556.518  19 
   6  -5  10 26861.6 705.452   7 
   6  -5 -10 24517.7 639.819  11 
  -6   5 -10 25455.1 658.287  17 
  -6   5 -10 25013.5 561.003   6 
   6   5 -10 24730.0 637.246  26 
  -6   5 -10 26299.9 621.961  25 
   6   5  10 24736.4 684.430  10 
  -6  -5 -10 26496.5 601.393  15 
  -6   5 -10 23907.7 596.330  24 
   6  -5 -10 24694.4 639.809  22 
  -6   5  10 23927.7 652.899  13 
  -6  -5 -10 25238.4 612.116   9 
   6  -5  11 3678.94 236.809  12 
   6   5 -11 3703.43 255.861  20 
   6  -5 -11 4299.70 252.504  11 
   6  -5  11 3638.31 235.970   7 
  -6   5 -11 4012.27 248.282  17 
   6   5 -11 3922.59 237.843  26 
  -6   5 -11 3697.75 200.248   6 
   6   5  11 3752.71 248.498  10 
  -6   5 -11 3731.80 218.711  25 
  -6  -5 -11 3858.18 217.987  15 
  -6   5 -11 4122.41 228.469  24 
   6  -5 -11 3756.31 231.690  22 
  -6   5  11 3916.20 248.715  13 
  -6  -5 -11 3585.34 219.043   9 
   6  -5  12 6215.70 287.571  12 
   6  -5 -12 6076.23 285.642  11 
  -6   5 -12 6461.62 294.877  17 
   6  -5  12 6207.42 274.337   7 
  -6   5 -12 6482.63 272.989  16 
   6   5 -12 6304.25 288.151  26 
   6   5  12 6313.52 308.418  10 
  -6   5 -12 6697.83 272.008  25 
  -6  -5 -12 6813.89 275.716  15 
  -6   5 -12 6253.64 263.513  24 
   6  -5 -12 5354.53 252.781  23 
   6  -5 -12 6626.21 298.429  22 
  -6   5  12 6371.60 295.511  13 
  -6  -5 -12 6272.78 273.505   9 
   6  -5  13 3341.44 194.900  12 
   6  -5 -13 3243.73 192.210  11 
  -6   5 -13 3293.55 197.835  17 
  -6   5 -13 3177.62 176.360  16 
   6   5 -13 3341.75 192.556  26 
   6   5  13 3145.78 199.037  10 
  -6   5 -13 3442.28 179.689  25 
  -6  -5 -13 3349.89 179.764  15 
  -6   5 -13 3642.47 184.252  24 
   6  -5 -13 3559.15 200.710  22 
  -6   5  13 3525.87 203.954  13 
   6  -5  14 263.518 52.3767  12 
   6  -5 -14 244.643 56.9262  11 
  -6   5 -14 220.711 49.0302  17 
   6   5  14 230.517 54.1258  10 
   6  -5 -14 216.786 54.9968  22 
  -6   5  14 182.883 44.3946  13 
  -7   5   0 50.5907 52.1403   8 
   7  -5   0 1.31804 47.2116  19 
   7   5   0 16.1080 57.2570  18 
   7  -5   0 30.0798 47.7840   7 
   7  -5   0-32.6150 46.4634  11 
   7   5   0-29.8761 44.2952  10 
   7  -5   0-9.65909 42.3895  23 
   7  -5   0-24.9355 43.0600  22 
  -7   5   0 7.57116 44.6375  13 
   7   5  -1 1084.70 174.669  20 
  -7   5  -1 1016.03 139.844   8 
   7  -5  -1 922.477 131.473  19 
   7  -5   1 1188.62 147.276  19 
   7   5   1 806.507 163.051  18 
   7   5  -1 1027.59 188.558  18 
  -7   5  -1 1061.89 139.700  17 
   7  -5  -1 986.368 134.043   7 
   7  -5   1 1068.44 145.672   7 
   7  -5  -1 1041.92 142.036  11 
   7  -5   1 756.338 124.922  11 
   7   5   1 1009.99 139.695  10 
   7   5  -1 859.506 136.229  10 
   7  -5  -1 1221.67 149.794  23 
   7  -5   1 1025.96 137.445  23 
   7  -5  -1 981.731 139.469  22 
  -7   5  -1 1162.69 145.744  13 
   7  -5   1 966.245 145.544  22 
  -7   5   1 1047.14 137.721  13 
   7   5  -2 16755.2 640.949  20 
  -7   5  -2 17606.1 585.658   8 
   7  -5  -2 17223.9 547.688  19 
   7  -5   2 15847.2 519.091  19 
   7  -5  -2 16857.1 540.382   7 
   7  -5   2 16677.7 566.062   7 
   7   5   2 16158.0 694.715  18 
   7   5  -2 15279.2 682.168  18 
  -7   5  -2 17668.9 547.814  17 
   7  -5  -2 16393.2 540.443  11 
   7  -5   2 15286.8 528.994  11 
   7   5  -2 15819.3 522.129  26 
   7   5   2 16199.6 564.669  10 
   7   5  -2 15615.1 556.434  10 
   7  -5  -2 19444.2 596.500  23 
   7  -5   2 16623.1 529.931  23 
  -7  -5  -2 15995.6 459.614   9 
   7  -5  -2 17362.6 559.155  22 
   7  -5   2 16919.2 557.835  22 
  -7   5   2 17629.0 576.988  13 
  -7   5  -2 17109.1 543.392  13 
   7  -5   3 5736.00 294.316  12 
   7   5  -3 5394.16 363.148  20 
  -7   5  -3 5874.62 342.317   8 
   7  -5  -3 5634.23 308.793  19 
   7  -5   3 5965.38 310.038  19 
   7  -5  -3 4961.21 284.355   7 
   7  -5   3 5763.99 335.566   7 
   7   5   3 5893.70 419.836  18 
   7   5  -3 5634.79 409.654  18 
  -7   5  -3 5887.05 314.561  17 
   7  -5  -3 5758.33 323.194  11 
   7   5  -3 5435.86 301.088  26 
   7   5   3 5548.74 332.830  10 
   7   5  -3 5237.06 322.540  10 
   7  -5  -3 6055.30 334.250  23 
   7  -5   3 5765.07 303.899  23 
  -7  -5  -3 5837.63 287.070   9 
   7  -5  -3 5889.33 325.697  22 
   7  -5   3 5171.23 305.915  22 
  -7   5   3 5817.15 330.044  13 
  -7   5  -3 6125.46 318.946  13 
   7   5  -4 625.788 129.412  20 
   7  -5  -4 634.643 114.214  19 
  -7   5  -4 649.299 125.199   8 
   7  -5   4 581.034 101.629  19 
   7  -5   4 609.333 104.952  12 
   7   5   4 696.608 150.976  18 
   7   5  -4 552.225 138.619  18 
   7  -5   4 558.148 112.814   7 
  -7   5  -4 682.474 114.583  17 
   7  -5  -4 551.261 107.223  11 
   7   5  -4 617.853 109.531  26 
   7   5   4 599.499 117.419  10 
   7  -5  -4 722.096 122.377  23 
   7  -5   4 561.055 97.4636  23 
   7  -5  -4 582.800 105.342  22 
   7  -5   4 422.140 101.252  22 
  -7  -5  -4 624.463 98.2226   9 
  -7   5   4 591.088 114.147  13 
  -7   5  -4 667.211 105.910  13 
   7  -5   5 14770.1 498.765  12 
   7   5  -5 15505.4 609.979  20 
  -7   5  -5 15368.0 575.152   8 
   7  -5  -5 16225.4 526.262  19 
   7  -5   5 15499.2 488.501  19 
   7  -5   5 14672.0 543.562   7 
   7   5   5 15217.4 639.415  18 
   7   5  -5 15660.1 648.193  18 
  -7   5  -5 16040.0 529.672  17 
   7  -5  -5 16738.8 547.692  11 
   7   5  -5 15397.2 523.296  26 
   7   5   5 16072.4 568.476  10 
   7  -5  -5 16311.0 557.590  23 
  -7  -5  -5 16143.8 491.107   9 
   7  -5  -5 15571.5 527.231  22 
  -7   5   5 15251.7 544.177  13 
  -7   5  -5 15168.9 497.586  13 
   7  -5   6 7772.52 361.529  12 
   7   5  -6 7843.08 427.649  20 
  -7   5  -6 7499.60 401.089   8 
   7  -5  -6 7387.30 348.899  19 
   7  -5   6 8028.31 338.537  19 
   7  -5   6 7950.68 396.954   7 
  -7   5  -6 7585.65 361.518  17 
   7  -5  -6 7669.02 370.905  11 
   7   5  -6 7518.00 359.246  26 
   7   5   6 7049.82 385.234  10 
  -7  -5  -6 7516.65 334.802   9 
   7  -5  -6 7614.42 369.640  22 
  -7   5   6 7434.69 378.664  13 
  -7   5  -6 8056.98 351.062  13 
   7  -5   7 9172.27 393.646  12 
   7   5  -7 9379.85 457.009  20 
  -7   5  -7 8745.79 430.381   8 
   7  -5  -7 9220.93 378.762  19 
   7  -5   7 8853.65 415.780   7 
   7  -5  -7 9894.80 419.877  11 
  -7   5  -7 10457.5 421.389  17 
   7   5  -7 8979.52 387.296  26 
  -7   5  -7 9056.82 379.281  25 
   7   5   7 9182.11 430.925  10 
  -7  -5  -7 9231.32 334.783  15 
  -7   5  -7 9371.02 388.626  24 
  -7  -5  -7 8758.65 363.112   9 
   7  -5  -7 8558.18 387.521  22 
  -7   5   7 9950.39 431.225  13 
  -7   5  -7 9166.04 365.791  13 
   7  -5   8 15128.8 501.480  12 
   7   5  -8 14371.2 553.606  20 
  -7   5  -8 15809.6 568.597   8 
   7  -5  -8 15100.2 475.039  19 
   7  -5   8 14589.5 528.580   7 
   7  -5  -8 13370.7 479.972  11 
  -7   5  -8 14490.7 492.898  17 
   7   5  -8 14103.1 477.572  26 
  -7   5  -8 14507.2 468.518  25 
   7   5   8 13929.5 519.497  10 
  -7  -5  -8 12264.7 395.950  15 
  -7   5  -8 14910.6 474.796  24 
   7  -5  -8 15035.0 511.021  23 
  -7  -5  -8 14884.4 472.565   9 
   7  -5  -8 14164.8 490.654  22 
  -7   5   8 14271.2 515.316  13 
   7  -5   9 25060.4 639.725  12 
   7   5  -9 23402.8 683.561  20 
   7  -5  -9 25471.5 590.201  19 
   7  -5   9 26973.4 715.475   7 
   7  -5  -9 23812.1 635.902  11 
  -7   5  -9 25382.8 644.271  17 
  -7   5  -9 24208.3 574.950   6 
   7   5  -9 23994.2 613.170  26 
  -7   5  -9 24880.2 600.864  25 
   7   5   9 24260.3 673.648  10 
  -7  -5  -9 25049.0 566.820  15 
  -7   5  -9 24329.0 595.537  24 
   7  -5  -9 25003.6 643.895  23 
   7  -5  -9 25112.6 649.819  22 
  -7  -5  -9 23624.8 591.607   9 
  -7   5   9 24327.5 660.671  13 
   7  -5  10 19300.5 543.652  12 
   7   5 -10 18688.3 582.270  20 
   7  -5 -10 18231.0 464.161  19 
   7  -5 -10 18633.0 538.759  11 
   7  -5  10 19733.4 573.312   7 
  -7   5 -10 18747.3 534.307  17 
  -7   5 -10 18727.3 477.289   6 
   7   5 -10 18373.6 514.023  26 
  -7   5 -10 19110.1 502.377  25 
   7   5  10 18395.9 557.604  10 
  -7  -5 -10 19136.7 481.706  15 
  -7   5 -10 19570.5 505.422  24 
   7  -5 -10 18670.3 523.610  23 
   7  -5 -10 19557.0 552.941  22 
  -7  -5 -10 17384.3 489.399   9 
   7  -5  11 7983.77 327.537  12 
   7   5 -11 7588.82 343.054  20 
   7  -5 -11 7474.53 323.795  11 
   7  -5  11 7367.86 318.579   7 
  -7   5 -11 8084.36 330.259  17 
   7   5 -11 7840.57 314.734  26 
  -7   5 -11 7717.49 282.488   6 
  -7   5 -11 8157.42 304.023  25 
   7   5  11 8017.38 348.636  10 
  -7  -5 -11 8246.75 298.336  15 
  -7   5 -11 7908.11 299.482  24 
   7  -5 -11 7956.12 317.266  23 
   7  -5 -11 7443.08 324.473  22 
  -7   5  11 8113.17 340.448  13 
  -7  -5 -11 7834.66 309.660   9 
   7  -5  12-24.8930 34.9724  12 
   7  -5 -12 10.8969 34.6567  11 
  -7   5 -12 3.74116 35.7132  17 
   7  -5  12 26.7754 32.2721   7 
  -7   5 -12-4.87965 30.3508  16 
   7   5 -12 26.3425 29.4479  26 
  -7   5 -12 47.6546 33.3758  25 
  -7  -5 -12 22.2202 25.9211  15 
  -7   5 -12 45.4707 35.5099   6 
  -7   5 -12 64.6413 31.8913  24 
   7   5  12 34.8997 31.7306  10 
   7  -5 -12-33.9168 37.5879  23 
   7  -5 -12 17.3533 41.2642  22 
  -7  -5 -12 18.5072 31.4928   9 
  -7   5  12-4.56042 33.9235  13 
   7  -5  13 7253.01 273.843  12 
   7  -5 -13 7332.42 273.850  11 
  -7   5 -13 7621.41 276.530  17 
  -7   5 -13 6779.67 242.747  16 
  -7   5 -13 6694.62 226.367  25 
   7   5  13 7469.05 281.319  10 
  -7  -5 -13 7195.50 239.774  15 
  -7   5 -13 6683.89 226.686  24 
   7  -5 -13 7205.98 270.760  22 
  -7   5  13 7653.52 282.708  13 
   8  -5   0 164.645 80.8891  19 
   8   5   0 148.385 90.0775  18 
  -8   5   0 130.476 57.1164  17 
   8  -5   0 151.076 62.9917   7 
   8  -5   0 132.342 63.9055  11 
   8   5   0 216.808 73.0278  10 
   8  -5   0 167.337 62.8241  23 
   8  -5   0 149.204 70.2719  22 
  -8   5   0 170.846 61.8219  13 
   8   5  -1 3855.24 307.544  20 
  -8   5  -1 3913.59 260.380   8 
   8  -5  -1 3442.92 251.802  19 
   8  -5   1 3899.68 260.781  19 
   8  -5  -1 3423.36 242.818   7 
   8  -5   1 3938.77 268.779   7 
   8   5   1 3353.64 322.513  18 
   8   5  -1 3331.30 320.514  18 
  -8   5   1 3853.19 246.251  17 
  -8   5  -1 3502.72 240.994  17 
   8  -5  -1 3775.98 267.683  11 
   8  -5   1 3644.98 261.160  11 
   8   5  -1 3627.65 241.912  26 
   8   5   1 3495.05 260.469  10 
   8   5  -1 3548.02 262.066  10 
   8  -5  -1 3704.78 260.940  23 
   8  -5   1 3690.18 255.471  23 
   8  -5  -1 4078.18 279.467  22 
   8  -5   1 3637.80 265.007  22 
  -8   5   1 4169.43 270.251  13 
  -8   5  -1 3955.71 258.578  13 
   8   5  -2 3498.92 291.594  20 
  -8   5  -2 4120.34 273.572   8 
   8  -5  -2 3446.26 242.781  19 
   8  -5   2 3839.70 255.590  19 
   8  -5  -2 3738.76 244.448   7 
   8  -5   2 3585.12 260.175   7 
   8   5   2 3824.97 330.555  18 
   8   5  -2 3256.84 318.203  18 
  -8   5  -2 4227.30 259.630  17 
   8  -5  -2 3686.38 264.250  11 
   8  -5   2 3459.23 257.422  11 
   8   5  -2 3554.98 239.644  26 
   8   5   2 3680.03 262.002  10 
   8   5  -2 3349.94 249.656  10 
   8  -5  -2 3926.35 272.318  23 
   8  -5   2 3818.59 257.462  23 
  -8  -5  -2 3601.41 217.486   9 
   8  -5  -2 3840.89 266.962  22 
   8  -5   2 3286.12 254.151  22 
  -8   5   2 4456.98 281.622  13 
  -8   5  -2 3950.91 251.778  13 
   8   5  -3 25540.2 791.681  20 
  -8   5  -3 25857.9 703.176   8 
   8  -5  -3 23412.1 645.303  19 
   8  -5   3 23518.3 624.975  19 
   8  -5   3 26240.9 715.433   7 
   8   5   3 23451.0 832.622  18 
   8   5  -3 23518.9 838.093  18 
  -8   5  -3 25407.3 648.568  17 
   8  -5  -3 27718.2 721.447  11 
   8   5  -3 24738.2 631.529  26 
   8   5   3 25211.9 689.995  10 
   8   5  -3 25071.3 674.462  10 
   8  -5  -3 27682.4 721.135  23 
   8  -5   3 27885.6 684.081  23 
  -8  -5  -3 24757.8 590.347   9 
   8  -5  -3 25571.3 691.816  22 
   8  -5   3 25474.0 686.453  22 
  -8   5   3 25637.1 689.834  13 
  -8   5  -3 25095.1 638.406  13 
   8   5  -4 6376.51 388.909  20 
   8  -5   4 6023.90 305.697  12 
  -8   5  -4 6335.50 349.726   8 
   8  -5  -4 5954.19 321.329  19 
   8  -5   4 6070.18 306.162  19 
   8  -5   4 6113.95 345.359   7 
   8   5   4 5912.43 404.430  18 
   8   5  -4 5569.50 397.459  18 
  -8   5  -4 6092.65 313.700  17 
   8  -5  -4 6133.75 333.787  11 
   8   5  -4 6095.64 314.541  26 
   8   5   4 6050.37 333.524  10 
   8  -5  -4 6530.19 349.954  23 
   8  -5   4 6279.23 314.223  23 
  -8  -5  -4 5343.77 273.906   9 
   8  -5  -4 6138.14 331.995  22 
  -8   5   4 6540.05 347.662  13 
   8  -5   4 6008.36 333.770  22 
  -8   5  -4 6149.93 305.849  13 
   8  -5   5 5163.58 279.798  12 
   8   5  -5 4988.42 340.444  20 
  -8   5  -5 4910.47 309.117   8 
   8  -5  -5 5027.06 289.594  19 
   8  -5   5 4578.02 260.117  19 
   8   5   5 4754.35 351.964  18 
   8   5  -5 4954.65 358.748  18 
   8  -5   5 4610.25 299.202   7 
  -8   5  -5 5374.64 292.701  17 
   8  -5  -5 4850.87 296.561  11 
   8   5  -5 4774.58 279.254  26 
   8   5   5 4877.27 302.984  10 
   8  -5  -5 5361.35 314.210  23 
  -8  -5  -5 4763.54 262.649   9 
   8  -5  -5 4620.40 289.194  22 
  -8   5   5 5095.58 303.429  13 
  -8   5  -5 5104.39 273.859  13 
   8   5  -6 987.694 153.848  20 
   8  -5  -6 829.694 121.873  19 
   8  -5   6 939.535 116.841  19 
  -8   5  -6 970.741 140.883   8 
   8  -5   6 1023.96 126.137  12 
  -8   5  -6 1048.29 130.968  17 
   8  -5   6 1034.45 149.051   7 
   8  -5  -6 1015.06 139.900  11 
   8   5  -6 929.608 126.991  26 
  -8   5  -6 1097.96 127.720  25 
  -8   5  -6 1116.98 134.336  24 
   8   5   6 962.685 136.312  10 
   8  -5  -6 1007.27 140.122  23 
  -8  -5  -6 1013.87 123.336   9 
   8  -5  -6 1157.84 143.171  22 
  -8   5  -6 1011.57 119.110  13 
  -8   5   6 1192.51 145.719  13 
   8   5  -7 672.549 126.058  20 
   8  -5  -7 813.865 117.919  19 
   8  -5   7 694.831 109.311  12 
  -8   5  -7 824.682 116.707  17 
   8  -5  -7 877.429 129.205  11 
   8  -5   7 827.419 124.349   7 
   8   5  -7 671.176 105.647  26 
  -8   5  -7 807.625 110.719  25 
  -8   5  -7 782.981 106.409  24 
   8   5   7 722.693 122.685  10 
   8  -5  -7 723.896 119.301  23 
   8  -5  -7 868.945 127.224  22 
  -8  -5  -7 875.901 115.558   9 
  -8   5   7 867.156 126.112  13 
   8   5  -8 672.517 115.931  20 
   8  -5  -8 667.613 100.017  19 
   8  -5   8 643.241 98.6807  12 
  -8   5  -8 696.097 105.082  17 
   8  -5  -8 670.078 108.248  11 
   8  -5   8 625.537 108.736   7 
   8   5  -8 708.766 103.120  26 
  -8   5  -8 725.736 102.686  25 
  -8   5  -8 705.838 99.5322  24 
   8   5   8 619.910 113.044  10 
   8  -5  -8 608.888 105.032  23 
   8  -5  -8 696.728 103.721  22 
  -8  -5  -8 615.357 97.7882   9 
  -8   5   8 773.158 115.205  13 
   8  -5   9 17081.7 504.243  12 
   8   5  -9 16452.4 538.814  20 
   8  -5  -9 15255.7 429.847  19 
   8  -5   9 16641.0 527.787   7 
   8  -5  -9 17470.8 517.435  11 
  -8   5  -9 17100.5 493.604  17 
  -8   5  -9 16642.4 463.428   6 
   8   5  -9 15669.9 453.838  26 
  -8   5  -9 17761.6 473.265  25 
   8   5   9 16606.2 514.968  10 
  -8  -5  -9 16109.1 422.306  15 
  -8   5  -9 16140.2 453.103  24 
   8  -5  -9 17657.6 510.686  23 
  -8  -5  -9 15993.0 461.990   9 
   8  -5  -9 18040.7 524.271  22 
  -8   5   9 16436.1 509.849  13 
   8   5 -10 64.2267 49.0647  20 
   8  -5  10 182.087 53.6711  12 
  -8   5 -10 129.458 45.6798  17 
   8  -5 -10 101.130 58.7804  11 
   8  -5  10 95.6137 48.7121   7 
   8   5 -10 162.530 53.0126  26 
  -8   5 -10 114.592 43.8431  25 
  -8  -5 -10 181.285 55.1668  15 
  -8   5 -10 48.3215 31.7648   6 
  -8   5 -10 113.920 41.9695  24 
   8   5  10 102.702 45.0933  10 
   8  -5 -10 164.254 56.3334  23 
   8  -5 -10 115.491 55.8341  22 
  -8  -5 -10 143.539 44.7579   9 
  -8   5  10 106.463 37.3010  13 
   8  -5  11 10455.2 358.669  12 
   8  -5 -11 9688.72 350.775  11 
  -8   5 -11 10065.9 339.798  17 
   8  -5  11 10384.1 354.981   7 
  -8   5 -11 9610.95 301.423   6 
  -8   5 -11 9780.35 302.607  25 
   8   5  11 9085.49 336.749  10 
  -8  -5 -11 9570.32 294.163  15 
  -8   5 -11 10189.7 309.648  24 
   8  -5 -11 8360.64 304.213  23 
   8  -5 -11 10067.6 355.075  22 
  -8   5  11 10560.1 366.055  13 
  -8  -5 -11 9919.32 325.868   9 
   8  -5  12 4478.20 217.077  12 
   8  -5 -12 4552.46 223.018  11 
  -8   5 -12 4478.86 209.233  17 
  -8   5 -12 3995.95 193.398  16 
  -8   5 -12 3903.32 170.326  25 
   8   5  12 3838.27 197.819  10 
  -8   5 -12 3893.89 170.938  24 
   8  -5 -12 4459.82 220.747  22 
  -8   5  12 4516.12 217.188  13 
  -8  -5 -12 4706.89 205.436   9 
   9   5   0-47.7847 74.9537  20 
   9  -5   0 18.2957 47.9345  19 
   9   5   0-61.8922 65.0045  18 
   9  -5   0 2.90212 36.6849   7 
   9  -5   0-24.7753 52.8151  11 
   9   5   0 47.2957 43.2056  26 
   9   5   0-13.1395 39.0068  10 
  -9   5   0 12.4989 28.9932  14 
   9  -5   0-20.9267 51.9010  23 
   9  -5   0-74.1952 66.1752  22 
  -9   5   0 62.2605 46.9195  13 
   9   5  -1 320.287 102.000  20 
   9  -5  -1 74.7972 64.3092  19 
   9  -5   1 250.264 74.8089  19 
   9   5   1 165.094 76.0143  18 
   9   5  -1 178.164 96.2918  18 
   9  -5   1 110.420 63.8034   7 
   9  -5  -1 78.9578 38.4134   7 
   9  -5  -1 194.228 82.1318  11 
   9  -5   1 173.107 72.2244  11 
   9   5   1 63.1438 41.9048  26 
   9   5  -1 118.340 51.6056  26 
   9   5   1 75.2171 55.2553  10 
   9   5  -1 149.276 68.7749  10 
  -9   5   1 127.450 51.6121  14 
  -9   5  -1 157.632 55.7834  14 
   9  -5  -1 135.107 61.5603  23 
   9  -5   1 108.875 58.3884  23 
   9  -5  -1 81.4407 58.4720  22 
   9  -5   1 184.609 77.5136  22 
  -9   5   1 115.501 51.1138  13 
  -9   5  -1 166.050 64.2036  13 
   9   5  -2 1904.42 212.047  20 
   9  -5  -2 2043.68 191.110  19 
   9  -5   2 1823.24 173.399  19 
   9   5   2 1934.24 235.113  18 
   9   5  -2 1839.24 226.953  18 
   9  -5   2 1936.69 189.027   7 
  -9   5  -2 1658.64 153.273  17 
   9  -5  -2 1717.97 184.582  11 
   9   5  -2 1679.67 158.086  26 
   9   5   2 1623.07 167.459  10 
   9   5  -2 1688.15 171.657  10 
  -9   5   2 1211.90 122.145  14 
  -9   5  -2 1624.92 144.217  14 
   9  -5  -2 1973.75 189.727  23 
   9  -5   2 1688.42 173.710  23 
  -9  -5  -2 1551.63 141.000   9 
   9  -5  -2 1823.96 191.552  22 
   9  -5   2 1758.91 179.444  22 
  -9   5   2 1925.06 177.280  13 
  -9   5  -2 1759.28 163.209  13 
   9   5  -3 13132.9 547.573  20 
   9  -5  -3 14404.7 493.918  19 
   9  -5   3 13981.5 471.785  19 
   9   5   3 13858.6 611.559  18 
   9   5  -3 11875.3 582.291  18 
   9  -5   3 13342.5 500.424   7 
  -9   5  -3 12787.5 426.431  17 
   9  -5  -3 13452.9 505.003  11 
   9   5  -3 12334.5 423.520  26 
   9   5   3 12993.9 470.787  10 
  -9   5  -3 11951.1 390.932  14 
   9  -5  -3 13203.4 491.168  23 
   9  -5   3 13988.1 480.130  23 
  -9  -5  -3 13946.2 429.498   9 
   9  -5  -3 13962.4 514.013  22 
   9  -5   3 13358.2 495.486  22 
  -9   5   3 14254.0 490.555  13 
  -9   5  -3 14631.1 463.537  13 
   9   5  -4 529.956 119.944  20 
   9  -5  -4 556.194 99.1211  19 
   9  -5   4 558.917 97.4085  19 
   9   5   4 505.922 112.273  18 
   9   5  -4 514.721 125.243  18 
  -9   5  -4 525.818 90.2757  17 
   9  -5   4 571.049 113.719   7 
   9  -5  -4 681.947 118.700  11 
   9   5   4 540.263 102.251  10 
  -9   5  -4 403.769 72.5522  14 
   9  -5  -4 550.078 109.051  23 
   9  -5   4 538.250 95.6232  23 
   9  -5  -4 523.316 99.1040  22 
   9  -5   4 515.356 106.172  22 
  -9  -5  -4 492.733 85.4113   9 
  -9   5   4 703.547 107.778  13 
  -9   5  -4 479.367 82.1423  13 
   9   5  -5 6185.80 364.185  20 
   9  -5   5 7145.25 314.360  12 
   9  -5  -5 6754.44 325.650  19 
   9  -5   5 6329.98 300.188  19 
   9   5   5 5931.79 382.438  18 
   9   5  -5 5970.33 387.359  18 
   9  -5   5 6904.09 362.132   7 
  -9   5  -5 6437.05 304.014  17 
   9  -5  -5 6815.49 348.089  11 
   9   5   5 6031.55 319.101  10 
  -9   5  -5 5670.81 256.168  14 
   9  -5  -5 6248.83 334.706  23 
   9  -5   5 6220.44 299.287  23 
  -9  -5  -5 5941.21 283.245   9 
   9  -5  -5 6781.26 343.295  22 
  -9   5   5 6411.18 322.784  13 
  -9   5  -5 7104.07 300.989  13 
   9   5  -6 9529.19 441.093  20 
   9  -5   6 10426.4 384.387  12 
   9  -5  -6 10305.8 389.389  19 
   9  -5   6 10735.5 451.159   7 
  -9   5  -6 9883.99 371.333  17 
   9  -5  -6 9313.47 405.312  11 
  -9   5  -6 10437.1 378.322  25 
   9   5   6 9315.10 388.295  10 
  -9   5  -6 10689.5 384.972  24 
  -9   5  -6 8644.01 311.769  14 
   9  -5  -6 9091.41 394.498  23 
  -9  -5  -6 8636.29 342.231   9 
   9  -5  -6 9859.99 413.597  22 
  -9   5   6 10485.6 410.527  13 
   9   5  -7 372.866 96.3838  20 
   9  -5  -7 312.946 74.2180  19 
   9  -5   7 425.849 78.9884  12 
  -9   5  -7 422.114 79.5533  17 
   9  -5  -7 401.034 85.2084  11 
   9  -5   7 321.436 80.6784   7 
  -9   5  -7 458.955 79.8327  25 
  -9   5  -7 382.464 75.1458  24 
   9   5   7 275.750 70.9522  10 
   9  -5  -7 313.098 81.5622  23 
   9  -5  -7 444.118 91.3301  22 
  -9  -5  -7 355.896 72.1822   9 
  -9   5   7 350.739 75.3905  13 
   9   5  -8 6033.24 318.629  20 
   9  -5   8 6321.16 293.395  12 
   9  -5  -8 5934.22 267.562  19 
   9  -5   8 6934.08 332.543   7 
   9  -5  -8 6149.78 302.778  11 
  -9   5  -8 6718.94 290.016  17 
  -9   5  -8 5849.84 276.251   6 
  -9   5  -8 6415.59 273.722  25 
   9   5   8 5848.52 294.522  10 
  -9   5  -8 6440.54 274.850  24 
   9  -5  -8 6411.49 303.900  23 
  -9  -5  -8 5736.14 270.094   9 
   9  -5  -8 6305.02 307.634  22 
  -9   5   8 6711.15 311.314  13 
   9   5  -9 82.5316 50.0523  20 
   9  -5  -9 63.5109 36.8311  19 
   9  -5   9 95.6579 46.6559  12 
  -9   5  -9 48.8747 33.5959  17 
   9  -5  -9 104.813 57.4904  11 
   9  -5   9 102.953 46.4077   7 
  -9   5  -9 76.9909 38.2773  25 
  -9   5  -9 89.7102 40.7697   6 
  -9   5  -9 110.751 47.2061  24 
   9   5   9 84.9367 44.0280  10 
   9  -5  -9 128.514 49.8975  23 
   9  -5  -9 216.442 64.5037  22 
  -9  -5  -9 150.467 49.0444   9 
  -9   5   9 78.8654 35.3727  13 
   9  -5  10 4558.97 231.482  12 
   9  -5 -10 4305.43 233.801  11 
  -9   5 -10 4339.10 209.499  17 
   9  -5  10 4588.30 235.663   7 
  -9   5 -10 4491.50 210.040   6 
  -9   5 -10 4067.38 188.502  25 
   9   5  10 4006.42 213.872  10 
  -9   5 -10 4289.33 192.981  24 
   9  -5 -10 3950.24 210.566  23 
   9  -5 -10 4285.54 233.664  22 
  -9  -5 -10 4016.42 202.166   9 
  -9   5  10 4318.23 226.915  13 
   9  -5  11 4008.85 204.420  12 
   9  -5 -11 3689.31 202.534  11 
  -9   5 -11 3634.47 172.748   6 
   9  -5 -11 3749.46 205.201  22 
  -9   5  11 4304.68 209.310  13 
  -9  -5 -11 3836.97 183.657   9 
  10   5   0 1622.44 195.761  20 
  10  -5   0 2021.54 180.806  19 
  10   5   0 1487.63 200.627  18 
  10  -5   0 1773.54 172.148   7 
  10  -5   0 1438.44 168.474  11 
  10   5   0 1244.77 137.036  10 
 -10   5   0 1417.28 131.488  14 
  10  -5   0 1715.17 174.297  23 
  10  -5   0 1605.45 174.286  22 
 -10   5   0 1601.21 149.975  13 
  10   5  -1 3501.95 279.568  20 
  10  -5  -1 3741.31 246.066  19 
  10  -5   1 4061.02 254.164  19 
  10   5   1 3503.13 313.213  18 
  10   5  -1 3673.01 317.621  18 
  10  -5   1 4085.50 263.634   7 
  10  -5  -1 4138.84 277.772  11 
  10   5   1 3342.92 221.178  10 
 -10   5   1 2949.79 194.504  14 
 -10   5  -1 3243.59 200.840  14 
  10  -5  -1 3819.82 252.653  23 
  10  -5   1 3724.13 254.132  23 
  10  -5  -1 3665.68 261.038  22 
  10  -5   1 3479.28 254.838  22 
 -10   5   1 4018.25 237.959  13 
 -10   5  -1 3525.50 215.374  13 
  10   5  -2 13133.9 531.998  20 
  10  -5  -2 12874.7 449.249  19 
  10  -5   2 13280.1 452.611  19 
  10   5   2 13726.1 603.914  18 
  10   5  -2 12937.2 592.335  18 
  10  -5   2 14876.6 510.347   7 
  10  -5  -2 12839.9 485.492  11 
  10   5   2 12057.9 417.456  10 
 -10   5   2 9725.01 348.843  14 
 -10   5  -2 11594.9 374.088  14 
  10  -5  -2 14218.4 495.351  23 
  10  -5   2 13847.2 478.500  23 
 -10  -5  -2 13146.1 396.884   9 
  10  -5  -2 12536.1 478.895  22 
  10  -5   2 12946.5 486.451  22 
 -10   5   2 13659.0 445.674  13 
 -10   5  -2 13294.0 413.456  13 
  10   5  -3 1430.03 176.185  20 
  10  -5  -3 1381.71 146.196  19 
  10  -5   3 1216.93 132.540  19 
  10   5   3 1389.84 186.607  18 
  10   5  -3 1565.58 203.506  18 
  10  -5   3 1393.12 158.309   7 
  10  -5  -3 1363.03 161.423  11 
  10   5   3 1231.65 135.484  10 
 -10   5  -3 1233.71 119.649  14 
  10  -5  -3 1397.96 156.360  23 
  10  -5   3 1241.74 144.272  23 
 -10   5   3 874.374 106.359  14 
 -10  -5  -3 1361.87 132.134   9 
 -10   5   3 1506.00 149.121  13 
  10  -5  -3 1313.22 161.780  22 
  10  -5   3 1385.37 158.455  22 
 -10   5  -3 1480.18 133.928  13 
  10   5  -4 2255.88 217.743  20 
  10  -5  -4 1937.80 171.519  19 
  10  -5   4 1970.22 169.325  19 
  10   5   4 1929.77 213.295  18 
  10   5  -4 2058.59 226.026  18 
  10  -5   4 2285.61 199.668   7 
  10  -5  -4 2009.33 189.974  11 
  10   5   4 1950.92 169.117  10 
 -10   5  -4 1870.32 147.687  14 
  10  -5  -4 1996.58 184.741  23 
  10  -5   4 2186.03 180.311  23 
 -10  -5  -4 2059.11 159.943   9 
  10  -5  -4 2261.28 200.769  22 
 -10   5   4 2412.01 186.561  13 
 -10   5  -4 2046.16 151.732  13 
  10   5  -5 4936.20 304.738  20 
  10  -5  -5 4503.98 252.602  19 
  10   5   5 4648.34 318.743  18 
  10   5  -5 4803.25 333.227  18 
  10  -5   5 5717.08 308.273   7 
  10  -5  -5 4571.79 279.025  11 
 -10   5  -5 5039.02 250.568  25 
  10   5   5 4342.66 247.147  10 
 -10   5  -5 4815.32 246.537  24 
 -10   5  -5 4456.60 220.139  14 
  10  -5  -5 4734.84 275.905  23 
  10  -5   5 4203.83 241.802  23 
 -10  -5  -5 5067.29 247.469   9 
  10  -5  -5 4744.08 280.466  22 
 -10   5   5 5440.23 278.119  13 
  10   5  -6 487.725 98.0986  20 
  10  -5  -6 357.682 76.1434  19 
  10  -5   6 449.836 78.8454  12 
  10  -5  -6 470.698 93.1054  11 
  10  -5   6 598.374 97.2220   7 
 -10   5  -6 489.565 80.5572  25 
 -10   5  -6 381.651 70.2738  24 
  10   5   6 380.489 82.9702  10 
  10  -5  -6 396.125 87.7957  23 
 -10   5  -6 385.633 66.3213  14 
  10  -5  -6 478.939 94.0813  22 
 -10  -5  -6 464.391 76.6213   9 
 -10   5   6 477.332 83.1462  13 
  10   5  -7 476.357 93.4681  20 
  10  -5  -7 344.701 68.1561  19 
  10  -5   7 484.744 79.5407  12 
  10  -5  -7 414.419 86.0520  11 
  10  -5   7 411.347 85.4984   7 
 -10   5  -7 461.224 75.2772  25 
 -10   5  -7 399.624 69.2703  24 
  10   5   7 329.716 75.8837  10 
  10  -5  -7 475.920 88.5630  23 
  10  -5  -7 442.849 94.4551  22 
 -10  -5  -7 527.413 78.6221   9 
 -10   5   7 503.264 82.9064  13 
  10   5  -8 367.444 82.0239  20 
  10  -5  -8 289.336 60.2711  19 
  10  -5   8 408.113 70.9701  12 
  10  -5  -8 306.667 72.0216  11 
  10  -5   8 466.147 80.9896   7 
 -10   5  -8 387.088 63.5031  25 
 -10   5  -8 363.199 69.2734   6 
 -10   5  -8 413.754 66.5983  24 
  10   5   8 262.499 63.5071  10 
  10  -5  -8 239.188 67.7226  23 
  10  -5  -8 256.338 70.6486  22 
 -10  -5  -8 427.021 71.5632   9 
 -10   5   8 393.588 74.2058  13 
  10  -5   9 604.327 84.4188  12 
  10  -5  -9 447.187 79.8888  11 
  10  -5   9 340.406 70.1064   7 
 -10   5  -9 367.218 54.6713  25 
 -10   5  -9 485.102 73.2650   6 
 -10   5  -9 316.000 50.7936  24 
  10  -5  -9 404.070 69.7522  23 
  10  -5  -9 377.094 75.5461  22 
 -10  -5  -9 448.242 67.6221   9 
 -10   5   9 451.489 71.3072  13 
  10  -5 -10 107.618 43.6001  11 
 -10   5 -10 74.4566 34.5583   6 
  10  -5 -10-10.3637 34.8208  22 
 -10  -5 -10 104.884 33.7841   9 
 -10   5  10 53.1531 31.4858  13 
  11   5   0 11.8808 43.7004  20 
  11  -5   0 17.4163 42.7334  19 
  11   5   0 7.30053 49.1303  18 
 -11   5   0 27.6099 29.9890  14 
  11  -5   0-7.33987 39.1602  23 
  11  -5   0 42.5058 52.5859  22 
 -11   5   0 42.9698 34.4111  13 
  11   5   1 1093.11 149.965  20 
  11   5  -1 1111.43 150.711  20 
  11  -5  -1 1041.29 124.114  19 
  11  -5   1 1022.41 122.540  19 
  11   5   1 970.031 154.970  18 
  11   5  -1 1093.42 165.474  18 
  11  -5   1 1062.99 126.467   7 
  11  -5  -1 1211.90 149.657  11 
 -11   5   1 793.222 95.9218  14 
 -11   5  -1 767.096 97.8726  14 
  11  -5  -1 1029.26 124.787  23 
  11  -5   1 1026.33 126.607  23 
  11  -5  -1 955.417 136.401  22 
  11  -5   1 1025.34 133.785  22 
 -11   5  -1 991.040 105.562  13 
 -11   5   1 875.032 99.5960  13 
  11   5  -2 11668.5 467.881  20 
  11  -5  -2 12325.3 411.929  19 
  11  -5   2 11749.3 400.994  19 
  11   5   2 10729.7 503.249  18 
  11   5  -2 11227.5 515.123  18 
  11  -5   2 12648.4 417.893   7 
  11  -5  -2 12232.2 451.731  11 
 -11   5   2 8841.72 311.991  14 
 -11   5  -2 9772.81 329.019  14 
  11  -5  -2 11363.1 421.546  23 
  11  -5   2 11242.5 409.984  23 
 -11  -5  -2 11026.9 341.736   9 
  11  -5  -2 11678.6 440.877  22 
  11  -5   2 11061.0 422.741  22 
 -11   5   2 11902.1 371.319  13 
  11   5  -3 3645.28 258.343  20 
  11  -5  -3 3778.02 226.934  19 
  11   5   3 3917.12 293.183  18 
  11   5  -3 3548.88 283.400  18 
  11  -5   3 3792.79 232.935   7 
  11  -5  -3 3597.30 243.081  11 
 -11   5  -3 2997.32 178.275  14 
  11  -5  -3 3600.02 230.144  23 
  11  -5   3 3610.21 225.626  23 
 -11  -5  -3 3390.75 190.421   9 
  11  -5  -3 3679.35 243.556  22 
 -11   5   3 3804.55 211.444  13 
  11   5  -4 141.770 54.4468  20 
  11  -5  -4 86.3380 46.3621  19 
  11   5   4 177.077 71.9572  18 
  11   5  -4 127.590 71.5501  18 
  11  -5   4 149.345 53.7927   7 
  11  -5  -4 150.067 66.5381  11 
 -11   5  -4 114.847 42.2344  25 
 -11   5  -4 147.955 51.5968  24 
 -11   5   4 40.5798 32.3289  14 
 -11   5  -4 75.2074 33.1547  14 
  11  -5  -4 136.077 67.4536  23 
  11  -5   4 61.8775 43.0485  23 
  11  -5  -4 186.948 71.1097  22 
 -11  -5  -4 99.9536 37.2096   9 
 -11   5   4 128.546 45.7627  13 
  11   5  -5 915.886 122.184  20 
  11  -5  -5 815.877 103.702  19 
  11   5   5 1086.43 141.573  18 
  11   5  -5 1064.56 145.444  18 
  11  -5   5 1011.63 121.362   7 
  11  -5  -5 870.229 125.183  11 
 -11   5  -5 870.267 94.1502  25 
 -11   5  -5 837.990 93.1143  24 
  11  -5  -5 843.162 112.402  23 
 -11   5  -5 738.722 85.1088  14 
  11  -5   5 707.497 97.8861  23 
 -11  -5  -5 1014.64 103.517   9 
 -11   5   5 950.087 102.915  13 
  11  -5  -5 815.142 118.468  22 
  11   5  -6 83.6228 53.0292  20 
  11  -5  -6 83.2597 46.9235  19 
  11  -5  -6 52.1473 48.2296  11 
  11  -5   6-0.20551 31.4706   7 
 -11   5  -6-5.39805 24.8490  25 
 -11   5  -6 23.7161 29.0588  24 
  11  -5  -6 1.01662 34.1236  23 
  11  -5  -6 70.5525 51.9091  22 
 -11  -5  -6 11.8355 30.8697   9 
 -11   5   6 12.4027 35.6071  13 
  11   5  -7 180.399 52.8448  20 
  11  -5  -7 177.549 50.6370  19 
  11  -5  -7 157.796 58.9077  11 
  11  -5   7 140.942 45.8925   7 
 -11   5  -7 202.081 50.1354   6 
  11  -5  -7 136.848 50.1063  23 
  11  -5  -7 249.236 75.6802  22 
 -11  -5  -7 243.080 50.3958   9 
 -11   5   7 184.611 48.2449  13 
  11  -5  -8 3842.64 213.146  11 
 -11   5  -8 4035.82 193.711   6 
  11  -5  -8 3614.48 193.896  23 
 -11  -5  -8 4346.73 193.352   9 
  11  -5  -8 4007.38 218.915  22 
 -11   5   8 3977.85 186.154  13 
  11  -5  -9 364.062 67.3748  11 
  11  -5  -9 393.733 69.3168  22 
  12   5   0 12856.5 453.259  20 
  12   5   0 13632.1 526.221  18 
  12  -5   0 11655.7 397.206  23 
  12  -5   0 12376.3 424.409  22 
  12   5   1 50191.1 914.878  20 
  12   5  -1 49904.1 912.140  20 
  12  -5  -1 45412.0 755.707  19 
  12   5   1 48975.4 1002.87  18 
  12   5  -1 49138.7 1007.32  18 
 -12   5   1 34872.2 597.898  14 
 -12   5  -1 35050.6 596.562  14 
  12  -5  -1 46076.3 807.238  23 
  12  -5   1 48685.1 825.480  23 
  12  -5  -1 48809.2 862.344  22 
  12  -5   1 47554.4 844.555  22 
  12   5   2 353.816 80.8242  20 
  12   5  -2 341.163 78.7539  20 
  12  -5  -2 376.024 73.4286  19 
  12   5   2 328.758 86.1222  18 
  12   5  -2 392.956 94.5420  18 
 -12   5   2 217.784 49.4403  14 
 -12   5  -2 282.080 53.1301  14 
  12  -5  -2 354.292 72.9852  23 
  12  -5   2 391.729 75.9219  23 
  12  -5  -2 338.581 79.6783  22 
  12   5   3-15.1472 49.5281  20 
  12   5  -3-11.1973 39.8672  20 
  12  -5  -3 42.6907 40.3348  19 
  12   5   3 97.7435 56.6329  18 
  12   5  -3-14.3004 41.3377  18 
  12  -5  -3 64.6232 45.3959  11 
 -12   5  -3 27.6594 27.4234  25 
 -12   5  -3 13.8709 23.0362  24 
 -12   5  -3-37.3321 30.1776  14 
  12  -5  -3 13.4420 35.6819  23 
  12  -5   3-4.03500 36.6880  23 
  12  -5  -3 72.1877 48.0358  22 
 -12  -5  -3 90.4108 36.6397   9 
  12   5   4 70.9906 46.9181  20 
  12   5  -4 58.3860 43.3242  20 
  12  -5  -4 63.5214 35.4370  19 
  12   5   4 22.6952 41.1652  18 
  12   5  -4 59.6732 48.9062  18 
  12  -5  -4 80.0794 51.2906  11 
  12  -5  -4-23.4232 30.9471  23 
  12  -5   4 35.3571 41.1859  23 
  12  -5  -4 68.7711 37.8894  22 
 -12  -5  -4 26.8558 24.7008   9 
  12   5  -5 550.497 83.7520  20 
  12  -5  -5 566.284 91.9109  11 
  12  -5  -5 561.477 86.6220  23 
  12  -5  -5 714.235 100.146  22 
 -12  -5  -5 586.832 71.7179   9 
  12  -5  -6-21.2378 39.9058  11 
 -12   5  -6-24.2642 28.6849   6 
  12  -5  -6 34.3649 35.5005  23 
  12  -5  -6 64.4423 39.5039  22 
  12  -5  -7 145.807 44.7037  11 
 -12   5  -7 95.6801 33.8463   6 
  12  -5  -7 78.8696 36.8780  22 
  13   5   0-7.14833 33.2370  20 
  13  -5   0 18.3241 34.5763  18 
  13   5   0-8.22191 42.6540  18 
  13  -5   0-42.5445 40.6716  23 
  13   5   1 893.069 110.399  20 
  13   5  -1 890.014 105.678  20 
  13  -5   1 1070.60 112.228  18 
  13  -5  -1 817.993 96.3123  18 
  13   5   1 901.792 122.079  18 
  13   5  -1 889.384 119.555  18 
  13  -5  -1 896.059 103.870  23 
  13  -5   1 740.238 93.4863  23 
  13  -5  -1 795.604 100.064  22 
  13   5   2 37486.5 686.815  20 
  13  -5   2 35584.7 647.654  18 
  13  -5  -2 31711.6 612.196  18 
  13   5   2 35234.1 730.957  18 
  13   5  -2 36404.4 755.790  18 
  13  -5  -2 33803.7 618.162  23 
  13  -5   2 29431.5 572.789  23 
  13  -5  -2 36101.3 654.615  22 
  13   5   3 18741.8 469.919  20 
  13  -5   3 18568.9 442.417  18 
  13  -5  -3 19077.2 449.434  23 
  13  -5  -3 17598.1 442.710  22 
   0   6   0 11301.1 465.611  20 
   0  -6   0 11701.6 422.408  19 
   0   6   0 11166.3 448.948  10 
   0   6   0 10796.0 410.936  13 
   0   6  -1 132853. 1742.02  20 
   0  -6  -1 126733. 1557.00  19 
   0  -6   1 119410. 1454.05  19 
   0   6   1 134783. 1658.24  10 
   0   6  -1 125163. 1616.98  10 
   0   6   1 132380. 1551.79  13 
   0   6  -1 129938. 1540.98  13 
   0   6  -2 255626. 2630.15  20 
   0  -6  -2 244556. 2378.87  19 
   0  -6   2 266004. 2278.36  19 
   0   6  -2 255426. 2491.67  26 
   0   6   2 265896. 2509.36  10 
   0   6  -2 251462. 2469.51  10 
   0   6   2 265691. 2374.00  13 
   0   6  -2 258305. 2352.14  13 
   0   6  -3 144372. 1898.43  20 
   0  -6  -3 143834. 1723.39  19 
   0   6  -3 141870. 1754.26  26 
   0   6  -3 143146. 1587.50  25 
   0   6  -3 140499. 1576.84  24 
   0   6   3 143190. 1632.98  13 
   0   6  -3 140264. 1629.95  13 
   0   6  -3 137139. 1919.66   8 
   0   6  -4 375.745 97.3960  20 
   0   6  -4 422.080 111.878   8 
   0  -6  -4 466.231 96.2093  19 
   0   6  -4 518.884 102.894  17 
   0   6  -4 477.758 101.176  26 
   0   6  -4 450.437 87.3784  25 
   0   6  -4 416.832 77.7654  24 
   0   6   4 342.626 79.4600  10 
   0   6   4 435.602 84.1580  13 
   0   6  -4 488.172 90.9355  13 
   0   6  -5 4647.36 328.601  20 
   0  -6  -5 4717.62 292.652  19 
   0   6  -5 4976.93 307.507  17 
   0   6  -5 4756.84 303.456  26 
   0   6  -5 4918.06 268.062  25 
   0   6   5 5573.97 317.061  10 
   0  -6  -5 5419.09 264.879  15 
   0   6  -5 4873.92 267.340  24 
   0   6   5 5102.02 275.059  13 
   0   6  -5 4879.82 273.799  13 
   0   6  -5 4683.19 331.301   8 
   0   6  -6 293.325 83.9873  20 
   0   6  -6 269.703 87.4105   8 
   0  -6  -6 261.751 83.0454  19 
   0   6  -6 267.891 78.2977  17 
   0   6  -6 318.797 91.9714  26 
   0   6  -6 290.585 73.3994  25 
   0  -6  -6 314.564 70.0916  15 
   0   6  -6 264.694 70.6073  24 
   0   6   6 269.640 80.0124  10 
   0   6   6 280.758 72.5934  13 
   0   6  -7 3051.94 257.128   8 
   0   6  -7 3229.96 278.056  20 
   0  -6  -7 3505.24 249.256  19 
   0   6  -7 3291.02 240.798  17 
   0   6  -7 3147.47 250.091  26 
   0   6  -7 3068.59 213.768  25 
   0   6   7 3004.46 231.054  10 
   0  -6  -7 2980.94 200.761  15 
   0   6  -7 3281.62 222.434  24 
   0   6   7 3268.43 212.574  13 
   0   6  -8 2312.81 218.387   8 
   0  -6  -8 2069.56 186.004  19 
   0  -6   8 2095.67 182.069   7 
   0   6  -8 2198.73 188.604  17 
   0   6  -8 2164.64 195.079  26 
   0   6  -8 2008.17 170.214  25 
   0   6   8 2297.92 199.393  10 
   0  -6  -8 2398.03 181.741  15 
   0   6  -8 2016.99 168.470  24 
   0  -6  -9 702.400 112.667  19 
   0   6  -9 716.442 121.394   8 
   0  -6   9 727.735 106.612   7 
   0  -6  -9 750.790 98.5280  11 
   0   6  -9 796.187 115.464  17 
   0   6  -9 775.258 115.638  26 
   0   6  -9 820.910 106.171  25 
   0  -6  -9 824.750 108.869  15 
   0   6  -9 793.867 103.072  24 
   0   6   9 750.996 111.232  10 
   0  -6  -9 790.766 99.1464  22 
   0  -6 -10 543.170 91.1862  19 
   0   6 -10 588.863 107.107   8 
   0  -6 -10 692.687 95.5654  11 
   0   6 -10 563.716 92.5711  17 
   0   6 -10 609.880 97.3429  26 
   0   6 -10 568.589 86.6534  25 
   0  -6 -10 538.928 86.7094  15 
   0   6 -10 644.370 92.5040  24 
   0   6  10 547.104 89.5739  10 
   0  -6 -10 681.702 92.4460  22 
   0  -6 -11 1024.15 112.164  19 
   0   6 -11 1053.30 127.675   8 
   0  -6 -11 1082.13 111.737  11 
   0   6 -11 1115.04 122.582  17 
   0   6 -11 1133.16 128.537  26 
   0   6 -11 1081.41 111.815  25 
   0   6  11 1101.50 120.499  10 
   0  -6 -11 1233.58 121.549  15 
   0   6 -11 1132.14 118.119  24 
   0  -6 -11 923.259 101.875  22 
   0  -6 -12 1474.40 122.563  19 
   0  -6 -12 1441.89 118.413  11 
   0   6 -12 1260.29 120.066  17 
   0   6 -12 1368.69 131.576  26 
   0   6 -12 1414.72 120.312  25 
   0   6  12 1233.96 118.627  10 
   0  -6 -12 1366.92 122.541  15 
   0   6 -12 1477.71 123.239  24 
   0  -6 -12 1452.76 120.420  22 
   0  -6  13 8831.75 296.825  12 
   0   6 -13 8625.21 296.619  26 
   0   6 -13 8624.69 272.781  25 
   0   6 -13 8408.84 269.722  24 
   1   6   0-34.0972 46.8319  20 
  -1  -6   0-7.00132 39.0738  19 
   1  -6   0 15.2304 36.7445  19 
   1   6   0 29.7720 35.7108  10 
  -1   6   0-16.9769 32.3703  10 
  -1   6   0 26.5842 33.7288  13 
   1   6   0-14.7646 29.9760  13 
   1   6   1 3948.85 275.109  20 
   1   6  -1 3639.33 276.433  20 
  -1   6  -1 3655.82 261.983  20 
  -1  -6  -1 3686.59 241.746  19 
  -1  -6   1 3506.38 226.234  19 
   1  -6  -1 3554.56 240.815  19 
   1  -6   1 3809.37 234.566  19 
   1   6   1 3871.13 265.957  10 
  -1   6   1 3600.56 248.833  10 
   1   6  -1 3959.50 273.715  10 
  -1   6  -1 3636.62 253.048  10 
  -1   6   1 3875.05 249.114  13 
  -1   6  -1 3683.45 247.316  13 
   1   6   1 3842.80 232.640  13 
   1   6  -1 3573.71 227.167  13 
   1   6  -2 23903.4 724.656  20 
  -1   6  -2 24039.9 699.289  20 
  -1  -6  -2 21457.4 601.950  19 
   1  -6  -2 22578.1 619.692  19 
  -1  -6   2 20868.1 543.205  19 
   1  -6   2 21945.1 560.607  19 
  -1   6  -2 21818.6 625.239  26 
   1   6  -2 20399.3 517.826  25 
   1   6   2 22522.8 657.909  10 
  -1   6   2 21924.3 611.149  10 
   1   6  -2 21187.9 531.042  24 
   1   6  -2 24441.7 683.346  10 
  -1   6  -2 23940.7 644.765  10 
  -1   6   2 23550.6 622.077  13 
   1   6   2 23017.9 570.187  13 
  -1   6  -2 22547.2 612.347  13 
   1   6  -2 22922.4 581.599  13 
  -1   6  -2 22875.1 737.817   8 
   1   6  -3 324.657 93.8633  20 
  -1   6  -3 260.022 83.0100  20 
  -1   6  -3 281.389 96.5899   8 
  -1  -6  -3 281.421 72.8300  19 
   1  -6  -3 321.707 82.7413  19 
   1  -6   3 351.911 77.1514  19 
   1   6  -3 253.136 79.9017  26 
  -1   6  -3 238.713 75.6055  26 
   1   6  -3 285.529 65.0476  25 
   1   6  -3 293.635 68.1312  24 
   1   6   3 240.874 81.4392  10 
  -1   6   3 230.237 68.5061  10 
   1   6  -3 268.230 71.9112  10 
  -1   6   3 348.051 83.4975  13 
   1   6   3 271.933 66.2934  13 
  -1   6  -3 287.800 77.9916  13 
   1   6  -3 302.868 76.1694  13 
   1   6  -4 1926.66 214.392  20 
  -1   6  -4 1751.26 199.454  20 
  -1  -6  -4 1844.84 179.882  19 
   1  -6  -4 2146.83 190.788  19 
  -1   6  -4 1918.82 198.220  17 
   1   6  -4 1784.87 179.171  17 
   1   6  -4 1718.49 183.017  26 
  -1   6  -4 1768.90 181.319  26 
  -1   6  -4 1814.45 171.236  25 
   1   6  -4 1886.71 158.799  25 
   1   6   4 1812.97 188.998  10 
  -1   6   4 1722.05 174.404  10 
  -1   6  -4 1690.56 164.208  24 
   1   6  -4 1685.20 153.018  24 
  -1   6   4 1916.00 180.851  13 
   1   6   4 1753.63 155.062  13 
  -1   6  -4 1866.01 178.104  13 
   1   6  -4 1792.00 162.259  13 
   1   6  -4 1960.49 216.338   8 
  -1   6  -4 1860.60 212.864   8 
   1   6  -5 10591.2 499.148  20 
  -1   6  -5 11172.6 504.404  20 
   1  -6  -5 10652.1 431.726  19 
  -1   6  -5 11478.6 473.325  17 
   1   6  -5 10490.9 436.469  17 
   1   6  -5 10966.9 462.377  26 
  -1   6  -5 10811.0 447.500  26 
  -1   6  -5 10709.5 408.014  25 
   1   6  -5 10946.3 385.079  25 
   1   6   5 11779.6 475.774  10 
  -1   6   5 10198.3 416.225  10 
  -1   6  -5 10662.2 405.401  24 
   1   6  -5 10796.0 383.417  24 
  -1   6   5 10408.3 411.397  13 
  -1   6  -5 10788.3 421.058  13 
   1   6  -5 9502.49 462.020   8 
  -1   6  -5 10594.9 493.186   8 
  -1   6  -6 10486.6 489.737   8 
   1   6  -6 10171.6 492.802  20 
  -1   6  -6 11773.9 515.507  20 
  -1  -6  -6 11116.2 441.365  19 
   1  -6  -6 11985.8 458.301  19 
  -1   6  -6 11343.7 460.511  17 
   1   6  -6 10389.8 422.170  17 
   1   6  -6 10870.4 459.265  26 
  -1   6  -6 10330.5 431.993  26 
  -1   6  -6 11044.9 413.057  25 
   1   6  -6 11432.2 400.161  25 
   1   6   6 10291.5 441.615  10 
  -1   6   6 10006.7 407.377  10 
  -1  -6  -6 10274.3 364.081  15 
   1  -6  -6 10193.6 374.643  15 
  -1   6  -6 10666.9 405.454  24 
   1   6  -6 10578.9 382.533  24 
  -1   6   6 11171.6 417.020  13 
   1   6  -6 10421.0 477.924   8 
   1   6  -7 3376.60 269.010   8 
  -1   6  -7 3335.32 273.224   8 
   1   6  -7 3332.69 273.914  20 
  -1  -6  -7 3309.27 237.161  19 
   1  -6  -7 3423.00 241.594  19 
   1  -6  -7 3365.89 211.906  11 
  -1   6  -7 3236.56 242.698  17 
   1   6  -7 3093.24 227.519  17 
   1   6  -7 3470.05 252.678  26 
  -1   6  -7 3136.56 234.614  26 
  -1   6  -7 3215.13 222.063  25 
   1   6  -7 3170.67 209.429  25 
   1   6   7 3408.65 251.169  10 
  -1   6   7 3578.45 241.186  10 
  -1  -6  -7 3573.68 216.769  15 
   1  -6  -7 3724.83 232.158  15 
  -1   6  -7 3215.56 222.110  24 
   1   6  -7 3123.09 207.599  24 
   1  -6  -7 3474.92 213.862  22 
  -1   6   7 3459.34 226.835  13 
   1   6  -8 8045.83 398.659   8 
  -1   6  -8 8591.45 424.149   8 
   1   6  -8 8832.36 447.973  20 
  -1  -6  -8 8631.55 373.431  19 
   1  -6  -8 7716.59 357.572  19 
  -1  -6   8 8388.40 353.538   7 
   1  -6   8 8115.52 360.682   7 
   1  -6  -8 8062.29 328.783  11 
  -1   6  -8 8264.18 379.683  17 
   1   6  -8 8584.77 365.360  17 
   1   6  -8 8175.69 384.589  26 
  -1   6  -8 8313.74 375.395  26 
  -1   6  -8 8319.66 353.029  25 
   1   6  -8 8430.78 338.382  25 
   1   6   8 9083.52 400.351  10 
  -1   6   8 8664.43 367.221  10 
  -1  -6  -8 7460.71 315.853  15 
   1  -6  -8 7875.68 335.466  15 
  -1   6  -8 8319.79 349.986  24 
   1   6  -8 8398.50 338.585  24 
   1  -6  -8 8509.11 333.277  22 
  -1   6   8 8558.98 348.410  13 
   1   6  -9 9293.56 409.444   8 
  -1   6  -9 9785.50 435.668   8 
  -1  -6  -9 9619.96 386.900  19 
   1  -6  -9 9400.71 376.784  19 
   1  -6   9 9223.48 366.133   7 
   1  -6  -9 10179.1 362.921  11 
  -1   6  -9 9110.93 390.610  17 
   1   6  -9 9446.37 373.532  17 
   1   6  -9 9182.75 399.748  26 
  -1   6  -9 9465.57 394.395  26 
  -1   6  -9 9671.23 370.141  25 
   1   6  -9 9680.19 349.424  25 
   1   6   9 10392.5 418.036  10 
  -1   6   9 9316.78 370.030  10 
  -1  -6  -9 8760.51 336.003  15 
   1  -6  -9 8741.93 348.413  15 
  -1   6  -9 9472.62 361.042  24 
   1   6  -9 9420.70 345.485  24 
   1  -6  -9 9793.64 355.435  22 
  -1   6   9 9457.60 351.648  13 
   1   6 -10 18290.2 544.115   8 
  -1   6 -10 18341.5 570.880   8 
  -1  -6 -10 15812.3 479.715  19 
   1  -6 -10 17162.2 488.545  19 
   1  -6 -10 18719.5 484.080  11 
  -1   6 -10 18181.8 522.425  17 
   1   6 -10 17336.8 484.060  17 
   1   6 -10 18000.5 537.745  26 
  -1   6 -10 16988.6 503.703  26 
  -1   6 -10 17735.5 481.741  25 
   1   6 -10 17777.0 463.466  25 
   1   6  10 18472.0 539.346  10 
  -1   6  10 17248.7 480.097  10 
  -1  -6 -10 17720.2 471.770  15 
   1  -6 -10 19557.9 509.714  15 
  -1   6 -10 17401.4 479.454  24 
   1   6 -10 18146.3 469.365  24 
   1  -6 -10 17495.6 466.298  22 
  -1  -6 -11 13046.6 404.246  19 
   1   6 -11 11811.6 401.446   8 
  -1   6 -11 12461.8 440.937   8 
   1  -6 -11 12789.1 392.502  19 
  -1  -6 -11 12380.1 356.508  11 
   1  -6 -11 11578.5 368.384  11 
  -1   6 -11 13308.1 425.498  17 
   1   6 -11 12180.1 377.242  17 
   1   6 -11 13318.0 435.392  26 
  -1   6 -11 12163.8 406.157  26 
  -1   6 -11 12573.8 386.107  25 
   1   6 -11 12861.9 374.130  25 
   1   6  11 13275.4 428.705  10 
  -1  -6 -11 11874.3 371.325  15 
   1  -6 -11 12114.0 385.309  15 
  -1   6 -11 12840.1 389.933  24 
   1   6 -11 13181.0 381.041  24 
  -1  -6 -11 11977.0 349.904  22 
   1  -6 -11 13061.3 383.801  22 
  -1  -6 -12 2082.91 147.686  19 
   1  -6 -12 2263.64 147.704  19 
  -1  -6 -12 1986.11 135.316  11 
   1  -6 -12 2326.19 154.386  11 
  -1   6 -12 2359.55 165.284  17 
   1   6 -12 2430.95 175.869  26 
  -1   6 -12 2063.24 154.187  26 
  -1   6 -12 2275.78 151.378  25 
   1   6 -12 2346.51 149.946  25 
   1   6  12 2373.68 170.248  10 
  -1  -6 -12 2166.44 148.912  15 
  -1   6 -12 2353.72 154.608  24 
   1   6 -12 2460.56 152.871  24 
  -1  -6 -12 2148.07 139.663  22 
   1  -6 -12 2357.69 154.624  22 
   1  -6  12 2224.21 169.236  12 
  -1  -6  13 316.485 59.7785  12 
   1  -6  13 273.929 56.9698  12 
   1   6 -13 264.258 56.1520  26 
  -1   6 -13 222.726 50.8801  26 
  -1   6 -13 336.452 56.7257  25 
  -1  -6 -13 317.832 55.1684  15 
  -1   6 -13 326.726 56.4184  24 
   2   6   0 9659.19 450.888  20 
  -2  -6   0 9299.46 380.023  19 
   2  -6   0 9432.64 387.368  19 
   2   6   0 8556.37 406.192  10 
  -2   6   0 9981.93 394.098  10 
  -2   6   0 9115.35 393.939  13 
   2   6   0 9336.58 353.488  13 
   2   6   1 16488.5 582.358  20 
   2   6  -1 16645.9 610.606  20 
  -2  -6  -1 16141.4 503.949  19 
  -2  -6   1 14964.9 466.312  19 
   2  -6  -1 15839.9 514.454  19 
   2  -6   1 15680.1 491.107  19 
   2   6   1 16002.2 559.710  10 
   2   6  -1 15431.0 551.310  10 
  -2   6   1 17271.4 520.858  10 
  -2   6  -1 15229.3 490.080  10 
  -2   6   1 15987.1 526.997  13 
  -2   6  -1 15387.6 514.700  13 
   2   6  -1 16170.4 459.867  13 
  -2   6  -1 14799.5 589.694   8 
   2   6   2 25885.4 712.682  20 
   2   6  -2 26146.4 771.275  20 
  -2   6  -2 24145.7 684.600  20 
   2  -6  -2 26163.3 671.423  19 
   2  -6   2 22147.3 574.809  19 
  -2   6  -2 22788.8 626.452  26 
   2   6   2 23914.4 688.254  10 
  -2   6   2 22041.8 586.969  10 
   2   6  -2 23932.0 688.675  10 
  -2   6   2 24387.6 654.707  13 
  -2   6  -2 22838.0 631.306  13 
   2   6  -2 24384.8 576.499  13 
  -2   6  -2 23954.5 749.648   8 
   2   6  -3 33953.5 892.348  20 
  -2   6  -3 33405.5 837.089  20 
   2  -6  -3 31844.6 753.087  19 
   2  -6   3 30349.0 657.291  19 
   2   6  -3 34534.7 821.879  26 
  -2   6  -3 33610.7 771.327  26 
   2   6   3 35065.2 838.782  10 
  -2   6   3 32238.0 715.891  10 
   2   6  -3 33244.6 815.950  10 
  -2   6   3 34077.2 780.977  13 
  -2   6  -3 32754.5 759.435  13 
   2   6  -3 32899.4 678.690  13 
  -2   6  -3 32511.2 877.946   8 
   2   6  -4 11529.9 517.649  20 
  -2   6  -4 10812.5 478.554  20 
   2  -6  -4 11962.1 458.494  19 
  -2   6  -4 12364.8 495.806  17 
   2   6  -4 9993.62 415.547  17 
   2   6  -4 11233.1 466.019  26 
  -2   6  -4 11386.8 443.311  26 
   2   6   4 10018.8 446.649  10 
  -2   6   4 11807.0 420.227  10 
  -2   6   4 10275.5 422.856  13 
  -2   6  -4 10173.5 416.103  13 
   2   6  -4 10464.6 487.333   8 
  -2   6  -4 11226.0 512.005   8 
   2   6  -5 128.668 81.5378  20 
   2   6  -5 58.2150 58.2844   8 
  -2   6  -5 73.2373 66.5081   8 
   2  -6  -5 134.383 72.8968  19 
  -2   6  -5 105.492 71.9694  17 
   2   6  -5 103.898 55.4596  17 
   2   6  -5 48.5348 47.9890  26 
  -2   6  -5 129.417 55.8105  26 
  -2   6  -5 81.8287 46.2725  25 
  -2   6  -5 78.2149 44.5936  24 
   2   6   5 48.3337 39.3965  10 
  -2   6   5 36.5437 35.3268  10 
  -2   6   5 111.393 56.5060  13 
  -2   6  -5 132.817 61.5696  13 
   2   6  -6 332.973 97.3869  20 
   2   6  -6 406.642 100.553   8 
  -2   6  -6 407.508 101.698   8 
   2  -6  -6 395.555 86.3011  19 
  -2   6  -6 380.663 100.693  17 
   2   6  -6 358.586 83.9142  17 
   2  -6  -6 310.436 70.6495  11 
   2   6  -6 434.625 103.027  26 
  -2   6  -6 424.838 91.3525  26 
  -2   6  -6 416.117 82.3839  25 
   2   6  -6 376.673 73.6946  25 
  -2   6  -6 394.491 85.6867  24 
   2   6  -6 373.739 74.5525  24 
   2   6   6 301.461 87.1809  10 
  -2   6   6 354.932 83.7020  10 
   2  -6  -6 348.553 75.2332  22 
  -2   6   6 322.951 78.8472  13 
  -2   6  -6 397.132 92.3192  13 
   2   6  -7 404.136 105.564  20 
   2   6  -7 177.723 67.0661   8 
  -2   6  -7 269.070 92.5775   8 
   2  -6  -7 347.575 81.7916  19 
   2  -6   7 198.066 71.1881   7 
  -2   6  -7 307.183 93.6186  17 
   2   6  -7 259.265 73.6486  17 
   2  -6  -7 165.225 55.3353  11 
   2   6  -7 253.355 87.7209  26 
  -2   6  -7 239.290 72.4594  26 
  -2   6  -7 295.813 77.6905  25 
   2   6  -7 283.967 62.5581  25 
  -2  -6  -7 444.986 76.6846  15 
  -2   6  -7 350.396 84.4609  24 
   2   6  -7 304.766 68.4770  24 
   2   6   7 286.495 82.5886  10 
   2  -6  -7 332.755 80.6018  22 
  -2   6   7 302.431 70.2247  13 
   2   6  -8 303.483 99.1346  20 
   2   6  -8 187.631 73.7003   8 
  -2   6  -8 183.486 80.1551   8 
   2  -6  -8 209.621 74.1529  19 
   2  -6   8 101.812 45.8970   7 
  -2   6  -8 257.011 78.8437  17 
   2  -6  -8 301.757 73.1566  11 
   2   6  -8 154.845 60.4962  17 
   2   6  -8 187.834 67.6511  26 
  -2   6  -8 139.982 53.2347  26 
  -2   6  -8 204.756 59.5645  25 
   2   6  -8 223.825 57.9505  25 
  -2  -6  -8 205.436 58.8309  15 
  -2   6  -8 226.668 67.7680  24 
   2   6  -8 248.045 63.0314  24 
   2   6   8 167.001 56.6975  10 
   2  -6  -8 277.282 71.3030  22 
  -2   6   8 300.288 69.5510  13 
   2   6  -9 1978.59 183.603   8 
   2   6  -9 1905.62 207.183  20 
  -2   6  -9 2134.67 205.431   8 
  -2  -6  -9 2254.23 182.789  19 
   2  -6  -9 2147.30 178.403  19 
   2  -6   9 2042.54 176.239   7 
   2  -6  -9 2092.05 168.615  11 
  -2   6  -9 2306.35 192.841  17 
   2   6  -9 1956.44 162.840  17 
   2   6  -9 2179.80 196.220  26 
  -2   6  -9 2103.91 181.385  26 
  -2   6  -9 2284.00 179.101  25 
   2   6  -9 2235.55 158.910  25 
   2   6   9 2271.70 196.372  10 
  -2  -6  -9 1983.04 156.255  15 
  -2   6  -9 2199.67 177.602  24 
   2   6  -9 2219.41 159.629  24 
   2  -6  -9 2375.53 176.680  22 
  -2   6   9 2232.13 178.650  13 
   2   6 -10 2075.32 175.747   8 
  -2   6 -10 2187.21 198.418   8 
  -2  -6 -10 2396.29 181.513  19 
   2  -6 -10 2296.40 174.302  19 
   2  -6  10 2013.14 164.051   7 
   2  -6 -10 2144.90 166.122  11 
  -2   6 -10 2145.74 179.512  17 
   2   6 -10 2006.47 181.602  26 
  -2   6 -10 2011.39 167.144  26 
  -2   6 -10 2042.22 166.516  25 
   2   6 -10 2318.36 159.188  25 
   2   6  10 2158.04 184.006  10 
  -2  -6 -10 1774.21 145.045  15 
  -2   6 -10 1998.75 162.573  24 
   2   6 -10 2194.23 156.488  24 
   2  -6 -10 2252.91 168.026  22 
  -2   6  10 2255.02 168.917  13 
   2  -6 -11 1173.69 115.969  19 
  -2   6 -11 1257.03 141.493   8 
  -2  -6 -11 974.162 111.887  19 
   2  -6 -11 1298.88 125.145  11 
  -2   6 -11 1092.77 124.793  17 
   2   6 -11 1190.84 131.343  26 
  -2   6 -11 1121.92 118.111  26 
  -2   6 -11 1070.57 114.667  25 
   2   6 -11 1047.52 102.954  25 
   2   6  11 1011.80 121.854  10 
  -2  -6 -11 965.561 103.461  15 
  -2   6 -11 1077.66 113.608  24 
   2   6 -11 1084.48 106.852  24 
   2  -6 -11 1014.24 111.264  22 
  -2   6  11 1063.49 109.626  13 
   2  -6  11 1049.89 123.093  12 
  -2  -6 -12 74.5225 37.4845  19 
   2  -6 -12 107.909 42.0356  19 
   2  -6  12 109.064 42.8061  12 
   2  -6 -12 153.312 49.6328  11 
  -2   6 -12 108.220 47.2465  17 
   2   6 -12 132.033 46.8573  26 
  -2   6 -12 129.898 41.2617  26 
  -2   6 -12 120.361 41.3844  25 
   2   6 -12 50.7968 33.5773  25 
  -2  -6 -12 78.4941 36.5859  15 
  -2   6 -12 84.2067 36.7925  24 
   2   6 -12 52.7429 33.3523  24 
   2   6  12 62.9920 38.9542  10 
   2  -6 -12 142.081 52.7523  22 
   2  -6  13 13567.0 365.810  12 
  -2   6 -13 13792.3 365.111  17 
   2   6 -13 14436.7 387.131  26 
  -2   6 -13 14028.1 349.725  25 
  -2  -6 -13 13329.5 334.325  15 
  -2   6 -13 14042.7 350.449  24 
  -2  -6  13 13553.4 357.463  12 
   3   6   0-44.6482 54.1464  20 
  -3   6   0 13.5003 45.6752   8 
  -3  -6   0 1.16816 45.9939  19 
   3  -6   0 76.0738 46.3931  19 
   3   6   0 36.3006 61.3039  10 
  -3   6   0 92.9408 52.4637  13 
   3   6   1 21348.4 687.878  20 
   3   6  -1 23531.9 733.956  20 
  -3  -6   1 22005.9 564.104  19 
   3  -6  -1 23562.4 627.434  19 
   3  -6   1 23032.2 598.499  19 
  -3   6  -1 21665.3 593.319  26 
   3   6   1 24062.2 694.572  10 
   3   6  -1 21937.8 669.394  10 
   3  -6   1 23752.1 583.633  23 
  -3   6   1 22934.2 648.635  13 
  -3   6  -1 22595.8 641.390  13 
  -3   6   1 21777.9 690.766   8 
  -3   6  -1 22839.0 725.345   8 
   3   6   2 9768.18 450.764  20 
   3   6  -2 8690.12 452.296  20 
   3  -6  -2 8238.64 373.538  19 
   3  -6   2 8132.48 347.643  19 
  -3   6  -2 9316.88 388.302  26 
   3   6   2 8947.43 423.888  10 
   3   6  -2 8941.92 425.653  10 
  -3   6   2 9040.83 402.025  13 
  -3   6  -2 8712.70 392.047  13 
  -3   6  -2 9285.89 461.107   8 
   3   6   3 620.681 124.946  20 
   3   6  -3 595.372 125.304  20 
   3  -6  -3 575.795 99.7145  19 
   3  -6   3 515.189 92.7125  19 
   3   6  -3 448.557 96.6004  26 
  -3   6  -3 435.351 87.1661  26 
   3   6   3 555.600 109.559  10 
   3   6  -3 500.788 101.090  10 
  -3   6   3 547.586 100.582  13 
  -3   6  -3 509.510 103.650  13 
   3   6  -4 174.470 94.2446  20 
  -3   6  -4 63.0033 53.3578   8 
   3  -6  -4 97.2429 60.9633  19 
   3  -6   4 73.3754 38.6654  19 
  -3   6  -4 68.7423 50.7195  17 
   3   6  -4 115.002 53.9721  17 
   3   6  -4 118.786 61.5193  26 
  -3   6  -4 78.5822 42.9927  26 
   3   6   4 100.726 60.1116  10 
  -3   6   4 116.376 53.9856  13 
   3   6  -5 1360.09 185.137  20 
   3   6  -5 1137.57 160.058   8 
  -3   6  -5 1294.84 174.071   8 
   3  -6  -5 1060.32 137.592  19 
   3   6  -5 1071.55 132.730  17 
  -3   6  -5 1304.00 159.557  17 
   3  -6  -5 1177.96 133.614  11 
   3   6  -5 1349.55 166.712  26 
  -3   6  -5 1081.24 134.108  26 
  -3   6  -5 1156.02 140.707  25 
  -3   6  -5 1103.09 137.291  24 
   3   6   5 1282.87 161.424  10 
   3  -6  -5 1275.91 138.023  22 
  -3   6   5 1322.10 151.302  13 
  -3   6  -5 1256.18 152.755  13 
  -3   6  -6 5552.46 358.277   8 
   3   6  -6 5578.00 365.899  20 
   3  -6  -6 5873.22 313.605  19 
   3  -6   6 5511.95 320.962   7 
   3  -6  -6 5852.96 290.421  11 
  -3   6  -6 5753.25 332.322  17 
   3   6  -6 5227.42 275.311  17 
   3   6  -6 5536.35 332.133  26 
  -3   6  -6 5604.65 298.015  26 
  -3   6  -6 5544.20 296.465  25 
   3   6   6 5173.93 325.484  10 
  -3   6  -6 5463.44 296.755  24 
   3  -6  -6 5440.85 278.582  22 
  -3   6   6 5252.97 304.187  13 
  -3   6  -6 5485.07 301.342  13 
   3   6  -6 5436.20 327.350   8 
   3   6  -7 2214.13 204.982   8 
  -3   6  -7 2313.31 227.068   8 
   3   6  -7 2466.49 241.230  20 
   3  -6  -7 2293.08 189.931  19 
   3  -6   7 2304.07 204.225   7 
   3  -6  -7 2412.85 189.205  11 
  -3   6  -7 2179.85 206.175  17 
   3   6  -7 2118.51 202.411  26 
  -3   6  -7 2170.20 179.682  26 
  -3   6  -7 2211.30 187.990  25 
   3   6   7 2223.20 211.601  10 
  -3   6  -7 2150.05 184.100  24 
   3  -6  -7 2279.07 183.723  22 
  -3   6   7 2195.56 190.194  13 
   3   6  -8 400.089 99.2838  20 
   3   6  -8 300.256 76.9552   8 
   3  -6  -8 232.136 69.7702  19 
  -3   6  -8 370.361 98.8598   8 
   3  -6   8 262.937 71.0344   7 
  -3   6  -8 215.646 68.5270  17 
   3  -6  -8 358.486 74.9463  11 
   3   6  -8 281.819 85.0751  26 
  -3   6  -8 267.828 68.6762  26 
  -3   6  -8 363.532 80.0607  25 
  -3  -6  -8 208.085 53.1701  15 
  -3   6  -8 425.724 85.1292  24 
   3   6   8 290.114 75.3237  10 
   3  -6  -8 288.488 70.8648  22 
  -3   6   8 299.354 71.0861  13 
   3   6  -9 5863.70 298.460   8 
   3   6  -9 5980.58 352.006  20 
  -3   6  -9 5947.19 342.251   8 
   3  -6  -9 5646.06 286.721  19 
   3  -6   9 6168.38 304.235   7 
   3  -6  -9 6175.28 288.768  11 
  -3   6  -9 5905.21 310.669  17 
   3   6  -9 6035.99 317.987  26 
  -3   6  -9 5300.68 265.472  26 
  -3   6  -9 6136.48 293.770  25 
   3   6   9 6298.25 329.425  10 
  -3  -6  -9 5630.80 255.669  15 
  -3   6  -9 6039.95 290.849  24 
   3  -6  -9 6007.90 285.138  22 
  -3   6   9 5988.69 295.602  13 
  -3  -6 -10 11633.7 397.944  19 
  -3   6 -10 11252.9 447.496   8 
   3  -6 -10 12137.8 390.976  19 
   3  -6  10 11054.1 389.577   7 
   3  -6 -10 12256.7 396.004  11 
  -3   6 -10 12122.5 425.407  17 
   3   6 -10 12913.5 443.406  26 
  -3   6 -10 10892.0 364.356  26 
  -3   6 -10 12398.7 402.627  25 
   3   6  10 12626.0 447.515  10 
  -3  -6 -10 10975.6 349.943  15 
  -3   6 -10 11632.3 387.488  24 
   3  -6 -10 12350.8 397.779  22 
  -3   6  10 11892.0 394.730  13 
   3  -6  10 11268.5 410.073  12 
   3  -6  11 20506.5 528.801  12 
  -3  -6 -11 21806.4 515.897  19 
   3  -6 -11 19445.9 459.336  19 
   3  -6 -11 22063.5 511.219  11 
  -3   6 -11 21666.3 543.585  17 
   3   6 -11 21918.8 548.391  26 
  -3   6 -11 19014.8 454.783  26 
  -3   6 -11 21628.3 502.411  25 
   3   6  11 21653.4 557.903  10 
  -3  -6 -11 19395.9 448.659  15 
  -3   6 -11 20890.5 494.753  24 
   3  -6 -11 21367.6 501.662  22 
  -3   6  11 20873.8 492.096  13 
   3  -6  12 16242.7 431.508  12 
  -3  -6 -12 15018.9 387.170  19 
   3  -6 -12 15815.3 403.542  11 
  -3   6 -12 15974.6 430.134  17 
   3   6 -12 15555.4 433.083  26 
  -3   6 -12 15364.0 391.709  25 
   3   6  12 14917.9 429.149  10 
  -3  -6 -12 15313.3 369.020  15 
  -3   6 -12 15169.0 390.163  24 
   3  -6 -12 15898.1 403.245  22 
   3  -6  13 21937.9 460.899  12 
  -3   6 -13 22569.3 467.198  17 
   3   6 -13 21569.3 470.224  26 
  -3   6 -13 23244.9 442.527  25 
   3   6  13 21048.9 455.243  10 
  -3   6 -13 22747.3 438.867  24 
   4   6   0 6744.82 394.107  20 
   4  -6   0 6574.19 330.559  19 
   4   6   0 6498.68 365.908  10 
   4  -6   0 7006.63 328.688  23 
  -4   6   0 6297.16 338.458  13 
  -4   6   0 6828.40 384.936   8 
   4   6   1 42.2829 49.0962  20 
   4   6  -1-39.0281 67.1044  20 
  -4   6   1 40.0773 53.8504   8 
  -4   6  -1-9.49811 45.0330   8 
  -4  -6   1 23.3140 39.6770  19 
   4  -6  -1-11.0984 42.3606  19 
   4  -6   1 47.4805 61.1842  19 
   4   6   1 94.8230 64.4813  10 
   4   6  -1 9.61408 41.9391  10 
   4  -6   1-6.27685 38.8819  23 
  -4   6   1 52.8447 52.0754  13 
  -4   6  -1 19.9424 37.7620  13 
   4   6   2 11106.2 488.738  20 
   4   6  -2 12458.1 540.260  20 
   4  -6  -2 12269.5 458.544  19 
   4  -6   2 10766.0 404.186  19 
   4   6  -2 11466.5 464.446  26 
   4   6   2 11301.0 486.192  10 
   4   6  -2 11936.3 492.904  10 
  -4   6   2 11802.3 468.036  13 
  -4   6  -2 11686.5 456.763  13 
  -4   6   2 12277.8 492.335   8 
  -4   6  -2 12069.4 518.115   8 
   4   6   3 1134.62 150.826  20 
   4   6  -3 1176.49 176.077  20 
  -4   6  -3 1145.77 158.916   8 
   4  -6  -3 1258.25 147.506  19 
   4  -6   3 954.343 122.274  19 
  -4   6  -3 1234.34 163.032  17 
   4   6  -3 750.452 116.863  17 
   4  -6  -3 1167.67 133.418  11 
   4   6  -3 1301.54 162.218  26 
   4   6  -3 1229.73 167.082  10 
   4   6   3 1123.85 156.799  10 
   4  -6  -3 1211.22 133.580  22 
  -4   6   3 1364.61 163.090   8 
  -4   6   3 1101.82 142.297  13 
  -4   6  -3 1073.72 138.672  13 
  -4   6  -4 4690.71 322.032   8 
   4   6   4 4961.07 311.956  20 
   4   6  -4 5049.16 350.014  20 
   4  -6  -4 5144.18 297.940  19 
   4  -6   4 4795.30 258.773  19 
  -4   6  -4 5076.15 315.887  17 
   4  -6  -4 4870.08 266.815  11 
   4   6  -4 4578.99 299.288  26 
   4   6   4 4891.09 317.405  10 
   4  -6  -4 4667.91 261.178  22 
  -4   6   4 4971.90 300.579  13 
  -4   6  -4 4758.69 285.182  13 
  -4   6   4 4640.67 297.374   8 
   4   6  -5 185.048 83.2095  20 
   4   6  -5 186.252 65.0581   8 
  -4   6  -5 197.293 83.5692   8 
   4  -6  -5 145.476 63.6638  19 
   4  -6   5 173.697 74.4883   7 
  -4   6  -5 143.045 64.1190  17 
   4  -6  -5 207.061 68.7204  11 
   4   6  -5 168.552 76.2203  26 
  -4   6  -5 293.083 70.5899  25 
  -4   6  -5 260.757 75.4306  24 
   4   6   5 124.409 60.6560  10 
   4  -6  -5 129.529 55.1811  22 
  -4   6   5 110.367 54.8845  13 
  -4   6  -5 73.0437 52.2387  13 
  -4   6  -6 3720.52 282.787   8 
   4   6  -6 3702.74 291.689  20 
   4  -6  -6 3854.49 252.123  19 
   4  -6   6 3708.18 261.478   7 
  -4   6  -6 3775.59 267.979  17 
   4  -6  -6 3562.85 231.625  11 
   4   6  -6 3796.56 264.679  26 
  -4   6  -6 3901.87 252.235  25 
   4   6   6 3538.04 268.857  10 
  -4   6  -6 3747.72 246.691  24 
   4  -6  -6 3762.34 236.487  22 
  -4   6   6 3781.11 255.310  13 
  -4  -6  -6 3464.26 202.307   9 
  -4   6  -6 3533.69 240.162  13 
   4   6  -6 3664.75 260.629   8 
   4   6  -7 136.833 76.6879  20 
   4   6  -7 63.5852 49.7088   8 
  -4   6  -7 84.5145 50.6013   8 
   4  -6  -7 65.9696 47.3707  19 
   4  -6   7 77.7775 49.8816   7 
  -4   6  -7 106.866 55.2285  17 
   4  -6  -7 51.9444 48.8117  11 
   4   6  -7 86.4014 47.5303  26 
  -4   6  -7 51.7117 35.6241  25 
  -4   6  -7 81.3494 43.7818  24 
   4   6   7 133.554 74.6894  10 
   4  -6  -7 36.7417 40.2490  22 
  -4  -6  -7 45.8695 33.8385   9 
  -4   6   7 132.923 58.0688  13 
   4   6  -8 1724.51 195.582  20 
  -4   6  -8 1591.05 176.685   8 
   4  -6  -8 1850.20 166.311  19 
   4  -6   8 1614.18 167.638   7 
   4  -6  -8 1823.64 164.981  11 
  -4   6  -8 1329.47 151.149  17 
   4   6  -8 1679.73 171.936  26 
  -4   6  -8 1782.89 160.146  25 
   4   6   8 1755.53 177.255  10 
  -4   6  -8 1785.82 158.607  24 
   4  -6  -8 1750.65 160.893  22 
  -4   6   8 1736.27 165.473  13 
   4  -6   8 1717.08 169.993  12 
   4  -6   9 3823.36 240.870  12 
   4   6  -9 4150.70 287.562  20 
  -4   6  -9 3891.44 267.991   8 
   4  -6  -9 4021.79 230.718  19 
   4  -6   9 3683.39 237.794   7 
   4  -6  -9 4173.48 237.525  11 
  -4   6  -9 4116.21 251.792  17 
   4   6  -9 4059.71 254.683  26 
  -4   6  -9 3784.34 226.857  25 
   4   6   9 3985.25 255.304  10 
  -4  -6  -9 3767.66 200.294  15 
  -4   6  -9 3714.28 228.600  24 
   4  -6  -9 4001.51 229.813  22 
  -4   6   9 4019.31 240.101  13 
   4  -6  10 9574.09 364.493  12 
   4   6 -10 9466.91 416.775  20 
  -4   6 -10 10094.2 409.557   8 
   4  -6 -10 9440.99 331.575  19 
   4  -6  10 10781.4 386.018   7 
   4  -6 -10 10267.0 359.922  11 
  -4   6 -10 10579.8 384.563  17 
   4   6 -10 9966.29 380.072  26 
  -4   6 -10 9780.99 350.508  25 
   4   6  10 9906.87 388.222  10 
  -4  -6 -10 9429.44 307.810  15 
  -4   6 -10 9658.07 345.782  24 
   4  -6 -10 10039.1 353.711  22 
  -4   6  10 9736.54 358.213  13 
  -4  -6 -11 704.557 91.6457  19 
   4  -6 -11 592.254 79.3767  19 
   4  -6  11 755.492 97.5687  12 
   4  -6 -11 692.129 93.2647  11 
  -4   6 -11 711.829 99.6062  17 
   4  -6  11 645.814 89.1640   7 
   4   6 -11 746.197 98.7385  26 
  -4   6 -11 726.653 90.3062  25 
  -4  -6 -11 726.627 84.6494  15 
  -4   6 -11 718.222 90.5916  24 
   4   6  11 663.985 98.1463  10 
   4  -6 -11 809.737 96.6513  22 
  -4   6  11 626.487 86.6485  13 
   4  -6  12 4380.82 217.202  12 
  -4  -6 -12 5018.66 213.486  19 
   4  -6 -12 4601.37 212.198  11 
  -4   6 -12 4851.03 227.539  17 
   4   6 -12 4626.50 225.585  26 
  -4   6 -12 4845.18 207.119  25 
   4   6  12 4419.36 223.073  10 
  -4   6 -12 5163.70 214.253  24 
   4  -6 -12 4856.14 217.675  22 
  -4   6  12 4339.56 200.052  13 
   5   6   0 50.5574 52.8222  20 
  -5   6   0 14.8271 45.5918   8 
   5  -6   0-31.6839 50.2428  19 
   5   6   0 28.5794 41.1125  10 
   5  -6   0 43.0905 49.6410  23 
  -5   6   0-5.37789 40.2744  13 
  -5   6  -1 12993.6 518.983   8 
   5   6   1 13709.5 554.767  20 
   5   6  -1 13953.0 572.828  20 
   5  -6  -1 13847.1 480.217  19 
   5  -6   1 12909.0 455.107  19 
   5   6   1 12835.4 513.183  10 
   5   6  -1 13602.8 521.717  10 
   5  -6  -1 15090.1 498.559  23 
   5  -6   1 12879.5 440.972  23 
  -5   6   1 13513.1 497.933  13 
  -5   6  -1 13234.4 501.087  13 
  -5   6   1 14581.5 527.358   8 
  -5   6  -2 6962.27 381.801   8 
   5   6   2 6638.88 381.075  20 
   5   6  -2 7248.17 414.642  20 
   5  -6  -2 7130.63 345.155  19 
   5  -6   2 7426.46 334.386  19 
  -5   6  -2 7469.85 379.408  17 
   5  -6  -2 6723.39 317.758  11 
   5   6  -2 7076.48 360.646  26 
   5   6   2 6844.75 371.628  10 
   5   6  -2 7109.66 377.735  10 
   5  -6   2 6984.54 313.861  23 
   5  -6  -2 6964.19 324.431  22 
  -5   6   2 7459.55 368.603  13 
  -5   6  -2 6989.27 355.879  13 
  -5   6   2 6873.63 353.589   8 
  -5   6  -3 2422.93 231.743   8 
   5   6   3 2379.96 225.178  20 
   5   6  -3 2443.61 245.723  20 
   5  -6  -3 2386.08 202.404  19 
   5  -6   3 2198.99 175.239  19 
   5  -6   3 2100.26 207.279   7 
  -5   6  -3 2380.88 215.566  17 
   5  -6  -3 2145.18 182.312  11 
   5   6  -3 2133.49 201.990  26 
   5   6   3 2286.88 216.310  10 
   5   6  -3 2200.20 215.334  10 
   5  -6  -3 2256.99 184.156  22 
  -5   6   3 2286.36 207.888  13 
  -5   6  -3 2317.05 201.098  13 
  -5   6   3 2113.09 192.075   8 
   5  -6   3 2099.45 177.262  12 
   5   6   4 2102.62 202.067  20 
  -5   6  -4 2301.27 220.694   8 
   5   6  -4 2356.10 235.762  20 
   5  -6  -4 2098.92 191.282  19 
   5  -6   4 2285.78 175.066  19 
   5  -6   4 2170.82 205.782   7 
  -5   6  -4 2157.02 202.221  17 
   5  -6  -4 2225.65 182.150  11 
   5   6  -4 1956.86 196.688  26 
   5   6   4 2245.57 213.063  10 
   5  -6  -4 2249.42 182.607  22 
  -5   6   4 2252.09 206.032  13 
  -5   6  -4 2369.09 196.378  13 
   5   6  -4 2255.30 211.562   8 
   5  -6   4 2058.33 182.635  12 
   5   6   5 8150.40 384.960  20 
   5   6  -5 8877.34 449.948  20 
  -5   6  -5 9539.71 449.267   8 
   5  -6  -5 8919.72 379.257  19 
   5  -6   5 9217.07 413.773   7 
  -5   6  -5 9689.88 419.643  17 
   5  -6  -5 8903.66 370.405  11 
   5   6  -5 8871.86 402.057  26 
  -5   6  -5 9698.25 391.469  25 
   5   6   5 9363.79 426.469  10 
  -5   6  -5 9431.48 387.379  24 
   5  -6  -5 9321.58 376.635  22 
  -5   6   5 8980.43 402.440  13 
  -5   6  -5 8791.19 377.782  13 
   5   6  -5 8787.75 401.779   8 
   5  -6   5 9308.17 381.753  12 
   5   6  -6 132.027 73.0446  20 
   5   6  -6 72.6984 57.3919   8 
  -5   6  -6 26.8824 65.4030   8 
   5  -6  -6-4.93327 38.1901  19 
   5  -6   6-9.77722 41.8909  12 
   5  -6   6 58.3164 43.9375   7 
  -5   6  -6 32.7332 44.8136  17 
   5  -6  -6 0.71399 40.4891  11 
   5   6  -6-30.1862 46.4205  26 
  -5   6  -6 166.048 63.2210  25 
  -5   6  -6 170.133 55.8827  24 
   5   6   6 24.0198 42.6043  10 
   5  -6  -6-15.4425 39.8282  22 
  -5  -6  -6 20.7068 30.5289   9 
  -5   6   6 125.654 69.0368  13 
  -5   6  -6 29.3036 32.2798  13 
   5  -6   7 5639.08 297.447  12 
   5   6  -7 5256.74 334.345  20 
  -5   6  -7 5543.29 335.816   8 
   5  -6  -7 5925.95 295.048  19 
   5  -6   7 5263.23 299.926   7 
  -5   6  -7 5720.51 310.949  17 
   5  -6  -7 5414.31 281.616  11 
   5   6  -7 5276.85 300.048  26 
  -5   6  -7 5455.30 283.828  25 
   5   6   7 5208.76 312.144  10 
  -5   6  -7 5630.56 287.763  24 
   5  -6  -7 5519.94 283.950  22 
  -5   6   7 5269.53 293.522  13 
  -5  -6  -7 5510.54 256.280   9 
   5  -6   8 2030.99 174.847  12 
   5   6  -8 2301.38 217.952  20 
  -5   6  -8 2203.67 202.274   8 
   5  -6  -8 2056.43 171.296  19 
   5  -6   8 2140.97 187.511   7 
   5  -6  -8 2255.80 180.650  11 
  -5   6  -8 1909.86 176.173  17 
   5   6  -8 2168.19 187.981  26 
  -5   6  -8 2123.22 177.599  25 
   5   6   8 2132.03 193.971  10 
  -5   6  -8 2184.13 177.122  24 
   5  -6  -8 2387.19 184.205  22 
  -5   6   8 2376.26 188.611  13 
  -5  -6  -8 2286.42 163.114   9 
   5  -6   9 5820.05 286.029  12 
   5   6  -9 5625.23 320.937  20 
  -5   6  -9 5794.20 317.675   8 
   5  -6  -9 5501.96 262.397  19 
   5  -6   9 6327.57 309.038   7 
   5  -6  -9 5983.04 281.772  11 
  -5   6  -9 6340.56 304.420  17 
   5   6  -9 5539.23 285.666  26 
  -5   6  -9 5236.88 257.025  25 
   5   6   9 5991.39 311.129  10 
  -5   6  -9 4757.60 246.892  24 
   5  -6  -9 5756.47 272.550  22 
  -5   6   9 5860.22 285.890  13 
   5  -6  10 1925.13 160.115  12 
   5   6 -10 2048.39 186.085  20 
   5  -6 -10 1893.62 142.146  19 
   5  -6  10 2156.87 172.216   7 
   5  -6 -10 2061.61 161.180  11 
  -5   6 -10 2078.45 165.735  17 
   5   6 -10 2121.59 167.165  26 
  -5   6 -10 2112.76 155.594  25 
   5   6  10 2047.75 172.354  10 
  -5   6 -10 2023.29 151.009  24 
   5  -6 -10 2185.49 164.687  22 
  -5   6  10 1932.55 157.051  13 
   5  -6  11 722.480 89.8850  12 
  -5   6 -11 696.887 94.5844  17 
   5  -6 -11 732.762 89.8735  11 
   5  -6  11 529.498 78.2814   7 
   5   6 -11 765.512 95.6348  26 
  -5   6 -11 770.621 89.3338  25 
  -5   6 -11 750.255 88.8926  24 
   5   6  11 660.814 94.1062  10 
   5  -6 -11 670.743 89.9781  23 
   5  -6 -11 729.404 91.5699  22 
  -5   6  11 748.466 95.5791  13 
   5  -6  12 14712.0 375.283  12 
   5  -6 -12 14450.4 365.180  11 
  -5   6 -12 15251.3 389.675  17 
   5   6 -12 14280.4 374.338  26 
  -5   6 -12 14845.7 352.493  25 
   5   6  12 15021.7 398.851  10 
  -5   6 -12 14548.3 350.394  24 
   5  -6 -12 14442.7 362.127  22 
  -6   6   0 30863.4 760.542   8 
   6   6   0 26999.3 791.964  20 
   6  -6   0 28921.2 689.748  19 
   6  -6   0 30079.6 741.962   7 
   6   6   0 26602.0 737.587  10 
   6  -6   0 28326.1 682.564  23 
  -6   6   0 28650.4 722.893  13 
  -6   6   1 10400.6 425.756   8 
   6   6   1 10470.1 480.930  20 
   6   6  -1 9871.66 477.597  20 
  -6   6  -1 9612.75 427.494   8 
   6  -6  -1 10457.0 409.579  19 
   6  -6   1 9349.58 383.103  19 
   6  -6  -1 9543.96 406.935   7 
   6  -6   1 9443.52 418.168   7 
  -6   6  -1 11082.2 443.223  17 
   6  -6  -1 9813.11 385.638  11 
   6   6  -1 10116.7 418.364  26 
   6   6   1 9405.08 436.316  10 
   6   6  -1 10229.6 447.713  10 
   6  -6  -1 10345.7 411.661  23 
   6  -6   1 10197.2 394.809  23 
   6  -6  -1 10185.7 395.298  22 
  -6   6   1 11135.6 446.181  13 
  -6   6  -1 11133.1 440.678  13 
   6   6   2 1105.95 155.229  20 
   6   6  -2 917.316 147.315  20 
  -6   6  -2 1097.58 149.983   8 
   6  -6  -2 1059.85 133.609  19 
   6  -6   2 1135.10 134.225  19 
   6  -6  -2 881.634 128.246   7 
   6  -6   2 876.467 135.114   7 
  -6   6  -2 1053.84 141.165  17 
   6  -6  -2 1079.24 137.395  11 
   6   6  -2 990.113 136.996  26 
   6   6   2 978.599 143.011  10 
   6   6  -2 1034.09 149.994  10 
   6  -6  -2 884.815 124.797  23 
   6  -6   2 973.719 120.792  23 
   6  -6  -2 975.267 131.531  22 
  -6   6  -2 1190.66 139.877  13 
  -6   6   2 1055.43 143.973  13 
   6   6   3 1611.17 186.011  20 
   6   6  -3 1897.90 212.059  20 
  -6   6  -3 1900.39 191.922   8 
   6  -6  -3 1850.08 178.038  19 
   6  -6   3 1927.57 164.600  19 
   6  -6  -3 1483.09 153.934   7 
   6  -6   3 1633.82 176.119   7 
  -6   6  -3 1771.20 180.403  17 
   6  -6  -3 1890.02 171.430  11 
   6   6  -3 1708.35 172.668  26 
   6   6   3 1750.18 186.853  10 
   6   6  -3 1649.43 184.969  10 
   6  -6  -3 1721.51 175.204  23 
   6  -6  -3 1771.44 170.119  22 
  -6   6   3 1534.22 161.842  13 
  -6   6  -3 1738.18 168.074  13 
   6  -6   4 3124.27 207.972  12 
   6   6   4 2960.03 240.891  20 
   6   6  -4 3013.71 266.704  20 
  -6   6  -4 3114.11 247.615   8 
   6  -6  -4 3258.30 230.845  19 
   6  -6   4 3200.20 208.284  19 
   6  -6  -4 2019.45 171.795   7 
   6  -6   4 3088.41 241.428   7 
  -6   6  -4 3031.05 227.422  17 
   6  -6  -4 2884.04 209.507  11 
   6   6  -4 2794.28 221.251  26 
   6   6   4 2948.46 237.919  10 
   6  -6  -4 3196.63 230.377  23 
   6  -6  -4 3123.32 220.171  22 
  -6   6   4 2873.58 225.208  13 
  -6   6  -4 3053.30 220.604  13 
   6   6  -4 2844.37 225.839   8 
   6  -6   5 21692.5 566.166  12 
   6   6   5 20791.5 622.795  20 
   6   6  -5 20806.4 685.658  20 
  -6   6  -5 21679.8 658.894   8 
   6  -6  -5 22568.2 599.118  19 
  -6   6  -5 21627.0 602.061  17 
   6  -6  -5 20963.0 569.836  11 
   6   6  -5 20679.4 595.632  26 
  -6   6  -5 21825.0 585.289  25 
   6   6   5 19995.6 615.190  10 
  -6   6  -5 21291.8 582.513  24 
   6  -6  -5 22722.1 619.541  23 
   6  -6  -5 20869.0 565.824  22 
  -6   6   5 21143.0 608.434  13 
  -6   6  -5 20619.4 564.711  13 
   6   6  -5 18703.1 551.273   8 
   6  -6   6 6685.08 311.090  12 
   6   6   6 6765.58 334.210  20 
   6   6  -6 7135.97 393.305  20 
  -6   6  -6 7383.17 380.034   8 
   6  -6  -6 7000.80 324.028  19 
   6  -6   6 7463.19 357.089   7 
  -6   6  -6 7250.29 343.245  17 
   6  -6  -6 6910.31 317.104  11 
   6   6  -6 6908.46 336.576  26 
  -6   6  -6 7555.02 334.613  25 
   6   6   6 6784.07 349.479  10 
  -6   6  -6 6948.90 323.220  24 
   6  -6  -6 7373.04 346.535  23 
   6  -6  -6 6931.59 317.639  22 
  -6  -6  -6 6958.12 281.999   9 
  -6   6   6 7428.80 350.261  13 
  -6   6  -6 7028.28 313.537  13 
   6   6  -7 88.6362 61.7507  20 
   6  -6  -7 59.8292 39.8566  19 
  -6   6  -7 62.1801 45.0939   8 
   6  -6   7 113.063 54.0991  12 
  -6   6  -7 181.767 60.1035  17 
   6  -6   7 61.9544 51.4911   7 
   6  -6  -7 119.685 62.5216  11 
   6   6  -7 118.583 61.7711  26 
  -6   6  -7 137.653 52.7672  25 
  -6   6  -7 84.8998 42.6087  24 
   6   6   7 102.904 53.9905  10 
   6  -6  -7 61.7366 46.7992  23 
   6  -6  -7 79.9252 52.1367  22 
  -6  -6  -7 112.338 38.4796   9 
  -6   6   7 87.8795 48.5753  13 
   6  -6   8 3656.52 224.336  12 
   6   6  -8 3815.82 268.135  20 
  -6   6  -8 3737.53 257.826   8 
   6  -6  -8 3934.91 225.146  19 
   6  -6   8 3627.29 235.899   7 
   6  -6  -8 3968.53 233.256  11 
  -6   6  -8 3942.55 242.273  17 
   6   6  -8 3944.88 237.641  26 
  -6   6  -8 3899.87 224.972  25 
   6   6   8 3722.83 247.118  10 
  -6   6  -8 4089.54 229.811  24 
   6  -6  -8 3863.31 235.390  23 
   6  -6  -8 3846.85 227.092  22 
  -6   6   8 4065.41 242.150  13 
  -6  -6  -8 4105.73 209.854   9 
   6  -6   9 4771.32 248.962  12 
   6   6  -9 4910.92 287.611  20 
   6  -6  -9 4530.34 227.199  19 
   6  -6   9 5248.29 277.355   7 
   6  -6  -9 5166.82 255.366  11 
  -6   6  -9 4678.18 254.485  17 
   6   6  -9 4629.72 247.086  26 
  -6   6  -9 4910.95 241.071  25 
   6   6   9 4928.20 271.687  10 
  -6   6  -9 5035.79 244.055  24 
   6  -6  -9 5172.33 260.886  23 
   6  -6  -9 4876.44 247.728  22 
  -6   6   9 5061.54 256.401  13 
  -6  -6  -9 4841.89 219.989   9 
   6  -6  10 3412.31 195.981  12 
   6   6 -10 3105.12 213.714  20 
   6  -6 -10 2856.55 164.798  19 
   6  -6  10 3063.97 192.222   7 
   6  -6 -10 3342.74 195.122  11 
  -6   6 -10 3336.39 203.525  17 
   6   6 -10 3209.64 191.142  26 
  -6   6 -10 3581.32 192.253  25 
   6   6  10 3029.46 197.710  10 
  -6   6 -10 3123.85 178.611  24 
   6  -6 -10 3404.27 200.537  23 
   6  -6 -10 3206.57 189.225  22 
  -6   6  10 3240.70 196.712  13 
   6  -6  11 1010.14 101.584  12 
   6  -6 -11 1024.26 101.918  11 
  -6   6 -11 1048.86 106.490  17 
   6   6 -11 910.988 96.8946  26 
  -6   6 -11 995.707 93.7043  25 
   6   6  11 858.147 99.2822  10 
  -6   6 -11 1168.78 101.543  24 
   6  -6 -11 879.189 95.0277  23 
  -6   6  11 1164.20 106.783  13 
   6  -6 -11 905.686 94.5919  22 
   7   6   0 62.6274 65.3149  20 
  -7   6   0-20.8817 43.9679   8 
   7  -6   0 21.7914 40.5226  19 
   7  -6   0-69.1665 41.7098   7 
  -7   6   0 69.7434 42.2730  17 
   7  -6   0-52.6877 41.9343  11 
   7   6   0 29.4121 50.1191  26 
   7   6   0-44.8320 48.6838  10 
   7  -6   0 55.5608 47.4231  23 
   7  -6   0-21.5963 51.7896  22 
  -7   6   0 4.90467 40.0379  13 
   7   6   1 3933.82 292.214  20 
   7   6  -1 3712.23 292.959  20 
  -7   6  -1 3659.04 248.268   8 
   7  -6  -1 4291.09 261.269  19 
   7  -6   1 4114.38 251.543  19 
   7  -6  -1 3561.05 242.511   7 
   7  -6   1 3655.48 251.130   7 
  -7   6   1 3953.84 252.789  17 
  -7   6  -1 4364.12 263.829  17 
   7  -6  -1 3871.26 245.260  11 
   7   6  -1 3790.65 252.102  26 
   7   6   1 3645.93 270.772  10 
   7   6  -1 3485.52 263.757  10 
   7  -6  -1 4300.54 262.336  23 
   7  -6   1 4274.36 252.862  23 
   7  -6  -1 3729.53 242.036  22 
  -7   6   1 4264.24 264.291  13 
  -7   6  -1 4145.07 257.444  13 
   7   6   2 429.515 112.225  20 
   7   6  -2 500.299 115.858  20 
  -7   6  -2 527.619 99.5855   8 
   7  -6  -2 490.912 100.220  19 
   7  -6   2 512.461 89.0097  19 
   7  -6  -2 473.049 90.5739   7 
   7  -6   2 459.361 96.9324   7 
  -7   6  -2 454.109 90.1022  17 
   7  -6  -2 489.727 94.9541  11 
   7   6  -2 420.325 86.4542  26 
   7   6   2 431.695 100.960  10 
   7   6  -2 363.362 96.0236  10 
   7  -6  -2 450.856 94.2622  23 
   7  -6   2 499.820 88.5983  23 
   7  -6  -2 467.363 95.7075  22 
  -7   6   2 535.774 102.406  13 
  -7   6  -2 433.120 90.1421  13 
   7   6   3 3577.50 267.897  20 
   7   6  -3 3383.18 272.604  20 
  -7   6  -3 3487.09 251.211   8 
   7  -6  -3 4097.76 253.826  19 
   7  -6   3 3323.29 214.829  19 
   7  -6  -3 3161.24 211.371   7 
   7  -6   3 3725.12 255.168   7 
  -7   6  -3 3575.33 238.900  17 
   7  -6  -3 3305.74 227.843  11 
   7   6  -3 3208.58 227.866  26 
   7   6   3 3141.59 246.701  10 
   7  -6  -3 3841.95 251.023  23 
   7  -6  -3 3374.16 228.338  22 
  -7   6   3 3600.48 244.513  13 
  -7   6  -3 3306.62 225.306  13 
   7   6   4 19804.2 621.448  20 
   7   6  -4 21217.8 679.985  20 
  -7   6  -4 22458.8 634.864   8 
   7  -6  -4 21155.2 572.358  19 
   7  -6   4 21131.6 523.247  19 
   7  -6   4 23289.1 636.446   7 
  -7   6  -4 22291.1 592.583  17 
   7  -6  -4 21072.2 573.130  11 
   7   6  -4 21499.3 589.351  26 
   7   6   4 20569.9 611.854  10 
   7  -6  -4 23043.0 613.867  23 
   7  -6  -4 21487.3 578.994  22 
  -7   6   4 22209.7 613.672  13 
  -7   6  -4 22361.3 575.367  13 
   7   6   5 23.4175 40.0659  20 
   7   6  -5 99.1232 61.1260  20 
   7  -6  -5-15.9142 36.1395  19 
  -7   6  -5 63.3126 48.7499   8 
   7  -6   5 37.4355 37.6826  19 
   7  -6   5 61.9573 47.5544  12 
  -7   6  -5-10.9192 38.1134  17 
   7  -6   5 16.4404 39.5438   7 
   7  -6  -5 94.0223 61.9852  11 
   7   6  -5 53.5550 49.8870  26 
  -7   6  -5 26.0008 39.4426  25 
  -7   6  -5 0.90459 32.1238  24 
   7   6   5 34.2920 45.1356  10 
   7  -6  -5-35.5745 46.4459  23 
   7  -6  -5 69.5119 50.2264  22 
  -7   6   5 79.5447 51.2090  13 
  -7   6  -5 35.2001 33.7108  13 
   7   6   6 172.409 63.3689  20 
   7   6  -6 243.112 82.5645  20 
   7  -6  -6 332.156 74.9071  19 
  -7   6  -6 192.858 69.4516   8 
   7  -6   6 207.730 56.5658  12 
  -7   6  -6 205.920 63.0311  17 
   7  -6   6 120.028 51.4887   7 
   7  -6  -6 258.635 79.5655  11 
   7   6  -6 198.160 65.2114  26 
  -7   6  -6 200.871 57.7652  25 
  -7   6  -6 255.601 69.6798  24 
   7   6   6 309.918 77.2349  10 
   7  -6  -6 241.357 68.9703  23 
   7  -6  -6 149.877 54.1743  22 
  -7  -6  -6 213.035 52.9345   9 
  -7   6   6 272.428 72.2544  13 
  -7   6  -6 243.994 59.4612  13 
   7  -6   7 6477.69 286.930  12 
   7   6  -7 6557.39 346.923  20 
  -7   6  -7 7296.57 349.665   8 
   7  -6  -7 5807.62 278.439  19 
   7  -6   7 6664.78 321.163   7 
  -7   6  -7 7230.05 315.214  17 
   7  -6  -7 6426.15 295.486  11 
  -7   6  -7 5660.81 241.317   6 
   7   6  -7 6397.49 295.915  26 
  -7   6  -7 7194.25 300.802  25 
   7   6   7 6291.42 316.765  10 
  -7   6  -7 6405.39 286.124  24 
   7  -6  -7 7057.42 316.818  23 
   7  -6  -7 6574.34 298.339  22 
  -7  -6  -7 6225.83 252.636   9 
  -7   6   7 6571.90 305.655  13 
   7  -6   8 1102.23 116.451  12 
   7   6  -8 1168.95 142.494  20 
   7  -6  -8 982.836 110.878  19 
   7  -6   8 1245.43 139.692   7 
  -7   6  -8 1159.38 128.089  17 
   7  -6  -8 1038.30 119.530  11 
   7   6  -8 1016.87 115.224  26 
  -7   6  -8 1179.57 118.533  25 
   7   6   8 957.406 122.493  10 
  -7   6  -8 1130.48 117.276  24 
   7  -6  -8 961.784 116.326  23 
   7  -6  -8 1069.40 121.025  22 
  -7  -6  -8 1041.84 101.141   9 
  -7   6   8 1150.46 123.011  13 
   7   6  -9 40.1600 43.3575  20 
   7  -6  -9 42.4153 37.4815  19 
   7  -6   9-17.3402 30.6710  12 
  -7   6  -9 33.6218 38.0116  17 
   7  -6  -9 82.8128 44.1464  11 
   7  -6   9-10.7949 33.6420   7 
   7   6  -9 34.5238 36.2103  26 
  -7   6  -9 27.6161 32.2527  25 
  -7   6  -9 34.4663 33.0679  24 
   7   6   9 22.0081 29.7720  10 
   7  -6  -9-55.1437 35.8792  23 
   7  -6  -9 3.09168 34.0099  22 
  -7  -6  -9 24.3787 29.8354   9 
  -7   6   9 65.0894 37.5523  13 
   7  -6  10 83.3353 35.4906  12 
  -7   6 -10 24.5581 30.0711  17 
   7  -6 -10 65.5276 37.4982  11 
   7  -6  10 104.363 45.2515   7 
  -7   6 -10 86.3402 35.7802  25 
  -7   6 -10 75.8778 31.4496  24 
   7   6  10 76.7338 39.9402  10 
   7  -6 -10 29.7726 31.1851  23 
   7  -6 -10 117.544 49.6355  22 
  -7   6  10 62.3532 33.2918  13 
   8   6   0 4749.91 316.378  20 
   8  -6   0 4940.23 266.975  19 
   8  -6   0 4618.49 267.607   7 
  -8   6   0 4369.93 250.035  17 
   8  -6   0 4070.33 248.625  11 
   8   6   0 4210.96 246.722  26 
   8   6   0 4310.11 276.119  10 
   8  -6   0 4738.03 266.224  23 
   8  -6   0 4064.67 250.316  22 
  -8   6   0 4916.85 270.936  13 
   8   6   1 383.092 97.7574  20 
   8   6  -1 373.343 99.9706  20 
   8  -6  -1 272.719 75.4233  19 
   8  -6   1 351.779 81.6026  19 
  -8   6   1 265.405 71.4663  17 
  -8   6  -1 361.394 76.6614  17 
   8  -6  -1 273.026 71.2510   7 
   8  -6   1 246.211 66.4666   7 
   8  -6  -1 348.622 80.0556  11 
   8   6   1 261.339 71.6176  26 
   8   6  -1 254.325 69.4620  26 
   8   6   1 283.114 83.3221  10 
   8   6  -1 304.802 80.7441  10 
   8  -6  -1 337.198 77.8522  23 
   8  -6   1 324.994 75.2430  23 
   8  -6  -1 372.598 81.7470  22 
  -8   6   1 376.092 82.3152  13 
  -8   6  -1 395.394 81.1631  13 
   8   6   2 120.051 62.0227  20 
   8   6  -2 126.067 75.8254  20 
   8  -6  -2 107.460 62.1611  19 
   8  -6   2 106.119 53.2327  19 
  -8   6  -2 193.278 66.1285   8 
  -8   6   2 73.6882 37.0655  17 
  -8   6  -2 158.047 56.0759  17 
   8  -6  -2 60.6396 42.8817   7 
   8  -6   2 173.340 57.6585   7 
   8  -6  -2 122.646 52.9180  11 
   8   6   2 94.7529 50.6751  26 
   8   6  -2 94.6444 40.8869  26 
   8   6   2 96.7001 55.6408  10 
   8  -6  -2 156.240 56.8687  23 
   8  -6   2 130.567 56.5822  23 
   8  -6  -2 189.413 68.5215  22 
  -8   6   2 114.910 47.2247  13 
  -8   6  -2 104.206 47.0215  13 
   8   6   3 830.176 131.347  20 
   8   6  -3 720.003 124.247  20 
   8  -6  -3 834.556 119.007  19 
   8  -6   3 776.944 107.892  19 
  -8   6  -3 751.760 111.115   8 
  -8   6  -3 813.108 107.958  17 
   8  -6   3 838.448 123.086   7 
   8  -6  -3 778.330 109.788  11 
   8   6  -3 791.528 110.769  26 
   8   6   3 785.373 120.309  10 
   8  -6  -3 839.114 118.960  23 
   8  -6  -3 858.415 119.579  22 
  -8   6  -3 929.060 114.564  13 
  -8   6   3 886.532 116.102  13 
   8   6   4 118.386 59.0050  20 
   8   6  -4 77.0948 61.2855  20 
   8  -6  -4 132.480 51.6229  19 
   8  -6   4 113.926 47.6860  19 
  -8   6  -4 176.758 62.7691   8 
  -8   6  -4 153.734 56.1559  17 
   8  -6   4 179.165 59.5513   7 
   8  -6  -4 130.493 60.4829  11 
   8   6  -4 138.818 56.6782  26 
   8   6   4 129.543 61.0415  10 
   8  -6  -4 90.4278 54.8868  23 
   8  -6  -4 59.8705 48.5239  22 
  -8   6   4 162.419 57.7725  13 
  -8   6  -4 111.706 51.4985  13 
   8   6   5 7924.81 367.270  20 
   8   6  -5 8438.97 399.853  20 
   8  -6  -5 8583.98 341.520  19 
   8  -6   5 7559.32 284.207  19 
   8  -6   5 9792.07 391.821   7 
  -8   6  -5 8686.55 337.281  17 
   8  -6  -5 8677.85 351.324  11 
   8   6  -5 8075.73 319.576  26 
  -8   6  -5 8504.91 330.755  25 
   8   6   5 8106.39 354.523  10 
  -8   6  -5 9062.97 342.023  24 
   8  -6  -5 8898.90 362.817  23 
   8  -6  -5 8836.86 355.745  22 
  -8   6   5 9228.12 361.623  13 
  -8   6  -5 8023.73 310.103  13 
   8   6   6 193.424 67.4450  20 
   8   6  -6 69.7461 39.8467  20 
   8  -6  -6 160.180 55.1698  19 
   8  -6   6 98.3935 43.1523  12 
  -8   6  -6 168.964 49.9253  17 
   8  -6   6 124.210 52.5438   7 
   8  -6  -6 156.654 55.1646  11 
   8   6  -6 105.864 50.1958  26 
  -8   6  -6 142.698 50.3940  25 
  -8   6  -6 104.036 43.8007  24 
   8   6   6 71.4647 44.2333  10 
   8  -6  -6 203.007 60.5333  23 
   8  -6  -6 184.522 60.2153  22 
  -8  -6  -6 142.584 40.2962   9 
  -8   6   6 117.248 40.5946  13 
   8   6   7 1473.93 141.317  20 
   8  -6   7 1692.86 131.440  12 
   8   6  -7 1736.17 168.411  20 
   8  -6  -7 1429.60 132.466  19 
   8  -6   7 1783.40 162.003   7 
  -8   6  -7 1577.12 137.175  17 
   8  -6  -7 1666.56 147.492  11 
  -8   6  -7 1268.01 113.495   6 
   8   6  -7 1515.40 130.212  26 
  -8   6  -7 1881.11 145.771  25 
   8   6   7 1462.55 144.040  10 
  -8   6  -7 1702.39 139.558  24 
   8  -6  -7 1515.02 141.446  23 
   8  -6  -7 1787.31 155.000  22 
  -8  -6  -7 1549.26 119.082   9 
  -8   6   7 1696.81 144.991  13 
   8  -6   8 4959.70 222.717  12 
   8   6  -8 5630.62 282.808  20 
   8  -6  -8 5668.95 238.368  19 
   8  -6   8 5678.16 267.215   7 
  -8   6  -8 5364.00 240.188  17 
   8  -6  -8 5902.10 262.481  11 
  -8   6  -8 4085.84 183.872   6 
   8   6  -8 4636.42 208.588  26 
  -8   6  -8 5696.38 235.302  25 
   8   6   8 5146.74 251.619  10 
  -8   6  -8 5611.29 236.645  24 
   8  -6  -8 5737.59 264.001  23 
   8  -6  -8 5579.11 253.507  22 
  -8  -6  -8 5304.38 209.337   9 
  -8   6   8 5742.73 257.790  13 
   8   6  -9 967.954 108.821  20 
   8  -6   9 900.673 98.7089   7 
  -8   6  -9 952.630 97.6012  17 
   8  -6  -9 1038.31 107.642  11 
  -8   6  -9 1050.92 94.4894  25 
   8   6   9 914.032 100.817  10 
  -8   6  -9 1000.36 91.9543  24 
   8  -6  -9 927.884 99.9901  23 
   8  -6  -9 1090.84 107.368  22 
  -8   6   9 1095.31 105.891  13 
   9   6   0 21.2085 43.7659  20 
   9  -6   0 8.43906 33.9002  19 
   9  -6   0-32.9343 35.7947   7 
   9   6   0 26.3129 36.9830  10 
   9  -6   0 119.449 49.6532  23 
   9  -6   0 24.8325 48.5581  22 
  -9   6   0 30.6294 35.9883  13 
   9   6   1 1617.82 174.043  20 
   9   6  -1 1739.62 182.751  20 
   9  -6  -1 1626.47 148.150  19 
   9  -6   1 1817.81 156.561  19 
   9  -6   1 1657.07 159.831   7 
   9  -6  -1 1698.97 148.824   7 
   9  -6  -1 1647.48 157.884  11 
   9   6   1 1366.63 149.112  10 
   9  -6  -1 1820.32 159.113  23 
   9  -6   1 1391.92 136.223  23 
   9  -6  -1 1686.66 160.982  22 
   9  -6   1 1327.98 137.666  22 
  -9   6   1 1810.19 152.937  13 
  -9   6  -1 1612.84 142.038  13 
   9   6   2 732.982 119.415  20 
   9   6  -2 490.636 104.655  20 
   9  -6  -2 751.323 104.412  19 
   9  -6   2 609.047 89.1589  19 
   9  -6   2 671.790 106.578   7 
   9  -6  -2 590.862 98.5725  11 
   9   6   2 527.459 95.6564  10 
   9  -6  -2 797.175 108.786  23 
   9  -6   2 680.305 95.7946  23 
   9  -6  -2 631.973 104.152  22 
  -9   6   2 717.844 97.0852  13 
  -9   6  -2 704.015 92.1126  13 
   9   6   3 3516.16 247.583  20 
   9   6  -3 3435.05 250.653  20 
   9  -6  -3 3593.48 214.722  19 
   9  -6   3 3196.21 194.571  19 
   9  -6   3 3835.11 236.397   7 
  -9   6  -3 3195.96 185.817  17 
   9  -6  -3 3258.12 217.602  11 
   9   6   3 3046.07 211.802  10 
   9  -6  -3 3678.82 229.064  23 
   9  -6  -3 3490.80 225.013  22 
  -9   6   3 3966.47 226.814  13 
  -9   6  -3 3360.34 195.510  13 
   9   6   4 4252.02 260.707  20 
   9   6  -4 4487.23 276.458  20 
   9  -6  -4 4173.29 225.778  19 
   9  -6   4 3963.63 204.595  19 
   9  -6   4 4936.08 273.176   7 
  -9   6  -4 4037.81 205.940  17 
   9  -6  -4 3848.95 231.731  11 
  -9   6  -4 4162.13 222.972  25 
   9   6   4 3851.00 232.289  10 
  -9   6  -4 4125.75 224.621  24 
   9  -6  -4 4142.79 236.832  23 
   9  -6  -4 3954.94 233.740  22 
  -9   6   4 4731.20 244.846  13 
  -9   6  -4 4357.59 210.734  13 
   9   6   5 18.0027 36.1247  20 
   9   6  -5 92.0898 58.5170  20 
   9  -6  -5 29.5398 32.6594  19 
  -9   6  -5 89.5207 36.9336  17 
   9  -6   5 145.777 58.0978   7 
   9  -6  -5 86.8196 47.6158  11 
  -9   6  -5 116.464 47.9020  25 
  -9   6  -5 69.7869 40.5960  24 
   9   6   5 156.259 54.3265  10 
   9  -6  -5 67.4216 38.9738  23 
   9  -6  -5 47.3695 44.5844  22 
  -9   6   5 21.3843 25.8829  13 
   9   6   6 158.382 54.7226  20 
   9   6  -6 148.896 59.7244  20 
   9  -6  -6 153.649 51.5027  19 
  -9   6  -6 106.031 40.6979  17 
   9  -6   6 160.257 56.0188   7 
   9  -6  -6 130.551 47.2727  11 
  -9   6  -6 143.422 43.1296  25 
  -9   6  -6 132.242 43.1312   6 
  -9   6  -6 196.907 51.4628  24 
   9   6   6 159.590 52.3531  10 
   9  -6  -6 159.859 50.6811  23 
   9  -6  -6 110.858 41.0756  22 
  -9   6   6 202.707 54.3104  13 
   9   6  -7 1302.48 131.995  20 
   9  -6  -7 1224.85 110.913  19 
   9  -6   7 1392.94 129.382   7 
   9  -6  -7 1238.76 119.409  11 
  -9   6  -7 1053.69 95.8637   6 
  -9   6  -7 1346.98 110.405  25 
   9   6   7 1118.66 114.465  10 
  -9   6  -7 1268.23 107.760  24 
   9  -6  -7 1206.63 117.829  23 
   9  -6  -7 1228.12 121.436  22 
  -9   6   7 1513.85 123.829  13 
   9  -6   8 4406.80 212.961   7 
   9  -6  -8 4156.20 206.420  11 
  -9   6  -8 3941.61 174.691  25 
  -9   6  -8 4230.90 179.572  24 
   9  -6  -8 4385.97 205.548  23 
   9  -6  -8 3936.09 200.012  22 
  -9   6   8 4699.65 206.760  13 
  10   6   0 4739.49 275.576  20 
  10  -6   0 4639.95 230.075  19 
  10  -6   0 4815.44 241.153  23 
 -10   6   0 4864.93 220.677  13 
  10   6   1 1735.50 166.075  20 
  10   6  -1 1719.21 167.544  20 
  10  -6  -1 1714.41 138.351  19 
  10  -6   1 1663.59 135.627  19 
  10  -6   1 1633.28 139.069   7 
  10  -6  -1 1559.99 139.378  23 
  10  -6   1 1792.12 144.379  23 
  10  -6  -1 1489.35 142.922  22 
 -10   6   1 1737.94 135.328  13 
 -10   6  -1 1653.07 125.851  13 
  10   6   2 633.525 105.992  20 
  10   6  -2 448.838 88.3723  20 
  10  -6  -2 485.859 76.1429  19 
  10  -6   2 533.632 79.8703  19 
  10  -6   2 489.447 80.7058   7 
  10  -6  -2 399.937 72.3371  23 
  10  -6   2 422.799 74.0187  23 
  10  -6  -2 399.207 80.1348  22 
 -10   6   2 512.502 73.6034  13 
 -10   6  -2 553.705 70.0214  13 
  10   6   3 32.8413 48.2553  20 
  10   6  -3 122.135 52.5735  20 
  10  -6  -3 39.3835 38.7975  19 
  10  -6   3 29.0447 28.8106   7 
  10  -6  -3 56.4784 38.4729  11 
 -10   6  -3 25.9765 33.6270  25 
 -10   6  -3 62.1139 35.5410  24 
  10   6   3-4.17599 29.6292  10 
  10  -6  -3 55.3444 35.3757  23 
  10  -6  -3 32.2915 44.4275  22 
 -10   6   3 33.7814 31.0014  13 
 -10   6  -3 9.68656 24.8310  13 
  10   6   4 1960.77 167.554  20 
  10   6  -4 2044.83 169.459  20 
  10  -6  -4 1791.56 138.229  19 
  10  -6   4 2035.13 152.350   7 
  10  -6  -4 1939.62 151.690  11 
 -10   6  -4 1906.87 137.908  25 
 -10   6  -4 1886.78 137.688  24 
  10  -6  -4 1640.69 142.805  23 
  10  -6  -4 1894.09 151.152  22 
 -10   6   4 2139.88 143.290  13 
  10   6   5 2417.60 174.943  20 
  10   6  -5 2445.63 179.634  20 
  10  -6  -5 2280.16 150.391  19 
  10  -6   5 2309.05 160.034   7 
  10  -6  -5 2132.39 156.968  11 
 -10   6  -5 2167.83 136.403  25 
 -10   6  -5 2262.86 140.445  24 
  10  -6  -5 2250.48 162.373  23 
  10  -6  -5 2214.82 160.038  22 
 -10   6   5 2396.32 148.881  13 
  10   6  -6 129.655 47.4059  20 
  10  -6  -6 88.4149 39.1713  19 
  10  -6   6 79.8726 37.1088   7 
  10  -6  -6 97.0373 41.8287  11 
  10  -6  -6 107.892 41.1500  23 
  10  -6  -6 71.5538 37.8573  22 
 -10   6   6 108.890 37.1161  13 
  11   6   0-16.8091 34.2029  20 
  11  -6   0 20.2495 26.7009  19 
  11  -6   0 40.4829 37.5502  23 
  11   6   1 107.187 47.9146  20 
  11   6  -1 139.575 51.4585  20 
  11  -6  -1 59.7594 36.1189  19 
  11  -6  -1 120.334 46.7642  23 
  11   6   2 327.847 72.6513  20 
  11   6  -2 356.176 72.6172  20 
  11  -6  -2 346.470 62.7728  19 
 -11   6  -2 142.452 40.9228  25 
 -11   6  -2 107.984 37.2915  24 
  11  -6  -2 258.100 58.8841  23 
  11   6   3 4900.19 241.116  20 
  11   6  -3 4875.24 240.350  20 
  11  -6  -3 4606.28 201.381  19 
  11  -6  -3 4403.86 209.263  23 
  11  -6  -4 3666.24 183.901  23 
   0   7   0-61.8628 62.4302   8 
   0  -7   0 33.0343 36.6518  19 
   0   7   0-41.4393 41.0578  26 
   0   7   0-9.05086 34.2711  10 
   0   7   0 12.8869 33.9590  13 
   0   7  -1 28.5404 44.1426   8 
   0  -7  -1 30.5263 49.6186  19 
   0  -7   1 44.0567 46.4058  19 
   0   7  -1-30.8340 37.7102  26 
   0   7   1-15.3421 34.7434  10 
   0   7   1-46.3423 41.0582  13 
   0   7  -1 67.5082 42.6683  13 
   0   7  -2-12.4204 52.6905  20 
   0   7  -2-13.4140 43.7578   8 
   0  -7  -2 57.1079 50.6398  19 
   0   7  -2-7.14253 34.8089  17 
   0   7  -2 25.0591 48.1681  26 
   0   7   2-0.95497 32.6508  10 
   0   7   2-4.97211 29.1250  13 
   0   7  -2 41.9176 36.0904  13 
   0   7  -3 58.3330 56.1306  20 
   0   7  -3 22.9462 48.5273   8 
   0  -7  -3-17.0142 39.3228  19 
   0   7  -3 54.2548 44.9972  17 
   0   7  -3 9.05161 34.8971  26 
   0   7   3-16.5771 38.3156  10 
   0   7   3 17.6861 31.6137  13 
   0   7  -4-16.4153 40.4798  20 
   0   7  -4 19.1544 64.6007   8 
   0  -7  -4-7.56257 38.1819  19 
   0   7  -4 2.43467 33.8805  17 
   0   7  -4 89.7088 49.5232  26 
   0   7   4 38.0970 43.9302  10 
   0   7  -5 11.8163 45.0810   8 
   0  -7  -5-27.5866 41.9533  19 
   0   7  -5 12.8792 36.1109  17 
   0   7  -5 16.0896 35.3579  26 
   0   7   5-2.35649 33.0081  10 
   0   7  -6-47.8353 56.8214   8 
   0  -7   6-40.8595 41.5799   7 
   0   7  -6 65.1456 43.9510  17 
   0   7  -6 46.5890 39.8555  26 
   0   7  -6-21.7921 34.1433  25 
   0   7  -6 31.7265 34.9212  24 
   0   7   6 4.78901 28.2750  10 
   0   7  -7 9.40998 41.3887   8 
   0  -7  -7 38.4400 48.6591  19 
   0  -7   7 3.11465 31.3778   7 
   0   7  -7 61.6568 43.1919  17 
   0   7  -7 34.5750 30.6903  26 
   0   7  -7 37.8720 33.8190  25 
   0   7  -7 48.6414 38.0574  24 
   0   7   7-20.3719 34.8356  10 
   0  -7  -8-33.8755 37.8783  19 
   0   7  -8 20.6833 45.6574   8 
   0  -7   8 47.2460 33.5301   7 
   0   7  -8 42.2678 38.8525  17 
   0   7  -8 24.1851 34.5459  26 
   0   7  -8 55.7464 33.0733  25 
   0   7  -8 40.9696 34.2316  24 
   0   7   8 8.48549 27.3909  10 
   0  -7  -9-5.47652 27.8368  19 
   0   7  -9 79.7219 49.8734   8 
   0   7  -9-35.0827 33.2173  17 
   0   7  -9 28.6632 28.8653  26 
   0  -7 -10-25.9270 25.3645  19 
  -1   7   0-3.26947 44.5138   8 
  -1  -7   0-24.1469 40.5398  19 
   1  -7   0-18.9461 35.0790  19 
   1   7   0 53.3322 49.6180  26 
  -1   7   0-20.3855 33.2988  26 
   1   7   0-9.03003 42.4121  10 
  -1   7   0-39.3473 40.3398  13 
   1   7   0-10.4451 27.2692  13 
   1   7  -1 19956.8 588.967  20 
  -1  -7  -1 19059.6 518.373  19 
  -1  -7   1 21312.6 502.891  19 
   1  -7  -1 21481.7 548.934  19 
   1  -7   1 22841.7 535.992  19 
  -1   7   1 22330.8 589.286  26 
   1   7  -1 20949.6 594.015  26 
  -1   7  -1 20646.9 571.351  26 
  -1   7  -1 17524.4 459.604  25 
  -1   7  -1 16278.3 445.761  24 
   1   7   1 19334.8 564.863  10 
  -1   7   1 21462.9 557.736  10 
   1   7  -1 19751.9 570.397  10 
  -1   7   1 20878.9 533.916  13 
  -1   7  -1 21015.2 540.273  13 
   1   7  -1 20500.7 494.725  13 
   1   7  -1 20724.7 668.062   8 
  -1   7   1 22524.0 681.190   8 
  -1   7  -1 20919.1 666.922   8 
   1   7  -2 28705.9 726.983  20 
  -1  -7  -2 25701.3 611.619  19 
   1  -7  -2 28965.4 650.816  19 
  -1   7  -2 28366.0 703.912  17 
   1   7  -2 26125.8 665.028  17 
   1   7  -2 25908.4 669.055  26 
  -1   7  -2 29386.8 682.614  26 
  -1   7  -2 24567.8 550.286  25 
   1   7   2 26809.4 663.131  10 
  -1   7  -2 23745.5 540.499  24 
  -1   7   2 24684.0 595.940  10 
  -1   7   2 28515.3 625.205  13 
  -1   7  -2 27732.9 623.167  13 
   1   7  -2 28016.7 771.813   8 
  -1   7  -2 27735.3 763.873   8 
   1   7  -3 15000.7 524.960  20 
  -1  -7  -3 16287.1 485.252  19 
   1  -7  -3 14964.7 467.054  19 
  -1   7  -3 15211.0 502.857  17 
   1   7  -3 14479.5 477.737  17 
   1   7  -3 14278.6 487.501  26 
  -1   7  -3 16164.7 498.090  26 
  -1   7  -3 13354.4 402.051  25 
   1   7   3 15942.7 501.388  10 
  -1   7  -3 12660.4 390.952  24 
  -1   7   3 13617.4 432.072  10 
  -1   7   3 14816.1 438.077  13 
  -1   7  -3 14720.1 446.982  13 
   1   7  -3 15163.3 553.674   8 
  -1   7  -3 14907.6 555.200   8 
   1   7  -4 1206.58 152.767  20 
  -1  -7  -4 1190.79 130.680  19 
   1  -7  -4 1181.27 133.265  19 
   1   7  -4 1132.85 154.150   8 
  -1   7  -4 1183.56 156.371   8 
  -1   7  -4 1263.35 144.138  17 
   1   7  -4 1231.72 137.894  17 
   1   7  -4 1298.85 148.614  26 
  -1   7  -4 1171.09 135.438  26 
  -1   7  -4 1127.32 114.987  25 
   1   7   4 1228.30 136.546  10 
  -1   7   4 1056.70 120.885  10 
  -1   7  -4 1139.21 113.121  24 
  -1   7   4 1109.95 118.539  13 
   1   7  -5 5608.34 321.365   8 
  -1   7  -5 6033.65 338.100   8 
   1   7  -5 5567.11 317.158  20 
  -1  -7  -5 6033.45 289.396  19 
   1  -7  -5 5505.48 275.806  19 
  -1   7  -5 5458.65 289.983  17 
   1   7  -5 5339.34 270.991  17 
   1   7  -5 5938.32 303.786  26 
  -1   7  -5 5443.76 277.908  26 
  -1   7  -5 5386.60 248.013  25 
   1   7   5 5366.10 280.174  10 
  -1   7   5 4944.77 249.632  10 
  -1   7  -5 5093.24 241.428  24 
  -1   7   5 5587.63 253.132  13 
  -1  -7  -6 1176.25 132.216  19 
   1  -7  -6 1126.43 124.112  19 
   1   7  -6 1038.08 136.716   8 
  -1   7  -6 1052.17 136.305   8 
   1  -7   6 1024.75 125.623   7 
  -1   7  -6 1011.81 124.931  17 
   1   7  -6 978.451 113.875  17 
   1   7  -6 1129.42 135.486  26 
  -1   7  -6 959.874 120.452  26 
  -1   7  -6 1021.21 111.059  25 
   1   7   6 1015.37 122.749  10 
  -1   7  -6 966.479 106.710  24 
   1   7  -7 789.382 118.065   8 
  -1  -7  -7 939.981 111.872  19 
  -1   7  -7 912.574 126.095   8 
   1  -7  -7 787.328 102.283  19 
  -1  -7   7 704.953 97.4044   7 
   1  -7   7 851.187 106.868   7 
  -1   7  -7 773.831 108.153  17 
   1   7  -7 694.465 92.5257  17 
   1   7  -7 894.345 113.413  26 
  -1   7  -7 714.410 100.372  26 
  -1   7  -7 676.769 86.6420  25 
  -1   7  -7 714.687 87.4589  24 
   1   7   7 823.397 105.738  10 
  -1  -7  -8 545.432 82.6054  19 
   1  -7  -8 609.311 83.5101  19 
   1   7  -8 682.617 99.2780   8 
  -1   7  -8 544.090 92.6305   8 
   1  -7   8 410.831 70.6766   7 
  -1   7  -8 537.045 84.5257  17 
   1   7  -8 409.828 72.7808  17 
   1   7  -8 557.683 90.6847  26 
  -1   7  -8 602.563 84.2030  26 
  -1   7  -8 566.506 76.1762  25 
  -1   7  -8 558.702 77.3867  24 
   1   7   8 572.680 84.6038  10 
  -1  -7  -9 70.1886 42.4241  19 
   1  -7  -9 91.7780 38.8791  19 
   1   7  -9 64.7135 35.2389   8 
  -1   7  -9-16.1351 36.9450   8 
  -1   7  -9 48.7859 35.2893  17 
   1   7  -9-31.3172 25.3058  26 
  -1   7  -9 18.0135 26.8469  26 
  -1   7  -9 20.4252 24.4274  25 
  -1   7  -9 31.2822 24.0189  24 
   1   7   9 0.60548 30.6580  10 
  -1  -7 -10 4834.06 203.501  19 
   1  -7 -10 4604.47 194.743  19 
   1   7 -10 4570.80 205.764  26 
   1  -7  10 4174.00 201.174  12 
   2   7   0 32273.5 749.282  20 
  -2  -7   0 30892.9 623.563  19 
   2  -7   0 33574.1 685.224  19 
   2   7   0 29432.7 714.461  26 
  -2   7   0 30666.6 678.322  26 
   2   7   0 31649.4 738.749  10 
  -2   7   0 30438.5 669.406  13 
  -2   7   0 31137.0 797.203   8 
   2   7  -1 91807.4 1350.00  20 
  -2  -7  -1 89988.5 1162.87  19 
   2  -7  -1 93907.0 1210.59  19 
   2  -7   1 93014.9 1156.48  19 
  -2   7   1 88043.1 1192.98  26 
   2   7  -1 94796.5 1328.07  26 
  -2   7  -1 88479.9 1201.53  26 
  -2   7  -1 80519.3 1078.72  25 
  -2   7  -1 79980.9 1078.79  24 
   2   7   1 93938.2 1320.12  10 
   2   7  -1 101547. 1365.73  10 
  -2   7   1 92685.2 1219.35  13 
  -2   7  -1 91761.5 1217.05  13 
  -2   7   1 97051.3 1443.96   8 
  -2   7  -1 89378.4 1400.55   8 
   2   7  -2 39564.0 866.924  20 
  -2  -7  -2 39042.0 747.105  19 
   2  -7  -2 39539.0 765.624  19 
   2  -7   2 35474.0 657.300  19 
  -2   7  -2 40255.0 846.816  17 
   2   7  -2 33034.3 725.876  17 
  -2   7   2 38534.0 750.585  26 
   2   7  -2 36803.2 796.826  26 
  -2   7  -2 37010.3 745.154  26 
  -2   7  -2 34798.7 673.199  25 
   2   7   2 36609.8 790.769  10 
  -2   7  -2 34202.7 671.178  24 
  -2   7   2 36397.3 725.209  13 
  -2   7  -2 37510.9 742.670  13 
   2   7  -2 38339.7 896.523   8 
  -2   7   2 38070.6 863.464   8 
  -2   7  -2 40224.0 910.299   8 
  -2   7  -3 9445.57 433.826   8 
   2   7  -3 9196.85 415.223  20 
  -2  -7  -3 9331.13 361.890  19 
   2  -7  -3 9903.28 374.146  19 
  -2   7  -3 8786.38 383.325  17 
   2   7  -3 8114.36 342.671  17 
   2   7  -3 9351.75 391.085  26 
  -2   7  -3 8584.70 347.996  26 
  -2   7  -3 8848.37 328.179  25 
   2   7   3 8625.86 371.732  10 
  -2   7  -3 8653.06 326.193  24 
  -2   7   3 9072.69 349.144  13 
  -2   7  -3 8865.11 347.830  13 
  -2   7   3 8715.50 397.350   8 
   2   7  -3 9131.15 426.689   8 
  -2   7  -4 5598.31 325.727   8 
   2   7  -4 5672.59 325.259  20 
  -2  -7  -4 5674.81 282.713  19 
   2  -7  -4 6057.81 293.844  19 
  -2   7  -4 5656.58 296.148  17 
   2   7  -4 4732.49 253.020  17 
   2   7  -4 5675.64 302.835  26 
  -2   7  -4 5024.87 265.166  26 
  -2   7  -4 5072.60 252.540  25 
   2   7   4 5196.55 280.625  10 
  -2   7  -4 4998.87 250.069  24 
  -2   7   4 5396.62 265.211  13 
  -2   7  -4 5406.53 267.292  13 
  -2   7   4 5690.64 314.643   8 
   2   7  -4 5297.00 316.456   8 
   2   7  -5 3219.12 237.936   8 
  -2   7  -5 3541.14 258.304   8 
   2   7  -5 3365.55 248.921  20 
  -2  -7  -5 3555.16 221.687  19 
   2  -7  -5 3679.76 224.678  19 
   2  -7   5 3395.61 228.599   7 
  -2   7  -5 3311.78 223.266  17 
   2   7  -5 2835.48 188.166  17 
   2   7  -5 3154.60 221.370  26 
  -2   7  -5 3529.01 214.076  26 
  -2   7  -5 3147.10 197.382  25 
   2   7   5 2951.97 211.291  10 
  -2   7  -5 3233.25 199.983  24 
  -2   7   5 3087.02 193.675  13 
  -2   7   5 3228.12 225.566   8 
   2   7  -6 34.7453 41.6458  20 
  -2   7   6 52.5030 37.1478   8 
   2   7  -6 63.7616 50.1432   8 
  -2  -7  -6 53.9623 36.1872  19 
  -2   7  -6-23.6941 46.7816   8 
   2  -7  -6 62.5365 51.0430  19 
   2  -7   6 81.4244 45.7205   7 
  -2   7  -6 11.0045 36.6236  17 
   2   7  -6 79.2141 36.9478  17 
   2   7  -6 104.918 47.9623  26 
  -2   7  -6 67.1959 41.9208  26 
  -2   7  -6 16.9961 29.4090  25 
  -2   7  -6 92.4052 45.9999  24 
   2   7   6 39.2345 37.0232  10 
  -2   7   6 30.8995 41.4300  13 
   2   7  -7 2308.46 183.590   8 
  -2   7  -7 2210.51 189.520   8 
  -2  -7  -7 2329.88 170.521  19 
   2  -7  -7 2354.94 169.665  19 
   2  -7   7 2131.07 169.169   7 
  -2   7  -7 2213.15 175.644  17 
   2   7  -7 2077.53 170.224  26 
  -2   7  -7 1975.51 149.315  26 
  -2   7  -7 1997.08 149.116  25 
   2   7   7 2111.09 170.606  10 
  -2   7  -7 2014.10 148.602  24 
  -2   7   7 1942.26 144.657  13 
  -2  -7  -8 600.845 84.6999  19 
   2  -7  -8 673.364 88.5846  19 
   2   7  -8 584.972 89.7024   8 
  -2   7  -8 564.840 95.8257   8 
   2  -7   8 593.920 80.2609   7 
  -2   7  -8 621.210 88.9596  17 
   2   7  -8 689.938 97.9553  26 
  -2   7  -8 505.126 70.8493  26 
  -2   7  -8 565.171 77.4456  25 
  -2   7  -8 551.873 74.7077  24 
   2   7   8 554.317 84.4435  10 
   2  -7   9 1603.16 132.217  12 
  -2   7  -9 1543.43 141.354   8 
  -2  -7  -9 1864.89 136.148  19 
   2  -7  -9 1757.96 130.776  19 
  -2   7  -9 1519.55 130.326  17 
   2   7  -9 1788.40 139.765  26 
  -2   7  -9 1591.77 119.588  25 
   2   7   9 1506.42 128.123  10 
  -2   7  -9 1690.49 123.725  24 
  -2  -7 -10 178.083 42.7251  19 
   2  -7  10 180.242 45.9500  12 
   2   7 -10 157.720 44.5692  26 
   3   7   0-40.0921 57.1705  20 
  -3   7   0-67.0583 58.8141   8 
  -3  -7   0-40.5337 43.9398  19 
   3  -7   0 23.4684 43.3806  19 
   3   7   0-31.5324 42.7720  26 
  -3   7   0 14.2087 42.2360  26 
   3   7   0-49.3583 50.3752  10 
  -3   7   0 6.57543 31.9898  13 
   3   7   1 27314.9 680.172  20 
   3   7  -1 26941.0 704.769  20 
  -3  -7  -1 28502.5 604.828  19 
   3  -7  -1 27435.5 621.585  19 
   3  -7   1 27260.4 594.023  19 
  -3   7  -1 30412.4 726.829  17 
   3   7  -1 22789.9 574.178  17 
   3   7  -1 27494.1 677.957  26 
  -3   7   1 26343.3 586.892  26 
  -3   7  -1 25398.0 577.924  26 
   3   7   1 28878.4 698.495  10 
   3   7  -1 27804.4 690.367  10 
   3  -7  -1 27083.1 586.047  23 
  -3   7   1 27029.0 630.285  13 
  -3   7  -1 28001.7 642.247  13 
  -3   7   1 28996.1 733.672   8 
  -3   7  -1 27554.1 732.618   8 
  -3   7  -2 11924.9 477.613   8 
   3   7  -2 11307.4 456.540  20 
  -3  -7  -2 11523.2 390.053  19 
   3  -7  -2 12831.8 423.298  19 
   3  -7   2 12325.2 379.483  19 
  -3   7  -2 11279.1 435.528  17 
   3   7  -2 9619.59 366.809  17 
  -3   7   2 10720.6 365.826  26 
   3   7  -2 11730.5 440.570  26 
  -3   7  -2 10463.9 363.832  26 
  -3   7  -2 10951.6 379.904  25 
   3   7   2 11006.4 426.826  10 
  -3   7  -2 10838.1 378.179  24 
   3  -7  -2 11567.2 389.014  23 
  -3   7   2 11382.0 402.130  13 
  -3   7  -2 11393.9 405.068  13 
   3   7  -2 11488.6 473.425   8 
  -3   7   2 11697.2 452.146   8 
  -3   7  -3 6631.51 356.871   8 
   3   7  -3 6238.70 338.755  20 
  -3  -7  -3 6363.50 290.280  19 
   3  -7  -3 6203.53 294.732  19 
  -3   7  -3 6439.47 323.181  17 
   3   7  -3 4912.82 250.860  17 
   3   7  -3 5820.27 307.098  26 
  -3   7  -3 5737.74 265.327  26 
  -3   7  -3 5900.11 276.145  25 
   3   7   3 5868.09 306.587  10 
  -3   7  -3 5465.13 267.855  24 
  -3   7   3 6315.96 293.371  13 
  -3   7  -3 6225.15 293.568  13 
   3   7  -3 6059.81 335.630   8 
  -3   7   3 6321.27 326.022   8 
  -3   7  -4 6177.94 341.023   8 
   3   7  -4 5650.35 321.961  20 
  -3  -7  -4 5609.75 274.937  19 
   3  -7  -4 6347.47 295.492  19 
   3  -7   4 6085.16 311.772   7 
  -3   7  -4 5978.91 301.803  17 
   3   7  -4 5669.36 296.436  26 
  -3   7  -4 5755.81 270.225  25 
   3   7   4 5634.37 294.521  10 
  -3   7  -4 5444.88 264.568  24 
  -3   7   4 5714.47 276.225  13 
  -3   7  -4 5792.84 278.405  13 
  -3   7   4 6196.06 308.909   8 
   3   7  -4 5553.51 311.621   8 
  -3   7  -5 20890.5 610.292   8 
   3   7  -5 20601.9 614.808  20 
  -3  -7  -5 18781.2 503.937  19 
   3  -7  -5 21131.8 534.195  19 
   3  -7   5 20077.3 555.332   7 
  -3   7  -5 19878.4 546.446  17 
   3   7  -5 20459.8 559.545  26 
  -3   7  -5 19753.3 493.681  25 
   3   7   5 18732.6 531.619  10 
  -3   7  -5 19415.9 489.109  24 
  -3   7   5 19797.6 508.530  13 
   3   7  -5 19271.8 565.781   8 
  -3   7  -6 1278.49 149.009   8 
   3   7  -6 1239.23 148.632  20 
  -3  -7  -6 1164.04 124.090  19 
   3  -7  -6 1155.72 121.004  19 
   3   7  -6 1050.97 127.275   8 
   3  -7   6 1173.16 127.902   7 
  -3   7  -6 1183.45 132.478  17 
   3   7  -6 1250.97 135.411  26 
  -3   7  -6 1104.29 116.034  25 
   3   7   6 1079.79 128.092  10 
  -3   7  -6 1167.43 118.180  24 
  -3   7   6 1117.51 118.714  13 
   3  -7   6 980.975 112.788  12 
   3   7  -7 90.5242 49.8208  20 
   3   7  -7 95.2504 51.7116   8 
  -3  -7  -7 122.885 46.6393  19 
   3  -7  -7 125.004 49.7296  19 
  -3   7  -7 71.4275 48.3346   8 
   3  -7   7 91.6812 48.7005  12 
   3  -7   7 69.5268 40.2025   7 
  -3   7  -7 110.948 48.8879  17 
   3   7  -7 95.0510 44.6304  26 
  -3   7  -7 84.0531 39.9342  25 
  -3   7  -7 70.1542 39.3811  24 
   3   7   7 68.2401 43.7462  10 
  -3   7   7 81.5569 35.2568  13 
  -3  -7  -8 155.291 52.8791  19 
   3  -7  -8 111.467 46.0299  19 
  -3   7  -8 123.356 55.9607   8 
   3  -7   8 136.083 47.3120  12 
  -3   7  -8 132.682 51.3880  17 
   3  -7   8 106.050 45.9598   7 
   3   7  -8 44.7838 29.5844  26 
  -3   7  -8 138.057 45.3876  25 
  -3   7  -8 95.1006 37.0827  24 
   3   7   8 113.901 40.1152  10 
  -3   7   8 155.620 43.4488  13 
  -3  -7  -9 290.743 59.0080  19 
   3  -7  -9 170.779 43.2282  19 
  -3   7  -9 252.388 64.7701   8 
   3  -7   9 137.674 45.3668  12 
  -3   7  -9 379.602 66.4780  17 
   3   7  -9 303.292 60.5255  26 
  -3   7  -9 170.192 46.8039  25 
  -3   7  -9 153.908 42.3730  24 
   3   7   9 167.442 47.4015  10 
  -4   7   0 13102.7 476.799   8 
   4   7   0 12459.4 465.711  20 
   4  -7   0 12742.5 407.112  19 
   4   7   0 11719.0 429.241  26 
   4   7   0 12493.0 457.183  10 
  -4   7   0 12246.4 418.879  13 
   4   7   1 51.1457 51.6802  20 
   4   7  -1 47.2594 57.9844  20 
  -4   7   1-75.0748 54.2046   8 
  -4   7  -1 11.1028 38.3226   8 
  -4  -7  -1-4.21376 33.6676  19 
   4  -7  -1 17.3937 35.6271  19 
   4  -7   1 6.60579 36.5740  19 
  -4   7  -1 23.7966 39.9390  17 
   4   7  -1 37.0531 42.1568  26 
   4   7   1 4.58232 45.5228  10 
   4  -7  -1-6.55708 32.3974  23 
  -4   7   1-58.2153 46.4476  13 
  -4   7  -1 33.4992 31.2263  13 
  -4   7   2 37903.7 785.089   8 
  -4   7  -2 37809.9 831.130   8 
   4   7   2 35391.0 753.835  20 
   4   7  -2 36482.2 834.578  20 
  -4  -7  -2 37574.0 697.399  19 
   4  -7  -2 38204.2 732.688  19 
   4  -7   2 38014.5 678.171  19 
   4  -7   2 34156.0 758.003   7 
  -4   7  -2 40058.9 818.542  17 
   4   7  -2 34785.9 753.451  26 
   4   7   2 37880.8 796.982  10 
   4  -7  -2 34806.2 680.465  23 
  -4   7   2 36127.5 728.596  13 
  -4   7  -2 35094.6 719.381  13 
   4   7  -2 36217.1 827.627   8 
  -4   7   3 11052.0 400.182   8 
  -4   7  -3 11475.4 449.870   8 
   4   7  -3 10161.6 432.323  20 
  -4  -7  -3 10194.1 359.331  19 
   4  -7  -3 10827.5 380.754  19 
   4  -7   3 9569.82 387.578   7 
  -4   7  -3 10558.5 407.693  17 
   4   7  -3 10216.9 398.087  26 
  -4   7  -3 10666.3 369.122  25 
   4   7   3 10453.4 406.640  10 
  -4   7  -3 10466.3 365.273  24 
   4  -7  -3 9553.90 353.657  23 
  -4   7   3 10447.3 381.026  13 
  -4   7  -3 10652.4 381.299  13 
   4   7  -3 10364.4 423.976   8 
  -4   7  -4 4072.10 266.151   8 
   4   7  -4 4030.15 269.558  20 
  -4  -7  -4 4451.80 236.422  19 
   4  -7  -4 4067.72 231.348  19 
   4  -7   4 3999.30 245.234   7 
  -4   7  -4 4188.40 247.816  17 
   4   7  -4 4157.30 252.154  26 
  -4   7  -4 3891.77 219.630  25 
   4   7   4 4053.22 247.396  10 
  -4   7  -4 3872.33 220.314  24 
   4  -7  -4 4493.13 238.567  23 
  -4   7   4 4037.48 230.160  13 
  -4   7  -4 4136.27 232.152  13 
   4   7  -4 3687.45 244.373   8 
   4   7  -5 5706.73 289.356   8 
   4  -7   5 4833.91 233.647  12 
   4   7  -5 5567.05 311.796  20 
  -4   7  -5 5986.00 312.406   8 
  -4  -7  -5 6010.24 272.695  19 
   4  -7  -5 5915.32 273.721  19 
   4  -7   5 5378.56 275.229   7 
  -4   7  -5 5713.00 282.972  17 
   4   7  -5 5640.02 284.551  26 
  -4   7  -5 5344.43 255.840  25 
   4   7   5 5626.90 287.748  10 
  -4   7  -5 5556.64 258.499  24 
   4  -7  -5 5977.94 275.629  23 
  -4   7   5 5901.75 272.958  13 
   4   7  -6 42.4252 47.2740  20 
   4   7  -6 47.4008 45.8844   8 
  -4  -7  -6 25.0264 33.4214  19 
   4  -7  -6-9.50873 34.2139  19 
  -4   7  -6 22.5115 41.3269   8 
   4  -7   6 51.1098 36.4226  12 
   4  -7   6 108.989 50.1005   7 
  -4   7  -6 48.4362 39.6388  17 
   4   7  -6 77.0423 48.0131  26 
  -4   7  -6 34.4508 28.6892  25 
  -4   7  -6 68.9194 36.0676  24 
   4   7   6 34.4229 39.3364  10 
  -4   7   6 8.09460 27.1155  13 
   4   7  -7 123.058 59.3493  20 
  -4  -7  -7 187.555 51.6452  19 
   4  -7  -7 221.511 53.6523  19 
  -4   7  -7 148.542 60.9250   8 
   4  -7   7 185.798 49.9259  12 
  -4   7  -7 134.803 45.6739  17 
   4  -7   7 128.708 49.4846   7 
   4   7  -7 130.025 49.9112  26 
  -4   7  -7 95.2165 35.4927  25 
  -4   7  -7 189.094 52.9406  24 
   4   7   7 169.343 55.2707  10 
   4  -7  -7 159.768 50.1979  23 
  -4   7   7 186.696 52.3861  13 
  -4  -7  -8 345.275 65.9944  19 
   4  -7  -8 297.305 56.1857  19 
  -4   7  -8 327.173 74.7200   8 
   4  -7   8 294.500 56.4642  12 
  -4   7  -8 280.442 62.0151  17 
   4  -7   8 297.909 62.7615   7 
   4   7  -8 279.541 59.4123  26 
  -4   7  -8 282.610 56.5153  25 
  -4   7  -8 276.853 54.4521  24 
   4   7   8 329.549 65.6760  10 
   4  -7  -8 287.152 59.7467  23 
  -4   7   8 205.995 49.8546  13 
  -4  -7  -9 11.4584 23.8555  19 
  -4   7  -9 9.64162 31.5913  17 
   4   7  -9-9.26703 25.4625  26 
  -4   7  -9-11.8764 24.6864  25 
  -4   7  -9 20.4301 24.0701  24 
   4   7   9 1.19445 21.6911  10 
   4  -7  -9 28.3659 29.0812  23 
   5   7   0 25.8727 43.2974  20 
  -5   7   0 26.9814 40.0206   8 
   5  -7   0-26.1304 34.4064  19 
   5  -7   0-0.23045 43.1008   7 
  -5   7   0-28.5630 39.7004  17 
   5   7   0-30.8906 35.2778  26 
   5   7   0 15.0419 36.9921  10 
  -5   7   0 41.8466 35.2562  13 
  -5   7   1 7213.81 321.638   8 
  -5   7  -1 7262.02 336.557   8 
   5   7   1 7771.68 357.632  20 
   5   7  -1 7213.51 352.910  20 
   5  -7  -1 8730.83 335.961  19 
   5  -7   1 7179.69 294.041  19 
   5  -7  -1 6183.89 296.827   7 
   5  -7   1 6814.27 320.181   7 
  -5   7   1 7564.31 343.646  17 
  -5   7  -1 7499.14 340.217  17 
   5   7   1 7120.84 320.853  26 
   5   7  -1 6871.38 321.027  26 
   5   7   1 7064.65 340.248  10 
   5   7  -1 6338.56 318.221  10 
   5  -7  -1 7926.29 307.967  23 
  -5   7   1 7586.35 320.676  13 
  -5   7  -1 7039.76 309.354  13 
   5   7   2 1263.62 140.500  20 
   5   7  -2 1269.70 156.996  20 
  -5   7  -2 1420.63 154.263   8 
  -5  -7  -2 1315.00 122.410  19 
   5  -7  -2 1365.01 135.117  19 
   5  -7   2 1324.75 122.709  19 
   5  -7  -2 1132.22 128.344   7 
   5  -7   2 1284.14 139.714   7 
  -5   7  -2 1561.37 160.771  17 
   5   7  -2 1354.13 144.378  26 
   5   7   2 1201.07 140.557  10 
   5  -7  -2 1263.15 126.479  23 
  -5   7   2 1432.08 140.693  13 
  -5   7  -2 1367.72 135.898  13 
   5   7  -2 1371.60 152.589   8 
   5   7  -3 36.6066 38.3875  20 
   5   7  -3 66.1535 51.2680   8 
  -5  -7  -3 45.2248 32.9365  19 
  -5   7  -3 27.2499 41.7181   8 
   5  -7  -3 29.8277 45.8281  19 
   5  -7  -3 86.5448 49.6340   7 
   5  -7   3 70.8352 46.8487   7 
  -5   7  -3 21.7038 33.5252  17 
   5   7  -3 40.5258 34.7479  26 
  -5   7  -3 24.4734 30.1189  25 
  -5   7  -3 22.1530 34.4790  24 
   5   7   3 27.5164 31.5719  10 
   5  -7  -3 41.0797 39.6869  23 
  -5   7   3 33.6763 37.0868  13 
  -5   7  -3 31.9461 36.5183  13 
   5   7  -4 3404.53 245.289  20 
  -5   7  -4 3888.51 248.140   8 
  -5  -7  -4 3545.41 203.888  19 
   5  -7  -4 3567.40 212.009  19 
   5  -7   4 3220.24 215.916   7 
  -5   7  -4 3631.50 225.049  17 
   5   7  -4 3312.52 213.481  26 
  -5   7  -4 3638.72 206.825  25 
   5   7   4 3129.53 217.023  10 
  -5   7  -4 3466.63 204.134  24 
   5  -7  -4 3849.70 219.274  23 
  -5   7   4 3435.81 210.651  13 
  -5   7  -4 2855.70 187.191  13 
   5   7  -4 3257.93 216.887   8 
   5   7  -5 994.442 132.392  20 
  -5  -7  -5 1072.08 110.499  19 
   5  -7  -5 1055.17 113.337  19 
   5   7  -5 803.971 104.972   8 
  -5   7  -5 990.113 124.840   8 
   5  -7   5 1057.04 122.167   7 
  -5   7  -5 1016.47 119.070  17 
   5   7  -5 958.136 114.982  26 
  -5   7  -5 1082.30 111.433  25 
   5   7   5 926.479 119.718  10 
  -5   7  -5 955.754 106.189  24 
   5  -7  -5 1026.86 114.457  23 
  -5   7   5 936.167 110.780  13 
   5   7  -6 684.339 106.497  20 
  -5  -7  -6 570.569 85.2436  19 
   5  -7  -6 523.966 78.3532  19 
  -5   7  -6 537.363 93.2147   8 
  -5   7  -6 510.705 86.6422  17 
   5  -7   6 495.686 80.9036   7 
   5   7  -6 492.001 84.3117  26 
  -5   7  -6 480.892 75.9595  25 
  -5   7  -6 472.795 73.4164  24 
   5   7   6 470.001 86.4069  10 
   5  -7  -6 454.521 79.0867  23 
  -5   7   6 494.042 77.6670  13 
   5   7  -7 1695.23 156.043  20 
  -5  -7  -7 1796.45 135.332  19 
  -5   7  -7 1764.72 152.125   8 
   5  -7  -7 1652.54 130.358  19 
   5  -7   7 1589.61 137.487   7 
  -5   7  -7 1744.91 141.162  17 
   5   7  -7 1665.08 137.492  26 
  -5   7  -7 1611.99 124.873  25 
   5   7   7 1572.86 141.857  10 
  -5   7  -7 1669.24 127.332  24 
   5  -7  -7 1510.41 131.012  23 
  -5   7   7 1590.94 130.575  13 
  -5  -7  -8 7342.52 259.228  19 
   5  -7  -8 7759.62 263.093  19 
   5  -7   8 7418.85 274.819   7 
  -5   7  -8 7656.90 273.526  17 
   5   7  -8 7399.04 271.848  26 
  -5   7  -8 7255.82 248.629  25 
   5   7   8 7068.74 274.380  10 
  -5   7  -8 7332.69 248.402  24 
   5  -7  -8 7759.09 277.792  23 
  -5   7   8 7168.84 252.609  13 
   6   7   0 1343.98 147.952  20 
   6  -7   0 1282.71 127.265  19 
  -6   7   0 1025.93 118.411   8 
   6  -7   0 1162.87 125.975   7 
  -6   7   0 1153.49 127.889  17 
   6   7   0 1256.42 129.463  26 
   6   7   0 1071.13 132.560  10 
  -6   7   0 1195.69 124.122  13 
   6   7   1-12.0821 41.1845  20 
   6   7  -1-15.7056 44.6904  20 
  -6   7  -1-8.42604 39.9167   8 
   6  -7  -1 140.816 51.7593  19 
   6  -7   1 3.26638 35.0526  19 
   6  -7  -1 42.0637 32.5086   7 
  -6   7   1 80.6978 45.1568  17 
   6  -7   1 69.6052 49.9687   7 
  -6   7  -1 13.4131 30.1481  17 
   6   7   1 5.33096 33.0448  26 
   6   7  -1 27.5602 38.4192  26 
   6   7   1-14.5895 35.2416  10 
   6  -7  -1 54.5743 40.2762  23 
  -6   7   1 35.2083 28.4037  13 
  -6   7  -1 16.1445 33.0578  13 
   6   7   2 415.144 82.9535  20 
   6   7  -2 437.214 91.2647  20 
   6   7  -2 450.920 85.2288   8 
  -6  -7  -2 483.322 73.4808  19 
  -6   7  -2 507.731 90.0842   8 
   6  -7  -2 457.581 77.2342  19 
   6  -7   2 411.808 67.0821  19 
  -6   7   2 353.639 70.3943  17 
   6  -7  -2 296.853 61.9346   7 
  -6   7  -2 467.126 84.2216  17 
   6  -7   2 477.313 86.3680   7 
   6   7   2 527.229 89.3751  26 
   6   7  -2 412.386 80.8232  26 
   6   7   2 460.430 85.2454  10 
   6  -7  -2 426.525 70.8766  23 
  -6   7   2 432.356 77.9425  13 
  -6   7  -2 448.418 78.3352  13 
   6   7   3 2220.41 173.084  20 
   6   7  -3 2453.06 201.009  20 
  -6   7  -3 2496.12 187.433   8 
  -6  -7  -3 2536.10 160.661  19 
   6  -7  -3 2369.09 170.618  19 
   6  -7   3 2259.19 174.167   7 
  -6   7   3 2062.30 163.473  17 
  -6   7  -3 2285.97 176.623  17 
   6   7   3 2310.65 169.258  26 
   6   7  -3 2389.95 177.100  26 
  -6   7  -3 2274.71 164.015  25 
   6   7   3 2207.19 180.576  10 
  -6   7  -3 2294.03 163.783  24 
   6  -7  -3 2547.45 173.222  23 
  -6   7   3 2355.38 170.428  13 
  -6   7  -3 2155.33 167.492  13 
   6   7  -3 1916.71 159.884   8 
   6   7  -4 1645.95 163.194  20 
  -6   7  -4 1895.79 160.776   8 
  -6  -7  -4 1992.06 142.779  19 
   6  -7  -4 2161.62 156.337  19 
   6  -7   4 1882.87 154.885   7 
  -6   7  -4 1776.69 150.084  17 
   6   7  -4 1766.49 149.849  26 
  -6   7  -4 1749.48 140.982  25 
   6   7   4 1641.30 156.300  10 
  -6   7  -4 1669.14 136.891  24 
   6  -7  -4 1857.29 145.893  23 
  -6   7   4 1675.90 142.936  13 
  -6   7  -4 1873.34 144.333  13 
   6   7  -5 76.5283 41.7590  20 
  -6  -7  -5 37.4820 28.5077  19 
   6  -7  -5 38.9979 33.7138  19 
  -6   7  -5 32.0922 38.9130   8 
  -6   7  -5 95.3008 41.1440  17 
   6  -7   5 91.7262 43.6910   7 
   6   7  -5 41.9165 34.1422  26 
  -6   7  -5 51.2877 30.1120  25 
  -6   7  -5 85.2097 40.6785  24 
   6   7   5 58.9265 38.6830  10 
   6  -7  -5 39.4428 34.4929  23 
  -6   7   5 43.6229 35.8574  13 
   6   7  -6 87.6401 53.6591  20 
  -6  -7  -6 101.932 40.9584  19 
   6  -7  -6 71.5170 39.1220  19 
  -6   7  -6 81.6166 46.7952   8 
  -6   7  -6 55.9216 34.2155  17 
   6  -7   6 31.6168 26.2867   7 
   6   7  -6 43.8453 36.7286  26 
  -6   7  -6-9.81616 26.7974  25 
  -6   7  -6 102.954 39.8638  24 
   6   7   6 49.2483 32.7473  10 
   6  -7  -6 40.5754 34.9470  23 
  -6   7   6 33.0919 30.9221  13 
   6   7  -7 53.4795 44.6723  20 
  -6  -7  -7 27.8220 29.3456  19 
   6  -7  -7 23.4122 27.3089  19 
  -6   7  -7 9.28928 28.9685  17 
   6  -7   7 22.8316 32.1710   7 
   6   7  -7 13.0131 28.7807  26 
  -6   7  -7 4.00795 22.0840  25 
  -6   7  -7 54.6403 27.7923  24 
   6   7   7 21.9162 31.2625  10 
   6  -7  -7 7.95029 30.3437  23 
  -6   7   7 33.5830 29.9772  13 
   7   7   0-41.5789 42.2221  20 
   7  -7   0-30.1237 36.5055  19 
  -7   7   0-26.5167 31.0179  17 
   7  -7   0-26.0943 36.8433   7 
   7   7   0 23.3227 41.1061  26 
  -7   7   0-24.4855 25.4113  13 
   7   7   1 1035.23 121.838  20 
   7   7  -1 1017.46 126.166  20 
   7   7  -1 718.096 100.762   8 
   7  -7  -1 983.785 104.180  19 
   7  -7   1 905.159 97.3190  19 
  -7   7   1 804.907 98.5871  17 
  -7   7  -1 730.660 93.3462  17 
   7  -7  -1 568.424 79.2359   7 
   7  -7   1 869.036 103.112   7 
   7   7  -1 934.600 108.394  26 
   7   7   1 803.399 97.0186  26 
   7   7   1 899.914 114.298  10 
   7  -7  -1 836.692 93.0962  23 
  -7   7   1 871.740 100.935  13 
  -7   7  -1 944.280 105.272  13 
   7   7   2 739.975 102.630  20 
   7   7  -2 707.232 106.828  20 
   7  -7  -2 769.691 93.0176  19 
   7  -7   2 675.946 81.5087  19 
  -7   7   2 557.430 78.4322  17 
  -7   7  -2 675.750 88.9441  17 
   7  -7   2 841.774 105.481   7 
   7   7   2 723.467 91.5651  26 
   7   7  -2 633.530 88.5271  26 
  -7   7  -2 713.737 90.0061  25 
  -7   7  -2 686.710 89.5941  24 
   7   7   2 638.280 97.9938  10 
   7  -7  -2 710.347 87.2857  23 
  -7   7  -2 843.442 97.4067  13 
  -7   7   2 688.825 91.8802  13 
   7   7   3 7079.30 291.723  20 
   7   7  -3 7241.17 323.967  20 
  -7   7  -3 6721.20 272.556   8 
   7  -7  -3 6894.45 267.867  19 
   7  -7   3 7152.52 292.714   7 
  -7   7  -3 7112.64 276.442  17 
   7   7   3 6576.47 261.555  26 
   7   7  -3 6582.66 270.079  26 
  -7   7  -3 6587.83 259.874  25 
  -7   7  -3 6814.65 265.224  24 
   7   7   3 6806.83 296.758  10 
   7  -7  -3 6793.33 266.395  23 
  -7   7   3 7585.95 287.030  13 
  -7   7  -3 7152.53 267.136  13 
   7   7  -4 904.127 114.646  20 
  -7  -7  -4 893.929 89.2016  19 
   7  -7  -4 970.322 99.7388  19 
   7  -7   4 905.522 105.914   7 
  -7   7  -4 1025.08 104.318  17 
   7   7  -4 885.691 97.7173  26 
   7   7   4 790.552 89.0778  26 
  -7   7  -4 992.521 101.316  25 
  -7   7  -4 902.019 96.9131  24 
   7   7   4 941.483 108.680  10 
   7  -7  -4 873.049 98.1632  23 
  -7   7   4 982.356 101.887  13 
   7   7  -5 3553.77 215.516  20 
  -7  -7  -5 3379.95 167.333  19 
   7  -7  -5 3486.17 180.940  19 
   7  -7   5 3579.27 201.531   7 
  -7   7  -5 3417.38 182.753  17 
   7   7   5 2935.75 162.673  26 
  -7   7  -5 3221.88 171.135  25 
   7   7   5 3023.52 184.788  10 
  -7   7  -5 3068.40 167.201  24 
   7  -7  -5 2918.20 175.298  23 
  -7   7   5 3497.64 187.147  13 
   7   7  -6 1267.27 124.704  20 
   7  -7  -6 1167.87 98.7399  19 
   7  -7   6 1134.18 112.679   7 
  -7   7  -6 1174.56 98.9544  25 
   7   7   6 997.364 104.100  10 
  -7   7  -6 1104.95 97.1320  24 
   7  -7  -6 1104.03 106.059  23 
  -7   7   6 1145.04 104.361  13 
   8   7   0 16205.7 456.033  20 
   8  -7   0 15106.1 372.624  19 
   8   7   1 9820.64 346.351  20 
   8   7  -1 10027.4 360.152  20 
   8  -7  -1 9407.55 295.287  19 
   8  -7   1 9780.72 287.044  19 
  -8   7   1 10357.2 311.353  13 
  -8   7  -1 9945.82 300.367  13 
   8   7   2 1809.75 145.448  20 
   8   7  -2 1846.92 154.330  20 
   8  -7  -2 2240.50 143.189  19 
   8  -7   2 1808.63 138.507   7 
  -8   7  -2 1582.03 121.388  25 
  -8   7  -2 1708.48 124.777  24 
  -8   7   2 1910.48 132.796  13 
  -8   7  -2 1871.07 126.501  13 
   8   7  -3 2665.21 182.873  20 
   8  -7  -3 2782.78 157.283  19 
   8  -7   3 2876.89 176.512   7 
  -8   7  -3 2490.60 145.534  25 
  -8   7  -3 2281.08 140.241  24 
   8   7   3 2124.38 151.858  10 
  -8   7   3 2639.04 154.546  13 
  -8   7  -3 2814.70 150.390  13 
   8   7  -4 225.889 59.0347  20 
   8  -7  -4 381.540 57.9796  19 
  -8   7  -4 274.711 50.3098  25 
  -8   7  -4 343.574 54.5220  24 
  -8   7   4 355.489 56.8763  13 
   0   8   0 15723.0 390.695  26 
   0   8   0 17254.0 471.511   8 
   0   8   1 328.541 69.2539   8 
   0   8  -1 255.596 63.5611   8 
   0   8   1 222.399 49.0810  17 
   0   8  -1 180.932 47.9824  17 
   0   8   1 259.588 54.2731  26 
   0   8  -1 218.336 51.5985  26 
   0   8  -2 8355.99 322.896   8 
   0   8   2 6217.84 250.596  17 
   0   8  -2 6655.69 250.415  17 
   0   8   2 8056.38 270.471  26 
   0   8  -2 7641.38 265.097  26 
   0   8   2 8863.03 325.090   8 
   0   8  -3 1095.26 116.471   8 
   0  -8   3 772.461 90.1275   7 
   0   8   3 1039.43 109.634   8 
   0   8  -4 2636.86 172.387   8 
   1   8   0 77.0338 48.9679   8 
  -1   8   0 18.5919 35.0802   8 
  -1   8   0 53.2767 33.1046  17 
   1   8   0-23.9124 34.7766  17 
   1   8   0 22.9482 28.1471  26 
  -1   8   1 1490.94 135.389   8 
  -1   8  -1 1462.17 135.270   8 
  -1   8   1 1281.91 116.206  17 
   1   8   1 1015.52 100.017  17 
  -1   8  -1 1297.14 115.036  17 
   1   8   1 1364.03 117.755  26 
   1   8  -1 1421.78 122.161  26 
   1   8   1 1255.81 125.916   8 
   1   8  -1 1409.46 134.521   8 
   1   8  -2 4412.46 233.413   8 
  -1   8  -2 4493.03 235.384   8 
   1  -8   2 3812.82 199.373   7 
  -1   8   2 3917.95 199.977  17 
  -1   8  -2 3859.91 194.298  17 
   1   8   2 4012.20 196.477  26 
   1   8  -2 4362.21 208.365  26 
   1   8   2 4418.03 233.388   8 
  -1   8   2 4016.63 213.496   8 
   1   8  -3 2094.94 159.356   8 
  -1   8  -3 2113.38 159.244   8 
   1  -8   3 1827.55 137.764   7 
  -1   8  -3 1752.84 128.517  17 
   1   8   3 1928.08 132.600  26 
   1   8  -3 2032.43 136.739  26 
   1   8   3 1949.79 150.916   8 
  -1   8  -4 1764.46 139.583   8 
  -2   8   0 1769.88 144.771   8 
   2  -8   0 1475.01 123.392   7 
  -2   8   0 1527.01 125.899  17 
   2   8   0 1617.26 128.995  26 
   2   8   0 1539.90 140.510   8 
  -2   8   1 14250.8 398.565   8 
  -2   8  -1 13731.4 403.893   8 
   2  -8  -1 11834.2 347.962   7 
   2  -8   1 12948.1 366.458   7 
  -2   8   1 12200.7 355.881  17 
  -2   8  -1 12504.2 358.058  17 
   2   8   1 13366.6 367.820  26 
   2   8  -1 13442.6 370.683  26 
   2   8   1 14420.1 421.653   8 
   2   8  -1 14314.8 419.415   8 
   2   8   2 198.757 55.1356   8 
   2   8  -2 212.080 57.1647   8 
  -2   8  -2 165.017 50.0193   8 
   2  -8  -2 112.439 41.0255   7 
   2  -8   2 158.885 43.2002   7 
  -2   8   2 52.7236 30.6367  17 
  -2   8  -2 119.187 38.4844  17 
   2   8   2 218.487 51.6076  26 
   2   8  -2 220.573 52.4036  26 
   2   8  -3 1047.50 109.191   8 
  -2   8  -3 1160.79 115.264   8 
   2  -8   3 979.882 98.1254   7 
  -2   8  -3 1037.36 99.3039  17 
  -2   8   3 736.789 86.0021  17 
   2   8   3 1036.22 98.9967  26 
   2   8  -3 975.882 97.1871  26 
   2   8   3 1129.88 113.623   8 
   3   8   0 23.1542 33.5431   8 
   3  -8   0-4.84647 23.4421   7 
  -3   8   0 8.48355 30.7807  17 
   3   8   0-17.6175 28.9700  26 
   3  -8   1 1595.03 123.861   7 
  -3   8   1 1499.05 119.755  17 
  -3   8  -1 1725.52 128.017  17 
   3   8   1 1617.12 126.157  26 
   3   8  -1 1745.85 130.862  26 
   3   8   1 1749.94 142.831   8 
   3   8  -1 1769.16 143.131   8 
   3   8   2 466.910 74.3320   8 
   3  -8   2 531.111 72.5637   7 
  -3   8   2 538.901 75.1127  17 
  -3   8  -2 498.140 69.6682  17 
   3   8   2 527.711 72.6798  26 
   3   8  -2 528.056 72.6974  26 
   0   0   0    0.00    0.00   0 
  
TITL ccm530 in Pbca 
REM Pbca (#61, found as Pcab in ba-c setting) 
CELL 1.54184  13.925650   6.764407  16.557516  90.0000  90.0000  90.0000 
ZERR    4.00   0.000117   0.000052   0.000117   0.0000   0.0000   0.0000 
LATT  1 
SYMM -x+1/2,-y, z+1/2 
SYMM -x, y+1/2,-z+1/2 
SYMM  x+1/2,-y+1/2,-z 
SFAC C H 
UNIT 96.00 72.00 
TREF 
HKLF 4 
END 
;
_shelx_hkl_checksum              10160
loop_
_space_group_symop_operation_xyz
'x, y, z'
'-x+1/2, -y, z+1/2'
'-x, y+1/2, -z+1/2'
'x+1/2, -y+1/2, -z'
'-x, -y, -z'
'x-1/2, y, -z-1/2'
'x, -y-1/2, z-1/2'
'-x-1/2, y-1/2, z'
loop_
_atom_site_label
_atom_site_type_symbol
_atom_site_fract_x
_atom_site_fract_y
_atom_site_fract_z
_atom_site_U_iso_or_equiv
_atom_site_adp_type
_atom_site_occupancy
_atom_site_site_symmetry_order
_atom_site_calc_flag
_atom_site_refinement_flags_posn
_atom_site_refinement_flags_adp
C1 C 0.34271(8) 0.64491(17) 0.60590(7) 0.0292(3) Uani 1 1 d . .
H1A H 0.2873 0.6391 0.5695 0.044 Uiso 1 1 calc R U
H1B H 0.3771 0.7697 0.5976 0.044 Uiso 1 1 calc R U
H1C H 0.3206 0.6370 0.6620 0.044 Uiso 1 1 calc R U
C2 C 0.40886(8) 0.47464(15) 0.58844(6) 0.0245(3) Uani 1 1 d . .
C3 C 0.49833(7) 0.45362(15) 0.63292(6) 0.0238(3) Uani 1 1 d . .
C4 C 0.52539(8) 0.59227(16) 0.69209(6) 0.0271(3) Uani 1 1 d . .
H4 H 0.4832 0.6984 0.7046 0.032 Uiso 1 1 calc R U
C5 C 0.61170(8) 0.57746(17) 0.73233(6) 0.0290(3) Uani 1 1 d . .
H5 H 0.6280 0.6704 0.7731 0.035 Uiso 1 1 calc R U
C6 C 0.67517(8) 0.42421(17) 0.71263(6) 0.0282(3) Uani 1 1 d . .
H6 H 0.7358 0.4162 0.7387 0.034 Uiso 1 1 calc R U
C7 C 0.65011(8) 0.28509(16) 0.65573(6) 0.0257(3) Uani 1 1 d . .
H7 H 0.6939 0.1820 0.6430 0.031 Uiso 1 1 calc R U
C8 C 0.56067(8) 0.29267(15) 0.61597(6) 0.0235(3) Uani 1 1 d . .
C9 C 0.53157(7) 0.14169(15) 0.55802(6) 0.0229(3) Uani 1 1 d . .
C10 C 0.44425(7) 0.16920(15) 0.51443(6) 0.0231(3) Uani 1 1 d . .
C11 C 0.38644(8) 0.34030(15) 0.53083(6) 0.0245(3) Uani 1 1 d . .
H11 H 0.3299 0.3602 0.4998 0.029 Uiso 1 1 calc R U
C12 C 0.41545(7) 0.02924(15) 0.45751(6) 0.0237(3) Uani 1 1 d . .
H12 H 0.3577 0.0510 0.4283 0.028 Uiso 1 1 calc R U
loop_
_atom_site_aniso_label
_atom_site_aniso_U_11
_atom_site_aniso_U_22
_atom_site_aniso_U_33
_atom_site_aniso_U_23
_atom_site_aniso_U_13
_atom_site_aniso_U_12
C1 0.0304(6) 0.0287(6) 0.0284(6) 0.0012(4) 0.0035(4) 0.0068(4)
C2 0.0261(5) 0.0236(5) 0.0237(5) 0.0062(4) 0.0061(4) 0.0024(4)
C3 0.0259(5) 0.0230(5) 0.0224(5) 0.0061(4) 0.0057(4) 0.0000(4)
C4 0.0300(6) 0.0238(5) 0.0274(5) 0.0029(4) 0.0066(4) -0.0001(4)
C5 0.0318(6) 0.0258(6) 0.0293(6) -0.0007(4) 0.0028(4) -0.0043(5)
C6 0.0264(6) 0.0284(6) 0.0296(6) 0.0042(4) 0.0001(4) -0.0030(4)
C7 0.0259(5) 0.0243(5) 0.0268(5) 0.0042(4) 0.0022(4) 0.0013(4)
C8 0.0257(5) 0.0234(5) 0.0214(5) 0.0060(4) 0.0044(4) -0.0001(4)
C9 0.0244(5) 0.0232(5) 0.0211(5) 0.0054(4) 0.0044(4) 0.0004(4)
C10 0.0245(5) 0.0229(5) 0.0219(5) 0.0062(4) 0.0041(4) 0.0013(4)
C11 0.0235(5) 0.0257(6) 0.0241(5) 0.0060(4) 0.0025(4) 0.0026(4)
C12 0.0234(5) 0.0251(6) 0.0227(5) 0.0052(4) 0.0014(4) 0.0017(4)
loop_
_atom_type_symbol
_atom_type_description
_atom_type_scat_dispersion_real
_atom_type_scat_dispersion_imag
_atom_type_scat_source
C C 0.0181 0.0091 'International Tables Vol C Tables 4.2.6.8 and 6.1.1.4'
H H 0.0000 0.0000 'International Tables Vol C Tables 4.2.6.8 and 6.1.1.4'
loop_
_geom_angle_atom_site_label_1
_geom_angle_atom_site_label_2
_geom_angle_atom_site_label_3
_geom_angle
_geom_angle_site_symmetry_1
_geom_angle_site_symmetry_3
C2 C1 H1A 109.5 . .
C2 C1 H1B 109.5 . .
H1A C1 H1B 109.5 . .
C2 C1 H1C 109.5 . .
H1A C1 H1C 109.5 . .
H1B C1 H1C 109.5 . .
C11 C2 C3 119.26(9) . .
C11 C2 C1 120.57(10) . .
C3 C2 C1 120.17(10) . .
C4 C3 C8 118.99(10) . .
C4 C3 C2 121.11(10) . .
C8 C3 C2 119.90(10) . .
C5 C4 C3 121.44(10) . .
C5 C4 H4 119.3 . .
C3 C4 H4 119.3 . .
C4 C5 C6 119.45(10) . .
C4 C5 H5 120.3 . .
C6 C5 H5 120.3 . .
C7 C6 C5 120.35(10) . .
C7 C6 H6 119.8 . .
C5 C6 H6 119.8 . .
C6 C7 C8 121.25(10) . .
C6 C7 H7 119.4 . .
C8 C7 H7 119.4 . .
C7 C8 C3 118.40(10) . .
C7 C8 C9 121.81(9) . .
C3 C8 C9 119.79(10) . .
C12 C9 C10 117.75(10) 5_656 .
C12 C9 C8 123.67(10) 5_656 .
C10 C9 C8 118.58(10) . .
C12 C10 C9 119.90(10) . .
C12 C10 C11 120.91(10) . .
C9 C10 C11 119.18(10) . .
C2 C11 C10 123.02(10) . .
C2 C11 H11 118.5 . .
C10 C11 H11 118.5 . .
C10 C12 C9 122.34(10) . 5_656
C10 C12 H12 118.8 . .
C9 C12 H12 118.8 5_656 .
loop_
_geom_bond_atom_site_label_1
_geom_bond_atom_site_label_2
_geom_bond_distance
_geom_bond_site_symmetry_2
C1 C2 1.5030(14) .
C1 H1A 0.9800 .
C1 H1B 0.9800 .
C1 H1C 0.9800 .
C2 C11 1.3539(16) .
C2 C3 1.4543(15) .
C3 C4 1.4076(15) .
C3 C8 1.4205(15) .
C4 C5 1.3779(16) .
C4 H4 0.9500 .
C5 C6 1.4007(16) .
C5 H5 0.9500 .
C6 C7 1.3767(15) .
C6 H6 0.9500 .
C7 C8 1.4096(15) .
C7 H7 0.9500 .
C8 C9 1.4587(15) .
C9 C12 1.3955(15) 5_656
C9 C10 1.4262(15) .
C10 C12 1.3948(15) .
C10 C11 1.4357(15) .
C11 H11 0.9500 .
C12 C9 1.3954(15) 5_656
C12 H12 0.9500 .
loop_
_geom_torsion_atom_site_label_1
_geom_torsion_atom_site_label_2
_geom_torsion_atom_site_label_3
_geom_torsion_atom_site_label_4
_geom_torsion
_geom_torsion_site_symmetry_1
_geom_torsion_site_symmetry_4
C11 C2 C3 C4 178.63(9) . .
C1 C2 C3 C4 -0.80(15) . .
C11 C2 C3 C8 -0.39(15) . .
C1 C2 C3 C8 -179.82(9) . .
C8 C3 C4 C5 1.51(15) . .
C2 C3 C4 C5 -177.52(9) . .
C3 C4 C5 C6 1.65(16) . .
C4 C5 C6 C7 -2.43(16) . .
C5 C6 C7 C8 -0.01(16) . .
C6 C7 C8 C3 3.15(15) . .
C6 C7 C8 C9 -177.41(9) . .
C4 C3 C8 C7 -3.85(14) . .
C2 C3 C8 C7 175.20(9) . .
C4 C3 C8 C9 176.70(9) . .
C2 C3 C8 C9 -4.26(14) . .
C7 C8 C9 C12 5.89(15) . 5_656
C3 C8 C9 C12 -174.68(9) . 5_656
C7 C8 C9 C10 -174.01(9) . .
C3 C8 C9 C10 5.43(14) . .
C12 C9 C10 C12 -1.11(16) 5_656 .
C8 C9 C10 C12 178.79(9) . .
C12 C9 C10 C11 178.01(9) 5_656 .
C8 C9 C10 C11 -2.09(14) . .
C3 C2 C11 C10 3.93(15) . .
C1 C2 C11 C10 -176.64(9) . .
C12 C10 C11 C2 176.44(9) . .
C9 C10 C11 C2 -2.67(15) . .
C9 C10 C12 C9 1.16(17) . 5_656
C11 C10 C12 C9 -177.95(9) . 5_656
