#------------------------------------------------------------------------------
#$Date: 2017-03-04 07:05:59 +0200 (Sat, 04 Mar 2017) $
#$Revision: 193111 $
#$URL: file:///home/coder/svn-repositories/cod/cif/4/12/57/4125732.cif $
#------------------------------------------------------------------------------
#
# This file is available in the Crystallography Open Database (COD),
# http://www.crystallography.net/
#
# All data on this site have been placed in the public domain by the
# contributors.
#
data_4125732
loop_
_publ_author_name
'Gonz\'alez-Fern\'andez, Elisa'
'Nicholls, Leo D. M.'
'Schaaf, Lukas D.'
'Far\`es, Christophe'
'Lehmann, Christian W.'
'Alcarazo, Manuel'
_publ_section_title
;
 Enantioselective Synthesis of [6]Carbohelicenes.
;
_journal_issue                   4
_journal_name_full               'Journal of the American Chemical Society'
_journal_page_first              1428
_journal_page_last               1431
_journal_paper_doi               10.1021/jacs.6b12443
_journal_volume                  139
_journal_year                    2017
_chemical_compound_source        dichlormethane
_chemical_formula_moiety         'C28 H20'
_chemical_formula_sum            'C28 H20'
_chemical_formula_weight         356.44
_chemical_name_systematic
;
 Title
;
_space_group_crystal_system      monoclinic
_space_group_IT_number           15
_space_group_name_Hall           '-C 2yc'
_space_group_name_H-M_alt        'C 1 2/c 1'
_symmetry_cell_setting           monoclinic
_symmetry_Int_Tables_number      15
_symmetry_space_group_name_Hall  '-C 2yc'
_symmetry_space_group_name_H-M   'C 1 2/c 1'
_atom_sites_solution_hydrogens   geom
_atom_sites_solution_primary     direct
_atom_sites_solution_secondary   difmap
_audit_block_code                GON-GC-215
_audit_creation_date             2014-06-03
_audit_creation_method
;
Olex2 1.2
(compiled 2014.03.20 svn.r2914 for OlexSys, GUI svn.r4816)
;
_cell_angle_alpha                90
_cell_angle_beta                 108.6516(18)
_cell_angle_gamma                90
_cell_formula_units_Z            4
_cell_length_a                   18.4625(9)
_cell_length_b                   14.2040(7)
_cell_length_c                   7.6031(4)
_cell_measurement_reflns_used    4001
_cell_measurement_temperature    100
_cell_measurement_theta_max      55.1083
_cell_measurement_theta_min      4.0090
_cell_volume                     1889.13(17)
_computing_cell_refinement       'SAINT software (Bruker AXS, 2004)'
_computing_data_collection       'APEX2 (Bruker AXS, 2005-2013)'
_computing_data_reduction        'SAINT software (Bruker AXS, 2004)'
_computing_molecular_graphics    'DIAMOND (Crystal Impact GbR, 1997-2012)'
_computing_publication_material  'Olex2 (Dolomanov et al., 2009)'
_computing_structure_refinement  'SHELXL (G. M. Sheldrick, 2013)'
_computing_structure_solution    'SHELXS (G. M. Sheldrick, 2013)'
_diffrn_ambient_temperature      100
_diffrn_detector_area_resol_mean 66.67
_diffrn_measured_fraction_theta_full 0.985
_diffrn_measured_fraction_theta_max 0.984
_diffrn_measurement_device_type  'Bruker AXS X8 Proteum'
_diffrn_measurement_method       'CCD \f- and \w-scans'
_diffrn_radiation_monochromator  'MONTEL graded multilayer optic'
_diffrn_radiation_type           Cu-K\a
_diffrn_radiation_wavelength     1.54178
_diffrn_reflns_av_R_equivalents  0.0468
_diffrn_reflns_av_unetI/netI     0.0215
_diffrn_reflns_Laue_measured_fraction_full 0.985
_diffrn_reflns_Laue_measured_fraction_max 0.984
_diffrn_reflns_limit_h_max       22
_diffrn_reflns_limit_h_min       -21
_diffrn_reflns_limit_k_max       16
_diffrn_reflns_limit_k_min       -16
_diffrn_reflns_limit_l_max       8
_diffrn_reflns_limit_l_min       -9
_diffrn_reflns_number            20805
_diffrn_reflns_point_group_measured_fraction_full 0.985
_diffrn_reflns_point_group_measured_fraction_max 0.984
_diffrn_reflns_theta_full        67.679
_diffrn_reflns_theta_max         67.779
_diffrn_reflns_theta_min         4.009
_diffrn_source                   '0.2 x 2mm^2^ focus rotating anode'
_diffrn_standards_number         0
_exptl_absorpt_coefficient_mu    0.536
_exptl_absorpt_correction_T_max  0.95948
_exptl_absorpt_correction_T_min  0.91513
_exptl_absorpt_correction_type   gaussian
_exptl_absorpt_process_details   'SADABS (Bruker AXS, 2012)'
_exptl_crystal_colour            colourless
_exptl_crystal_density_diffrn    1.253
_exptl_crystal_description       prism
_exptl_crystal_F_000             752
_exptl_crystal_size_max          0.18
_exptl_crystal_size_mid          0.12
_exptl_crystal_size_min          0.10
_refine_diff_density_max         0.232
_refine_diff_density_min         -0.238
_refine_diff_density_rms         0.068
_refine_ls_extinction_coef       0.0018(3)
_refine_ls_extinction_expression Fc^*^=kFc[1+0.001xFc^2^\l^3^/sin(2\q)]^-1/4^
_refine_ls_extinction_method     SHELXL
_refine_ls_goodness_of_fit_ref   1.123
_refine_ls_hydrogen_treatment    constr
_refine_ls_matrix_type           full
_refine_ls_number_parameters     130
_refine_ls_number_reflns         1686
_refine_ls_number_restraints     0
_refine_ls_restrained_S_all      1.123
_refine_ls_R_factor_all          0.0502
_refine_ls_R_factor_gt           0.0406
_refine_ls_shift/su_max          0.000
_refine_ls_shift/su_mean         0.000
_refine_ls_structure_factor_coef Fsqd
_refine_ls_weighting_details
'w=1/[\s^2^(Fo^2^)+(0.0655P)^2^+1.0045P] where P=(Fo^2^+2Fc^2^)/3'
_refine_ls_weighting_scheme      calc
_refine_ls_wR_factor_gt          0.1082
_refine_ls_wR_factor_ref         0.1204
_reflns_Friedel_coverage         0.000
_reflns_number_gt                1472
_reflns_number_total             1686
_reflns_threshold_expression     'I > 2\s(I)'
_cod_data_source_file            ja6b12443_si_006.cif
_cod_data_source_block           8788sadabs
_cod_depositor_comments
;
The following automatic conversions were performed:

'_symmetry_cell_setting' value 'MONOCLINIC' changed to 'monoclinic'
according to
/home/data/users/saulius/crontab/automatic-downloads/current/ACS/lib/dictionaries/cif_core.dic
dictionary named 'cif_core.dic' version 2.4.2 from 2011-04-26.

Automatic conversion script
Id: cif_fix_values 4973 2017-02-22 13:04:09Z antanas 
;
_cod_original_sg_symbol_Hall     '-c 2yc'
_cod_original_sg_symbol_H-M      C2/c
_cod_database_code               4125732
_shelx_space_group_comment
;
The symmetry employed for this shelxl refinement is uniquely defined
by the following loop, which should always be used as a source of
symmetry information in preference to the above space-group names.
They are only intended as comments.
;
_shelx_estimated_absorpt_t_max   0.929
_shelx_estimated_absorpt_t_min   0.846
_olex2_refinement_description
;
1. Fixed Uiso
 At 1.2 times of:
  All C(H) groups
 At 1.5 times of:
  All C(H,H,H) groups
2.a Aromatic/amide H refined with riding coordinates:
 C3(H3), C4(H4), C11(H11), C12(H12), C13(H13), C14(H14), C15(H15)
2.b Idealised Me refined as rotating group:
 C9(H9A,H9B,H9C)
;
_shelx_res_file
;
TITL
CELL 1.54178 18.4625 14.204 7.6031 90 108.6516 90
ZERR 4 0.0009 0.0007 0.0004 0 0.0018 0
LATT 7
SYMM -X,+Y,0.5-Z

SFAC C H
UNIT 112 80

L.S. 4 0 0
PLAN  20
SIZE 0.139 0.162 0.322
TEMP -173
fmap 2 53
acta
REM <HKL>V:/8788/8788sadabs.hkl</HKL>

WGHT    0.065500    1.004500
EXTI    0.001789
FVAR       0.12134
C1    1    0.500000    0.587130    0.750000    10.50000    0.01970    0.02274 =
         0.01829    0.00000    0.00511    0.00000
C2    1    0.500000    0.486190    0.750000    10.50000    0.02183    0.02457 =
         0.01974    0.00000    0.00703    0.00000
C3    1    0.566020    0.435044    0.752482    11.00000    0.02519    0.02151 =
         0.02587   -0.00031    0.00827    0.00220
AFIX  43
H3    2    0.565359    0.368237    0.757695    11.00000   -1.20000
AFIX   0
C4    1    0.630288    0.479702    0.747548    11.00000    0.02142    0.02560 =
         0.02596    0.00092    0.00772    0.00367
AFIX  43
H4    2    0.674559    0.444496    0.751738    11.00000   -1.20000
AFIX   0
C5    1    0.630895    0.578972    0.736131    11.00000    0.02022    0.02559 =
         0.02027    0.00066    0.00563    0.00041
C6    1    0.567926    0.633410    0.737373    11.00000    0.02039    0.02351 =
         0.01875   -0.00021    0.00570    0.00022
C7    1    0.698489    0.620915    0.713543    11.00000    0.02165    0.02446 =
         0.02539   -0.00022    0.00753    0.00333
C8    1    0.755895    0.650222    0.691537    11.00000    0.02312    0.02715 =
         0.02657    0.00025    0.00815    0.00284
C9    1    0.824008    0.691245    0.664297    11.00000    0.02479    0.03783 =
         0.03580    0.00297    0.01211   -0.00183
AFIX 137
H9A   2    0.823395    0.679339    0.536867    11.00000   -1.50000
H9B   2    0.869752    0.662655    0.751632    11.00000   -1.50000
H9C   2    0.824609    0.759283    0.686102    11.00000   -1.50000
AFIX   0
C10   1    0.576142    0.737153    0.716142    11.00000    0.01950    0.02347 =
         0.02549   -0.00170    0.01201   -0.00002
C11   1    0.529495    0.786002    0.562196    11.00000    0.02070    0.02381 =
         0.02582   -0.00136    0.00965   -0.00014
AFIX  43
H11   2    0.489244    0.753804    0.472476    11.00000   -1.20000
AFIX   0
C12   1    0.541197    0.880944    0.538647    11.00000    0.02700    0.02614 =
         0.03187    0.00348    0.01173    0.00440
AFIX  43
H12   2    0.508705    0.913480    0.433858    11.00000   -1.20000
AFIX   0
C13   1    0.600266    0.928569    0.667794    11.00000    0.03181    0.02123 =
         0.04310    0.00006    0.01740   -0.00043
AFIX  43
H13   2    0.608471    0.993503    0.650929    11.00000   -1.20000
AFIX   0
C14   1    0.647248    0.881247    0.821362    11.00000    0.02465    0.02681 =
         0.03482   -0.00674    0.01203   -0.00437
AFIX  43
H14   2    0.687576    0.913707    0.910349    11.00000   -1.20000
AFIX   0
C15   1    0.635229    0.786438    0.844744    11.00000    0.02162    0.02551 =
         0.02656   -0.00156    0.00899   -0.00014
AFIX  43
H15   2    0.667744    0.754335    0.950115    11.00000   -1.20000
AFIX   0
HKLF 4

REM
REM R1 =  0.0406 for    1472 Fo > 4sig(Fo)  and  0.0502 for all    1686 data
REM    130 parameters refined using      0 restraints

END

WGHT      0.0655      1.0045

REM Highest difference peak  0.232,  deepest hole -0.238,  1-sigma level  0.068
Q1    1   0.5928  0.4392  0.6893  11.00000  0.05    0.23
Q2    1   0.6173  0.7565  0.7424  11.00000  0.05    0.23
Q3    1   0.5028  0.7597  0.7020  11.00000  0.05    0.22
Q4    1   0.6994  0.7957  0.7610  11.00000  0.05    0.22
Q5    1   0.4378  0.5372  0.7501  11.00000  0.05    0.22
Q6    1   0.5643  0.7558  0.6341  11.00000  0.05    0.21
Q7    1   0.7622  0.5637  0.7001  11.00000  0.05    0.21
Q8    1   0.6011  0.7460  0.7233  11.00000  0.05    0.20
Q9    1   0.5364  0.8000  0.6838  11.00000  0.05    0.20
Q10   1   0.6013  0.5965  0.7594  11.00000  0.05    0.20
Q11   1   0.5411  0.3409  0.6889  11.00000  0.05    0.20
Q12   1   0.6215  1.0409  0.7664  11.00000  0.05    0.20
Q13   1   0.5648  0.6850  0.7116  11.00000  0.05    0.20
Q14   1   0.5574  0.7399  0.7617  11.00000  0.05    0.19
Q15   1   0.6624  0.6212  0.7804  11.00000  0.05    0.19
Q16   1   0.6223  0.9002  0.7360  11.00000  0.05    0.19
Q17   1   0.8217  0.7615  0.7965  11.00000  0.05    0.19
Q18   1   0.6132  0.5187  0.7094  11.00000  0.05    0.18
Q19   1   0.5266  0.4757  0.6956  11.00000  0.05    0.18
Q20   1   0.6449  0.3984  0.6581  11.00000  0.05    0.18
;
_shelx_res_checksum              42851
_shelx_hkl_file
;
   2   0   0  101.60    2.77
  -2   0   0  103.64    2.78
   2   0   0   96.16    2.25
  -2   0   0   99.38    2.20
  -4   0   0   84.89    2.37
   4   0   0   80.47    2.35
   4   0   0   82.71    1.90
  -4   0   0   82.97    1.88
   6   0   0    6.95    0.23
  -6   0   0    5.94    0.25
   6   0   0    5.63    0.24
  -6   0   0    6.10    0.26
  -6   0   0    5.94    0.23
  -6   0   0    6.00    0.31
   6   0   0    5.49    0.29
  -8   0   0    2.09    0.19
  -8   0   0    2.22    0.26
  -8   0   0    2.30    0.18
   8   0   0    2.08    0.13
  -8   0   0    2.26    0.20
  -8   0   0    2.29    0.19
  -8   0   0    2.27    0.19
   8   0   0    2.22    0.19
  -8   0   0    2.27    0.16
 -10   0   0   17.74    0.57
  10   0   0   18.17    0.61
 -10   0   0   19.01    0.60
 -10   0   0   16.86    0.80
 -10   0   0   18.25    0.53
 -10   0   0   18.80    0.61
 -10   0   0   18.28    0.65
 -10   0   0   17.75    0.62
 -12   0   0    0.07    0.12
 -12   0   0    0.00    0.09
 -12   0   0   -0.10    0.07
 -12   0   0    0.10    0.09
 -12   0   0    0.06    0.08
  12   0   0    0.01    0.07
 -12   0   0   -0.04    0.07
 -14   0   0    9.33    0.54
  14   0   0   10.63    0.91
  14   0   0    9.65    0.62
  14   0   0   10.33    0.51
 -14   0   0   10.05    0.53
 -14   0   0    9.86    0.50
 -14   0   0   10.38    0.77
 -14   0   0   10.22    0.45
 -16   0   0   28.62    1.01
  16   0   0   27.12    1.66
 -16   0   0   29.59    1.49
 -16   0   0   28.14    1.26
  16   0   0   27.50    1.72
  16   0   0   29.91    1.40
  16   0   0   26.84    1.21
  16   0   0   28.16    0.99
  18   0   0   14.95    0.66
 -18   0   0   15.46    0.81
  18   0   0   13.59    0.64
 -18   0   0   14.15    0.92
  18   0   0   14.33    0.87
  20   0   0    0.56    0.22
 -20   0   0    0.91    0.24
 -20   0   0    0.22    0.17
   1  -1   0   42.36    0.95
  -1  -1   0   43.21    0.94
  -1  -1   0   44.35    1.21
  -1   1   0   42.99    0.90
  -1   1   0   41.61    0.96
  -1   1   0   42.65    1.19
  -1   1   0   43.31    0.95
   1   1   0   42.97    1.21
  -1   1   0   43.09    1.19
   1   1   0   42.27    1.01
  -3  -1   0    1.84    0.12
  -3  -1   0    1.76    0.09
  -3   1   0    1.79    0.07
   3   1   0    2.00    0.12
   3   1   0    1.66    0.08
  -3   1   0    1.77    0.09
  -3   1   0    2.16    0.11
  -3   1   0    1.90    0.11
  -3   1   0    1.62    0.11
  -5  -1   0    0.11    0.06
  -5  -1   0    0.04    0.04
  -5   1   0    0.05    0.04
  -5   1   0    0.12    0.06
  -5   1   0    0.09    0.03
   5   1   0    0.13    0.06
   5   1   0    0.12    0.03
  -7  -1   0    1.18    0.12
   7  -1   0    1.13    0.11
  -7  -1   0    1.38    0.14
  -7  -1   0    1.31    0.19
   7  -1   0    1.21    0.13
  -7   1   0    1.57    0.16
  -7   1   0    1.38    0.13
   7   1   0    1.16    0.14
   7   1   0    1.09    0.10
  -7   1   0    1.32    0.15
  -7   1   0    1.38    0.13
  -7   1   0    1.31    0.11
  -7   1   0    1.29    0.14
  -7   1   0    1.37    0.14
   7   1   0    1.14    0.16
  -7   1   0    1.12    0.16
  -9  -1   0    1.52    0.16
   9  -1   0    1.53    0.17
  -9  -1   0    1.48    0.15
  -9  -1   0    1.61    0.18
  -9  -1   0    1.77    0.25
   9  -1   0    1.43    0.14
  -9  -1   0    1.70    0.19
  -9  -1   0    1.53    0.18
  -9  -1   0    1.44    0.17
  -9   1   0    1.84    0.21
  -9   1   0    1.54    0.16
  -9   1   0    1.54    0.14
   9   1   0    1.62    0.18
  -9   1   0    1.59    0.22
  -9   1   0    1.56    0.16
  -9   1   0    1.65    0.17
   9   1   0    1.42    0.13
  -9   1   0    1.78    0.20
 -11  -1   0    0.09    0.07
 -11  -1   0   -0.09    0.10
 -11  -1   0    0.06    0.08
 -11  -1   0    0.08    0.08
 -11  -1   0    0.10    0.08
 -11  -1   0    0.01    0.07
  11  -1   0    0.10    0.08
 -11  -1   0    0.06    0.07
 -11   1   0    0.16    0.08
 -11   1   0    0.11    0.09
 -11   1   0   -0.03    0.07
  11   1   0   -0.01    0.05
 -11   1   0    0.04    0.07
 -11   1   0   -0.06    0.07
 -13  -1   0    4.39    0.39
 -13  -1   0    4.43    0.56
  13  -1   0    4.06    0.35
  13  -1   0    5.08    0.76
 -13  -1   0    4.69    0.34
  13  -1   0    4.17    0.38
 -13  -1   0    4.13    0.35
 -13  -1   0    4.10    0.39
 -13   1   0    4.76    0.60
 -13   1   0    4.80    0.41
 -13   1   0    4.54    0.35
 -13   1   0    4.01    0.39
  13   1   0    3.90    0.45
  13   1   0    4.31    0.37
 -13   1   0    4.46    0.36
  13   1   0    2.24    0.52
  13   1   0    5.44    0.79
 -13   1   0    4.19    0.35
 -13   1   0    4.18    0.50
  15  -1   0   76.25    1.97
  15  -1   0   74.12    2.68
 -15  -1   0   75.00    2.93
 -15  -1   0   76.66    1.99
  15  -1   0   73.01    3.36
  15  -1   0   77.17    2.75
 -15   1   0   74.10    2.58
 -15   1   0   80.46    2.03
 -15   1   0   70.58    1.96
 -15   1   0   72.99    1.85
  15   1   0   75.34    2.73
  15   1   0   80.89    2.01
 -15   1   0   76.34    1.72
  15   1   0   75.82    2.75
 -15   1   0   75.40    2.96
  15   1   0   74.36    3.37
 -17  -1   0    8.32    0.60
  17  -1   0    7.77    0.65
 -17  -1   0    7.79    0.49
  17  -1   0    8.14    0.49
 -17  -1   0    7.67    0.67
  17   1   0    8.25    0.67
  17   1   0    8.68    0.50
  17   1   0    7.99    0.54
 -17   1   0    7.96    0.68
 -17   1   0    8.28    0.59
 -17   1   0    8.19    0.49
  17   1   0    7.93    0.79
  19  -1   0    0.74    0.19
 -19  -1   0    1.48    0.30
  19  -1   0    0.80    0.27
 -19  -1   0    1.14    0.29
  19   1   0    0.54    0.24
 -19   1   0    1.06    0.29
  19   1   0    1.10    0.37
 -19   1   0    0.94    0.26
   0   2   0    4.12    0.15
   0   2   0    4.39    0.14
   0   2   0    4.03    0.15
   0   2   0    3.96    0.11
  -2  -2   0   10.88    0.26
  -2  -2   0   10.48    0.38
   2   2   0   10.90    0.38
  -2   2   0   10.70    0.30
  -2   2   0   11.06    0.29
   2   2   0   11.33    0.31
  -2   2   0   11.44    0.35
   2   2   0   10.05    0.31
  -2   2   0   10.53    0.35
  -4  -2   0   15.45    0.41
  -4  -2   0   14.79    0.56
  -4   2   0   15.41    0.53
  -4   2   0   16.30    0.43
   4   2   0   16.75    0.57
  -4   2   0   16.13    0.46
   4   2   0   15.32    0.44
  -6  -2   0    1.54    0.19
  -6  -2   0    1.31    0.12
  -6   2   0    1.43    0.14
  -6   2   0    1.40    0.11
  -6   2   0    1.43    0.14
  -6   2   0    1.49    0.13
   6   2   0    1.32    0.17
  -6   2   0    1.33    0.13
   6   2   0    1.43    0.14
  -6   2   0    1.52    0.15
  -6   2   0    1.31    0.08
  -8  -2   0   32.73    0.88
   8  -2   0   31.59    0.85
  -8  -2   0   29.48    0.77
   8  -2   0   30.37    0.74
  -8  -2   0   31.42    0.85
  -8  -2   0   31.27    0.71
  -8  -2   0   31.25    0.87
  -8  -2   0   33.89    1.18
   8   2   0   32.21    0.86
  -8   2   0   33.82    1.12
  -8   2   0   33.26    0.87
  -8   2   0   32.53    0.83
  -8   2   0   33.30    0.93
  -8   2   0   32.61    0.84
  -8   2   0   33.32    0.89
  -8   2   0   32.86    0.76
 -10  -2   0   10.47    0.37
  10  -2   0   10.90    0.44
 -10  -2   0   10.86    0.45
 -10  -2   0   10.58    0.44
  10  -2   0   10.06    0.40
 -10  -2   0   10.55    0.47
 -10  -2   0   10.85    0.61
 -10  -2   0   11.16    0.44
 -10   2   0   11.12    0.42
 -10   2   0   10.68    0.45
 -10   2   0   11.03    0.40
 -10   2   0   11.02    0.46
 -10   2   0   10.23    0.55
  10   2   0   11.13    0.45
 -10   2   0   11.31    0.43
  12  -2   0    3.64    0.33
 -12  -2   0    3.52    0.33
 -12  -2   0    4.35    0.37
 -12  -2   0    4.14    0.30
 -12  -2   0    3.57    0.33
  12  -2   0    3.59    0.40
 -12   2   0    3.82    0.32
 -12   2   0    4.16    0.37
 -12   2   0    4.14    0.32
 -12   2   0    4.25    0.55
  12   2   0    3.87    0.34
 -12   2   0    3.99    0.46
 -12   2   0    3.49    0.35
  12   2   0    4.35    0.69
 -12   2   0    3.69    0.43
 -14  -2   0    4.37    0.41
  14  -2   0    4.29    0.39
  14  -2   0    4.30    0.40
 -14  -2   0    4.68    0.60
 -14   2   0    4.74    0.38
  14   2   0    4.64    0.41
 -14   2   0    5.05    0.45
  14   2   0    4.24    0.40
 -14   2   0    3.46    0.49
  14   2   0    5.69    0.83
 -14   2   0    4.47    0.38
 -14   2   0    4.05    0.42
 -14   2   0    4.00    0.48
  14   2   0    4.73    0.50
 -14   2   0    4.33    0.37
  14   2   0    4.38    0.58
 -14   2   0    4.13    0.58
  14   2   0    4.93    0.50
 -16  -2   0    3.93    0.40
 -16  -2   0    4.73    0.62
  16  -2   0    4.18    0.39
  16  -2   0    4.58    0.59
  16   2   0    4.43    0.44
  16   2   0    5.66    0.84
  16   2   0    4.30    0.41
  16   2   0    4.43    0.60
 -16   2   0    3.65    0.37
 -16   2   0    4.45    0.43
 -16   2   0    4.45    0.60
 -16   2   0    5.13    0.58
 -16   2   0    3.83    0.37
 -18  -2   0    6.70    0.59
  18  -2   0    4.15    0.52
 -18  -2   0    6.57    0.52
  18  -2   0    6.77    0.43
  18   2   0    6.64    0.46
  18   2   0    4.30    0.51
  18   2   0    5.89    0.64
 -18   2   0    6.39    0.53
  18   2   0    4.08    0.63
 -18   2   0    6.52    0.59
  18   2   0    6.55    0.49
  20  -2   0    3.03    0.26
  20  -2   0    2.28    0.32
 -20  -2   0    2.56    0.35
  20   2   0    4.91    0.50
 -20   2   0    3.15    0.37
  -1   3   0  122.80    3.43
   1   3   0  119.80    2.91
   1   3   0  124.00    2.77
   1   3   0  126.82    3.45
  -1   3   0  130.76    3.43
  -1   3   0  118.70    2.72
  -3  -3   0   24.06    0.82
  -3  -3   0   24.40    0.58
  -3   3   0   26.93    0.66
   3   3   0   25.63    0.83
  -3   3   0   25.03    0.62
  -3   3   0   26.15    0.78
   3   3   0   25.79    0.68
  -3   3   0   25.08    0.79
   3   3   0   25.46    0.66
  -5  -3   0   15.63    0.43
  -5  -3   0   15.62    0.62
   5   3   0   15.56    0.47
  -5   3   0   15.69    0.49
  -5   3   0   16.26    0.47
   5   3   0   16.86    0.48
  -5   3   0   15.34    0.47
  -5   3   0   17.23    0.58
  -5   3   0   15.18    0.41
  -5   3   0   15.70    0.45
   5   3   0   16.45    0.62
  -7  -3   0  122.76    3.65
  -7  -3   0  121.61    2.81
   7  -3   0  120.87    2.42
  -7  -3   0  118.64    2.93
  -7   3   0  128.26    2.61
   7   3   0  117.08    2.68
  -7   3   0  125.73    2.73
  -7   3   0  127.15    2.30
  -7   3   0  128.91    2.71
   7   3   0  131.45    2.97
  -7   3   0  130.15    2.90
   7   3   0  121.66    3.62
  -7   3   0  120.68    2.65
   7   3   0  115.67    2.51
   9  -3   0    0.11    0.06
  -9  -3   0   -0.01    0.07
  -9  -3   0   -0.02    0.05
  -9   3   0    0.05    0.08
  -9   3   0    0.05    0.05
   9   3   0    0.06    0.05
  -9   3   0    0.09    0.07
   9   3   0    0.00    0.05
  -9   3   0    0.07    0.07
   9   3   0    0.27    0.09
  -9   3   0    0.10    0.08
  -9   3   0    0.13    0.07
  -9   3   0    0.01    0.05
 -11  -3   0   21.92    0.74
 -11  -3   0   20.52    0.73
  11  -3   0   22.65    0.74
 -11  -3   0   21.53    0.81
  11   3   0   23.39    0.76
 -11   3   0   22.64    0.96
 -11   3   0   23.14    0.83
 -11   3   0   22.37    0.67
 -11   3   0   21.88    0.75
 -11   3   0   22.67    0.71
 -11   3   0   23.66    0.79
 -11   3   0   22.11    0.72
  13  -3   0    0.39    0.17
 -13  -3   0    0.10    0.11
  13  -3   0    0.20    0.10
 -13  -3   0    0.01    0.13
  13   3   0    0.43    0.18
 -13   3   0    0.11    0.11
  13   3   0    0.13    0.15
 -13   3   0    0.10    0.11
  13   3   0    0.09    0.17
 -13   3   0    0.10    0.16
 -13   3   0    0.09    0.20
  13   3   0    0.20    0.26
 -13   3   0    0.35    0.16
  13   3   0   -0.03    0.28
 -13   3   0    0.18    0.09
  13   3   0    0.12    0.10
 -13   3   0    0.24    0.11
 -15  -3   0    1.68    0.27
 -15  -3   0    2.02    0.41
  15  -3   0    1.71    0.39
  15  -3   0    2.12    0.29
 -15   3   0    1.77    0.25
 -15   3   0    1.89    0.36
  15   3   0    2.16    0.54
 -15   3   0    2.29    0.42
  15   3   0    1.60    0.27
 -15   3   0    1.65    0.24
  15   3   0    1.92    0.28
 -15   3   0    1.41    0.23
  15   3   0    1.94    0.33
  15   3   0    1.85    0.31
  15   3   0    1.83    0.42
 -15   3   0    1.76    0.27
  15   3   0    0.34    0.37
  17  -3   0    0.75    0.30
 -17  -3   0    0.64    0.19
  17  -3   0    0.71    0.20
 -17  -3   0    0.82    0.28
 -17   3   0    0.55    0.17
 -17   3   0    0.60    0.26
  17   3   0    0.92    0.21
  17   3   0    0.74    0.22
 -17   3   0    0.55    0.27
  17   3   0    0.74    0.31
  17   3   0    0.54    0.37
 -17   3   0    0.27    0.18
  17   3   0    0.73    0.36
  19  -3   0    4.56    0.37
 -19  -3   0    5.91    0.46
 -19  -3   0    4.13    0.49
  19   3   0    4.12    0.61
  19   3   0    4.16    0.46
 -19   3   0    4.55    0.53
  19   3   0    5.03    0.37
 -19   3   0    5.57    0.45
   0   4   0   55.43    1.29
   0   4   0   57.50    1.68
   0   4   0   59.70    1.46
   0   4   0   60.50    1.39
  -2   4   0   23.06    0.79
  -2   4   0   25.03    0.63
   2   4   0   25.07    0.82
  -2   4   0   26.47    0.79
  -2   4   0   24.42    0.64
   2   4   0   26.17    0.68
   2   4   0   25.78    0.70
  -4  -4   0   18.26    0.70
   4   4   0   18.65    0.52
   4   4   0   20.04    0.71
   4   4   0   19.40    0.57
  -4   4   0   20.23    0.54
  -4   4   0   19.09    0.55
  -4   4   0   17.34    0.66
   4   4   0   18.20    0.54
  -4   4   0   19.46    0.54
  -4   4   0   20.36    0.57
   4   4   0   19.85    0.57
  -4   4   0   20.41    0.65
  -4   4   0   19.38    0.53
  -6  -4   0    7.48    0.25
  -6  -4   0    6.93    0.28
  -6  -4   0    7.44    0.41
   6  -4   0    7.68    0.28
  -6  -4   0    7.82    0.35
  -6   4   0    7.72    0.32
   6   4   0    7.60    0.31
   6   4   0    7.41    0.27
  -6   4   0    8.34    0.34
   6   4   0    7.54    0.32
  -6   4   0    7.37    0.29
   6   4   0    7.97    0.41
  -6   4   0    7.95    0.31
  -6   4   0    7.97    0.37
  -6   4   0    8.01    0.28
   6   4   0    8.07    0.33
   6   4   0    7.61    0.28
  -6   4   0    7.63    0.31
  -6   4   0    7.70    0.26
   6   4   0    7.57    0.29
   8  -4   0   12.68    0.41
  -8  -4   0   11.93    0.44
  -8  -4   0   11.87    0.50
   8   4   0   12.32    0.61
   8   4   0   13.50    0.48
   8   4   0   12.33    0.41
  -8   4   0   13.40    0.43
  -8   4   0   13.16    0.42
  -8   4   0   12.67    0.48
  -8   4   0   12.54    0.46
  -8   4   0   13.05    0.46
   8   4   0   12.51    0.45
  -8   4   0   13.57    0.51
 -10  -4   0    8.71    0.47
 -10  -4   0    8.95    0.40
 -10   4   0    8.69    0.43
 -10   4   0    9.03    0.41
 -10   4   0    8.87    0.37
 -10   4   0    9.34    0.42
  10   4   0    8.89    0.42
 -10   4   0    8.28    0.50
 -10   4   0    8.55    0.37
 -10   4   0    9.25    0.46
 -12  -4   0    0.38    0.14
  12  -4   0    0.50    0.13
 -12  -4   0    0.37    0.15
 -12   4   0    0.55    0.14
  12   4   0    0.71    0.32
  12   4   0    0.27    0.34
 -12   4   0    0.30    0.20
  12   4   0    0.37    0.14
  12   4   0    0.59    0.20
 -12   4   0    0.46    0.13
  12   4   0    0.57    0.17
 -12   4   0    0.37    0.14
 -12   4   0    0.36    0.14
  12   4   0    0.40    0.23
  12   4   0    0.59    0.25
 -12   4   0    0.36    0.16
  12   4   0    0.31    0.12
 -12   4   0    0.38    0.14
 -12   4   0    0.33    0.12
 -12   4   0    0.47    0.22
  12   4   0    0.55    0.20
 -14  -4   0    0.37    0.16
  14  -4   0    0.58    0.16
  14  -4   0    0.71    0.30
  14   4   0    0.52    0.19
  14   4   0    0.43    0.28
 -14   4   0    0.60    0.17
  14   4   0    0.52    0.22
  14   4   0    0.50    0.19
 -14   4   0    0.37    0.20
  14   4   0   -0.06    0.33
 -14   4   0    0.50    0.17
 -14   4   0    0.52    0.24
  14   4   0    0.62    0.19
 -14   4   0    0.71    0.17
  14   4   0    0.49    0.16
  14   4   0    0.09    0.25
 -14   4   0    0.64    0.28
  16  -4   0    0.34    0.16
 -16  -4   0    0.19    0.15
  16  -4   0   -0.02    0.25
 -16  -4   0    0.40    0.21
 -16   4   0    0.15    0.22
  16   4   0    0.30    0.28
 -16   4   0    0.29    0.19
 -16   4   0    0.14    0.14
  16   4   0   -0.01    0.14
  16   4   0    0.20    0.25
 -16   4   0    0.16    0.16
  16   4   0    0.32    0.16
  16   4   0    0.17    0.17
  16   4   0    0.21    0.19
  16   4   0    0.20    0.36
 -16   4   0    0.20    0.15
  18  -4   0    0.36    0.25
 -18  -4   0    0.03    0.17
  18   4   0    0.12    0.30
  18   4   0    0.23    0.26
 -18   4   0   -0.13    0.18
  18   4   0    0.07    0.22
  18   4   0    0.12    0.15
 -18   4   0   -0.12    0.18
  18   4   0    0.02    0.17
 -20  -4   0   11.27    0.67
 -20  -4   0   13.60    0.63
 -20   4   0   13.45    0.64
  -1   5   0   11.39    0.37
   1   5   0   11.68    0.41
  -1   5   0   10.75    0.35
  -1   5   0    9.84    0.43
   1   5   0   11.07    0.37
  -1   5   0   11.44    0.36
   1   5   0   10.80    0.36
   1   5   0   12.39    0.45
  -1   5   0   10.88    0.32
  -1   5   0   10.43    0.37
   1   5   0   11.08    0.36
   1   5   0   11.43    0.38
   1   5   0   11.34    0.32
  -1   5   0   11.82    0.36
  -1   5   0   11.43    0.43
   3   5   0   12.14    0.37
   3   5   0   12.26    0.43
   3   5   0   12.54    0.51
  -3   5   0   12.67    0.40
  -3   5   0   12.38    0.39
   3   5   0   12.46    0.41
  -3   5   0   11.28    0.48
  -3   5   0   11.22    0.32
  -3   5   0   12.24    0.41
   3   5   0   12.55    0.42
   3   5   0   12.59    0.40
  -3   5   0   12.52    0.40
  -3   5   0   12.33    0.40
  -3   5   0   12.55    0.39
  -3   5   0   12.85    0.47
  -5  -5   0   17.71    0.62
  -5   5   0   17.83    0.47
   5   5   0   18.10    0.53
  -5   5   0   18.52    0.56
   5   5   0   18.80    0.59
   5   5   0   17.59    0.53
  -5   5   0   18.12    0.55
  -5   5   0   17.28    0.47
   5   5   0   18.67    0.59
  -5   5   0   18.86    0.67
  -5   5   0   17.54    0.54
   5   5   0   19.88    0.74
  -5   5   0   18.03    0.57
   5   5   0   17.07    0.50
  -5   5   0   17.64    0.55
   5   5   0   17.85    0.56
  -7  -5   0    0.94    0.17
   7  -5   0    1.03    0.13
  -7  -5   0    0.85    0.13
  -7   5   0    1.05    0.15
  -7   5   0    1.05    0.14
  -7   5   0    0.96    0.16
   7   5   0    1.18    0.15
   7   5   0    1.08    0.15
   7   5   0    0.91    0.12
   7   5   0    0.92    0.19
  -7   5   0    0.95    0.15
  -7   5   0    1.05    0.12
  -7   5   0    1.07    0.15
   7   5   0    1.02    0.15
   7   5   0    1.18    0.15
  -7   5   0    1.12    0.14
   7   5   0    1.02    0.14
  -7   5   0    1.04    0.14
  -9  -5   0    2.35    0.28
   9  -5   0    1.96    0.19
  -9  -5   0    2.17    0.22
   9   5   0    2.27    0.25
  -9   5   0    1.91    0.26
  -9   5   0    2.44    0.23
  -9   5   0    2.36    0.21
  -9   5   0    2.51    0.26
   9   5   0    2.22    0.24
  -9   5   0    2.20    0.23
  -9   5   0    2.39    0.25
 -11  -5   0    0.18    0.10
  11  -5   0    0.26    0.10
 -11  -5   0    0.18    0.12
 -11   5   0    0.32    0.11
  11   5   0    0.31    0.22
  11   5   0    0.35    0.12
  11   5   0   -0.08    0.31
  11   5   0    0.38    0.13
  11   5   0    0.29    0.25
  11   5   0    0.82    0.30
 -11   5   0    0.04    0.17
 -11   5   0    0.11    0.19
  11   5   0    0.35    0.16
 -11   5   0    0.28    0.12
  11   5   0    0.53    0.19
 -11   5   0    0.21    0.13
 -11   5   0    0.21    0.10
 -11   5   0    0.41    0.14
 -11   5   0    0.41    0.13
 -11   5   0    0.34    0.13
  13  -5   0    2.39    0.29
 -13  -5   0    1.71    0.25
 -13  -5   0    2.34    0.33
  13   5   0    1.83    0.27
  13   5   0    2.29    0.35
 -13   5   0    1.96    0.36
  13   5   0    2.74    0.59
 -13   5   0    1.95    0.35
  13   5   0    2.43    0.34
  13   5   0    1.68    0.39
 -13   5   0    2.17    0.28
 -13   5   0    2.29    0.26
 -13   5   0    2.49    0.29
  13   5   0    2.20    0.35
  13   5   0    2.38    0.30
 -13   5   0    1.89    0.30
 -13   5   0    2.64    0.49
 -13   5   0    2.14    0.30
 -13   5   0    2.21    0.28
  15  -5   0    3.97    0.39
 -15  -5   0    3.07    0.33
 -15   5   0    3.99    0.39
 -15   5   0    3.51    0.35
 -15   5   0    3.57    0.52
  15   5   0    4.18    0.41
  15   5   0    4.20    0.70
  15   5   0    3.40    0.39
  15   5   0    4.30    0.43
 -15   5   0    3.99    0.38
  15   5   0    2.68    0.44
 -15   5   0    3.90    0.50
 -15   5   0    3.84    0.36
  15   5   0    3.99    0.47
 -17  -5   0    1.29    0.34
  17  -5   0    1.36    0.24
  17   5   0    1.08    0.23
  17   5   0    1.70    0.45
 -17   5   0    1.33    0.30
  17   5   0    1.37    0.26
  17   5   0    1.72    0.29
 -17   5   0    1.45    0.34
 -17   5   0    0.96    0.21
  17   5   0    1.44    0.26
  17   5   0    1.27    0.33
  17   5   0    0.84    0.37
 -17   5   0    1.40    0.22
 -17   5   0    1.09    0.22
 -19  -5   0    5.85    0.42
 -19  -5   0    3.65    0.45
  19  -5   0    3.77    0.33
  19   5   0    4.09    0.42
  19   5   0    5.98    0.37
  19   5   0    5.41    0.57
  19   5   0    5.88    0.38
 -19   5   0    3.08    0.40
  19   5   0    4.65    0.49
 -19   5   0    5.86    0.43
   0  -6   0   63.86    1.66
   0   6   0   66.67    1.47
   0   6   0   68.69    1.96
   0   6   0   66.41    1.61
   0   6   0   64.32    1.50
   0   6   0   65.11    1.53
   0   6   0   63.74    1.52
   0   6   0   64.12    1.44
   2  -6   0   49.14    1.33
  -2  -6   0   52.06    1.38
   2   6   0   48.45    1.24
   2   6   0   52.38    1.23
  -2   6   0   54.27    1.58
   2   6   0   50.76    1.38
  -2   6   0   51.60    1.20
   2   6   0   50.79    1.21
  -2   6   0   49.68    1.21
  -2   6   0   53.58    1.24
  -2   6   0   50.78    1.16
   2   6   0   50.20    1.17
  -2   6   0   50.74    1.23
   2   6   0   53.08    1.32
   2   6   0   50.55    1.24
  -2   6   0   52.39    1.26
   2   6   0   54.50    1.62
  -2   6   0   49.93    1.17
  -4  -6   0   17.34    0.62
   4   6   0   16.70    0.50
   4   6   0   17.18    0.59
  -4   6   0   16.83    0.46
  -4   6   0   16.06    0.44
  -4   6   0   16.67    0.53
   4   6   0   17.84    0.58
  -4   6   0   17.36    0.54
   4   6   0   16.81    0.55
  -4   6   0   17.20    0.55
   4   6   0   17.97    0.71
   4   6   0   17.49    0.54
  -4   6   0   17.88    0.65
  -4   6   0   17.06    0.55
   4   6   0   17.21    0.52
  -4   6   0   16.88    0.52
   6  -6   0    1.89    0.18
  -6  -6   0    1.50    0.22
   6   6   0    1.83    0.19
  -6   6   0    1.67    0.17
   6   6   0    1.57    0.19
  -6   6   0    1.79    0.19
  -6   6   0    1.63    0.14
   6   6   0    1.51    0.16
  -6   6   0    1.38    0.17
   6   6   0    1.69    0.25
   6   6   0    1.59    0.20
   6   6   0    1.57    0.17
  -6   6   0    1.78    0.22
  -6   6   0    1.50    0.19
  -6   6   0    1.61    0.19
   6   6   0    1.67    0.19
   8  -6   0    3.81    0.23
  -8  -6   0    3.69    0.36
   8   6   0    3.78    0.27
   8   6   0    3.81    0.25
  -8   6   0    3.87    0.31
   8   6   0    3.80    0.25
  -8   6   0    3.69    0.27
  -8   6   0    4.34    0.33
   8   6   0    3.26    0.38
   8   6   0    4.05    0.33
  -8   6   0    3.94    0.21
  -8   6   0    4.39    0.34
  -8   6   0    3.96    0.31
 -10  -6   0    3.41    0.37
 -10  -6   0    3.13    0.36
  10  -6   0    3.28    0.27
 -10   6   0    2.93    0.29
 -10   6   0    3.39    0.30
 -10   6   0    3.81    0.54
  10   6   0    3.31    0.33
  10   6   0    4.27    0.66
  10   6   0    3.53    0.51
  10   6   0    3.60    0.41
 -10   6   0    3.51    0.33
  10   6   0    3.54    0.37
 -10   6   0    3.44    0.34
 -10   6   0    3.49    0.35
 -10   6   0    3.48    0.38
 -10   6   0    3.60    0.23
  10   6   0    3.50    0.34
 -10   6   0    3.09    0.42
 -10   6   0    2.99    0.29
 -12  -6   0    0.30    0.16
  12  -6   0    0.36    0.14
 -12   6   0    0.44    0.16
 -12   6   0    0.28    0.22
 -12   6   0    0.32    0.13
 -12   6   0    0.30    0.16
  12   6   0    0.24    0.17
  12   6   0    0.40    0.16
  12   6   0    0.53    0.24
 -12   6   0    0.38    0.25
 -12   6   0    0.33    0.14
  12   6   0    0.27    0.35
  12   6   0    0.27    0.26
 -12   6   0    0.33    0.11
 -12   6   0    0.37    0.14
  12   6   0    0.35    0.15
 -12   6   0    0.46    0.18
  12   6   0    0.21    0.16
  14  -6   0    6.43    0.50
 -14   6   0    6.48    0.39
 -14   6   0    5.36    0.59
 -14   6   0    4.81    0.42
 -14   6   0    6.41    0.47
  14   6   0    5.62    0.48
  14   6   0    5.06    0.50
  14   6   0    6.48    0.89
  14   6   0    5.58    0.47
 -14   6   0    6.48    0.49
 -14   6   0    5.80    0.51
 -14   6   0    5.55    0.70
  14   6   0    5.38    0.50
  16  -6   0    0.39    0.18
 -16   6   0    0.87    0.31
 -16   6   0    0.61    0.23
  16   6   0    0.39    0.19
  16   6   0    0.63    0.19
 -16   6   0    0.54    0.18
  16   6   0    0.61    0.21
  16   6   0    0.58    0.20
  16   6   0    0.79    0.34
 -16   6   0    0.54    0.18
  16   6   0    0.60    0.41
 -18  -6   0    0.46    0.22
  18   6   0    0.42    0.17
  18   6   0   -0.14    0.25
  18   6   0    0.19    0.15
 -18   6   0    0.21    0.20
 -18   6   0    0.58    0.24
  18   6   0    0.30    0.23
   1  -7   0   13.29    0.52
  -1  -7   0   13.68    0.54
   1   7   0   13.95    0.47
  -1   7   0   14.09    0.56
   1   7   0   12.37    0.46
   1   7   0   13.04    0.44
   1   7   0   13.49    0.49
  -1   7   0   13.16    0.39
   1   7   0   14.04    0.58
   1   7   0   13.77    0.41
  -1   7   0   13.71    0.48
   1   7   0   12.98    0.48
  -1   7   0   12.64    0.45
  -1   7   0   12.43    0.41
  -1   7   0   14.02    0.47
  -1   7   0   13.06    0.46
  -3  -7   0    1.92    0.23
   3  -7   0    1.61    0.21
   3   7   0    1.79    0.19
  -3   7   0    2.00    0.21
   3   7   0    1.89    0.20
   3   7   0    1.91    0.17
  -3   7   0    1.79    0.16
  -3   7   0    1.82    0.19
  -3   7   0    1.84    0.14
  -3   7   0    1.76    0.18
   3   7   0    2.20    0.22
   3   7   0    1.93    0.24
  -3   7   0    1.89    0.19
   3   7   0    1.88    0.20
   3   7   0    1.95    0.20
  -3   7   0    1.98    0.21
  -5  -7   0    2.08    0.27
  -5   7   0    1.73    0.14
   5   7   0    1.98    0.21
   5   7   0    1.76    0.21
  -5   7   0    1.70    0.21
   5   7   0    1.75    0.21
  -5   7   0    1.73    0.17
   5   7   0    1.97    0.19
  -5   7   0    1.77    0.19
   5   7   0    1.58    0.17
  -5   7   0    1.79    0.22
   5   7   0    1.82    0.21
  -5   7   0    1.87    0.21
  -5   7   0    1.74    0.19
   5   7   0    1.65    0.25
  -7  -7   0    0.97    0.21
   7  -7   0    1.30    0.17
  -7   7   0    1.17    0.18
   7   7   0    1.11    0.18
  -7   7   0    0.98    0.17
   7   7   0    1.00    0.17
  -7   7   0    1.20    0.18
   7   7   0    1.00    0.22
  -7   7   0    0.81    0.11
  -7   7   0    0.96    0.17
   7   7   0    0.89    0.15
   7   7   0    1.07    0.18
  -7   7   0    1.00    0.19
  -7   7   0    0.91    0.14
   7   7   0    0.92    0.16
  -9  -7   0    3.18    0.37
   9  -7   0    3.15    0.27
  -9   7   0    2.66    0.31
  -9   7   0    2.95    0.30
   9   7   0    2.96    0.32
   9   7   0    3.13    0.32
  -9   7   0    3.37    0.23
   9   7   0    3.05    0.38
  -9   7   0    3.14    0.32
  -9   7   0    2.95    0.41
   9   7   0    3.78    0.63
  -9   7   0    3.09    0.27
  -9   7   0    2.90    0.47
   9   7   0    2.91    0.34
  -9   7   0    2.87    0.34
  -9   7   0    3.20    0.32
   9   7   0    3.70    0.53
 -11  -7   0    3.46    0.39
 -11  -7   0    3.20    0.40
  11   7   0    4.60    0.72
 -11   7   0    3.42    0.46
  11   7   0    4.04    0.59
  11   7   0    3.52    0.38
  11   7   0    3.86    0.40
 -11   7   0    2.96    0.36
 -11   7   0    3.77    0.34
 -11   7   0    3.45    0.43
 -11   7   0    4.39    0.61
 -11   7   0    3.89    0.36
 -11   7   0    4.11    0.40
 -11   7   0    3.72    0.31
  11   7   0    3.67    0.37
  11   7   0    3.77    0.43
  13  -7   0    8.28    0.48
 -13   7   0    8.34    0.45
  13   7   0    8.04    0.51
 -13   7   0    7.93    0.62
 -13   7   0    8.70    0.45
  13   7   0    8.02    0.58
  13   7   0    8.27    0.51
 -13   7   0    8.62    0.51
  13   7   0    8.16    0.57
 -13   7   0    8.83    0.48
 -13   7   0    8.04    0.73
  13   7   0    8.57    0.82
  13   7   0    8.85    0.73
  15  -7   0    0.34    0.15
 -15   7   0    0.17    0.12
  15   7   0   -0.05    0.31
  15   7   0    0.19    0.15
 -15   7   0    0.15    0.20
  15   7   0   -0.04    0.23
  15   7   0    0.10    0.17
 -15   7   0    0.26    0.23
 -15   7   0    0.30    0.17
  15   7   0    0.26    0.16
  15   7   0    0.19    0.18
 -17  -7   0    1.88    0.34
 -17   7   0    1.14    0.29
  17   7   0    1.85    0.44
  17   7   0    2.12    0.30
 -17   7   0    2.03    0.34
  17   7   0    2.07    0.27
  17   7   0    1.31    0.40
  17   7   0    2.36    0.32
  19  -7   0    0.02    0.11
  19   7   0   -0.14    0.21
   0  -8   0   20.31    0.74
   0   8   0   20.66    0.58
   0   8   0   20.33    0.64
   0   8   0   19.85    0.65
   0   8   0   21.24    0.68
   0   8   0   19.88    0.80
   0   8   0   21.06    0.66
   2  -8   0    1.02    0.18
  -2  -8   0    1.12    0.19
   2   8   0    1.09    0.15
   2   8   0    0.95    0.13
  -2   8   0    0.82    0.13
   2   8   0    0.95    0.16
  -2   8   0    1.02    0.14
  -2   8   0    0.81    0.14
  -2   8   0    1.03    0.16
   2   8   0    0.96    0.16
  -2   8   0    0.98    0.12
  -2   8   0    0.94    0.17
   2   8   0    1.02    0.19
   2   8   0    1.13    0.17
   2   8   0    1.03    0.16
  -4  -8   0    7.53    0.43
   4   8   0    6.93    0.37
  -4   8   0    6.92    0.40
   4   8   0    7.31    0.37
   4   8   0    7.40    0.38
   4   8   0    6.80    0.33
   4   8   0    7.17    0.46
  -4   8   0    7.67    0.37
   4   8   0    7.52    0.33
   4   8   0    7.33    0.36
   4   8   0    6.98    0.39
  -4   8   0    6.98    0.35
  -4   8   0    6.82    0.36
  -4   8   0    6.90    0.33
  -4   8   0    7.34    0.28
  -6  -8   0    0.13    0.13
   6  -8   0    0.08    0.06
   6   8   0    0.07    0.08
  -6   8   0    0.10    0.10
   6   8   0    0.13    0.09
   6   8   0    0.13    0.09
  -6   8   0    0.04    0.06
  -6   8   0    0.24    0.09
  -6   8   0    0.16    0.08
  -6   8   0    0.08    0.07
   6   8   0    0.16    0.09
  -6   8   0    0.15    0.09
   6   8   0    0.11    0.11
  -6   8   0    0.33    0.10
   6   8   0    0.17    0.09
   6   8   0    0.20    0.09
  -8  -8   0    1.78    0.29
   8  -8   0    1.48    0.19
   8   8   0    2.19    0.42
  -8   8   0    1.64    0.26
   8   8   0    1.77    0.45
   8   8   0    1.50    0.23
  -8   8   0    1.36    0.22
   8   8   0    1.60    0.36
  -8   8   0    1.75    0.37
  -8   8   0    1.78    0.29
   8   8   0    1.74    0.31
   8   8   0    1.62    0.24
  -8   8   0    1.60    0.18
   8   8   0    1.73    0.24
   8   8   0    1.60    0.34
   8   8   0    1.68    0.22
  -8   8   0    1.65    0.23
  -8   8   0    1.56    0.22
  -8   8   0    1.66    0.21
  -8   8   0    1.76    0.25
   8   8   0    1.56    0.27
  -8   8   0    1.45    0.29
  10  -8   0    1.84    1.01
 -10  -8   0    3.63    0.42
  10  -8   0    3.11    0.29
 -10  -8   0    3.39    0.42
 -10   8   0    3.37    0.29
 -10   8   0    3.71    0.56
  10   8   0    4.04    0.58
 -10   8   0    3.46    0.35
  10   8   0    3.44    0.39
 -10   8   0    3.20    0.45
 -10   8   0    3.41    0.36
  10   8   0    4.45    0.73
 -10   8   0    3.98    0.34
  10   8   0    3.18    0.36
  10   8   0    3.37    0.36
 -10   8   0    2.64    0.32
  10   8   0    3.25    0.42
 -10   8   0    3.13    0.36
  12  -8   0    0.35    0.78
  12   8   0    0.05    0.35
  12   8   0    0.69    0.22
 -12   8   0    0.55    0.17
 -12   8   0    0.48    0.25
  12   8   0    0.58    0.26
 -12   8   0    0.44    0.14
 -12   8   0    0.56    0.19
  12   8   0    0.65    0.19
 -12   8   0    0.66    0.25
  12   8   0    0.68    0.34
  12   8   0    0.30    0.17
 -12   8   0    0.63    0.17
  14  -8   0    7.99    0.48
 -14   8   0    7.90    0.49
  14   8   0    7.53    0.77
  14   8   0    7.55    0.55
  14   8   0    7.87    0.51
 -14   8   0    7.83    0.47
  14   8   0    8.19    0.50
  14   8   0    7.94    0.54
 -14   8   0    8.05    0.62
  14   8   0    7.00    0.81
 -14   8   0    7.48    0.69
 -14   8   0    7.79    0.44
  16   8   0   -0.12    0.27
 -16   8   0    0.30    0.22
  16   8   0    0.01    0.23
  16   8   0    0.02    0.14
  16   8   0    0.04    0.14
  16   8   0    0.14    0.15
 -16   8   0    0.18    0.20
  18  -8   0    2.37    0.24
 -18  -8   0    2.71    0.34
  18   8   0    2.75    0.43
  18   8   0    2.41    0.40
  18   8   0    4.35    0.31
 -18   8   0    3.95    0.39
  18   8   0    3.91    0.31
   1  -9   0    6.54    0.41
  -1  -9   0    7.04    0.43
   1   9   0    7.51    0.32
  -1   9   0    7.73    0.39
  -1   9   0    6.90    0.36
   1   9   0    7.81    0.37
   1   9   0    7.79    0.39
  -1   9   0    7.45    0.44
   1   9   0    7.43    0.38
   1   9   0    7.20    0.38
   1   9   0    6.97    0.45
  -1   9   0    7.27    0.31
   1   9   0    7.55    0.37
  -1   9   0    7.12    0.37
  -3  -9   0    2.22    0.31
   3  -9   0    2.15    0.28
   3   9   0    2.05    0.24
  -3   9   0    1.77    0.24
   3   9   0    2.08    0.25
  -3   9   0    2.07    0.18
   3   9   0    2.09    0.29
  -3   9   0    2.19    0.24
   3   9   0    2.04    0.21
  -3   9   0    1.97    0.24
   3   9   0    1.91    0.24
  -3   9   0    1.76    0.21
  -3   9   0    2.18    0.23
   3   9   0    1.94    0.22
   3   9   0    2.07    0.25
  -5  -9   0    0.35    0.16
   5   9   0    0.34    0.20
   5   9   0    0.28    0.15
   5   9   0    0.35    0.11
   5   9   0    0.24    0.15
   5   9   0    0.58    0.15
  -5   9   0    0.27    0.08
   5   9   0    0.21    0.21
  -5   9   0    0.78    0.18
  -5   9   0    0.45    0.14
  -5   9   0    0.36    0.14
  -5   9   0    0.38    0.11
   5   9   0    0.37    0.13
  -5   9   0    0.44    0.12
  -5   9   0    0.59    0.21
   5   9   0    0.17    0.25
   5   9   0    0.31    0.12
   5   9   0    0.43    0.13
   5   9   0    0.30    0.22
  -7  -9   0   11.42    0.64
   7  -9   0   11.96    0.49
  -7   9   0   10.64    0.64
  -7   9   0   10.61    0.71
   7   9   0   12.15    0.51
   7   9   0   11.98    0.60
   7   9   0   10.91    0.77
   7   9   0   12.47    0.56
  -7   9   0   10.99    0.53
  -7   9   0   11.96    0.64
   7   9   0   10.49    0.69
   7   9   0   11.93    0.84
   7   9   0   10.97    0.89
  -7   9   0   12.12    0.55
   7   9   0   11.42    0.73
  -7   9   0   10.83    0.80
  -7   9   0   12.21    0.53
  -7   9   0   11.75    0.44
   7   9   0   12.33    0.56
   7   9   0   11.13    0.62
   7   9   0   11.25    0.57
   9  -9   0   11.26    2.03
   9  -9   0   10.26    0.46
  -9  -9   0   10.05    0.62
  -9  -9   0    9.57    0.62
   9   9   0   10.33    0.79
   9   9   0   10.25    0.76
   9   9   0    9.94    0.61
  -9   9   0    9.99    0.69
  -9   9   0   10.51    0.80
  -9   9   0   10.82    0.45
  -9   9   0   10.43    0.53
  -9   9   0    9.24    0.59
  -9   9   0   10.95    0.52
  -9   9   0   10.45    0.45
   9   9   0   10.74    0.90
   9   9   0   10.68    0.55
   9   9   0   10.42    0.53
   9   9   0    9.18    0.55
   9   9   0   10.55    0.59
 -11  -9   0   25.64    1.04
  11  -9   0   25.09    0.83
 -11   9   0   26.01    1.25
  11   9   0   26.16    0.94
  11   9   0   28.26    1.15
  11   9   0   26.50    0.98
  11   9   0   26.92    1.04
 -11   9   0   26.43    0.97
  11   9   0   28.02    1.44
  11   9   0   26.96    1.61
 -11   9   0   25.74    1.13
 -11   9   0   26.25    1.42
 -11   9   0   26.67    0.93
 -11   9   0   27.19    0.84
 -11   9   0   28.87    0.89
  13  -9   0    0.25    0.71
  13  -9   0    1.08    0.23
  13   9   0    0.80    0.39
  13   9   0    0.89    0.25
 -13   9   0    0.88    0.22
  13   9   0    1.06    0.25
  13   9   0    1.01    0.38
 -13   9   0    0.95    0.19
  13   9   0    0.80    0.20
 -13   9   0    1.30    0.36
  13   9   0    1.27    0.36
 -13   9   0    1.07    0.32
 -13   9   0    1.08    0.21
  13   9   0    1.15    0.24
  13   9   0    0.83    0.25
  15   9   0    0.34    0.31
 -15   9   0    0.29    0.22
  15   9   0    0.52    0.19
  15   9   0    0.66    0.30
  15   9   0    0.61    0.20
 -15   9   0    0.67    0.25
  15   9   0    0.85    0.20
 -17  -9   0    1.67    0.29
  17   9   0    2.79    0.31
 -17   9   0    2.68    0.35
  17   9   0    1.97    0.40
  17   9   0    2.63    0.27
  17   9   0    2.75    0.47
  17   9   0    2.81    0.30
   0 -10   0    2.44    0.33
   0  10   0    2.47    0.32
   0  10   0    2.76    0.30
   0  10   0    3.19    0.50
   0  10   0    3.00    0.46
   0  10   0    2.70    0.57
   0  10   0    2.18    0.25
   0  10   0    2.66    0.23
   0  10   0    2.72    0.28
   0  10   0    2.78    0.40
   2 -10   0    0.93    0.20
  -2 -10   0    0.60    0.19
   2  10   0    0.76    0.17
   2  10   0    0.48    0.15
  -2  10   0    0.53    0.32
  -2  10   0    0.82    0.25
   2  10   0    0.71    0.20
  -2  10   0    0.67    0.12
  -2  10   0    0.65    0.16
   2  10   0    0.65    0.31
   2  10   0    0.45    0.13
   2  10   0    0.83    0.28
  -2  10   0    0.83    0.28
  -2  10   0    0.73    0.16
  -2  10   0    0.90    0.29
   2  10   0    0.44    0.22
  -2  10   0    0.78    0.19
   2  10   0    0.49    0.14
   2  10   0    0.38    0.17
   2  10   0    0.71    0.25
   2  10   0    0.66    0.14
   2  10   0    0.67    0.26
  -2  10   0    0.67    0.16
  -2  10   0    0.85    0.28
  -4 -10   0    1.59    0.30
  -4  10   0    1.32    0.16
   4  10   0    1.69    0.38
  -4  10   0    1.38    0.24
  -4  10   0    1.60    0.34
  -4  10   0    1.84    0.39
  -4  10   0    1.69    0.25
   4  10   0    1.44    0.28
  -4  10   0    1.58    0.24
   4  10   0    1.55    0.36
  -4  10   0    1.56    0.22
  -4  10   0    1.82    0.35
   4  10   0    1.41    0.23
  -4  10   0    1.17    0.40
   4  10   0    1.61    0.44
   4  10   0    1.46    0.22
  -4  10   0    1.36    0.27
   4  10   0    1.48    0.25
  -4  10   0    1.43    0.36
  -4  10   0    1.38    0.20
   4  10   0    1.58    0.24
   4  10   0    1.60    0.21
   4  10   0    1.39    0.23
   4  10   0    1.52    0.35
   4  10   0    1.62    0.33
   6 -10   0   53.16    1.32
  -6 -10   0   50.39    1.68
   6  10   0   50.56    1.56
   6  10   0   47.18    1.64
  -6  10   0   50.63    1.80
  -6  10   0   54.92    1.40
   6  10   0   51.40    1.94
   6  10   0   51.31    1.39
   6  10   0   52.15    2.45
   6  10   0   50.07    2.14
  -6  10   0   50.16    1.93
  -6  10   0   46.45    2.19
   6  10   0   47.99    1.90
  -6  10   0   48.55    1.91
  -6  10   0   54.26    1.33
  -6  10   0   48.40    1.44
  -6  10   0   51.66    1.46
  -6  10   0   51.08    2.16
   6  10   0   49.32    2.13
   6  10   0   50.48    1.60
   6  10   0   51.59    1.45
   6  10   0   53.57    1.48
   8 -10   0    2.82    1.23
  -8 -10   0    5.22    0.54
   8 -10   0    4.64    0.38
  -8 -10   0    4.24    0.48
   8  10   0    5.65    0.68
  -8  10   0    5.01    0.30
  -8  10   0    5.30    0.47
  -8  10   0    5.06    0.43
  -8  10   0    4.67    0.43
   8  10   0    5.62    0.71
  -8  10   0    4.61    0.42
   8  10   0    5.29    0.53
   8  10   0    5.13    0.60
   8  10   0    4.96    0.47
   8  10   0    4.66    0.39
   8  10   0    6.06    0.86
   8  10   0    4.94    0.44
   8  10   0    4.69    0.43
  -8  10   0    5.57    0.68
  -8  10   0    5.12    0.60
  -8  10   0    5.04    0.43
  10 -10   0    0.76    0.93
 -10 -10   0    0.88    0.25
  10 -10   0    0.66    0.16
  10  10   0    0.81    0.22
 -10  10   0    0.88    0.33
 -10  10   0    0.69    0.21
 -10  10   0    0.86    0.17
  10  10   0    1.18    0.30
 -10  10   0    0.82    0.27
  10  10   0    1.03    0.34
 -10  10   0    1.11    0.23
  10  10   0    0.62    0.21
  10  10   0    0.87    0.30
  10  10   0    0.92    0.35
  10  10   0    0.98    0.22
 -10  10   0    1.06    0.22
 -12 -10   0    8.54    0.54
 -12  10   0    9.04    0.46
 -12  10   0    9.50    0.54
 -12  10   0    8.77    0.74
  12  10   0    8.90    0.52
  12  10   0    9.58    0.60
  12  10   0    8.59    0.60
 -12  10   0    9.12    0.50
 -12  10   0    9.18    0.67
  12  10   0    9.29    0.56
  12  10   0    9.04    0.75
  12  10   0    7.98    0.79
  12  10   0    8.32    0.50
  14 -10   0    0.16    0.61
 -14 -10   0   -0.20    0.24
 -14  10   0    0.24    0.23
  14  10   0    0.31    0.33
  14  10   0    0.06    0.21
 -14  10   0    0.31    0.22
  14  10   0    0.36    0.16
  14  10   0    0.20    0.15
  14  10   0    0.25    0.16
  16 -10   0    0.47    0.17
  16  10   0    0.29    0.23
 -16  10   0    0.54    0.21
  16  10   0    0.26    0.16
  16  10   0    0.63    0.16
  16  10   0    0.38    0.32
  16  10   0    0.48    0.15
  -1 -11   0    0.10    0.16
   1 -11   0   -0.12    0.13
  -1  11   0    0.06    0.10
   1  11   0   -0.05    0.14
   1  11   0    0.00    0.10
  -1  11   0    0.06    0.10
   1  11   0    0.09    0.08
  -1  11   0   -0.01    0.17
   1  11   0    0.07    0.10
  -1  11   0   -0.16    0.14
   1  11   0    0.19    0.26
   1  11   0    0.07    0.11
   1  11   0    0.02    0.18
   1  11   0    0.13    0.23
  -1  11   0    0.02    0.11
  -1  11   0    0.03    0.17
  -1  11   0    0.02    0.11
  -1  11   0    0.16    0.26
   1  11   0    0.13    0.13
  -1  11   0   -0.15    0.24
   1  11   0    0.00    0.12
  -1  11   0   -0.07    0.07
   1  11   0    0.02    0.14
  -3 -11   0    1.83    0.33
   3  11   0    1.79    0.22
   3  11   0    1.69    0.26
  -3  11   0    1.52    0.34
  -3  11   0    1.88    0.27
  -3  11   0    1.34    0.22
   3  11   0    1.93    0.49
   3  11   0    1.97    0.42
  -3  11   0    2.08    0.28
  -3  11   0    1.65    0.28
  -3  11   0    1.75    0.20
  -3  11   0    1.83    0.30
   3  11   0    1.66    0.37
   3  11   0    2.13    0.43
   3  11   0    1.73    0.40
  -3  11   0    1.98    0.38
   3  11   0    1.43    0.23
   3  11   0    1.41    0.24
  -3  11   0    1.93    0.42
  -3  11   0    1.57    0.45
   3  11   0    2.07    0.32
   3  11   0    1.75    0.33
  -3  11   0    1.94    0.41
   5 -11   0    2.23    0.26
  -5 -11   0    1.54    0.29
  -5 -11   0    1.78    0.34
  -5  11   0    1.70    0.48
   5  11   0    2.25    0.52
   5  11   0    2.22    0.30
   5  11   0    2.42    0.45
  -5  11   0    2.55    0.47
  -5  11   0    2.16    0.43
   5  11   0    2.36    0.33
  -5  11   0    2.02    0.32
   5  11   0    2.22    0.44
  -5  11   0    2.36    0.29
  -5  11   0    2.47    0.44
   5  11   0    2.16    0.30
   5  11   0    2.59    0.42
  -5  11   0    1.94    0.32
  -5  11   0    2.20    0.30
  -5  11   0    1.81    0.27
   5  11   0    1.90    0.37
  -5  11   0    2.25    0.40
  -5  11   0    2.14    0.23
   5  11   0    1.95    0.30
   5  11   0    2.03    0.25
  -7 -11   0   37.72    1.41
   7 -11   0   38.32    1.10
   7 -11   0   29.54    3.77
   7  11   0   36.90    1.14
   7  11   0   39.21    1.80
  -7  11   0   38.11    1.21
   7  11   0   39.15    1.77
  -7  11   0   37.68    1.54
  -7  11   0   37.78    1.79
  -7  11   0   37.99    1.14
  -7  11   0   37.06    1.08
   7  11   0   38.34    2.01
   7  11   0   38.06    1.22
   7  11   0   37.62    1.59
  -7  11   0   37.55    1.60
   7  11   0   37.88    1.37
   7  11   0   38.44    1.22
   7  11   0   37.54    1.31
   9 -11   0    7.73    2.05
  -9 -11   0    9.16    0.60
   9 -11   0    9.01    0.46
   9  11   0    8.99    0.51
   9  11   0    9.35    0.77
  -9  11   0    8.83    0.77
   9  11   0    9.37    0.86
   9  11   0    9.02    0.56
  -9  11   0    8.56    0.67
  -9  11   0    9.18    0.50
  -9  11   0    9.63    0.45
   9  11   0    9.64    0.61
  -9  11   0   10.06    0.61
  -9  11   0    9.50    0.53
   9  11   0    9.92    0.77
   9  11   0    9.95    0.56
 -11 -11   0    9.16    0.60
 -11  11   0   10.31    0.54
  11  11   0   11.11    0.69
  11  11   0   10.40    0.60
  11  11   0   10.68    0.60
 -11  11   0   11.19    0.75
 -11  11   0    9.19    0.76
 -11  11   0   11.22    0.58
  11  11   0    9.97    0.53
  11  11   0   10.35    0.91
  11  11   0   11.08    0.66
  11  11   0   10.26    0.79
 -11  11   0   11.59    0.51
 -13 -11   0    0.32    0.28
  13 -11   0   -0.20    0.53
  13  11   0    0.33    0.17
  13  11   0    0.36    0.22
  13  11   0    0.60    0.19
  13  11   0    0.40    0.17
  13  11   0    0.61    0.28
 -13  11   0    0.35    0.23
 -13  11   0    0.60    0.26
  15 -11   0    0.61    0.60
 -15  11   0    0.35    0.20
  15  11   0    0.45    0.14
  15  11   0    0.17    0.14
  15  11   0    0.13    0.15
  15  11   0    0.15    0.19
   0 -12   0    5.41    0.52
   0  12   0    3.97    0.47
   0  12   0    4.75    0.78
   0  12   0    5.55    0.68
   0  12   0    5.21    0.48
   0  12   0    6.30    0.72
   0  12   0    4.71    0.43
   0  12   0    4.67    0.42
   0  12   0    5.78    0.70
   0  12   0    6.06    0.48
   0  12   0    5.30    0.32
   0  12   0    4.71    0.57
  -2 -12   0    0.02    0.17
   2 -12   0   -0.04    0.81
  -2  12   0   -0.03    0.07
  -2  12   0   -0.25    0.12
  -2  12   0   -0.05    0.11
   2  12   0   -0.04    0.16
  -2  12   0    0.04    0.17
   2  12   0   -0.02    0.11
  -2  12   0   -0.04    0.19
   2  12   0    0.07    0.16
   2  12   0   -0.04    0.16
   2  12   0    0.01    0.09
  -2  12   0   -0.04    0.16
   2  12   0   -0.03    0.19
   2  12   0    0.10    0.16
  -2  12   0    0.06    0.11
  -2  12   0    0.18    0.28
   2  12   0    0.03    0.21
   2  12   0    0.11    0.20
   4 -12   0    0.26    0.12
   4 -12   0    0.80    0.93
  -4 -12   0    0.07    0.19
   4  12   0    0.00    0.17
   4  12   0    0.37    0.15
  -4  12   0    0.13    0.20
   4  12   0    0.38    0.14
  -4  12   0    0.04    0.25
  -4  12   0   -0.12    0.17
   4  12   0    0.26    0.21
   4  12   0    0.23    0.24
  -4  12   0    0.28    0.21
   4  12   0    0.34    0.26
  -4  12   0    0.26    0.16
   4  12   0    0.29    0.17
  -4  12   0    0.21    0.14
  -4  12   0    0.13    0.09
  -6 -12   0    4.53    0.52
   6 -12   0    3.99    1.47
   6 -12   0    3.97    0.37
   6  12   0    4.27    0.62
   6  12   0    3.65    0.51
   6  12   0    3.22    0.36
  -6  12   0    3.74    0.39
  -6  12   0    4.08    0.54
  -6  12   0    3.50    0.58
  -6  12   0    2.01    0.53
   6  12   0    3.79    0.40
   6  12   0    3.45    0.34
   6  12   0    4.05    0.57
   6  12   0    4.43    0.45
  -6  12   0    3.92    0.32
   6  12   0    4.39    0.72
  -6  12   0    3.89    0.46
  -6  12   0    3.52    0.55
   8 -12   0    9.65    2.47
  -8 -12   0    9.83    0.62
   8 -12   0    9.39    0.48
  -8  12   0    9.03    0.43
  -8  12   0    8.96    0.52
   8  12   0    9.48    0.61
   8  12   0    9.68    0.79
   8  12   0    8.94    0.83
   8  12   0    9.34    0.57
   8  12   0    8.11    0.51
  -8  12   0    8.65    0.49
   8  12   0    9.51    0.55
   8  12   0    8.81    0.72
  -8  12   0    8.02    0.87
  -8  12   0    9.42    0.77
  -8  12   0    9.62    0.61
  -8  12   0    9.34    0.68
 -10 -12   0    5.79    0.54
  10 -12   0    5.66    0.43
  10 -12   0    4.92    1.58
 -10  12   0    6.61    0.37
  10  12   0    5.65    0.75
  10  12   0    6.08    0.59
 -10  12   0    5.90    0.47
 -10  12   0    7.15    0.71
  10  12   0    4.25    0.40
  10  12   0    6.55    0.73
  10  12   0    6.73    0.50
 -10  12   0    6.84    0.53
  10  12   0    5.49    0.47
 -10  12   0    6.40    0.43
 -10  12   0    5.92    0.69
  10  12   0    5.27    0.47
  10  12   0    6.36    0.45
  12  12   0    8.91    0.52
  12  12   0    8.29    0.66
  12  12   0    8.60    0.49
 -12  12   0    8.18    0.66
  12  12   0    8.62    0.55
 -12  12   0    9.24    0.63
  12  12   0    7.92    0.73
  14 -12   0   -0.01    0.49
  14  12   0    0.47    0.16
  14  12   0    0.51    0.24
 -14  12   0    0.39    0.21
  14  12   0    0.65    0.15
  14  12   0    0.44    0.15
   1 -13   0    8.54    0.54
  -1 -13   0    8.26    0.57
  -1  13   0    8.20    0.49
  -1  13   0    8.44    0.42
  -1  13   0    8.73    0.74
  -1  13   0    8.39    0.86
   1  13   0    8.77    0.86
   1  13   0    7.79    0.56
  -1  13   0    8.36    0.70
   1  13   0    7.94    0.65
   1  13   0    7.94    0.71
  -1  13   0    7.83    0.69
  -1  13   0    8.29    0.50
  -1  13   0    7.62    0.63
   1  13   0    8.28    0.71
   1  13   0    8.37    0.50
   1  13   0    8.22    0.43
   1  13   0    8.23    0.74
   1  13   0    8.10    0.51
  -1  13   0    7.82    0.56
   3 -13   0   -0.04    0.73
   3 -13   0    0.23    0.13
  -3 -13   0    0.09    0.18
   3  13   0    0.09    0.18
  -3  13   0    0.43    0.23
  -3  13   0    0.16    0.22
   3  13   0    0.15    0.18
   3  13   0    0.09    0.14
  -3  13   0    0.24    0.21
  -3  13   0    0.03    0.24
  -3  13   0    0.01    0.09
  -3  13   0    0.06    0.16
  -3  13   0    0.15    0.13
   3  13   0    0.31    0.25
   3  13   0    0.32    0.16
   3  13   0    0.23    0.12
   3  13   0    0.17    0.24
   5 -13   0    0.05    0.83
  -5 -13   0    0.08    0.20
   5 -13   0    0.22    0.14
  -5  13   0    0.05    0.10
  -5  13   0    0.20    0.16
   5  13   0    0.29    0.14
   5  13   0    0.22    0.22
  -5  13   0   -0.01    0.19
   5  13   0    0.09    0.16
  -5  13   0    0.29    0.22
   5  13   0    0.07    0.14
   5  13   0    0.08    0.23
   5  13   0    0.06    0.18
  -5  13   0    0.01    0.12
  -5  13   0    0.24    0.20
   5  13   0    0.12    0.24
  -5  13   0    0.07    0.28
  -7 -13   0    2.63    0.38
   7 -13   0    3.11    0.32
   7 -13   0    2.25    1.18
   7  13   0    3.19    0.61
   7  13   0    3.50    0.40
  -7  13   0    3.47    0.40
   7  13   0    2.30    0.31
   7  13   0    3.25    0.49
  -7  13   0    2.96    0.47
  -7  13   0    3.18    0.29
   7  13   0    3.59    0.54
   7  13   0    3.65    0.56
  -7  13   0    3.52    0.38
  -7  13   0    3.26    0.49
  -9 -13   0    8.99    0.59
   9 -13   0    8.89    0.48
  -9  13   0    9.27    0.44
   9  13   0    9.48    0.53
   9  13   0    7.90    0.75
  -9  13   0    9.98    0.68
  -9  13   0   10.25    0.55
   9  13   0    9.39    0.72
  -9  13   0    8.45    0.50
  -9  13   0    8.31    0.71
   9  13   0    9.65    0.74
   9  13   0    9.34    0.60
   9  13   0    8.94    0.52
  11 -13   0    0.06    0.57
 -11  13   0    1.37    0.32
 -11  13   0    0.50    0.29
  11  13   0    1.17    0.23
  11  13   0    1.51    0.26
  11  13   0    0.88    0.24
 -11  13   0    1.40    0.30
  11  13   0    1.90    0.26
  11  13   0    1.31    0.39
 -13  13   0    2.89    0.35
  13  13   0    3.23    0.46
  13  13   0    3.43    0.30
   0 -14   0   14.46    0.75
   0  14   0   15.46    0.90
   0  14   0   15.37    0.99
   0  14   0   15.03    1.14
   0  14   0   15.69    0.98
   0  14   0   15.54    0.81
   0  14   0   13.96    0.94
   0  14   0   14.85    0.69
   0  14   0   15.20    0.61
   2 -14   0    2.56    0.30
  -2 -14   0    2.86    0.39
   2  14   0    2.74    0.46
  -2  14   0    3.59    0.54
   2  14   0    3.07    0.50
   2  14   0    2.32    0.33
  -2  14   0    2.42    0.32
   2  14   0    2.58    0.28
   2  14   0    2.03    0.30
  -2  14   0    1.99    0.40
  -2  14   0    2.93    0.29
   2  14   0    2.86    0.38
  -2  14   0    3.01    0.39
   2  14   0    2.69    0.42
   2  14   0    2.33    0.49
  -2  14   0    1.59    0.44
  -2  14   0    2.47    0.43
   4 -14   0    0.10    0.13
  -4 -14   0    0.53    0.23
   4 -14   0   -0.16    0.71
   4  14   0   -0.05    0.17
  -4  14   0   -0.03    0.20
  -4  14   0    0.09    0.19
   4  14   0   -0.11    0.21
   4  14   0    0.13    0.16
  -4  14   0   -0.27    0.23
  -4  14   0   -0.03    0.14
   4  14   0   -0.03    0.21
   4  14   0   -0.07    0.13
   4  14   0    0.09    0.19
  -4  14   0    0.00    0.13
  -4  14   0    0.25    0.22
   4  14   0    0.10    0.18
   4  14   0    0.17    0.17
  -4  14   0    0.18    0.12
   6 -14   0    3.98    1.47
   6 -14   0    5.13    0.40
  -6 -14   0    4.93    0.50
  -6  14   0    5.20    0.42
  -6  14   0    4.37    0.43
   6  14   0    4.78    0.53
   6  14   0    5.10    0.42
  -6  14   0    4.03    0.50
   6  14   0    4.75    0.45
   6  14   0    4.44    0.56
   6  14   0    4.71    0.71
  -6  14   0    2.75    0.45
  -6  14   0    4.78    0.31
   6  14   0    4.45    0.57
  -8 -14   0    2.61    0.44
   8 -14   0    1.74    1.04
   8  14   0    5.10    0.59
  -8  14   0    4.61    0.52
   8  14   0    4.54    0.41
  -8  14   0    3.89    0.49
   8  14   0    4.18    0.60
   8  14   0    4.56    0.40
   8  14   0    3.26    0.47
  -8  14   0    4.75    0.36
  10 -14   0    0.09    0.53
  10 -14   0    0.22    1.30
  10  14   0    0.41    0.16
  10  14   0    0.29    0.19
 -10  14   0   -0.01    0.20
  10  14   0    0.51    0.24
  10  14   0    0.33    0.17
 -10  14   0    0.40    0.22
 -10  14   0    0.24    0.19
  12 -14   0    0.00    0.40
   1 -15   0    0.11    0.15
  -1 -15   0    0.21    1.05
  -1 -15   0    0.22    0.15
  -1  15   0    0.36    0.16
   1  15   0    0.30    0.21
  -1  15   0    0.35    0.17
   1  15   0    0.31    0.24
  -1  15   0    0.39    0.21
   1  15   0    0.05    0.15
  -1  15   0    0.11    0.19
  -1  15   0    0.07    0.12
   1  15   0    0.19    0.16
   1  15   0    0.36    0.26
  -1  15   0    0.43    0.21
  -1  15   0    0.13    0.21
   1  15   0    0.37    0.22
  -3  15   0    0.79    0.30
   3  15   0    1.00    0.29
   3  15   0    1.00    0.23
  -3  15   0    0.64    0.25
  -3  15   0    0.62    0.30
  -3  15   0    0.87    0.22
   3  15   0    0.73    0.27
   3  15   0    0.88    0.22
   3  15   0    0.80    0.26
  -3  15   0    0.91    0.29
   3  15   0    0.56    0.24
   5 -15   0   -0.04    0.61
   5  15   0    0.29    0.21
  -5  15   0    0.21    0.14
  -5  15   0    0.28    0.25
   5  15   0    0.19    0.16
  -5  15   0    0.39    0.20
   5  15   0    0.32    0.21
   5  15   0    0.22    0.16
   5  15   0    0.17    0.19
  -5  15   0    0.29    0.22
   5  15   0    0.12    0.23
  -5  15   0    0.11    0.22
  -7 -15   0    1.66    0.34
   7 -15   0    0.86    0.71
   7 -15   0    0.39    1.09
   7  15   0    2.71    0.33
   7  15   0    1.35    0.30
  -7  15   0    2.15    0.34
  -7  15   0    2.68    0.39
   7  15   0    2.78    0.42
   7  15   0    2.22    0.26
  -7  15   0    2.89    0.30
   7  15   0    2.29    0.43
   9 -15   0    0.28    0.52
   9 -15   0    0.07    1.14
   9  15   0    1.51    0.22
  -9  15   0    0.20    0.23
   9  15   0    1.50    0.31
   9  15   0    0.68    0.19
   9  15   0    1.50    0.23
  -9  15   0    1.64    0.29
   0  16   0    5.00    0.51
   0  16   0    3.22    0.53
   0  16   0    3.77    0.47
   0  16   0    5.20    0.38
   2 -16   0    0.01    0.78
   2  16   0    0.51    0.23
  -2  16   0    0.36    0.22
   2  16   0    0.34    0.15
   2  16   0    0.02    0.18
  -2  16   0    0.40    0.22
  -2  16   0    0.49    0.17
  -2  16   0    0.23    0.22
   2  16   0    0.20    0.20
   4 -16   0    0.30    0.96
  -4  16   0    0.58    0.26
   4  16   0    0.77    0.28
   4  16   0    1.14    0.25
  -4  16   0    1.18    0.28
   4  16   0    1.70    0.33
   4  16   0    1.77    0.25
  -4  16   0    0.76    0.22
  -4  16   0    1.74    0.24
   4  16   0    0.63    0.20
   6 -16   0    0.08    0.80
   6  16   0    0.58    0.22
  -6  16   0    0.25    0.19
  -6  16   0    0.87    0.23
   6  16   0    0.17    0.17
   6  16   0    0.68    0.25
   6  16   0    1.30    0.21
  20   0  -1    0.09    0.20
 -20   0   1    0.05    0.18
  18   0  -1    0.06    0.14
  18   0  -1   -0.08    0.20
  18   0  -1    0.08    0.31
 -18   0   1    0.02    0.21
 -18   0   1   -0.06    0.17
  18   0  -1   -0.03    0.12
 -18   0   1    0.15    0.15
 -16   0   1   -0.06    0.20
  16   0  -1    0.15    0.26
  16   0  -1   -0.11    0.10
 -16   0   1   -0.15    0.12
  16   0  -1    0.07    0.22
  16   0  -1    0.02    0.15
 -16   0   1   -0.05    0.13
 -16   0   1   -0.08    0.11
  16   0  -1    0.36    0.34
  16   0  -1   -0.47    0.13
  16   0  -1   -0.20    0.10
  14   0  -1   -0.14    0.19
 -14   0   1   -0.03    0.15
 -14   0   1    0.20    0.22
 -14   0   1    0.07    0.09
 -14   0   1    0.12    0.11
  14   0  -1    0.07    0.17
 -14   0   1   -0.04    0.10
  14   0  -1    0.20    0.15
  14   0  -1    0.03    0.14
 -14   0   1    0.13    0.12
  14   0  -1    0.27    0.33
  14   0  -1    0.07    0.10
 -12   0   1    0.08    0.08
 -12   0   1    0.01    0.07
  12   0  -1    0.00    0.07
 -12   0   1    0.00    0.08
 -12   0   1   -0.07    0.06
 -12   0   1    0.06    0.10
 -10   0   1   -0.01    0.05
 -10   0   1   -0.07    0.06
 -10   0   1    0.05    0.06
 -10   0   1    0.00    0.05
  10   0  -1   -0.02    0.05
 -10   0   1    0.04    0.06
 -10   0   1    0.01    0.05
 -10   0   1    0.05    0.06
  -8   0   1    0.01    0.05
  -8   0   1    0.10    0.06
  -8   0   1    0.03    0.06
   8   0  -1    0.03    0.05
  -8   0   1    0.02    0.06
  -8   0   1    0.01    0.05
  -8   0   1    0.04    0.06
  -8   0   1    0.02    0.04
   6   0  -1    0.00    0.01
  -6   0   1    0.01    0.04
  -6   0   1    0.01    0.04
  -6   0   1    0.07    0.05
  -4   0   1    0.01    0.03
  -4   0   1    0.00    0.03
  -4   0   1    0.01    0.03
  -2   0   1    0.01    0.01
  -2   0   1   -0.02    0.02
  -2   0   1    0.02    0.02
  -2   0   1    0.02    0.02
  -2   0   1    0.01    0.02
   0   0   1    0.02    0.02
   0   0   1    0.03    0.02
   0   0   1    0.00    0.02
  -2   0  -1    0.01    0.04
   2   0   1    0.00    0.04
   2   0   1    0.02    0.02
  -4   0  -1    0.01    0.04
   4   0   1    0.01    0.05
  -4   0  -1    0.01    0.03
   4   0   1    0.02    0.04
   6   0   1   -0.02    0.05
  -6   0  -1   -0.02    0.05
   6   0   1    0.01    0.04
  -6   0  -1   -0.04    0.04
   6   0   1   -0.02    0.03
  -6   0  -1   -0.07    0.04
  -6   0  -1    0.00    0.03
  -6   0  -1    0.07    0.05
   6   0   1    0.10    0.06
  -8   0  -1    0.03    0.05
  -8   0  -1    0.01    0.06
   8   0   1    0.01    0.05
   8   0   1    0.00    0.04
  -8   0  -1    0.00    0.05
   8   0   1    0.02    0.05
  -8   0  -1   -0.05    0.06
  -8   0  -1   -0.02    0.07
 -10   0  -1    0.05    0.07
 -10   0  -1   -0.04    0.08
  10   0   1    0.02    0.05
 -10   0  -1    0.00    0.06
  10   0   1    0.09    0.08
 -10   0  -1   -0.10    0.10
  10   0   1    0.02    0.06
 -10   0  -1   -0.01    0.08
  12   0   1    0.37    0.41
  12   0   1    0.16    0.14
  12   0   1    0.09    0.09
 -12   0  -1    0.13    0.09
 -12   0  -1   -0.01    0.09
 -12   0  -1    0.12    0.17
 -12   0  -1   -0.17    0.09
 -14   0  -1    0.04    0.12
  14   0   1   -0.02    0.10
 -14   0  -1    0.05    0.19
 -14   0  -1    0.11    0.15
 -14   0  -1    0.01    0.11
  14   0   1   -0.32    0.33
  14   0   1    0.07    0.14
 -16   0  -1    0.11    0.19
 -16   0  -1    0.04    0.18
  16   0   1    0.04    0.13
  16   0   1    0.00    0.22
 -16   0  -1    0.09    0.15
  16   0   1    0.24    0.45
 -18   0  -1   -0.01    0.19
 -18   0  -1    0.07    0.19
  18   0   1    0.08    0.21
  20   0   1    0.19    0.18
  21  -1  -1    0.27    0.18
 -21  -1   1    0.58    0.19
 -21   1   1    0.66    0.19
  21   1  -1    0.36    0.19
 -19  -1   1    0.12    0.14
  19  -1  -1    0.51    0.26
  19  -1  -1    0.62    0.18
 -19  -1   1    0.44    0.19
  19  -1  -1    0.44    0.16
  19   1  -1    0.55    0.32
  19   1  -1    0.14    0.16
  19   1  -1    0.07    0.23
 -19   1   1    0.15    0.15
 -19   1   1    0.36    0.22
  17  -1  -1    7.82    0.42
 -17  -1   1    8.22    0.49
 -17  -1   1    7.05    0.65
  17  -1  -1    7.92    0.66
  17  -1  -1    8.25    0.48
 -17   1   1    8.36    0.61
 -17   1   1    7.48    0.46
  17   1  -1    7.83    0.83
 -17   1   1    7.88    0.49
 -17   1   1    7.35    0.43
 -17   1   1    7.39    0.67
  17   1  -1    7.70    0.47
  17   1  -1    7.66    0.51
  17   1  -1    8.49    0.70
  17   1  -1    8.07    0.51
  17   1  -1    7.94    0.57
  17   1  -1    7.63    0.85
  15  -1  -1   34.42    1.43
 -15  -1   1   33.26    1.57
 -15  -1   1   33.83    1.09
  15  -1  -1   34.27    1.07
  15  -1  -1   32.25    1.17
 -15  -1   1   32.98    1.06
  15  -1  -1   34.14    1.92
  15  -1  -1   34.09    1.91
 -15  -1   1   30.21    1.13
  15  -1  -1   34.39    1.53
 -15   1   1   34.71    1.62
  15   1  -1   33.30    1.44
  15   1  -1   32.70    0.97
  15   1  -1   35.07    1.93
  15   1  -1   36.12    2.00
  15   1  -1   32.35    1.23
  15   1  -1   32.89    1.07
  15   1  -1   34.81    1.54
  15   1  -1   32.55    1.17
 -15   1   1   30.64    1.17
 -15   1   1   32.55    1.40
 -15   1   1   31.73    1.46
 -15   1   1   34.48    1.06
 -15   1   1   35.72    1.11
 -15   1   1   32.84    1.03
  13  -1  -1    4.80    0.76
 -13  -1   1    3.59    0.32
 -13  -1   1    3.43    0.34
  13  -1  -1    3.82    0.44
 -13  -1   1    3.09    0.41
 -13  -1   1    3.68    0.50
 -13  -1   1    3.47    0.30
  13  -1  -1    4.40    0.56
 -13  -1   1    3.56    0.34
  13  -1  -1    3.36    0.31
  13  -1  -1    3.48    0.38
 -13   1   1    3.64    0.34
 -13   1   1    3.68    0.43
  13   1  -1    4.10    0.53
  13   1  -1    4.15    0.41
 -13   1   1    3.41    0.36
  13   1  -1    4.71    0.76
 -13   1   1    3.74    0.33
  13   1  -1    3.37    0.41
 -13   1   1    3.36    0.29
  13   1  -1    3.65    0.32
 -11  -1   1   14.11    0.51
 -11  -1   1   12.78    0.48
  11  -1  -1   13.33    0.50
 -11  -1   1   13.58    0.52
 -11  -1   1   12.80    0.68
 -11  -1   1   13.43    0.53
 -11  -1   1   13.28    0.54
 -11   1   1   13.72    0.53
  11   1  -1   13.09    0.50
 -11   1   1   12.59    0.55
 -11   1   1   13.26    0.46
 -11   1   1   13.25    0.50
 -11   1   1   13.23    0.66
  -9  -1   1    1.44    0.16
  -9  -1   1    1.41    0.17
  -9  -1   1    1.47    0.17
  -9  -1   1    1.31    0.15
  -9  -1   1    1.53    0.17
  -9  -1   1    1.39    0.22
  -9  -1   1    1.53    0.15
   9  -1  -1    1.41    0.16
  -9   1   1    1.32    0.19
   9   1  -1    1.37    0.16
  -9   1   1    1.52    0.16
  -9   1   1    1.27    0.13
  -9   1   1    1.51    0.15
  -9   1   1    1.63    0.18
  -9   1   1    1.56    0.17
  -9   1   1    1.28    0.17
  -9   1   1    1.56    0.15
  -9   1   1    1.55    0.19
   7  -1  -1   28.09    0.72
  -7  -1   1   29.27    0.79
  -7  -1   1   27.90    0.97
  -7  -1   1   28.19    0.70
  -7  -1   1   27.57    0.73
  -7  -1   1   29.31    0.73
  -7  -1   1   26.23    0.62
  -7  -1   1   29.44    0.78
  -7   1   1   26.87    0.63
  -7   1   1   30.36    0.94
  -7   1   1   27.45    0.68
  -7   1   1   28.59    0.79
  -7   1   1   28.69    0.76
  -7   1   1   28.28    0.75
   7   1  -1   26.65    0.65
   7   1  -1   27.41    0.72
  -7   1   1   28.02    0.72
  -7   1   1   27.56    0.73
  -5  -1   1  219.13    4.70
  -5  -1   1  214.84    4.80
  -5  -1   1  212.02    5.91
  -5   1   1  224.45    5.86
  -5   1   1  198.23    4.75
   5   1  -1  198.77    5.88
  -5   1   1  221.91    4.72
  -5   1   1  211.18    5.86
  -3  -1   1   16.68    0.44
  -3  -1   1   16.00    0.42
  -3  -1   1   16.11    0.53
  -3   1   1   15.74    0.45
  -3   1   1   15.81    0.43
  -3   1   1   15.66    0.42
   3   1  -1   15.14    0.51
  -3   1   1   15.63    0.40
  -1  -1   1   99.79    2.22
  -1  -1   1  101.02    2.75
  -1   1   1   94.80    2.23
   1   1  -1   97.07    2.74
  -1   1   1   99.57    2.02
   1   1  -1  101.07    2.17
  -1   1   1   99.02    2.18
  -1   1   1   95.35    2.23
  -1  -1  -1  279.67    7.74
   1  -1   1  286.24    6.33
   1  -1   1  287.35    7.77
   1   1   1  274.54    6.34
  -1   1  -1  280.32    5.84
   1   1   1  291.10    7.89
   1   1   1  300.57    6.31
  -1   1  -1  275.89    7.77
   1   1   1  270.92    6.21
   3  -1   1    0.68    0.11
  -3  -1  -1    0.59    0.07
  -3  -1  -1    0.74    0.11
   3   1   1    0.70    0.08
   3   1   1    0.66    0.10
  -3   1  -1    0.73    0.07
  -3   1  -1    0.69    0.08
   5  -1   1    7.56    0.28
   5  -1   1    6.56    0.25
  -5  -1  -1    7.28    0.36
   5  -1   1    6.99    0.26
  -5  -1  -1    7.09    0.27
   5  -1   1    6.90    0.34
  -5   1  -1    7.30    0.27
  -5   1  -1    8.00    0.30
   5   1   1    7.01    0.27
  -5   1  -1    7.29    0.36
   5   1   1    7.46    0.28
   5   1   1    6.48    0.34
  -5   1  -1    6.54    0.23
  -7  -1  -1   17.62    0.56
  -7  -1  -1   19.20    0.77
   7  -1   1   18.39    0.55
  -7  -1  -1   17.92    0.48
   7  -1   1   18.24    0.50
   7  -1   1   18.44    0.58
  -7  -1  -1   17.81    0.57
  -7   1  -1   17.77    0.55
   7   1   1   17.72    0.57
  -7   1  -1   17.69    0.49
  -7   1  -1   18.26    0.74
   7   1   1   18.22    0.50
  -7   1  -1   19.26    0.61
  -7   1  -1   17.76    0.52
   7   1   1   18.37    0.56
   7   1   1   17.70    0.73
  -7   1  -1   18.00    0.56
   9  -1   1    1.19    0.17
  -9  -1  -1    1.26    0.23
  -9  -1  -1    1.16    0.16
  -9  -1  -1    1.00    0.13
   9  -1   1    1.15    0.15
   9  -1   1    1.02    0.13
  -9   1  -1    1.33    0.16
  -9   1  -1    1.28    0.18
   9   1   1    1.14    0.15
  -9   1  -1    1.29    0.17
  -9   1  -1    1.14    0.21
   9   1   1    1.16    0.17
  -9   1  -1    1.20    0.15
   9   1   1    1.03    0.14
  11  -1   1    0.25    0.09
 -11  -1  -1    0.69    0.16
 -11  -1  -1    0.36    0.11
 -11  -1  -1    0.29    0.19
 -11   1  -1    0.37    0.16
 -11   1  -1    0.27    0.12
 -11   1  -1    0.20    0.11
 -11   1  -1    0.44    0.13
  11   1   1    0.34    0.11
 -11   1  -1    0.21    0.15
 -11   1  -1    0.30    0.10
  11   1   1    0.38    0.18
 -11   1  -1    0.33    0.12
 -13  -1  -1   13.98    0.62
 -13  -1  -1   13.20    0.50
 -13  -1  -1   12.84    0.88
  13  -1   1   12.52    0.67
  13  -1   1   13.75    0.59
 -13  -1  -1   11.02    0.58
 -13   1  -1   12.68    0.52
  13   1   1   13.17    0.59
 -13   1  -1   13.26    0.61
 -13   1  -1   12.00    0.72
 -13   1  -1   13.06    0.64
 -13   1  -1   13.13    0.90
  13   1   1   12.42    0.71
  13   1   1   12.90    0.99
  15  -1   1    8.39    0.48
 -15  -1  -1    8.30    0.50
 -15  -1  -1    8.62    0.73
 -15   1  -1    7.55    0.48
  15   1   1    8.31    0.48
 -15   1  -1    8.54    0.74
 -15   1  -1    8.51    0.51
 -15   1  -1    8.04    0.61
  15   1   1    8.11    0.54
  17  -1   1   15.02    0.64
 -17  -1  -1   13.43    0.91
 -17  -1  -1   13.88    0.77
  17  -1   1   13.54    0.85
  17   1   1   13.11    0.84
 -17   1  -1   13.90    0.78
  17   1   1   10.95    1.00
  17   1   1   14.43    0.64
 -17   1  -1   13.55    0.90
 -19  -1  -1    1.17    0.28
  19  -1   1    0.19    0.20
 -19  -1  -1    1.04    0.25
 -19   1  -1    1.12    0.27
 -19   1  -1    1.08    0.25
  19   1   1    0.52    0.22
  20  -2  -1    0.81    0.25
 -20  -2   1    2.27    0.34
  20  -2  -1    1.73    0.23
  20   2  -1    1.00    0.27
  20   2  -1    2.57    0.30
  20   2  -1    1.28    0.37
 -20   2   1    1.72    0.30
 -18  -2   1    1.85    0.36
  18  -2  -1    2.38    0.34
  18  -2  -1    2.25    0.34
  18  -2  -1    2.08    0.29
  18  -2  -1    1.76    0.25
 -18  -2   1    1.12    0.23
  18  -2  -1    1.86    0.37
 -18   2   1    1.90    0.27
  18   2  -1    2.41    0.36
  18   2  -1    2.23    0.30
 -18   2   1    2.13    0.38
  18   2  -1    1.78    0.36
 -18   2   1    1.83    0.28
  18   2  -1    1.83    0.27
  18   2  -1    2.86    0.59
  18   2  -1    2.06    0.31
 -18   2   1    2.44    0.31
  18   2  -1    2.01    0.50
 -16  -2   1    2.15    0.29
 -16  -2   1    2.35    0.43
  16  -2  -1    2.47    0.36
  16  -2  -1    2.70    0.31
  16  -2  -1    2.45    0.46
  16   2  -1    2.38    0.58
  16   2  -1    2.66    0.36
  16   2  -1    2.79    0.48
 -16   2   1    2.52    0.40
  16   2  -1    2.78    0.63
 -16   2   1    2.33    0.45
 -16   2   1    2.22    0.27
  16   2  -1    2.87    0.41
 -16   2   1    2.98    0.34
  16   2  -1    3.10    0.40
  16   2  -1    2.50    0.32
 -16   2   1    2.63    0.31
  14  -2  -1    0.65    0.35
  14  -2  -1    0.56    0.28
  14  -2  -1    0.85    0.23
 -14  -2   1    0.31    0.22
  14  -2  -1    0.68    0.16
 -14  -2   1    0.36    0.17
 -14  -2   1    0.67    0.17
 -14  -2   1    0.29    0.16
 -14   2   1    0.82    0.30
 -14   2   1    0.59    0.20
  14   2  -1    0.56    0.14
 -14   2   1    0.48    0.19
  14   2  -1    0.67    0.21
 -14   2   1    0.57    0.15
  14   2  -1    0.74    0.30
  14   2  -1    0.37    0.19
 -14   2   1    0.83    0.24
  14   2  -1    0.84    0.18
  14   2  -1    0.69    0.36
  14   2  -1    0.76    0.36
 -14   2   1    0.91    0.19
  14   2  -1    0.81    0.22
 -14   2   1    0.54    0.17
  12  -2  -1   18.49    0.64
 -12  -2   1   16.94    0.60
 -12  -2   1   16.44    0.88
 -12  -2   1   18.46    0.65
 -12  -2   1   17.07    0.67
 -12  -2   1   17.44    0.68
 -12  -2   1   18.72    0.66
 -12   2   1   17.59    0.71
 -12   2   1   18.37    0.59
 -12   2   1   17.82    0.60
 -12   2   1   18.64    0.69
  12   2  -1   18.00    0.65
 -12   2   1   18.32    0.85
 -12   2   1   17.60    0.63
 -12   2   1   17.99    0.67
  12   2  -1   18.37    0.59
 -10  -2   1   11.38    0.46
 -10  -2   1   11.30    0.48
 -10  -2   1   11.86    0.44
 -10  -2   1   10.80    0.59
  10  -2  -1   10.94    0.43
 -10  -2   1   11.16    0.44
 -10  -2   1   10.92    0.40
 -10   2   1   11.01    0.44
 -10   2   1   12.21    0.56
 -10   2   1   11.63    0.40
 -10   2   1   11.52    0.47
  10   2  -1   11.56    0.44
 -10   2   1   10.87    0.40
 -10   2   1   11.37    0.48
 -10   2   1   11.09    0.44
  -8  -2   1    2.00    0.18
  -8  -2   1    1.90    0.19
  -8  -2   1    1.99    0.17
  -8  -2   1    2.26    0.19
  -8  -2   1    2.02    0.18
  -8  -2   1    2.22    0.26
  -8  -2   1    2.40    0.22
  -8   2   1    2.05    0.12
  -8   2   1    2.16    0.18
   8   2  -1    2.07    0.18
  -8   2   1    2.09    0.20
  -8   2   1    2.14    0.19
  -8   2   1    2.20    0.20
  -8   2   1    2.04    0.13
  -8   2   1    2.16    0.21
  -8   2   1    2.06    0.17
  -6  -2   1   21.80    0.58
  -6  -2   1   21.84    0.64
  -6  -2   1   21.34    0.59
  -6  -2   1   21.52    0.77
  -6   2   1   21.37    0.61
  -6   2   1   20.77    0.56
   6   2  -1   20.37    0.74
   6   2  -1   20.80    0.53
  -6   2   1   20.91    0.59
  -6   2   1   20.27    0.69
  -6   2   1   21.50    0.57
  -6   2   1   22.38    0.69
  -6   2   1   20.78    0.50
  -6   2   1   20.25    0.57
   6   2  -1   20.81    0.54
  -4  -2   1  196.10    4.29
  -4  -2   1  194.74    5.43
  -4  -2   1  201.94    4.41
  -4   2   1  193.99    4.37
  -4   2   1  195.67    4.05
   4   2  -1  192.52    5.42
  -4   2   1  192.71    5.35
  -4   2   1  196.32    4.32
  -4   2   1  189.54    5.38
  -2  -2   1   34.25    1.09
  -2  -2   1   36.66    0.89
   2   2  -1   36.77    0.86
  -2   2   1   36.07    0.90
  -2   2   1   35.72    0.88
  -2   2   1   37.51    0.86
  -2   2   1   37.39    0.80
   2   2  -1   35.25    1.09
   0  -2   1   35.11    0.87
   0  -2   1   39.20    1.12
   0   2   1   37.69    1.05
   0   2   1   37.33    0.93
   0   2   1   36.61    0.85
   0   2  -1   37.67    1.11
   0   2  -1   37.04    0.87
   0   2   1   35.47    1.06
   0   2   1   37.73    0.91
   2  -2   1   68.80    2.05
   2  -2   1   73.19    1.60
  -2  -2  -1   67.72    2.04
   2   2   1   72.11    1.69
   2   2   1   72.03    1.61
  -2   2  -1   69.02    2.06
  -2   2  -1   72.36    1.65
  -2   2  -1   73.60    1.52
   2   2   1   71.99    2.05
  -4  -2  -1    4.87    0.27
  -4  -2  -1    5.16    0.20
   4  -2   1    4.50    0.25
   4   2   1    5.05    0.22
  -4   2  -1    5.10    0.23
  -4   2  -1    5.13    0.20
  -4   2  -1    4.83    0.19
   4   2   1    5.33    0.28
  -4   2  -1    5.45    0.23
  -4   2  -1    5.27    0.28
  -6  -2  -1   25.22    0.58
  -6  -2  -1   26.46    0.96
  -6  -2  -1   26.99    0.72
   6  -2   1   25.93    0.64
   6   2   1   26.30    0.74
   6   2   1   25.42    0.64
  -6   2  -1   25.64    0.71
   6   2   1   23.84    0.68
  -6   2  -1   26.30    0.94
   6   2   1   25.51    0.71
  -6   2  -1   26.25    0.69
  -6   2  -1   28.03    0.78
   6   2   1   26.82    0.95
  -6   2  -1   26.43    0.70
  -6   2  -1   25.77    0.62
   8  -2   1    5.23    0.25
  -8  -2  -1    5.80    0.28
   8  -2   1    5.61    0.28
   8  -2   1    5.85    0.29
  -8  -2  -1    5.05    0.23
  -8   2  -1    5.50    0.27
  -8   2  -1    5.43    0.37
   8   2   1    5.38    0.28
   8   2   1    5.98    0.26
  -8   2  -1    5.56    0.27
   8   2   1    5.68    0.28
  -8   2  -1    5.49    0.26
  -8   2  -1    5.42    0.29
  -8   2  -1    5.46    0.31
  10  -2   1    1.01    0.15
  10  -2   1    0.82    0.14
  10  -2   1    0.97    0.16
 -10  -2  -1    0.79    0.13
 -10   2  -1    0.98    0.18
 -10   2  -1    0.92    0.17
  10   2   1    0.80    0.16
 -10   2  -1    0.78    0.20
 -10   2  -1    0.96    0.15
 -10   2  -1    0.87    0.17
  10   2   1    0.75    0.14
 -10   2  -1    0.98    0.15
 -10   2  -1    0.99    0.16
  12  -2   1    0.30    0.12
 -12  -2  -1    0.51    0.14
 -12  -2  -1    0.36    0.14
 -12  -2  -1    0.51    0.20
 -12  -2  -1    0.33    0.24
  12   2   1    0.76    0.17
 -12   2  -1    0.32    0.13
 -12   2  -1    0.23    0.17
 -12   2  -1    0.31    0.12
  12   2   1    0.39    0.17
  12   2   1    0.19    0.36
 -12   2  -1    0.28    0.13
 -12   2  -1    0.48    0.24
  12   2   1    0.55    0.30
 -12   2  -1    0.37    0.13
 -14  -2  -1    0.85    0.28
  14  -2   1    0.92    0.19
 -14  -2  -1    0.94    0.21
  14   2   1    0.97    0.24
  14   2   1    0.01    0.36
 -14   2  -1    1.17    0.34
 -14   2  -1    0.91    0.22
  14   2   1    0.69    0.19
  14   2   1    0.86    0.39
 -14   2  -1    1.06    0.29
 -14   2  -1    1.11    0.20
  16  -2   1   39.82    1.72
  16  -2   1   44.20    1.30
 -16  -2  -1   42.80    1.91
  16   2   1   40.06    1.59
 -16   2  -1   38.57    1.85
  16   2   1   43.08    1.30
 -16   2  -1   42.47    1.64
  16   2   1   41.03    1.74
 -16   2  -1   42.22    1.30
 -18  -2  -1    0.07    0.18
 -18  -2  -1   -0.02    0.18
  18  -2   1    0.38    0.26
 -18   2  -1    0.15    0.20
  18   2   1   -0.09    0.23
 -18   2  -1   -0.10    0.16
  18   2   1   -0.12    0.28
 -21  -3   1    4.27    0.34
 -21   3   1    4.20    0.41
  21   3  -1    2.48    0.43
  19  -3  -1    9.57    0.53
 -19  -3   1    6.82    0.60
 -19  -3   1   10.00    0.61
  19  -3  -1    9.16    0.66
  19   3  -1    8.85    0.80
  19   3  -1   10.36    0.88
 -19   3   1   10.20    0.65
  19   3  -1    9.55    0.69
  19   3  -1   10.12    0.52
  19   3  -1    9.85    0.54
  19   3  -1    9.96    0.58
 -17  -3   1    0.14    0.21
  17  -3  -1    0.30    0.25
  17  -3  -1    0.09    0.12
 -17  -3   1   -0.04    0.14
 -17   3   1    0.21    0.14
  17   3  -1   -0.03    0.23
 -17   3   1   -0.02    0.17
  17   3  -1    0.15    0.13
 -17   3   1    0.11    0.13
  17   3  -1    0.18    0.31
  17   3  -1    0.09    0.14
 -17   3   1    0.07    0.13
  17   3  -1    0.08    0.16
  17   3  -1    0.03    0.22
  17   3  -1   -0.01    0.14
 -15  -3   1    0.29    0.22
  15  -3  -1    0.43    0.15
  15  -3  -1    0.32    0.18
 -15  -3   1    0.50    0.16
  15  -3  -1    0.73    0.30
  15   3  -1    0.62    0.21
 -15   3   1    0.65    0.24
  15   3  -1    0.57    0.17
 -15   3   1    0.47    0.15
 -15   3   1    0.65    0.17
  15   3  -1    0.52    0.34
  15   3  -1    0.26    0.18
  15   3  -1    0.27    0.26
  15   3  -1    0.39    0.14
  15   3  -1    0.32    0.24
  15   3  -1    0.47    0.21
 -15   3   1    0.48    0.15
 -15   3   1    0.55    0.24
  13  -3  -1    2.00    0.39
 -13  -3   1    1.58    0.25
 -13  -3   1    1.67    0.24
  13  -3  -1    1.86    0.23
 -13   3   1    1.88    0.25
 -13   3   1    1.68    0.30
  13   3  -1    1.98    0.25
  13   3  -1    2.14    0.31
 -13   3   1    1.86    0.24
  13   3  -1    2.17    0.50
  13   3  -1    1.58    0.37
  13   3  -1    2.15    0.32
  13   3  -1    1.65    0.21
 -13   3   1    1.93    0.28
 -13   3   1    1.90    0.26
 -13   3   1    1.99    0.27
 -13   3   1    1.81    0.21
 -13   3   1    1.92    0.33
 -11  -3   1    0.78    0.15
  11  -3  -1    0.97    0.16
 -11  -3   1    0.91    0.15
 -11  -3   1    0.88    0.17
 -11  -3   1    0.96    0.23
 -11  -3   1    0.92    0.15
 -11   3   1    0.85    0.17
 -11   3   1    0.88    0.18
  11   3  -1    0.94    0.15
 -11   3   1    0.85    0.14
  11   3  -1    0.80    0.14
 -11   3   1    0.87    0.13
 -11   3   1    0.99    0.18
 -11   3   1    0.88    0.16
 -11   3   1    1.04    0.17
  -9  -3   1    6.51    0.35
  -9  -3   1    5.84    0.28
  -9  -3   1    6.51    0.42
  -9  -3   1    6.87    0.31
  -9  -3   1    6.75    0.30
  -9  -3   1    6.34    0.30
  -9  -3   1    6.18    0.32
  -9   3   1    6.72    0.33
  -9   3   1    7.09    0.29
  -9   3   1    6.62    0.36
   9   3  -1    6.37    0.28
  -9   3   1    6.63    0.31
   9   3  -1    6.74    0.31
  -9   3   1    6.49    0.25
  -9   3   1    6.55    0.34
  -9   3   1    6.62    0.32
  -7  -3   1   42.57    1.16
  -7  -3   1   43.02    1.43
  -7  -3   1   43.59    1.07
  -7  -3   1   43.02    1.00
  -7  -3   1   45.90    1.19
  -7  -3   1   46.09    1.09
  -7  -3   1   41.07    1.02
   7   3  -1   41.72    1.06
   7   3  -1   42.75    1.41
  -7   3   1   42.55    1.04
   7   3  -1   42.22    1.04
  -7   3   1   41.57    0.96
  -7   3   1   43.60    0.92
  -7   3   1   44.72    1.14
  -7   3   1   43.31    1.06
  -7   3   1   42.76    1.08
   7   3  -1   43.58    1.00
  -7   3   1   40.71    1.02
  -5  -3   1    9.67    0.31
  -5  -3   1    9.60    0.37
  -5  -3   1    9.32    0.43
  -5   3   1    9.72    0.33
   5   3  -1    9.17    0.30
  -5   3   1    9.37    0.31
  -5   3   1    9.91    0.34
  -5   3   1    9.41    0.28
  -5   3   1    9.78    0.32
   5   3  -1    9.87    0.30
  -5   3   1    9.42    0.33
   5   3  -1    9.49    0.42
  -5   3   1    9.36    0.32
  -5   3   1    9.51    0.30
  -3  -3   1  105.58    2.98
  -3  -3   1   99.56    2.42
  -3   3   1  105.20    2.38
  -3   3   1  104.46    2.21
  -3   3   1  108.36    2.48
  -3   3   1  104.80    2.35
   3   3  -1  100.53    2.97
   3   3  -1  102.95    2.37
  -1  -3   1    0.04    0.05
  -1  -3   1    0.07    0.04
  -1   3   1    0.06    0.03
   1   3  -1    0.30    0.05
  -1   3   1    0.06    0.03
  -1   3   1    0.04    0.04
   1   3  -1    0.10    0.06
  -1   3   1    0.08    0.03
   1  -3   1   13.38    0.35
   1  -3   1   12.86    0.48
   1   3   1   13.61    0.42
   1   3   1   14.25    0.46
  -1   3  -1   14.02    0.37
  -1   3  -1   14.25    0.50
   1   3   1   13.05    0.37
   1   3   1   12.09    0.46
  -1   3  -1   14.26    0.40
  -3  -3  -1   23.79    0.57
   3  -3   1   21.18    0.77
  -3  -3  -1   21.64    0.77
   3   3   1   24.62    0.68
   3   3   1   23.20    0.59
  -3   3  -1   24.88    0.81
   3   3   1   24.14    0.79
  -3   3  -1   23.25    0.60
   3   3   1   23.04    0.57
   3   3   1   24.00    0.62
  -3   3  -1   23.46    0.60
  -3   3  -1   23.12    0.59
  -3   3  -1   24.31    0.65
   5  -3   1   16.50    0.47
  -5  -3  -1   16.29    0.67
  -5  -3  -1   16.98    0.48
  -5   3  -1   17.78    0.51
  -5   3  -1   18.00    0.50
   5   3   1   18.09    0.48
  -5   3  -1   17.29    0.46
   5   3   1   17.94    0.69
  -5   3  -1   18.85    0.69
   5   3   1   16.46    0.52
  -5   3  -1   17.35    0.51
   5   3   1   16.83    0.50
  -5   3  -1   17.50    0.52
  -5   3  -1   17.42    0.50
  -5   3  -1   17.92    0.56
   5   3   1   17.20    0.49
   7  -3   1    3.07    0.18
  -7  -3  -1    3.04    0.18
  -7   3  -1    3.16    0.21
  -7   3  -1    3.17    0.27
  -7   3  -1    3.30    0.25
   7   3   1    3.11    0.20
  -7   3  -1    3.19    0.26
   7   3   1    2.88    0.19
   7   3   1    2.83    0.31
  -7   3  -1    3.17    0.23
  -7   3  -1    3.04    0.18
   7   3   1    2.96    0.21
   9  -3   1    9.74    0.41
  -9  -3  -1    8.96    0.39
   9  -3   1    9.24    0.41
   9  -3   1    8.68    0.36
  -9   3  -1    8.79    0.53
  -9   3  -1    9.35    0.42
  -9   3  -1    9.89    0.43
   9   3   1    9.83    0.43
   9   3   1    9.13    0.41
  -9   3  -1    9.43    0.40
  -9   3  -1    9.67    0.39
   9   3   1    9.38    0.36
  -9   3  -1   10.09    0.40
  -9   3  -1    9.15    0.45
 -11  -3  -1    3.56    0.51
 -11  -3  -1    5.04    0.40
  11  -3   1    3.66    0.29
  11  -3   1    4.41    0.35
  11  -3   1    3.38    0.30
 -11   3  -1    3.55    0.43
 -11   3  -1    4.14    0.33
  11   3   1    5.24    0.72
 -11   3  -1    4.30    0.47
  11   3   1    4.24    0.39
 -11   3  -1    4.31    0.33
  11   3   1    4.40    0.37
 -11   3  -1    4.17    0.37
 -11   3  -1    4.00    0.33
 -11   3  -1    5.02    0.62
 -11   3  -1    4.39    0.39
 -11   3  -1    4.16    0.39
 -13  -3  -1    7.92    0.67
  13  -3   1    9.27    0.48
 -13  -3  -1    8.88    0.49
  13   3   1    9.37    0.50
 -13   3  -1    8.40    0.61
 -13   3  -1    8.74    0.54
 -13   3  -1    9.46    0.45
  13   3   1    9.17    0.85
 -13   3  -1    8.48    0.72
  13   3   1    7.71    0.52
  13   3   1    8.61    0.58
 -13   3  -1    8.58    0.47
 -13   3  -1    9.38    0.50
 -13   3  -1    8.17    0.44
  15  -3   1    1.90    0.28
 -15  -3  -1    2.51    0.47
 -15  -3  -1    2.16    0.31
  15   3   1    2.30    0.31
 -15   3  -1    2.03    0.43
  15   3   1    1.86    0.31
 -15   3  -1    2.06    0.39
  15   3   1    2.35    0.46
 -15   3  -1    2.40    0.32
  15   3   1    1.84    0.47
 -15   3  -1    1.99    0.27
 -15   3  -1    1.83    0.27
 -17  -3  -1    0.82    0.24
 -17  -3  -1    0.79    0.27
 -17  -3  -1    0.33    0.17
  17  -3   1    0.00    0.24
  17  -3   1    0.77    0.20
  17   3   1    0.40    0.36
  17   3   1    0.74    0.19
 -17   3  -1    0.36    0.23
  17   3   1    0.71    0.20
 -17   3  -1    0.66    0.17
  17   3   1    0.35    0.26
 -17   3  -1    0.83    0.25
 -19  -3  -1    1.61    0.28
 -19  -3  -1    0.77    0.22
  19  -3   1    0.29    0.21
  19   3   1    1.10    0.33
 -19   3  -1    0.52    0.20
 -19   3  -1    1.36    0.25
  19   3   1    0.91    0.24
  20  -4  -1    0.15    0.13
 -20  -4   1    0.28    0.17
  20   4  -1    0.26    0.26
 -20   4   1    0.28    0.19
  20   4  -1    0.14    0.20
  20   4  -1    0.04    0.19
  20   4  -1    0.57    0.18
  20   4  -1    0.05    0.13
  18  -4  -1    2.80    0.43
  18  -4  -1    5.10    0.43
 -18  -4   1    3.89    0.53
 -18  -4   1    3.51    0.36
  18   4  -1    4.80    0.42
 -18   4   1    4.73    0.39
 -18   4   1    4.33    0.39
 -18   4   1    4.66    0.52
  18   4  -1    6.04    0.51
  18   4  -1    4.63    0.54
  18   4  -1    4.19    0.67
  18   4  -1    4.91    0.43
 -18   4   1    4.99    0.41
  18   4  -1    5.40    0.46
  18   4  -1    4.29    0.66
 -16  -4   1   -0.10    0.16
 -16  -4   1   -0.02    0.13
  16  -4  -1   -0.16    0.10
 -16  -4   1   -0.01    0.14
  16  -4  -1   -0.03    0.26
  16   4  -1    0.08    0.24
 -16   4   1   -0.08    0.10
 -16   4   1   -0.01    0.16
  16   4  -1    0.22    0.26
  16   4  -1   -0.15    0.26
  16   4  -1    0.31    0.16
  16   4  -1    0.07    0.14
  16   4  -1    0.08    0.14
 -16   4   1    0.04    0.12
 -16   4   1    0.00    0.12
  16   4  -1    0.00    0.17
 -14  -4   1    1.20    0.21
  14  -4  -1    1.07    0.24
  14  -4  -1    1.08    0.20
  14  -4  -1    1.65    0.39
 -14  -4   1    0.74    0.20
  14   4  -1    1.11    0.19
 -14   4   1    1.16    0.23
  14   4  -1    1.07    0.31
 -14   4   1    1.13    0.21
 -14   4   1    0.78    0.25
  14   4  -1    1.07    0.24
  14   4  -1    1.26    0.22
  14   4  -1    1.72    0.47
  14   4  -1    1.39    0.27
  14   4  -1    0.78    0.20
  14   4  -1    0.85    0.40
 -14   4   1    1.10    0.28
 -14   4   1    1.16    0.18
 -14   4   1    1.21    0.21
 -14   4   1    1.00    0.23
  12  -4  -1   31.36    1.32
 -12  -4   1   32.06    1.11
 -12  -4   1   33.90    1.00
  12  -4  -1   33.96    1.01
 -12   4   1   34.95    1.02
  12   4  -1   33.25    1.02
 -12   4   1   36.16    1.03
  12   4  -1   32.46    1.42
 -12   4   1   34.74    0.95
  12   4  -1   33.00    1.15
 -12   4   1   33.60    1.13
  12   4  -1   34.07    0.94
  12   4  -1   33.08    1.78
  12   4  -1   33.80    1.22
 -12   4   1   32.54    1.27
 -12   4   1   32.13    1.35
 -12   4   1   34.24    1.07
 -12   4   1   33.60    0.91
 -10  -4   1   -0.11    0.08
 -10  -4   1    0.03    0.08
 -10  -4   1    0.24    0.10
 -10   4   1    0.21    0.07
  10   4  -1    0.10    0.08
 -10   4   1    0.09    0.08
 -10   4   1    0.15    0.09
  10   4  -1    0.06    0.08
 -10   4   1    0.06    0.07
 -10   4   1    0.14    0.07
 -10   4   1    0.21    0.09
 -10   4   1    0.07    0.07
  -8  -4   1   11.85    0.59
  -8  -4   1   11.02    0.40
  -8  -4   1   11.66    0.40
   8  -4  -1   11.39    0.36
  -8  -4   1   12.47    0.50
  -8  -4   1   11.39    0.42
  -8  -4   1   11.78    0.48
  -8  -4   1   11.04    0.39
  -8   4   1   11.42    0.42
  -8   4   1   12.00    0.43
  -8   4   1   11.34    0.44
   8   4  -1   12.06    0.43
  -8   4   1   11.29    0.33
  -8   4   1   11.86    0.47
   8   4  -1   11.39    0.40
  -8   4   1   11.93    0.39
  -6  -4   1    6.13    0.36
  -6  -4   1    5.72    0.29
  -6  -4   1    5.72    0.31
  -6   4   1    5.62    0.22
   6   4  -1    5.33    0.24
  -6   4   1    6.20    0.26
  -6   4   1    5.48    0.24
  -6   4   1    5.81    0.25
  -6   4   1    5.94    0.27
  -6   4   1    5.99    0.27
   6   4  -1    5.75    0.34
   6   4  -1    6.34    0.28
   6   4  -1    5.82    0.26
  -6   4   1    5.68    0.26
  -6   4   1    6.21    0.27
   6   4  -1    5.61    0.23
  -6   4   1    5.59    0.21
  -4  -4   1   13.27    0.53
  -4  -4   1   12.37    0.47
  -4  -4   1   12.52    0.44
   4   4  -1   12.20    0.37
  -4   4   1   12.64    0.40
  -4   4   1   12.63    0.37
  -4   4   1   12.26    0.38
  -4   4   1   13.30    0.38
  -4   4   1   11.76    0.37
   4   4  -1   12.70    0.52
  -4   4   1   12.95    0.39
  -4   4   1   12.55    0.40
   4   4  -1   12.41    0.41
  -2  -4   1    2.32    0.15
  -2  -4   1    2.29    0.17
   2   4  -1    2.29    0.14
  -2   4   1    2.21    0.12
  -2   4   1    2.60    0.13
  -2   4   1    2.42    0.15
   2   4  -1    2.44    0.18
  -2   4   1    2.33    0.09
  -2   4   1    2.49    0.09
   0  -4   1   83.27    1.99
   0  -4   1   82.40    2.50
   0   4  -1   89.85    2.01
   0   4  -1   91.40    2.53
   0   4   1   82.49    2.45
   0   4   1   86.95    1.99
   0   4   1   91.15    2.45
   0   4  -1   86.08    1.97
   0   4   1   87.54    2.12
  -2  -4  -1    0.76    0.04
  -2   4  -1    0.82    0.10
  -2   4  -1    0.86    0.11
   2   4   1    0.78    0.10
   2   4   1    0.96    0.12
   2   4   1    0.77    0.11
  -2   4  -1    0.89    0.10
   2   4   1    0.86    0.11
   2   4   1    0.82    0.11
  -2   4  -1    0.88    0.13
   2   4   1    0.85    0.08
   2   4   1    0.91    0.10
  -2   4  -1    0.79    0.09
   2   4   1    0.74    0.09
   4  -4   1    1.02    0.12
  -4  -4  -1    0.85    0.07
  -4   4  -1    1.12    0.13
  -4   4  -1    1.04    0.13
  -4   4  -1    0.93    0.13
   4   4   1    1.01    0.16
  -4   4  -1    0.91    0.11
   4   4   1    0.93    0.12
  -4   4  -1    0.96    0.15
   4   4   1    0.86    0.11
   4   4   1    0.94    0.13
   4   4   1    0.91    0.12
  -4   4  -1    1.07    0.13
  -4   4  -1    1.08    0.12
  -4   4  -1    0.85    0.11
   4   4   1    1.06    0.12
   4   4   1    0.98    0.12
   6  -4   1   87.84    1.83
  -6   4  -1   91.97    2.70
   6   4   1   84.18    2.02
  -6   4  -1   90.47    2.17
   6   4   1   87.22    2.70
   6   4   1   85.75    2.23
  -6   4  -1   86.40    2.02
   6   4   1   87.42    2.02
   6   4   1   93.23    2.13
  -6   4  -1   92.38    2.03
  -6   4  -1   88.08    1.72
  -6   4  -1   89.62    1.95
  -6   4  -1   89.28    2.01
   6   4   1   85.93    1.95
   6   4   1   85.00    1.82
   8  -4   1   61.85    1.37
   8   4   1   56.67    1.63
   8   4   1   59.52    2.04
  -8   4  -1   61.49    2.01
  -8   4  -1   63.47    1.50
  -8   4  -1   63.27    1.51
  -8   4  -1   61.56    1.64
   8   4   1   57.96    1.49
  -8   4  -1   61.71    1.46
   8   4   1   62.05    1.58
   8   4   1   59.94    1.36
  -8   4  -1   59.42    1.51
  -8   4  -1   62.38    1.32
   8   4   1   59.24    1.52
  10  -4   1    0.03    0.08
  10  -4   1    0.01    0.07
  10  -4   1   -0.03    0.06
 -10  -4  -1   -0.03    0.09
  10   4   1    0.01    0.07
 -10   4  -1   -0.07    0.17
 -10   4  -1   -0.04    0.08
 -10   4  -1    0.03    0.09
  10   4   1    0.02    0.07
 -10   4  -1    0.11    0.09
 -10   4  -1    0.08    0.08
 -10   4  -1    0.04    0.12
 -10   4  -1   -0.03    0.07
 -10   4  -1   -0.04    0.07
 -12  -4  -1    6.54    0.62
 -12  -4  -1    6.58    0.47
  12  -4   1    8.57    0.45
 -12  -4  -1    7.98    0.44
 -12   4  -1    7.59    0.41
 -12   4  -1    7.82    0.41
  12   4   1    7.72    0.55
 -12   4  -1    8.29    0.46
  12   4   1    7.74    0.52
 -12   4  -1    8.28    0.68
 -12   4  -1    6.77    0.54
  12   4   1    8.47    0.47
 -12   4  -1    8.09    0.42
  12   4   1    6.60    0.42
 -12   4  -1    7.03    0.57
  12   4   1    8.08    0.77
 -12   4  -1    8.03    0.45
  14  -4   1    5.53    0.46
 -14  -4  -1    5.33    0.64
 -14  -4  -1    4.38    0.41
 -14   4  -1    4.85    0.42
 -14   4  -1    4.92    0.55
  14   4   1    4.11    0.54
  14   4   1    6.78    0.89
  14   4   1    5.31    0.51
 -14   4  -1    5.37    0.46
  14   4   1    5.11    0.45
 -14   4  -1    5.49    0.42
 -14   4  -1    5.32    0.43
  14   4   1    5.53    0.47
 -14   4  -1    5.36    0.68
  16  -4   1    1.65    0.27
  16  -4   1    0.72    0.28
 -16  -4  -1    0.93    0.22
 -16  -4  -1    1.29    0.33
  16   4   1    1.00    0.33
  16   4   1    0.10    0.37
 -16   4  -1    1.72    0.33
 -16   4  -1    0.87    0.20
 -16   4  -1    1.19    0.32
  16   4   1    1.20    0.26
  16   4   1    1.39    0.40
  16   4   1    1.37    0.26
 -16   4  -1    1.09    0.21
 -18  -4  -1    0.36    0.21
  18  -4   1    0.39    0.23
 -18  -4  -1    0.43    0.22
  18   4   1    0.19    0.24
 -18   4  -1    0.26    0.19
 -18   4  -1    0.33    0.21
  18   4   1   -0.01    0.27
  19  -5  -1    2.87    0.31
 -19  -5   1    3.18    0.42
 -19   5   1    4.29    0.48
  19   5  -1    4.12    0.39
  19   5  -1    3.81    0.34
  19   5  -1    2.44    0.36
  19   5  -1    3.01    0.52
  19   5  -1    2.77    0.51
  19   5  -1    3.35    0.32
 -17  -5   1    0.00    0.18
  17  -5  -1    0.02    0.13
  17   5  -1    0.37    0.29
  17   5  -1   -0.18    0.20
  17   5  -1    0.13    0.15
 -17   5   1   -0.03    0.12
  17   5  -1    0.05    0.19
 -17   5   1    0.00    0.15
  17   5  -1    0.12    0.25
 -17   5   1   -0.11    0.17
 -17   5   1   -0.08    0.15
  17   5  -1    0.02    0.14
  17   5  -1    0.05    0.15
  15  -5  -1   22.38    0.82
 -15  -5   1   19.36    0.77
  15   5  -1   20.16    1.03
  15   5  -1   20.62    1.10
 -15   5   1   20.23    0.79
  15   5  -1   21.15    1.41
  15   5  -1   20.67    0.94
 -15   5   1   21.05    1.07
  15   5  -1   21.56    0.89
  15   5  -1   22.03    1.52
  15   5  -1   21.44    0.83
 -15   5   1   20.94    0.81
  13  -5  -1    0.25    0.12
 -13  -5   1    0.10    0.12
 -13  -5   1   -0.14    0.10
 -13   5   1    0.17    0.13
 -13   5   1    0.23    0.17
  13   5  -1    0.02    0.21
  13   5  -1    0.14    0.12
  13   5  -1    0.06    0.31
  13   5  -1    0.16    0.11
  13   5  -1    0.32    0.17
 -13   5   1    0.10    0.11
  13   5  -1    0.11    0.11
 -13   5   1    0.20    0.15
 -13   5   1   -0.01    0.10
  13   5  -1    0.16    0.23
 -13   5   1    0.15    0.11
  13   5  -1    0.00    0.14
 -13   5   1    0.10    0.08
 -11  -5   1   -0.02    0.11
 -11  -5   1    0.12    0.10
 -11  -5   1    0.07    0.09
  11   5  -1    0.02    0.08
 -11   5   1    0.07    0.08
 -11   5   1   -0.03    0.07
  11   5  -1    0.03    0.10
 -11   5   1   -0.02    0.07
 -11   5   1    0.00    0.15
 -11   5   1    0.06    0.06
 -11   5   1   -0.03    0.07
  11   5  -1    0.00    0.30
 -11   5   1    0.05    0.08
  11   5  -1   -0.11    0.11
 -11   5   1    0.09    0.10
  11   5  -1    0.19    0.13
  11   5  -1   -0.05    0.07
  11   5  -1    0.01    0.16
  11   5  -1   -0.01    0.13
  -9  -5   1   24.70    0.72
  -9  -5   1   24.88    0.85
  -9  -5   1   24.31    0.86
  -9   5   1   24.94    0.74
  -9   5   1   24.89    0.83
  -9   5   1   25.60    0.66
   9   5  -1   24.14    0.71
  -9   5   1   25.34    0.68
   9   5  -1   25.09    0.83
  -9   5   1   25.51    0.76
   9   5  -1   24.63    0.77
  -9   5   1   24.85    0.79
  -7  -5   1   10.39    0.48
  -7  -5   1   11.05    0.48
   7   5  -1   10.32    0.40
  -7   5   1   11.54    0.45
  -7   5   1   12.06    0.43
  -7   5   1   10.41    0.38
   7   5  -1   10.87    0.39
   7   5  -1   10.11    0.40
  -7   5   1   10.44    0.28
  -7   5   1   10.94    0.44
  -7   5   1   10.91    0.43
   7   5  -1   10.54    0.54
  -7   5   1   11.35    0.41
   7   5  -1   11.56    0.45
  -7   5   1   11.03    0.37
  -5  -5   1    4.86    0.30
  -5  -5   1    5.03    0.33
  -5  -5   1    4.94    0.28
   5   5  -1    5.12    0.26
  -5   5   1    5.10    0.24
  -5   5   1    4.98    0.24
  -5   5   1    4.47    0.21
  -5   5   1    4.08    0.23
  -5   5   1    5.32    0.25
  -5   5   1    5.08    0.21
  -5   5   1    5.45    0.24
  -5   5   1    5.39    0.23
  -5   5   1    5.02    0.23
   5   5  -1    5.04    0.24
   5   5  -1    5.27    0.24
   5   5  -1    5.38    0.33
   5   5  -1    5.08    0.23
  -3  -5   1    9.10    0.40
  -3  -5   1    9.39    0.36
  -3  -5   1    9.38    0.43
  -3   5   1    9.58    0.37
  -3   5   1    9.56    0.32
  -3   5   1    9.45    0.33
   3   5  -1    9.53    0.44
  -3   5   1    9.64    0.32
  -3   5   1    9.70    0.33
  -3   5   1    8.49    0.32
   3   5  -1   10.08    0.33
   3   5  -1    9.14    0.32
  -3   5   1    9.31    0.32
   3   5  -1    9.32    0.33
   3   5  -1    9.30    0.35
  -3   5   1    9.34    0.34
  -3   5   1    9.26    0.33
  -1  -5   1    1.01    0.14
  -1  -5   1    0.74    0.10
  -1  -5   1    0.89    0.14
  -1   5   1    0.73    0.11
  -1   5   1    0.80    0.11
   1   5  -1    0.90    0.11
   1   5  -1    0.68    0.10
   1   5  -1    0.78    0.11
   1   5  -1    0.85    0.14
  -1   5   1    0.75    0.09
  -1   5   1    0.89    0.12
   1   5  -1    0.73    0.10
  -1   5   1    0.74    0.07
   1   5  -1    0.75    0.08
  -1   5   1    0.73    0.11
  -1   5   1    0.82    0.10
  -1   5   1    0.80    0.09
   1   5  -1    0.78    0.09
   1  -5   1    6.48    0.22
   1   5   1    6.25    0.26
  -1   5  -1    6.37    0.27
   1   5   1    7.29    0.31
  -1   5  -1    6.89    0.25
  -1   5  -1    6.91    0.26
   1   5   1    6.72    0.21
  -1   5  -1    7.23    0.35
   1   5   1    6.92    0.25
   1   5   1    6.83    0.28
   1   5   1    7.11    0.31
  -1   5  -1    6.84    0.28
   1   5   1    6.98    0.27
  -1   5  -1    6.52    0.26
   1   5   1    6.46    0.27
   3  -5   1    2.77    0.16
  -3   5  -1    2.71    0.15
   3   5   1    2.74    0.22
  -3   5  -1    2.74    0.17
   3   5   1    3.02    0.22
  -3   5  -1    2.77    0.17
  -3   5  -1    2.99    0.18
  -3   5  -1    3.01    0.18
   3   5   1    2.86    0.17
   3   5   1    2.81    0.19
  -3   5  -1    3.01    0.19
   3   5   1    3.00    0.18
   3   5   1    2.83    0.16
  -3   5  -1    2.64    0.18
  -3   5  -1    2.96    0.22
   5  -5   1   13.38    0.43
  -5   5  -1   12.81    0.40
   5   5   1   13.34    0.44
   5   5   1   13.51    0.51
   5   5   1   14.08    0.48
  -5   5  -1   13.44    0.46
  -5   5  -1   13.74    0.47
  -5   5  -1   12.73    0.46
   5   5   1   13.00    0.48
   5   5   1   13.32    0.45
   5   5   1   13.56    0.43
   5   5   1   13.57    0.61
  -5   5  -1   13.79    0.50
  -5   5  -1   13.43    0.47
  -5   5  -1   13.91    0.61
  -5   5  -1   13.43    0.43
   7  -5   1    0.34    0.09
  -7   5  -1    0.27    0.10
   7   5   1    0.27    0.09
  -7   5  -1    0.11    0.07
  -7   5  -1   -0.03    0.07
   7   5   1    0.32    0.13
  -7   5  -1    0.28    0.10
   7   5   1    0.26    0.09
  -7   5  -1    0.36    0.10
   7   5   1    0.27    0.09
   7   5   1    0.22    0.09
  -7   5  -1    0.27    0.08
  -7   5  -1    0.21    0.09
   7   5   1    0.23    0.08
   7   5   1    0.40    0.10
  -7   5  -1    0.16    0.09
   9  -5   1    6.86    0.33
  -9  -5  -1    6.72    0.39
   9   5   1    7.48    0.40
  -9   5  -1    6.95    0.41
  -9   5  -1    7.01    0.34
  -9   5  -1    6.53    0.47
   9   5   1    6.89    0.37
   9   5   1    6.38    0.37
  -9   5  -1    6.67    0.36
  -9   5  -1    7.23    0.38
  -9   5  -1    7.16    0.35
  -9   5  -1    6.62    0.36
  11  -5   1    2.14    0.27
 -11  -5  -1    1.77    0.24
 -11  -5  -1    1.51    0.37
  11  -5   1    1.59    0.24
  11  -5   1    1.71    0.21
  11   5   1    0.28    0.36
 -11   5  -1    1.38    0.29
 -11   5  -1    1.60    0.23
  11   5   1    1.68    0.29
 -11   5  -1    1.73    0.25
  11   5   1    1.22    0.20
 -11   5  -1    1.68    0.23
  11   5   1    1.65    0.24
  11   5   1    2.55    0.53
 -11   5  -1    2.05    0.42
 -11   5  -1    1.80    0.35
  11   5   1    1.79    0.32
 -11   5  -1    1.84    0.26
  11   5   1    1.60    0.27
  11   5   1    1.78    0.37
 -11   5  -1    1.91    0.24
  13  -5   1    0.21    0.13
 -13  -5  -1    0.30    0.15
 -13  -5  -1    0.17    0.25
  13   5   1    0.43    0.20
 -13   5  -1    0.23    0.13
 -13   5  -1    0.01    0.12
 -13   5  -1    0.08    0.14
 -13   5  -1    0.27    0.12
  13   5   1    0.21    0.14
  13   5   1   -0.03    0.33
 -13   5  -1    0.24    0.23
  13   5   1    0.40    0.26
 -13   5  -1   -0.04    0.17
  13   5   1    0.35    0.18
 -13   5  -1    0.19    0.13
  13   5   1   -0.05    0.14
  13   5   1   -0.02    0.24
  15  -5   1    0.75    0.32
 -15  -5  -1    2.09    0.29
  15  -5   1    3.04    0.35
 -15  -5  -1    2.66    0.44
  15   5   1    1.85    0.40
  15   5   1    2.74    0.37
  15   5   1    2.73    0.34
 -15   5  -1    2.79    0.42
  15   5   1    2.55    0.57
  15   5   1    2.64    0.37
 -15   5  -1    2.19    0.27
 -15   5  -1    2.12    0.29
 -15   5  -1    2.75    0.49
 -17  -5  -1    0.01    0.16
  17   5   1    0.41    0.28
 -17   5  -1    0.25    0.20
  17   5   1    0.02    0.13
  17   5   1    0.68    0.37
 -17   5  -1    0.18    0.23
  17   5   1   -0.07    0.17
 -19  -5  -1    0.88    0.22
  19   5   1    0.80    0.28
 -20  -6   1    0.27    0.15
  20  -6  -1   -0.11    0.09
  20   6  -1    0.10    0.12
 -20   6   1    0.00    0.16
  20   6  -1    0.31    0.18
  20   6  -1   -0.03    0.21
  18  -6  -1    2.07    0.29
 -18  -6   1    2.13    0.38
  18   6  -1    2.81    0.34
  18   6  -1    1.95    0.46
  18   6  -1    2.36    0.31
 -18   6   1    2.67    0.39
  18   6  -1    1.93    0.47
  18   6  -1    2.34    0.32
  16  -6  -1    7.74    0.47
  16   6  -1    7.78    0.83
 -16   6   1    8.35    0.48
  16   6  -1    7.68    0.55
 -16   6   1    7.44    0.59
  16   6  -1    7.85    0.51
  16   6  -1    7.39    0.63
 -16   6   1    7.73    0.44
  16   6  -1    7.55    0.78
  16   6  -1    7.39    0.47
  16   6  -1    7.77    0.55
 -16   6   1    7.43    0.46
  14  -6  -1    0.16    0.12
 -14   6   1   -0.11    0.12
  14   6  -1    0.11    0.15
 -14   6   1   -0.01    0.10
  14   6  -1    0.21    0.25
 -14   6   1   -0.03    0.11
  14   6  -1    0.19    0.15
  14   6  -1    0.24    0.30
 -14   6   1    0.05    0.17
  14   6  -1   -0.06    0.12
 -14   6   1    0.09    0.12
 -12  -6   1   15.45    0.72
 -12   6   1   15.75    0.67
  12   6  -1   15.54    0.58
 -12   6   1   14.99    0.61
  12   6  -1   15.24    0.65
 -12   6   1   16.42    0.59
  12   6  -1   15.79    0.70
 -12   6   1   15.17    0.76
  12   6  -1   15.92    1.00
 -12   6   1   16.55    0.65
  12   6  -1   15.58    1.12
 -12   6   1   15.37    0.55
 -12   6   1   14.19    0.83
  12   6  -1   15.52    0.77
 -12   6   1   16.15    0.73
  12   6  -1   15.56    0.72
 -10  -6   1    4.43    0.40
 -10  -6   1    4.48    0.41
 -10   6   1    4.69    0.33
  10   6  -1    5.64    0.79
 -10   6   1    4.87    0.40
 -10   6   1    4.05    0.31
  10   6  -1    4.14    0.36
 -10   6   1    4.55    0.23
 -10   6   1    3.58    0.30
 -10   6   1    4.42    0.39
  10   6  -1    4.74    0.43
 -10   6   1    4.82    0.37
  10   6  -1    4.70    0.38
  10   6  -1    4.15    0.31
  -8  -6   1    0.67    0.16
  -8  -6   1    0.65    0.16
   8  -6  -1    0.51    0.10
  -8   6   1    0.47    0.11
  -8   6   1    0.47    0.11
  -8   6   1    0.52    0.12
  -8   6   1    0.56    0.13
   8   6  -1    0.53    0.11
  -8   6   1    0.53    0.08
  -8   6   1    0.66    0.12
   8   6  -1    0.53    0.13
   8   6  -1    0.64    0.14
  -8   6   1    0.61    0.13
  -8   6   1    0.37    0.10
  -6  -6   1   18.10    0.70
  -6  -6   1   18.80    0.69
   6   6  -1   18.63    0.57
  -6   6   1   18.42    0.51
   6   6  -1   19.84    0.66
  -6   6   1   18.86    0.58
  -6   6   1   19.65    0.66
   6   6  -1   19.11    0.58
  -6   6   1   17.80    0.55
  -6   6   1   19.63    0.62
  -6   6   1   18.67    0.62
  -6   6   1   19.79    0.61
   6   6  -1   18.94    0.81
   6   6  -1   19.11    0.61
  -4  -6   1   10.65    0.44
  -4  -6   1   10.27    0.47
  -4   6   1   11.16    0.40
  -4   6   1   10.49    0.38
  -4   6   1   10.07    0.41
  -4   6   1   10.73    0.40
  -4   6   1   10.56    0.37
   4   6  -1   11.66    0.54
  -4   6   1   11.17    0.39
   4   6  -1   10.48    0.39
  -4   6   1   11.23    0.40
   4   6  -1   10.65    0.37
  -4   6   1   11.62    0.41
   4   6  -1   10.72    0.40
   4   6  -1   10.88    0.42
  -2  -6   1    0.03    0.09
  -2  -6   1    0.09    0.06
   2   6  -1    0.12    0.06
  -2   6   1    0.02    0.05
   2   6  -1    0.04    0.03
  -2   6   1    0.08    0.05
   2   6  -1    0.06    0.07
  -2   6   1    0.08    0.05
  -2   6   1    0.03    0.04
  -2   6   1    0.02    0.04
  -2   6   1    0.14    0.06
  -2   6   1    0.08    0.06
   2   6  -1    0.16    0.07
   2   6  -1    0.02    0.05
  -2   6   1    0.07    0.05
   2   6  -1    0.11    0.06
   2   6  -1    0.02    0.05
  -2   6   1    0.15    0.07
  -2   6   1    0.13    0.07
   0  -6   1   87.27    2.31
   0  -6   1   97.12    2.21
   0   6   1   91.92    2.07
   0   6   1   93.44    2.03
   0   6  -1   93.19    2.24
   0   6   1   86.25    1.96
   0   6   1   93.62    2.10
   0   6  -1   95.71    2.11
   0   6  -1   97.40    2.79
   0   6   1   92.25    1.90
   0   6  -1   95.49    2.12
   0   6   1  100.04    2.38
   0   6   1   98.62    2.72
   0   6  -1   91.72    2.02
   0   6   1   95.69    2.23
   0   6   1   91.71    2.10
   0   6  -1   94.08    2.15
   2  -6   1    4.16    0.25
  -2   6  -1    3.78    0.18
  -2   6  -1    4.19    0.28
   2   6   1    4.31    0.19
   2   6   1    3.75    0.26
  -2   6  -1    4.22    0.24
   2   6   1    3.91    0.22
   2   6   1    4.28    0.23
  -2   6  -1    4.22    0.20
  -2   6  -1    4.12    0.22
  -2   6  -1    4.08    0.23
  -2   6  -1    4.21    0.22
   2   6   1    3.78    0.22
   2   6   1    4.44    0.26
  -2   6  -1    4.27    0.22
   2   6   1    4.55    0.24
   4  -6   1    0.60    0.10
  -4   6  -1    0.53    0.14
  -4   6  -1    0.48    0.11
  -4   6  -1    0.55    0.09
   4   6   1    0.43    0.10
  -4   6  -1    0.42    0.09
   4   6   1    0.42    0.10
  -4   6  -1    0.45    0.10
   4   6   1    0.52    0.11
   4   6   1    0.48    0.11
   4   6   1    0.46    0.14
  -4   6  -1    0.55    0.11
   4   6   1    0.44    0.11
  -4   6  -1    0.42    0.10
   4   6   1    0.48    0.10
  -4   6  -1    0.38    0.10
   6  -6   1    5.71    0.28
  -6   6  -1    6.13    0.33
   6   6   1    6.21    0.30
  -6   6  -1    6.50    0.29
  -6   6  -1    6.26    0.40
   6   6   1    5.62    0.32
  -6   6  -1    6.09    0.29
   6   6   1    6.06    0.32
   6   6   1    6.15    0.42
   6   6   1    6.12    0.34
  -6   6  -1    5.93    0.31
   6   6   1    6.36    0.31
  -6   6  -1    6.05    0.34
  -6   6  -1    6.05    0.32
  -6   6  -1    6.20    0.32
  -8  -6  -1    1.48    0.23
   8  -6   1    1.53    0.19
   8   6   1    1.35    0.20
   8   6   1    1.19    0.19
   8   6   1    1.65    0.20
   8   6   1    1.39    0.20
   8   6   1    1.38    0.18
  -8   6  -1    1.38    0.21
  -8   6  -1    1.64    0.19
  -8   6  -1    1.35    0.20
  -8   6  -1    1.29    0.18
   8   6   1    1.21    0.26
  -8   6  -1    1.47    0.20
  -8   6  -1    1.35    0.18
 -10  -6  -1   -0.02    0.14
  10  -6   1    0.02    0.09
  10   6   1    0.20    0.12
 -10   6  -1    0.26    0.18
  10   6   1    0.24    0.16
 -10   6  -1    0.16    0.10
 -10   6  -1    0.14    0.12
 -10   6  -1    0.28    0.15
 -10   6  -1    0.18    0.11
 -10   6  -1    0.25    0.13
  10   6   1    0.39    0.16
  10   6   1   -0.02    0.22
 -10   6  -1    0.08    0.08
  10   6   1    0.28    0.22
  10   6   1    0.08    0.34
 -10   6  -1    0.25    0.11
 -10   6  -1    0.08    0.17
  10   6   1    0.14    0.11
 -10   6  -1    0.12    0.14
  10   6   1    0.42    0.19
 -12  -6  -1   -0.17    0.20
  12  -6   1   -0.22    0.09
  12   6   1    0.05    0.14
  12   6   1   -0.05    0.15
 -12   6  -1   -0.16    0.17
 -12   6  -1   -0.02    0.18
 -12   6  -1    0.00    0.13
 -12   6  -1    0.12    0.11
  12   6   1   -0.07    0.20
  12   6   1    0.32    0.22
 -12   6  -1   -0.11    0.10
 -12   6  -1    0.02    0.17
  12   6   1    0.30    0.33
  12   6   1    0.05    0.12
  12   6   1    0.19    0.14
 -12   6  -1   -0.02    0.11
 -12   6  -1    0.12    0.13
  14  -6   1    7.59    0.47
 -14  -6  -1    6.48    0.64
  14   6   1    6.70    0.46
  14   6   1    7.43    0.48
 -14   6  -1    7.86    0.71
 -14   6  -1    7.96    0.52
 -14   6  -1    6.83    0.42
  14   6   1    6.68    0.54
  14   6   1    6.91    0.50
 -14   6  -1    6.88    0.58
  14   6   1    7.02    0.71
 -16  -6  -1   11.13    0.80
  16  -6   1   12.78    0.58
  16   6   1   12.79    0.67
  16   6   1    9.90    0.85
 -16   6  -1   11.76    0.69
  16   6   1   12.10    0.61
 -16   6  -1   11.32    0.82
  16   6   1   12.50    0.63
 -18  -6  -1    1.35    0.25
 -18  -6  -1    1.22    0.26
  18   6   1    0.83    0.29
 -18   6  -1    1.51    0.26
 -18   6  -1    1.26    0.26
 -19  -7   1    0.50    0.20
  19  -7  -1    0.46    0.15
  19   7  -1    0.57    0.15
  19   7  -1    0.71    0.27
  19   7  -1    0.78    0.18
  19   7  -1    0.54    0.30
 -19   7   1    0.72    0.21
  19   7  -1    0.80    0.18
 -17  -7   1    0.54    0.23
  17  -7  -1    0.39    0.18
  17   7  -1    0.63    0.18
  17   7  -1    0.57    0.36
 -17   7   1    0.59    0.17
 -17   7   1    0.94    0.25
 -17   7   1    0.68    0.20
  17   7  -1    0.72    0.23
  17   7  -1    0.66    0.21
  17   7  -1    0.53    0.28
  15  -7  -1   14.97    0.66
  15   7  -1   14.34    0.68
  15   7  -1   14.20    0.76
  15   7  -1   14.36    0.71
 -15   7   1   14.53    0.65
 -15   7   1   14.87    0.60
 -15   7   1   14.11    0.85
  15   7  -1   14.83    1.19
 -15   7   1   13.96    0.68
  15   7  -1   14.89    1.12
  13  -7  -1    7.18    0.44
  13   7  -1    7.20    0.75
  13   7  -1    7.05    0.48
  13   7  -1    6.96    0.51
 -13   7   1    6.97    0.56
  13   7  -1    6.02    0.49
  13   7  -1    7.10    0.81
 -13   7   1    6.74    0.36
 -13   7   1    6.92    0.43
 -13   7   1    7.12    0.58
  13   7  -1    6.87    0.79
  11  -7  -1    0.92    0.80
 -11  -7   1    0.80    0.21
 -11  -7   1    0.78    0.21
  11   7  -1    0.17    0.33
  11   7  -1    0.95    0.35
  11   7  -1    0.81    0.20
  11   7  -1    1.28    0.34
 -11   7   1    0.84    0.20
 -11   7   1    0.66    0.19
 -11   7   1    0.86    0.26
  11   7  -1    0.94    0.21
  11   7  -1    0.72    0.15
 -11   7   1    0.92    0.20
  11   7  -1    0.92    0.24
 -11   7   1    0.67    0.16
  11   7  -1    0.95    0.20
 -11   7   1    0.94    0.14
   9  -7  -1    0.87    0.83
  -9  -7   1    1.28    0.23
   9  -7  -1    1.07    0.16
  -9  -7   1    1.17    0.23
  -9   7   1    1.10    0.13
   9   7  -1    1.59    0.42
   9   7  -1    1.03    0.20
   9   7  -1    1.47    0.19
   9   7  -1    1.28    0.30
  -9   7   1    1.20    0.21
  -9   7   1    1.14    0.18
  -9   7   1    1.28    0.18
   9   7  -1    1.03    0.18
   9   7  -1    1.31    0.24
  -9   7   1    1.34    0.20
  -9   7   1    1.02    0.18
  -9   7   1    1.21    0.27
  -7  -7   1    0.09    0.11
  -7  -7   1    0.08    0.08
   7   7  -1    0.07    0.07
  -7   7   1    0.10    0.07
  -7   7   1    0.09    0.06
   7   7  -1    0.10    0.08
  -7   7   1    0.10    0.07
  -7   7   1    0.03    0.06
   7   7  -1    0.01    0.08
  -7   7   1    0.09    0.05
   7   7  -1    0.03    0.10
  -7   7   1    0.14    0.07
  -7   7   1    0.02    0.07
   7   7  -1    0.07    0.06
  -5  -7   1    7.60    0.43
  -5  -7   1    7.44    0.39
   5   7  -1    7.67    0.36
  -5   7   1    8.17    0.36
   5   7  -1    7.87    0.35
  -5   7   1    7.43    0.32
   5   7  -1    8.27    0.48
  -5   7   1    7.61    0.34
   5   7  -1    8.02    0.34
   5   7  -1    7.85    0.38
  -5   7   1    7.95    0.35
  -5   7   1    7.75    0.36
  -5   7   1    7.78    0.33
  -3  -7   1   46.04    1.28
  -3  -7   1   46.13    1.36
  -3   7   1   46.85    1.19
   3   7  -1   45.24    1.18
  -3   7   1   41.09    1.08
   3   7  -1   49.63    1.59
   3   7  -1   47.92    1.27
  -3   7   1   44.56    1.15
  -3   7   1   46.15    1.14
   3   7  -1   47.93    1.17
   3   7  -1   46.21    1.20
  -3   7   1   47.64    1.18
   3   7  -1   46.76    1.15
  -3   7   1   50.03    1.43
  -1  -7   1  119.38    3.06
  -1  -7   1  123.35    2.95
  -1   7   1  124.17    2.73
   1   7  -1  126.80    2.79
   1   7  -1  123.58    2.78
  -1   7   1  124.47    2.62
  -1   7   1  127.81    3.12
   1   7  -1  126.41    2.76
  -1   7   1  122.36    2.68
   1   7  -1  124.82    2.96
  -1   7   1  124.39    3.57
   1   7  -1  129.62    3.69
  -1   7   1  125.44    2.75
  -1   7   1  125.53    2.77
  -1   7   1  125.75    2.78
   1   7  -1  124.09    2.66
   1  -7   1   71.64    1.93
  -1   7  -1   74.00    1.72
   1   7   1   76.52    2.28
   1   7   1   78.14    1.76
   1   7   1   75.30    1.78
   1   7   1   74.22    1.78
  -1   7  -1   71.92    1.79
   1   7   1   76.66    1.88
  -1   7  -1   74.89    1.79
  -1   7  -1   75.41    1.75
  -1   7  -1   78.60    1.78
   1   7   1   79.40    1.71
   1   7   1   69.76    1.64
   1   7   1   78.88    2.01
  -1   7  -1   75.63    2.33
  -1   7  -1   77.73    1.70
  -3   7  -1    7.92    0.30
   3   7   1    8.68    0.46
  -3   7  -1    8.25    0.35
   3   7   1    8.06    0.36
   3   7   1    8.08    0.36
  -3   7  -1    7.99    0.37
  -3   7  -1    8.48    0.33
   3   7   1    8.44    0.38
  -3   7  -1    8.35    0.37
  -3   7  -1    8.35    0.46
   3   7   1    8.02    0.37
  -3   7  -1    8.67    0.36
   3   7   1    8.24    0.41
   3   7   1    8.58    0.33
  -3   7  -1    8.75    0.37
   5  -7   1   13.87    0.49
  -5   7  -1   14.13    0.48
   5   7   1   13.95    0.51
  -5   7  -1   13.48    0.66
  -5   7  -1   13.27    0.52
  -5   7  -1   13.58    0.54
   5   7   1   13.89    0.48
   5   7   1   13.35    0.57
  -5   7  -1   13.71    0.45
   5   7   1   13.63    0.51
  -5   7  -1   13.53    0.52
   5   7   1   13.35    0.67
   5   7   1   14.12    0.55
  -5   7  -1   15.29    0.54
   5   7   1   13.66    0.54
  -5   7  -1   13.55    0.53
   7  -7   1    0.49    0.12
  -7  -7  -1    0.46    0.15
  -7   7  -1    0.54    0.12
   7   7   1    0.54    0.14
  -7   7  -1    0.63    0.14
  -7   7  -1    0.38    0.13
   7   7   1    0.49    0.15
  -7   7  -1    0.47    0.14
  -7   7  -1    0.53    0.16
   7   7   1    0.54    0.12
  -7   7  -1    0.54    0.14
   7   7   1    0.48    0.18
   7   7   1    0.49    0.13
   7   7   1    0.53    0.13
  -7   7  -1    0.54    0.12
   9  -7   1    0.49    0.14
  -9  -7  -1    0.45    0.17
   9   7   1    0.32    0.14
   9   7   1   -0.16    0.29
  -9   7  -1    0.50    0.18
  -9   7  -1    0.49    0.13
  -9   7  -1    0.55    0.16
   9   7   1    0.63    0.22
   9   7   1    0.60    0.29
  -9   7  -1    0.70    0.28
  -9   7  -1    0.57    0.17
   9   7   1    0.56    0.20
  -9   7  -1    0.67    0.25
   9   7   1    0.55    0.17
  -9   7  -1    0.57    0.15
   9   7   1    0.74    0.18
   9   7   1    0.34    0.23
  -9   7  -1    0.57    0.15
  11  -7   1    1.30    0.23
  11  -7   1    1.10    0.19
  11   7   1    1.24    0.40
  11   7   1    1.21    0.23
  11   7   1    1.48    0.25
 -11   7  -1    1.05    0.21
 -11   7  -1    0.98    0.20
  11   7   1    1.04    0.32
 -11   7  -1    1.11    0.20
  11   7   1    1.36    0.29
 -11   7  -1    0.91    0.32
 -11   7  -1    0.91    0.21
 -11   7  -1    0.67    0.23
  11   7   1    0.19    0.34
  11   7   1    0.93    0.24
 -11   7  -1    1.01    0.23
 -11   7  -1    0.96    0.28
 -11   7  -1    1.12    0.23
 -13  -7  -1    0.28    0.24
  13  -7   1    0.33    0.15
  13   7   1    0.18    0.14
 -13   7  -1    0.07    0.19
  13   7   1    0.17    0.30
 -13   7  -1    0.04    0.13
  13   7   1    0.51    0.17
  13   7   1   -0.02    0.19
 -13   7  -1    0.10    0.14
  13   7   1    0.35    0.18
  13   7   1    0.17    0.17
 -13   7  -1    0.03    0.14
  13   7   1    0.00    0.26
 -13   7  -1    0.11    0.19
 -13   7  -1    0.19    0.15
 -15  -7  -1    7.48    0.64
  15  -7   1    8.53    0.48
  15   7   1    8.10    0.49
 -15   7  -1    7.51    0.44
  15   7   1    8.03    0.53
 -15   7  -1    7.42    0.57
  15   7   1    6.53    0.68
 -15   7  -1    7.46    0.67
  15   7   1    7.63    0.50
 -15   7  -1    6.05    0.48
  15   7   1    6.54    0.43
 -17  -7  -1    0.10    0.17
  17   7   1    0.24    0.15
 -17   7  -1   -0.01    0.18
  17   7   1    0.12    0.15
  17   7   1    0.23    0.29
 -17   7  -1   -0.17    0.19
  18  -8  -1    0.17    0.15
 -18  -8   1    0.04    0.17
 -18   8   1    0.13    0.19
  18   8  -1    0.20    0.21
  18   8  -1    0.08    0.14
  18   8  -1   -0.04    0.27
  18   8  -1   -0.01    0.13
  18   8  -1    0.08    0.13
  16  -8  -1   -0.03    0.16
  16   8  -1    0.22    0.19
 -16   8   1    0.64    0.25
  16   8  -1    0.53    0.28
  16   8  -1    0.84    0.21
  16   8  -1    0.51    0.20
 -16   8   1    0.69    0.17
  16   8  -1    0.65    0.36
  16   8  -1    0.17    0.17
  14  -8  -1    8.32    0.48
  14   8  -1    8.12    0.50
 -14   8   1    8.16    0.51
  14   8  -1    8.35    0.54
 -14   8   1    8.57    0.49
  14   8  -1    8.00    0.55
 -14   8   1    8.42    0.43
  14   8  -1    8.88    0.88
  14   8  -1    7.78    0.80
 -14   8   1    8.42    0.64
  12  -8  -1    1.37    1.02
 -12  -8   1    2.99    0.38
  12   8  -1    3.70    0.42
 -12   8   1    3.48    0.48
  12   8  -1    2.90    0.61
 -12   8   1    3.68    0.37
  12   8  -1    3.89    0.71
 -12   8   1    3.61    0.29
 -12   8   1    3.34    0.38
  12   8  -1    3.39    0.44
  12   8  -1    3.65    0.57
  12   8  -1    3.86    0.39
  10  -8  -1   14.22    0.53
 -10  -8   1   15.74    0.72
 -10  -8   1   15.93    0.74
  10  -8  -1   16.31    2.39
  10   8  -1   14.19    0.69
  10   8  -1   15.32    0.98
 -10   8   1   15.73    0.52
  10   8  -1   13.81    0.74
  10   8  -1   15.65    1.10
 -10   8   1   15.00    0.61
  10   8  -1   14.46    1.13
  10   8  -1   15.17    0.64
 -10   8   1   14.19    0.67
 -10   8   1   13.32    0.69
  10   8  -1   14.57    0.68
 -10   8   1   13.59    0.81
 -10   8   1   15.56    0.65
  10   8  -1   14.36    0.57
  -8  -8   1    3.01    0.36
   8  -8  -1    3.28    0.27
   8  -8  -1    2.73    1.14
  -8  -8   1    3.13    0.35
   8   8  -1    3.50    0.40
   8   8  -1    3.08    0.30
  -8   8   1    2.59    0.28
  -8   8   1    2.71    0.29
   8   8  -1    3.77    0.63
   8   8  -1    3.04    0.28
  -8   8   1    2.80    0.30
   8   8  -1    2.92    0.34
  -8   8   1    3.16    0.32
  -8   8   1    3.28    0.30
  -8   8   1    3.00    0.18
   8   8  -1    2.85    0.32
   8   8  -1    3.07    0.43
  -8   8   1    2.81    0.34
  -8   8   1    2.60    0.39
   8   8  -1    3.31    0.50
  -6  -8   1   33.55    1.11
  -6  -8   1   35.07    1.17
   6   8  -1   35.05    0.96
   6   8  -1   36.98    1.02
  -6   8   1   33.16    0.94
  -6   8   1   33.18    1.14
   6   8  -1   34.45    1.02
   6   8  -1   31.35    1.31
  -6   8   1   33.90    1.00
  -6   8   1   33.57    1.00
  -6   8   1   33.83    0.82
   6   8  -1   34.11    1.08
   6   8  -1   34.55    0.97
   4  -8  -1    2.05    0.23
  -4  -8   1    2.01    0.28
  -4  -8   1    1.98    0.24
  -4   8   1    1.82    0.21
   4   8  -1    1.97    0.23
  -4   8   1    2.06    0.18
  -4   8   1    1.87    0.20
   4   8  -1    1.99    0.23
  -4   8   1    1.94    0.21
   4   8  -1    1.79    0.20
  -4   8   1    2.19    0.24
  -4   8   1    1.85    0.20
   4   8  -1    2.01    0.29
   4   8  -1    1.99    0.20
   4   8  -1    1.81    0.22
  -4   8   1    1.80    0.11
  -2  -8   1    3.60    0.36
  -2  -8   1    3.55    0.24
  -2   8   1    3.99    0.25
   2   8  -1    3.95    0.23
   2   8  -1    3.50    0.30
  -2   8   1    3.57    0.16
  -2   8   1    3.51    0.27
  -2   8   1    3.83    0.25
   2   8  -1    3.84    0.30
  -2   8   1    3.65    0.24
  -2   8   1    4.02    0.31
   2   8  -1    3.68    0.30
   2   8  -1    3.84    0.30
   2   8  -1    3.74    0.31
   0  -8   1    0.05    0.08
   0   8   1    0.00    0.05
   0   8   1   -0.02    0.06
   0   8  -1    0.01    0.07
   0   8   1   -0.02    0.04
   0   8   1    0.02    0.06
   0   8   1   -0.02    0.05
   0   8  -1    0.03    0.07
   0   8  -1    0.00    0.06
   0   8   1    0.09    0.08
   0   8  -1    0.05    0.07
   0   8   1    0.03    0.07
   0   8  -1   -0.03    0.05
   0   8  -1    0.01    0.05
   0   8   1   -0.01    0.04
   2  -8   1    7.77    0.41
  -2   8  -1    8.69    0.49
   2   8   1    8.00    0.39
  -2   8  -1    9.02    0.35
   2   8   1    8.78    0.40
   2   8   1    8.54    0.40
  -2   8  -1    8.64    0.39
  -2   8  -1    8.73    0.40
  -2   8  -1    8.79    0.40
  -2   8  -1    8.78    0.38
   2   8   1    8.44    0.47
   2   8   1    8.21    0.38
   2   8   1    8.99    0.45
   2   8   1    8.81    0.33
   4  -8   1   13.75    0.49
  -4   8  -1   13.97    0.55
  -4   8  -1   13.43    0.52
   4   8   1   14.23    0.54
   4   8   1   13.36    0.67
   4   8   1   13.40    0.55
   4   8   1   13.63    0.53
  -4   8  -1   13.21    0.47
   4   8   1   13.48    0.59
  -4   8  -1   13.29    0.52
   4   8   1   14.22    0.50
  -4   8  -1   13.52    0.67
  -4   8  -1   13.31    0.53
  -4   8  -1   13.76    0.54
   4   8   1   14.00    0.56
   6  -8   1    0.16    0.09
  -6  -8  -1    0.27    0.14
   6   8   1    0.25    0.20
  -6   8  -1    0.28    0.17
  -6   8  -1    0.20    0.09
   6   8   1    0.13    0.09
  -6   8  -1    0.16    0.13
   6   8   1    0.49    0.29
   6   8   1    0.19    0.15
   6   8   1    0.27    0.11
  -6   8  -1    0.20    0.10
  -6   8  -1    0.19    0.11
   6   8   1    0.21    0.13
  -6   8  -1    0.19    0.19
  -6   8  -1    0.22    0.10
  -6   8  -1    0.15    0.10
   6   8   1    0.20    0.15
   6   8   1    0.08    0.10
  -6   8  -1    0.24    0.11
   6   8   1    0.10    0.09
  -6   8  -1    0.32    0.12
   6   8   1    0.09    0.15
   6   8   1    0.23    0.12
   6   8   1    0.13    0.11
   8  -8   1    0.35    0.13
  -8  -8  -1    0.47    0.17
  -8   8  -1    0.56    0.16
  -8   8  -1    0.55    0.13
  -8   8  -1    0.35    0.17
   8   8   1    0.39    0.14
   8   8   1    0.65    0.18
   8   8   1    0.72    0.22
   8   8   1    0.42    0.16
  -8   8  -1    0.01    0.14
  -8   8  -1    0.17    0.18
   8   8   1    0.56    0.24
  -8   8  -1    0.25    0.19
   8   8   1    0.45    0.15
   8   8   1    0.48    0.19
  -8   8  -1    0.46    0.14
   8   8   1    0.50    0.16
  -8   8  -1    0.42    0.13
   8   8   1    0.47    0.27
   8   8   1    0.50    0.14
   8   8   1    0.49    0.18
  -8   8  -1    0.92    0.33
   8   8   1   -0.14    0.33
  -8   8  -1    0.48    0.22
   8   8   1    0.74    0.28
  -8   8  -1    0.57    0.16
  10  -8   1    6.11    0.43
 -10  -8  -1    6.29    0.56
  10   8   1    5.95    0.53
 -10   8  -1    6.51    0.37
  10   8   1    6.07    0.49
 -10   8  -1    5.98    0.47
  10   8   1    6.28    0.68
  10   8   1    5.44    0.48
 -10   8  -1    4.73    0.46
 -10   8  -1    6.27    0.50
 -10   8  -1    5.65    0.44
  10   8   1    5.86    0.69
  10   8   1    5.96    0.46
 -10   8  -1    6.31    0.64
  10   8   1    6.00    0.57
 -10   8  -1    5.14    0.57
 -10   8  -1    5.95    0.43
 -10   8  -1    6.22    0.74
 -12  -8  -1    3.99    0.58
  12  -8   1    5.22    0.45
 -12   8  -1    4.93    0.46
 -12   8  -1    4.82    0.40
  12   8   1    4.68    0.44
  12   8   1    4.75    0.63
  12   8   1    4.91    0.51
  12   8   1    5.03    0.74
 -12   8  -1    4.11    0.40
  12   8   1    4.63    0.45
 -12   8  -1    4.50    0.54
  12   8   1    4.54    0.43
 -12   8  -1    4.50    0.39
 -12   8  -1    3.99    0.57
  14  -8   1    1.87    0.27
 -14  -8  -1    1.36    0.34
 -14   8  -1    1.69    0.26
  14   8   1    2.11    0.33
 -14   8  -1    1.71    0.25
  14   8   1    1.69    0.45
 -14   8  -1    1.86    0.40
  14   8   1    1.48    0.27
  14   8   1    0.65    0.38
 -14   8  -1    1.26    0.26
 -14   8  -1    1.61    0.25
 -14   8  -1    1.82    0.36
  14   8   1    1.94    0.27
  14   8   1    2.01    0.33
 -16  -8  -1    4.08    0.47
  16   8   1    4.56    0.40
 -16   8  -1    3.64    0.38
  16   8   1    2.38    0.48
 -16   8  -1    5.00    0.55
  16   8   1    4.41    0.34
  16   8   1    3.09    0.48
  17  -9  -1    0.74    0.19
  17   9  -1    1.28    0.37
 -17   9   1    1.11    0.26
  17   9  -1    1.39    0.24
  17   9  -1    1.26    0.39
  17   9  -1    1.13    0.22
  17   9  -1    0.99    0.19
  15  -9  -1    0.19    0.67
  15  -9  -1    0.06    0.14
  15   9  -1    0.33    0.16
 -15   9   1    0.13    0.11
 -15   9   1    0.06    0.14
  15   9  -1    0.24    0.17
  15   9  -1    0.17    0.16
  15   9  -1    0.35    0.24
  15   9  -1    0.25    0.18
  15   9  -1    0.08    0.16
 -15   9   1    0.05    0.15
 -15   9   1    0.46    0.24
  15   9  -1    0.24    0.30
  13   9  -1    7.42    0.47
  13   9  -1    8.06    0.80
  13   9  -1    7.68    0.47
 -13   9   1    8.02    0.50
  13   9  -1    8.05    0.55
 -13   9   1    8.41    0.49
  13   9  -1    8.34    0.52
  13   9  -1    8.32    0.72
  13   9  -1    7.43    0.82
 -13   9   1    7.89    0.64
 -13   9   1    8.01    0.41
 -11  -9   1    8.77    0.56
  11  -9  -1    5.71    1.75
  11   9  -1    9.43    0.56
  11   9  -1    9.08    0.51
 -11   9   1    9.97    0.42
 -11   9   1    9.64    0.69
 -11   9   1   10.24    0.51
  11   9  -1    9.59    0.53
  11   9  -1    9.64    0.61
  11   9  -1    9.89    0.79
  11   9  -1    9.58    0.87
 -11   9   1    9.39    0.53
   9  -9  -1   43.64    1.18
   9  -9  -1   48.96    4.65
  -9  -9   1   45.78    1.51
  -9  -9   1   48.89    1.54
   9   9  -1   44.68    1.25
   9   9  -1   48.20    1.38
  -9   9   1   44.29    1.59
  -9   9   1   43.43    1.71
  -9   9   1   46.88    1.29
   9   9  -1   47.72    2.30
  -9   9   1   47.66    1.19
  -9   9   1   44.87    1.79
  -9   9   1   46.33    1.38
  -9   9   1   48.30    1.38
   9   9  -1   45.09    1.48
   9   9  -1   46.43    2.01
   9   9  -1   44.44    1.56
   9   9  -1   45.35    1.34
   7  -9  -1   44.12    4.12
  -7  -9   1   42.20    1.37
  -7  -9   1   39.90    1.30
  -7   9   1   39.43    1.77
  -7   9   1   37.46    1.17
   7   9  -1   39.21    1.12
   7   9  -1   40.45    1.19
   7   9  -1   38.73    1.16
   7   9  -1   41.66    1.77
  -7   9   1   37.28    1.52
  -7   9   1   40.68    1.00
  -7   9   1   38.10    1.55
  -7   9   1   38.55    1.36
  -7   9   1   41.94    1.19
   7   9  -1   37.54    1.70
   7   9  -1   35.68    1.32
   7   9  -1   38.43    1.25
   7   9  -1   39.21    1.98
  -7   9   1   41.49    1.12
   7   9  -1   37.25    1.56
  -7   9   1   37.39    1.69
   7   9  -1   39.27    1.29
   7   9  -1   39.35    1.10
  -5  -9   1    0.14    0.11
  -5  -9   1    0.28    0.16
   5   9  -1    0.18    0.10
  -5   9   1    0.05    0.08
   5   9  -1    0.06    0.09
  -5   9   1    0.18    0.10
  -5   9   1    0.19    0.06
  -5   9   1    0.22    0.09
  -5   9   1    0.15    0.10
   5   9  -1    0.14    0.10
   5   9  -1    0.10    0.15
   5   9  -1    0.19    0.15
   5   9  -1    0.14    0.10
   5   9  -1    0.09    0.10
  -3  -9   1    1.48    0.25
   3  -9  -1    1.65    0.24
  -3  -9   1    1.17    0.19
  -3   9   1    1.41    0.20
  -3   9   1    1.26    0.18
   3   9  -1    1.54    0.20
  -3   9   1    1.61    0.21
  -3   9   1    1.77    0.22
   3   9  -1    1.25    0.24
   3   9  -1    1.52    0.21
   3   9  -1    1.42    0.21
  -3   9   1    1.30    0.13
   3   9  -1    1.72    0.23
   3   9  -1    1.28    0.17
  -3   9   1    1.45    0.21
  -1  -9   1    0.32    0.13
   1   9  -1    0.29    0.13
  -1   9   1    0.42    0.08
   1   9  -1    0.40    0.10
  -1   9   1    0.44    0.13
  -1   9   1    0.34    0.11
   1   9  -1    0.36    0.12
  -1   9   1    0.35    0.11
  -1   9   1    0.33    0.11
   1   9  -1    0.40    0.11
  -1   9   1    0.38    0.10
   1   9  -1    0.40    0.12
   1   9  -1    0.35    0.10
   1  -9   1    1.57    0.23
   1   9   1    1.60    0.24
   1   9   1    1.39    0.19
  -1   9  -1    1.28    0.18
  -1   9  -1    1.29    0.24
   1   9   1    1.56    0.22
   1   9   1    1.55    0.17
   1   9   1    1.31    0.20
   1   9   1    1.43    0.23
   1   9   1    1.48    0.21
  -1   9  -1    1.52    0.21
  -1   9  -1    1.66    0.21
  -1   9  -1    1.62    0.20
  -1   9  -1    1.54    0.18
  -3  -9  -1    0.17    0.10
   3  -9   1    0.15    0.08
  -3   9  -1    0.14    0.10
   3   9   1   -0.04    0.07
   3   9   1    0.10    0.09
  -3   9  -1    0.11    0.08
   3   9   1    0.08    0.10
   3   9   1    0.04    0.09
   3   9   1    0.08    0.08
  -3   9  -1    0.05    0.06
   3   9   1    0.18    0.13
  -3   9  -1    0.03    0.06
   3   9   1    0.09    0.08
  -3   9  -1    0.09    0.09
  -3   9  -1    0.07    0.07
   5  -9   1    5.57    0.33
  -5  -9  -1    5.99    0.52
  -5   9  -1    5.75    0.35
   5   9   1    6.14    0.54
  -5   9  -1    5.74    0.35
  -5   9  -1    5.55    0.43
  -5   9  -1    5.53    0.30
   5   9   1    5.86    0.62
   5   9   1    5.44    0.32
   5   9   1    5.72    0.59
   5   9   1    5.47    0.34
  -5   9  -1    5.79    0.55
   5   9   1    4.94    0.44
  -5   9  -1    6.22    0.69
   5   9   1    6.08    0.69
   5   9   1    6.04    0.68
   5   9   1    5.91    0.50
  -5   9  -1    4.60    0.42
   5   9   1    5.45    0.44
   5   9   1    5.49    0.35
  -5   9  -1    5.95    0.60
   5   9   1    5.37    0.37
  -5   9  -1    5.84    0.60
  -5   9  -1    5.68    0.67
  -5   9  -1    4.84    0.39
  -5   9  -1    5.87    0.45
   5   9   1    5.57    0.36
   7  -9   1   57.23    1.40
  -7  -9  -1   59.54    1.77
  -7   9  -1   54.53    1.99
   7   9   1   53.97    2.01
   7   9   1   54.56    1.61
  -7   9  -1   55.90    1.45
  -7   9  -1   55.29    2.03
  -7   9  -1   51.06    2.30
   7   9   1   51.41    2.03
  -7   9  -1   53.79    2.02
   7   9   1   56.37    1.49
  -7   9  -1   55.57    1.54
   7   9   1   54.21    2.25
  -7   9  -1   53.70    2.30
   7   9   1   56.74    1.56
  -7   9  -1   52.32    1.52
  -7   9  -1   58.24    1.49
   7   9   1   53.95    1.79
   7   9   1   54.59    2.55
   7   9   1   54.22    1.47
   7   9   1   56.18    1.51
   7   9   1   54.75    1.69
   7   9   1   53.80    2.27
  -7   9  -1   50.45    2.02
   9  -9   1   33.44    1.01
  -9  -9  -1   32.64    1.26
   9   9   1   33.86    1.64
  -9   9  -1   34.25    1.12
  -9   9  -1   34.67    1.70
  -9   9  -1   35.91    0.98
   9   9   1   33.78    1.21
   9   9   1   34.45    1.09
   9   9   1   32.63    1.44
  -9   9  -1   33.75    1.41
   9   9   1   33.83    1.64
  -9   9  -1   33.40    1.46
  -9   9  -1   34.68    1.09
   9   9   1   34.96    1.15
   9   9   1   34.22    1.30
  -9   9  -1   34.85    1.06
   9   9   1   34.12    1.86
 -11  -9  -1    2.49    0.37
  11  -9   1    1.04    0.94
  11  -9   1    3.10    0.31
  11   9   1    3.55    0.39
 -11   9  -1    3.18    0.37
 -11   9  -1    3.33    0.33
  11   9   1    3.25    0.42
  11   9   1    2.96    0.51
  11   9   1    3.26    0.38
  11   9   1    3.30    0.61
 -11   9  -1    3.18    0.33
 -11   9  -1    2.94    0.35
 -11   9  -1    2.99    0.51
  11   9   1    3.24    0.43
 -11   9  -1    3.28    0.49
 -11   9  -1    3.24    0.35
  13  -9   1    0.10    0.14
 -13  -9  -1    0.09    0.25
  13  -9   1   -0.17    0.68
 -13   9  -1    0.05    0.15
  13   9   1   -0.07    0.24
 -13   9  -1    0.03    0.15
  13   9   1   -0.13    0.15
  13   9   1    0.05    0.31
  13   9   1    0.04    0.17
 -13   9  -1    0.08    0.21
  13   9   1    0.30    0.17
  13   9   1    0.05    0.20
 -13   9  -1    0.15    0.22
 -13   9  -1   -0.06    0.14
  13   9   1    0.11    0.15
 -13   9  -1   -0.19    0.11
  15   9   1   -0.09    0.30
 -15   9  -1   -0.08    0.20
  15   9   1    0.21    0.14
  15   9   1    0.26    0.15
  15   9   1    0.03    0.21
 -15   9  -1    0.32    0.21
  15   9   1   -0.03    0.12
  16  10  -1    1.96    0.42
  16  10  -1    1.77    0.28
  16  10  -1    1.98    0.29
 -16  10   1    1.92    0.35
  16  10  -1    2.11    0.47
  16  10  -1    1.74    0.24
  14 -10  -1    0.56    0.18
  14 -10  -1    0.27    0.74
  14  10  -1    0.22    0.18
  14  10  -1    0.53    0.18
  14  10  -1    0.29    0.26
  14  10  -1    0.26    0.18
 -14  10   1    0.40    0.16
 -14  10   1    0.30    0.13
 -14  10   1    0.58    0.25
 -14  10   1   -0.01    0.15
  14  10  -1    0.16    0.15
 -12 -10   1   10.51    0.63
 -12  10   1   10.13    0.54
  12  10  -1   11.22    0.65
  12  10  -1   10.78    0.60
  12  10  -1   10.43    0.57
  12  10  -1    9.66    0.79
  12  10  -1   10.56    0.92
 -12  10   1   10.53    0.57
 -12  10   1   11.34    0.77
 -12  10   1   10.96    0.47
  12  10  -1   10.59    0.56
  10 -10  -1   13.30    3.03
 -10 -10   1   20.69    0.92
  10 -10  -1   19.76    0.70
  10  10  -1   22.80    0.86
  10  10  -1   20.15    0.81
 -10  10   1   21.20    0.83
 -10  10   1   21.06    0.68
  10  10  -1   22.80    1.26
  10  10  -1   20.56    0.88
 -10  10   1   21.40    0.79
 -10  10   1   21.86    1.12
  10  10  -1   21.42    0.95
  10  10  -1   21.76    1.39
 -10  10   1   20.21    0.92
   8 -10  -1   36.95    1.03
  -8 -10   1   38.62    1.34
   8 -10  -1   38.24    4.02
  -8 -10   1   36.22    1.29
   8  10  -1   34.28    1.14
  -8  10   1   37.24    1.48
   8  10  -1   36.03    1.27
  -8  10   1   36.60    1.09
  -8  10   1   37.88    0.99
  -8  10   1   34.36    1.32
   8  10  -1   35.56    1.66
  -8  10   1   36.31    1.54
   8  10  -1   35.71    1.26
   8  10  -1   35.32    1.52
  -8  10   1   35.92    1.68
  -8  10   1   37.22    1.17
   8  10  -1   36.45    1.94
   8  10  -1   35.01    1.32
   8  10  -1   38.49    1.19
   8  10  -1   36.20    1.08
  -8  10   1   34.72    1.16
   8  10  -1   37.42    1.73
  -6 -10   1   18.91    0.84
  -6 -10   1   17.50    0.77
   6 -10  -1   22.78    2.83
  -6  10   1   17.53    0.77
  -6  10   1   17.95    1.06
   6  10  -1   17.40    0.95
  -6  10   1   17.74    0.95
  -6  10   1   17.99    0.56
  -6  10   1   16.67    0.87
   6  10  -1   18.16    0.78
  -6  10   1   17.03    1.01
   6  10  -1   18.21    0.72
   6  10  -1   17.54    0.71
  -6  10   1   19.31    0.73
   6  10  -1   17.63    1.03
   6  10  -1   17.31    0.76
   6  10  -1   17.89    0.68
   6  10  -1   19.19    1.23
   6  10  -1   18.01    1.07
   6  10  -1   18.13    0.67
  -6  10   1   17.83    0.71
  -6  10   1   16.54    0.63
   4 -10  -1   25.39    2.86
  -4 -10   1   18.34    0.76
  -4 -10   1   21.84    0.89
   4  10  -1   19.15    1.00
   4  10  -1   19.43    1.09
   4  10  -1   19.72    0.74
  -4  10   1   21.05    1.38
   4  10  -1   19.09    0.80
  -4  10   1   19.53    0.93
   4  10  -1   20.69    0.70
   4  10  -1   20.47    0.76
   4  10  -1   21.86    0.74
  -4  10   1   19.53    1.09
  -4  10   1   19.19    1.05
  -4  10   1   18.33    0.96
   4  10  -1   19.50    0.79
   4  10  -1   20.77    1.14
  -4  10   1   19.97    1.13
   4  10  -1   21.13    1.30
  -4  10   1   19.09    0.81
   4  10  -1   19.81    1.14
  -4  10   1   20.71    0.75
  -4  10   1   18.69    0.72
   4  10  -1   19.82    0.97
  -4  10   1   19.56    0.59
  -2 -10   1    1.02    0.23
   2 -10  -1    1.07    0.22
   2  10  -1    1.11    0.17
  -2  10   1    0.90    0.26
   2  10  -1    0.95    0.18
   2  10  -1    0.97    0.29
  -2  10   1    1.04    0.19
  -2  10   1    1.00    0.18
   2  10  -1    1.07    0.30
  -2  10   1    1.07    0.31
  -2  10   1    1.16    0.24
   2  10  -1    1.03    0.31
   2  10  -1    1.15    0.19
  -2  10   1    1.17    0.20
   2  10  -1    0.96    0.22
  -2  10   1    0.88    0.26
  -2  10   1    0.97    0.36
   2  10  -1    0.95    0.28
  -2  10   1    1.14    0.20
  -2  10   1    0.87    0.13
   2  10  -1    1.23    0.38
  -2  10   1    1.07    0.30
  -2  10   1    0.89    0.17
   2  10  -1    0.93    0.19
   0 -10   1    2.79    0.34
   0 -10  -1    3.12    0.37
   0  10   1    3.02    0.59
   0  10   1    3.35    0.50
   0  10   1    2.60    0.34
   0  10   1    2.98    0.47
   0  10  -1    3.13    0.50
   0  10   1    3.07    0.31
   0  10   1    2.61    0.32
   0  10   1    2.74    0.28
   0  10   1    2.61    0.40
   0  10   1    2.73    0.41
   0  10  -1    2.85    0.26
   0  10  -1    2.48    0.27
   0  10   1    2.60    0.22
   0  10   1    2.84    0.47
   0  10  -1    3.20    0.49
   0  10   1    3.01    0.31
   0  10  -1    3.06    0.31
   0  10  -1    3.03    0.49
   0  10  -1    2.72    0.30
   0  10  -1    2.42    0.34
   0  10  -1    3.01    0.57
   0  10  -1    3.00    0.42
   2 -10   1    4.57    0.40
  -2 -10  -1    5.37    0.49
  -2  10  -1    5.53    0.58
   2  10   1    5.73    0.66
   2  10   1    5.34    0.35
   2  10   1    5.00    0.41
   2  10   1    5.36    0.64
   2  10   1    5.25    0.41
  -2  10  -1    5.46    0.81
   2  10   1    5.82    0.68
  -2  10  -1    5.92    0.66
   2  10   1    6.24    0.84
   2  10   1    5.09    0.41
   2  10   1    4.62    0.37
  -2  10  -1    5.48    0.66
  -2  10  -1    5.07    0.32
  -2  10  -1    4.66    0.39
  -2  10  -1    5.41    0.43
  -2  10  -1    5.27    0.30
  -2  10  -1    5.21    0.42
   2  10   1    5.19    0.29
  -2  10  -1    6.05    0.72
  -2  10  -1    4.98    0.42
   2  10   1    4.98    0.55
   2  10   1    5.57    0.49
   4 -10   1    0.07    0.09
  -4 -10  -1   -0.05    0.12
   4  10   1    0.09    0.11
  -4  10  -1    0.02    0.17
   4  10   1   -0.01    0.17
  -4  10  -1   -0.10    0.14
   4  10   1    0.05    0.10
   4  10   1    0.08    0.11
   4  10   1    0.08    0.11
  -4  10  -1    0.24    0.31
  -4  10  -1    0.20    0.16
  -4  10  -1    0.02    0.16
   4  10   1   -0.01    0.10
   4  10   1   -0.18    0.17
  -4  10  -1    0.08    0.07
  -4  10  -1    0.04    0.10
   4  10   1    0.12    0.09
  -4  10  -1    0.01    0.11
  -4  10  -1    0.15    0.10
  -4  10  -1   -0.12    0.10
  -4  10  -1   -0.03    0.16
   4  10   1    0.06    0.17
   4  10   1    0.12    0.17
  -4  10  -1    0.07    0.10
   4  10   1    0.00    0.15
  -4  10  -1    0.07    0.09
   4  10   1    0.07    0.14
   4  10   1    0.25    0.19
   6 -10   1   91.74    2.05
  -6 -10  -1   92.06    2.57
  -6  10  -1   81.74    3.38
   6  10   1   84.44    2.38
   6  10   1   86.02    2.96
   6  10   1   83.81    2.49
   6  10   1   85.89    2.60
   6  10   1   86.88    3.32
   6  10   1   89.33    2.48
   6  10   1   85.64    2.99
   6  10   1   91.08    2.24
  -6  10  -1   85.44    2.97
   6  10   1   94.04    2.22
  -6  10  -1   85.16    2.26
  -6  10  -1   86.99    3.37
   6  10   1   91.29    3.31
   6  10   1   94.53    2.30
  -6  10  -1   90.38    2.16
  -6  10  -1   83.68    2.92
   6  10   1   87.85    3.74
  -6  10  -1   84.55    3.08
   6  10   1   91.39    2.21
  -6  10  -1   89.23    2.25
  -6  10  -1   92.35    3.32
  -6  10  -1   94.55    2.19
  -8 -10  -1   85.53    2.54
  -8 -10  -1   79.62    3.21
   8 -10   1   90.29    2.06
  -8  10  -1   87.88    3.06
  -8  10  -1   85.82    2.96
  -8  10  -1   87.26    3.41
   8  10   1   83.73    2.19
   8  10   1   84.64    2.20
  -8  10  -1   92.69    2.20
   8  10   1   90.06    2.29
  -8  10  -1   87.42    3.38
   8  10   1   86.37    2.45
   8  10   1   87.12    3.09
   8  10   1   83.40    3.29
  -8  10  -1   90.20    2.18
   8  10   1   88.35    3.74
  -8  10  -1   88.17    2.26
   8  10   1   88.06    2.61
   8  10   1   88.05    3.27
   8  10   1   84.64    2.17
  10 -10   1    1.22    0.21
  10 -10   1    0.16    0.71
 -10 -10  -1    1.23    0.30
 -10  10  -1    0.98    0.32
  10  10   1    1.27    0.22
  10  10   1    1.04    0.32
 -10  10  -1    1.15    0.24
  10  10   1    1.73    0.44
  10  10   1    1.22    0.24
 -10  10  -1    1.41    0.27
 -10  10  -1    1.47    0.22
 -10  10  -1    1.37    0.33
  10  10   1    1.25    0.27
 -10  10  -1    1.41    0.25
  10  10   1    1.06    0.27
  10  10   1    1.11    0.25
  12 -10   1    1.74    1.07
  12 -10   1    2.38    0.31
 -12 -10  -1    2.20    0.44
 -12  10  -1    2.52    0.41
  12  10   1    2.28    0.34
  12  10   1    1.83    0.37
  12  10   1    2.13    0.31
  12  10   1    1.86    0.44
  12  10   1    1.73    0.28
 -12  10  -1    1.49    0.35
 -12  10  -1    1.83    0.27
 -12  10  -1    1.88    0.25
  12  10   1    2.22    0.34
 -12  10  -1    2.20    0.31
 -14 -10  -1   -0.20    0.21
  14  10   1   -0.02    0.14
  14  10   1    0.09    0.14
  14  10   1    0.14    0.19
  14  10   1    0.09    0.32
  14  10   1    0.16    0.16
 -14  10  -1    0.05    0.19
 -14  10  -1    0.06    0.19
 -16 -10  -1    0.20    0.15
  15 -11  -1    0.09    0.56
  15  11  -1    1.33    0.38
  15  11  -1    1.66    0.24
  15  11  -1    1.03    0.22
  15  11  -1    1.21    0.23
 -15  11   1    1.59    0.32
  13 -11  -1   -0.04    0.13
  13 -11  -1   -0.09    0.58
  13  11  -1   -0.08    0.15
  13  11  -1    0.04    0.17
 -13  11   1   -0.12    0.13
 -13  11   1    0.18    0.21
  13  11  -1    0.08    0.14
  13  11  -1    0.12    0.21
  13  11  -1   -0.10    0.15
 -13  11   1    0.00    0.09
 -13  11   1    0.02    0.13
  13  11  -1    0.10    0.15
 -11 -11   1   14.22    0.74
 -11  11   1   14.16    0.55
 -11  11   1   14.49    0.65
 -11  11   1   15.07    0.89
 -11  11   1   14.19    0.67
  11  11  -1   14.50    0.74
  11  11  -1   14.24    0.66
  11  11  -1   14.40    0.97
  11  11  -1   14.12    0.71
  11  11  -1   13.96    1.08
  11  11  -1   14.76    0.67
   9 -11  -1    6.41    1.91
   9 -11  -1    9.92    0.47
  -9 -11   1   11.80    0.67
   9  11  -1    9.89    0.58
  -9  11   1   10.73    0.56
   9  11  -1   10.22    0.90
  -9  11   1   10.04    0.60
   9  11  -1   10.68    0.56
   9  11  -1    9.58    0.60
  -9  11   1   10.22    0.43
   9  11  -1   11.33    0.85
  -9  11   1   10.54    0.52
   9  11  -1   10.49    0.56
   9  11  -1   10.64    0.79
  -9  11   1   11.24    0.76
   7 -11  -1   31.17    3.75
   7 -11  -1   35.17    1.02
  -7 -11   1   35.94    1.31
   7  11  -1   35.81    1.16
   7  11  -1   35.88    1.52
  -7  11   1   35.53    0.97
  -7  11   1   34.41    1.67
   7  11  -1   32.93    1.05
   7  11  -1   35.52    1.90
   7  11  -1   34.82    1.23
   7  11  -1   34.42    1.13
  -7  11   1   33.62    1.59
   7  11  -1   33.30    1.63
   7  11  -1   35.65    1.68
  -7  11   1   33.53    1.49
  -7  11   1   35.80    1.45
  -7  11   1   35.06    1.14
  -5 -11   1   -0.04    0.16
  -5 -11   1    0.09    0.15
   5 -11  -1    0.05    0.82
  -5  11   1    0.18    0.18
  -5  11   1    0.00    0.09
   5  11  -1   -0.09    0.11
  -5  11   1    0.09    0.21
  -5  11   1   -0.10    0.05
   5  11  -1   -0.03    0.09
   5  11  -1    0.04    0.18
   5  11  -1    0.03    0.15
   5  11  -1    0.11    0.21
   5  11  -1   -0.01    0.11
  -5  11   1   -0.14    0.24
   5  11  -1    0.05    0.17
   5  11  -1   -0.11    0.12
  -5  11   1   -0.04    0.22
  -5  11   1    0.26    0.16
   5  11  -1    0.07    0.11
   5  11  -1    0.09    0.23
  -5  11   1    0.09    0.11
  -5  11   1    0.01    0.09
   5  11  -1   -0.22    0.14
   3 -11  -1    0.00    0.75
  -3 -11   1    0.24    0.16
   3 -11  -1   -0.08    0.14
   3  11  -1    0.01    0.16
   3  11  -1   -0.08    0.09
  -3  11   1    0.23    0.22
  -3  11   1    0.08    0.15
   3  11  -1    0.05    0.24
   3  11  -1    0.19    0.20
  -3  11   1    0.17    0.11
   3  11  -1    0.13    0.10
   3  11  -1    0.20    0.20
  -3  11   1    0.08    0.15
  -3  11   1   -0.02    0.10
  -3  11   1    0.13    0.07
   3  11  -1    0.11    0.11
   3  11  -1    0.18    0.12
  -3  11   1    0.12    0.11
  -3  11   1   -0.15    0.18
   3  11  -1    0.01    0.15
  -3  11   1   -0.02    0.16
   3  11  -1    0.09    0.24
  -3  11   1   -0.06    0.24
   1 -11  -1    0.34    0.17
  -1 -11   1    0.13    0.16
  -1  11   1    0.09    0.21
   1  11  -1    0.26    0.19
   1  11  -1    0.14    0.12
   1  11  -1    0.21    0.12
   1  11  -1    0.15    0.18
  -1  11   1    0.37    0.15
  -1  11   1    0.16    0.10
   1  11  -1    0.40    0.28
  -1  11   1    0.20    0.15
   1  11  -1    0.19    0.10
   1  11  -1    0.17    0.15
  -1  11   1    0.10    0.10
  -1  11   1    0.32    0.20
  -1  11   1    0.19    0.09
  -1  11   1    0.08    0.14
  -1  11   1    0.39    0.17
  -1  11   1    0.12    0.26
   1  11  -1    0.24    0.21
  -1  11   1    0.10    0.12
  -1  11   1    0.23    0.19
   1  11  -1    0.21    0.12
  -1  11   1    0.02    0.17
   1  11  -1    0.06    0.22
   1 -11   1    0.88    0.22
  -1 -11  -1    0.80    0.24
  -1  11  -1    0.74    0.22
  -1  11  -1    1.01    0.33
   1  11   1    0.74    0.22
   1  11   1    1.02    0.24
   1  11   1    1.10    0.39
  -1  11  -1    0.82    0.19
  -1  11  -1    0.99    0.32
   1  11   1    0.95    0.22
  -1  11  -1    0.78    0.18
  -1  11  -1    1.15    0.32
  -1  11  -1    0.64    0.18
   1  11   1    0.89    0.20
   1  11   1    0.77    0.27
  -1  11  -1    0.85    0.16
   1  11   1    0.77    0.15
  -1  11  -1    0.84    0.35
  -1  11  -1    0.81    0.25
   1  11   1    0.83    0.30
   1  11   1    0.55    0.16
   1  11   1    0.98    0.19
   1  11   1    0.82    0.29
   1  11   1    0.92    0.29
   3 -11   1    0.11    0.08
  -3 -11  -1    0.06    0.13
   3  11   1    0.03    0.19
   3  11   1    0.07    0.12
   3  11   1   -0.09    0.17
   3  11   1    0.08    0.21
   3  11   1   -0.10    0.11
   3  11   1    0.10    0.16
   3  11   1   -0.01    0.09
  -3  11  -1   -0.10    0.09
   3  11   1    0.10    0.11
  -3  11  -1   -0.14    0.16
  -3  11  -1    0.03    0.11
  -3  11  -1    0.11    0.21
  -3  11  -1   -0.10    0.13
  -3  11  -1    0.07    0.20
   3  11   1    0.10    0.12
   3  11   1   -0.02    0.13
  -3  11  -1    0.22    0.28
  -3  11  -1   -0.04    0.07
  -3  11  -1    0.02    0.10
  -3  11  -1    0.07    0.11
  -3  11  -1   -0.01    0.18
   3  11   1    0.13    0.15
   3  11   1    0.08    0.17
  -3  11  -1    0.22    0.20
  -5 -11  -1   20.54    0.95
   5 -11   1   19.55    0.72
  -5  11  -1   21.25    0.73
  -5  11  -1   19.34    1.04
   5  11   1   20.44    0.87
   5  11   1   20.75    1.34
   5  11   1   22.03    0.85
   5  11   1   20.05    0.79
   5  11   1   19.82    1.16
  -5  11  -1   19.90    1.20
  -5  11  -1   19.52    0.74
  -5  11  -1   19.68    1.14
   5  11   1   19.23    1.03
   5  11   1   18.73    0.96
  -5  11  -1   19.27    1.17
   5  11   1   21.39    0.74
  -5  11  -1   20.08    1.41
   5  11   1   20.21    1.20
  -5  11  -1   19.43    0.98
   5  11   1   20.96    0.80
  -5  11  -1   20.01    0.79
  -5  11  -1   20.69    0.82
   5  11   1   18.98    0.89
  -7 -11  -1    2.21    0.38
   7 -11   1    2.12    0.27
   7  11   1    2.87    0.58
   7  11   1    2.26    0.37
   7  11   1    1.76    0.25
   7  11   1    1.65    0.26
  -7  11  -1    2.15    0.26
   7  11   1    2.31    0.36
  -7  11  -1    2.37    0.47
  -7  11  -1    1.89    0.27
   7  11   1    1.69    0.28
   7  11   1    2.16    0.33
   7  11   1    2.26    0.47
  -7  11  -1    2.40    0.48
   7  11   1    1.78    0.35
  -7  11  -1    2.31    0.45
  -7  11  -1    1.46    0.44
  -7  11  -1    2.17    0.31
  -7  11  -1    2.12    0.34
   7  11   1    2.54    0.48
  -7  11  -1    2.33    0.42
   9 -11   1    6.09    0.44
  -9 -11  -1    5.57    0.58
   9  11   1    6.85    0.89
  -9  11  -1    5.74    0.47
   9  11   1    4.92    0.46
  -9  11  -1    6.00    0.50
   9  11   1    3.46    0.36
  -9  11  -1    5.59    0.70
   9  11   1    5.59    0.48
   9  11   1    5.77    0.71
  -9  11  -1    5.74    0.45
  -9  11  -1    5.54    0.36
   9  11   1    5.57    0.51
  -9  11  -1    5.98    0.65
   9  11   1    6.35    0.59
  11 -11   1    0.55    0.18
 -11 -11  -1    0.14    0.20
  11 -11   1    0.37    0.18
  11 -11   1    0.11    0.70
  11  11   1    0.78    0.22
 -11  11  -1    0.28    0.15
 -11  11  -1    0.77    0.21
  11  11   1    0.58    0.21
 -11  11  -1    0.70    0.28
  11  11   1    0.41    0.18
  11  11   1    1.01    0.37
  11  11   1    0.56    0.22
 -11  11  -1    0.30    0.22
  11  11   1    0.53    0.26
 -11  11  -1    0.60    0.18
  13 -11   1    0.11    0.56
 -13 -11  -1    0.97    0.31
 -13  11  -1    0.76    0.23
  13  11   1    0.48    0.24
  13  11   1    1.26    0.22
  13  11   1    0.90    0.21
 -13  11  -1    0.68    0.24
  13  11   1    0.84    0.20
 -15 -11  -1    0.13    0.15
  15  11   1   -0.02    0.12
  14  12  -1    8.35    0.48
  14  12  -1    6.75    0.43
 -14  12   1    8.67    0.56
  14  12  -1    7.34    0.42
  14  12  -1    5.11    0.56
  12 -12  -1   -0.17    0.48
 -12  12   1    0.00    0.23
  12  12  -1    0.67    0.21
  12  12  -1    0.52    0.23
  12  12  -1    0.52    0.19
  12  12  -1    0.72    0.30
 -12  12   1    0.90    0.27
  10 -12  -1    0.12    1.57
 -10 -12   1    1.33    0.29
  10 -12  -1    0.61    0.77
  10  12  -1    1.12    0.23
 -10  12   1    0.48    0.32
 -10  12   1    0.92    0.23
  10  12  -1    1.87    0.29
  10  12  -1    1.15    0.40
 -10  12   1    1.49    0.33
  10  12  -1    1.30    0.24
  10  12  -1    1.54    0.38
 -10  12   1    1.29    0.18
   8 -12  -1    5.52    1.85
   8 -12  -1    5.65    0.43
  -8 -12   1    6.59    0.60
   8  12  -1    7.17    0.78
   8  12  -1    5.76    0.48
  -8  12   1    4.86    0.61
  -8  12   1    6.53    0.47
   8  12  -1    7.08    0.72
   8  12  -1    6.91    0.73
  -8  12   1    6.58    0.68
   8  12  -1    5.56    0.48
   8  12  -1    6.14    0.58
  -8  12   1    6.73    0.44
  -8  12   1    6.64    0.34
   8  12  -1    6.86    0.46
  -6 -12   1    1.86    0.33
   6 -12  -1    1.90    1.26
  -6  12   1    2.17    0.42
  -6  12   1    1.02    0.40
  -6  12   1    2.25    0.40
  -6  12   1    2.36    0.32
   6  12  -1    1.78    0.26
   6  12  -1    2.56    0.47
  -6  12   1    2.10    0.43
  -6  12   1    2.31    0.35
  -6  12   1    2.08    0.22
   6  12  -1    3.01    0.38
   6  12  -1    2.70    0.55
   6  12  -1    2.21    0.42
   6  12  -1    2.01    0.30
   6  12  -1    2.27    0.45
  -4 -12   1    0.15    0.18
   4 -12  -1   -0.04    0.69
   4  12  -1    0.32    0.15
   4  12  -1    0.30    0.21
  -4  12   1    0.07    0.22
   4  12  -1    0.24    0.15
  -4  12   1    0.08    0.16
  -4  12   1    0.24    0.10
   4  12  -1    0.21    0.24
   4  12  -1    0.01    0.11
  -4  12   1    0.29    0.25
  -4  12   1    0.36    0.17
  -4  12   1    0.25    0.23
   4  12  -1    0.36    0.21
   4  12  -1    0.32    0.21
   4  12  -1    0.17    0.17
  -4  12   1    0.32    0.24
   4  12  -1    0.24    0.24
  -4  12   1    0.14    0.14
  -4  12   1    0.25    0.18
   2 -12  -1    0.31    0.20
  -2 -12   1    0.77    0.23
   2  12  -1    0.61    0.33
  -2  12   1    0.28    0.17
  -2  12   1    0.30    0.25
  -2  12   1    0.54    0.13
  -2  12   1    0.56    0.20
  -2  12   1    0.66    0.28
  -2  12   1    0.34    0.18
  -2  12   1    0.55    0.32
   2  12  -1    0.32    0.21
  -2  12   1    0.43    0.23
   2  12  -1    0.54    0.17
   2  12  -1    0.57    0.15
  -2  12   1    0.74    0.28
   2  12  -1    0.42    0.17
   2  12  -1    0.58    0.24
   2  12  -1    0.67    0.25
   2  12  -1    0.30    0.24
   0 -12  -1    1.69    0.32
   0 -12   1    1.49    0.28
   0  12   1    1.68    0.38
   0  12   1    1.88    0.42
   0  12   1    1.49    0.19
   0  12  -1    1.58    0.37
   0  12   1    1.28    0.23
   0  12   1    1.31    0.28
   0  12   1    1.82    0.42
   0  12   1    1.52    0.29
   0  12   1    1.47    0.33
   0  12  -1    1.37    0.44
   0  12  -1    1.50    0.26
   0  12  -1    1.65    0.40
   0  12  -1    1.53    0.35
   0  12  -1    1.71    0.23
   0  12   1    1.57    0.45
   0  12  -1    1.68    0.28
  -2 -12  -1    0.27    1.63
  -2 -12  -1    0.00    0.15
   2 -12   1    0.07    0.10
  -2  12  -1   -0.32    0.10
  -2  12  -1    0.11    0.21
   2  12   1    0.05    0.17
   2  12   1    0.19    0.24
  -2  12  -1   -0.18    0.14
   2  12   1   -0.28    0.12
  -2  12  -1    0.10    0.21
   2  12   1    0.14    0.12
   2  12   1   -0.10    0.16
   2  12   1    0.10    0.14
  -2  12  -1    0.00    0.09
  -2  12  -1    0.08    0.18
  -2  12  -1    0.13    0.13
  -2  12  -1    0.25    0.28
   2  12   1    0.06    0.23
   2  12   1   -0.16    0.08
  -4 -12  -1    0.14    0.18
   4 -12   1   -0.11    0.10
   4  12   1   -0.10    0.15
   4  12   1    0.07    0.10
   4  12   1    0.10    0.17
  -4  12  -1    0.06    0.15
   4  12   1    0.20    0.23
  -4  12  -1    0.05    0.17
  -4  12  -1    0.10    0.19
   4  12   1    0.12    0.14
  -4  12  -1   -0.07    0.09
  -4  12  -1   -0.18    0.12
  -4  12  -1   -0.18    0.26
   4  12   1   -0.06    0.12
  -4  12  -1    0.21    0.13
  -4  12  -1    0.16    0.23
  -4  12  -1    0.23    0.21
   4  12   1    0.02    0.15
  -4  12  -1   -0.07    0.12
   4  12   1    0.09    0.20
  -6 -12  -1    0.42    0.24
   6 -12   1    0.69    0.18
  -6  12  -1    0.63    0.18
   6  12   1    0.43    0.21
   6  12   1    0.65    0.23
   6  12   1    0.50    0.20
   6  12   1    0.52    0.27
   6  12   1    0.79    0.22
  -6  12  -1    0.87    0.33
   6  12   1    0.55    0.18
  -6  12  -1    0.72    0.19
  -6  12  -1    0.75    0.22
  -6  12  -1    0.54    0.26
  -6  12  -1    0.56    0.37
  -6  12  -1    0.74    0.28
  -6  12  -1    0.97    0.31
   6  12   1    0.62    0.28
   6  12   1    0.53    0.16
  -6  12  -1    0.66    0.16
   6  12   1    0.60    0.23
   6  12   1    0.90    0.34
   8 -12   1   12.75    2.22
   8 -12   1   12.40    0.55
  -8 -12  -1   13.59    0.75
  -8 -12  -1   11.69    0.85
  -8  12  -1   12.10    0.55
  -8  12  -1   11.56    0.84
   8  12   1   12.32    0.64
   8  12   1   12.28    0.64
   8  12   1   12.27    0.97
  -8  12  -1   12.41    0.78
  -8  12  -1   11.66    0.60
  -8  12  -1   12.23    0.58
   8  12   1   12.79    0.70
   8  12   1   12.19    0.74
  -8  12  -1   14.14    0.96
   8  12   1   12.68    0.89
   8  12   1   12.50    0.90
  -8  12  -1   12.78    0.71
  10 -12   1    5.80    1.64
 -10  12  -1    7.17    0.58
  10  12   1    7.67    0.53
 -10  12  -1    6.44    0.51
  10  12   1    8.09    0.53
 -10  12  -1    7.11    0.42
 -10  12  -1    7.03    0.41
  10  12   1    7.17    0.70
  10  12   1    7.24    0.46
 -10  12  -1    7.73    0.68
  10  12   1    6.49    0.61
 -10  12  -1    8.24    0.48
 -12 -12  -1    0.21    0.26
  12 -12   1    0.21    0.55
  12  12   1    0.15    0.15
 -12  12  -1   -0.04    0.18
  12  12   1    0.12    0.17
  12  12   1    0.43    0.15
 -12  12  -1    0.03    0.19
  12  12   1    0.04    0.13
  12  12   1    0.19    0.20
  13  13  -1    4.51    0.32
  13  13  -1    4.88    0.38
  13  13  -1    5.11    0.64
 -13  13   1    4.79    0.42
  11  13  -1    6.29    0.41
  11  13  -1    5.54    0.61
  11  13  -1    5.80    0.62
 -11  13   1    6.68    0.52
   9 -13  -1    0.13    0.14
   9 -13  -1    1.41    1.69
   9 -13  -1    0.07    0.68
  -9 -13   1    0.32    0.20
  -9  13   1   -0.09    0.23
   9  13  -1    0.32    0.25
  -9  13   1    0.38    0.12
   9  13  -1    0.11    0.16
   9  13  -1    0.24    0.23
   9  13  -1    0.21    0.24
  -9  13   1    0.59    0.18
   9  13  -1    0.21    0.19
  -9  13   1    0.20    0.20
   7 -13  -1    0.89    0.21
   7 -13  -1    0.20    0.76
  -7 -13   1    0.75    0.24
   7  13  -1    0.56    0.27
  -7  13   1    0.81    0.15
   7  13  -1    0.93    0.21
  -7  13   1    0.90    0.20
   7  13  -1    0.60    0.33
   7  13  -1    0.88    0.29
  -7  13   1    0.52    0.31
  -7  13   1    0.60    0.26
  -7  13   1    0.73    0.21
   7  13  -1    0.53    0.18
   7  13  -1    0.99    0.30
  -7  13   1    0.84    0.30
  -5 -13   1    4.52    0.51
   5 -13  -1    3.48    1.54
  -5  13   1    4.34    0.55
  -5  13   1    3.94    0.53
  -5  13   1    2.27    0.53
  -5  13   1    4.25    0.43
   5  13  -1    4.08    0.41
   5  13  -1    4.51    0.61
  -5  13   1    4.36    0.40
   5  13  -1    4.06    0.59
   5  13  -1    4.43    0.44
  -5  13   1    4.26    0.28
  -5  13   1    3.81    0.55
   5  13  -1    4.09    0.37
   5  13  -1    4.86    0.74
   5  13  -1    4.25    0.54
  -3 -13   1    3.96    0.47
  -3  13   1    3.48    0.38
   3  13  -1    4.32    0.43
   3  13  -1    4.67    0.71
  -3  13   1    2.90    0.58
  -3  13   1    4.04    0.53
   3  13  -1    4.85    0.59
   3  13  -1    4.38    0.41
  -3  13   1    4.48    0.60
   3  13  -1    4.75    0.65
  -3  13   1    5.15    0.46
  -3  13   1    4.20    0.58
   3  13  -1    4.72    0.64
  -3  13   1    4.74    0.29
   3  13  -1    4.41    0.38
  -3  13   1    3.58    0.52
  -3  13   1    4.37    0.41
  -1 -13   1    3.52    0.42
   1 -13  -1    3.73    0.46
  -1 -13   1    3.84    0.35
  -1  13   1    3.77    0.56
   1  13  -1    3.38    0.54
  -1  13   1    3.67    0.31
   1  13  -1    3.69    0.40
   1  13  -1    4.08    0.69
  -1  13   1    3.53    0.64
  -1  13   1    3.98    0.41
  -1  13   1    3.61    0.41
  -1  13   1    3.77    0.44
  -1  13   1    3.81    0.52
  -1  13   1    3.09    0.49
   1  13  -1    3.28    0.37
  -1  13   1    4.37    0.62
   1  13  -1    4.53    0.63
   1  13  -1    3.92    0.55
   1  13  -1    4.05    0.35
   1 -13   1    4.17    0.38
  -1 -13  -1    3.78    0.47
   1  13   1    4.19    0.60
  -1  13  -1    3.52    0.39
   1  13   1    3.97    0.46
   1  13   1    4.31    0.63
  -1  13  -1    4.44    0.62
   1  13   1    3.92    0.52
  -1  13  -1    3.90    0.58
  -1  13  -1    3.91    0.69
   1  13   1    3.88    0.34
  -1  13  -1    4.08    0.55
   1  13   1    3.48    0.61
   1  13   1    3.99    0.43
  -1  13  -1    3.90    0.34
   1  13   1    3.32    0.37
  -1  13  -1    4.07    0.41
  -3 -13  -1    2.10    0.37
   3 -13   1    2.16    0.28
  -3  13  -1    2.12    0.41
   3  13   1    1.91    0.25
   3  13   1    2.46    0.48
   3  13   1    1.84    0.46
   3  13   1    2.09    0.34
  -3  13  -1    2.11    0.25
   3  13   1    2.24    0.45
  -3  13  -1    1.91    0.41
  -3  13  -1    2.07    0.45
  -3  13  -1    2.22    0.34
  -3  13  -1    2.00    0.29
   3  13   1    1.97    0.38
  -3  13  -1    1.85    0.52
  -3  13  -1    2.31    0.31
   3  13   1    1.52    0.26
   3  13   1    2.19    0.33
  -3  13  -1    2.01    0.45
   5 -13   1    2.90    0.32
  -5 -13  -1    3.11    0.44
   5 -13   1    1.94    1.10
   5  13   1    2.67    0.39
  -5  13  -1    3.18    0.50
  -5  13  -1    2.93    0.53
   5  13   1    2.95    0.57
   5  13   1    2.66    0.44
  -5  13  -1    3.34    0.55
   5  13   1    3.37    0.55
  -5  13  -1    2.93    0.36
  -5  13  -1    2.80    0.43
   5  13   1    2.80    0.35
   5  13   1    2.63    0.46
  -5  13  -1    2.81    0.29
  -5  13  -1    3.18    0.40
  -5  13  -1    1.24    0.44
   5  13   1    2.87    0.31
  -7 -13  -1    8.28    0.71
   7 -13   1    8.51    0.46
  -7 -13  -1    9.99    0.62
   7 -13   1   10.09    2.18
  -7  13  -1    9.33    0.67
   7  13   1    9.36    0.60
   7  13   1    7.46    0.66
  -7  13  -1    8.02    0.44
   7  13   1    9.21    0.53
  -7  13  -1    8.28    0.73
  -7  13  -1   10.00    0.60
  -7  13  -1    9.01    0.50
   7  13   1    6.86    0.70
  -7  13  -1    9.01    0.74
   7  13   1    8.84    0.56
   7  13   1    9.24    0.73
   9 -13   1    1.28    0.93
   9  13   1    1.30    0.36
  -9  13  -1    2.01    0.27
   9  13   1    1.33    0.27
   9  13   1    1.56    0.34
   9  13   1    1.53    0.24
  -9  13  -1    0.87    0.28
  -9  13  -1    1.04    0.27
   9  13   1    1.69    0.28
  11 -13   1    0.09    0.52
 -11 -13  -1   -0.19    0.22
  11  13   1    0.03    0.13
  11  13   1    0.03    0.12
 -11  13  -1    0.20    0.20
 -11  13  -1    0.17    0.19
  11  13   1    0.23    0.16
  11  13   1    0.07    0.18
  11  13   1    0.08    0.15
  12 -14  -1    0.11    0.52
  12  14  -1    0.77    0.15
  12  14  -1    0.67    0.24
 -12  14   1    1.45    0.26
 -12  14   1   -0.06    0.18
  10 -14  -1    0.70    1.41
  10  14  -1    1.80    0.34
 -10  14   1    2.77    0.36
  10  14  -1    2.97    0.30
  10  14  -1    2.38    0.43
   8 -14  -1    0.10    1.33
   8 -14  -1   -0.31    0.57
   8  14  -1    0.21    0.17
   8  14  -1   -0.08    0.19
   8  14  -1    0.40    0.25
   8  14  -1    0.69    0.28
  -8  14   1    0.32    0.30
  -8  14   1    0.31    0.17
  -8  14   1    0.48    0.22
   6 -14  -1    6.18    0.45
   6 -14  -1    3.14    1.36
  -6 -14   1    6.53    0.59
  -6  14   1    4.59    0.55
  -6  14   1    5.88    0.47
   6  14  -1    6.41    0.56
  -6  14   1    6.51    0.46
   6  14  -1    6.36    0.43
  -6  14   1    6.57    0.34
   6  14  -1    5.62    0.63
   6  14  -1    5.18    0.72
   6  14  -1    6.76    0.58
  -6  14   1    6.63    0.56
   4 -14  -1    0.59    0.17
   4 -14  -1   -0.17    0.90
  -4 -14   1    0.56    0.17
  -4 -14   1    0.91    0.25
  -4  14   1    0.72    0.15
   4  14  -1    0.85    0.35
  -4  14   1    0.58    0.27
   4  14  -1    0.74    0.29
  -4  14   1    0.95    0.30
  -4  14   1    0.92    0.22
   4  14  -1    0.63    0.26
  -4  14   1    0.25    0.28
   4  14  -1    0.52    0.19
  -4  14   1    0.66    0.29
  -4  14   1    0.63    0.20
  -4  14   1    0.49    0.25
  -2 -14   1    0.53    0.22
  -2 -14   1    0.30    0.15
   2 -14  -1    0.56    1.31
   2  14  -1    0.47    0.18
  -2  14   1    0.18    0.22
   2  14  -1    0.46    0.23
   2  14  -1    0.66    0.22
   2  14  -1    0.34    0.22
  -2  14   1    0.10    0.19
  -2  14   1    0.56    0.25
  -2  14   1    0.42    0.20
  -2  14   1    0.82    0.30
  -2  14   1    0.16    0.16
   2  14  -1    0.23    0.14
  -2  14   1    0.30    0.26
  -2  14   1    0.44    0.13
   2  14  -1    0.59    0.29
   2  14  -1    0.55    0.24
  -2  14   1    0.23    0.16
   0 -14  -1    0.11    0.19
   0 -14  -1    0.29    1.13
   0 -14   1    0.11    0.13
   0  14  -1    0.07    0.23
   0  14  -1    0.29    0.22
   0  14   1    0.33    0.20
   0  14   1    0.10    0.22
   0  14   1    0.14    0.15
   0  14   1    0.23    0.21
   0  14   1    0.31    0.17
   0  14   1    0.33    0.16
   0  14  -1   -0.10    0.16
   0  14   1    0.23    0.12
   0  14  -1    0.38    0.22
   0  14   1    0.29    0.24
   0  14  -1    0.13    0.15
   0  14  -1    0.21    0.21
   0  14  -1    0.20    0.13
   0  14  -1    0.15    0.17
   2 -14   1    2.19    1.15
  -2 -14  -1    2.21    0.36
  -2 -14  -1    0.31    1.24
   2 -14   1    2.18    0.28
  -2  14  -1    1.87    0.25
   2  14   1    1.81    0.24
  -2  14  -1    1.62    0.27
  -2  14  -1    2.16    0.33
   2  14   1    1.59    0.37
  -2  14  -1    2.00    0.40
   2  14   1    1.86    0.28
   2  14   1    1.92    0.27
  -2  14  -1    1.06    0.37
   2  14   1    2.28    0.34
   2  14   1    1.48    0.40
   2  14   1    2.25    0.44
   2  14   1    2.25    0.39
  -2  14  -1    2.02    0.42
  -2  14  -1    1.57    0.34
   4 -14   1    0.77    0.90
  -4 -14  -1    1.31    0.28
   4 -14   1    0.42    0.17
  -4  14  -1    0.78    0.28
   4  14   1    0.49    0.17
   4  14   1    0.88    0.30
  -4  14  -1    0.53    0.16
   4  14   1    0.87    0.29
  -4  14  -1    0.79    0.30
   4  14   1    0.59    0.19
  -4  14  -1    0.34    0.30
  -4  14  -1    0.79    0.23
   4  14   1    0.87    0.24
  -4  14  -1    0.85    0.21
   4  14   1    0.73    0.29
  -4  14  -1    0.63    0.27
   4  14   1    0.51    0.19
   4  14   1    0.49    0.24
  -6 -14  -1    0.14    0.28
   6 -14   1    0.57    0.79
  -6  14  -1    0.24    0.25
  -6  14  -1    0.34    0.23
   6  14   1    0.44    0.17
   6  14   1    0.46    0.26
   6  14   1    0.50    0.25
   6  14   1    0.43    0.18
  -6  14  -1    0.23    0.23
   6  14   1    0.37    0.20
  -6  14  -1    0.09    0.28
  -6  14  -1    0.39    0.19
  -8 -14  -1    2.66    0.42
   8 -14   1    2.03    0.96
  -8  14  -1    2.19    0.36
   8  14   1    3.42    0.33
  -8  14  -1    2.93    0.31
   8  14   1    2.02    0.37
  -8  14  -1    2.68    0.36
   8  14   1    2.93    0.47
   8  14   1    3.01    0.31
  10 -14   1    1.17    0.70
  10  14   1    2.20    0.38
  10  14   1    3.45    0.42
  10  14   1    2.81    0.26
 -10  14  -1    1.69    0.29
 -10  14  -1    3.88    0.40
   9 -15  -1   -0.55    1.03
   9 -15  -1   -0.09    0.44
  -9  15   1    0.08    0.21
   9  15  -1    0.42    0.16
  -9  15   1    0.44    0.21
   9  15  -1    0.22    0.17
   9  15  -1    0.24    0.19
   7 -15  -1    0.55    1.17
  -7  15   1    1.17    0.32
  -7  15   1    3.17    0.41
   7  15  -1    3.31    0.44
   7  15  -1    2.52    0.44
   7  15  -1    1.96    0.33
   5 -15  -1    0.02    0.90
   5  15  -1    1.65    0.33
  -5  15   1    1.56    0.34
   5  15  -1    1.55    0.34
  -5  15   1    0.91    0.34
  -5  15   1    1.72    0.27
   5  15  -1    1.32    0.39
   3 -15  -1    0.07    1.01
  -3  15   1    0.33    0.24
   3  15  -1    0.71    0.27
   3  15  -1    0.89    0.28
  -3  15   1    0.39    0.24
  -3  15   1    0.46    0.16
   3  15  -1    0.35    0.23
  -3  15   1    0.38    0.22
  -3  15   1    0.14    0.21
   1 -15  -1    0.27    0.99
   1  15  -1   -0.02    0.15
   1  15  -1    0.04    0.18
   1  15  -1   -0.04    0.20
  -1  15   1    0.05    0.21
  -1  15   1    0.07    0.20
  -1  15   1    0.17    0.17
  -1  15   1    0.35    0.22
  -1  15   1    0.11    0.13
  -1  15   1    0.02    0.21
   1  15  -1    0.17    0.16
   1  15  -1   -0.05    0.16
   1  15  -1    0.08    0.14
  -1 -15  -1    0.10    0.94
   1  15   1    0.13    0.22
  -1  15  -1    0.01    0.21
   1  15   1    0.16    0.16
  -1  15  -1    0.14    0.22
   1  15   1   -0.02    0.12
   1  15   1   -0.06    0.19
   1  15   1   -0.19    0.16
  -1  15  -1    0.08    0.19
  -1  15  -1   -0.09    0.14
   1  15   1    0.20    0.19
  -1  15  -1    0.15    0.19
   3 -15   1    0.54    0.72
  -3  15  -1    0.28    0.22
   3  15   1    0.14    0.19
   3  15   1    0.03    0.19
  -3  15  -1   -0.07    0.17
  -3  15  -1    0.12    0.24
   3  15   1    0.18    0.19
   3  15   1   -0.17    0.18
  -3  15  -1   -0.13    0.18
   3  15   1    0.20    0.16
  -3  15  -1    0.04    0.13
   3  15   1   -0.13    0.13
  -5 -15  -1    0.50    0.26
   5 -15   1    0.65    0.71
   5  15   1    0.46    0.24
  -5  15  -1    0.66    0.19
   5  15   1    0.28    0.21
  -5  15  -1    0.29    0.25
  -5  15  -1    0.46    0.23
  -5  15  -1    0.38    0.21
   5  15   1    0.55    0.19
  -5  15  -1    0.51    0.24
   5  15   1    0.34    0.19
   5  15   1    0.27    0.17
   7 -15   1    0.17    0.59
  -7 -15  -1    0.54    0.25
   7  15   1    0.20    0.17
   7  15   1    0.15    0.12
  -7  15  -1    0.25    0.14
   7  15   1    0.25    0.20
  -7  15  -1    0.08    0.17
   7  15   1    0.22    0.14
  -7  15  -1   -0.18    0.19
   6 -16  -1   -0.21    0.77
   6  16  -1    0.27    0.19
   6  16  -1    0.12    0.18
  -6  16   1    0.37    0.20
  -6  16   1    0.25    0.20
   4 -16  -1   -0.19    0.76
   4  16  -1    0.34    0.20
  -4  16   1    0.07    0.13
   4  16  -1    0.11    0.15
  -4  16   1    0.12    0.17
  -4  16   1    0.37    0.21
   4  16  -1    0.36    0.22
   4  16  -1    0.10    0.18
  -2 -16   1   -0.02    0.89
   2 -16  -1    0.23    0.92
  -2  16   1    0.61    0.24
  -2  16   1    0.73    0.23
   2  16  -1    0.54    0.24
   2  16  -1    0.41    0.20
   2  16  -1    0.46    0.16
   2  16  -1    0.54    0.23
  -2  16   1    0.18    0.21
  -2  16   1    0.50    0.18
   0 -16  -1    0.51    1.00
   0  16   1    0.28    0.22
   0  16  -1    0.86    0.25
   0  16  -1    0.06    0.18
   0  16  -1    0.43    0.22
   0  16  -1    0.46    0.17
   0  16   1    0.62    0.18
   0  16   1    0.44    0.22
   0  16   1    0.36    0.22
   0  16   1    0.25    0.21
  -2  16  -1    1.78    0.29
   2  16   1    1.85    0.36
   2  16   1    1.74    0.23
  -2  16  -1    0.73    0.28
   2  16   1    0.72    0.22
  -2  16  -1    0.98    0.25
   2  16   1    2.36    0.29
  -2  16  -1    2.39    0.29
   2  16   1    2.42    0.40
   2  16   1    1.56    0.29
  -2  16  -1    1.51    0.29
  -4 -16  -1    0.39    0.21
   4  16   1    0.22    0.15
  -4  16  -1    0.25    0.17
   4  16   1    0.22    0.18
  -4  16  -1    0.63    0.17
   4  16   1    0.43    0.14
   4  16   1    0.62    0.22
   4  16   1    0.30    0.17
  -4  16  -1    0.28    0.21
  20   0  -2    1.57    0.40
  20   0  -2    1.95    0.28
  20   0  -2    1.14    0.29
 -20   0   2    1.63    0.30
  20   0  -2    1.46    0.22
  20   0  -2    1.54    0.23
  18   0  -2    0.55    0.21
  18   0  -2    0.51    0.33
  18   0  -2    0.51    0.20
 -18   0   2    0.34    0.18
  18   0  -2    0.73    0.20
  18   0  -2    0.75    0.28
  18   0  -2    0.50    0.20
  18   0  -2    0.55    0.16
 -18   0   2    0.79    0.24
 -18   0   2    0.48    0.18
 -16   0   2   67.54    1.81
  16   0  -2   69.32    2.19
 -16   0   2   69.77    1.88
  16   0  -2   69.91    2.62
  16   0  -2   73.03    2.64
  16   0  -2   70.07    1.86
  16   0  -2   74.19    1.80
  16   0  -2   73.44    3.33
  16   0  -2   70.73    3.31
 -16   0   2   73.63    1.91
  16   0  -2   70.26    2.11
  16   0  -2   72.97    2.08
  14   0  -2   75.68    2.69
 -14   0   2   75.57    1.93
 -14   0   2   79.40    1.89
 -14   0   2   78.86    1.95
 -14   0   2   72.85    2.59
  14   0  -2   76.88    2.14
  14   0  -2   75.67    3.43
  14   0  -2   80.22    3.43
 -14   0   2   73.27    2.09
  14   0  -2   73.39    2.72
  14   0  -2   75.43    1.89
  14   0  -2   73.53    2.26
  14   0  -2   74.28    2.18
 -12   0   2    0.23    0.10
 -12   0   2    0.16    0.10
 -12   0   2    0.21    0.10
 -12   0   2    0.23    0.10
  12   0  -2    0.34    0.11
 -12   0   2    0.22    0.13
 -12   0   2    0.28    0.10
 -12   0   2    0.29    0.10
 -10   0   2    2.19    0.24
  10   0  -2    2.19    0.21
 -10   0   2    2.23    0.22
 -10   0   2    2.26    0.20
 -10   0   2    2.19    0.22
 -10   0   2    2.42    0.20
 -10   0   2    2.53    0.23
 -10   0   2    2.57    0.29
   8   0  -2   53.52    1.32
  -8   0   2   59.07    1.35
  -8   0   2   54.33    1.24
  -8   0   2   56.65    1.47
  -8   0   2   57.53    1.36
  -8   0   2   62.00    1.81
  -8   0   2   60.88    1.48
  -8   0   2   58.40    1.34
  -6   0   2  117.91    2.59
  -6   0   2  118.94    2.54
  -6   0   2  121.13    2.80
  -6   0   2  114.07    2.35
  -6   0   2  123.13    2.77
  -6   0   2  119.48    2.49
  -6   0   2  125.66    3.42
  -4   0   2  591.01   13.71
  -4   0   2  656.40   16.98
  -4   0   2  579.10   16.62
  -4   0   2  628.40   13.42
  -4   0   2  592.71   13.60
  -2   0   2    0.68    0.09
  -2   0   2    0.76    0.08
  -2   0   2    0.81    0.10
   0   0   2  952.94   25.79
   0   0   2 1000.00   20.86
   0   0  -2  859.87   25.18
   0   0   2  889.60   20.98
   2   0   2   11.53    0.37
   2   0   2   11.66    0.39
  -2   0  -2   11.50    0.46
   2   0   2   10.96    0.34
   4   0   2    0.08    0.05
   4   0   2    0.04    0.05
   4   0   2    0.09    0.05
  -4   0  -2    0.10    0.06
   4   0   2    0.07    0.07
   4   0   2    0.33    0.08
  -4   0  -2    0.14    0.08
  -4   0  -2    0.12    0.05
   4   0   2    0.08    0.06
   6   0   2    0.15    0.07
   6   0   2    0.15    0.06
   6   0   2    0.15    0.06
  -6   0  -2    0.27    0.08
  -6   0  -2    0.16    0.08
  -6   0  -2    0.16    0.10
   6   0   2    0.22    0.07
  -6   0  -2    0.11    0.07
   6   0   2    0.13    0.09
   8   0   2    2.73    0.24
   8   0   2    2.68    0.26
   8   0   2    2.66    0.23
  -8   0  -2    2.75    0.27
  -8   0  -2    2.73    0.22
  10   0   2    0.66    0.13
  10   0   2    0.61    0.15
 -10   0  -2    0.95    0.27
 -10   0  -2    0.73    0.14
 -10   0  -2    0.72    0.16
 -10   0  -2    0.78    0.27
  10   0   2    0.81    0.15
 -12   0  -2   32.73    1.59
 -12   0  -2   34.73    1.08
 -12   0  -2   29.56    1.55
  12   0   2   32.80    1.04
 -12   0  -2   31.44    0.90
 -14   0  -2   45.12    1.35
 -14   0  -2   47.36    2.04
  14   0   2   42.58    1.30
 -14   0  -2   39.39    1.91
 -16   0  -2   51.51    1.45
  16   0   2   50.62    1.42
 -16   0  -2   45.30    2.06
 -18   0  -2    3.85    0.45
  21  -1  -2    0.43    0.20
  21  -1  -2    0.44    0.14
 -21  -1   2    0.75    0.22
  21   1  -2    0.34    0.18
  21   1  -2    0.72    0.17
 -21   1   2    0.78    0.22
 -19  -1   2    1.07    0.22
  19  -1  -2    1.08    0.31
 -19  -1   2    1.63    0.30
  19  -1  -2    1.36    0.25
  19  -1  -2    1.50    0.24
  19  -1  -2    1.76    0.29
  19  -1  -2    1.21    0.21
  19  -1  -2    1.19    0.23
  19   1  -2    1.13    0.33
 -19   1   2    1.45    0.25
  19   1  -2    1.41    0.26
  19   1  -2    1.11    0.25
  19   1  -2    1.01    0.20
  19   1  -2    1.77    0.33
 -19   1   2    1.31    0.24
 -19   1   2    1.55    0.32
  19   1  -2    1.36    0.28
  19   1  -2    1.23    0.39
  19   1  -2    1.48    0.25
 -17  -1   2    0.09    0.14
  17  -1  -2    0.29    0.31
  17  -1  -2    0.25    0.13
  17  -1  -2    0.02    0.23
  17  -1  -2    0.20    0.15
  17  -1  -2    0.02    0.16
  17  -1  -2    0.29    0.16
 -17  -1   2    0.16    0.15
 -17   1   2    0.23    0.14
 -17   1   2   -0.09    0.13
  17   1  -2    0.16    0.18
  17   1  -2    0.09    0.13
  17   1  -2    0.29    0.18
 -17   1   2    0.12    0.18
  17   1  -2    0.19    0.33
 -17   1   2    0.25    0.15
  17   1  -2   -0.02    0.25
  17   1  -2    0.27    0.18
  17   1  -2    0.21    0.22
  17   1  -2    0.28    0.16
  17   1  -2    0.20    0.12
 -15  -1   2   43.71    1.28
  15  -1  -2   42.15    1.76
 -15  -1   2   38.46    1.70
  15  -1  -2   41.67    1.71
 -15  -1   2   42.81    1.25
  15  -1  -2   40.66    2.18
  15  -1  -2   43.18    1.42
  15  -1  -2   40.98    1.41
 -15  -1   2   38.03    1.33
  15  -1  -2   41.37    1.22
 -15  -1   2   42.10    1.21
  15  -1  -2   44.08    2.28
  15  -1  -2   41.02    1.46
  15   1  -2   43.07    2.26
  15   1  -2   43.96    1.19
 -15   1   2   41.89    1.40
  15   1  -2   41.81    1.23
  15   1  -2   40.57    1.46
 -15   1   2   44.20    1.29
  15   1  -2   44.87    2.28
  15   1  -2   41.89    1.42
 -15   1   2   43.10    1.71
 -15   1   2   43.57    1.24
 -15   1   2   42.18    1.66
  15   1  -2   42.31    1.77
 -15   1   2   43.49    1.23
  15   1  -2   39.90    1.69
  15   1  -2   41.51    1.37
 -13  -1   2    1.73    0.22
  13  -1  -2    1.69    0.47
  13  -1  -2    1.82    0.23
 -13  -1   2    1.64    0.23
 -13  -1   2    1.58    0.24
 -13  -1   2    1.63    0.23
  13  -1  -2    1.79    0.31
 -13  -1   2    1.66    0.23
 -13  -1   2    1.45    0.28
  13  -1  -2    1.81    0.40
  13  -1  -2    1.70    0.31
 -13  -1   2    1.67    0.21
  13   1  -2    2.01    0.48
  13   1  -2    1.71    0.22
 -13   1   2    1.70    0.23
 -13   1   2    1.58    0.24
  13   1  -2    1.94    0.39
 -13   1   2    1.43    0.28
  13   1  -2    1.79    0.30
  13   1  -2    1.90    0.29
  13   1  -2    1.92    0.31
 -13   1   2    1.80    0.21
  13   1  -2    1.97    0.51
 -13   1   2    1.59    0.23
 -11  -1   2    0.76    0.13
 -11  -1   2    0.50    0.12
 -11  -1   2    0.48    0.13
 -11  -1   2    0.62    0.12
 -11  -1   2    0.66    0.14
 -11  -1   2    0.66    0.18
 -11  -1   2    0.69    0.14
  11  -1  -2    0.46    0.11
 -11   1   2    0.71    0.12
 -11   1   2    0.67    0.12
 -11   1   2    0.57    0.16
 -11   1   2    0.57    0.13
 -11   1   2    0.52    0.13
 -11   1   2    0.57    0.14
  11   1  -2    0.54    0.12
 -11   1   2    0.51    0.12
  -9  -1   2    5.07    0.26
   9  -1  -2    5.10    0.25
  -9  -1   2    5.05    0.24
  -9  -1   2    5.51    0.28
  -9  -1   2    5.30    0.35
  -9  -1   2    5.24    0.25
  -9  -1   2    4.71    0.29
  -9  -1   2    5.30    0.28
  -9  -1   2    5.41    0.29
  -9   1   2    4.84    0.23
  -9   1   2    5.06    0.29
  -9   1   2    5.38    0.31
  -9   1   2    5.25    0.22
  -9   1   2    4.98    0.28
  -9   1   2    5.07    0.27
   9   1  -2    4.76    0.24
  -9   1   2    5.29    0.27
  -9   1   2    5.16    0.27
  -7  -1   2    4.13    0.20
  -7  -1   2    4.58    0.22
  -7  -1   2    4.42    0.22
  -7  -1   2    4.70    0.24
  -7  -1   2    4.55    0.23
  -7  -1   2    4.06    0.23
  -7  -1   2    4.68    0.20
  -7  -1   2    4.74    0.28
  -7   1   2    4.63    0.24
  -7   1   2    4.51    0.24
  -7   1   2    4.30    0.22
  -7   1   2    4.49    0.23
  -7   1   2    4.15    0.15
  -7   1   2    4.64    0.22
  -7   1   2    4.94    0.23
  -7   1   2    4.33    0.19
  -5  -1   2   35.60    0.86
  -5  -1   2   38.49    1.16
  -5  -1   2   34.54    0.81
  -5  -1   2   37.68    0.95
  -5  -1   2   38.94    0.97
  -5  -1   2   35.92    0.86
  -5   1   2   37.97    1.09
  -5   1   2   34.23    1.08
  -5   1   2   35.50    0.89
  -5   1   2   37.64    0.95
   5   1  -2   36.27    0.83
  -5   1   2   36.26    0.86
  -5   1   2   35.92    0.88
  -3  -1   2   68.01    1.65
  -3  -1   2   73.41    2.08
  -3  -1   2   71.98    1.70
  -3   1   2   68.43    2.00
  -3   1   2   71.51    2.00
  -3   1   2   71.60    1.70
  -3   1   2   73.98    1.68
  -1  -1   2  135.20    3.03
  -1  -1   2  134.44    3.74
  -1  -1   2  137.40    3.05
  -1   1   2  126.20    3.70
  -1   1   2  135.29    3.70
   1   1  -2  128.39    2.91
  -1   1   2  130.06    3.04
  -1   1   2  133.97    3.05
   1  -1   2  413.28   11.08
   1  -1   2  404.97    8.95
   1  -1   2  385.49    9.03
  -1   1  -2  388.03    8.21
   1   1   2  412.63   11.05
   1   1   2  421.13    8.98
   1   1   2  389.41    9.04
   3  -1   2    2.41    0.16
   3  -1   2    2.51    0.18
   3  -1   2    2.22    0.19
   3  -1   2    2.26    0.14
  -3  -1  -2    2.14    0.18
  -3  -1  -2    2.30    0.13
  -3   1  -2    2.28    0.19
   3   1   2    2.33    0.13
   3   1   2    2.31    0.14
   3   1   2    2.41    0.16
   3   1   2    2.59    0.20
  -3   1  -2    2.53    0.17
   3   1   2    2.57    0.18
   3   1   2    2.44    0.15
  -3   1  -2    2.56    0.16
   5  -1   2    1.96    0.19
   5  -1   2    2.04    0.17
  -5  -1  -2    2.03    0.16
   5  -1   2    2.02    0.17
   5  -1   2    1.74    0.23
  -5  -1  -2    1.85    0.17
   5  -1   2    2.24    0.18
   5   1   2    2.05    0.16
   5   1   2    1.94    0.17
  -5   1  -2    2.07    0.17
  -5   1  -2    1.90    0.19
   5   1   2    1.95    0.18
   5   1   2    2.13    0.25
  -5   1  -2    1.99    0.24
   5   1   2    2.04    0.18
  -5   1  -2    1.87    0.18
   5   1   2    2.07    0.18
  -5   1  -2    2.17    0.17
   5   1   2    1.82    0.18
  -7  -1  -2    1.16    0.14
  -7  -1  -2    0.99    0.15
   7  -1   2    0.92    0.14
   7  -1   2    1.21    0.15
   7  -1   2    1.05    0.15
  -7   1  -2    0.95    0.20
  -7   1  -2    1.06    0.16
   7   1   2    1.01    0.14
   7   1   2    0.97    0.15
   7   1   2    1.14    0.15
  -7   1  -2    1.14    0.15
  -7   1  -2    1.01    0.13
  -9  -1  -2    0.65    0.15
   9  -1   2    0.85    0.15
  -9  -1  -2    0.54    0.12
   9  -1   2    0.86    0.15
   9  -1   2    0.77    0.14
  -9   1  -2    0.79    0.14
   9   1   2    0.88    0.15
  -9   1  -2    0.78    0.14
  -9   1  -2    0.77    0.16
   9   1   2    0.69    0.14
   9   1   2    0.54    0.13
  11  -1   2   10.01    0.45
 -11  -1  -2   10.16    0.43
 -11  -1  -2   10.44    0.76
 -11  -1  -2    9.65    0.50
  11  -1   2    9.74    0.50
  11  -1   2   10.24    0.49
 -11  -1  -2   10.16    0.76
  11   1   2   10.37    0.59
 -11   1  -2   10.42    0.54
 -11   1  -2   10.96    0.46
 -11   1  -2    9.40    0.74
  11   1   2    9.49    0.43
 -11   1  -2   11.85    0.82
  11   1   2   10.48    0.50
 -13  -1  -2    1.46    0.37
  13  -1   2    1.60    0.25
 -13  -1  -2    1.57    0.27
 -13  -1  -2    1.33    0.22
 -13  -1  -2    1.69    0.38
  13   1   2    1.49    0.24
 -13   1  -2    1.65    0.39
 -13   1  -2    1.47    0.22
  13   1   2    0.48    0.42
 -13   1  -2    1.68    0.41
 -13   1  -2    1.47    0.27
 -15  -1  -2   32.35    1.09
  15  -1   2   32.32    1.05
 -15  -1  -2   33.72    1.63
 -15  -1  -2   28.17    1.60
 -15   1  -2   33.38    1.10
 -15   1  -2   31.20    1.58
  15   1   2   33.01    1.07
 -15   1  -2   31.16    0.91
  17  -1   2    9.93    0.66
 -17  -1  -2   12.26    0.77
  17   1   2    9.26    0.64
 -17   1  -2    9.12    0.70
 -20  -2   2    1.31    0.26
  20  -2  -2    0.92    0.21
  20  -2  -2    0.87    0.27
  20   2  -2    1.04    0.27
  20   2  -2    1.22    0.40
 -20   2   2    1.28    0.27
  20   2  -2    1.13    0.22
  20   2  -2    1.52    0.26
  18  -2  -2    0.11    0.21
  18  -2  -2   -0.03    0.14
  18  -2  -2    0.26    0.15
  18  -2  -2    0.06    0.13
 -18  -2   2   -0.16    0.13
  18  -2  -2   -0.04    0.13
  18  -2  -2   -0.39    0.12
  18   2  -2   -0.12    0.12
 -18   2   2    0.00    0.16
  18   2  -2    0.20    0.21
 -18   2   2    0.07    0.14
  18   2  -2    0.01    0.17
  18   2  -2    0.09    0.28
  18   2  -2   -0.09    0.16
  18   2  -2    0.22    0.16
 -18   2   2   -0.04    0.13
 -18   2   2   -0.26    0.12
  18   2  -2    0.01    0.14
  18   2  -2    0.06    0.22
  16  -2  -2    6.90    0.41
  16  -2  -2    7.12    0.59
  16  -2  -2    6.65    0.72
 -16  -2   2    6.13    0.48
  16  -2  -2    6.97    0.50
 -16  -2   2    5.67    0.46
  16   2  -2    6.57    0.48
  16   2  -2    6.88    0.74
  16   2  -2    7.19    0.97
  16   2  -2    6.51    0.39
  16   2  -2    7.19    0.63
 -16   2   2    6.45    0.54
  16   2  -2    6.12    0.47
  16   2  -2    6.38    0.45
 -16   2   2    7.22    0.46
 -16   2   2    7.02    0.41
 -16   2   2    6.60    0.41
  16   2  -2    6.99    0.54
  16   2  -2    5.97    0.89
  14  -2  -2    3.25    0.51
 -14  -2   2    2.71    0.29
 -14  -2   2    2.36    0.26
 -14  -2   2    2.51    0.42
  14  -2  -2    2.45    0.35
 -14  -2   2    2.57    0.29
 -14  -2   2    2.11    0.29
 -14  -2   2    2.24    0.28
 -14  -2   2    2.28    0.29
  14  -2  -2    2.35    0.26
  14  -2  -2    2.91    0.62
  14  -2  -2    2.63    0.39
  14   2  -2    2.52    0.27
 -14   2   2    2.27    0.24
  14   2  -2    2.39    0.27
 -14   2   2    2.22    0.29
  14   2  -2    2.37    0.36
 -14   2   2    2.96    0.40
 -14   2   2    2.72    0.31
  14   2  -2    2.75    0.36
 -14   2   2    2.50    0.39
 -14   2   2    2.32    0.31
  14   2  -2    2.79    0.59
  14   2  -2    2.85    0.61
  14   2  -2    2.33    0.32
  14   2  -2    2.58    0.45
  12  -2  -2    9.26    0.41
 -12  -2   2    9.46    0.46
 -12  -2   2    9.40    0.42
 -12  -2   2    9.06    0.43
 -12  -2   2    9.03    0.42
 -12  -2   2    9.12    0.39
 -12  -2   2    8.99    0.46
  12   2  -2    8.70    0.41
 -12   2   2    9.13    0.53
 -12   2   2    8.60    0.47
 -12   2   2    9.42    0.43
  12   2  -2    9.25    0.40
 -12   2   2    9.50    0.45
  10  -2  -2    1.51    0.17
 -10  -2   2    1.70    0.19
 -10  -2   2    1.65    0.19
 -10  -2   2    1.67    0.21
 -10  -2   2    1.61    0.18
 -10  -2   2    1.72    0.20
 -10  -2   2    1.61    0.25
 -10   2   2    1.63    0.18
 -10   2   2    1.44    0.14
  10   2  -2    1.88    0.19
 -10   2   2    1.86    0.21
 -10   2   2    1.79    0.22
  10   2  -2    1.70    0.18
 -10   2   2    1.69    0.15
 -10   2   2    1.48    0.20
 -10   2   2    1.73    0.20
 -10   2   2    1.53    0.21
  -8  -2   2   44.44    1.07
  -8  -2   2   42.27    1.12
  -8  -2   2   43.12    1.42
  -8  -2   2   41.44    1.16
  -8  -2   2   41.19    1.04
  -8  -2   2   42.28    1.03
  -8  -2   2   44.17    1.17
   8   2  -2   41.83    1.00
   8   2  -2   37.83    1.00
  -8   2   2   39.49    0.93
  -8   2   2   45.86    1.33
  -8   2   2   39.63    0.95
  -8   2   2   41.57    1.08
  -8   2   2   43.54    1.16
  -8   2   2   42.08    1.04
  -8   2   2   41.51    1.05
  -8   2   2   43.46    1.12
  -6  -2   2  107.84    2.61
  -6  -2   2  108.25    2.63
  -6  -2   2  117.10    3.23
  -6  -2   2  110.76    2.32
  -6  -2   2  109.98    2.56
  -6  -2   2  107.51    2.44
  -6  -2   2  109.01    2.34
  -6   2   2  114.39    3.08
  -6   2   2  101.68    2.16
  -6   2   2  114.08    2.60
  -6   2   2  108.74    2.36
  -6   2   2  115.62    2.58
  -6   2   2  109.52    2.41
  -6   2   2  110.40    3.08
  -6   2   2  107.73    2.31
   6   2  -2  110.68    2.27
  -4  -2   2   24.75    0.82
  -4  -2   2   24.10    0.67
  -4  -2   2   21.94    0.59
  -4   2   2   24.19    0.66
  -4   2   2   24.04    0.66
  -4   2   2   23.80    0.66
  -4   2   2   23.49    0.66
  -4   2   2   23.53    0.63
   4   2  -2   21.75    0.79
  -2  -2   2    0.06    0.05
  -2  -2   2    0.09    0.04
  -2   2   2    0.11    0.03
  -2   2   2    0.17    0.03
   2   2  -2    0.11    0.04
  -2   2   2    0.13    0.05
  -2   2   2    0.11    0.03
  -2   2   2    0.15    0.05
   2   2  -2    0.17    0.07
   0  -2   2   72.25    2.15
   0  -2   2   74.16    1.71
   0   2   2   68.65    2.09
   0   2  -2   72.84    2.15
   0   2   2   74.52    1.76
   0   2  -2   72.95    1.54
   0   2   2   71.39    1.51
   0   2   2   72.65    1.75
   0   2   2   75.75    2.09
   2  -2   2  117.65    2.62
   2  -2   2  111.68    2.25
   2  -2   2  115.70    3.31
  -2   2  -2  114.39    3.32
   2   2   2  114.53    2.25
   2   2   2  116.00    2.44
  -2   2  -2  113.32    2.40
   2   2   2  113.32    2.49
   2   2   2  108.81    2.26
   2   2   2  109.96    2.53
  -2   2  -2  115.00    2.08
   2   2   2  117.54    2.71
   2   2   2  119.50    3.28
   4  -2   2   21.34    0.57
   4  -2   2   21.97    0.66
  -4  -2  -2   21.08    0.60
   4  -2   2   19.57    0.78
  -4  -2  -2   19.44    0.48
   4  -2   2   20.15    0.56
  -4   2  -2   19.88    0.56
   4   2   2   20.96    0.57
  -4   2  -2   21.51    0.65
   4   2   2   19.49    0.57
  -4   2  -2   20.19    0.56
   4   2   2   21.00    0.58
   4   2   2   21.13    0.59
   4   2   2   20.29    0.54
  -4   2  -2   21.51    0.53
   4   2   2   20.93    0.56
  -4   2  -2   21.21    0.60
   4   2   2   21.04    0.79
   4   2   2   21.67    0.65
  -6  -2  -2   -0.03    0.05
   6  -2   2    0.08    0.06
  -6  -2  -2    0.02    0.05
   6  -2   2    0.01    0.05
   6  -2   2    0.10    0.07
   6  -2   2    0.02    0.06
   6   2   2   -0.05    0.05
  -6   2  -2    0.07    0.06
   6   2   2    0.05    0.06
   6   2   2    0.06    0.06
  -6   2  -2    0.01    0.06
  -6   2  -2    0.01    0.04
   6   2   2    0.10    0.08
   6   2   2    0.00    0.05
   6   2   2    0.29    0.09
  -6   2  -2    0.03    0.07
  -6   2  -2    0.03    0.04
  -6   2  -2    0.02    0.08
   8  -2   2   16.84    0.57
  -8  -2  -2   15.90    0.59
   8  -2   2   16.36    0.54
   8  -2   2   15.55    0.61
  -8  -2  -2   16.13    0.49
  -8   2  -2   16.05    0.54
  -8   2  -2   17.16    0.65
  -8   2  -2   15.52    0.56
  -8   2  -2   16.41    0.52
  -8   2  -2   15.37    0.77
   8   2   2   15.75    0.53
  -8   2  -2   16.52    0.57
   8   2   2   16.43    0.61
   8   2   2   17.38    0.59
  10  -2   2    0.54    0.13
 -10  -2  -2    0.58    0.23
  10  -2   2    0.40    0.12
 -10  -2  -2    0.62    0.13
  10  -2   2    0.36    0.13
 -10  -2  -2    0.50    0.23
 -10  -2  -2    0.50    0.13
 -10   2  -2    0.42    0.24
 -10   2  -2    0.51    0.12
  10   2   2    0.58    0.18
  10   2   2    0.49    0.13
  10   2   2    0.55    0.13
  10   2   2    0.48    0.13
 -10   2  -2    0.52    0.21
 -10   2  -2    0.50    0.15
 -10   2  -2    0.34    0.12
 -12  -2  -2    4.84    0.64
 -12  -2  -2    5.43    0.66
 -12  -2  -2    5.09    0.44
  12  -2   2    5.09    0.41
 -12   2  -2    5.64    0.68
 -12   2  -2    5.17    0.66
 -12   2  -2    5.27    0.45
  12   2   2    4.96    0.41
 -12   2  -2    4.59    0.37
  12   2   2    5.47    0.44
 -12   2  -2    4.97    0.47
 -14  -2  -2   -0.03    0.13
  14  -2   2   -0.11    0.11
 -14  -2  -2   -0.03    0.17
 -14  -2  -2    0.16    0.26
 -14   2  -2   -0.05    0.12
 -14   2  -2    0.08    0.13
  14   2   2    0.22    0.37
  14   2   2   -0.17    0.12
 -14   2  -2    0.12    0.19
 -16  -2  -2    0.00    0.14
 -16  -2  -2   -0.01    0.18
  16  -2   2    0.12    0.14
 -16   2  -2    0.06    0.15
  16   2   2    0.27    0.15
 -16   2  -2    0.06    0.16
  16   2   2    0.24    0.25
 -16   2  -2    0.11    0.18
  16   2   2    0.27    0.39
 -18  -2  -2    0.30    0.18
  18  -2   2    0.42    0.22
  18   2   2    0.18    0.21
 -18   2  -2    0.70    0.23
  18   2   2    0.52    0.34
  21  -3  -2    1.80    0.29
 -21  -3   2    2.60    0.28
  21  -3  -2    2.83    0.26
  21   3  -2    3.23    0.49
 -21   3   2    3.16    0.34
  21   3  -2    1.88    0.28
  21   3  -2    3.49    0.29
  21   3  -2    3.27    0.30
  19  -3  -2    1.45    0.22
  19  -3  -2    0.78    0.29
  19  -3  -2    1.03    0.23
 -19   3   2    1.05    0.21
  19   3  -2    1.07    0.40
  19   3  -2    1.47    0.28
 -19   3   2    0.94    0.21
  19   3  -2    1.69    0.29
  19   3  -2    1.35    0.40
  19   3  -2    1.31    0.32
  19   3  -2    1.17    0.23
 -19   3   2    1.09    0.27
  17  -3  -2   13.76    0.72
  17  -3  -2   15.76    0.80
  17  -3  -2   14.38    0.64
 -17  -3   2   14.94    0.68
  17  -3  -2   15.56    0.75
  17  -3  -2   16.25    0.95
 -17   3   2   15.45    0.88
  17   3  -2   15.26    0.84
  17   3  -2   15.21    0.61
 -17   3   2   14.56    0.64
  17   3  -2   14.85    0.76
  17   3  -2   15.21    0.74
  17   3  -2   14.40    0.65
 -17   3   2   15.43    0.64
 -17   3   2   16.29    0.71
  17   3  -2   15.58    0.94
  17   3  -2   16.20    1.21
  17   3  -2   14.59    1.17
 -15  -3   2    0.41    0.16
  15  -3  -2    0.23    0.13
  15  -3  -2    0.33    0.18
 -15  -3   2    0.25    0.17
  15  -3  -2    0.56    0.21
 -15  -3   2    0.45    0.14
  15  -3  -2    0.56    0.26
 -15   3   2    0.20    0.15
  15   3  -2    0.30    0.25
  15   3  -2    0.22    0.27
  15   3  -2    0.18    0.17
  15   3  -2    0.04    0.13
 -15   3   2    0.34    0.19
 -15   3   2    0.41    0.16
  15   3  -2    0.25    0.27
 -15   3   2    0.33    0.15
  15   3  -2    0.25    0.12
 -15   3   2    0.39    0.12
 -15   3   2    0.34    0.20
  15   3  -2    0.77    0.22
  13  -3  -2    6.99    0.57
  13  -3  -2    6.23    0.36
 -13  -3   2    5.98    0.66
  13  -3  -2    6.60    0.46
 -13  -3   2    5.84    0.39
 -13  -3   2    6.21    0.38
 -13  -3   2    6.89    0.35
 -13  -3   2    6.37    0.36
 -13  -3   2    6.19    0.41
 -13  -3   2    6.98    0.39
 -13   3   2    6.93    0.38
  13   3  -2    6.97    0.57
  13   3  -2    6.06    0.36
 -13   3   2    6.84    0.47
 -13   3   2    6.79    0.41
  13   3  -2    6.66    0.69
 -13   3   2    6.77    0.33
 -13   3   2    5.97    0.49
 -13   3   2    7.08    0.40
 -13   3   2    6.60    0.43
  13   3  -2    6.58    0.46
  13   3  -2    5.96    0.44
  13   3  -2    6.94    0.37
  13   3  -2    6.79    0.73
 -11  -3   2   17.20    0.84
  11  -3  -2   17.40    0.59
 -11  -3   2   16.50    0.62
 -11  -3   2   17.19    0.60
 -11  -3   2   16.26    0.66
 -11  -3   2   17.53    0.60
 -11  -3   2   17.33    0.61
 -11   3   2   17.33    0.52
  11   3  -2   16.90    0.59
  11   3  -2   17.78    0.59
 -11   3   2   17.81    0.62
 -11   3   2   17.50    0.65
 -11   3   2   17.27    0.62
 -11   3   2   17.51    0.69
 -11   3   2   17.13    0.74
  -9  -3   2    9.71    0.44
  -9  -3   2    9.80    0.39
  -9  -3   2   10.13    0.55
  -9  -3   2   10.59    0.40
  -9  -3   2    9.65    0.39
  -9  -3   2    9.91    0.41
  -9  -3   2   10.19    0.45
  -9   3   2    9.49    0.29
  -9   3   2   10.14    0.40
  -9   3   2   10.07    0.44
   9   3  -2    9.42    0.37
  -9   3   2    9.90    0.38
  -9   3   2   10.43    0.41
  -9   3   2   10.11    0.44
  -9   3   2   10.83    0.43
   9   3  -2   10.85    0.39
  -7  -3   2   48.20    1.31
  -7  -3   2   48.78    1.29
  -7  -3   2   48.65    1.14
  -7  -3   2   47.16    1.18
  -7  -3   2   47.72    1.59
  -7  -3   2   49.12    1.15
  -7  -3   2   47.72    1.23
  -7   3   2   45.99    1.18
  -7   3   2   48.37    1.24
   7   3  -2   45.29    1.12
   7   3  -2   46.75    1.12
  -7   3   2   50.52    1.42
  -7   3   2   49.59    1.27
  -7   3   2   49.53    1.15
  -7   3   2   49.41    1.17
  -7   3   2   47.75    1.42
  -5  -3   2   32.53    0.81
  -5  -3   2   32.07    0.87
  -5  -3   2   29.68    0.89
  -5  -3   2   31.45    1.07
  -5   3   2   31.22    0.77
  -5   3   2   31.64    0.85
  -5   3   2   30.83    0.78
   5   3  -2   31.28    0.83
  -5   3   2   32.32    0.78
  -5   3   2   29.84    0.78
  -5   3   2   28.99    0.71
  -5   3   2   32.23    0.84
   5   3  -2   31.77    0.76
  -5   3   2   30.76    0.83
   5   3  -2   29.76    1.04
  -3  -3   2   59.66    1.79
  -3  -3   2   60.19    1.44
  -3  -3   2   54.79    1.47
  -3   3   2   59.36    1.29
   3   3  -2   55.04    1.77
  -3   3   2   59.50    1.41
  -3   3   2   60.84    1.44
   3   3  -2   58.18    1.39
  -3   3   2   59.03    1.46
   3   3  -2   56.79    1.26
  -1  -3   2   66.25    1.63
  -1  -3   2   69.20    2.07
  -1   3   2   71.93    1.72
  -1   3   2   68.98    1.68
   1   3  -2   70.88    1.60
  -1   3   2   67.48    1.47
  -1   3   2   64.00    1.94
  -1   3   2   68.82    1.94
   1   3  -2   70.60    2.06
  -1   3   2   68.77    1.52
  -1   3   2   70.41    1.42
   1  -3   2   85.54    1.99
   1  -3   2   84.61    2.54
   1  -3   2   85.46    1.73
   1   3   2   85.82    1.88
   1   3   2   85.40    1.94
  -1   3  -2   88.78    1.86
   1   3   2   88.40    1.75
   1   3   2   91.02    2.49
   1   3   2   85.44    1.74
  -1   3  -2   84.38    1.60
   1   3   2   81.71    1.87
  -1   3  -2   86.99    2.56
   3  -3   2   16.59    0.70
   3  -3   2   17.54    0.50
  -3  -3  -2   18.11    0.52
  -3   3  -2   19.56    0.75
   3   3   2   17.29    0.53
   3   3   2   18.49    0.52
   3   3   2   18.86    0.51
  -3   3  -2   19.67    0.51
   3   3   2   18.10    0.50
  -3   3  -2   18.29    0.52
   3   3   2   18.46    0.52
   3   3   2   18.68    0.54
   3   3   2   18.58    0.60
   3   3   2   18.89    0.71
  -3   3  -2   18.13    0.48
  -3   3  -2   20.30    0.60
  -3   3  -2   19.26    0.55
   5  -3   2    6.84    0.30
  -5  -3  -2    6.06    0.23
  -5  -3  -2    6.94    0.29
   5   3   2    6.92    0.28
   5   3   2    6.94    0.30
  -5   3  -2    6.59    0.29
  -5   3  -2    6.88    0.28
  -5   3  -2    7.24    0.30
   5   3   2    7.21    0.28
  -5   3  -2    7.47    0.31
  -5   3  -2    7.15    0.34
   5   3   2    7.42    0.34
   5   3   2    6.68    0.29
  -5   3  -2    7.09    0.30
   5   3   2    7.29    0.41
   5   3   2    6.83    0.29
   5   3   2    7.01    0.31
   7  -3   2   65.38    1.75
   7  -3   2   68.46    1.49
  -7  -3  -2   64.35    1.64
   7  -3   2   65.36    1.57
   7   3   2   63.65    2.16
  -7   3  -2   66.48    1.55
   7   3   2   64.04    1.75
  -7   3  -2   65.76    1.39
  -7   3  -2   67.99    1.76
   7   3   2   65.21    1.60
   7   3   2   63.75    1.63
   7   3   2   65.01    1.48
  -7   3  -2   67.53    1.63
  -7   3  -2   68.16    2.20
  -7   3  -2   66.17    1.60
   7   3   2   63.01    1.54
   7   3   2   67.19    1.61
   9  -3   2    7.15    0.36
   9  -3   2    7.12    0.40
   9  -3   2    7.05    0.35
  -9   3  -2    6.61    0.36
  -9   3  -2    6.89    0.37
  -9   3  -2    7.18    0.61
  -9   3  -2    7.50    0.35
  -9   3  -2    7.15    0.43
   9   3   2    7.31    0.39
  -9   3  -2    6.87    0.35
   9   3   2    6.48    0.34
   9   3   2    7.26    0.49
  11  -3   2    0.72    0.19
  11  -3   2    1.00    0.19
 -11  -3  -2    1.01    0.29
  11  -3   2    1.06    0.18
 -11   3  -2    1.01    0.18
 -11   3  -2    1.25    0.22
 -11   3  -2    0.84    0.31
  11   3   2    1.10    0.20
 -11   3  -2    0.92    0.17
  11   3   2    1.05    0.23
 -11   3  -2    0.90    0.20
 -11   3  -2    1.05    0.30
 -13  -3  -2    1.92    0.29
 -13  -3  -2    2.79    0.49
 -13  -3  -2    2.77    0.49
  13  -3   2    2.30    0.29
 -13   3  -2    1.93    0.25
 -13   3  -2    1.68    0.42
 -13   3  -2    2.47    0.33
  13   3   2    2.54    0.34
 -13   3  -2    2.25    0.45
  13   3   2    2.18    0.30
  15  -3   2    1.96    0.28
 -15  -3  -2    2.03    0.40
 -15  -3  -2    1.48    0.26
  15   3   2    1.75    0.28
 -15   3  -2    1.69    0.28
 -15   3  -2    1.96    0.40
 -15   3  -2    1.52    0.24
  17  -3   2    0.05    0.19
 -17  -3  -2    0.11    0.19
  17   3   2    0.16    0.23
  17   3   2   -0.13    0.30
 -17   3  -2    0.24    0.19
 -20  -4   2    3.24    0.36
  20  -4  -2    2.52    0.28
 -20   4   2    3.51    0.43
  20   4  -2    3.99    0.37
  20   4  -2    3.44    0.32
  20   4  -2    3.01    0.53
  20   4  -2    3.23    0.51
  20   4  -2    3.55    0.35
  20   4  -2    2.44    0.36
 -18  -4   2    0.22    0.17
  18  -4  -2    0.44    0.18
  18  -4  -2    0.29    0.16
  18  -4  -2    0.83    0.29
 -18   4   2    0.14    0.13
  18   4  -2    0.73    0.21
 -18   4   2    0.41    0.15
  18   4  -2    0.41    0.17
  18   4  -2    0.50    0.30
  18   4  -2    0.19    0.24
 -18   4   2    0.48    0.22
  18   4  -2    0.23    0.18
  18   4  -2    0.50    0.19
 -18   4   2   -0.02    0.14
 -18   4   2    0.36    0.23
  18   4  -2    0.20    0.27
  16  -4  -2    1.06    0.34
  16  -4  -2    1.30    0.27
 -16  -4   2    1.21    0.22
  16  -4  -2    0.91    0.20
  16  -4  -2    1.05    0.25
 -16  -4   2    0.99    0.22
  16   4  -2    1.15    0.27
  16   4  -2    1.45    0.45
  16   4  -2    0.95    0.22
 -16   4   2    1.49    0.26
 -16   4   2    1.22    0.20
  16   4  -2    1.14    0.21
  16   4  -2    1.38    0.45
  16   4  -2    1.51    0.30
 -16   4   2    1.29    0.31
  16   4  -2    1.50    0.39
 -16   4   2    1.11    0.23
 -14  -4   2    8.97    0.47
 -14  -4   2    8.16    0.52
  14  -4  -2    9.40    0.59
 -14  -4   2    9.43    0.44
  14  -4  -2    8.51    0.55
  14  -4  -2    8.59    0.46
  14  -4  -2    9.16    0.70
 -14   4   2    8.46    0.53
 -14   4   2    8.33    0.62
  14   4  -2    8.80    0.68
  14   4  -2    8.41    0.57
 -14   4   2    9.86    0.51
 -14   4   2    9.13    0.59
 -14   4   2    9.68    0.49
 -14   4   2    9.05    0.41
  14   4  -2    9.01    0.86
  14   4  -2    9.08    0.53
  14   4  -2    9.31    0.87
  14   4  -2    8.92    0.47
  14   4  -2    8.57    0.54
  14   4  -2    9.40    0.45
 -12  -4   2    0.05    0.09
  12  -4  -2    0.01    0.14
  12  -4  -2    0.10    0.08
 -12  -4   2    0.03    0.09
  12  -4  -2    0.44    0.17
 -12  -4   2    0.04    0.11
 -12   4   2    0.01    0.05
 -12   4   2   -0.02    0.07
  12   4  -2    0.23    0.14
 -12   4   2   -0.04    0.07
 -12   4   2   -0.05    0.08
 -12   4   2   -0.06    0.08
  12   4  -2    0.00    0.20
  12   4  -2    0.25    0.25
  12   4  -2    0.22    0.25
 -12   4   2    0.02    0.08
  12   4  -2    0.01    0.14
  12   4  -2    0.01    0.08
 -12   4   2    0.14    0.17
  12   4  -2    0.04    0.08
 -10  -4   2    0.07    0.07
 -10  -4   2    0.03    0.11
 -10  -4   2    0.08    0.09
 -10  -4   2    0.06    0.09
 -10  -4   2    0.09    0.07
 -10  -4   2    0.04    0.08
 -10   4   2    0.03    0.04
  10   4  -2    0.03    0.05
 -10   4   2    0.05    0.06
 -10   4   2    0.08    0.08
 -10   4   2    0.00    0.08
  10   4  -2    0.05    0.07
 -10   4   2   -0.02    0.05
 -10   4   2    0.06    0.07
  -8  -4   2    0.86    0.13
  -8  -4   2    1.22    0.15
  -8  -4   2    0.24    0.12
  -8  -4   2    0.23    0.09
  -8  -4   2    0.23    0.11
  -8   4   2    0.22    0.09
  -8   4   2    0.24    0.09
   8   4  -2    0.21    0.08
   8   4  -2    0.58    0.11
  -8   4   2    0.29    0.10
   8   4  -2    0.33    0.09
  -8   4   2    0.24    0.09
  -8   4   2    0.29    0.07
  -8   4   2    0.38    0.09
  -6  -4   2    1.63    0.17
  -6  -4   2    1.55    0.22
  -6  -4   2    1.44    0.14
  -6  -4   2    1.49    0.20
  -6  -4   2    1.42    0.17
  -6   4   2    1.39    0.16
  -6   4   2    1.43    0.15
   6   4  -2    1.37    0.14
  -6   4   2    1.63    0.16
  -6   4   2    1.47    0.07
  -6   4   2    1.40    0.14
  -6   4   2    1.52    0.16
   6   4  -2    1.38    0.20
  -6   4   2    1.70    0.18
   6   4  -2    1.42    0.15
  -6   4   2    1.17    0.12
  -6   4   2    1.60    0.07
   6   4  -2    1.52    0.17
  -6   4   2    1.36    0.14
  -4  -4   2   13.65    0.58
  -4  -4   2   13.57    0.50
  -4  -4   2   14.93    0.48
  -4   4   2   12.90    0.41
   4   4  -2   14.20    0.45
  -4   4   2   12.89    0.41
  -4   4   2   12.87    0.40
   4   4  -2   13.55    0.42
   4   4  -2   12.33    0.56
  -4   4   2   14.11    0.41
  -4   4   2   14.28    0.46
  -4   4   2   13.06    0.38
  -4   4   2   13.54    0.44
  -4   4   2   14.32    0.46
  -4   4   2   12.46    0.40
  -2  -4   2   25.22    0.77
  -2  -4   2   25.59    0.71
  -2  -4   2   24.55    0.60
  -2  -4   2   25.64    0.91
  -2   4   2   25.47    0.67
   2   4  -2   24.32    0.65
   2   4  -2   24.24    0.66
  -2   4   2   25.23    0.62
  -2   4   2   25.69    0.74
   2   4  -2   25.86    0.92
  -2   4   2   26.98    0.75
   2   4  -2   26.52    0.70
  -2   4   2   26.59    0.74
  -2   4   2   25.88    0.74
  -2   4   2   26.31    0.63
   0  -4   2   13.60    0.50
   0  -4   2   15.06    0.42
   0  -4   2   14.66    0.60
   0  -4   2   15.22    0.44
   0   4  -2   14.79    0.45
   0   4   2   15.20    0.43
   0   4   2   14.21    0.54
   0   4   2   16.44    0.52
   0   4   2   15.07    0.46
   0   4  -2   15.73    0.62
   0   4   2   14.57    0.44
   0   4  -2   15.06    0.39
   0   4   2   15.44    0.40
   0   4   2   16.70    0.54
   0   4  -2   15.04    0.45
   0   4   2   15.05    0.44
   2  -4   2   15.03    0.52
   2  -4   2   15.50    0.46
   2  -4   2   15.47    0.42
  -2   4  -2   16.56    0.53
  -2   4  -2   15.97    0.48
  -2   4  -2   16.96    0.68
  -2   4  -2   16.75    0.47
   2   4   2   15.71    0.46
   2   4   2   16.38    0.46
  -2   4  -2   15.90    0.48
   2   4   2   15.74    0.49
  -2   4  -2   15.65    0.48
  -2   4  -2   16.03    0.43
   2   4   2   15.29    0.44
   2   4   2   16.02    0.55
   2   4   2   15.93    0.50
   2   4   2   16.07    0.47
   2   4   2   16.39    0.62
  -4  -4  -2    1.35    0.12
   4  -4   2    1.24    0.14
  -4   4  -2    1.45    0.16
  -4   4  -2    1.52    0.16
  -4   4  -2    1.38    0.17
   4   4   2    1.47    0.21
  -4   4  -2    1.48    0.16
  -4   4  -2    1.46    0.16
   4   4   2    1.61    0.18
   4   4   2    1.28    0.14
   4   4   2    1.42    0.17
  -4   4  -2    1.55    0.15
   4   4   2    1.35    0.13
  -4   4  -2    1.62    0.17
   4   4   2    1.47    0.16
  -4   4  -2    1.52    0.23
   4   4   2    1.64    0.18
   4   4   2    1.47    0.16
   6  -4   2    0.12    0.06
   6   4   2    0.07    0.07
   6   4   2    0.11    0.08
  -6   4  -2    0.09    0.07
   6   4   2    0.11    0.09
   6   4   2    0.02    0.06
  -6   4  -2   -0.01    0.09
  -6   4  -2   -0.03    0.06
   6   4   2    0.08    0.08
  -6   4  -2   -0.01    0.04
  -6   4  -2    0.17    0.07
  -6   4  -2    0.12    0.07
   6   4   2    0.02    0.05
   6   4   2    0.06    0.07
   8  -4   2    2.67    0.25
   8  -4   2    2.78    0.29
   8  -4   2    2.94    0.27
  -8   4  -2    2.76    0.30
  -8   4  -2    2.88    0.26
  -8   4  -2    2.86    0.28
   8   4   2    2.73    0.29
  -8   4  -2    2.73    0.26
   8   4   2    2.75    0.26
  -8   4  -2    3.05    0.28
  -8   4  -2    2.41    0.35
   8   4   2    2.84    0.25
   8   4   2    3.23    0.29
  10  -4   2    0.04    0.10
 -10  -4  -2    0.16    0.20
  10  -4   2    0.01    0.09
  10  -4   2   -0.07    0.10
  10   4   2    0.30    0.17
 -10   4  -2    0.11    0.19
 -10   4  -2    0.01    0.08
  10   4   2    0.04    0.11
 -10   4  -2    0.22    0.12
 -10   4  -2    0.19    0.14
 -10   4  -2    0.12    0.12
  10   4   2    0.22    0.11
 -10   4  -2    0.09    0.10
  10   4   2    0.12    0.09
 -10   4  -2   -0.16    0.10
 -10   4  -2    0.04    0.18
  10   4   2    0.03    0.15
 -10   4  -2    0.03    0.10
 -10   4  -2    0.28    0.24
  12  -4   2    3.21    0.34
  12  -4   2    2.08    0.26
 -12  -4  -2    2.73    0.47
 -12  -4  -2    3.18    0.34
 -12   4  -2    2.53    0.39
  12   4   2    3.04    0.38
  12   4   2    2.63    0.32
 -12   4  -2    2.17    0.45
 -12   4  -2    3.22    0.52
  12   4   2    2.87    0.38
 -12   4  -2    3.08    0.31
 -12   4  -2    3.32    0.36
 -12   4  -2    2.94    0.31
  14  -4   2    3.47    0.36
 -14  -4  -2    3.13    0.35
 -14  -4  -2    3.84    0.56
 -14  -4  -2    3.11    0.49
  14   4   2    3.23    0.38
 -14   4  -2    3.09    0.52
  14   4   2    3.18    0.36
 -14   4  -2    2.99    0.35
  16  -4   2    0.13    0.24
 -16  -4  -2    0.06    0.18
 -16   4  -2   -0.03    0.17
  16   4   2    0.35    0.25
  16   4   2    0.14    0.36
 -18  -4  -2    0.59    0.20
  18   4   2    0.34    0.28
 -18   4  -2    0.64    0.20
  21   5  -2    1.04    0.31
  19  -5  -2    0.99    0.21
  19   5  -2    1.13    0.40
  19   5  -2    1.18    0.25
  19   5  -2    1.45    0.39
 -19   5   2    1.17    0.29
  19   5  -2    1.04    0.31
  19   5  -2    1.73    0.27
  19   5  -2    1.38    0.25
  17  -5  -2    2.05    0.31
  17  -5  -2    1.55    0.25
 -17  -5   2    1.95    0.27
  17   5  -2    2.18    0.41
  17   5  -2    2.31    0.55
 -17   5   2    2.31    0.31
 -17   5   2    1.87    0.38
  17   5  -2    2.22    0.53
 -17   5   2    2.19    0.27
 -17   5   2    2.62    0.42
  17   5  -2    2.63    0.36
  17   5  -2    2.34    0.34
  17   5  -2    1.91    0.33
 -17   5   2    1.90    0.27
  17   5  -2    2.19    0.30
  15  -5  -2    0.19    0.13
 -15  -5   2    0.14    0.13
 -15   5   2    0.27    0.21
  15   5  -2    0.34    0.26
  15   5  -2    0.39    0.20
 -15   5   2    0.30    0.13
  15   5  -2    0.29    0.30
  15   5  -2    0.05    0.11
 -15   5   2    0.21    0.18
  15   5  -2    0.29    0.15
  15   5  -2   -0.04    0.21
  15   5  -2    0.53    0.19
 -15   5   2    0.07    0.12
  13  -5  -2    0.56    0.21
 -13  -5   2    0.53    0.16
  13  -5  -2    0.68    0.16
  13  -5  -2    0.79    0.21
  13  -5  -2    0.46    0.79
 -13  -5   2    0.58    0.18
  13   5  -2    0.45    0.15
 -13   5   2    0.81    0.18
 -13   5   2    0.48    0.16
  13   5  -2    0.74    0.21
  13   5  -2    0.55    0.22
  13   5  -2    0.81    0.29
 -13   5   2    0.55    0.17
  13   5  -2    0.35    0.25
  13   5  -2    0.51    0.14
 -13   5   2    0.50    0.12
 -13   5   2    0.66    0.16
  13   5  -2    0.60    0.34
 -13   5   2    0.58    0.17
 -13   5   2    0.38    0.20
  13   5  -2    0.82    0.20
 -11  -5   2    1.95    0.22
 -11  -5   2    1.79    0.26
 -11  -5   2    1.80    0.26
  11   5  -2    2.40    0.52
 -11   5   2    1.79    0.26
  11   5  -2    2.05    0.40
 -11   5   2    1.70    0.15
 -11   5   2    1.75    0.23
  11   5  -2    2.22    0.57
  11   5  -2    2.17    0.30
  11   5  -2    1.80    0.24
 -11   5   2    2.16    0.25
  11   5  -2    1.85    0.23
 -11   5   2    1.90    0.25
  11   5  -2    2.18    0.31
 -11   5   2    2.09    0.25
  11   5  -2    1.98    0.23
  -9  -5   2   13.08    0.57
  -9  -5   2   13.10    0.57
   9   5  -2   13.36    0.54
  -9   5   2   12.99    0.49
  -9   5   2   13.78    0.54
   9   5  -2   12.88    0.49
  -9   5   2   13.87    0.53
  -9   5   2   13.48    0.55
  -9   5   2   13.81    0.51
   9   5  -2   14.06    0.50
  -7  -5   2   22.69    0.76
  -7  -5   2   22.87    0.93
  -7  -5   2   21.93    0.77
   7   5  -2   23.04    0.66
  -7   5   2   22.35    0.70
  -7   5   2   23.34    0.71
   7   5  -2   23.66    0.73
  -7   5   2   22.26    0.69
  -7   5   2   22.64    0.68
  -7   5   2   22.61    0.66
  -7   5   2   21.65    0.65
  -7   5   2   22.46    0.67
  -7   5   2   22.76    0.73
   7   5  -2   22.23    0.66
  -5  -5   2    0.48    0.13
  -5  -5   2    0.35    0.10
  -5  -5   2    0.29    0.12
  -5   5   2    0.40    0.08
  -5   5   2    0.42    0.09
  -5   5   2    0.38    0.09
   5   5  -2    0.33    0.12
  -5   5   2    0.28    0.07
  -5   5   2    0.35    0.08
   5   5  -2    0.21    0.07
  -5   5   2    0.25    0.07
  -5   5   2    0.34    0.09
   5   5  -2    0.32    0.09
   5   5  -2    0.34    0.09
  -5   5   2    0.31    0.08
  -5   5   2    0.35    0.08
  -3  -5   2    0.55    0.12
  -3  -5   2    0.51    0.10
  -3  -5   2    0.59    0.14
  -3   5   2    0.39    0.07
   3   5  -2    0.53    0.14
  -3   5   2    0.57    0.10
   3   5  -2    0.48    0.10
  -3   5   2    0.65    0.11
   3   5  -2    0.48    0.09
  -3   5   2    0.50    0.10
  -3   5   2    0.53    0.09
   3   5  -2    0.53    0.10
   3   5  -2    0.44    0.09
   3   5  -2    0.67    0.11
  -3   5   2    0.44    0.09
  -3   5   2    0.50    0.09
  -3   5   2    0.59    0.10
  -1  -5   2   16.62    0.58
  -1  -5   2   16.31    0.46
  -1  -5   2   17.03    0.51
  -1  -5   2   16.75    0.69
  -1   5   2   16.71    0.47
   1   5  -2   15.50    0.49
   1   5  -2   17.60    0.70
  -1   5   2   15.71    0.48
  -1   5   2   16.78    0.51
  -1   5   2   17.02    0.52
   1   5  -2   16.25    0.42
  -1   5   2   17.46    0.57
  -1   5   2   17.78    0.57
  -1   5   2   16.45    0.57
  -1   5   2   17.17    0.47
   1   5  -2   16.34    0.50
   1   5  -2   16.99    0.53
   1   5  -2   17.01    0.51
   1  -5   2    0.88    0.14
   1  -5   2    0.71    0.11
   1   5   2    0.70    0.11
   1   5   2    0.88    0.13
   1   5   2    0.70    0.12
  -1   5  -2    0.71    0.15
   1   5   2    0.74    0.08
  -1   5  -2    0.80    0.11
  -1   5  -2    0.85    0.11
  -1   5  -2    0.83    0.12
   1   5   2    0.75    0.12
   1   5   2    0.77    0.13
   1   5   2    0.83    0.11
   1   5   2    0.83    0.11
  -1   5  -2    1.09    0.14
  -1   5  -2    0.75    0.12
   1   5   2    0.81    0.12
  -1   5  -2    0.86    0.11
   3  -5   2    7.58    0.31
   3   5   2    7.76    0.33
  -3   5  -2    7.86    0.45
   3   5   2    7.55    0.34
  -3   5  -2    7.95    0.35
  -3   5  -2    7.67    0.29
  -3   5  -2    7.93    0.32
   3   5   2    7.65    0.30
   3   5   2    7.27    0.31
   3   5   2    7.78    0.41
   3   5   2    7.32    0.36
  -3   5  -2    7.90    0.31
   3   5   2    7.79    0.29
  -3   5  -2    7.60    0.32
  -3   5  -2    7.62    0.33
  -3   5  -2    7.60    0.33
   3   5   2    7.36    0.31
   5  -5   2    9.28    0.37
  -5   5  -2    9.14    0.38
   5   5   2    8.90    0.51
  -5   5  -2    9.46    0.43
  -5   5  -2    9.03    0.53
   5   5   2    9.41    0.39
   5   5   2    9.04    0.40
   5   5   2    8.65    0.37
  -5   5  -2    8.81    0.38
  -5   5  -2    9.54    0.38
  -5   5  -2    9.03    0.38
  -5   5  -2    9.51    0.36
  -5   5  -2    8.36    0.37
   5   5   2    8.36    0.42
   5   5   2    9.54    0.37
   5   5   2    9.06    0.37
   7  -5   2    3.26    0.28
   7   5   2    3.18    0.27
  -7   5  -2    3.26    0.32
   7   5   2    3.49    0.28
  -7   5  -2    3.38    0.30
   7   5   2    3.21    0.26
  -7   5  -2    3.29    0.29
  -7   5  -2    2.98    0.27
   7   5   2    2.85    0.29
   7   5   2    2.67    0.36
  -7   5  -2    3.24    0.27
   7   5   2    3.20    0.30
   9  -5   2    0.56    0.14
   9  -5   2    0.63    0.14
   9  -5   2    0.72    0.17
  -9  -5  -2    0.68    0.27
   9   5   2    0.78    0.16
  -9   5  -2    0.62    0.15
  -9   5  -2    0.24    0.25
  -9   5  -2    0.41    0.14
   9   5   2    0.35    0.18
  -9   5  -2    0.43    0.23
  -9   5  -2    0.53    0.14
  -9   5  -2    0.67    0.18
  -9   5  -2    0.61    0.15
  -9   5  -2    0.84    0.24
  -9   5  -2    0.73    0.19
   9   5   2    0.69    0.17
  -9   5  -2    0.51    0.24
  -9   5  -2    0.63    0.14
   9   5   2    0.24    0.13
   9   5   2    0.47    0.19
  11  -5   2    0.53    0.16
  11  -5   2    0.19    0.17
 -11  -5  -2    0.50    0.26
  11  -5   2    0.46    0.16
 -11  -5  -2    0.58    0.17
 -11   5  -2    0.26    0.14
 -11   5  -2    0.29    0.26
  11   5   2    0.43    0.19
 -11   5  -2    0.41    0.15
  11   5   2    0.58    0.20
 -11   5  -2    0.29    0.15
 -11   5  -2    0.41    0.22
 -11   5  -2    0.49    0.16
  11   5   2    0.44    0.16
 -11   5  -2    0.47    0.17
  11   5   2    0.21    0.38
 -11   5  -2    0.33    0.25
 -13  -5  -2    1.94    0.28
 -13  -5  -2    1.75    0.39
  13  -5   2    1.64    0.27
 -13  -5  -2    2.25    0.47
  13   5   2    2.37    0.35
 -13   5  -2    1.92    0.26
 -13   5  -2    1.76    0.25
 -13   5  -2    1.58    0.33
 -13   5  -2    1.92    0.27
  13   5   2    2.08    0.32
 -13   5  -2    2.07    0.43
  13   5   2    2.10    0.30
 -15  -5  -2    9.28    0.73
  15  -5   2   10.21    0.51
 -15  -5  -2    9.63    0.72
  15   5   2    9.42    0.52
  15   5   2    9.01    0.52
 -15   5  -2    8.48    0.71
  15   5   2    7.07    0.60
 -17  -5  -2    2.40    0.38
  17   5   2    0.89    0.34
 -17   5  -2    1.41    0.30
  20  -6  -2    0.00    0.11
  20   6  -2    0.02    0.13
 -20   6   2   -0.05    0.16
  20   6  -2    0.14    0.23
  20   6  -2    0.02    0.11
  20   6  -2    0.29    0.14
  20   6  -2    0.03    0.19
  18  -6  -2    0.24    0.16
  18   6  -2    0.15    0.29
  18   6  -2    0.22    0.29
 -18   6   2    0.32    0.20
  18   6  -2    0.37    0.17
  18   6  -2    0.39    0.17
  18   6  -2    0.15    0.25
  18   6  -2    0.30    0.18
  16  -6  -2    1.65    0.26
 -16  -6   2    1.97    0.27
  16  -6  -2    1.81    0.30
  16   6  -2    1.57    0.39
  16   6  -2    2.24    0.35
  16   6  -2    1.86    0.29
 -16   6   2    2.41    0.41
 -16   6   2    2.03    0.29
 -16   6   2    1.90    0.25
 -16   6   2    1.53    0.35
  16   6  -2    2.48    0.61
 -16   6   2    2.07    0.30
  16   6  -2    1.94    0.49
  16   6  -2    1.96    0.33
  14  -6  -2    0.36    0.79
  14  -6  -2    1.97    0.26
 -14   6   2    1.95    0.37
 -14   6   2    2.01    0.22
 -14   6   2    2.06    0.43
 -14   6   2    2.16    0.31
  14   6  -2    2.14    0.53
  14   6  -2    1.95    0.42
 -14   6   2    1.58    0.25
  14   6  -2    1.62    0.31
  14   6  -2    2.27    0.33
 -14   6   2    1.84    0.27
  14   6  -2    1.57    0.22
  14   6  -2    2.20    0.56
  14   6  -2    1.56    0.26
 -12  -6   2    0.80    0.20
  12  -6  -2    0.43    0.75
 -12  -6   2    0.76    0.21
  12   6  -2    0.79    0.19
  12   6  -2    0.88    0.22
 -12   6   2    0.73    0.28
 -12   6   2    0.75    0.12
 -12   6   2    1.03    0.20
  12   6  -2    1.16    0.39
 -12   6   2    0.90    0.25
  12   6  -2    0.68    0.28
 -12   6   2    0.74    0.17
 -12   6   2    0.85    0.20
 -12   6   2    0.77    0.20
 -12   6   2    0.80    0.18
  12   6  -2    0.81    0.23
  12   6  -2    0.87    0.35
  12   6  -2    0.75    0.16
  12   6  -2    0.60    0.17
 -10  -6   2    4.00    0.40
  10  -6  -2    2.95    1.11
 -10  -6   2    4.37    0.39
 -10   6   2    4.45    0.39
  10   6  -2    3.94    0.33
 -10   6   2    4.48    0.38
 -10   6   2    4.08    0.28
  10   6  -2    4.63    0.39
  10   6  -2    4.77    0.63
 -10   6   2    3.84    0.18
 -10   6   2    4.19    0.33
 -10   6   2    4.67    0.37
  10   6  -2    4.02    0.32
  -8  -6   2    0.67    0.17
  -8  -6   2    0.50    0.14
  -8   6   2    0.46    0.12
   8   6  -2    0.48    0.13
  -8   6   2    0.52    0.11
   8   6  -2    0.63    0.13
  -8   6   2    0.66    0.13
  -8   6   2    0.56    0.10
  -8   6   2    0.54    0.13
  -8   6   2    0.55    0.11
   8   6  -2    0.58    0.12
  -6  -6   2    8.86    0.45
  -6  -6   2    9.62    0.43
  -6   6   2    8.88    0.38
  -6   6   2    8.48    0.34
  -6   6   2    9.14    0.39
   6   6  -2    9.36    0.37
  -6   6   2    9.10    0.32
  -6   6   2    7.98    0.34
  -6   6   2    9.16    0.36
   6   6  -2    9.30    0.38
  -6   6   2    9.16    0.31
   6   6  -2   10.17    0.42
  -6   6   2    9.99    0.39
  -4  -6   2   36.49    1.02
  -4  -6   2   37.07    1.09
  -4   6   2   35.88    1.02
  -4   6   2   37.30    1.06
   4   6  -2   37.09    0.94
  -4   6   2   34.37    0.93
  -4   6   2   32.95    0.87
  -4   6   2   33.80    0.83
  -4   6   2   36.84    0.93
  -4   6   2   35.04    0.92
   4   6  -2   35.02    0.92
   4   6  -2   35.97    0.95
  -4   6   2   35.23    1.02
   4   6  -2   35.16    0.92
   4   6  -2   34.90    1.27
   4   6  -2   36.21    1.01
  -4   6   2   36.12    0.96
  -2  -6   2    0.14    0.07
  -2  -6   2    0.12    0.08
  -2   6   2    0.13    0.06
  -2   6   2    0.08    0.04
   2   6  -2    0.14    0.07
  -2   6   2    0.09    0.05
   2   6  -2    0.12    0.06
  -2   6   2    0.12    0.06
  -2   6   2    0.09    0.05
   2   6  -2    0.07    0.08
   2   6  -2    0.09    0.06
  -2   6   2    0.17    0.08
  -2   6   2    0.09    0.07
   2   6  -2    0.05    0.06
   0  -6   2    4.83    0.29
   0  -6   2    4.68    0.23
   0  -6   2    4.46    0.21
   0   6  -2    4.50    0.23
   0   6  -2    4.65    0.25
   0   6   2    4.69    0.23
   0   6  -2    4.78    0.24
   0   6   2    4.84    0.26
   0   6   2    4.76    0.24
   0   6   2    4.83    0.22
   0   6  -2    4.57    0.33
   0   6   2    4.71    0.28
   0   6  -2    5.01    0.25
   0   6   2    4.99    0.27
   0   6  -2    4.38    0.20
   0   6   2    4.58    0.25
   0   6   2    4.24    0.16
   0   6  -2    5.13    0.25
   2  -6   2   24.94    0.68
   2  -6   2   22.69    0.76
  -2   6  -2   26.41    0.73
   2   6   2   26.15    0.92
   2   6   2   22.90    0.68
   2   6   2   25.11    0.68
  -2   6  -2   23.40    0.70
  -2   6  -2   25.38    0.99
  -2   6  -2   23.72    0.61
   2   6   2   23.31    0.81
   2   6   2   25.08    0.72
   2   6   2   24.74    0.73
   2   6   2   24.03    0.66
  -2   6  -2   24.76    0.71
   2   6   2   24.63    0.73
  -2   6  -2   25.47    0.73
  -2   6  -2   25.97    0.77
   4  -6   2    7.38    0.33
   4   6   2    7.56    0.32
   4   6   2    7.28    0.36
   4   6   2    7.24    0.35
  -4   6  -2    6.85    0.33
  -4   6  -2    7.32    0.31
  -4   6  -2    7.24    0.34
  -4   6  -2    7.34    0.33
  -4   6  -2    7.42    0.47
  -4   6  -2    7.36    0.35
   4   6   2    7.22    0.44
   4   6   2    7.00    0.32
   4   6   2    7.03    0.39
  -4   6  -2    7.08    0.37
  -4   6  -2    7.00    0.34
   6  -6   2    1.51    0.19
  -6   6  -2    1.34    0.18
  -6   6  -2    1.38    0.19
   6   6   2    1.43    0.26
   6   6   2    1.63    0.22
   6   6   2    1.28    0.18
  -6   6  -2    1.67    0.22
  -6   6  -2    1.52    0.21
  -6   6  -2    1.53    0.19
  -6   6  -2    1.32    0.21
   6   6   2    1.35    0.18
   6   6   2    1.51    0.22
   6   6   2    1.66    0.21
  -6   6  -2    1.39    0.18
  -6   6  -2    1.23    0.25
   8  -6   2    8.93    0.42
   8   6   2    7.22    0.45
   8   6   2    8.11    0.40
  -8   6  -2    8.33    0.41
   8   6   2    8.42    0.45
  -8   6  -2    7.94    0.57
  -8   6  -2    8.14    0.48
   8   6   2    7.72    0.47
   8   6   2    7.60    0.62
  -8   6  -2    8.26    0.59
  -8   6  -2    7.04    0.65
   8   6   2    7.80    0.53
  -8   6  -2    8.61    0.43
   8   6   2    7.88    0.39
  -8   6  -2    7.79    0.52
  -8   6  -2    8.44    0.40
   8   6   2    8.05    0.52
  -8   6  -2    8.66    0.68
  -8   6  -2    8.47    0.70
   8   6   2    7.07    0.57
  -8   6  -2    9.04    0.44
  10  -6   2    0.24    0.15
 -10  -6  -2    0.07    0.20
  10  -6   2    0.36    0.14
 -10  -6  -2    0.42    0.15
  10  -6   2    0.11    0.12
 -10   6  -2    0.21    0.19
  10   6   2    0.25    0.18
  10   6   2    0.27    0.17
 -10   6  -2    0.27    0.14
 -10   6  -2    0.50    0.17
 -10   6  -2    0.26    0.14
 -10   6  -2   -0.16    0.20
 -10   6  -2    0.25    0.15
 -10   6  -2    0.29    0.24
 -10   6  -2    0.31    0.15
  10   6   2    0.21    0.14
 -10   6  -2    0.32    0.14
 -10   6  -2    0.35    0.24
 -12  -6  -2    0.94    0.34
  12  -6   2    0.99    0.20
  12  -6   2    1.35    0.23
  12   6   2    1.18    0.24
  12   6   2    0.89    0.25
  12   6   2    0.06    0.31
 -12   6  -2    0.64    0.26
 -12   6  -2    1.18    0.37
  12   6   2    1.23    0.25
 -12   6  -2    0.87    0.20
 -12   6  -2    1.22    0.35
 -12   6  -2    0.77    0.18
 -14  -6  -2    9.80    0.75
  14  -6   2    9.79    0.52
 -14  -6  -2    9.55    0.75
  14   6   2    9.21    0.56
 -14   6  -2    8.22    0.46
  14   6   2    9.12    0.55
 -14   6  -2    9.08    0.76
  14   6   2    9.34    0.53
 -16  -6  -2    0.30    0.20
 -16   6  -2    0.48    0.22
  16   6   2   -0.09    0.27
  19   7  -2    7.15    0.65
  19   7  -2    8.51    0.45
  19   7  -2    8.79    0.48
  19   7  -2    8.35    0.72
 -19   7   2    8.17    0.54
  19   7  -2    8.36    0.51
  17  -7  -2    1.24    0.24
  17  -7  -2    0.93    0.21
 -17  -7   2    1.10    0.20
  17   7  -2    1.30    0.24
 -17   7   2    1.51    0.33
  17   7  -2    1.44    0.28
 -17   7   2    1.33    0.20
  17   7  -2    1.18    0.41
 -17   7   2    1.12    0.22
  17   7  -2    1.47    0.46
  15  -7  -2    0.08    0.13
 -15  -7   2    0.03    0.11
  15  -7  -2   -0.46    0.66
  15  -7  -2   -0.07    0.16
 -15   7   2    0.11    0.17
  15   7  -2    0.12    0.23
 -15   7   2    0.02    0.09
  15   7  -2   -0.02    0.14
  15   7  -2   -0.23    0.26
 -15   7   2    0.01    0.12
 -15   7   2    0.08    0.20
  15   7  -2    0.05    0.16
 -15   7   2    0.08    0.11
  15   7  -2    0.05    0.14
  13  -7  -2   19.54    0.76
 -13   7   2   19.92    0.65
  13   7  -2   19.57    1.35
  13   7  -2   19.72    1.33
  13   7  -2   20.18    0.87
  13   7  -2   19.21    0.72
  13   7  -2   18.98    0.89
 -13   7   2   18.32    0.99
 -13   7   2   19.26    0.80
 -13   7   2   20.44    0.77
 -13   7   2   20.86    1.13
  13   7  -2   17.78    0.75
  11  -7  -2    0.39    0.77
 -11  -7   2    0.28    0.14
 -11  -7   2    0.27    0.17
 -11   7   2    0.28    0.13
 -11   7   2    0.30    0.22
 -11   7   2    0.30    0.08
 -11   7   2    0.37    0.12
  11   7  -2    0.38    0.13
  11   7  -2    0.11    0.21
  11   7  -2    0.37    0.17
 -11   7   2    0.40    0.14
 -11   7   2    0.41    0.21
 -11   7   2    0.36    0.14
  11   7  -2    0.35    0.17
  11   7  -2    0.48    0.16
  11   7  -2    0.35    0.12
  11   7  -2    0.31    0.32
  11   7  -2    0.47    0.29
  -9  -7   2    0.08    0.11
   9  -7  -2    0.13    0.56
  -9  -7   2    0.05    0.11
  -9   7   2    0.06    0.07
   9   7  -2    0.04    0.19
   9   7  -2    0.11    0.08
   9   7  -2    0.17    0.10
  -9   7   2    0.11    0.08
  -9   7   2    0.06    0.09
   9   7  -2   -0.02    0.10
   9   7  -2    0.22    0.24
  -9   7   2    0.16    0.20
   9   7  -2    0.09    0.09
  -7  -7   2    0.08    0.10
  -7  -7   2    0.06    0.08
  -7   7   2    0.18    0.08
   7   7  -2    0.04    0.06
  -7   7   2    0.08    0.07
   7   7  -2    0.10    0.09
  -7   7   2    0.07    0.05
  -7   7   2    0.07    0.08
  -7   7   2    0.06    0.08
   7   7  -2    0.04    0.07
  -5  -7   2   15.75    0.64
  -5  -7   2   14.87    0.58
   5   7  -2   14.78    0.52
  -5   7   2   14.70    0.49
  -5   7   2   15.25    0.54
  -5   7   2   15.48    0.52
   5   7  -2   15.69    0.54
  -5   7   2   15.49    0.51
   5   7  -2   15.84    0.56
  -5   7   2   15.38    0.54
   5   7  -2   15.24    0.73
   5   7  -2   15.31    0.54
  -5   7   2   14.51    0.52
   5   7  -2   16.30    0.60
  -3  -7   2    0.79    0.17
  -3  -7   2    0.76    0.13
  -3   7   2    0.80    0.15
  -3   7   2    0.78    0.13
  -3   7   2    0.85    0.12
   3   7  -2    0.70    0.18
   3   7  -2    0.93    0.14
  -3   7   2    0.85    0.14
   3   7  -2    1.03    0.16
  -3   7   2    0.77    0.12
   3   7  -2    0.94    0.15
  -3   7   2    0.78    0.10
   3   7  -2    0.79    0.14
   3   7  -2    0.71    0.13
  -1  -7   2    2.41    0.17
  -1  -7   2    2.60    0.28
  -1  -7   2    2.86    0.22
  -1   7   2    2.36    0.11
   1   7  -2    2.70    0.32
  -1   7   2    2.89    0.27
   1   7  -2    2.60    0.18
  -1   7   2    2.80    0.19
   1   7  -2    2.92    0.26
   1   7  -2    2.80    0.23
   1   7  -2    2.52    0.24
  -1   7   2    2.80    0.25
  -1   7   2    2.66    0.22
  -1   7   2    2.40    0.20
  -1   7   2    2.87    0.24
  -1   7   2    2.76    0.24
   1  -7   2    0.04    0.06
   1  -7   2    0.04    0.08
  -1   7  -2    0.06    0.06
  -1   7  -2    0.06    0.06
  -1   7  -2    0.03    0.06
   1   7   2    0.06    0.06
   1   7   2    0.68    0.10
  -1   7  -2    0.04    0.07
  -1   7  -2    0.00    0.06
   1   7   2   -0.01    0.07
  -1   7  -2    0.04    0.08
   1   7   2    0.06    0.07
   1   7   2   -0.02    0.06
   1   7   2   -0.03    0.06
   1   7   2   -0.02    0.05
   1   7   2    0.01    0.05
  -1   7  -2    0.07    0.07
   3  -7   2    3.88    0.29
   3   7   2    3.75    0.28
  -3   7  -2    4.18    0.28
  -3   7  -2    3.74    0.24
   3   7   2    4.09    0.32
   3   7   2    3.77    0.24
  -3   7  -2    3.58    0.30
   3   7   2    3.95    0.32
  -3   7  -2    4.02    0.32
  -3   7  -2    3.95    0.25
   3   7   2    3.53    0.23
  -3   7  -2    3.84    0.34
   3   7   2    4.02    0.22
  -3   7  -2    3.74    0.30
   3   7   2    3.84    0.31
  -3   7  -2    3.45    0.27
   5  -7   2   10.63    0.44
  -5   7  -2    9.54    0.49
   5   7   2   11.10    0.43
  -5   7  -2   10.32    0.45
   5   7   2    9.92    0.45
  -5   7  -2   10.27    0.62
  -5   7  -2   10.22    0.44
  -5   7  -2   10.18    0.45
   5   7   2    9.84    0.50
   5   7   2    9.39    0.44
  -5   7  -2   10.30    0.41
  -5   7  -2   10.14    0.46
   5   7   2   10.28    0.48
  -5   7  -2   10.96    0.48
   5   7   2   10.02    0.60
  -7  -7  -2    3.48    0.50
   7  -7   2    2.95    0.29
   7   7   2    2.68    0.35
   7   7   2    3.02    0.38
   7   7   2    2.86    0.32
  -7   7  -2    3.02    0.29
   7   7   2    3.53    0.51
  -7   7  -2    3.78    0.53
   7   7   2    2.81    0.40
   7   7   2    2.72    0.27
  -7   7  -2    3.45    0.33
   7   7   2    3.13    0.35
  -7   7  -2    2.94    0.50
   7   7   2    2.63    0.28
  -7   7  -2    3.10    0.29
  -7   7  -2    3.48    0.45
  -7   7  -2    2.89    0.31
  -7   7  -2    2.97    0.34
  -7   7  -2    2.73    0.29
  -7   7  -2    2.82    0.50
  -7   7  -2    3.02    0.39
   7   7   2    3.03    0.34
  -9  -7  -2    0.08    0.14
   9  -7   2    0.25    0.13
   9  -7   2    0.19    0.15
   9  -7   2    0.14    0.12
  -9   7  -2   -0.02    0.19
   9   7   2    0.38    0.18
  -9   7  -2    0.21    0.15
   9   7   2    0.24    0.16
  -9   7  -2    0.29    0.13
   9   7   2    0.23    0.16
  -9   7  -2    0.13    0.21
   9   7   2    0.03    0.23
  -9   7  -2    0.16    0.13
  -9   7  -2    0.39    0.13
  -9   7  -2    0.21    0.19
   9   7   2   -0.03    0.13
  -9   7  -2    0.18    0.21
  -9   7  -2    0.10    0.14
  -9   7  -2   -0.03    0.24
  -9   7  -2    0.22    0.16
   9   7   2    0.17    0.13
  11  -7   2    2.01    0.25
  11  -7   2    2.38    0.30
 -11  -7  -2    2.15    0.44
  11   7   2    2.10    0.34
  11   7   2    2.40    0.31
 -11   7  -2    2.48    0.39
  11   7   2    2.13    0.31
 -11   7  -2    2.19    0.30
 -11   7  -2    2.25    0.51
 -11   7  -2    2.01    0.29
 -11   7  -2    2.02    0.30
 -11   7  -2    1.98    0.27
 -11   7  -2    2.13    0.45
  11   7   2    2.16    0.35
 -11   7  -2    2.00    0.28
  13  -7   2    0.68    0.19
 -13  -7  -2    0.52    0.28
  13   7   2    0.01    0.28
 -13   7  -2    0.49    0.24
 -13   7  -2    0.35    0.15
 -13   7  -2    0.40    0.16
  13   7   2    0.29    0.21
  13   7   2    0.48    0.18
  13   7   2    0.54    0.20
 -13   7  -2    0.44    0.25
 -15  -7  -2    0.27    0.20
 -15  -7  -2    0.41    0.28
  15   7   2    0.34    0.17
  15   7   2    0.22    0.33
 -15   7  -2    0.28    0.22
  15   7   2    0.29    0.15
  18  -8  -2   13.04    0.58
  18   8  -2   12.89    0.65
 -18   8   2   13.93    0.73
  18   8  -2   12.61    0.61
  18   8  -2   12.73    0.58
  18   8  -2   13.14    0.93
  18   8  -2    9.88    0.84
  16  -8  -2    0.75    0.19
 -16  -8   2    0.92    0.21
  16  -8  -2    0.29    0.72
  16  -8  -2    1.06    0.23
  16   8  -2    1.08    0.22
 -16   8   2    0.89    0.29
  16   8  -2    1.11    0.45
  16   8  -2    0.92    0.35
  16   8  -2    1.09    0.26
 -16   8   2    0.94    0.21
  14  -8  -2   21.79    0.81
  14  -8  -2   20.39    0.88
 -14   8   2   20.91    0.81
  14   8  -2   21.18    1.41
 -14   8   2   20.80    0.69
 -14   8   2   20.20    0.84
  14   8  -2   18.76    0.78
 -14   8   2   21.11    1.08
  14   8  -2   22.15    0.98
  14   8  -2   20.75    0.89
  14   8  -2   21.40    1.40
 -14   8   2   20.63    1.14
  12  -8  -2   -0.14    0.67
 -12  -8   2    0.55    0.20
  12   8  -2    0.60    0.29
 -12   8   2    0.62    0.18
  12   8  -2    0.33    0.16
  12   8  -2    0.48    0.20
 -12   8   2    0.62    0.12
 -12   8   2    0.54    0.26
  12   8  -2    0.61    0.21
  12   8  -2    0.69    0.38
  12   8  -2    0.69    0.36
 -12   8   2    0.82    0.20
  12   8  -2    0.71    0.17
 -12   8   2    0.60    0.23
 -10  -8   2    8.26    0.51
 -10  -8   2    7.73    0.50
  10  -8  -2    6.09    1.73
  10   8  -2    8.36    0.43
  10   8  -2    6.86    0.49
 -10   8   2    7.93    0.58
 -10   8   2    8.01    0.43
  10   8  -2    8.07    0.76
  10   8  -2    7.71    0.50
 -10   8   2    7.80    0.42
  10   8  -2    8.51    0.71
 -10   8   2    8.20    0.66
  10   8  -2    8.75    0.45
 -10   8   2    7.96    0.45
 -10   8   2    8.16    0.30
  10   8  -2    7.73    0.48
 -10   8   2    7.39    0.45
   8  -8  -2    0.88    0.86
  -8  -8   2    0.94    0.22
  -8  -8   2    0.60    0.17
   8   8  -2    1.13    0.37
   8   8  -2    0.88    0.17
   8   8  -2    0.89    0.18
  -8   8   2    0.93    0.19
  -8   8   2    0.69    0.16
   8   8  -2    0.95    0.19
  -8   8   2    1.14    0.26
  -8   8   2    0.64    0.12
   8   8  -2    0.88    0.29
   8   8  -2    0.65    0.19
  -8   8   2    1.04    0.28
  -8   8   2    0.68    0.18
  -8   8   2    0.99    0.18
   8   8  -2    0.76    0.23
   8   8  -2    0.79    0.16
  -6  -8   2   14.36    0.61
  -6  -8   2   15.47    0.68
  -6   8   2   14.80    0.57
  -6   8   2   14.90    0.57
  -6   8   2   14.86    0.53
   6   8  -2   14.76    0.56
   6   8  -2   15.20    0.58
  -6   8   2   15.05    0.55
   6   8  -2   14.73    0.58
  -6   8   2   14.60    0.52
   6   8  -2   15.05    0.62
  -4  -8   2    1.79    0.26
  -4  -8   2    1.73    0.21
   4   8  -2    1.93    0.24
   4   8  -2    1.80    0.23
   4   8  -2    1.74    0.22
   4   8  -2    1.82    0.21
  -4   8   2    1.91    0.21
  -4   8   2    2.14    0.24
  -4   8   2    1.71    0.21
   4   8  -2    1.34    0.26
   4   8  -2    1.60    0.19
  -4   8   2    1.69    0.14
  -2  -8   2    4.47    0.38
  -2  -8   2    4.40    0.26
  -2   8   2    4.07    0.25
   2   8  -2    4.34    0.34
  -2   8   2    4.44    0.24
   2   8  -2    4.01    0.35
  -2   8   2    4.26    0.25
  -2   8   2    4.46    0.27
   2   8  -2    4.35    0.28
  -2   8   2    4.63    0.27
   2   8  -2    4.09    0.28
  -2   8   2    4.33    0.31
   2   8  -2    4.64    0.27
   0  -8   2    2.09    0.21
   0  -8   2    1.75    0.24
   0   8   2    2.02    0.25
   0   8  -2    1.88    0.29
   0   8  -2    2.09    0.22
   0   8   2    2.13    0.22
   0   8   2    1.84    0.19
   0   8  -2    2.06    0.21
   0   8  -2    2.03    0.23
   0   8   2    2.01    0.16
   0   8  -2    2.36    0.25
   0   8   2    2.12    0.24
   0   8   2    1.88    0.22
   0   8   2    1.98    0.23
   2  -8   2    1.56    0.23
   2  -8   2    1.69    0.20
  -2   8  -2    1.70    0.20
  -2   8  -2    1.58    0.27
  -2   8  -2    1.50    0.19
   2   8   2    1.82    0.23
   2   8   2    1.55    0.23
   2   8   2    1.76    0.18
   2   8   2    1.49    0.18
  -2   8  -2    1.80    0.22
  -2   8  -2    1.93    0.23
   2   8   2    1.66    0.25
   2   8   2    2.17    0.25
   2   8   2    1.69    0.21
  -2   8  -2    1.74    0.20
  -2   8  -2    1.86    0.23
   4  -8   2    0.00    0.06
  -4   8  -2    0.06    0.16
   4   8   2    0.06    0.09
   4   8   2    0.06    0.09
  -4   8  -2    0.06    0.17
  -4   8  -2    0.03    0.08
  -4   8  -2    0.14    0.24
  -4   8  -2    0.10    0.10
   4   8   2   -0.07    0.16
  -4   8  -2    0.07    0.16
   4   8   2   -0.05    0.06
   4   8   2    0.22    0.20
   4   8   2    0.15    0.10
  -4   8  -2    0.16    0.09
  -4   8  -2   -0.05    0.07
  -4   8  -2    0.02    0.09
  -4   8  -2    0.02    0.07
   4   8   2    0.08    0.09
  -4   8  -2    0.17    0.09
   4   8   2    0.13    0.14
  -4   8  -2    0.01    0.08
   4   8   2    0.04    0.07
   4   8   2    0.07    0.11
   6  -8   2    6.75    0.37
  -6  -8  -2    6.42    0.60
   6   8   2    6.48    0.36
   6   8   2    6.51    0.44
  -6   8  -2    6.84    0.63
   6   8   2    7.26    0.63
  -6   8  -2    6.19    0.53
   6   8   2    6.43    0.38
  -6   8  -2    6.95    0.40
   6   8   2    6.43    0.53
   6   8   2    6.41    0.44
   6   8   2    7.02    0.42
  -6   8  -2    6.17    0.64
   6   8   2    6.52    0.50
  -6   8  -2    6.84    0.35
  -6   8  -2    6.47    0.49
  -6   8  -2    6.88    0.41
  -6   8  -2    6.81    0.63
  -6   8  -2    6.73    0.40
   6   8   2    6.18    0.60
  -6   8  -2    6.48    0.40
   6   8   2    6.63    0.64
   6   8   2    6.92    0.49
  -6   8  -2    6.62    0.52
  -6   8  -2    5.63    0.51
  -6   8  -2    6.19    0.41
  -6   8  -2    7.27    0.63
  -6   8  -2    6.68    0.37
   8  -8   2    0.06    0.10
  -8  -8  -2   -0.03    0.22
  -8  -8  -2    0.07    0.12
   8   8   2   -0.02    0.12
  -8   8  -2    0.17    0.21
   8   8   2    0.01    0.15
   8   8   2   -0.05    0.11
  -8   8  -2   -0.06    0.09
  -8   8  -2   -0.13    0.23
  -8   8  -2    0.00    0.14
   8   8   2    0.33    0.15
  -8   8  -2    0.14    0.13
   8   8   2    0.07    0.20
   8   8   2    0.19    0.16
  -8   8  -2   -0.04    0.11
  -8   8  -2   -0.03    0.16
   8   8   2   -0.05    0.10
  -8   8  -2    0.06    0.12
  -8   8  -2   -0.13    0.19
  -8   8  -2   -0.08    0.19
  -8   8  -2   -0.04    0.09
   8   8   2    0.17    0.27
   8   8   2   -0.04    0.12
 -10  -8  -2    0.24    0.23
  10  -8   2    0.27    0.14
  10  -8   2    0.28    0.14
 -10   8  -2    0.41    0.16
  10   8   2    0.33    0.23
 -10   8  -2    0.48    0.24
 -10   8  -2    0.20    0.29
  10   8   2   -0.09    0.31
 -10   8  -2    0.25    0.14
 -10   8  -2    0.43    0.17
 -10   8  -2    0.30    0.16
 -10   8  -2    0.37    0.25
  10   8   2    0.52    0.18
  10   8   2    0.19    0.16
  10   8   2    0.28    0.18
 -10   8  -2    0.15    0.11
  10   8   2    0.34    0.17
  12  -8   2    2.15    0.28
  12  -8   2    2.35    0.30
 -12  -8  -2    1.97    0.43
 -12   8  -2    2.30    0.28
 -12   8  -2    2.07    0.28
  12   8   2    2.44    0.35
  12   8   2    2.58    0.34
 -12   8  -2    2.66    0.49
  12   8   2    2.53    0.37
 -12   8  -2    2.64    0.42
  12   8   2    2.22    0.31
 -14  -8  -2    1.77    0.39
 -14  -8  -2    1.18    0.30
  14   8   2    1.31    0.25
 -14   8  -2    0.85    0.26
  14   8   2    1.56    0.24
  14   8   2    0.19    0.34
 -16  -8  -2    0.31    0.18
 -16   8  -2    0.19    0.15
  16   8   2   -0.16    0.25
  17  -9  -2    2.15    0.28
  17   9  -2    2.24    0.46
  17   9  -2    2.87    0.52
  17   9  -2    2.09    0.27
  17   9  -2    3.06    0.35
 -17   9   2    3.26    0.44
 -15  -9   2    6.05    0.46
  15  -9  -2    5.90    0.46
  15   9  -2    6.40    0.48
 -15   9   2    6.46    0.50
 -15   9   2    6.49    0.35
  15   9  -2    6.42    0.44
  15   9  -2    5.70    0.47
  15   9  -2    6.49    0.72
 -15   9   2    6.77    0.58
  15   9  -2    6.14    0.81
 -15   9   2    5.88    0.49
 -13  -9   2    0.06    0.16
  13  -9  -2    0.19    0.68
  13   9  -2    0.02    0.27
 -13   9   2    0.10    0.14
  13   9  -2    0.21    0.15
  13   9  -2    0.29    0.15
  13   9  -2    0.21    0.25
 -13   9   2   -0.05    0.13
  13   9  -2    0.18    0.18
 -13   9   2    0.11    0.22
  13   9  -2    0.01    0.16
 -13   9   2    0.09    0.09
 -13   9   2    0.50    0.25
 -11  -9   2    2.22    0.34
  11  -9  -2    0.79    0.84
  11   9  -2    1.81    0.26
 -11   9   2    2.15    0.19
 -11   9   2    2.25    0.31
 -11   9   2    2.09    0.28
  11   9  -2    2.66    0.37
  11   9  -2    2.30    0.46
  11   9  -2    2.51    0.36
 -11   9   2    2.13    0.43
  11   9  -2    1.94    0.26
 -11   9   2    2.14    0.39
  11   9  -2    3.08    0.62
  11   9  -2    2.35    0.32
  -9  -9   2    6.15    0.54
  -9  -9   2    5.75    0.50
   9  -9  -2    4.64    1.74
  -9   9   2    5.54    0.24
  -9   9   2    6.22    0.40
  -9   9   2    5.53    0.35
   9   9  -2    6.15    0.49
   9   9  -2    5.51    0.43
   9   9  -2    6.96    0.76
   9   9  -2    6.29    0.67
   9   9  -2    5.78    0.42
  -9   9   2    6.17    0.52
   9   9  -2    5.17    0.41
   9   9  -2    6.15    0.53
  -9   9   2    6.36    0.59
  -9   9   2    5.29    0.44
   9   9  -2    5.70    0.49
  -7  -9   2    0.09    0.13
   7  -9  -2   -0.10    0.77
  -7  -9   2   -0.02    0.11
  -7   9   2   -0.13    0.09
   7   9  -2    0.17    0.22
   7   9  -2    0.05    0.10
   7   9  -2   -0.13    0.12
  -7   9   2    0.01    0.09
   7   9  -2    0.01    0.09
  -7   9   2    0.09    0.21
   7   9  -2    0.03    0.09
   7   9  -2    0.07    0.18
   7   9  -2    0.01    0.16
  -7   9   2    0.25    0.14
  -7   9   2    0.04    0.09
  -7   9   2    0.17    0.21
   7   9  -2    0.18    0.22
   7   9  -2   -0.11    0.08
  -7   9   2    0.03    0.06
  -5  -9   2   37.02    1.18
   5  -9  -2   47.80    4.12
  -5  -9   2   41.38    1.31
   5   9  -2   39.22    1.12
  -5   9   2   39.66    1.71
   5   9  -2   36.66    1.65
   5   9  -2   38.31    1.21
  -5   9   2   39.36    1.08
  -5   9   2   39.16    1.12
   5   9  -2   35.67    1.07
   5   9  -2   38.61    1.72
   5   9  -2   38.80    1.11
   5   9  -2   38.24    1.91
  -5   9   2   36.52    1.49
  -5   9   2   37.16    1.23
  -5   9   2   36.19    1.47
   5   9  -2   37.83    1.52
   5   9  -2   39.10    1.14
  -5   9   2   38.42    1.12
  -3  -9   2    0.25    0.14
  -3  -9   2    0.11    0.09
  -3   9   2    0.28    0.16
  -3   9   2    0.24    0.11
  -3   9   2    0.27    0.06
   3   9  -2    0.39    0.13
   3   9  -2    0.27    0.12
  -3   9   2    0.24    0.20
   3   9  -2    0.14    0.14
  -3   9   2    0.29    0.12
  -3   9   2    0.24    0.10
   3   9  -2    0.35    0.12
  -3   9   2    0.32    0.10
   3   9  -2    0.40    0.13
  -1  -9   2    2.77    0.26
  -1  -9   2    2.65    0.32
  -1   9   2    2.73    0.32
  -1   9   2    2.69    0.27
  -1   9   2    2.73    0.16
   1   9  -2    2.69    0.25
  -1   9   2    2.75    0.26
  -1   9   2    2.47    0.27
   1   9  -2    2.54    0.28
  -1   9   2    3.05    0.30
   1   9  -2    3.16    0.31
   1   9  -2    2.93    0.28
   1   9  -2    2.53    0.26
   1   9  -2    2.72    0.36
   1  -9   2   25.77    0.93
   1  -9   2   29.38    0.82
   1   9   2   24.64    1.13
   1   9   2   26.00    0.86
  -1   9  -2   26.79    0.87
   1   9   2   27.60    0.90
  -1   9  -2   24.71    1.35
   1   9   2   27.39    1.32
  -1   9  -2   28.17    0.83
  -1   9  -2   24.82    1.12
  -1   9  -2   27.27    0.84
   1   9   2   26.44    1.30
  -1   9  -2   27.62    1.34
   1   9   2   27.54    0.86
  -1   9  -2   26.84    0.87
  -1   9  -2   27.14    1.36
   1   9   2   27.97    1.05
   1   9   2   27.75    0.77
   1   9   2   26.51    0.83
   1   9   2   25.53    0.97
  -1   9  -2   27.94    0.89
  -1   9  -2   25.63    1.32
   3  -9   2   13.92    0.53
   3   9   2   13.20    0.54
  -3   9  -2   13.47    0.58
  -3   9  -2   13.74    0.88
  -3   9  -2   12.86    0.75
   3   9   2   12.42    0.63
   3   9   2   13.05    0.69
  -3   9  -2   13.24    0.53
  -3   9  -2   13.26    0.88
  -3   9  -2   13.09    0.77
   3   9   2   13.59    0.90
  -3   9  -2   12.00    0.74
   3   9   2   12.42    0.70
  -3   9  -2   12.53    0.55
   3   9   2   12.86    0.75
   3   9   2   13.91    0.99
  -3   9  -2   13.42    0.56
  -3   9  -2   13.49    0.56
  -3   9  -2   12.88    0.88
   3   9   2   12.29    0.63
   3   9   2   14.21    0.51
   3   9   2   14.17    0.58
   3   9   2   12.51    0.85
   3   9   2   12.77    0.58
   3   9   2   12.38    0.52
  -3   9  -2   12.53    0.88
   5  -9   2    1.44    0.22
  -5   9  -2    1.11    0.18
  -5   9  -2    1.34    0.37
  -5   9  -2    1.24    0.30
   5   9   2    1.08    0.22
   5   9   2    1.69    0.38
  -5   9  -2    0.92    0.31
   5   9   2    1.28    0.19
  -5   9  -2    1.38    0.22
   5   9   2    1.31    0.23
   5   9   2    1.32    0.30
  -5   9  -2    1.08    0.21
  -5   9  -2    1.28    0.35
   5   9   2    1.28    0.39
   5   9   2    1.50    0.29
   5   9   2    1.42    0.27
  -5   9  -2    1.19    0.36
  -5   9  -2    0.89    0.30
  -5   9  -2    1.28    0.23
   5   9   2    1.08    0.24
  -5   9  -2    1.13    0.27
   5   9   2    1.29    0.35
  -5   9  -2    0.93    0.26
   5   9   2    1.15    0.21
  -5   9  -2    0.92    0.18
   5   9   2    1.21    0.29
  -5   9  -2    1.34    0.20
   7  -9   2    8.92    0.45
  -7  -9  -2    9.10    0.57
  -7  -9  -2    9.06    0.75
   7   9   2    8.05    0.56
   7   9   2    7.14    0.72
   7   9   2    7.79    0.45
   7   9   2    8.52    0.45
  -7   9  -2    8.54    0.72
   7   9   2    9.22    0.51
  -7   9  -2    8.19    0.73
   7   9   2    6.88    0.50
  -7   9  -2    8.44    0.58
   7   9   2    8.07    0.52
   7   9   2    8.18    0.76
  -7   9  -2    8.09    0.46
  -7   9  -2    8.61    0.45
  -7   9  -2    8.01    0.62
  -7   9  -2    8.29    0.73
   7   9   2    8.37    0.71
   7   9   2    8.56    0.59
  -7   9  -2    8.31    0.76
  -7   9  -2    8.93    0.48
  -7   9  -2    8.77    0.63
  -7   9  -2    8.49    0.42
  -9  -9  -2    0.11    0.16
   9  -9   2   -0.04    0.10
   9   9   2    0.27    0.16
   9   9   2    0.15    0.18
   9   9   2    0.22    0.26
  -9   9  -2   -0.12    0.10
  -9   9  -2   -0.11    0.10
   9   9   2   -0.10    0.11
   9   9   2   -0.09    0.13
  -9   9  -2   -0.02    0.11
  -9   9  -2   -0.07    0.21
  -9   9  -2   -0.01    0.24
   9   9   2    0.03    0.20
  -9   9  -2   -0.19    0.11
   9   9   2    0.09    0.34
  -9   9  -2    0.12    0.14
  -9   9  -2    0.14    0.21
 -11  -9  -2    0.20    0.24
  11  -9   2    0.54    0.16
  11  -9   2    0.30    0.16
 -11   9  -2    0.05    0.28
  11   9   2    0.11    0.15
 -11   9  -2    0.42    0.16
  11   9   2    0.41    0.19
 -11   9  -2   -0.05    0.15
  11   9   2    0.41    0.18
  11   9   2   -0.08    0.31
  11   9   2    0.52    0.22
 -11   9  -2    0.12    0.17
 -11   9  -2    0.34    0.22
 -11   9  -2    0.23    0.15
 -11   9  -2    0.13    0.24
  11   9   2    0.41    0.25
 -13  -9  -2    9.74    0.71
  13   9   2    8.95    0.54
 -13   9  -2    8.50    0.69
  13   9   2    8.26    0.47
  13   9   2    9.37    0.56
 -15  -9  -2    0.25    0.18
  15   9   2    0.11    0.27
 -15   9  -2    0.13    0.16
  15   9   2    0.09    0.14
  16 -10  -2    0.36    0.59
  16  10  -2    1.41    0.38
 -16  10   2    1.05    0.29
  16  10  -2    1.21    0.23
  16  10  -2    1.19    0.24
  14 -10  -2    0.21    0.15
  14 -10  -2    0.40    0.69
 -14 -10   2    0.10    0.15
  14  10  -2    0.31    0.20
  14  10  -2    0.55    0.29
  14  10  -2    0.50    0.18
 -14  10   2    0.26    0.14
  14  10  -2    0.36    0.16
 -14  10   2    0.50    0.23
 -14  10   2    0.08    0.09
 -14  10   2   -0.07    0.15
 -12 -10   2    2.11    0.34
  12 -10  -2    0.53    0.85
 -12  10   2    2.44    0.41
 -12  10   2    2.34    0.30
  12  10  -2    1.72    0.28
  12  10  -2    2.54    0.33
  12  10  -2    2.24    0.45
 -12  10   2    1.65    0.36
  12  10  -2    2.60    0.59
  12  10  -2    2.60    0.38
 -12  10   2    1.78    0.30
  12  10  -2    2.53    0.35
 -12  10   2    2.07    0.21
 -10 -10   2    0.49    0.20
  10 -10  -2    0.02    0.64
  10 -10  -2    0.15    1.70
 -10  10   2    0.35    0.10
 -10  10   2    0.42    0.16
 -10  10   2    0.57    0.25
  10  10  -2    0.30    0.16
  10  10  -2    0.71    0.33
  10  10  -2    0.65    0.20
  10  10  -2    0.57    0.20
 -10  10   2    0.35    0.15
  10  10  -2    0.57    0.30
  10  10  -2    0.22    0.14
  10  10  -2    0.36    0.21
 -10  10   2    0.54    0.25
   8 -10  -2    8.35    2.13
  -8 -10   2    8.28    0.53
  -8 -10   2    9.24    0.58
  -8  10   2    9.17    0.76
   8  10  -2    9.40    0.51
  -8  10   2    8.94    0.50
  -8  10   2    8.57    0.45
  -8  10   2    8.78    0.54
   8  10  -2    9.91    0.68
   8  10  -2    9.64    0.84
  -8  10   2    8.79    0.65
   8  10  -2    9.35    0.53
   8  10  -2    8.54    0.69
  -8  10   2    9.91    0.51
  -8  10   2    9.42    0.33
   8  10  -2    9.57    0.75
   8  10  -2    8.88    0.54
   8  10  -2    8.87    0.48
   6 -10  -2   13.75    2.27
  -6 -10   2   12.97    0.63
  -6 -10   2   14.98    0.72
  -6  10   2   12.84    0.57
   6  10  -2   13.69    1.01
  -6  10   2   13.41    0.60
  -6  10   2   13.34    0.59
   6  10  -2   12.99    0.88
  -6  10   2   13.77    0.41
   6  10  -2   13.63    0.60
  -6  10   2   13.05    0.70
   6  10  -2   13.88    0.81
   6  10  -2   13.01    0.59
   6  10  -2   12.95    0.86
  -6  10   2   13.79    0.90
  -6  10   2   12.35    0.77
   6  10  -2   13.26    0.90
   6  10  -2   13.87    0.61
   6  10  -2   13.24    0.64
  -6  10   2   13.21    0.56
   4 -10  -2   10.01    2.34
  -4 -10   2    6.79    0.34
  -4 -10   2    7.35    0.49
   4  10  -2    6.76    0.59
  -4  10   2    6.50    0.26
  -4  10   2    6.85    0.53
   4  10  -2    6.89    0.41
   4  10  -2    6.94    0.61
  -4  10   2    6.68    0.39
   4  10  -2    7.08    0.57
  -4  10   2    6.66    0.38
  -4  10   2    6.37    0.48
  -4  10   2    7.30    0.41
  -4  10   2    6.80    0.39
  -4  10   2    7.54    0.77
   4  10  -2    6.71    0.68
   4  10  -2    7.21    0.42
  -4  10   2    6.72    0.61
   4  10  -2    6.45    0.37
   4  10  -2    6.43    0.43
   4  10  -2    6.37    0.61
   2 -10  -2   -0.32    1.22
  -2 -10   2    0.30    0.10
  -2 -10   2    0.43    0.17
  -2  10   2    0.23    0.12
   2  10  -2    0.25    0.11
   2  10  -2    0.27    0.16
   2  10  -2    0.32    0.12
  -2  10   2    0.16    0.19
  -2  10   2    0.27    0.08
   2  10  -2    0.21    0.28
   2  10  -2    0.27    0.12
   2  10  -2    0.32    0.13
   2  10  -2    0.43    0.22
  -2  10   2    0.38    0.12
   2  10  -2    0.55    0.16
  -2  10   2    0.62    0.25
  -2  10   2    0.39    0.23
   2  10  -2    0.01    0.20
   2  10  -2    0.34    0.23
  -2  10   2    0.39    0.17
   2  10  -2    0.36    0.20
  -2  10   2    0.44    0.13
  -2  10   2    0.22    0.11
  -2  10   2    0.32    0.28
   0 -10   2    3.35    0.37
   0 -10   2    3.39    0.30
   0 -10  -2    0.36    1.31
   0  10   2    3.57    0.35
   0  10  -2    3.54    0.52
   0  10  -2    3.75    0.58
   0  10   2    3.15    0.31
   0  10   2    3.98    0.55
   0  10   2    3.15    0.45
   0  10  -2    3.22    0.33
   0  10  -2    3.29    0.45
   0  10   2    2.77    0.37
   0  10   2    2.95    0.30
   0  10  -2    3.40    0.32
   0  10  -2    2.84    0.28
   0  10   2    3.49    0.38
   0  10  -2    3.69    0.36
   0  10   2    3.63    0.53
   0  10  -2    3.25    0.32
   0  10   2    3.07    0.34
   0  10  -2    3.24    0.53
   0  10  -2    2.40    0.38
   0  10   2    3.30    0.21
   0  10   2    3.95    0.69
   2 -10   2   10.20    0.46
  -2  10  -2    9.67    0.77
   2  10   2   10.22    0.42
  -2  10  -2    9.52    0.63
  -2  10  -2   10.25    0.46
  -2  10  -2   10.06    0.76
  -2  10  -2    9.13    0.66
   2  10   2    9.80    0.56
   2  10   2    8.90    0.47
   2  10   2    8.91    0.59
  -2  10  -2    9.72    0.78
  -2  10  -2    8.48    0.72
  -2  10  -2    9.12    0.48
   2  10   2    9.53    0.75
  -2  10  -2    8.64    0.64
  -2  10  -2    9.87    0.49
   2  10   2    9.43    0.73
   2  10   2   10.09    0.87
   2  10   2    9.00    0.56
  -2  10  -2    9.59    0.50
   2  10   2    9.78    0.50
   2  10   2    9.62    0.51
   2  10   2    8.99    0.65
   2  10   2    9.38    0.55
  -2  10  -2   10.04    0.48
  -4 -10  -2    0.33    0.17
   4 -10   2    0.24    0.12
  -4  10  -2    0.28    0.14
   4  10   2    0.46    0.19
   4  10   2    0.14    0.16
   4  10   2    0.32    0.12
  -4  10  -2    0.07    0.17
  -4  10  -2    0.16    0.13
   4  10   2    0.44    0.29
   4  10   2    0.17    0.16
  -4  10  -2    0.50    0.21
  -4  10  -2    0.39    0.15
  -4  10  -2    0.47    0.27
   4  10   2    0.43    0.24
  -4  10  -2    0.23    0.20
   4  10   2    0.37    0.17
   4  10   2    0.49    0.16
   4  10   2    0.53    0.20
  -4  10  -2    0.39    0.27
   4  10   2    0.25    0.14
  -4  10  -2    0.17    0.26
   4  10   2    0.49    0.26
  -4  10  -2    0.41    0.15
  -4  10  -2    0.32    0.23
  -4  10  -2    0.18    0.12
  -4  10  -2    0.39    0.25
   4  10   2    0.58    0.23
   6 -10   2   40.24    1.15
  -6 -10  -2   41.68    1.44
  -6 -10  -2   40.55    1.86
  -6  10  -2   39.15    1.84
  -6  10  -2   39.94    1.23
  -6  10  -2   37.56    1.61
   6  10   2   39.35    1.36
  -6  10  -2   41.13    1.92
   6  10   2   39.73    1.28
  -6  10  -2   38.21    1.18
  -6  10  -2   39.54    1.63
   6  10   2   39.20    1.45
   6  10   2   40.07    2.04
  -6  10  -2   41.47    1.22
   6  10   2   39.82    1.83
   6  10   2   41.33    1.19
   6  10   2   41.95    1.23
  -6  10  -2   40.65    1.65
  -6  10  -2   39.90    1.92
   6  10   2   39.67    1.65
   6  10   2   40.38    1.88
  -8 -10  -2    5.37    0.55
  -8 -10  -2    6.14    0.71
   8 -10   2    5.60    0.43
   8  10   2    6.90    0.87
  -8  10  -2    5.99    0.74
   8  10   2    6.43    0.52
   8  10   2    5.91    0.56
  -8  10  -2    6.12    0.48
   8  10   2    6.68    0.75
   8  10   2    5.90    0.49
  -8  10  -2    5.62    0.70
   8  10   2    5.07    0.43
  -8  10  -2    5.47    0.38
  -8  10  -2    6.01    0.49
  -8  10  -2    6.29    0.73
  -8  10  -2    5.28    0.45
   8  10   2    4.96    0.41
   8  10   2    6.06    0.44
  -8  10  -2    6.66    0.66
  10 -10   2    9.02    0.48
 -10 -10  -2    9.77    0.80
  10 -10   2   10.12    0.52
 -10 -10  -2    8.20    0.59
 -10  10  -2    9.45    0.79
 -10  10  -2    9.41    0.50
  10  10   2    9.95    0.60
  10  10   2    9.56    0.81
 -10  10  -2    9.69    0.51
 -10  10  -2   10.20    0.70
  10  10   2    9.58    0.54
 -10  10  -2    9.33    0.56
  10  10   2    8.87    0.71
  10  10   2    9.68    0.55
 -10  10  -2   10.86    0.85
  10  10   2    9.86    0.62
 -10  10  -2    8.52    0.50
  12 -10   2    0.37    0.69
 -12 -10  -2    0.24    0.26
  12  10   2    0.16    0.21
  12  10   2    0.25    0.13
  12  10   2   -0.07    0.33
 -12  10  -2   -0.04    0.17
  12  10   2    0.33    0.15
  12  10   2    0.01    0.15
 -14 -10  -2    1.06    0.27
 -14 -10  -2    0.50    0.19
  14  10   2    0.88    0.19
  14  10   2    1.01    0.17
 -14  10  -2    0.53    0.20
  14  10   2    0.87    0.36
  15 -11  -2   -0.10    0.48
 -15  11   2    1.55    0.33
  15  11  -2    1.19    0.22
  15  11  -2    1.19    0.35
  15  11  -2    0.98    0.21
 -13 -11   2    0.49    0.19
  13 -11  -2   -0.24    0.55
 -13  11   2    0.56    0.25
  13  11  -2    0.43    0.18
 -13  11   2    0.52    0.13
  13  11  -2    0.72    0.20
  13  11  -2    0.85    0.31
 -13  11   2    0.74    0.19
  13  11  -2    0.45    0.22
 -11 -11   2    3.53    0.45
 -11  11   2    3.56    0.23
 -11  11   2    3.25    0.34
  11  11  -2    4.01    0.57
  11  11  -2    4.25    0.70
  11  11  -2    4.10    0.42
 -11  11   2    3.24    0.51
  11  11  -2    2.82    0.34
  11  11  -2    3.67    0.40
 -11  11   2    4.62    0.58
 -11  11   2    4.15    0.41
   9 -11  -2    5.95    1.97
  -9 -11   2   12.17    0.69
   9 -11  -2   10.50    0.49
  -9  11   2   11.25    0.82
   9  11  -2   11.77    0.87
  -9  11   2   12.28    0.78
  -9  11   2   11.06    0.58
   9  11  -2   11.75    0.64
   9  11  -2   10.82    0.56
   9  11  -2   11.95    0.98
  -9  11   2   11.51    0.42
   9  11  -2   12.21    0.60
  -7 -11   2    7.30    0.63
   7 -11  -2    3.35    1.42
   7  11  -2    7.15    0.73
   7  11  -2    7.85    0.47
   7  11  -2    6.24    0.47
  -7  11   2    7.21    0.44
  -7  11   2    7.21    0.66
   7  11  -2    7.19    0.47
  -7  11   2    7.13    0.30
   7  11  -2    7.17    0.62
   7  11  -2    7.28    0.68
  -7  11   2    7.64    0.50
  -7  11   2    7.33    0.59
   7  11  -2    7.09    0.62
   5 -11  -2   -0.51    1.31
  -5 -11   2    0.41    0.20
   5 -11  -2    0.55    0.79
  -5  11   2    0.51    0.26
   5  11  -2    0.35    0.15
   5  11  -2    0.73    0.33
  -5  11   2    0.69    0.28
  -5  11   2    0.79    0.12
  -5  11   2    0.71    0.18
  -5  11   2    0.49    0.14
   5  11  -2    0.55    0.17
  -5  11   2    0.42    0.31
  -5  11   2    0.73    0.21
  -5  11   2    0.63    0.16
   5  11  -2    0.76    0.29
   5  11  -2    0.80    0.27
  -5  11   2    0.43    0.16
   5  11  -2    0.60    0.27
   3 -11  -2    0.20    0.15
  -3 -11   2    0.15    0.10
   3 -11  -2   -0.16    1.25
  -3 -11   2    0.26    0.16
   3  11  -2   -0.02    0.22
  -3  11   2    0.10    0.11
  -3  11   2    0.12    0.20
   3  11  -2   -0.05    0.16
   3  11  -2    0.04    0.18
  -3  11   2    0.04    0.11
  -3  11   2   -0.15    0.10
  -3  11   2    0.05    0.13
  -3  11   2    0.00    0.17
   3  11  -2    0.19    0.22
  -3  11   2    0.04    0.24
  -3  11   2    0.09    0.22
  -3  11   2    0.05    0.10
   3  11  -2    0.05    0.10
  -3  11   2    0.09    0.07
   3  11  -2    0.07    0.12
   3  11  -2   -0.05    0.10
   3  11  -2    0.12    0.20
   3  11  -2   -0.04    0.10
  -1 -11   2    0.96    0.19
  -1 -11   2    0.70    0.22
   1 -11  -2   -0.55    1.32
   1 -11  -2    1.05    0.24
   1  11  -2    1.10    0.35
  -1  11   2    0.80    0.14
  -1  11   2    0.88    0.29
   1  11  -2    0.49    0.26
   1  11  -2    0.76    0.16
   1  11  -2    0.98    0.33
  -1  11   2    0.66    0.34
   1  11  -2    0.76    0.19
   1  11  -2    0.78    0.37
  -1  11   2    0.78    0.18
  -1  11   2    0.79    0.22
   1  11  -2    0.61    0.17
  -1  11   2    0.92    0.29
  -1  11   2    0.96    0.21
   1  11  -2    0.97    0.21
  -1  11   2    0.69    0.17
  -1  11   2    0.68    0.19
   1  11  -2    0.60    0.27
  -1  11   2    0.75    0.21
   1  11  -2    0.88    0.30
  -1  11   2    0.96    0.31
   1 -11   2    8.44    0.43
  -1 -11  -2    9.38    0.58
   1  11   2    8.52    0.47
  -1  11  -2    8.28    0.74
  -1  11  -2    7.79    0.44
   1  11   2    8.30    0.45
   1  11   2    7.74    0.53
   1  11   2    8.85    0.40
  -1  11  -2    7.63    0.46
  -1  11  -2    8.59    0.75
   1  11   2    7.89    0.55
  -1  11  -2    8.22    0.62
   1  11   2    8.39    0.72
  -1  11  -2    8.24    0.47
   1  11   2    7.84    0.61
  -1  11  -2    8.58    0.49
  -1  11  -2    8.00    0.69
  -1  11  -2    7.75    0.42
   1  11   2    8.81    0.71
   1  11   2    8.44    0.83
   1  11   2    7.88    0.51
   3 -11   2    1.38    0.23
  -3 -11  -2    1.34    0.30
   3  11   2    1.46    0.25
   3  11   2    1.02    0.27
  -3  11  -2    1.11    0.32
  -3  11  -2    1.16    0.31
   3  11   2    1.63    0.26
   3  11   2    1.34    0.20
   3  11   2    1.45    0.41
  -3  11  -2    1.80    0.44
   3  11   2    1.35    0.26
   3  11   2    1.42    0.33
  -3  11  -2    1.31    0.21
   3  11   2    1.37    0.28
  -3  11  -2    1.49    0.34
   3  11   2    1.71    0.40
   3  11   2    1.31    0.37
  -3  11  -2    1.36    0.24
  -3  11  -2    1.39    0.25
  -3  11  -2    1.44    0.26
  -3  11  -2    1.66    0.39
  -3  11  -2    1.12    0.35
  -5 -11  -2    0.77    0.24
   5 -11   2    0.63    0.18
  -5 -11  -2    0.91    0.34
  -5  11  -2    0.48    0.18
   5  11   2    0.62    0.27
   5  11   2    0.91    0.25
   5  11   2    0.71    0.21
   5  11   2    0.82    0.21
  -5  11  -2    0.61    0.18
  -5  11  -2    0.53    0.27
   5  11   2    0.60    0.22
  -5  11  -2    0.50    0.20
   5  11   2    0.87    0.18
  -5  11  -2    0.69    0.19
  -5  11  -2    0.71    0.34
   5  11   2    1.17    0.41
   5  11   2    0.97    0.23
  -5  11  -2    0.79    0.33
  -5  11  -2    1.07    0.30
   5  11   2    0.74    0.25
  -5  11  -2    0.86    0.30
   5  11   2    0.62    0.28
  -5  11  -2    0.74    0.17
   7 -11   2   42.81    1.22
  -7 -11  -2   44.82    1.54
  -7 -11  -2   34.95    1.81
  -7  11  -2   39.97    1.87
  -7  11  -2   41.96    1.98
  -7  11  -2   41.84    1.29
   7  11   2   42.65    1.25
  -7  11  -2   43.63    2.00
  -7  11  -2   42.23    1.26
   7  11   2   41.14    1.88
  -7  11  -2   42.37    1.27
   7  11   2   42.42    1.41
   7  11   2   43.02    1.27
  -7  11  -2   43.40    1.70
   7  11   2   43.03    1.71
  -7  11  -2   41.86    1.69
   7  11   2   45.24    1.37
   7  11   2   42.34    1.50
   7  11   2   42.06    2.11
   9 -11   2    8.44    0.46
   9 -11   2    7.87    0.45
  -9 -11  -2    6.92    0.63
  -9  11  -2    7.98    0.52
   9  11   2    8.30    0.53
  -9  11  -2    7.73    0.69
  -9  11  -2    8.19    0.61
  -9  11  -2    7.90    0.69
  -9  11  -2    7.54    0.46
  -9  11  -2    6.62    0.43
   9  11   2    8.01    0.56
   9  11   2    6.56    0.68
   9  11   2    8.13    0.51
   9  11   2    7.63    0.48
  -9  11  -2    6.75    0.45
   9  11   2    8.13    0.67
  11 -11   2    0.14    0.66
 -11 -11  -2    0.26    0.26
 -11  11  -2    0.09    0.20
 -11  11  -2   -0.07    0.22
  11  11   2   -0.07    0.12
  11  11   2    0.05    0.16
  11  11   2   -0.13    0.16
  11  11   2   -0.08    0.12
 -13 -11  -2    2.08    0.34
 -13  11  -2    1.23    0.27
  13  11   2    1.74    0.21
  13  11   2    2.06    0.23
  13  11   2    1.63    0.22
  14 -12  -2    0.10    0.55
  14  12  -2    1.29    0.22
  14  12  -2    1.68    0.38
  14  12  -2    1.03    0.21
 -14  12   2    1.44    0.30
  12 -12  -2   -0.15    0.60
  12  12  -2    1.16    0.36
 -12  12   2    1.69    0.35
  12  12  -2    2.04    0.31
  10 -12  -2   -0.14    0.65
 -10 -12   2   -0.07    0.15
  10 -12  -2   -0.14    1.35
 -10 -12   2   -0.15    0.13
  10  12  -2   -0.03    0.14
  10  12  -2   -0.04    0.18
 -10  12   2   -0.02    0.08
  10  12  -2   -0.02    0.13
  10  12  -2    0.16    0.25
 -10  12   2    0.10    0.21
 -10  12   2    0.13    0.22
 -10  12   2    0.25    0.16
 -10  12   2   -0.07    0.25
  -8 -12   2    8.82    0.59
   8 -12  -2    3.77    1.60
   8 -12  -2    7.40    0.41
   8  12  -2    8.51    0.64
  -8  12   2    8.11    0.48
  -8  12   2    4.56    0.76
   8  12  -2    8.74    0.51
   8  12  -2    7.84    0.70
   8  12  -2    8.25    0.78
  -8  12   2    7.59    0.62
  -8  12   2    8.77    0.53
   8  12  -2    8.31    0.68
  -8  12   2    7.98    0.35
   8  12  -2    7.98    0.52
  -8  12   2    8.81    0.72
   8  12  -2    7.72    0.47
  -6 -12   2   12.60    0.70
  -6  12   2   11.79    0.86
  -6  12   2   11.55    0.43
  -6  12   2   11.82    0.58
   6  12  -2   11.02    0.77
  -6  12   2   10.58    0.72
   6  12  -2   11.48    0.94
   6  12  -2   11.48    0.60
  -6  12   2   12.22    0.68
  -6  12   2   11.32    1.06
   6  12  -2   11.52    0.58
   6  12  -2   11.52    0.82
   4 -12  -2    0.29    1.28
   4 -12  -2    1.85    1.20
  -4 -12   2    3.48    0.44
  -4 -12   2    3.38    0.32
  -4  12   2    3.21    0.25
   4  12  -2    3.79    0.67
   4  12  -2    3.65    0.50
  -4  12   2    2.65    0.48
   4  12  -2    3.34    0.54
  -4  12   2    3.27    0.40
  -4  12   2    4.02    0.40
  -4  12   2    2.67    0.57
   4  12  -2    3.04    0.36
   4  12  -2    3.76    0.57
   4  12  -2    3.02    0.35
  -4  12   2    3.35    0.47
   2 -12  -2   -0.19    1.25
   2 -12  -2    1.08    0.27
  -2 -12   2    1.21    0.21
  -2 -12   2    0.93    0.24
  -2  12   2    1.17    0.34
  -2  12   2    1.01    0.39
   2  12  -2    1.21    0.34
  -2  12   2    0.84    0.21
  -2  12   2    1.20    0.31
   2  12  -2    1.41    0.43
  -2  12   2    1.04    0.16
   2  12  -2    1.28    0.32
  -2  12   2    0.90    0.23
  -2  12   2    1.34    0.24
   2  12  -2    1.20    0.33
   2  12  -2    0.99    0.19
   2  12  -2    1.27    0.24
  -2  12   2    1.32    0.35
  -2  12   2    1.09    0.25
   2  12  -2    1.23    0.24
   0 -12   2    2.92    0.38
   0 -12  -2    0.65    1.53
   0 -12  -2    4.43    0.50
   0 -12   2    3.29    0.33
   0  12   2    3.65    0.38
   0  12   2    3.48    0.29
   0  12  -2    3.62    0.51
   0  12   2    3.63    0.67
   0  12   2    3.81    0.45
   0  12  -2    4.20    0.62
   0  12  -2    3.28    0.32
   0  12   2    3.82    0.52
   0  12   2    3.48    0.36
   0  12  -2    3.28    0.37
   0  12  -2    3.88    0.57
   0  12   2    3.90    0.58
   0  12  -2    3.28    0.37
   0  12   2    3.90    0.60
   0  12   2    3.75    0.43
   0  12  -2    3.73    0.58
   2 -12   2   25.01    0.85
  -2 -12  -2   26.61    1.10
  -2  12  -2   25.80    0.94
   2  12   2   25.37    1.17
   2  12   2   24.45    1.00
  -2  12  -2   25.36    1.44
  -2  12  -2   25.84    0.95
   2  12   2   25.07    1.37
  -2  12  -2   24.88    0.86
   2  12   2   25.33    1.39
  -2  12  -2   24.60    0.87
   2  12   2   25.54    0.83
   2  12   2   26.03    1.55
  -2  12  -2   24.63    1.38
   2  12   2   25.06    1.20
   2  12   2   26.10    0.93
  -2  12  -2   24.49    1.20
  -2  12  -2   25.62    1.17
  -2  12  -2   25.04    1.35
   4 -12   2    0.31    0.14
  -4 -12  -2    0.32    0.22
  -4  12  -2    0.39    0.15
   4  12   2    0.36    0.17
  -4  12  -2    0.42    0.25
   4  12   2    0.31    0.16
  -4  12  -2    0.17    0.25
  -4  12  -2    0.19    0.14
   4  12   2    0.05    0.20
   4  12   2    0.49    0.21
   4  12   2    0.37    0.24
   4  12   2    0.34    0.25
   4  12   2    0.29    0.17
   4  12   2    0.10    0.19
   4  12   2    0.42    0.14
  -4  12  -2    0.13    0.21
  -4  12  -2    0.43    0.16
  -4  12  -2    0.42    0.18
  -4  12  -2    0.35    0.18
  -4  12  -2    0.30    0.22
  -6 -12  -2   12.60    0.93
   6 -12   2   13.77    0.59
  -6 -12  -2   12.72    0.74
   6  12   2   12.47    0.69
  -6  12  -2   12.91    0.73
   6  12   2   13.64    0.76
   6  12   2   10.90    0.91
   6  12   2   11.60    0.87
  -6  12  -2   12.73    0.91
   6  12   2   12.63    0.56
  -6  12  -2   11.62    0.58
  -6  12  -2   11.58    0.90
   6  12   2   12.65    0.90
   6  12   2   12.86    0.64
   6  12   2   11.55    0.59
   6  12   2   13.07    0.66
  -6  12  -2   11.77    0.56
  -6  12  -2   11.50    0.57
  -6  12  -2   13.06    0.80
  -6  12  -2   11.95    0.85
   8 -12   2    5.05    0.40
  -8 -12  -2    4.90    0.58
  -8 -12  -2    4.88    0.52
  -8  12  -2    4.12    0.39
   8  12   2    6.02    0.75
  -8  12  -2    5.07    0.52
   8  12   2    5.17    0.49
   8  12   2    5.52    0.45
  -8  12  -2    4.48    0.38
  -8  12  -2    4.82    0.63
  -8  12  -2    5.95    0.71
   8  12   2    5.11    0.46
  -8  12  -2    5.39    0.42
   8  12   2    4.07    0.54
  -8  12  -2    4.93    0.44
 -10 -12  -2    0.16    0.27
  10 -12   2    0.38    0.70
  10  12   2    0.15    0.20
 -10  12  -2    0.21    0.20
  10  12   2    0.45    0.16
  10  12   2    0.17    0.24
  10  12   2    0.34    0.14
 -10  12  -2    0.40    0.16
  10  12   2    0.27    0.17
 -10  12  -2    0.16    0.23
  12 -12   2    0.79    0.68
 -12 -12  -2    1.43    0.28
  12  12   2    1.82    0.20
  12  12   2    1.51    0.20
  12  12   2    2.30    0.24
 -12  12  -2    1.39    0.27
 -13  13   2    5.81    0.61
  11 -13  -2    0.24    0.64
  11 -13  -2    0.11    1.37
  11  13  -2    1.02    0.34
  11  13  -2    1.62    0.25
 -11  13   2    1.56    0.34
 -11  13   2    0.72    0.32
   9 -13  -2    0.64    1.42
  -9 -13   2    3.66    0.42
  -9  13   2    2.04    0.48
   9  13  -2    4.49    0.68
  -9  13   2    4.18    0.48
   9  13  -2    4.22    0.41
  -9  13   2    3.92    0.39
  -9  13   2    3.69    0.24
   9  13  -2    3.92    0.50
   9  13  -2    3.14    0.36
  -9  13   2    3.19    0.47
   7 -13  -2    7.66    0.43
  -7 -13   2    8.99    0.60
   7  13  -2    8.31    0.51
   7  13  -2    9.00    0.52
  -7  13   2    7.81    0.69
  -7  13   2    8.31    0.49
   7  13  -2    8.54    0.69
   7  13  -2    8.07    0.64
  -7  13   2    8.72    0.64
   7  13  -2    7.76    0.76
  -7  13   2    8.04    0.36
  -7  13   2    9.37    0.53
  -5 -13   2   11.62    0.67
  -5  13   2   10.78    0.71
  -5  13   2    9.80    0.97
  -5  13   2   10.34    0.58
   5  13  -2   10.72    0.58
   5  13  -2   11.22    0.57
  -5  13   2   10.97    0.56
  -5  13   2   11.07    0.64
  -5  13   2   10.72    0.80
  -5  13   2   10.46    0.43
   5  13  -2   10.42    0.89
   5  13  -2   11.44    0.81
   5  13  -2   11.08    0.75
   3 -13  -2    0.15    1.10
  -3 -13   2    0.14    0.19
  -3 -13   2    0.18    0.13
  -3  13   2    0.26    0.15
   3  13  -2    0.23    0.19
   3  13  -2    0.16    0.28
  -3  13   2    0.36    0.23
  -3  13   2    0.41    0.24
   3  13  -2    0.15    0.15
  -3  13   2    0.24    0.15
  -3  13   2    0.26    0.17
   3  13  -2    0.11    0.21
   3  13  -2    0.25    0.16
  -3  13   2    0.10    0.09
   3  13  -2    0.33    0.25
  -3  13   2    0.31    0.23
  -3  13   2    0.01    0.24
  -1 -13   2    6.60    0.46
   1 -13  -2    6.84    0.62
  -1 -13   2    6.48    0.56
   1  13  -2    5.81    0.49
  -1  13   2    6.60    0.61
  -1  13   2    6.74    0.50
   1  13  -2    7.19    0.79
  -1  13   2    6.64    0.73
  -1  13   2    6.61    0.75
  -1  13   2    6.57    0.35
  -1  13   2    6.37    0.50
   1  13  -2    5.99    0.49
  -1  13   2    6.32    0.65
   1  13  -2    6.69    0.63
   1  13  -2    6.35    0.69
  -1  13   2    7.30    0.50
   1  13  -2    5.98    0.40
   1  13  -2    6.97    0.70
  -1 -13  -2    0.24    0.22
   1 -13   2    0.27    0.14
  -1 -13  -2    0.18    1.10
  -1  13  -2   -0.05    0.15
  -1  13  -2    0.08    0.25
  -1  13  -2    0.61    0.25
   1  13   2    0.18    0.12
  -1  13  -2    0.18    0.15
  -1  13  -2    0.16    0.14
   1  13   2    0.21    0.22
   1  13   2    0.14    0.22
   1  13   2    0.32    0.17
   1  13   2    0.03    0.15
   1  13   2    0.25    0.25
  -1  13  -2    0.36    0.23
   1  13   2    0.20    0.15
   1  13   2    0.19    0.25
  -1  13  -2    0.08    0.24
   3 -13   2    0.74    0.19
  -3 -13  -2    0.73    0.26
  -3  13  -2    0.83    0.21
   3  13   2    0.65    0.21
  -3  13  -2    0.66    0.29
  -3  13  -2    0.49    0.29
  -3  13  -2    0.57    0.17
  -3  13  -2    0.90    0.32
   3  13   2    0.83    0.28
   3  13   2    0.88    0.21
  -3  13  -2    0.28    0.17
  -3  13  -2    0.72    0.29
   3  13   2    0.98    0.32
   3  13   2    0.50    0.26
   3  13   2    0.71    0.17
   3  13   2    0.53    0.29
  -3  13  -2    0.49    0.21
   5 -13   2    1.16    0.21
  -5 -13  -2    1.59    0.39
  -5 -13  -2    0.94    0.28
   5  13   2    1.38    0.41
  -5  13  -2    0.69    0.19
  -5  13  -2    0.83    0.20
  -5  13  -2    1.26    0.26
   5  13   2    1.19    0.35
   5  13   2    0.74    0.25
  -5  13  -2    0.99    0.29
   5  13   2    1.04    0.23
  -5  13  -2    1.48    0.35
  -5  13  -2    1.17    0.35
   5  13   2    1.51    0.29
  -5  13  -2    1.44    0.41
   5  13   2    0.93    0.19
   5  13   2    1.14    0.33
  -5  13  -2    0.86    0.22
   7 -13   2    0.65    0.79
  -7 -13  -2    0.90    0.31
  -7  13  -2    0.80    0.30
   7  13   2    0.92    0.23
  -7  13  -2    1.31    0.36
   7  13   2    1.11    0.23
   7  13   2    0.69    0.27
  -7  13  -2    0.97    0.22
  -7  13  -2    0.78    0.26
   7  13   2    0.76    0.22
   7  13   2    0.95    0.34
  -7  13  -2    1.13    0.29
   9 -13   2    0.61    0.69
  -9 -13  -2    0.16    0.23
  -9  13  -2    0.34    0.22
  -9  13  -2    0.41    0.15
   9  13   2    0.29    0.18
  -9  13  -2    0.61    0.24
   9  13   2    0.51    0.18
   9  13   2    0.40    0.15
   9  13   2    0.44    0.14
 -11 -13  -2    0.50    0.23
 -11  13  -2    0.20    0.18
  12 -14  -2   -0.06    0.43
  12  14  -2    1.17    0.29
 -12  14   2    1.29    0.24
 -12  14   2    0.30    0.22
  10 -14  -2   -0.33    1.19
  10 -14  -2    0.06    0.54
  10  14  -2    0.52    0.25
 -10  14   2    0.89    0.25
 -10  14   2   -0.11    0.23
   8 -14  -2   -0.16    1.14
   8 -14  -2    0.38    0.64
  -8  14   2    0.20    0.26
  -8  14   2    0.09    0.19
   8  14  -2   -0.02    0.20
  -8  14   2   -0.15    0.19
   8  14  -2    0.07    0.20
  -6 -14   2    4.02    0.45
  -6  14   2    4.63    0.27
  -6  14   2    4.86    0.56
   6  14  -2    5.27    0.62
  -6  14   2    3.45    0.50
  -6  14   2    5.05    0.39
   6  14  -2    5.39    0.73
   6  14  -2    5.99    0.61
  -4 -14   2    1.10    0.28
   4 -14  -2   -0.04    0.86
  -4  14   2    1.06    0.39
  -4  14   2    1.15    0.31
   4  14  -2    0.69    0.20
   4  14  -2    0.62    0.27
   4  14  -2    0.89    0.21
  -4  14   2    0.78    0.21
  -4  14   2    1.12    0.31
  -4  14   2    0.65    0.19
  -4  14   2    1.16    0.24
  -4  14   2    1.07    0.15
   4  14  -2    1.26    0.37
   4  14  -2    1.23    0.34
  -2 -14   2   -0.14    0.13
   2 -14  -2    0.13    1.07
  -2 -14   2   -0.14    0.19
   2  14  -2   -0.02    0.15
  -2  14   2    0.14    0.20
  -2  14   2   -0.38    0.14
   2  14  -2    0.19    0.15
  -2  14   2   -0.06    0.22
   2  14  -2    0.00    0.16
   2  14  -2    0.10    0.18
   2  14  -2    0.02    0.23
  -2  14   2    0.24    0.17
   2  14  -2    0.38    0.25
  -2  14   2    0.11    0.21
  -2  14   2   -0.08    0.08
  -2  14   2    0.14    0.15
  -2  14   2   -0.02    0.20
   0 -14  -2    4.46    0.49
   0 -14   2    5.11    0.40
   0  14  -2    5.73    0.49
   0  14   2    5.35    0.43
   0  14   2    5.69    0.33
   0  14  -2    6.49    0.73
   0  14  -2    5.77    0.66
   0  14   2    4.79    0.45
   0  14   2    4.57    0.51
   0  14   2    4.69    0.61
   0  14  -2    4.72    0.43
   0  14   2    4.56    0.58
   0  14   2    3.45    0.56
  -2 -14  -2    1.52    0.32
   2 -14   2    1.49    0.24
   2  14   2    1.69    0.39
  -2  14  -2    1.98    0.39
   2  14   2    1.93    0.29
  -2  14  -2    2.09    0.42
  -2  14  -2    1.42    0.34
  -2  14  -2    1.26    0.23
   2  14   2    2.13    0.31
   2  14   2    1.76    0.43
   2  14   2    1.72    0.22
   2  14   2    2.24    0.44
   2  14   2    1.50    0.31
  -2  14  -2    1.54    0.28
  -2  14  -2    2.06    0.31
  -2  14  -2    1.04    0.23
  -4 -14  -2    0.17    0.26
   4 -14   2    0.45    0.78
   4  14   2    0.10    0.19
   4  14   2    0.21    0.20
  -4  14  -2    0.14    0.20
  -4  14  -2   -0.07    0.19
   4  14   2    0.07    0.14
  -4  14  -2    0.02    0.23
   4  14   2   -0.01    0.19
  -4  14  -2   -0.07    0.13
   4  14   2    0.10    0.15
  -6 -14  -2    3.53    0.48
   6 -14   2    4.63    1.41
   6  14   2    2.84    0.42
  -6  14  -2    3.97    0.35
  -6  14  -2    2.65    0.38
   6  14   2    2.45    0.42
   6  14   2    2.89    0.31
  -6  14  -2    4.16    0.48
   6  14   2    3.17    0.35
  -6  14  -2    3.83    0.50
   6  14   2    4.02    0.34
  -8 -14  -2    0.05    0.20
   8 -14   2    0.49    0.55
  -8 -14  -2    0.36    0.25
   8  14   2    0.28    0.18
  -8  14  -2    0.49    0.27
   8  14   2    0.26    0.16
   8  14   2    0.35    0.18
   8  14   2    0.22    0.13
  -8  14  -2    0.05    0.17
  -8  14  -2    0.32    0.13
   8  14   2    0.30    0.13
   9 -15  -2    0.01    1.12
   9 -15  -2    0.15    0.52
  -9  15   2    1.22    0.31
   9  15  -2    2.29    0.39
   7  15  -2    4.79    0.60
  -7  15   2    6.79    0.49
   7  15  -2    5.09    0.52
  -7  15   2    2.85    0.46
  -7  15   2    4.86    0.51
   5 -15  -2    0.41    0.99
   5  15  -2    1.68    0.34
  -5  15   2    0.86    0.21
   5  15  -2    1.40    0.30
  -5  15   2    1.15    0.35
   5  15  -2    0.89    0.32
  -5  15   2    1.04    0.28
  -5  15   2    1.60    0.33
   3 -15  -2    0.71    1.13
   3  15  -2    3.99    0.46
  -3  15   2    5.09    0.37
   3  15  -2    4.79    0.56
  -3  15   2    2.59    0.45
   3  15  -2    3.10    0.51
  -3  15   2    3.22    0.34
  -3  15   2    3.62    0.43
  -3  15   2    3.20    0.47
   1 -15  -2    0.50    1.02
  -1  15   2    0.58    0.23
  -1  15   2    0.48    0.17
  -1  15   2    0.56    0.17
   1  15  -2    0.31    0.23
   1  15  -2    0.17    0.17
  -1  15   2    0.56    0.26
  -1  15   2    0.22    0.23
   1  15  -2    0.31    0.20
  -1  15   2    0.12    0.19
  -1 -15  -2    0.50    0.25
  -1 -15  -2   -0.03    0.98
   1  15   2    0.64    0.23
  -1  15  -2    0.65    0.27
   1  15   2    0.92    0.21
   1  15   2    0.84    0.30
   1  15   2    0.76    0.19
   1  15   2    0.88    0.25
   1  15   2    0.85    0.27
  -1  15  -2    0.93    0.22
  -1  15  -2    0.61    0.24
  -1  15  -2    1.09    0.29
  -3 -15  -2   -0.03    0.23
   3 -15   2    0.07    0.67
   3  15   2   -0.04    0.17
   3  15   2   -0.01    0.12
  -3  15  -2   -0.13    0.13
  -3  15  -2   -0.04    0.16
  -3  15  -2    0.11    0.19
   3  15   2    0.03    0.16
   3  15   2    0.12    0.14
  -3  15  -2    0.31    0.24
  -5 -15  -2    0.48    0.24
   5 -15   2    0.72    0.66
  -5  15  -2    0.49    0.21
  -5  15  -2    0.28    0.16
   5  15   2    0.29    0.19
  -5  15  -2    0.47    0.24
   5  15   2    0.22    0.14
   5  15   2    0.56    0.16
   5  15   2    0.45    0.19
  -5  15  -2    0.35    0.19
  -7 -15  -2    0.05    0.20
   7 -15   2    0.20    0.46
   7  15   2    0.17    0.14
   7  15   2    0.13    0.10
  -7  15  -2    0.07    0.15
   6 -16  -2    0.08    0.81
  -6  16   2    0.39    0.21
   6  16  -2    0.02    0.20
   4 -16  -2    0.73    0.25
   4 -16  -2   -0.10    0.77
  -4  16   2    0.38    0.18
   4  16  -2    1.20    0.28
  -4  16   2    1.37    0.25
  -4  16   2    0.94    0.26
   2 -16  -2    0.30    0.20
   2 -16  -2   -0.16    0.74
  -2  16   2    0.31    0.14
  -2  16   2    0.03    0.16
  -2  16   2    0.01    0.13
   2  16  -2    0.00    0.14
  -2  16   2    0.42    0.21
   2  16  -2    0.16    0.18
  -2  16   2    0.07    0.18
   2  16  -2    0.12    0.19
   0 -16  -2    0.59    0.91
   0 -16  -2    1.68    0.30
   0  16   2    2.40    0.25
   0  16   2    1.93    0.34
   0  16  -2    2.60    0.33
   0  16  -2    2.87    0.40
   0  16  -2    3.71    0.30
  -2 -16  -2    1.03    0.26
   2  16   2    0.99    0.25
  -2  16  -2    0.73    0.22
   2  16   2    1.45    0.20
   2  16   2    1.21    0.18
  -2  16  -2    1.55    0.23
   2  16   2    1.55    0.32
  -2  16  -2    0.84    0.23
  22   0  -3    0.00    0.16
  20   0  -3   -0.23    0.18
  20   0  -3    0.11    0.15
 -20   0   3    0.23    0.20
  20   0  -3    0.15    0.15
  20   0  -3    0.27    0.15
  20   0  -3    0.28    0.30
 -18   0   3   -0.09    0.13
 -18   0   3   -0.02    0.15
 -18   0   3    0.17    0.19
  18   0  -3    0.15    0.16
  18   0  -3   -0.13    0.20
  18   0  -3    0.12    0.31
  18   0  -3    0.19    0.19
  18   0  -3    0.12    0.18
 -18   0   3    0.09    0.13
  18   0  -3    0.16    0.12
  16   0  -3    0.08    0.10
 -16   0   3    0.08    0.12
  16   0  -3    0.19    0.26
  16   0  -3    0.05    0.25
  16   0  -3    0.00    0.16
  16   0  -3   -0.07    0.13
  16   0  -3    0.08    0.17
  16   0  -3    0.08    0.17
  16   0  -3   -0.03    0.20
 -16   0   3   -0.11    0.11
 -16   0   3    0.19    0.18
 -16   0   3    0.24    0.14
  14   0  -3   -0.05    0.23
  14   0  -3    0.16    0.21
 -14   0   3   -0.09    0.09
  14   0  -3    0.12    0.18
  14   0  -3   -0.04    0.15
 -14   0   3   -0.02    0.08
  14   0  -3    0.08    0.15
 -14   0   3    0.13    0.13
  14   0  -3   -0.06    0.08
 -14   0   3    0.12    0.11
  14   0  -3    0.02    0.21
  14   0  -3   -0.09    0.13
 -14   0   3   -0.06    0.09
 -14   0   3    0.12    0.11
 -12   0   3   -0.04    0.08
 -12   0   3    0.07    0.07
 -12   0   3    0.04    0.09
 -12   0   3   -0.03    0.09
 -12   0   3    0.05    0.08
 -12   0   3    0.14    0.08
 -12   0   3   -0.05    0.06
 -10   0   3    0.00    0.07
 -10   0   3    0.01    0.05
 -10   0   3    0.00    0.07
 -10   0   3    0.01    0.08
 -10   0   3   -0.05    0.07
 -10   0   3    0.03    0.06
 -10   0   3   -0.07    0.06
  -8   0   3   -0.01    0.04
  -8   0   3    0.04    0.06
  -8   0   3    0.03    0.07
  -8   0   3    0.00    0.05
  -8   0   3    0.02    0.06
  -8   0   3    0.00    0.05
  -8   0   3   -0.09    0.06
  -8   0   3    0.01    0.06
  -6   0   3    0.02    0.06
  -6   0   3   -0.05    0.05
  -6   0   3   -0.01    0.04
  -6   0   3    0.00    0.03
   6   0  -3    0.03    0.04
  -6   0   3    0.06    0.06
  -6   0   3    0.00    0.05
  -6   0   3    0.04    0.07
  -4   0   3    0.00    0.03
  -4   0   3    0.04    0.06
  -4   0   3   -0.06    0.04
  -4   0   3    0.01    0.06
  -4   0   3    0.01    0.05
  -4   0   3    0.32    0.08
   4   0  -3    0.01    0.04
  -4   0   3    0.33    0.08
  -4   0   3    0.02    0.05
  -4   0   3   -0.05    0.03
  -2   0   3   -0.02    0.03
  -2   0   3    0.10    0.06
  -2   0   3   -0.01    0.04
  -2   0   3    0.01    0.04
  -2   0   3   -0.01    0.05
  -2   0   3    0.02    0.04
  -2   0   3   -0.03    0.04
  -2   0   3    0.02    0.04
  -2   0   3    0.03    0.03
   0   0   3   -0.02    0.05
   0   0   3    0.01    0.04
   0   0   3    0.00    0.04
   0   0   3    0.02    0.06
   0   0   3   -0.01    0.04
   0   0   3    0.06    0.05
   0   0   3    0.00    0.05
   0   0   3    0.01    0.05
   0   0   3    0.10    0.07
   0   0  -3   -0.03    0.05
   2   0   3    0.05    0.05
   2   0   3    0.08    0.07
   2   0   3    0.02    0.05
   2   0   3   -0.03    0.04
   2   0   3   -0.02    0.04
   2   0   3    0.01    0.04
   2   0   3    0.03    0.06
  -2   0  -3    0.03    0.05
   2   0   3    0.63    0.14
   4   0   3   -0.02    0.04
   4   0   3    0.02    0.05
   4   0   3   -0.03    0.03
   4   0   3   -0.03    0.05
   4   0   3   -0.02    0.05
  -4   0  -3    0.00    0.05
  -4   0  -3    0.02    0.06
  -4   0  -3   -0.02    0.05
   4   0   3    0.02    0.07
   4   0   3    0.09    0.07
   6   0   3    0.05    0.07
  -6   0  -3    0.03    0.07
  -6   0  -3   -0.03    0.06
   6   0   3    0.08    0.08
   6   0   3    0.03    0.07
   6   0   3    0.01    0.07
   8   0   3    0.00    0.09
  -8   0  -3    0.15    0.14
  -8   0  -3    0.01    0.07
  -8   0  -3    0.14    0.17
   8   0   3    0.06    0.08
  -8   0  -3    0.01    0.07
   8   0   3    0.07    0.07
  10   0   3    0.03    0.10
 -10   0  -3    0.06    0.18
  10   0   3    0.01    0.11
 -10   0  -3   -0.06    0.18
  10   0   3   -0.05    0.10
 -10   0  -3   -0.11    0.10
 -10   0  -3    0.10    0.14
  12   0   3    0.02    0.12
 -12   0  -3    0.05    0.13
 -12   0  -3    0.17    0.22
  12   0   3    0.10    0.13
  12   0   3    0.09    0.42
 -12   0  -3   -0.02    0.21
  14   0   3   -0.10    0.15
 -14   0  -3    0.10    0.26
 -14   0  -3    0.21    0.20
 -14   0  -3    0.24    0.15
 -16   0  -3   -0.13    0.17
  21  -1  -3    1.16    0.28
 -21  -1   3    1.71    0.27
  21  -1  -3    1.19    0.20
  21   1  -3    1.32    0.21
 -21   1   3    1.42    0.26
  21   1  -3    2.09    0.27
  21   1  -3    1.49    0.36
  21   1  -3    1.14    0.27
  19  -1  -3    1.99    0.37
 -19  -1   3    2.34    0.35
 -19  -1   3    2.29    0.30
  19  -1  -3    2.94    0.39
  19  -1  -3    2.54    0.29
  19  -1  -3    2.73    0.56
  19  -1  -3    2.54    0.32
  19  -1  -3    2.93    0.34
  19   1  -3    2.02    0.29
 -19   1   3    2.55    0.33
  19   1  -3    2.48    0.33
  19   1  -3    2.73    0.55
 -19   1   3    3.03    0.41
 -19   1   3    2.28    0.30
 -19   1   3    2.44    0.29
  19   1  -3    3.64    0.42
  19   1  -3    2.00    0.26
  19   1  -3    2.18    0.39
 -17  -1   3    0.04    0.13
  17  -1  -3    0.26    0.13
  17  -1  -3    0.19    0.22
 -17  -1   3   -0.02    0.14
  17  -1  -3    0.07    0.29
 -17  -1   3   -0.01    0.13
  17  -1  -3    0.25    0.17
  17  -1  -3    0.25    0.20
  17  -1  -3    0.31    0.18
 -17   1   3    0.50    0.21
 -17   1   3    0.07    0.13
 -17   1   3    0.11    0.14
  17   1  -3    0.26    0.22
  17   1  -3    0.23    0.17
  17   1  -3    0.28    0.26
  17   1  -3   -0.16    0.14
  17   1  -3    0.28    0.28
  17   1  -3    0.32    0.14
 -17   1   3    0.12    0.14
  17   1  -3    0.15    0.18
  17   1  -3    0.20    0.17
  15  -1  -3   41.21    1.41
  15  -1  -3   39.48    1.67
 -15  -1   3   37.83    1.33
  15  -1  -3   40.13    1.35
 -15  -1   3   41.06    1.20
  15  -1  -3   38.65    2.12
 -15  -1   3   36.30    1.62
  15  -1  -3   42.86    2.24
  15  -1  -3   40.37    1.70
 -15  -1   3   41.10    1.23
  15  -1  -3   38.17    1.43
 -15  -1   3   41.20    1.21
 -15  -1   3   41.20    1.10
 -15   1   3   41.55    1.19
 -15   1   3   43.35    1.24
  15   1  -3   42.27    1.18
 -15   1   3   40.07    1.61
 -15   1   3   42.39    1.25
  15   1  -3   39.44    1.34
  15   1  -3   41.10    1.72
  15   1  -3   40.02    1.40
 -15   1   3   38.38    1.56
  15   1  -3   38.31    2.13
 -15   1   3   37.93    1.34
  15   1  -3   39.79    2.16
  15   1  -3   38.06    1.43
  13  -1  -3    1.10    0.26
 -13  -1   3    1.32    0.23
  13  -1  -3    1.66    0.27
 -13  -1   3    1.41    0.20
  13  -1  -3    1.47    0.30
 -13  -1   3    1.27    0.22
 -13  -1   3    1.46    0.20
  13  -1  -3    1.54    0.28
  13  -1  -3    1.34    0.43
 -13  -1   3    1.15    0.20
  13  -1  -3    1.39    0.36
 -13  -1   3    1.16    0.27
  13  -1  -3    1.44    0.43
 -13  -1   3    1.26    0.21
 -13   1   3    1.27    0.18
 -13   1   3    1.26    0.25
 -13   1   3    1.16    0.17
 -13   1   3    1.08    0.19
  13   1  -3    1.27    0.24
  13   1  -3    1.33    0.34
  13   1  -3    1.56    0.44
  13   1  -3    1.04    0.17
 -13   1   3    1.29    0.21
  13   1  -3    1.39    0.27
 -13   1   3    1.52    0.24
 -13   1   3    1.29    0.21
 -13   1   3    0.93    0.25
  13   1  -3    1.22    0.24
  13   1  -3    1.45    0.46
 -11  -1   3   33.68    1.07
 -11  -1   3   33.85    0.95
 -11  -1   3   35.21    0.91
 -11  -1   3   34.80    0.98
 -11  -1   3   34.83    0.99
 -11  -1   3   32.15    1.06
 -11  -1   3   33.87    1.29
 -11   1   3   33.88    0.89
 -11   1   3   34.62    1.25
 -11   1   3   32.57    1.07
  11   1  -3   34.48    0.94
 -11   1   3   33.60    0.92
 -11   1   3   33.81    1.05
 -11   1   3   34.23    0.98
 -11   1   3   34.40    0.99
  -9  -1   3   68.16    1.58
  -9  -1   3   65.17    1.73
  -9  -1   3   65.22    1.47
  -9  -1   3   68.79    1.59
  -9  -1   3   67.56    1.75
  -9  -1   3   63.75    1.75
  -9  -1   3   66.20    1.58
  -9  -1   3   67.72    2.12
  -9   1   3   63.53    1.45
  -9   1   3   69.94    1.76
  -9   1   3   67.28    1.53
  -9   1   3   59.74    1.70
  -9   1   3   67.62    2.06
  -9   1   3   65.94    1.74
   9   1  -3   66.14    1.52
  -9   1   3   67.60    1.60
  -9   1   3   67.73    1.57
  -7  -1   3    1.60    0.21
  -7  -1   3    1.59    0.17
  -7  -1   3    1.76    0.16
  -7  -1   3    1.69    0.19
  -7  -1   3    1.79    0.21
  -7  -1   3    1.66    0.18
  -7  -1   3    1.54    0.15
  -7   1   3    1.62    0.19
  -7   1   3    1.47    0.19
  -7   1   3    1.62    0.18
  -7   1   3    1.60    0.17
  -7   1   3    1.78    0.18
  -7   1   3    1.68    0.10
   7   1  -3    1.54    0.15
  -7   1   3    1.64    0.16
  -7   1   3    1.50    0.17
  -5  -1   3   33.74    0.92
  -5  -1   3   33.04    0.81
  -5  -1   3   34.53    1.10
  -5  -1   3   30.99    0.81
  -5  -1   3   31.12    0.94
  -5  -1   3   32.58    0.83
  -5  -1   3   32.33    0.84
  -5   1   3   32.22    0.77
  -5   1   3   30.59    0.74
  -5   1   3   31.60    0.83
  -5   1   3   35.00    1.04
  -5   1   3   33.80    0.92
  -5   1   3   34.02    0.83
  -5   1   3   33.12    0.95
  -5   1   3   29.81    0.80
  -5   1   3   31.78    0.85
   5   1  -3   32.67    0.79
  -3  -1   3    0.56    0.08
  -3  -1   3    0.50    0.08
  -3  -1   3    0.48    0.09
  -3  -1   3    0.45    0.10
  -3  -1   3    0.50    0.09
  -3  -1   3    0.43    0.08
  -3  -1   3    0.43    0.11
  -3   1   3    0.43    0.08
  -3   1   3    0.42    0.08
  -3   1   3    0.46    0.09
  -3   1   3    0.46    0.09
   3   1  -3    0.44    0.06
  -3   1   3    0.42    0.09
  -3   1   3    0.54    0.10
  -3   1   3    1.27    0.16
   3   1  -3    0.40    0.08
  -3   1   3    0.40    0.09
  -3   1   3    0.52    0.11
  -3   1   3    0.54    0.06
  -1  -1   3   11.74    0.41
  -1  -1   3   11.72    0.41
  -1  -1   3   11.35    0.37
   1  -1  -3   11.39    0.32
  -1  -1   3   11.71    0.39
  -1  -1   3   10.61    0.43
  -1  -1   3   12.41    0.52
  -1  -1   3   11.44    0.36
  -1  -1   3   10.53    0.34
  -1   1   3   11.01    0.39
  -1   1   3   11.31    0.34
  -1   1   3   11.20    0.45
  -1   1   3   11.79    0.41
  -1   1   3   11.30    0.36
  -1   1   3   11.89    0.42
  -1   1   3   11.47    0.36
  -1   1   3   11.71    0.48
  -1   1   3   11.67    0.39
   1   1  -3   11.13    0.33
   1  -1   3   17.59    0.52
   1  -1   3   18.33    0.48
  -1  -1  -3   17.58    0.46
   1  -1   3   18.00    0.55
   1  -1   3   18.11    0.56
   1  -1   3   17.72    0.60
   1  -1   3   18.08    0.59
   1  -1   3   18.56    0.72
   1  -1   3   17.40    0.51
   1   1   3   18.73    0.70
   1   1   3   16.07    0.53
   1   1   3   17.74    0.49
   1   1   3   18.33    0.62
   1   1   3   18.62    0.59
   1   1   3   18.27    0.52
   1   1   3   18.97    0.60
   1   1   3   18.24    0.52
  -1   1  -3   16.77    0.46
   3  -1   3   28.41    0.77
   3  -1   3   28.35    0.85
   3  -1   3   26.97    0.83
  -3  -1  -3   26.54    0.65
   3  -1   3   27.62    1.03
   3  -1   3   27.01    0.66
   3  -1   3   27.99    0.73
   3  -1   3   27.45    0.75
  -3   1  -3   28.00    0.83
   3   1   3   27.40    0.76
   3   1   3   26.95    0.69
   3   1   3   27.60    0.75
  -3   1  -3   27.19    0.67
   3   1   3   27.66    0.85
   3   1   3   27.12    1.01
   3   1   3   27.75    0.73
   5  -1   3    1.43    0.17
   5  -1   3    1.25    0.15
   5  -1   3    1.27    0.16
   5  -1   3    1.26    0.18
  -5  -1  -3    1.39    0.18
  -5  -1  -3    1.28    0.15
   5   1   3    1.38    0.17
  -5   1  -3    1.32    0.16
   5   1   3    1.19    0.16
   5   1   3    1.33    0.19
  -5   1  -3    1.34    0.19
   5   1   3    1.34    0.23
  -5   1  -3    1.26    0.16
   5   1   3    1.29    0.16
   5   1   3    1.29    0.15
   5   1   3    1.24    0.16
   7  -1   3    7.76    0.36
  -7  -1  -3    7.30    0.32
   7  -1   3    7.42    0.40
  -7  -1  -3    7.27    0.39
   7  -1   3    7.51    0.34
   7  -1   3    6.98    0.34
   7   1   3    7.78    0.42
   7   1   3    7.55    0.37
   7   1   3    7.46    0.35
  -7   1  -3    7.32    0.34
   7   1   3    7.78    0.36
  -7   1  -3    7.48    0.41
   9  -1   3   17.10    0.64
   9  -1   3   19.69    0.76
  -9  -1  -3   16.59    0.71
  -9  -1  -3   16.38    1.03
  -9  -1  -3   18.43    0.59
  -9  -1  -3   18.37    1.04
   9  -1   3   18.15    0.64
  -9   1  -3   18.39    0.61
   9   1   3   17.29    0.73
  -9   1  -3   17.68    1.05
  -9   1  -3   17.33    1.04
   9   1   3   17.67    0.65
  -9   1  -3   18.93    0.77
   9   1   3   17.38    0.63
  11  -1   3    0.54    0.16
 -11  -1  -3    0.90    0.17
 -11  -1  -3    0.57    0.26
  11  -1   3    0.57    0.16
  11  -1   3    0.81    0.24
 -11  -1  -3    0.72    0.29
 -11   1  -3    0.41    0.29
 -11   1  -3    0.68    0.16
 -11   1  -3    0.41    0.24
  11   1   3    0.68    0.18
 -11   1  -3    0.62    0.27
  11   1   3    0.52    0.16
  13  -1   3   21.83    0.81
 -13  -1  -3   21.86    1.24
 -13  -1  -3   22.19    0.86
 -13  -1  -3   23.71    1.29
 -13   1  -3   22.58    0.87
 -13   1  -3   21.63    1.25
  13   1   3   22.31    0.83
 -13   1  -3   20.54    1.22
 -15  -1  -3    3.14    0.47
 -15  -1  -3    2.91    0.46
 -15   1  -3    2.76    0.44
 -17  -1  -3    1.24    0.25
  17  -1   3    0.33    0.19
  17   1   3    0.56    0.20
 -17   1  -3    2.01    0.32
  20  -2  -3    1.50    0.24
  20  -2  -3    1.19    0.30
 -20  -2   3    1.17    0.24
  20  -2  -3    0.96    0.21
 -20   2   3    1.06    0.27
  20   2  -3    1.22    0.23
  20   2  -3    0.98    0.35
  20   2  -3    1.45    0.26
  20   2  -3    1.14    0.29
  18  -2  -3    0.30    0.17
  18  -2  -3    0.42    0.18
 -18  -2   3    0.06    0.14
  18  -2  -3    0.38    0.24
  18  -2  -3   -0.22    0.16
  18  -2  -3    0.12    0.13
  18   2  -3    0.21    0.28
  18   2  -3    0.22    0.18
 -18   2   3    0.23    0.22
  18   2  -3    0.43    0.31
  18   2  -3    0.01    0.14
 -18   2   3    0.13    0.13
  18   2  -3    0.23    0.21
  18   2  -3    0.38    0.19
  18   2  -3    0.05    0.15
  18   2  -3   -0.11    0.17
 -18   2   3   -0.04    0.13
 -18   2   3   -0.11    0.13
 -16  -2   3    6.14    0.48
 -16  -2   3    5.47    0.45
 -16  -2   3    6.10    0.47
  16  -2  -3    5.79    0.55
  16  -2  -3    6.07    0.51
  16  -2  -3    5.47    0.52
  16  -2  -3    5.78    0.65
 -16  -2   3    6.02    0.43
  16  -2  -3    6.53    0.46
  16   2  -3    6.47    0.53
  16   2  -3    5.77    0.55
 -16   2   3    6.28    0.49
 -16   2   3    5.96    0.62
 -16   2   3    5.87    0.37
  16   2  -3    6.28    0.57
  16   2  -3    6.90    0.98
  16   2  -3    7.18    1.00
  16   2  -3    6.00    0.45
 -16   2   3    5.86    0.48
  16   2  -3    6.32    0.71
 -14  -2   3    6.73    0.45
  14  -2  -3    6.92    0.50
  14  -2  -3    6.68    0.50
  14  -2  -3    7.12    0.59
  14  -2  -3    7.13    0.74
 -14  -2   3    6.97    0.46
 -14  -2   3    6.60    0.41
 -14  -2   3    6.83    0.58
 -14  -2   3    6.53    0.40
  14  -2  -3    6.92    0.39
 -14  -2   3    7.42    0.41
  14  -2  -3    7.00    0.47
 -14  -2   3    7.10    0.38
  14   2  -3    7.29    0.40
  14   2  -3    6.62    0.49
  14   2  -3    7.70    0.80
 -14   2   3    6.93    0.51
  14   2  -3    7.05    0.60
  14   2  -3    6.51    0.48
  14   2  -3    6.67    0.74
 -14   2   3    6.33    0.51
 -14   2   3    7.24    0.47
 -14   2   3    7.21    0.38
  14   2  -3    7.16    0.45
 -14   2   3    6.89    0.42
 -14   2   3    6.67    0.40
 -12  -2   3    1.04    0.20
 -12  -2   3    1.13    0.20
 -12  -2   3    1.02    0.18
  12  -2  -3    1.21    0.18
  12  -2  -3    1.44    0.24
  12  -2  -3    0.98    0.22
 -12  -2   3    1.22    0.18
 -12  -2   3    0.99    0.24
 -12  -2   3    1.10    0.20
 -12  -2   3    1.21    0.18
  12   2  -3    1.07    0.28
  12   2  -3    1.25    0.41
  12   2  -3    1.05    0.24
 -12   2   3    0.88    0.18
  12   2  -3    1.31    0.25
  12   2  -3    1.01    0.17
 -12   2   3    1.05    0.16
 -12   2   3    1.07    0.15
 -12   2   3    1.17    0.20
 -12   2   3    1.03    0.19
 -12   2   3    1.39    0.21
 -12   2   3    1.05    0.21
 -10  -2   3    5.26    0.33
 -10  -2   3    5.66    0.31
 -10  -2   3    5.14    0.39
 -10  -2   3    5.57    0.29
 -10  -2   3    5.98    0.30
 -10  -2   3    5.51    0.34
 -10  -2   3    5.59    0.33
 -10  -2   3    5.52    0.30
 -10   2   3    5.58    0.34
 -10   2   3    5.60    0.32
 -10   2   3    5.72    0.28
  10   2  -3    5.60    0.29
 -10   2   3    5.57    0.31
 -10   2   3    6.18    0.32
 -10   2   3    5.49    0.23
 -10   2   3    5.77    0.34
  -8  -2   3   19.45    0.60
  -8  -2   3   20.00    0.58
  -8  -2   3   20.36    0.82
  -8  -2   3   20.12    0.62
  -8  -2   3   21.18    0.69
  -8  -2   3   19.81    0.70
  -8  -2   3   19.67    0.61
  -8   2   3   21.11    0.63
  -8   2   3   18.64    0.61
  -8   2   3   18.55    0.48
  -8   2   3   20.56    0.69
  -8   2   3   20.70    0.71
  -8   2   3   20.04    0.61
  -8   2   3   18.13    0.65
  -8   2   3   18.73    0.55
  -8   2   3   20.07    0.66
   8   2  -3   19.44    0.59
  -6  -2   3    3.51    0.26
  -6  -2   3    2.76    0.17
  -6  -2   3    2.63    0.21
  -6  -2   3    2.97    0.18
  -6  -2   3    2.35    0.24
  -6  -2   3    2.83    0.24
  -6   2   3    2.96    0.26
  -6   2   3    2.29    0.19
   6   2  -3    2.68    0.20
  -6   2   3    2.69    0.22
  -6   2   3    2.67    0.23
  -6   2   3    2.55    0.19
  -6   2   3    2.29    0.18
  -6   2   3    2.40    0.22
  -6   2   3    2.63    0.17
  -6   2   3    2.52    0.22
  -6   2   3    2.58    0.15
  -4  -2   3    5.60    0.27
  -4  -2   3    6.06    0.34
  -4  -2   3    5.38    0.23
  -4  -2   3    5.62    0.24
  -4  -2   3    5.38    0.29
  -4  -2   3    5.71    0.23
  -4  -2   3    5.35    0.24
   4   2  -3    5.35    0.23
  -4   2   3    6.01    0.26
  -4   2   3    4.99    0.23
  -4   2   3    5.90    0.31
  -4   2   3    5.91    0.26
  -4   2   3    5.78    0.28
  -4   2   3    5.10    0.24
   4   2  -3    5.23    0.22
  -4   2   3    5.54    0.24
  -4   2   3    5.94    0.24
  -4   2   3    5.65    0.26
  -2  -2   3   11.28    0.35
  -2  -2   3   11.61    0.38
  -2  -2   3   12.20    0.42
  -2  -2   3   12.46    0.53
  -2  -2   3   11.69    0.38
  -2  -2   3   11.13    0.35
  -2  -2   3   11.10    0.45
  -2  -2   3   12.48    0.41
   2   2  -3   11.32    0.33
  -2   2   3   12.30    0.46
  -2   2   3   11.20    0.36
  -2   2   3   10.64    0.30
  -2   2   3   11.43    0.39
  -2   2   3   12.08    0.47
   2   2  -3   11.44    0.34
  -2   2   3   12.01    0.37
  -2   2   3   12.24    0.42
   2   2  -3   11.58    0.36
  -2   2   3   11.64    0.40
  -2   2   3   12.20    0.44
   0  -2   3   87.87    2.57
   0  -2   3   82.26    1.71
   0  -2   3   88.09    2.05
   0  -2   3   85.22    1.75
   0  -2  -3   86.62    1.59
   0  -2   3   87.84    2.11
   0  -2   3   83.61    1.94
   0  -2   3   83.12    2.08
   0   2  -3   81.18    1.78
   0   2   3   81.02    1.75
   0   2   3   87.99    2.09
   0   2   3   85.25    1.88
   0   2   3   86.12    2.50
   0   2   3   83.44    1.75
   0   2   3   82.61    1.88
   0   2  -3   82.14    1.61
   0   2   3   82.98    1.89
   0   2   3   88.45    2.10
   2  -2   3   20.79    0.67
   2  -2   3   19.84    0.59
  -2  -2  -3   20.03    0.51
   2  -2   3   18.79    0.51
   2  -2   3   20.91    0.58
   2  -2   3   20.46    0.82
   2  -2   3   20.78    0.61
   2  -2   3   21.77    0.68
  -2   2  -3   21.06    0.54
   2   2   3   21.42    0.59
   2   2   3   21.35    0.68
   2   2   3   20.64    0.56
   2   2   3   18.86    0.60
   2   2   3   20.56    0.79
   2   2   3   21.15    0.60
  -4  -2  -3    4.89    0.27
   4  -2   3    5.09    0.27
   4  -2   3    4.59    0.26
   4  -2   3    5.34    0.30
  -4  -2  -3    4.82    0.23
   4   2   3    5.22    0.30
   4   2   3    5.47    0.26
   4   2   3    5.02    0.35
   4   2   3    5.72    0.29
   4   2   3    5.01    0.24
  -4   2  -3    4.80    0.24
   4   2   3    5.08    0.26
   4   2   3    4.94    0.27
  -4   2  -3    5.10    0.30
  -4   2  -3    4.87    0.25
   6  -2   3    0.75    0.15
   6  -2   3    0.77    0.13
   6  -2   3    0.63    0.13
  -6  -2  -3    0.61    0.13
   6  -2   3    0.64    0.12
  -6  -2  -3    0.83    0.13
   6   2   3    0.67    0.14
   6   2   3    0.66    0.13
   6   2   3    0.76    0.16
  -6   2  -3    0.77    0.15
   6   2   3    0.65    0.18
   6   2   3    0.72    0.14
   6   2   3    0.56    0.12
  -6   2  -3    0.81    0.14
  -6   2  -3    0.80    0.14
   8  -2   3   11.21    0.46
  -8  -2  -3   10.91    0.42
  -8  -2  -3    9.29    0.72
  -8  -2  -3   11.71    0.76
   8  -2   3   10.89    0.47
  -8  -2  -3   10.64    0.50
   8  -2   3   10.60    0.53
   8   2   3   10.39    0.53
  -8   2  -3   10.08    0.58
   8   2   3   11.28    0.47
  -8   2  -3   11.26    0.55
  -8   2  -3   11.83    0.45
   8   2   3   11.22    0.49
  -8   2  -3   11.59    0.79
  -8   2  -3   10.57    0.76
  -8   2  -3   10.36    0.45
 -10  -2  -3    2.04    0.40
 -10  -2  -3    1.93    0.40
  10  -2   3    1.62    0.26
  10  -2   3    1.78    0.23
  10  -2   3    1.91    0.24
 -10   2  -3    1.11    0.33
 -10   2  -3    1.99    0.25
  10   2   3    2.02    0.26
  10   2   3    1.84    0.28
  10   2   3    2.06    0.26
 -10   2  -3    2.44    0.34
 -10   2  -3    2.12    0.43
 -10   2  -3    2.42    0.47
 -12  -2  -3    9.65    0.78
  12  -2   3    9.54    0.48
  12  -2   3    9.96    0.52
 -12  -2  -3    9.08    0.75
 -12   2  -3   10.21    0.53
 -12   2  -3    9.62    0.78
 -12   2  -3    9.39    0.48
 -12   2  -3   10.25    0.80
  12   2   3    9.61    0.51
 -14  -2  -3    3.78    0.39
 -14  -2  -3    3.63    0.55
 -14  -2  -3    4.41    0.63
  14   2   3    3.34    0.36
 -14   2  -3    3.51    0.52
 -14   2  -3    3.45    0.36
 -14   2  -3    3.99    0.55
 -16  -2  -3    9.78    0.69
  16   2   3   10.38    0.65
 -16   2  -3   14.09    0.81
 -21  -3   3    0.36    0.17
  21  -3  -3    0.04    0.20
  21  -3  -3    0.01    0.12
 -21   3   3    0.08    0.19
  21   3  -3   -0.08    0.12
  21   3  -3    0.24    0.25
  21   3  -3   -0.07    0.16
 -21   3   3    0.02    0.16
  21   3  -3    0.24    0.15
  21   3  -3   -0.18    0.12
 -19  -3   3    0.56    0.22
  19  -3  -3    0.64    0.29
  19  -3  -3    0.42    0.18
  19  -3  -3    0.39    0.18
  19  -3  -3    0.42    0.15
 -19   3   3    0.59    0.25
 -19   3   3    0.43    0.16
  19   3  -3    0.60    0.21
  19   3  -3    0.54    0.20
 -19   3   3    0.14    0.15
  19   3  -3    0.30    0.17
 -19   3   3    0.64    0.26
  19   3  -3    0.41    0.30
  19   3  -3    0.33    0.31
  19   3  -3    0.29    0.21
 -19   3   3    0.14    0.15
 -17  -3   3    4.42    0.37
  17  -3  -3    4.71    0.44
  17  -3  -3    4.81    0.48
  17  -3  -3    4.90    0.62
  17  -3  -3    4.72    0.46
 -17  -3   3    4.18    0.40
  17   3  -3    4.70    0.49
  17   3  -3    4.71    0.50
 -17   3   3    4.90    0.55
  17   3  -3    5.71    0.87
  17   3  -3    5.10    0.83
 -17   3   3    4.43    0.42
 -17   3   3    5.14    0.41
 -17   3   3    4.95    0.45
  17   3  -3    5.70    0.67
  17   3  -3    4.79    0.40
  17   3  -3    4.26    0.50
 -15  -3   3    2.37    0.28
  15  -3  -3    2.34    0.28
  15  -3  -3    2.79    0.47
 -15  -3   3    2.57    0.30
  15  -3  -3    2.82    0.41
  15  -3  -3    2.24    0.34
 -15  -3   3    2.53    0.29
  15  -3  -3    2.88    0.38
 -15  -3   3    2.08    0.32
  15   3  -3    3.13    0.41
  15   3  -3    2.32    0.34
  15   3  -3    2.69    0.62
 -15   3   3    2.51    0.40
 -15   3   3    3.02    0.34
  15   3  -3    2.44    0.45
 -15   3   3    2.62    0.28
  15   3  -3    3.76    0.73
  15   3  -3    2.43    0.29
  15   3  -3    2.88    0.38
 -15   3   3    2.46    0.31
  13  -3  -3    2.26    0.32
 -13  -3   3    2.57    0.28
 -13  -3   3    2.13    0.38
  13  -3  -3    2.94    0.38
  13  -3  -3    2.63    0.35
 -13  -3   3    2.70    0.28
  13  -3  -3    2.38    0.26
 -13  -3   3    2.28    0.27
  13  -3  -3    2.83    0.40
  13  -3  -3    3.29    0.49
 -13  -3   3    2.39    0.28
 -13  -3   3    2.28    0.30
 -13   3   3    2.23    0.28
 -13   3   3    2.71    0.24
  13   3  -3    2.49    0.43
 -13   3   3    2.13    0.35
 -13   3   3    2.13    0.29
  13   3  -3    2.60    0.35
 -13   3   3    2.17    0.30
  13   3  -3    2.57    0.28
  13   3  -3    2.50    0.32
  13   3  -3    2.83    0.59
  13   3  -3    2.69    0.37
 -13   3   3    2.54    0.29
  13   3  -3    3.31    0.64
 -11  -3   3   20.60    0.69
 -11  -3   3   21.52    0.67
 -11  -3   3   19.86    0.77
 -11  -3   3   19.52    0.76
 -11  -3   3   20.00    0.68
 -11  -3   3   20.60    0.70
 -11  -3   3   19.64    0.94
  11  -3  -3   19.77    0.64
 -11   3   3   19.88    0.57
  11   3  -3   20.42    0.67
 -11   3   3   20.29    0.69
 -11   3   3   20.24    0.81
 -11   3   3   19.77    0.71
 -11   3   3   19.93    0.72
 -11   3   3   20.26    0.77
 -11   3   3   20.87    0.71
  -9  -3   3   13.27    0.47
  -9  -3   3   12.98    0.47
  -9  -3   3   12.67    0.65
  -9  -3   3   12.43    0.53
  -9  -3   3   12.77    0.55
  -9  -3   3   12.83    0.47
  -9   3   3   12.96    0.52
  -9   3   3   13.20    0.50
  -9   3   3   12.80    0.51
  -9   3   3   12.67    0.49
  -9   3   3   13.13    0.54
  -9   3   3   12.76    0.49
  -9   3   3   13.03    0.43
   9   3  -3   13.03    0.47
  -7  -3   3  127.69    2.59
  -7  -3   3  127.59    2.73
  -7  -3   3  131.51    3.08
  -7  -3   3  124.67    2.86
  -7  -3   3  125.86    3.78
  -7  -3   3  124.51    3.12
  -7   3   3  138.25    3.58
  -7   3   3  129.72    3.03
  -7   3   3  120.84    2.80
   7   3  -3  123.67    2.97
   7   3  -3  128.91    2.68
  -7   3   3  125.71    2.71
  -7   3   3  128.10    3.05
  -7   3   3  129.71    2.77
  -7   3   3  120.60    2.55
  -5  -3   3   17.08    0.71
  -5  -3   3   16.20    0.52
  -5  -3   3   17.13    0.50
  -5  -3   3   16.87    0.49
  -5  -3   3   18.04    0.58
  -5  -3   3   16.41    0.50
  -5  -3   3   16.59    0.61
  -5   3   3   16.25    0.52
  -5   3   3   16.29    0.50
   5   3  -3   16.38    0.50
   5   3  -3   17.53    0.53
  -5   3   3   16.91    0.54
  -5   3   3   16.51    0.53
  -5   3   3   16.81    0.57
  -5   3   3   17.30    0.49
  -5   3   3   17.02    0.54
  -5   3   3   16.07    0.50
  -3  -3   3    5.20    0.30
  -3  -3   3    5.22    0.24
  -3  -3   3    4.97    0.22
  -3  -3   3    4.77    0.21
  -3  -3   3    5.57    0.27
  -3  -3   3    5.35    0.24
  -3  -3   3    5.39    0.33
  -3   3   3    5.30    0.23
   3   3  -3    5.09    0.22
  -3   3   3    5.13    0.24
  -3   3   3    5.46    0.28
   3   3  -3    5.18    0.21
  -3   3   3    5.41    0.24
  -3   3   3    5.03    0.25
  -3   3   3    5.14    0.23
  -3   3   3    5.37    0.24
  -3   3   3    4.57    0.22
   3   3  -3    5.21    0.24
  -1  -3   3    0.88    0.12
  -1  -3   3    0.79    0.11
  -1  -3   3    0.88    0.17
  -1  -3   3    0.76    0.14
  -1  -3   3    0.98    0.12
  -1  -3   3    0.79    0.12
  -1  -3   3    0.77    0.10
  -1   3   3    0.68    0.07
  -1   3   3    0.80    0.12
  -1   3   3    0.78    0.12
  -1   3   3    0.83    0.11
  -1   3   3    0.90    0.13
   1   3  -3    0.82    0.08
   1   3  -3    0.93    0.12
  -1   3   3    0.68    0.11
   1   3  -3    0.97    0.12
  -1   3   3    0.83    0.13
  -1   3   3    0.87    0.12
   1  -3   3    5.71    0.30
   1  -3   3    6.25    0.38
  -1  -3  -3    5.80    0.22
   1  -3   3    5.65    0.26
   1  -3   3    6.21    0.26
   1  -3   3    6.01    0.27
   1  -3   3    6.11    0.30
   1   3   3    6.10    0.27
   1   3   3    5.99    0.26
  -1   3  -3    6.10    0.25
   1   3   3    5.81    0.28
   1   3   3    5.92    0.33
  -1   3  -3    6.34    0.22
  -1   3  -3    5.73    0.25
  -1   3  -3    5.95    0.39
   1   3   3    5.49    0.25
   1   3   3    6.42    0.32
   1   3   3    5.88    0.24
  -3  -3  -3    2.33    0.18
   3  -3   3    2.38    0.23
   3  -3   3    2.75    0.23
   3  -3   3    2.22    0.23
  -3  -3  -3    2.17    0.19
   3   3   3    2.58    0.23
   3   3   3    2.57    0.25
   3   3   3    2.42    0.21
   3   3   3    2.29    0.16
   3   3   3    2.28    0.22
  -3   3  -3    2.51    0.25
  -3   3  -3    2.60    0.21
   3   3   3    2.37    0.27
  -3   3  -3    2.33    0.20
   3   3   3    2.60    0.21
  -5  -3  -3    5.96    0.26
   5  -3   3    6.95    0.31
   5  -3   3    7.53    0.39
  -5  -3  -3    6.50    0.32
   5  -3   3    6.74    0.33
   5  -3   3    7.27    0.34
   5   3   3    6.65    0.45
  -5   3  -3    6.79    0.38
   5   3   3    7.62    0.35
   5   3   3    7.20    0.34
   5   3   3    7.55    0.35
   5   3   3    6.76    0.31
   5   3   3    7.44    0.33
  -5   3  -3    7.31    0.32
   5   3   3    7.68    0.40
  -5   3  -3    7.23    0.33
   7  -3   3    0.70    0.15
   7  -3   3    0.80    0.17
   7  -3   3    0.65    0.14
   7  -3   3    0.76    0.16
  -7  -3  -3    0.57    0.26
  -7   3  -3    0.82    0.29
  -7   3  -3    0.72    0.15
  -7   3  -3    0.74    0.18
  -7   3  -3    0.81    0.18
  -7   3  -3    0.84    0.15
  -7   3  -3    0.68    0.19
   7   3   3    0.94    0.19
   7   3   3    0.87    0.16
   7   3   3    0.96    0.16
   7   3   3    0.78    0.15
   7   3   3    0.79    0.15
   9  -3   3    7.05    0.45
   9  -3   3    6.80    0.38
  -9  -3  -3    6.78    0.62
  -9  -3  -3    6.67    0.60
   9  -3   3    7.04    0.38
  -9   3  -3    6.99    0.38
  -9   3  -3    6.80    0.46
  -9   3  -3    7.41    0.68
  -9   3  -3    6.18    0.62
   9   3   3    7.31    0.39
   9   3   3    7.34    0.41
  -9   3  -3    7.04    0.47
   9   3   3    6.21    0.45
  -9   3  -3    7.40    0.38
  -9   3  -3    6.93    0.63
 -11  -3  -3    3.52    0.56
  11  -3   3    3.48    0.34
 -11  -3  -3    2.99    0.47
  11  -3   3    3.04    0.31
  11   3   3    3.26    0.35
 -11   3  -3    3.59    0.38
 -11   3  -3    3.64    0.58
 -11   3  -3    3.25    0.52
  11   3   3    3.05    0.31
 -11   3  -3    3.09    0.31
 -13  -3  -3    1.89    0.30
 -13  -3  -3    1.93    0.44
  13  -3   3    1.53    0.27
 -13  -3  -3    2.03    0.40
  13   3   3    1.88    0.28
 -13   3  -3    1.58    0.24
  13   3   3    0.18    0.41
 -13   3  -3    2.06    0.41
 -13   3  -3    1.90    0.42
 -13   3  -3    1.58    0.27
 -15  -3  -3    0.13    0.21
 -15  -3  -3    0.41    0.28
 -15   3  -3    0.17    0.19
 -15   3  -3    0.06    0.27
  15   3   3   -0.26    0.32
 -17   3  -3    0.19    0.17
  20  -4  -3    1.13    0.21
 -20  -4   3    1.24    0.25
  20   4  -3    1.62    0.39
  20   4  -3    1.43    0.38
  20   4  -3    1.24    0.22
  20   4  -3    1.08    0.28
 -20   4   3    1.52    0.28
 -20   4   3    0.65    0.21
  20   4  -3    1.82    0.28
  20   4  -3    1.68    0.28
  18  -4  -3    0.41    0.18
  18  -4  -3    0.64    0.30
 -18  -4   3    0.55    0.19
  18  -4  -3    0.69    0.20
  18  -4  -3    0.45    0.25
  18   4  -3    0.93    0.30
 -18   4   3    0.53    0.16
  18   4  -3    0.58    0.23
 -18   4   3    1.07    0.27
 -18   4   3    0.56    0.18
  18   4  -3    0.43    0.18
  18   4  -3    0.57    0.32
  18   4  -3    0.50    0.32
 -18   4   3    0.74    0.21
  18   4  -3    0.64    0.17
 -18   4   3    0.57    0.27
  18   4  -3    0.63    0.22
  16  -4  -3    2.81    0.48
 -16  -4   3    2.25    0.29
 -16  -4   3    2.64    0.30
  16  -4  -3    3.21    0.41
  16  -4  -3    3.02    0.41
  16  -4  -3    2.26    0.34
 -16   4   3    2.97    0.30
 -16   4   3    2.63    0.33
  16   4  -3    3.12    0.51
  16   4  -3    2.58    0.30
  16   4  -3    3.12    0.63
  16   4  -3    2.62    0.37
 -16   4   3    3.06    0.35
 -16   4   3    3.06    0.46
  16   4  -3    3.02    0.65
  16   4  -3    2.83    0.41
  14  -4  -3    0.08    0.16
 -14  -4   3    0.14    0.12
 -14  -4   3    0.18    0.12
  14  -4  -3    0.15    0.12
  14  -4  -3    0.20    0.16
  14  -4  -3    0.29    0.18
 -14  -4   3    0.41    0.16
  14   4  -3    0.24    0.27
 -14   4   3    0.11    0.13
  14   4  -3    0.01    0.14
 -14   4   3    0.27    0.14
  14   4  -3    0.09    0.21
 -14   4   3    0.13    0.11
  14   4  -3    0.26    0.12
 -14   4   3    0.14    0.09
  14   4  -3    0.19    0.14
 -14   4   3    0.13    0.18
 -14   4   3    0.15    0.13
  14   4  -3    0.40    0.18
  14   4  -3    0.13    0.25
 -12  -4   3   -0.03    0.17
 -12  -4   3    0.09    0.10
 -12  -4   3    0.13    0.11
  12  -4  -3    0.23    0.11
  12  -4  -3    0.00    0.14
  12  -4  -3    0.15    0.60
 -12  -4   3   -0.01    0.09
  12  -4  -3    0.21    0.14
  12  -4  -3   -0.16    0.16
 -12  -4   3    0.17    0.13
  12  -4  -3    0.25    0.15
 -12  -4   3    0.09    0.09
 -12   4   3    0.05    0.09
 -12   4   3    0.06    0.06
 -12   4   3    0.06    0.10
  12   4  -3   -0.13    0.14
  12   4  -3   -0.01    0.15
  12   4  -3    0.43    0.29
  12   4  -3    0.06    0.09
 -12   4   3    0.13    0.10
  12   4  -3   -0.03    0.09
  12   4  -3    0.07    0.23
 -12   4   3    0.09    0.09
 -12   4   3   -0.06    0.08
  12   4  -3    0.19    0.20
 -10  -4   3   18.48    0.73
 -10  -4   3   18.32    0.74
 -10  -4   3   18.06    0.62
 -10  -4   3   20.06    0.63
 -10  -4   3   17.75    0.88
 -10  -4   3   18.63    0.65
 -10   4   3   18.11    0.66
 -10   4   3   19.45    0.66
 -10   4   3   19.61    0.66
 -10   4   3   19.23    0.71
 -10   4   3   18.55    0.72
 -10   4   3   18.59    0.67
  10   4  -3   18.98    0.69
  10   4  -3   20.42    0.65
  -8  -4   3    0.22    0.12
  -8  -4   3    0.22    0.08
  -8  -4   3    0.27    0.10
  -8  -4   3    0.21    0.11
  -8  -4   3    0.11    0.08
  -8  -4   3    0.14    0.09
  -8   4   3    0.27    0.08
  -8   4   3    0.15    0.09
   8   4  -3    0.18    0.08
   8   4  -3    0.26    0.09
  -8   4   3    0.18    0.09
  -8   4   3    0.14    0.09
  -8   4   3    0.29    0.09
  -8   4   3    0.21    0.06
  -8   4   3    0.27    0.09
  -6  -4   3    0.14    0.08
  -6  -4   3    0.16    0.09
  -6  -4   3    0.14    0.08
  -6  -4   3    0.13    0.08
  -6  -4   3    0.31    0.08
  -6  -4   3    0.12    0.09
  -6   4   3    0.25    0.08
  -6   4   3    0.17    0.07
  -6   4   3    0.18    0.07
  -6   4   3    0.18    0.07
  -6   4   3    0.15    0.03
   6   4  -3    0.19    0.08
  -6   4   3    0.14    0.04
  -6   4   3    0.22    0.07
  -6   4   3    0.30    0.09
  -6   4   3    0.23    0.08
   6   4  -3    0.13    0.07
  -6   4   3    0.08    0.07
  -4  -4   3    9.38    0.44
  -4  -4   3   10.14    0.51
  -4  -4   3    9.46    0.34
  -4  -4   3   10.25    0.40
  -4  -4   3    9.23    0.31
  -4  -4   3    9.80    0.37
  -4  -4   3   10.20    0.35
  -4   4   3   10.27    0.34
  -4   4   3    8.95    0.33
   4   4  -3    9.49    0.31
  -4   4   3   10.15    0.40
  -4   4   3    9.74    0.37
  -4   4   3    9.46    0.36
   4   4  -3    9.58    0.36
   4   4  -3   10.18    0.37
  -4   4   3    9.99    0.32
  -4   4   3    9.94    0.34
  -4   4   3    9.85    0.35
  -2  -4   3    1.37    0.14
  -2  -4   3    1.45    0.22
  -2  -4   3    1.72    0.21
  -2  -4   3    1.32    0.14
  -2  -4   3    1.40    0.15
  -2  -4   3    1.39    0.15
  -2  -4   3    1.25    0.13
   2   4  -3    1.51    0.15
  -2   4   3    1.48    0.13
   2   4  -3    1.40    0.16
   2   4  -3    1.38    0.14
  -2   4   3    1.48    0.17
   2   4  -3    1.67    0.15
  -2   4   3    1.49    0.15
  -2   4   3    1.78    0.18
  -2   4   3    1.53    0.17
  -2   4   3    1.39    0.17
  -2   4   3    1.60    0.16
   0  -4   3   23.06    0.76
   0  -4   3   23.18    0.63
   0  -4   3   23.61    0.68
   0  -4   3   22.42    0.91
   0  -4  -3   22.22    0.53
   0   4   3   23.71    0.63
   0   4   3   22.27    0.59
   0   4  -3   23.02    0.65
   0   4   3   24.35    0.70
   0   4  -3   23.37    0.61
   0   4   3   21.36    0.62
   0   4  -3   21.88    0.91
   0   4   3   24.31    0.77
   0   4   3   23.40    0.65
   0   4   3   24.88    0.83
   0   4  -3   23.40    0.59
   2  -4   3   23.22    0.65
   2  -4   3   21.02    0.73
  -2   4  -3   22.81    0.62
  -2   4  -3   21.85    0.65
   2   4   3   23.52    0.67
   2   4   3   22.99    0.87
  -2   4  -3   22.94    0.75
   2   4   3   23.14    0.67
  -2   4  -3   22.48    0.95
   2   4   3   23.73    0.79
   2   4   3   23.12    0.64
   2   4   3   22.56    0.69
  -2   4  -3   22.96    0.60
   2   4   3   22.85    0.64
   4  -4   3   19.26    0.61
   4  -4   3   19.11    0.70
   4   4   3   20.26    0.65
  -4   4  -3   18.91    0.70
   4   4   3   20.39    0.64
   4   4   3   19.31    0.73
  -4   4  -3   18.90    0.56
   4   4   3   20.07    0.60
   4   4   3   19.18    0.61
  -4   4  -3   19.03    0.61
  -4   4  -3   19.01    0.62
   4   4   3   19.62    0.84
   4   4   3   18.61    0.61
   6  -4   3   19.88    0.68
   6  -4   3   20.91    0.67
   6  -4   3   21.48    0.79
   6  -4   3   21.88    0.69
   6   4   3   22.40    0.73
   6   4   3   21.39    0.70
   6   4   3   20.96    0.82
   6   4   3   21.31    0.69
   6   4   3   19.89    0.94
  -6   4  -3   21.74    0.65
  -6   4  -3   21.04    0.79
  -6   4  -3   21.42    0.70
   6   4   3   20.81    0.68
  -8  -4  -3    8.66    0.67
   8  -4   3    9.25    0.44
   8  -4   3    8.98    0.43
  -8  -4  -3    7.86    0.68
   8  -4   3    8.70    0.50
   8   4   3    9.71    0.47
   8   4   3    8.04    0.49
  -8   4  -3    8.44    0.43
  -8   4  -3    8.50    0.73
  -8   4  -3    7.29    0.67
  -8   4  -3    8.80    0.41
   8   4   3    8.46    0.42
   8   4   3    8.60    0.53
  -8   4  -3    8.73    0.54
   8   4   3    7.78    0.53
  -8   4  -3    7.98    0.57
  -8   4  -3    8.05    0.50
  -8   4  -3    8.89    0.72
   8   4   3    8.68    0.42
  10  -4   3    0.12    0.11
 -10  -4  -3   -0.05    0.20
 -10  -4  -3    0.11    0.21
  10  -4   3   -0.09    0.09
 -10   4  -3    0.09    0.12
  10   4   3    0.24    0.17
  10   4   3   -0.05    0.11
 -10   4  -3   -0.04    0.10
 -10   4  -3    0.26    0.24
  10   4   3    0.25    0.18
 -10   4  -3    0.11    0.22
 -10   4  -3   -0.03    0.14
  10   4   3    0.07    0.13
 -10   4  -3    0.04    0.20
  10   4   3    0.02    0.16
 -12  -4  -3    0.64    0.28
 -12  -4  -3    0.59    0.20
  12  -4   3    0.43    0.15
 -12  -4  -3    0.53    0.27
  12  -4   3    0.44    0.19
 -12   4  -3    0.80    0.20
  12   4   3    0.58    0.19
 -12   4  -3    0.43    0.26
 -12   4  -3    0.63    0.20
 -12   4  -3    0.52    0.29
  12   4   3   -0.01    0.34
 -14  -4  -3    0.03    0.21
 -14  -4  -3    0.13    0.27
 -14  -4  -3    0.27    0.18
  14   4   3    0.42    0.38
 -14   4  -3    0.28    0.23
 -14   4  -3    0.32    0.28
 -14   4  -3   -0.25    0.14
 -16  -4  -3    1.00    0.26
  16  -4   3    0.54    0.22
  16   4   3    0.58    0.25
 -16   4  -3    1.16    0.27
  16   4   3    0.45    0.32
  21   5  -3    2.61    0.27
  21   5  -3    2.20    0.38
  19  -5  -3    0.19    0.15
  19   5  -3    0.33    0.15
 -19   5   3    0.13    0.17
  19   5  -3    0.32    0.30
  19   5  -3    0.26    0.18
  19   5  -3    0.05    0.16
  19   5  -3    0.29    0.25
  19   5  -3    0.26    0.22
 -19   5   3    0.36    0.21
 -17  -5   3    2.59    0.30
  17  -5  -3    2.93    0.35
  17   5  -3    3.34    0.42
  17   5  -3    3.22    0.66
 -17   5   3    3.27    0.44
 -17   5   3    3.06    0.35
  17   5  -3    3.26    0.38
 -17   5   3    2.97    0.50
  17   5  -3    3.19    0.62
  17   5  -3    2.65    0.31
 -17   5   3    2.85    0.33
  17   5  -3    3.63    0.52
 -17   5   3    3.22    0.31
 -15  -5   3   14.21    0.60
  15  -5  -3   12.68    0.73
  15  -5  -3   12.61    0.58
  15  -5  -3   13.90    0.70
  15   5  -3   13.35    0.59
 -15   5   3   13.51    0.80
 -15   5   3   13.51    0.62
 -15   5   3   14.07    0.63
  15   5  -3   13.84    0.87
  15   5  -3   13.26    0.72
  15   5  -3   13.70    0.70
  15   5  -3   13.40    1.10
 -15   5   3   13.99    0.54
 -15   5   3   13.08    0.91
  15   5  -3   13.57    1.10
  13  -5  -3    0.00    0.13
 -13  -5   3    0.13    0.14
  13  -5  -3    0.03    0.16
  13  -5  -3    0.05    0.11
 -13  -5   3    0.06    0.11
  13  -5  -3   -0.12    0.61
 -13   5   3    0.12    0.19
  13   5  -3    0.06    0.20
  13   5  -3   -0.14    0.11
  13   5  -3    0.15    0.15
 -13   5   3   -0.10    0.08
 -13   5   3    0.33    0.19
  13   5  -3   -0.07    0.23
 -13   5   3    0.09    0.10
  13   5  -3   -0.01    0.09
 -13   5   3    0.12    0.11
 -13   5   3   -0.08    0.11
  13   5  -3    0.10    0.16
  13   5  -3   -0.08    0.21
 -13   5   3    0.15    0.13
 -13   5   3    0.07    0.07
 -11  -5   3    0.50    0.15
 -11  -5   3    0.36    0.17
  11  -5  -3   -0.02    0.61
  11  -5  -3    0.38    0.19
  11  -5  -3    0.10    0.15
 -11  -5   3    0.24    0.10
 -11   5   3    0.22    0.20
  11   5  -3    0.63    0.30
 -11   5   3    0.05    0.18
  11   5  -3    0.47    0.12
 -11   5   3    0.26    0.10
 -11   5   3    0.35    0.14
  11   5  -3    0.18    0.10
  11   5  -3    0.17    0.16
 -11   5   3    0.44    0.14
  11   5  -3    0.34    0.22
 -11   5   3    0.24    0.06
 -11   5   3    0.38    0.13
  11   5  -3    0.43    0.15
 -11   5   3    0.24    0.10
  11   5  -3    0.40    0.26
  -9  -5   3   14.21    0.54
  -9  -5   3   15.02    0.63
  -9  -5   3   15.06    0.53
  -9  -5   3   14.88    0.65
  -9   5   3   14.72    0.55
  -9   5   3   14.75    0.61
   9   5  -3   14.15    0.58
  -9   5   3   14.52    0.54
  -9   5   3   14.05    0.56
  -9   5   3   14.96    0.54
   9   5  -3   15.17    0.54
  -7  -5   3    2.24    0.21
  -7  -5   3    2.63    0.27
  -7  -5   3    2.39    0.28
  -7  -5   3    2.38    0.32
  -7  -5   3    2.46    0.22
  -7   5   3    2.73    0.24
   7   5  -3    2.71    0.25
  -7   5   3    2.64    0.21
  -7   5   3    2.46    0.11
  -7   5   3    2.89    0.26
   7   5  -3    2.41    0.24
  -7   5   3    2.75    0.24
  -7   5   3    2.49    0.11
  -7   5   3    2.54    0.25
  -7   5   3    2.85    0.25
  -5  -5   3    0.19    0.08
  -5  -5   3    0.12    0.07
  -5  -5   3    0.12    0.10
  -5  -5   3    0.12    0.08
  -5  -5   3    0.51    0.14
  -5   5   3    0.18    0.08
  -5   5   3    0.16    0.07
   5   5  -3    0.21    0.08
   5   5  -3    0.09    0.06
  -5   5   3    0.24    0.09
  -5   5   3    0.22    0.08
  -5   5   3    0.11    0.06
  -5   5   3    0.17    0.07
  -5   5   3    0.12    0.05
   5   5  -3    0.14    0.07
  -5   5   3    0.20    0.08
  -3  -5   3   23.18    0.95
  -3  -5   3   22.16    0.61
  -3  -5   3   22.63    0.62
  -3  -5   3   23.79    0.73
  -3  -5   3   23.61    0.80
  -3   5   3   24.14    0.77
   3   5  -3   23.67    0.68
   3   5  -3   22.58    0.66
  -3   5   3   23.27    0.62
   3   5  -3   22.68    0.70
  -3   5   3   22.77    0.68
   3   5  -3   23.13    0.58
  -3   5   3   24.66    0.77
  -3   5   3   23.81    0.64
  -3   5   3   22.26    0.66
  -3   5   3   24.67    0.74
  -1  -5   3    3.44    0.19
  -1  -5   3    3.10    0.20
  -1  -5   3    3.34    0.30
   1   5  -3    3.74    0.24
  -1   5   3    3.23    0.24
   1   5  -3    3.45    0.20
  -1   5   3    3.42    0.22
  -1   5   3    3.09    0.13
  -1   5   3    2.95    0.23
   1   5  -3    3.39    0.37
   1   5  -3    3.27    0.19
  -1   5   3    3.14    0.20
  -1   5   3    3.54    0.25
  -1   5   3    3.74    0.23
   1   5  -3    3.56    0.26
  -1   5   3    3.03    0.20
   1  -5   3    9.47    0.45
   1  -5   3   10.68    0.40
   1   5   3   10.53    0.42
   1   5   3   10.66    0.35
   1   5   3   10.95    0.40
  -1   5  -3    9.47    0.39
  -1   5  -3   10.18    0.58
  -1   5  -3   10.32    0.37
  -1   5  -3   10.23    0.44
   1   5   3   10.65    0.41
  -1   5  -3   10.47    0.36
   1   5   3   10.84    0.50
   1   5   3   10.51    0.47
   1   5   3   10.26    0.40
  -1   5  -3   10.64    0.41
   3  -5   3   34.66    0.90
   3   5   3   34.52    0.90
  -3   5  -3   33.90    0.92
   3   5   3   34.38    0.96
   3   5   3   34.97    1.10
  -3   5  -3   32.27    0.88
  -3   5  -3   31.43    1.31
   3   5   3   34.50    0.95
  -3   5  -3   34.00    1.03
   3   5   3   34.34    0.92
   3   5   3   32.73    0.88
   3   5   3   32.11    1.21
  -3   5  -3   33.95    0.83
  -3   5  -3   31.17    0.93
   5  -5   3    2.72    0.30
   5  -5   3    2.72    0.25
   5  -5   3    2.75    0.27
  -5   5  -3    2.64    0.29
   5   5   3    3.01    0.29
   5   5   3    2.94    0.28
  -5   5  -3    2.69    0.25
  -5   5  -3    2.90    0.28
   5   5   3    2.49    0.33
   5   5   3    2.60    0.24
   5   5   3    3.13    0.33
  -5   5  -3    2.85    0.27
   5   5   3    2.70    0.27
   7  -5   3    3.15    0.29
   7  -5   3    3.83    0.33
  -7  -5  -3    3.42    0.54
  -7  -5  -3    3.81    0.53
   7  -5   3    3.52    0.36
   7   5   3    2.87    0.40
  -7   5  -3    4.03    0.56
   7   5   3    3.48    0.33
  -7   5  -3    2.88    0.50
   7   5   3    3.26    0.29
  -7   5  -3    4.03    0.48
  -7   5  -3    3.51    0.33
   7   5   3    3.44    0.31
  -7   5  -3    3.28    0.29
   7   5   3    3.14    0.36
  -7   5  -3    2.83    0.32
   7   5   3    3.21    0.38
   7   5   3    3.46    0.39
  -7   5  -3    3.44    0.37
   7   5   3    3.18    0.31
  -7   5  -3    3.99    0.56
  -7   5  -3    3.38    0.39
  -7   5  -3    2.87    0.47
   9  -5   3    0.62    0.17
   9  -5   3    0.56    0.16
   9  -5   3    0.46    0.19
  -9  -5  -3    0.68    0.27
   9   5   3    0.64    0.17
   9   5   3    0.40    0.15
   9   5   3    0.66    0.21
  -9   5  -3    0.39    0.24
  -9   5  -3    0.54    0.15
  -9   5  -3    0.70    0.28
   9   5   3    0.48    0.19
   9   5   3    0.55    0.18
  -9   5  -3    0.48    0.27
  -9   5  -3    0.68    0.19
  -9   5  -3    0.48    0.19
  -9   5  -3    0.70    0.16
  -9   5  -3    0.43    0.20
  11  -5   3    0.14    0.12
  11  -5   3    0.03    0.13
 -11  -5  -3    0.15    0.22
 -11  -5  -3    0.15    0.19
  11   5   3    0.20    0.17
 -11   5  -3   -0.02    0.15
 -11   5  -3   -0.07    0.12
 -11   5  -3   -0.03    0.13
  11   5   3    0.09    0.15
  11   5   3    0.10    0.15
 -11   5  -3    0.42    0.27
 -11   5  -3    0.01    0.19
 -13  -5  -3    0.13    0.20
 -13  -5  -3   -0.02    0.16
 -13  -5  -3    0.11    0.26
  13   5   3   -0.24    0.29
 -13   5  -3    0.41    0.27
 -13   5  -3    0.11    0.19
 -13   5  -3    0.15    0.14
  13   5   3    0.00    0.17
 -15  -5  -3    0.28    0.22
  15  -5   3    0.01    0.22
 -15  -5  -3    0.45    0.28
 -15   5  -3    0.25    0.21
  15   5   3    0.18    0.31
  20  -6  -3    0.12    0.12
 -20  -6   3    0.69    0.18
  20   6  -3    0.40    0.27
  20   6  -3    0.51    0.16
  20   6  -3    0.13    0.11
  20   6  -3    0.24    0.21
  20   6  -3    0.25    0.16
 -20   6   3    0.55    0.23
  18  -6  -3    8.98    0.51
  18   6  -3    9.12    0.53
  18   6  -3    9.37    0.64
  18   6  -3    9.84    0.56
 -18   6   3    8.78    0.66
  18   6  -3    7.91    0.78
  18   6  -3   10.13    0.86
 -18   6   3    9.97    0.64
 -16  -6   3   23.42    0.81
  16  -6  -3   23.07    0.93
 -16   6   3   21.59    0.82
 -16   6   3   21.75    1.22
  16   6  -3   21.73    1.11
 -16   6   3   22.71    0.84
 -16   6   3   22.71    0.75
  16   6  -3   22.73    1.48
  16   6  -3   22.65    1.47
  16   6  -3   22.50    0.93
  16   6  -3   21.82    0.80
 -16   6   3   21.71    1.08
  16   6  -3   21.82    0.97
  14  -6  -3    2.22    0.28
  14  -6  -3    2.76    0.37
 -14  -6   3    2.36    0.29
 -14   6   3    2.22    0.29
  14   6  -3    2.31    0.29
  14   6  -3    3.08    0.50
  14   6  -3    2.53    0.36
  14   6  -3    2.24    0.56
 -14   6   3    2.28    0.30
  14   6  -3    2.88    0.61
  14   6  -3    1.94    0.35
 -14   6   3    2.20    0.44
 -14   6   3    2.31    0.32
 -14   6   3    2.36    0.40
 -14   6   3    2.23    0.22
 -12  -6   3    2.67    0.29
 -12  -6   3    2.79    0.36
  12  -6  -3    2.55    0.33
  12  -6  -3    0.35    0.83
 -12  -6   3    2.75    0.34
  12  -6  -3    2.36    0.34
 -12   6   3    2.71    0.30
  12   6  -3    2.58    0.29
 -12   6   3    2.21    0.31
  12   6  -3    2.52    0.57
  12   6  -3    2.63    0.33
  12   6  -3    2.39    0.33
 -12   6   3    2.64    0.32
 -12   6   3    2.56    0.39
  12   6  -3    3.29    0.62
  12   6  -3    2.80    0.39
 -12   6   3    2.69    0.30
 -12   6   3    2.40    0.27
 -12   6   3    2.57    0.47
 -12   6   3    2.41    0.16
  12   6  -3    2.44    0.41
  10  -6  -3    5.59    0.43
  10  -6  -3    3.47    1.25
 -10  -6   3    5.79    0.40
  10  -6  -3    3.73    0.37
 -10  -6   3    5.98    0.34
 -10  -6   3    6.18    0.42
 -10   6   3    5.82    0.30
  10   6  -3    6.03    0.39
 -10   6   3    6.33    0.35
  10   6  -3    5.93    0.41
  10   6  -3    6.35    0.35
 -10   6   3    5.95    0.36
  10   6  -3    5.59    0.43
  10   6  -3    6.19    0.82
 -10   6   3    5.83    0.38
  10   6  -3    5.86    0.63
 -10   6   3    6.47    0.57
 -10   6   3    6.36    0.35
  -8  -6   3   13.04    0.49
  -8  -6   3   13.23    0.58
  -8  -6   3   13.26    0.61
  -8   6   3   12.45    0.51
  -8   6   3   12.98    0.50
   8   6  -3   13.75    0.52
  -8   6   3   13.06    0.43
   8   6  -3   12.27    0.54
  -8   6   3   13.48    0.56
  -8   6   3   12.84    0.49
  -6  -6   3   17.19    0.55
  -6  -6   3   16.30    0.63
  -6  -6   3   17.91    0.70
  -6   6   3   16.10    0.55
  -6   6   3   17.08    0.53
  -6   6   3   16.50    0.56
  -6   6   3   16.92    0.55
   6   6  -3   18.37    0.60
  -6   6   3   17.15    0.63
  -6   6   3   17.60    0.62
   6   6  -3   16.60    0.62
  -6   6   3   17.18    0.56
  -6   6   3   16.42    0.62
  -6   6   3   16.40    0.55
  -4  -6   3    4.83    0.32
  -4  -6   3    4.98    0.28
  -4  -6   3    5.25    0.26
  -4  -6   3    4.14    0.22
  -4   6   3    4.68    0.25
   4   6  -3    4.51    0.27
  -4   6   3    4.57    0.24
   4   6  -3    4.20    0.25
  -4   6   3    4.92    0.20
  -4   6   3    4.66    0.24
   4   6  -3    4.77    0.28
   4   6  -3    4.24    0.21
  -4   6   3    4.59    0.26
  -4   6   3    5.04    0.31
  -2  -6   3    9.01    0.38
  -2  -6   3   10.43    0.48
  -2  -6   3    8.63    0.33
  -2  -6   3   10.09    0.37
  -2   6   3    9.26    0.37
   2   6  -3    9.71    0.39
  -2   6   3    9.72    0.38
  -2   6   3    9.87    0.41
  -2   6   3    9.95    0.45
   2   6  -3    9.53    0.40
   2   6  -3    9.67    0.40
   2   6  -3    9.47    0.33
  -2   6   3   10.06    0.41
   0  -6   3   27.14    0.89
   0  -6   3   26.90    0.74
   0   6   3   26.54    0.77
   0   6   3   28.30    0.95
   0   6   3   27.16    0.90
   0   6  -3   26.91    0.78
   0   6  -3   26.51    0.84
   0   6  -3   26.03    0.77
   0   6   3   25.67    0.67
   0   6  -3   25.15    0.74
   0   6   3   26.90    0.74
   0   6  -3   26.05    0.67
   0   6  -3   24.82    1.08
   0   6  -3   23.81    0.76
   0   6   3   27.22    0.80
   2  -6   3    5.51    0.34
   2  -6   3    5.94    0.30
   2   6   3    5.40    0.26
   2   6   3    5.52    0.29
  -2   6  -3    5.68    0.30
   2   6   3    5.87    0.31
  -2   6  -3    5.77    0.34
   2   6   3    5.56    0.31
  -2   6  -3    5.37    0.28
   2   6   3    5.33    0.36
   2   6   3    6.02    0.33
  -2   6  -3    5.56    0.44
  -2   6  -3    5.59    0.31
   2   6   3    5.87    0.36
  -2   6  -3    5.62    0.28
  -2   6  -3    5.22    0.30
   4  -6   3    1.41    0.19
   4   6   3    1.32    0.20
  -4   6  -3    1.47    0.20
  -4   6  -3    1.19    0.19
  -4   6  -3    1.28    0.18
   4   6   3    1.18    0.21
   4   6   3    1.30    0.19
   4   6   3    1.41    0.26
  -4   6  -3    1.36    0.20
  -4   6  -3    1.34    0.21
   4   6   3    1.33    0.17
   4   6   3    1.53    0.21
   6  -6   3    0.24    0.12
  -6  -6  -3    0.17    0.25
   6  -6   3    0.21    0.10
   6  -6   3    0.13    0.10
   6   6   3    0.19    0.13
  -6   6  -3    0.18    0.18
  -6   6  -3    0.13    0.09
   6   6   3    0.18    0.15
   6   6   3    0.10    0.14
  -6   6  -3    0.08    0.14
  -6   6  -3    0.23    0.14
   6   6   3    0.29    0.10
  -6   6  -3    0.23    0.12
   6   6   3    0.29    0.12
  -6   6  -3    0.23    0.15
  -6   6  -3    0.13    0.10
  -6   6  -3    0.15    0.20
  -6   6  -3    0.08    0.24
   6   6   3    0.03    0.08
   6   6   3    0.22    0.12
  -6   6  -3    0.15    0.22
   8  -6   3    2.22    0.27
   8  -6   3    1.70    0.29
  -8  -6  -3    1.83    0.43
  -8  -6  -3    1.93    0.40
   8  -6   3    1.95    0.25
   8   6   3    2.03    0.31
  -8   6  -3    1.97    0.43
  -8   6  -3    1.97    0.32
  -8   6  -3    1.72    0.29
  -8   6  -3    2.33    0.39
  -8   6  -3    2.41    0.46
  -8   6  -3    1.68    0.42
   8   6   3    1.91    0.25
   8   6   3    2.07    0.32
  -8   6  -3    2.06    0.26
   8   6   3    2.11    0.26
   8   6   3    2.18    0.28
   8   6   3    1.88    0.31
  -8   6  -3    2.16    0.27
   8   6   3    1.91    0.24
 -10  -6  -3    2.79    0.51
  10  -6   3    2.61    0.30
  10  -6   3    2.54    0.30
  10   6   3    2.68    0.36
 -10   6  -3    2.32    0.29
 -10   6  -3    2.40    0.47
 -10   6  -3    2.41    0.32
 -10   6  -3    2.93    0.31
  10   6   3    2.51    0.35
 -10   6  -3    3.18    0.45
 -10   6  -3    2.58    0.47
 -10   6  -3    2.90    0.52
  10   6   3    2.50    0.33
  12  -6   3    0.69    0.17
 -12  -6  -3    0.98    0.32
 -12  -6  -3    1.22    0.35
 -12   6  -3    0.91    0.19
 -12   6  -3    0.93    0.20
  12   6   3    0.03    0.32
  12   6   3    0.96    0.22
 -12   6  -3    0.91    0.32
  12   6   3    1.11    0.27
 -12   6  -3    1.21    0.36
 -14  -6  -3    1.20    0.30
 -14  -6  -3    1.38    0.34
 -14   6  -3    1.19    0.31
  14   6   3    0.03    0.33
 -16   6  -3    3.22    0.39
  19  -7  -3    3.26    0.30
  19  -7  -3    2.09    0.30
  19   7  -3    3.47    0.35
  19   7  -3    3.24    0.53
 -19   7   3    3.69    0.43
  19   7  -3    3.74    0.55
  19   7  -3    3.83    0.35
  19   7  -3    3.53    0.35
 -17  -7   3    1.05    0.22
  17  -7  -3    1.12    0.23
 -17   7   3    1.18    0.19
 -17   7   3    1.12    0.22
 -17   7   3    1.16    0.29
  17   7  -3    1.68    0.48
  17   7  -3    1.21    0.42
 -17   7   3    1.50    0.31
  17   7  -3    1.36    0.25
  17   7  -3    1.26    0.26
  15  -7  -3    9.74    0.52
  15  -7  -3   11.41    0.61
 -15  -7   3   11.48    0.55
  15   7  -3    9.70    0.90
 -15   7   3   11.47    0.74
  15   7  -3   11.10    0.61
  15   7  -3   11.80    0.67
 -15   7   3   12.46    0.86
 -15   7   3   11.59    0.57
  15   7  -3   11.38    0.96
 -15   7   3   11.06    0.45
  15   7  -3   11.06    0.54
 -13  -7   3    9.16    0.56
  13  -7  -3    8.64    0.46
  13  -7  -3    9.17    0.54
 -13  -7   3    9.09    0.47
 -13   7   3    9.06    0.49
  13   7  -3    9.24    0.49
  13   7  -3    8.60    0.53
 -13   7   3    8.38    0.62
  13   7  -3    8.53    0.57
 -13   7   3    8.34    0.46
 -13   7   3    8.53    0.35
 -13   7   3    8.36    0.49
 -13   7   3    9.29    0.75
  13   7  -3    8.75    0.84
  13   7  -3    9.32    0.86
 -11  -7   3    0.29    0.15
  11  -7  -3    0.01    0.69
 -11  -7   3    0.36    0.13
 -11  -7   3    0.23    0.15
 -11   7   3    0.18    0.12
 -11   7   3    0.23    0.12
  11   7  -3    0.48    0.32
 -11   7   3    0.15    0.12
  11   7  -3    0.29    0.19
 -11   7   3    0.20    0.09
  11   7  -3    0.25    0.17
  11   7  -3    0.28    0.27
 -11   7   3    0.27    0.20
 -11   7   3    0.28    0.15
  11   7  -3    0.18    0.11
 -11   7   3    0.16    0.22
  11   7  -3    0.10    0.13
  -9  -7   3   24.35    0.74
  -9  -7   3   23.62    0.92
   9  -7  -3   18.00    2.65
  -9  -7   3   22.88    0.88
  -9   7   3   24.42    0.76
   9   7  -3   24.03    0.78
   9   7  -3   20.59    0.89
  -9   7   3   23.14    1.20
   9   7  -3   22.93    1.20
  -9   7   3   24.14    0.80
   9   7  -3   23.32    0.85
   9   7  -3   21.91    1.32
  -9   7   3   22.47    0.73
  -9   7   3   22.36    0.83
   9   7  -3   21.10    0.85
  -7  -7   3    3.15    0.31
  -7  -7   3    3.01    0.34
  -7  -7   3    3.26    0.28
   7   7  -3    3.14    0.31
   7   7  -3    3.12    0.29
  -7   7   3    3.31    0.28
   7   7  -3    3.20    0.30
  -7   7   3    3.18    0.28
  -7   7   3    3.07    0.29
  -7   7   3    3.61    0.31
  -7   7   3    3.04    0.27
  -7   7   3    2.97    0.12
  -5  -7   3    4.14    0.39
  -5  -7   3    4.10    0.29
  -5  -7   3    3.88    0.28
  -5   7   3    3.92    0.29
  -5   7   3    3.75    0.17
  -5   7   3    4.16    0.26
   5   7  -3    4.13    0.28
   5   7  -3    4.63    0.28
  -5   7   3    3.89    0.25
  -5   7   3    3.64    0.25
  -5   7   3    3.89    0.23
   5   7  -3    3.83    0.32
  -3  -7   3    3.31    0.34
  -3  -7   3    2.68    0.24
  -3  -7   3    3.10    0.24
  -3  -7   3    2.83    0.22
   3   7  -3    2.88    0.28
  -3   7   3    2.94    0.20
  -3   7   3    3.01    0.19
   3   7  -3    3.22    0.28
   3   7  -3    3.27    0.28
  -3   7   3    3.55    0.33
  -3   7   3    3.17    0.28
  -3   7   3    2.95    0.24
  -1  -7   3   36.29    0.93
  -1  -7   3   36.87    1.15
  -1   7   3   36.44    0.94
   1   7  -3   35.90    1.01
  -1   7   3   35.50    1.00
   1   7  -3   35.96    0.84
   1   7  -3   35.07    0.98
   1   7  -3   34.06    1.04
  -1   7   3   36.06    1.02
  -1   7   3   34.78    0.86
   1   7  -3   34.60    0.99
  -1   7   3   37.08    1.20
   1   7  -3   36.42    1.01
  -1   7   3   36.93    1.16
   1  -7   3   11.39    0.45
   1  -7   3   11.26    0.52
   1   7   3   11.51    0.56
   1   7   3   11.47    0.55
  -1   7  -3   11.44    0.46
   1   7   3   10.87    0.44
  -1   7  -3   11.77    0.42
   1   7   3   11.52    0.40
  -1   7  -3   10.67    0.46
  -1   7  -3   11.35    0.48
  -1   7  -3   10.76    0.44
   1   7   3   11.64    0.48
   1   7   3   11.77    0.50
  -1   7  -3   11.03    0.50
   3  -7   3    1.79    0.22
  -3  -7  -3    1.43    0.36
   3   7   3    1.74    0.23
  -3   7  -3    3.16    1.71
  -3   7  -3    1.40    0.20
  -3   7  -3    1.55    0.37
  -3   7  -3    1.66    0.22
  -3   7  -3    1.44    0.22
   3   7   3    1.42    0.23
  -3   7  -3    1.32    0.18
  -3   7  -3    1.35    0.36
   3   7   3    1.39    0.20
  -3   7  -3    1.39    0.20
  -3   7  -3    1.95    0.39
   3   7   3    1.14    0.25
   3   7   3    1.51    0.25
   3   7   3    1.57    0.34
  -3   7  -3    1.40    0.18
  -3   7  -3    1.42    0.30
  -3   7  -3    1.70    0.23
   3   7   3    1.49    0.18
   5  -7   3    0.25    0.11
  -5  -7  -3    0.24    0.21
  -5   7  -3    0.10    0.13
  -5   7  -3    0.23    0.13
   5   7   3    0.08    0.09
   5   7   3    0.13    0.15
  -5   7  -3    0.07    0.14
  -5   7  -3    0.02    0.18
  -5   7  -3    0.02    0.09
  -5   7  -3    0.13    0.15
   5   7   3    0.61    0.33
  -5   7  -3    0.05    0.16
   5   7   3    0.21    0.15
  -5   7  -3    0.10    0.11
   5   7   3    0.00    0.11
  -5   7  -3    0.11    0.10
   5   7   3    0.15    0.11
  -5   7  -3    0.18    0.12
  -5   7  -3    0.37    0.27
  -5   7  -3    0.13    0.10
   5   7   3    0.09    0.13
   5   7   3    0.12    0.09
   7  -7   3    0.49    0.15
  -7  -7  -3    0.71    0.30
   7  -7   3    0.38    0.18
  -7  -7  -3    0.37    0.24
   7  -7   3    0.50    0.15
  -7   7  -3    0.57    0.28
  -7   7  -3    0.70    0.29
   7   7   3    0.26    0.16
  -7   7  -3    0.51    0.28
  -7   7  -3    0.55    0.16
   7   7   3    0.62    0.17
  -7   7  -3    0.63    0.27
   7   7   3    0.71    0.27
   7   7   3    0.27    0.15
  -7   7  -3    0.51    0.19
  -7   7  -3    0.70    0.23
  -7   7  -3    0.27    0.14
  -7   7  -3    0.38    0.16
   7   7   3    0.56    0.20
   7   7   3    0.54    0.19
   7   7   3    0.54    0.14
   9  -7   3    0.89    0.19
  -9  -7  -3    0.76    0.31
  -9  -7  -3    0.97    0.34
   9  -7   3    0.72    0.17
  -9   7  -3    0.83    0.19
   9   7   3    0.90    0.23
  -9   7  -3    0.56    0.24
  -9   7  -3    0.67    0.29
  -9   7  -3    0.79    0.19
  -9   7  -3    0.77    0.22
   9   7   3    0.61    0.21
   9   7   3    0.60    0.20
  -9   7  -3    0.65    0.31
  -9   7  -3    0.80    0.33
  11  -7   3    1.96    0.26
 -11  -7  -3    2.23    0.48
 -11   7  -3    2.41    0.48
  11   7   3    1.66    0.27
 -11   7  -3    1.44    0.25
 -11   7  -3    1.82    0.41
 -11   7  -3    1.54    0.25
  11   7   3    1.28    0.28
  11   7   3    1.75    0.29
 -13  -7  -3    0.43    0.23
 -13  -7  -3    0.61    0.29
  13   7   3   -0.02    0.32
 -13   7  -3    0.22    0.20
  13   7   3    0.24    0.18
 -13   7  -3    0.75    0.35
 -15  -7  -3   14.49    0.77
 -15  -7  -3   10.43    0.68
 -15   7  -3   13.04    0.74
  18  -8  -3    4.78    0.33
 -18   8   3    3.57    0.45
  18   8  -3    5.17    0.44
 -18   8   3    5.07    0.44
  18   8  -3    3.27    0.53
  18   8  -3    5.19    0.58
  18   8  -3    5.02    0.36
  16  -8  -3    0.07    0.65
  16  -8  -3    0.40    0.18
 -16  -8   3    0.97    0.21
  16   8  -3    0.51    0.21
 -16   8   3    1.29    0.32
  16   8  -3    1.09    0.23
 -16   8   3    1.01    0.20
  16   8  -3    1.15    0.40
 -16   8   3    0.80    0.16
  16   8  -3    0.94    0.43
 -16   8   3    1.21    0.30
  16   8  -3    0.96    0.23
  14  -8  -3    1.89    0.25
  14  -8  -3    1.70    0.27
 -14  -8   3    2.06    0.28
  14   8  -3    1.86    0.47
  14   8  -3    1.76    0.30
 -14   8   3    1.78    0.29
 -14   8   3    2.04    0.42
 -14   8   3    1.90    0.34
 -14   8   3    1.58    0.19
  14   8  -3    2.19    0.35
 -14   8   3    1.78    0.26
  14   8  -3    1.68    0.26
  14   8  -3    1.77    0.48
 -12  -8   3   -0.04    0.11
 -12  -8   3   -0.03    0.14
  12  -8  -3   -0.61    0.57
  12   8  -3    0.12    0.13
 -12   8   3    0.19    0.23
 -12   8   3   -0.01    0.07
 -12   8   3   -0.06    0.11
  12   8  -3    0.08    0.15
  12   8  -3    0.01    0.25
 -12   8   3    0.12    0.13
 -12   8   3   -0.01    0.20
  12   8  -3   -0.02    0.16
  12   8  -3    0.18    0.26
 -10  -8   3    1.88    0.29
 -10  -8   3    2.33    0.33
  10  -8  -3    0.20    1.80
 -10  -8   3    2.33    0.27
  10  -8  -3    1.56    1.04
 -10   8   3    1.98    0.36
  10   8  -3    2.17    0.31
  10   8  -3    2.57    0.45
  10   8  -3    2.09    0.31
 -10   8   3    1.90    0.16
 -10   8   3    2.25    0.29
  10   8  -3    2.44    0.30
  10   8  -3    2.78    0.58
 -10   8   3    2.23    0.27
 -10   8   3    2.31    0.44
  10   8  -3    2.22    0.34
   8  -8  -3    0.35    0.60
   8  -8  -3   -0.74    1.38
  -8  -8   3    0.64    0.15
  -8  -8   3    0.68    0.18
  -8  -8   3    0.65    0.18
   8   8  -3    0.80    0.16
  -8   8   3    0.74    0.16
   8   8  -3    0.51    0.16
  -8   8   3    0.57    0.25
  -8   8   3    0.57    0.15
   8   8  -3    0.66    0.16
  -6  -8   3   12.38    0.48
  -6  -8   3   13.53    0.65
  -6  -8   3   12.68    0.57
   6  -8  -3   14.97    2.20
  -6   8   3   12.43    0.50
   6   8  -3   12.04    0.56
  -6   8   3   12.62    0.52
   6   8  -3   13.20    0.55
  -6   8   3   12.60    0.52
   6   8  -3   13.60    0.56
  -6   8   3   12.73    0.82
  -6   8   3   12.37    0.43
  -4  -8   3    0.84    0.15
  -4  -8   3    0.62    0.13
  -4  -8   3    0.90    0.21
   4  -8  -3    0.26    1.24
  -4  -8   3    0.66    0.15
  -4   8   3    0.66    0.15
  -4   8   3    0.75    0.17
   4   8  -3    0.68    0.15
  -4   8   3    0.76    0.14
  -4   8   3    0.70    0.13
  -4   8   3    1.07    0.29
   4   8  -3    0.81    0.16
  -4   8   3    0.66    0.11
   4   8  -3    0.59    0.14
  -2  -8   3    0.30    0.10
  -2  -8   3    0.02    0.12
   2   8  -3    0.16    0.09
  -2   8   3    0.16    0.08
  -2   8   3    0.22    0.10
   2   8  -3    0.13    0.09
  -2   8   3    0.26    0.11
  -2   8   3    0.16    0.05
   2   8  -3    0.23    0.11
  -2   8   3    0.21    0.11
   0  -8   3   30.92    1.06
   0  -8   3   33.74    0.90
   0   8   3   32.98    0.97
   0   8   3   31.44    0.84
   0   8   3   32.29    1.15
   0   8   3   31.13    1.56
   0   8   3   30.79    1.28
   0   8  -3   29.65    0.93
   0   8   3   32.95    0.90
   0   8   3   31.90    1.11
   0   8  -3   30.34    1.48
   0   8  -3   33.43    0.97
   0   8  -3   30.06    1.28
   0   8   3   31.14    0.96
   0   8  -3   28.40    1.50
   0   8  -3   31.49    0.94
   0   8   3   32.35    1.46
   0   8  -3   32.67    0.97
   0   8  -3   32.80    1.51
   2  -8   3   28.59    0.85
  -2  -8  -3   31.22    1.44
  -2   8  -3   26.92    1.39
   2   8   3   26.90    0.99
  -2   8  -3   27.80    0.76
  -2   8  -3   26.42    0.93
   2   8   3   25.83    1.17
   2   8   3   28.13    1.38
   2   8   3   27.35    0.90
  -2   8  -3   27.15    1.39
   2   8   3   29.07    0.82
   2   8   3   28.04    1.39
  -2   8  -3   26.83    1.45
   2   8   3   28.49    1.04
  -2   8  -3   26.00    0.86
  -2   8  -3   27.71    1.21
  -2   8  -3   27.80    0.88
   2   8   3   29.28    0.92
  -2   8  -3   28.07    1.39
  -2   8  -3   26.75    0.86
  -2   8  -3   28.63    0.89
  -2   8  -3   29.87    0.92
   2   8   3   28.86    1.12
   4  -8   3    1.36    0.21
  -4  -8  -3    1.69    0.38
   4   8   3    1.16    0.21
  -4   8  -3    1.17    0.19
  -4   8  -3    1.59    0.38
   4   8   3    1.03    0.22
   4   8   3    0.95    0.22
  -4   8  -3    0.90    0.32
  -4   8  -3    1.23    0.22
  -4   8  -3    1.03    0.21
  -4   8  -3    1.38    0.32
   4   8   3    0.96    0.24
  -4   8  -3    1.41    0.22
   4   8   3    1.38    0.34
  -4   8  -3    1.04    0.18
  -4   8  -3    0.97    0.19
  -4   8  -3    1.01    0.20
   4   8   3    1.27    0.21
  -4   8  -3    1.36    0.38
  -4   8  -3    1.60    0.37
   4   8   3    1.15    0.24
   4   8   3    1.04    0.17
  -6  -8  -3    6.12    0.60
   6  -8   3    6.29    0.46
  -6   8  -3    4.54    0.44
  -6   8  -3    5.80    0.46
  -6   8  -3    5.82    0.42
   6   8   3    5.54    0.46
  -6   8  -3    6.52    0.65
   6   8   3    5.78    0.49
  -6   8  -3    6.00    0.72
  -6   8  -3    6.64    0.76
   6   8   3    6.21    0.69
   6   8   3    4.71    0.50
   6   8   3    5.56    0.61
   6   8   3    4.91    0.49
  -6   8  -3    5.17    0.46
  -6   8  -3    5.56    0.73
   6   8   3    5.59    0.45
   6   8   3    5.72    0.45
   6   8   3    5.34    0.34
  -6   8  -3    5.38    0.66
  -8  -8  -3   11.15    0.87
  -8  -8  -3   11.17    0.62
   8  -8   3   10.90    0.53
  -8  -8  -3   10.15    0.80
   8   8   3   11.70    0.61
   8   8   3   11.81    0.54
  -8   8  -3   11.52    0.73
  -8   8  -3   10.86    0.66
   8   8   3   10.31    0.51
  -8   8  -3   10.98    0.82
  -8   8  -3   11.17    0.51
   8   8   3    9.99    0.64
   8   8   3   10.82    0.65
  -8   8  -3   11.55    0.89
  -8   8  -3   11.53    0.83
  -8   8  -3   10.76    0.86
  -8   8  -3   10.91    0.54
   8   8   3   11.78    0.58
  10  -8   3    5.40    0.44
 -10  -8  -3    7.02    0.81
 -10   8  -3    6.14    0.45
 -10   8  -3    6.91    0.78
 -10   8  -3    5.77    0.73
  10   8   3    6.75    0.51
  10   8   3    5.95    0.48
 -10   8  -3    5.78    0.44
  10   8   3    6.28    0.48
 -12  -8  -3    8.40    0.65
 -12  -8  -3    9.96    0.74
 -12   8  -3    9.57    0.76
  12   8   3    9.56    0.56
 -12   8  -3    7.42    0.65
 -14  -8  -3    0.07    0.16
 -14  -8  -3    0.72    0.25
  14   8   3    0.09    0.27
 -14   8  -3    0.19    0.18
  17   9  -3   14.69    0.97
  17   9  -3   14.83    0.63
 -17   9   3   12.04    0.74
  17   9  -3   14.48    0.65
  17   9  -3   11.68    0.90
 -17   9   3   14.66    0.75
  15  -9  -3    0.12    0.68
 -15  -9   3    0.56    0.16
  15   9  -3    0.60    0.38
 -15   9   3    0.31    0.16
 -15   9   3    0.27    0.24
 -15   9   3    0.46    0.16
  15   9  -3    0.41    0.19
 -15   9   3    0.58    0.12
  15   9  -3    0.41    0.19
 -15   9   3    0.40    0.25
  15   9  -3    0.45    0.29
  15   9  -3    0.31    0.19
  15   9  -3    0.59    0.20
 -13  -9   3    4.69    0.48
 -13  -9   3    5.41    0.44
  13   9  -3    5.22    0.49
  13   9  -3    4.33    0.40
 -13   9   3    4.50    0.41
  13   9  -3    5.27    0.80
 -13   9   3    4.27    0.44
 -13   9   3    4.97    0.64
 -13   9   3    4.66    0.56
  13   9  -3    4.85    0.45
 -13   9   3    4.32    0.25
  13   9  -3    5.55    0.49
 -11  -9   3    6.23    0.57
 -11  -9   3    6.08    0.45
  11   9  -3    5.79    0.47
  11   9  -3    6.68    0.58
 -11   9   3    6.44    0.73
  11   9  -3    6.73    0.72
  11   9  -3    6.36    0.54
 -11   9   3    6.18    0.50
 -11   9   3    5.91    0.46
 -11   9   3    5.35    0.58
  11   9  -3    6.17    0.50
  -9  -9   3   18.81    0.83
  -9  -9   3   19.48    0.69
  -9  -9   3   19.97    0.88
  -9   9   3   18.35    0.97
   9   9  -3   19.78    0.76
  -9   9   3   16.84    0.61
   9   9  -3   19.45    1.26
  -9   9   3   20.46    1.15
   9   9  -3   18.64    1.10
  -9   9   3   20.27    0.75
   9   9  -3   20.02    0.76
  -7  -9   3   27.29    1.00
  -7  -9   3   28.12    0.85
  -7  -9   3   29.88    1.10
  -7   9   3   27.93    0.91
   7   9  -3   28.06    0.94
  -7   9   3   26.80    0.86
   7   9  -3   27.72    1.38
  -7   9   3   25.41    0.89
   7   9  -3   27.41    1.00
  -7   9   3   27.58    1.41
   7   9  -3   29.95    0.95
   5  -9  -3   12.74    2.60
  -5  -9   3   11.01    0.46
  -5  -9   3   12.31    0.62
  -5  -9   3   10.29    0.52
  -5   9   3   11.69    0.50
   5   9  -3   11.70    0.57
   5   9  -3   11.11    0.77
   5   9  -3   10.62    0.78
  -5   9   3   11.60    0.51
  -5   9   3   12.00    0.82
   5   9  -3   11.53    0.53
   5   9  -3   11.78    0.54
  -5   9   3   11.28    0.45
  -5   9   3   11.14    0.61
   5   9  -3   12.14    0.82
  -3  -9   3    7.70    0.37
  -3  -9   3    7.91    0.49
  -3   9   3    8.59    0.67
  -3   9   3    7.63    0.36
   3   9  -3    7.82    0.42
  -3   9   3    7.34    0.49
  -3   9   3    7.84    0.41
   3   9  -3    7.90    0.67
   3   9  -3    7.03    0.65
   3   9  -3    7.80    0.68
  -3   9   3    6.92    0.37
   3   9  -3    7.77    0.43
  -3   9   3    8.54    0.81
   3   9  -3    7.84    0.64
   3   9  -3    7.74    0.42
   1  -9  -3   -0.76    1.17
  -1  -9   3    0.10    0.12
  -1  -9   3   -0.04    0.07
   1   9  -3    0.08    0.21
   1   9  -3    0.00    0.10
  -1   9   3    0.02    0.08
  -1   9   3    0.07    0.08
   1   9  -3    0.07    0.21
  -1   9   3    0.00    0.08
   1   9  -3   -0.09    0.13
  -1   9   3    0.04    0.06
  -1   9   3    0.25    0.15
   1   9  -3    0.11    0.10
  -1   9   3    0.09    0.12
   1   9  -3    0.10    0.21
  -1   9   3    0.20    0.32
   1   9  -3    0.11    0.19
   1   9  -3    0.03    0.09
  -1   9   3    0.04    0.19
  -1   9   3   -0.01    0.20
   1  -9   3    0.20    0.10
  -1  -9  -3   -0.42    1.36
   1  -9   3    0.14    0.12
   1   9   3    0.01    0.06
   1   9   3    0.01    0.07
   1   9   3    0.03    0.14
   1   9   3    0.06    0.11
  -1   9  -3    0.11    0.20
   1   9   3    0.13    0.15
  -1   9  -3    0.06    0.08
   1   9   3   -0.22    0.08
  -1   9  -3    0.01    0.20
  -1   9  -3    0.03    0.10
   1   9   3   -0.03    0.17
  -1   9  -3   -0.13    0.10
  -1   9  -3    0.18    0.12
  -1   9  -3   -0.07    0.14
  -1   9  -3   -0.01    0.09
   1   9   3    0.07    0.10
   1   9   3    0.28    0.23
  -1   9  -3    0.09    0.16
  -1   9  -3    0.42    0.26
   3  -9   3    0.12    0.10
  -3  -9  -3   -0.19    0.20
  -3   9  -3    0.00    0.09
   3   9   3    0.12    0.13
  -3   9  -3    0.27    0.12
   3   9   3    0.04    0.08
   3   9   3    0.15    0.22
  -3   9  -3   -0.29    0.08
  -3   9  -3   -0.05    0.10
  -3   9  -3    0.30    0.25
   3   9   3   -0.12    0.14
  -3   9  -3   -0.09    0.09
   3   9   3   -0.31    0.15
   3   9   3    0.14    0.12
  -3   9  -3    0.17    0.21
  -3   9  -3   -0.08    0.19
   3   9   3    0.13    0.13
  -3   9  -3    0.08    0.14
   3   9   3   -0.03    0.09
   3   9   3    0.01    0.14
  -3   9  -3    0.35    0.26
   5  -9   3    3.04    0.32
  -5  -9  -3    2.69    0.49
  -5   9  -3    3.07    0.52
  -5   9  -3    2.69    0.38
  -5   9  -3    3.29    0.55
  -5   9  -3    2.61    0.52
  -5   9  -3    3.04    0.52
  -5   9  -3    2.84    0.33
  -5   9  -3    2.64    0.43
  -5   9  -3    2.35    0.27
   5   9   3    2.53    0.32
   5   9   3    2.26    0.35
  -5   9  -3    2.62    0.32
   5   9   3    2.58    0.27
   5   9   3    2.94    0.36
   5   9   3    2.80    0.39
  -5   9  -3    2.15    0.28
   5   9   3    3.47    0.53
   5   9   3    2.53    0.31
  -7  -9  -3   39.48    1.86
  -7  -9  -3   41.05    1.42
   7  -9   3   41.46    1.20
  -7   9  -3   40.29    1.65
  -7   9  -3   42.30    1.25
   7   9   3   41.30    1.36
   7   9   3   42.53    1.50
  -7   9  -3   39.24    1.09
   7   9   3   42.89    1.30
  -7   9  -3   41.26    2.00
  -7   9  -3   42.54    1.95
   7   9   3   39.73    1.22
   7   9   3   40.26    1.64
  -7   9  -3   42.24    1.88
   7   9   3   42.30    1.22
  -7   9  -3   41.70    1.66
   7   9   3   38.19    1.78
  -7   9  -3   39.39    1.88
  -9  -9  -3    8.19    0.71
   9  -9   3    8.43    0.46
  -9  -9  -3    8.51    0.74
  -9  -9  -3    7.15    0.60
  -9   9  -3    8.65    0.75
   9   9   3    8.29    0.55
  -9   9  -3    8.51    0.55
   9   9   3    8.57    0.52
   9   9   3    8.23    0.49
  -9   9  -3    8.66    0.71
   9   9   3    8.89    0.56
  -9   9  -3    8.45    0.77
  -9   9  -3    8.04    0.52
 -11  -9  -3    0.49    0.27
  11   9   3    0.43    0.19
  11   9   3    0.34    0.15
 -11   9  -3    0.12    0.21
 -11   9  -3    0.76    0.31
  11   9   3    0.09    0.34
 -13  -9  -3    0.28    0.22
 -13  -9  -3    0.13    0.18
  13   9   3   -0.05    0.30
  13   9   3    0.13    0.15
 -13   9  -3   -0.03    0.15
  16  10  -3    4.08    0.37
  16  10  -3    3.76    0.59
  16  10  -3    4.04    0.38
 -16  10   3    2.24    0.35
 -16  10   3    4.23    0.47
 -14 -10   3    0.81    0.20
  14 -10  -3    0.03    0.61
  14  10  -3    1.10    0.24
 -14  10   3    0.71    0.21
  14  10  -3    0.49    0.21
 -14  10   3    0.92    0.29
  14  10  -3    0.96    0.23
 -14  10   3    1.05    0.28
 -14  10   3    0.96    0.15
  14  10  -3    0.57    0.29
 -12 -10   3    0.35    0.16
 -12 -10   3    0.05    0.17
  12 -10  -3    0.00    0.58
  12  10  -3    0.07    0.15
  12  10  -3    0.38    0.28
 -12  10   3   -0.04    0.08
 -12  10   3    0.34    0.15
 -12  10   3    0.34    0.21
 -12  10   3   -0.04    0.19
  12  10  -3    0.21    0.16
 -12  10   3    0.03    0.16
  12  10  -3    0.06    0.17
  10 -10  -3    0.05    0.71
 -10 -10   3    0.67    0.19
 -10 -10   3    0.87    0.25
  10 -10  -3    0.32    1.62
 -10  10   3    0.96    0.30
  10  10  -3    0.33    0.25
 -10  10   3    0.51    0.30
 -10  10   3    0.65    0.20
  10  10  -3    0.76    0.40
  10  10  -3    0.85    0.23
  10  10  -3    0.83    0.21
  10  10  -3    0.79    0.20
  -8 -10   3   57.40    1.80
  -8 -10   3   56.32    1.43
   8  10  -3   57.60    1.59
   8  10  -3   50.89    2.59
  -8  10   3   53.88    2.02
  -8  10   3   55.62    2.32
  -8  10   3   56.11    1.56
   8  10  -3   58.34    1.57
  -6 -10   3   14.69    0.73
  -6 -10   3   12.67    0.53
   6 -10  -3   10.37    2.51
  -6  10   3   13.60    0.57
   6  10  -3   13.29    0.87
  -6  10   3   13.44    0.58
   6  10  -3   15.44    0.92
   6  10  -3   13.93    0.62
   6  10  -3   13.69    0.93
  -6  10   3   14.04    0.93
  -6  10   3   15.70    1.17
   6  10  -3   13.51    0.66
  -6  10   3   12.73    0.51
   6  10  -3   13.70    0.62
  -6  10   3   13.12    0.69
  -4 -10   3    4.38    0.34
  -4 -10   3    3.91    0.43
   4 -10  -3    2.29    1.30
  -4  10   3    4.26    0.38
  -4  10   3    4.28    0.59
   4  10  -3    3.55    0.35
   4  10  -3    4.81    0.63
  -4  10   3    3.96    0.28
  -4  10   3    3.80    0.67
   4  10  -3    4.23    0.58
  -4  10   3    4.32    0.38
   4  10  -3    4.65    0.61
   4  10  -3    4.41    0.40
   4  10  -3    4.04    0.39
  -2 -10   3   10.66    0.60
  -2 -10   3   10.92    0.47
  -2  10   3   12.80    1.01
  -2  10   3   10.37    0.38
   2  10  -3    9.52    0.50
   2  10  -3   10.97    0.82
  -2  10   3   10.45    0.63
   2  10  -3   11.18    0.83
   2  10  -3   11.12    0.54
   2  10  -3   10.97    0.80
  -2  10   3   10.55    0.53
   2  10  -3   10.61    0.53
   2  10  -3   10.65    0.50
  -2  10   3   10.77    0.78
  -2  10   3   10.63    0.52
  -2  10   3   10.78    0.80
   2  10  -3   10.76    0.83
   0 -10   3    5.96    0.35
   0 -10   3    4.88    0.47
   0  10  -3    5.66    0.44
   0  10  -3    5.37    0.43
   0  10   3    5.66    0.50
   0  10   3    6.22    0.48
   0  10   3    6.62    0.85
   0  10   3    5.28    0.66
   0  10   3    5.18    0.44
   0  10  -3    6.10    0.72
   0  10  -3    5.94    0.47
   0  10  -3    5.59    0.44
   0  10   3    5.95    0.30
   0  10  -3    6.58    0.79
   0  10   3    5.82    0.69
   0  10   3    4.91    0.40
   0  10  -3    5.73    0.69
   0  10  -3    6.09    0.62
   0  10  -3    5.83    0.71
   0  10   3    5.46    0.50
   2 -10   3   48.24    1.27
  -2 -10  -3   47.07    2.08
  -2  10  -3   47.11    2.08
  -2  10  -3   46.27    1.78
  -2  10  -3   48.78    2.10
  -2  10  -3   46.03    1.34
   2  10   3   45.90    1.71
   2  10   3   45.54    2.02
   2  10   3   46.76    1.36
   2  10   3   43.83    1.56
  -2  10  -3   41.61    1.29
   2  10   3   45.80    1.51
  -2  10  -3   48.28    1.37
  -2  10  -3   47.33    1.34
   2  10   3   45.44    1.81
  -2  10  -3   44.85    2.12
   2  10   3   43.23    2.02
   2  10   3   48.75    1.26
  -2  10  -3   45.52    2.08
   4 -10   3    6.96    0.49
  -4 -10  -3    7.31    0.81
   4  10   3    5.74    0.47
  -4  10  -3    5.23    0.44
   4  10   3    6.41    0.52
   4  10   3    6.47    0.37
  -4  10  -3    5.62    0.49
  -4  10  -3    6.58    0.51
   4  10   3    6.14    0.52
  -4  10  -3    6.21    0.75
  -4  10  -3    6.48    0.66
  -4  10  -3    4.56    0.62
  -4  10  -3    6.67    0.80
  -4  10  -3    6.12    0.73
   4  10   3    6.92    0.52
  -4  10  -3    6.65    0.51
   4  10   3    6.87    0.76
  -6 -10  -3    5.73    0.71
  -6 -10  -3    6.02    0.56
   6 -10   3    5.57    0.43
   6  10   3    5.33    0.46
   6  10   3    5.93    0.37
  -6  10  -3    5.70    0.47
  -6  10  -3    5.69    0.46
  -6  10  -3    6.33    0.76
  -6  10  -3    6.21    0.64
   6  10   3    5.36    0.66
   6  10   3    5.50    0.48
   6  10   3    6.01    0.49
  -6  10  -3    3.80    0.56
   6  10   3    5.68    0.54
  -6  10  -3    5.92    0.75
  -6  10  -3    5.91    0.73
   6  10   3    5.61    0.46
  -8 -10  -3   25.41    1.34
   8 -10   3   26.16    0.88
  -8 -10  -3   26.58    1.43
  -8 -10  -3   24.97    1.05
   8  10   3   24.82    1.29
  -8  10  -3   26.93    1.43
   8  10   3   24.59    0.87
  -8  10  -3   27.50    1.16
  -8  10  -3   21.48    1.27
   8  10   3   26.73    1.14
   8  10   3   25.51    0.97
  -8  10  -3   29.49    1.48
   8  10   3   27.36    1.08
   8  10   3   27.13    0.96
 -10 -10  -3    0.46    0.28
 -10  10  -3    0.54    0.16
  10  10   3    0.13    0.35
  10  10   3    0.48    0.20
  10  10   3    0.59    0.19
 -10  10  -3    0.60    0.34
  10  10   3    0.46    0.18
 -10  10  -3    0.47    0.24
 -12 -10  -3    0.14    0.20
 -12 -10  -3    0.33    0.24
 -12  10  -3    0.27    0.19
  12  10   3    0.00    0.31
  12  10   3    0.26    0.15
  15 -11  -3    0.12    0.54
  15  11  -3    0.20    0.22
 -15  11   3    0.09    0.18
  15  11  -3    0.89    0.21
  15  11  -3    0.54    0.16
 -15  11   3    0.81    0.25
  13 -11  -3   -0.23    0.51
 -13  11   3    0.71    0.26
  13  11  -3    0.48    0.19
 -13  11   3    1.10    0.31
  13  11  -3    0.58    0.29
 -11 -11   3    0.97    0.25
  11 -11  -3   -0.67    1.54
  11 -11  -3    0.45    0.73
 -11 -11   3    1.00    0.21
 -11  11   3    0.89    0.23
 -11  11   3    0.85    0.27
  11  11  -3    0.68    0.19
  11  11  -3    0.45    0.19
  11  11  -3    0.92    0.40
  11  11  -3    1.21    0.25
 -11  11   3    1.02    0.33
  -9 -11   3    3.50    0.44
   9 -11  -3    0.01    1.29
  -9 -11   3    2.76    0.30
   9  11  -3    3.34    0.61
  -9  11   3    3.15    0.36
  -9  11   3    2.83    0.49
   9  11  -3    2.22    0.29
  -9  11   3    3.42    0.46
   9  11  -3    2.89    0.35
  -7 -11   3   36.85    1.33
  -7  11   3   33.40    1.10
   7  11  -3   35.02    1.62
   7  11  -3   35.41    1.13
  -7  11   3   35.62    1.69
   7  11  -3   35.19    1.48
  -7  11   3   31.56    1.40
   7  11  -3   36.82    1.17
   5 -11  -3   -0.05    0.86
  -5 -11   3    1.40    0.30
   5 -11  -3   -0.25    1.33
  -5  11   3    1.28    0.22
  -5  11   3    1.32    0.36
   5  11  -3    1.57    0.37
   5  11  -3    1.21    0.33
  -5  11   3    1.53    0.26
   5  11  -3    1.83    0.40
   5  11  -3    1.40    0.24
   5  11  -3    1.22    0.23
  -5  11   3    1.39    0.15
  -5  11   3    1.01    0.38
  -3 -11   3    4.28    0.35
  -3 -11   3    4.27    0.48
  -3  11   3    4.23    0.23
   3  11  -3    5.21    0.65
   3  11  -3    4.50    0.41
   3  11  -3    4.79    0.66
  -3  11   3    4.94    0.42
  -3  11   3    4.59    0.63
   3  11  -3    3.80    0.36
  -3  11   3    4.37    0.40
   3  11  -3    4.72    0.43
   3  11  -3    5.20    0.66
  -3  11   3    4.03    0.70
  -1 -11   3    0.19    0.13
   1 -11  -3   -0.51    1.10
  -1 -11   3    0.14    0.16
  -1  11   3   -0.01    0.26
  -1  11   3    0.05    0.11
  -1  11   3    0.21    0.16
   1  11  -3   -0.06    0.20
   1  11  -3    0.02    0.10
  -1  11   3   -0.01    0.19
  -1  11   3    0.19    0.20
  -1  11   3    0.08    0.07
  -1  11   3    0.17    0.16
   1  11  -3    0.14    0.12
   1  11  -3    0.04    0.12
   1  11  -3    0.19    0.23
   1  11  -3    0.11    0.18
  -1 -11  -3   30.28    1.53
   1 -11   3   28.41    0.91
  -1  11  -3   27.03    1.25
  -1  11  -3   27.31    1.51
   1  11   3   28.50    1.09
  -1  11  -3   30.35    1.58
   1  11   3   29.09    1.49
   1  11   3   29.69    0.88
   1  11   3   28.44    1.26
   1  11   3   26.84    1.45
  -1  11  -3   29.52    1.51
  -1  11  -3   29.14    1.01
   1  11   3   27.59    0.98
  -1  11  -3   27.75    0.95
   1  11   3   27.90    1.62
  -1  11  -3   27.92    0.97
  -3 -11  -3   16.64    0.82
   3 -11   3   16.05    0.64
  -3 -11  -3   14.81    1.03
   3  11   3   15.74    0.81
   3  11   3   15.52    0.61
   3  11   3   15.38    0.74
  -3  11  -3   16.62    1.10
  -3  11  -3   15.90    1.03
  -3  11  -3   15.97    0.89
   3  11   3   15.32    0.82
   3  11   3   15.47    1.01
  -3  11  -3   14.95    1.06
   3  11   3   15.60    0.69
   3  11   3   13.24    1.03
  -3  11  -3   13.69    0.64
  -3  11  -3   15.86    0.71
  -3  11  -3   14.48    0.66
  -5 -11  -3    0.08    0.24
  -5 -11  -3    0.18    0.17
   5 -11   3   -0.05    0.11
  -5  11  -3    0.03    0.13
   5  11   3    0.08    0.21
   5  11   3    0.01    0.16
  -5  11  -3   -0.07    0.18
  -5  11  -3   -0.07    0.15
   5  11   3    0.12    0.14
  -5  11  -3   -0.03    0.13
   5  11   3    0.03    0.14
   5  11   3   -0.03    0.11
   5  11   3   -0.15    0.13
   5  11   3    0.01    0.13
  -5  11  -3    0.03    0.23
  -5  11  -3    0.24    0.23
   7 -11   3    2.79    0.32
  -7 -11  -3    2.74    0.49
  -7 -11  -3    2.75    0.39
  -7 -11  -3    2.81    0.50
  -7  11  -3    3.90    0.62
   7  11   3    3.08    0.39
  -7  11  -3    2.84    0.33
   7  11   3    2.33    0.29
   7  11   3    2.37    0.28
   7  11   3    2.93    0.47
  -7  11  -3    3.57    0.55
   7  11   3    2.96    0.36
  -7  11  -3    3.38    0.49
  -7  11  -3    3.48    0.40
   7  11   3    3.29    0.38
  -9 -11  -3   21.45    1.15
  -9 -11  -3   17.25    1.02
   9  11   3   20.01    0.85
  -9  11  -3   21.45    1.13
   9  11   3   19.80    0.76
  -9  11  -3   21.52    0.89
  -9  11  -3   21.72    1.15
   9  11   3   19.93    0.87
   9  11   3   16.79    0.97
  -9  11  -3   18.53    1.02
  11 -11   3    3.41    1.13
 -11 -11  -3    4.92    0.48
  11  11   3    3.46    0.33
 -11  11  -3    4.53    0.50
  14 -12  -3    0.30    0.56
 -14  12   3    2.48    0.33
 -14  12   3    0.85    0.22
  14  12  -3    1.48    0.34
  14  12  -3    2.02    0.26
 -14  12   3    0.93    0.29
  12 -12  -3    0.23    0.63
 -12  12   3    0.36    0.23
  12  12  -3    0.39    0.25
 -12  12   3    0.25    0.24
 -12  12   3    0.24    0.20
  10 -12  -3    0.20    0.64
 -10 -12   3    1.05    0.26
  10 -12  -3   -0.08    1.26
 -10 -12   3    0.64    0.19
  10  12  -3    0.74    0.36
  10  12  -3    0.94    0.21
  10  12  -3    0.82    0.21
 -10  12   3    0.83    0.31
 -10  12   3    0.97    0.28
 -10  12   3    0.27    0.20
 -10  12   3    0.64    0.32
  -8 -12   3    3.51    0.44
   8 -12  -3    0.57    1.35
  -8  12   3    2.03    0.52
   8  12  -3    2.71    0.32
  -8  12   3    2.87    0.47
  -8  12   3    3.32    0.44
   8  12  -3    2.58    0.32
   6 -12  -3    0.72    1.39
  -6 -12   3    0.10    0.18
   6 -12  -3   -0.28    0.67
   6  12  -3    0.09    0.23
  -6  12   3    0.09    0.26
  -6  12   3    0.15    0.23
  -6  12   3    0.04    0.19
   6  12  -3    0.11    0.15
   6  12  -3   -0.04    0.12
   6  12  -3    0.10    0.21
  -6  12   3    0.09    0.08
  -4 -12   3    0.53    0.22
   4 -12  -3   -0.21    1.01
   4 -12  -3    0.60    0.23
   4  12  -3    0.50    0.24
   4  12  -3    0.37    0.17
  -4  12   3    0.28    0.09
  -4  12   3    0.37    0.24
   4  12  -3    0.57    0.18
  -4  12   3    0.51    0.31
  -4  12   3    0.45    0.19
  -4  12   3    0.48    0.17
   4  12  -3    0.47    0.26
   2 -12  -3   -0.26    0.99
   2 -12  -3    0.03    0.16
  -2 -12   3   -0.08    0.15
  -2 -12   3    0.12    0.11
   2  12  -3    0.03    0.18
  -2  12   3    0.14    0.16
   2  12  -3    0.04    0.12
   2  12  -3   -0.07    0.22
   2  12  -3    0.19    0.15
  -2  12   3    0.11    0.29
  -2  12   3    0.14    0.21
  -2  12   3    0.07    0.08
   2  12  -3    0.09    0.22
  -2  12   3    0.19    0.13
  -2  12   3    0.24    0.22
  -2  12   3   -0.04    0.14
   0 -12  -3    7.50    0.83
   0 -12  -3    7.27    0.62
   0 -12   3    6.28    0.45
   0  12  -3    6.89    0.43
   0  12   3    6.80    0.35
   0  12   3    6.73    0.49
   0  12   3    7.00    0.66
   0  12   3    6.53    0.86
   0  12   3    6.83    0.44
   0  12   3    6.22    0.72
   0  12  -3    7.45    0.86
   0  12  -3    6.08    0.41
   0  12  -3    7.65    0.84
   0  12  -3    6.79    0.64
   0  12   3    6.94    0.51
   0  12  -3    6.10    0.50
  -2 -12  -3    0.20    0.26
  -2 -12  -3    0.15    0.17
  -2 -12  -3    0.47    1.16
   2 -12   3    0.35    0.14
  -2  12  -3    0.28    0.17
  -2  12  -3    0.05    0.14
  -2  12  -3    0.29    0.26
   2  12   3    0.04    0.16
   2  12   3    0.11    0.19
  -2  12  -3   -0.11    0.17
   2  12   3    0.17    0.15
   2  12   3    0.22    0.12
  -2  12  -3    0.08    0.14
   2  12   3    0.23    0.15
  -2  12  -3    0.19    0.24
   2  12   3   -0.10    0.26
   2  12   3    0.15    0.19
   2  12   3    0.26    0.22
  -2  12  -3    0.08    0.20
  -4 -12  -3    1.95    0.44
  -4 -12  -3    1.38    0.30
   4 -12   3    1.53    0.24
  -4  12  -3    1.77    0.30
   4  12   3    1.57    0.31
  -4  12  -3    1.52    0.27
   4  12   3    1.52    0.27
   4  12   3    1.61    0.23
   4  12   3    1.61    0.28
   4  12   3    1.62    0.27
   4  12   3    1.52    0.37
  -4  12  -3    1.30    0.36
  -4  12  -3    2.38    0.50
  -4  12  -3    1.85    0.37
  -4  12  -3    1.75    0.41
  -4  12  -3    1.20    0.23
  -6 -12  -3    0.20    0.28
  -6 -12  -3    0.21    0.19
   6 -12   3    0.13    0.15
  -6  12  -3    0.24    0.16
   6  12   3    0.28    0.22
   6  12   3    0.23    0.15
  -6  12  -3    0.40    0.29
   6  12   3    0.12    0.13
   6  12   3    0.09    0.18
  -6  12  -3    0.21    0.23
  -6  12  -3    0.27    0.25
  -6  12  -3   -0.03    0.13
   6  12   3    0.03    0.16
   6  12   3   -0.30    0.14
  -8 -12  -3    7.70    0.64
  -8 -12  -3    9.92    0.73
   8  12   3    5.84    0.54
  -8  12  -3    6.31    0.60
  -8  12  -3   10.13    0.72
  -8  12  -3    9.41    0.52
  -8  12  -3    8.66    0.61
   8  12   3    8.92    0.49
   8  12   3    9.59    0.48
   8  12   3    8.95    0.52
 -10 -12  -3    2.30    0.37
  10 -12   3    1.39    0.77
 -10  12  -3    1.71    0.30
  10  12   3    1.55    0.22
  13 -13  -3   -0.01    0.50
 -13  13   3    0.24    0.22
  11 -13  -3    0.12    0.56
  11 -13  -3    0.26    1.31
  11  13  -3    0.18    0.23
 -11  13   3    0.18    0.19
 -11  13   3    0.00    0.24
   9 -13  -3   -0.02    1.29
   9 -13  -3    0.83    0.79
  -9  13   3    2.92    0.50
  -7 -13   3    1.70    0.32
   7 -13  -3    0.34    0.78
   7 -13  -3    0.50    1.14
  -7  13   3    1.06    0.14
   7  13  -3    1.09    0.22
   7  13  -3    0.98    0.23
   7  13  -3    1.55    0.38
  -7  13   3    0.95    0.32
  -7  13   3    0.51    0.31
   5 -13  -3    1.88    0.42
   5 -13  -3    0.05    1.12
  -5 -13   3    1.99    0.35
   5  13  -3    1.71    0.28
  -5  13   3    1.50    0.31
   5  13  -3    2.67    0.42
  -5  13   3    2.00    0.31
  -5  13   3    1.85    0.46
   5  13  -3    2.15    0.42
  -5  13   3    1.59    0.36
   5  13  -3    2.04    0.28
  -5  13   3    1.75    0.19
   3 -13  -3    0.23    0.31
   3 -13  -3    0.08    0.21
  -3 -13   3    0.29    0.20
   3 -13  -3    0.23    1.11
  -3  13   3    0.71    0.19
  -3  13   3    0.24    0.11
  -3  13   3    0.57    0.19
   3  13  -3    0.49    0.27
  -3  13   3    0.33    0.30
  -3  13   3    0.43    0.19
   3  13  -3    0.40    0.17
  -3  13   3    0.26    0.22
   3  13  -3    0.36    0.16
   3  13  -3    0.30    0.21
  -1 -13   3    0.23    0.14
   1 -13  -3    0.06    0.20
   1 -13  -3    0.00    1.07
   1 -13  -3    0.17    0.28
  -1  13   3    0.25    0.23
   1  13  -3    0.12    0.21
  -1  13   3    0.08    0.15
   1  13  -3    0.06    0.16
   1  13  -3    0.23    0.25
  -1  13   3    0.22    0.15
   1  13  -3    0.19    0.22
  -1  13   3   -0.06    0.14
  -1  13   3    0.37    0.27
  -1  13   3    0.46    0.24
  -1  13   3    0.24    0.11
   1  13  -3    0.14    0.15
  -1 -13  -3    1.68    0.44
  -1 -13  -3    1.98    0.35
   1 -13   3    1.67    0.24
  -1 -13  -3    0.21    1.16
   1  13   3    1.20    0.35
   1  13   3    1.80    0.29
   1  13   3    1.25    0.31
   1  13   3    1.89    0.29
  -1  13  -3    1.35    0.24
  -1  13  -3    1.19    0.34
  -1  13  -3    1.97    0.41
   1  13   3    1.70    0.39
   1  13   3    1.81    0.28
   1  13   3    1.57    0.21
  -1  13  -3    1.59    0.28
  -1  13  -3    2.22    0.48
   3 -13   3    6.27    0.45
  -3 -13  -3    6.31    0.58
  -3 -13  -3    6.74    0.63
  -3  13  -3    4.43    0.41
   3  13   3    6.80    0.48
  -3  13  -3    6.58    0.59
  -3  13  -3    6.95    0.49
  -3  13  -3    4.73    0.41
  -3  13  -3    6.18    0.48
  -3  13  -3    6.47    0.63
   3  13   3    6.13    0.42
  -3  13  -3    6.24    0.61
   3  13   3    6.31    0.50
   3  13   3    4.71    0.59
   3  13   3    6.57    0.46
   3  13   3    6.38    0.78
  -5 -13  -3    0.14    0.26
  -5  13  -3    0.14    0.23
   5  13   3    0.33    0.19
  -5  13  -3    0.18    0.20
   5  13   3    0.19    0.18
   5  13   3    0.11    0.14
  -5  13  -3    0.06    0.15
  -5  13  -3    0.14    0.21
   5  13   3    0.18    0.15
  -7 -13  -3    0.51    0.26
  -7 -13  -3    0.22    0.25
  -7  13  -3    0.39    0.15
   7  13   3    0.40    0.19
   7  13   3    0.45    0.15
   7  13   3    0.27    0.18
   7  13   3    0.32    0.16
  -7  13  -3    0.55    0.24
  -7  13  -3    0.92    0.30
   9 -13   3    1.26    0.71
  -9 -13  -3    0.95    0.24
   9  13   3    0.88    0.17
  -9  13  -3    0.86    0.22
  10 -14  -3    0.10    0.48
  10 -14  -3   -0.36    1.14
 -10  14   3    0.72    0.23
 -10  14   3    0.24    0.22
   8 -14  -3    0.26    1.16
   8 -14  -3    0.00    0.58
  -8  14   3    1.06    0.28
  -8  14   3    0.67    0.19
  -8  14   3    0.68    0.30
  -8  14   3    0.83    0.25
   6 -14  -3    0.16    1.10
  -6  14   3    0.03    0.16
   6  14  -3    0.18    0.23
  -6  14   3    0.02    0.21
  -6  14   3    0.12    0.25
   4 -14  -3    0.05    0.26
   4 -14  -3    0.11    0.88
  -4  14   3    0.18    0.25
  -4  14   3    0.01    0.15
  -4  14   3    0.20    0.21
   4  14  -3    0.38    0.23
   2 -14  -3    0.43    0.28
   2 -14  -3    0.25    0.93
  -2  14   3    0.46    0.17
  -2  14   3    0.35    0.25
   2  14  -3    0.30    0.21
  -2  14   3    0.52    0.24
   2  14  -3    0.15    0.19
  -2  14   3    0.35    0.16
   0 -14  -3    0.43    0.26
   0 -14  -3    0.54    1.06
   0  14   3    0.44    0.24
   0  14  -3    0.42    0.21
   0  14  -3    0.08    0.20
   0  14   3    0.17    0.16
   0  14   3    0.35    0.16
   0  14   3    0.19    0.20
  -2 -14  -3    0.07    0.22
   2  14   3    0.25    0.20
  -2  14  -3    0.33    0.21
   2  14   3    0.12    0.15
  -2  14  -3    0.12    0.18
   2  14   3    0.24    0.14
  -2  14  -3    0.17    0.16
   2  14   3    0.43    0.22
  -4 -14  -3    0.01    0.20
  -4  14  -3    0.11    0.18
   4  14   3    0.10    0.18
  -4  14  -3    0.16    0.14
  -4  14  -3    0.16    0.20
  -4  14  -3    0.03    0.23
   4  14   3    0.23    0.15
   4  14   3    0.05    0.16
   4  14   3   -0.12    0.13
   6 -14   3    1.58    0.80
  -6 -14  -3    1.79    0.33
  -6 -14  -3    1.70    0.33
   6  14   3    1.82    0.23
  -6  14  -3    1.91    0.25
   6  14   3    1.27    0.25
   6  14   3    1.59    0.23
  -6  14  -3    1.01    0.26
  -6  14  -3    2.14    0.37
  -6  14  -3    1.97    0.32
  -9  15   3    0.75    0.22
   7 -15  -3    0.33    0.83
  -7  15   3    0.52    0.21
   7  15  -3    1.42    0.29
  -7  15   3    0.73    0.18
  -7  15   3    0.56    0.23
   5 -15  -3   -0.02    0.80
  -5  15   3    1.87    0.24
  -5  15   3    1.20    0.29
  -5  15   3    1.83    0.33
   5  15  -3    3.09    0.41
   3 -15  -3    0.15    0.77
   3 -15  -3    0.60    0.25
  -3  15   3    0.43    0.21
  -3  15   3    0.46    0.23
  -3  15   3    0.30    0.16
   3  15  -3    0.25    0.21
   1 -15  -3    0.77    0.26
   1 -15  -3   -0.01    0.93
  -1  15   3    0.86    0.19
  -1  15   3    0.49    0.23
   1  15  -3    1.19    0.28
  -1  15   3    0.97    0.26
   1  15  -3    0.68    0.24
  -1 -15  -3    0.41    0.21
  -1  15  -3    0.43    0.17
   1  15   3    0.49    0.20
   1  15   3    0.48    0.16
   1  15   3    0.47    0.19
  -1  15  -3    0.32    0.21
  -1  15  -3    0.14    0.17
  -3 -15  -3    0.47    0.21
   3 -15   3    0.53    0.61
   3  15   3    0.02    0.14
  -3  15  -3    0.22    0.19
  -3  15  -3    0.29    0.15
   3  15   3    0.22    0.13
  -3  15  -3    0.42    0.21
   2  16  -3    0.84    0.23
  -2  16   3    0.37    0.17
  20   0  -4   15.51    0.69
  20   0  -4   15.20    0.83
  20   0  -4   14.43    1.01
  20   0  -4   14.70    0.76
  20   0  -4   15.21    0.69
  18   0  -4    0.71    0.27
 -18   0   4    0.44    0.19
  18   0  -4    0.53    0.20
 -18   0   4    0.55    0.18
  18   0  -4    0.50    0.35
  18   0  -4    0.62    0.25
 -18   0   4    0.44    0.17
  18   0  -4    0.59    0.23
  18   0  -4    0.60    0.17
  18   0  -4    0.83    0.23
  16   0  -4   12.61    0.79
  16   0  -4   13.55    0.74
 -16   0   4   12.61    0.62
  16   0  -4   13.39    0.69
 -16   0   4   13.63    0.59
  16   0  -4   12.86    1.07
  16   0  -4   13.54    0.87
 -16   0   4   11.95    0.60
  16   0  -4   12.36    0.71
  16   0  -4   13.96    0.61
 -14   0   4   55.91    1.39
 -14   0   4   57.18    1.49
  14   0  -4   57.19    1.47
 -14   0   4   55.71    1.52
  14   0  -4   50.82    1.78
  14   0  -4   54.98    2.11
 -14   0   4   53.16    1.99
  14   0  -4   53.89    2.63
  14   0  -4   54.43    1.74
 -14   0   4   49.19    1.63
  14   0  -4   52.82    1.98
 -14   0   4   55.46    1.52
  14   0  -4   54.10    1.67
  14   0  -4   53.41    2.67
 -12   0   4    4.93    0.30
  12   0  -4    6.20    0.66
 -12   0   4    5.10    0.37
  12   0  -4    5.25    0.32
  12   0  -4    5.55    0.48
 -12   0   4    5.28    0.41
  12   0  -4    5.69    0.51
 -12   0   4    4.54    0.40
 -12   0   4    4.92    0.43
 -12   0   4    4.87    0.41
  12   0  -4    6.31    0.63
  12   0  -4    6.18    0.86
  12   0  -4    5.16    0.51
  10   0  -4   13.28    0.49
 -10   0   4   13.34    0.59
 -10   0   4   12.78    0.57
 -10   0   4   12.64    0.46
 -10   0   4   12.78    0.53
 -10   0   4   12.83    0.48
 -10   0   4   13.09    0.65
 -10   0   4   13.42    0.54
  -8   0   4   64.72    1.54
  -8   0   4   63.54    2.05
  -8   0   4   65.20    1.57
  -8   0   4   63.66    1.75
  -8   0   4   64.82    1.57
   8   0  -4   63.70    1.49
  -8   0   4   66.53    1.48
  -6   0   4    0.40    0.11
  -6   0   4    0.50    0.13
  -6   0   4    0.32    0.11
  -6   0   4    0.51    0.11
   6   0  -4    0.46    0.09
  -6   0   4    0.44    0.10
  -6   0   4    0.42    0.14
  -6   0   4    0.51    0.09
  -4   0   4    0.00    0.05
  -4   0   4    0.06    0.07
  -4   0   4    0.04    0.07
  -4   0   4    0.03    0.06
  -4   0   4    0.05    0.06
  -4   0   4    0.00    0.04
  -4   0   4    0.10    0.09
  -4   0   4    0.04    0.04
  -4   0   4    0.04    0.05
   4   0  -4    0.00    0.05
  -2   0   4   55.64    1.47
  -2   0   4   57.33    1.50
  -2   0   4   54.69    1.36
  -2   0   4   57.28    1.56
  -2   0   4   55.82    1.81
  -2   0   4   55.46    1.26
  -2   0   4   56.73    1.38
  -2   0   4   53.56    1.25
   2   0  -4   53.84    1.16
  -2   0   4   57.28    1.35
   0   0   4  148.59    3.61
   0   0   4  145.80    3.23
   0   0   4  151.34    3.58
   0   0   4  153.26    3.31
   0   0   4  146.66    4.36
   0   0   4  144.43    2.98
   0   0   4  147.52    2.96
   0   0  -4  148.57    2.75
   0   0   4  147.52    3.55
   2   0   4   28.00    0.82
   2   0   4   26.28    0.72
   2   0   4   27.88    0.80
   2   0   4   27.25    0.90
   2   0   4   28.30    0.79
   2   0   4   27.05    1.09
  -2   0  -4   27.42    0.71
   4   0   4    3.48    0.41
   4   0   4    3.36    0.28
   4   0   4    3.44    0.29
   4   0   4    3.65    0.33
  -4   0  -4    3.55    0.33
   4   0   4    3.45    0.25
  -4   0  -4    3.63    0.28
   4   0   4    3.33    0.29
   6   0   4    6.72    0.37
  -6   0  -4    6.38    0.33
  -6   0  -4    7.23    0.62
  -6   0  -4    6.31    0.40
   6   0   4    7.05    0.43
  -6   0  -4    6.05    0.43
  -6   0  -4    6.11    0.41
   6   0   4    6.39    0.36
  -6   0  -4    6.21    0.60
  -8   0  -4   41.71    1.07
  -8   0  -4   40.18    1.34
  -8   0  -4   40.57    1.82
   8   0   4   44.86    1.20
  -8   0  -4   40.83    1.84
  -8   0  -4   42.11    1.94
   8   0   4   41.48    1.37
 -10   0  -4   11.19    0.83
 -10   0  -4   10.12    0.83
 -10   0  -4   10.00    0.48
  10   0   4   10.50    0.51
  12   0   4    0.17    0.15
 -12   0  -4    0.08    0.23
 -12   0  -4    0.47    0.25
 -12   0  -4    0.22    0.16
 -12   0  -4    0.34    0.28
 -14   0  -4    5.45    0.52
 -14   0  -4    6.15    0.57
  21  -1  -4    0.23    0.18
  21  -1  -4    0.26    0.16
  21  -1  -4    0.35    0.15
  21   1  -4    0.65    0.18
  21   1  -4    0.17    0.15
  21   1  -4    0.56    0.17
 -21   1   4    0.22    0.16
  21   1  -4    0.25    0.19
  21   1  -4    0.26    0.24
  21   1  -4    0.35    0.14
  19  -1  -4    0.55    0.27
  19  -1  -4    0.19    0.16
 -19  -1   4    0.40    0.17
  19  -1  -4    0.28    0.17
  19  -1  -4    0.51    0.21
  19  -1  -4    0.64    0.34
  19  -1  -4    0.40    0.15
  19  -1  -4    0.31    0.17
  19   1  -4    0.23    0.14
 -19   1   4    0.39    0.17
  19   1  -4    0.39    0.17
 -19   1   4    0.25    0.16
 -19   1   4    0.12    0.14
  19   1  -4    0.27    0.19
  19   1  -4    0.35    0.32
  19   1  -4    0.13    0.20
  19   1  -4    0.23    0.15
  19   1  -4    0.40    0.19
  17  -1  -4    0.28    0.20
  17  -1  -4    0.19    0.17
 -17  -1   4    0.35    0.16
  17  -1  -4    0.23    0.15
  17  -1  -4    0.13    0.31
  17  -1  -4    0.24    0.14
  17  -1  -4    0.34    0.21
  17  -1  -4    0.31    0.23
 -17  -1   4    0.35    0.15
 -17   1   4    0.19    0.15
  17   1  -4    0.19    0.13
  17   1  -4    0.14    0.16
 -17   1   4    0.26    0.14
  17   1  -4    0.18    0.17
 -17   1   4    0.02    0.15
  17   1  -4    0.09    0.20
  17   1  -4    0.27    0.33
  17   1  -4    0.43    0.22
  17   1  -4    0.11    0.26
  17   1  -4    0.10    0.17
  15  -1  -4   43.53    1.73
  15  -1  -4   44.60    1.58
 -15  -1   4   43.66    1.32
  15  -1  -4   44.44    1.52
 -15  -1   4   42.24    1.29
  15  -1  -4   43.30    1.80
  15  -1  -4   45.33    1.46
  15  -1  -4   41.73    2.28
 -15  -1   4   44.40    1.21
  15  -1  -4   43.13    1.81
  15  -1  -4   45.85    1.28
 -15  -1   4   44.68    1.30
  15   1  -4   45.02    1.28
 -15   1   4   45.22    1.28
 -15   1   4   45.60    1.33
  15   1  -4   43.95    1.51
  15   1  -4   44.02    1.57
  15   1  -4   42.19    2.30
 -15   1   4   44.66    1.33
  15   1  -4   43.35    1.45
  15   1  -4   43.18    1.82
  15   1  -4   44.14    2.29
  13  -1  -4   15.04    0.74
 -13  -1   4   14.99    0.59
 -13  -1   4   16.31    0.60
 -13  -1   4   14.25    0.62
  13  -1  -4   14.24    1.10
  13  -1  -4   14.39    0.83
  13  -1  -4   14.73    0.70
  13  -1  -4   15.49    0.89
  13  -1  -4   15.85    0.61
 -13  -1   4   15.89    0.65
  13  -1  -4   14.66    0.75
  13   1  -4   15.29    0.89
 -13   1   4   15.14    0.78
  13   1  -4   14.47    1.12
 -13   1   4   14.36    0.70
  13   1  -4   14.93    0.73
 -13   1   4   14.93    0.56
 -13   1   4   15.45    0.64
  13   1  -4   14.65    0.83
 -13   1   4   15.89    0.65
  13   1  -4   13.97    1.10
  13   1  -4   14.68    0.76
 -13   1   4   14.82    0.68
  13   1  -4   14.74    0.70
  13   1  -4   15.87    0.62
 -13   1   4   15.70    0.58
 -11  -1   4    3.09    0.30
  11  -1  -4    2.84    0.36
 -11  -1   4    2.69    0.31
 -11  -1   4    2.78    0.27
 -11  -1   4    3.03    0.31
  11  -1  -4    3.23    0.36
  11  -1  -4    2.73    0.27
 -11  -1   4    2.84    0.36
  11  -1  -4    3.64    0.41
 -11  -1   4    2.98    0.27
  11  -1  -4    3.51    0.47
 -11   1   4    2.54    0.30
 -11   1   4    2.64    0.32
 -11   1   4    3.06    0.27
  11   1  -4    2.75    0.27
 -11   1   4    2.75    0.23
  11   1  -4    3.18    0.47
  11   1  -4    2.93    0.38
  11   1  -4    3.53    0.65
  11   1  -4    2.86    0.33
 -11   1   4    3.21    0.31
 -11   1   4    2.86    0.30
  -9  -1   4    4.10    0.30
  -9  -1   4    4.10    0.33
   9  -1  -4    3.93    0.24
  -9  -1   4    4.19    0.33
  -9  -1   4    4.23    0.37
  -9  -1   4    4.02    0.24
  -9  -1   4    4.04    0.33
  -9   1   4    4.51    0.38
  -9   1   4    3.94    0.34
  -9   1   4    3.80    0.21
  -9   1   4    4.14    0.33
  -9   1   4    4.25    0.33
   9   1  -4    3.85    0.24
  -9   1   4    3.90    0.30
  -9   1   4    4.51    0.26
  -7  -1   4    1.39    0.21
  -7  -1   4    1.60    0.18
  -7  -1   4    1.57    0.23
  -7  -1   4    1.72    0.20
  -7  -1   4    1.52    0.17
  -7  -1   4    1.45    0.19
   7  -1  -4    1.46    0.16
  -7  -1   4    1.62    0.17
   7   1  -4    1.44    0.14
  -7   1   4    1.61    0.14
  -7   1   4    1.61    0.23
  -7   1   4    1.76    0.21
  -7   1   4    1.43    0.19
  -7   1   4    1.81    0.20
  -7   1   4    1.61    0.21
   7   1  -4    1.61    0.18
  -7   1   4    1.53    0.17
  -7   1   4    1.43    0.17
  -5  -1   4    6.35    0.31
  -5  -1   4    6.38    0.30
  -5  -1   4    6.32    0.28
  -5  -1   4    6.20    0.38
   5  -1  -4    6.02    0.25
  -5  -1   4    6.22    0.28
  -5  -1   4    6.54    0.34
  -5  -1   4    6.34    0.36
  -5  -1   4    6.16    0.27
  -5   1   4    6.93    0.36
  -5   1   4    6.03    0.28
  -5   1   4    6.93    0.35
   5   1  -4    6.14    0.27
  -5   1   4    6.29    0.31
  -5   1   4    6.20    0.30
  -5   1   4    6.47    0.25
  -5   1   4    6.29    0.37
  -5   1   4    6.79    0.30
  -3  -1   4    4.80    0.24
  -3  -1   4    4.93    0.26
  -3  -1   4    4.96    0.25
  -3  -1   4    5.02    0.29
  -3  -1   4    4.81    0.34
  -3  -1   4    4.83    0.26
  -3  -1   4    4.88    0.31
  -3  -1   4    4.74    0.27
  -3  -1   4    4.72    0.23
  -3   1   4    4.87    0.22
  -3   1   4    4.77    0.27
  -3   1   4    5.12    0.33
   3   1  -4    4.43    0.22
  -3   1   4    4.82    0.24
  -3   1   4    4.91    0.26
  -3   1   4    5.14    0.32
  -3   1   4    5.01    0.27
   3   1  -4    4.89    0.23
  -3   1   4    4.90    0.28
  -3   1   4    4.76    0.24
  -1  -1   4   27.70    0.73
   1  -1  -4   27.22    0.67
  -1  -1   4   29.31    1.06
  -1  -1   4   27.40    0.84
  -1  -1   4   27.14    0.79
  -1  -1   4   26.93    0.71
  -1  -1   4   27.89    0.79
  -1  -1   4   27.62    0.85
  -1  -1   4   26.67    0.89
  -1  -1   4   27.65    0.77
  -1   1   4   27.45    0.85
  -1   1   4   28.72    0.76
  -1   1   4   28.00    0.73
  -1   1   4   26.52    0.79
  -1   1   4   26.53    1.01
  -1   1   4   26.24    0.90
  -1   1   4   26.62    0.74
   1   1  -4   27.29    0.69
  -1   1   4   26.76    0.79
  -1   1   4   26.88    0.86
   1  -1   4  181.62    4.30
   1  -1   4  177.88    5.25
   1  -1   4  178.99    3.57
   1  -1   4  180.71    3.98
   1  -1   4  170.47    4.21
   1  -1   4  172.28    3.85
  -1  -1  -4  178.87    3.28
   1  -1   4  175.63    3.53
   1  -1   4  188.04    4.30
   1   1   4  175.59    4.25
   1   1   4  179.20    4.30
   1   1   4  184.21    3.59
   1   1   4  181.50    3.96
  -1   1  -4  183.61    3.30
   1   1   4  183.10    3.87
   1   1   4  179.02    3.55
   1   1   4  179.30    5.22
   3  -1   4    9.12    0.39
  -3  -1  -4    9.35    0.36
   3  -1   4    8.74    0.44
   3  -1   4    8.29    0.40
   3  -1   4    8.67    0.38
   3  -1   4    8.87    0.54
  -3  -1  -4    9.52    0.44
  -3   1  -4    9.14    0.45
   3   1   4    9.28    0.46
   3   1   4    9.23    0.38
   3   1   4    9.60    0.56
   3   1   4    8.85    0.36
   3   1   4    9.11    0.41
   3   1   4    9.42    0.41
  -3   1  -4    8.69    0.36
  -5  -1  -4    1.03    0.32
  -5  -1  -4    1.57    0.34
   5  -1   4    1.02    0.18
  -5  -1  -4    1.20    0.20
   5  -1   4    1.16    0.18
   5  -1   4    1.40    0.21
  -5  -1  -4    1.03    0.22
  -5  -1  -4    1.11    0.16
   5   1   4    1.22    0.18
  -5   1  -4    1.32    0.24
   5   1   4    0.89    0.25
  -5   1  -4    1.13    0.33
   5   1   4    0.93    0.19
  -5   1  -4    1.66    0.35
   5   1   4    1.26    0.17
   5   1   4    1.20    0.19
   5   1   4    1.15    0.18
  -5   1  -4    1.27    0.18
  -5   1  -4    1.30    0.22
   7  -1   4    8.48    0.42
   7  -1   4    9.54    0.46
  -7  -1  -4    8.36    0.71
  -7  -1  -4    9.26    0.72
   7  -1   4    9.23    0.52
  -7  -1  -4    8.67    0.50
  -7  -1  -4    9.25    0.41
  -7   1  -4    8.41    0.46
  -7   1  -4    9.98    0.73
  -7   1  -4    8.84    0.73
   7   1   4    8.59    0.43
   7   1   4   10.08    0.47
  -7   1  -4    9.63    0.53
  -7   1  -4    9.41    0.43
  -7   1  -4    8.80    0.53
   7   1   4    9.01    0.52
  -7   1  -4    8.92    0.72
   9  -1   4   10.46    0.51
  -9  -1  -4   10.28    0.82
  -9  -1  -4   11.83    0.82
  -9  -1  -4   10.02    0.46
  -9   1  -4   10.97    0.80
  -9   1  -4   10.31    0.83
  -9   1  -4   10.43    0.48
   9   1   4   10.37    0.50
 -11  -1  -4    0.93    0.32
 -11  -1  -4    0.32    0.24
  11  -1   4    0.61    0.17
 -11   1  -4    0.32    0.15
 -11   1  -4    0.90    0.33
 -11   1  -4    0.43    0.25
 -11   1  -4    0.30    0.21
  11   1   4    0.34    0.16
 -13  -1  -4    0.04    0.17
 -13  -1  -4    0.08    0.25
 -13  -1  -4    0.25    0.20
 -13   1  -4    0.16    0.21
 -13   1  -4    0.38    0.27
  13   1   4   -0.07    0.37
 -15  -1  -4   11.20    0.72
 -15  -1  -4   14.61    0.79
 -15   1  -4   14.70    0.78
 -15   1  -4   13.07    0.76
  20  -2  -4    0.74    0.20
  20  -2  -4    0.52    0.24
  20  -2  -4    0.49    0.18
  20   2  -4    0.27    0.16
  20   2  -4    0.63    0.24
  20   2  -4    0.57    0.20
  20   2  -4    0.72    0.18
 -20   2   4    0.29    0.19
  20   2  -4    0.71    0.33
  20   2  -4    0.50    0.19
  18  -2  -4    0.14    0.22
  18  -2  -4    0.00    0.17
 -18  -2   4    0.13    0.16
  18  -2  -4    0.08    0.18
 -18  -2   4    0.10    0.14
  18  -2  -4    0.08    0.17
  18  -2  -4    0.08    0.13
  18  -2  -4    0.01    0.14
  18   2  -4    0.05    0.17
 -18   2   4   -0.05    0.11
  18   2  -4    0.08    0.13
 -18   2   4   -0.14    0.14
  18   2  -4   -0.02    0.28
  18   2  -4   -0.15    0.17
  18   2  -4   -0.03    0.15
 -18   2   4    0.04    0.14
  18   2  -4   -0.03    0.25
  18   2  -4    0.03    0.18
  18   2  -4   -0.08    0.14
  16  -2  -4   24.01    1.21
  16  -2  -4   23.78    1.51
  16  -2  -4   22.99    1.15
 -16  -2   4   25.45    0.84
  16  -2  -4   23.73    0.97
 -16  -2   4   23.16    0.87
  16  -2  -4   26.28    0.88
 -16  -2   4   23.48    0.87
  16  -2  -4   25.36    1.05
  16  -2  -4   25.04    1.18
  16  -2  -4   22.92    1.03
 -16   2   4   23.90    0.90
  16   2  -4   24.29    1.06
  16   2  -4   24.47    1.03
 -16   2   4   24.86    0.84
  16   2  -4   24.15    1.54
  16   2  -4   24.24    1.23
  16   2  -4   24.41    1.58
  16   2  -4   25.62    0.88
  16   2  -4   23.94    0.96
 -16   2   4   23.41    0.89
  14  -2  -4    4.87    0.63
  14  -2  -4    4.93    0.79
  14  -2  -4    4.50    0.51
  14  -2  -4    4.31    0.47
 -14  -2   4    4.20    0.36
 -14  -2   4    4.06    0.36
  14  -2  -4    4.67    0.57
 -14  -2   4    4.29    0.39
  14  -2  -4    4.17    0.50
  14  -2  -4    4.07    0.43
 -14  -2   4    3.64    0.50
 -14   2   4    4.29    0.45
 -14   2   4    4.10    0.40
  14   2  -4    4.33    0.58
  14   2  -4    4.04    0.37
 -14   2   4    3.70    0.38
  14   2  -4    5.10    0.78
 -14   2   4    3.64    0.43
  14   2  -4    4.22    0.48
  14   2  -4    4.48    0.76
  14   2  -4    4.75    0.49
  14   2  -4    4.10    0.43
 -14   2   4    3.71    0.31
  12  -2  -4   23.85    0.97
 -12  -2   4   25.99    0.79
 -12  -2   4   25.20    0.82
  12  -2  -4   25.31    1.16
 -12  -2   4   23.43    0.90
  12  -2  -4   25.49    0.95
  12  -2  -4   23.77    1.47
 -12  -2   4   25.73    0.84
  12  -2  -4   24.48    1.13
 -12  -2   4   23.67    1.10
  12  -2  -4   24.18    1.17
  12  -2  -4   24.13    1.01
 -12  -2   4   24.29    0.93
  12   2  -4   25.08    1.19
  12   2  -4   24.13    0.96
 -12   2   4   24.86    0.95
 -12   2   4   24.43    0.91
 -12   2   4   25.40    0.85
 -12   2   4   26.65    0.76
  12   2  -4   23.80    1.01
 -12   2   4   25.27    0.85
  12   2  -4   24.37    1.51
  12   2  -4   23.57    0.92
 -12   2   4   24.69    1.01
  12   2  -4   26.36    0.83
 -12   2   4   26.13    0.77
 -10  -2   4   28.12    0.86
 -10  -2   4   28.69    0.85
 -10  -2   4   27.96    0.98
 -10  -2   4   27.32    0.96
 -10  -2   4   29.18    0.82
 -10  -2   4   26.76    1.14
  10   2  -4   28.77    0.84
 -10   2   4   28.90    0.89
 -10   2   4   27.91    0.87
 -10   2   4   27.91    0.76
 -10   2   4   28.14    0.96
 -10   2   4   27.70    0.80
 -10   2   4   29.29    1.05
  -8  -2   4    2.62    0.23
  -8  -2   4    2.31    0.26
  -8  -2   4    2.16    0.27
  -8  -2   4    2.45    0.23
  -8  -2   4    2.49    0.32
  -8  -2   4    2.67    0.25
   8   2  -4    2.18    0.20
  -8   2   4    2.51    0.25
  -8   2   4    2.11    0.21
  -8   2   4    2.11    0.25
  -8   2   4    2.46    0.25
  -8   2   4    2.34    0.21
  -8   2   4    2.36    0.28
   8   2  -4    2.18    0.22
  -8   2   4    2.16    0.13
  -6  -2   4   24.89    0.73
  -6  -2   4   25.56    0.83
  -6  -2   4   25.00    0.70
  -6  -2   4   24.83    0.73
   6  -2  -4   22.99    0.65
  -6  -2   4   25.52    0.73
  -6  -2   4   24.72    0.86
  -6  -2   4   25.79    0.99
  -6   2   4   22.52    0.69
  -6   2   4   25.90    0.76
   6   2  -4   25.00    0.70
  -6   2   4   23.46    0.62
  -6   2   4   25.64    0.70
  -6   2   4   25.67    0.83
  -6   2   4   23.94    0.72
  -6   2   4   25.91    0.88
  -6   2   4   25.16    0.86
  -4  -2   4    0.75    0.14
  -4  -2   4    0.83    0.14
  -4  -2   4    0.70    0.12
  -4  -2   4    0.72    0.11
  -4  -2   4    0.65    0.15
  -4  -2   4    0.66    0.16
  -4  -2   4    0.68    0.12
  -4   2   4    0.76    0.13
   4   2  -4    0.95    0.12
   4   2  -4    0.65    0.11
  -4   2   4    0.71    0.13
  -4   2   4    0.80    0.14
  -4   2   4    0.75    0.12
  -4   2   4    0.72    0.09
  -4   2   4    1.06    0.19
  -4   2   4    0.75    0.12
  -4   2   4    0.84    0.12
  -4   2   4    0.88    0.15
  -2  -2   4    8.31    0.35
  -2  -2   4    8.42    0.33
  -2  -2   4    8.79    0.49
  -2  -2   4    8.48    0.36
   2  -2  -4    8.14    0.30
  -2  -2   4    8.07    0.32
  -2  -2   4    8.20    0.37
  -2  -2   4    8.63    0.43
  -2  -2   4    7.96    0.37
  -2  -2   4    8.30    0.36
   2   2  -4    7.78    0.31
  -2   2   4    8.33    0.34
  -2   2   4    8.16    0.36
  -2   2   4    7.92    0.39
  -2   2   4    8.08    0.33
  -2   2   4    8.56    0.43
  -2   2   4    7.94    0.30
   2   2  -4    7.93    0.32
  -2   2   4    8.48    0.38
  -2   2   4    7.86    0.36
   0  -2   4   31.52    1.01
   0  -2   4   32.20    0.89
   0  -2   4   31.62    1.21
   0  -2   4   31.42    0.94
   0  -2   4   32.59    0.84
   0  -2   4   33.13    0.98
   0  -2  -4   32.11    0.77
   0  -2   4   31.19    0.80
   0  -2   4   31.06    0.90
   0   2   4   32.98    0.86
   0   2   4   31.90    0.99
   0   2   4   30.86    1.14
   0   2  -4   32.28    0.79
   0   2   4   32.84    0.91
   0   2   4   32.60    0.85
   0   2   4   31.64    0.83
   2  -2   4    9.62    0.47
   2  -2   4   10.19    0.59
   2  -2   4    9.96    0.41
   2  -2   4    9.75    0.46
   2  -2   4    9.97    0.43
  -2  -2  -4    9.99    0.36
   2  -2   4    9.97    0.42
   2  -2   4   10.22    0.41
   2   2   4    9.99    0.55
   2   2   4   10.67    0.40
   2   2   4   10.14    0.43
  -2   2  -4   10.14    0.39
   2   2   4   10.53    0.40
   2   2   4   10.44    0.44
   2   2   4    9.89    0.47
   4  -2   4    8.45    0.39
  -4  -2  -4    7.97    0.41
   4  -2   4    8.15    0.40
   4  -2   4    8.28    0.44
  -4  -2  -4    7.95    0.34
   4   2   4    8.48    0.41
   4   2   4    8.73    0.39
   4   2   4    8.32    0.36
  -4   2  -4    8.25    0.36
  -4   2  -4    8.32    0.38
   4   2   4    7.91    0.53
   4   2   4    8.32    0.40
  -4   2  -4    7.97    0.45
   4   2   4    8.91    0.47
  -6  -2  -4    7.82    0.36
  -6  -2  -4    7.78    0.65
   6  -2   4    7.96    0.40
  -6  -2  -4    6.43    0.40
  -6  -2  -4    7.05    0.61
   6  -2   4    7.67    0.40
   6  -2   4    7.39    0.45
   6   2   4    6.70    0.38
  -6   2  -4    7.63    0.65
  -6   2  -4    7.43    0.37
   6   2   4    7.13    0.38
   6   2   4    7.33    0.45
  -6   2  -4    8.00    0.38
   6   2   4    7.67    0.40
  -6   2  -4    7.23    0.48
  -6   2  -4    7.19    0.63
  -6   2  -4    7.60    0.46
  -6   2  -4    7.26    0.44
   8  -2   4   20.69    0.74
   8  -2   4   20.35    0.86
  -8  -2  -4   18.40    1.16
  -8  -2  -4   18.37    1.11
  -8   2  -4   20.72    0.87
  -8   2  -4   21.51    1.17
   8   2   4   20.77    0.74
  -8   2  -4   21.03    1.17
  -8   2  -4   20.60    1.22
  -8   2  -4   22.35    1.27
  -8   2  -4   21.58    0.70
   8   2   4   20.20    0.87
  -8   2  -4   19.69    0.92
 -10  -2  -4    2.31    0.49
  10  -2   4    1.75    0.25
 -10  -2  -4    2.15    0.43
 -10   2  -4    2.37    0.48
 -10   2  -4    2.51    0.47
 -10   2  -4    2.18    0.28
  10   2   4    1.69    0.24
 -10   2  -4    1.37    0.35
 -12  -2  -4    0.04    0.15
 -12  -2  -4    0.23    0.25
 -12  -2  -4   -0.42    0.18
  12  -2   4    0.06    0.12
 -12   2  -4   -0.02    0.22
 -12   2  -4    0.05    0.14
  12   2   4   -0.07    0.34
 -12   2  -4    0.16    0.22
 -12   2  -4   -0.05    0.13
  12   2   4   -0.29    0.12
 -12   2  -4    0.00    0.23
 -14  -2  -4    1.92    0.33
 -14  -2  -4    2.93    0.46
 -14   2  -4    3.57    0.48
 -14   2  -4    2.55    0.41
  21  -3  -4    0.43    0.14
  21   3  -4    0.98    0.30
  21   3  -4    0.49    0.18
  21   3  -4    0.86    0.17
  21   3  -4    0.82    0.19
 -21   3   4    0.29    0.16
  21   3  -4    1.07    0.21
  19  -3  -4    1.94    0.28
  19  -3  -4    1.91    0.35
  19  -3  -4    2.39    0.32
  19   3  -4    2.38    0.33
  19   3  -4    2.02    0.37
  19   3  -4    2.17    0.48
  19   3  -4    2.19    0.51
  19   3  -4    2.13    0.34
 -19   3   4    2.13    0.39
  19   3  -4    2.12    0.31
  17  -3  -4    2.90    0.39
  17  -3  -4    3.77    0.43
 -17  -3   4    3.37    0.36
  17  -3  -4    3.04    0.46
  17  -3  -4    3.78    0.50
 -17  -3   4    3.46    0.34
  17  -3  -4    3.80    0.36
  17  -3  -4    3.78    0.47
  17  -3  -4    4.29    0.44
  17   3  -4    3.50    0.43
  17   3  -4    3.49    0.36
  17   3  -4    3.32    0.40
  17   3  -4    3.08    0.65
 -17   3   4    3.75    0.40
 -17   3   4    3.45    0.32
  17   3  -4    4.64    0.78
  17   3  -4    3.27    0.49
  17   3  -4    3.04    0.36
 -17   3   4    3.92    0.39
  15  -3  -4    1.26    0.28
  15  -3  -4    1.20    0.27
 -15  -3   4    1.17    0.21
  15  -3  -4    1.16    0.31
  15  -3  -4    1.33    0.36
 -15  -3   4    0.94    0.21
  15  -3  -4    1.24    0.29
 -15  -3   4    1.08    0.21
  15  -3  -4    0.96    0.24
  15   3  -4    1.45    0.48
  15   3  -4    1.13    0.26
  15   3  -4    0.90    0.31
 -15   3   4    1.10    0.23
  15   3  -4    1.03    0.21
  15   3  -4    0.90    0.26
  15   3  -4    1.04    0.43
 -15   3   4    0.94    0.17
  15   3  -4    0.89    0.21
 -15   3   4    0.92    0.22
  13  -3  -4   -0.02    0.11
 -13  -3   4    0.05    0.10
 -13  -3   4    0.15    0.12
  13  -3  -4    0.38    0.17
  13  -3  -4    0.23    0.15
 -13  -3   4    0.16    0.12
  13  -3  -4    0.17    0.66
  13  -3  -4    0.40    0.24
  13  -3  -4    0.10    0.16
  13  -3  -4   -0.10    0.26
 -13  -3   4    0.12    0.19
 -13  -3   4    0.11    0.13
  13   3  -4    0.27    0.22
 -13   3   4    0.19    0.13
 -13   3   4    0.11    0.11
  13   3  -4   -0.02    0.12
  13   3  -4    0.01    0.24
 -13   3   4    0.12    0.12
  13   3  -4    0.15    0.15
 -13   3   4    0.14    0.08
  13   3  -4    0.07    0.15
 -13   3   4    0.01    0.11
  13   3  -4    0.11    0.11
  13   3  -4    0.22    0.17
 -11  -3   4    5.60    0.40
  11  -3  -4    4.86    0.42
 -11  -3   4    5.38    0.39
 -11  -3   4    5.29    0.33
  11  -3  -4    2.69    1.12
  11  -3  -4    5.69    0.48
 -11  -3   4    4.48    0.50
  11  -3  -4    5.76    0.79
  11  -3  -4    5.80    0.51
  11  -3  -4    5.41    0.50
  11  -3  -4    6.69    0.66
 -11  -3   4    5.25    0.33
 -11  -3   4    5.35    0.38
  11   3  -4    5.20    0.32
 -11   3   4    5.28    0.33
 -11   3   4    5.17    0.35
 -11   3   4    5.17    0.30
  11   3  -4    5.40    0.45
  11   3  -4    5.69    0.53
 -11   3   4    4.69    0.34
 -11   3   4    5.11    0.45
 -11   3   4    5.62    0.35
 -11   3   4    5.37    0.25
  11   3  -4    4.86    0.34
  11   3  -4    6.18    0.65
  11   3  -4    5.20    0.60
  11   3  -4    5.40    0.48
  -9  -3   4   31.31    1.25
  -9  -3   4   31.43    0.87
  -9  -3   4   30.53    0.90
  -9  -3   4   30.71    1.06
  -9  -3   4   31.47    1.04
  -9  -3   4   31.81    0.92
   9   3  -4   32.67    0.91
  -9   3   4   30.80    0.91
  -9   3   4   30.57    1.01
   9   3  -4   28.94    0.92
  -9   3   4   30.43    0.76
  -9   3   4   32.00    0.94
  -9   3   4   31.82    1.07
  -9   3   4   31.78    0.85
  -7  -3   4   27.91    0.91
  -7  -3   4   27.02    0.76
  -7  -3   4   28.47    0.81
  -7  -3   4   26.38    1.09
  -7  -3   4   26.21    0.78
  -7  -3   4   28.24    0.95
   7   3  -4   24.42    0.78
  -7   3   4   25.64    0.76
  -7   3   4   27.57    0.75
   7   3  -4   28.03    0.78
  -7   3   4   28.53    0.83
  -7   3   4   27.16    0.89
  -7   3   4   27.61    0.92
  -7   3   4   27.41    0.79
  -5  -3   4    2.43    0.25
  -5  -3   4    2.28    0.28
  -5  -3   4    2.19    0.29
  -5  -3   4    2.37    0.21
  -5  -3   4    2.19    0.21
  -5  -3   4    2.20    0.21
   5   3  -4    2.33    0.19
  -5   3   4    2.25    0.18
  -5   3   4    2.19    0.21
  -5   3   4    2.54    0.23
  -5   3   4    2.52    0.24
  -5   3   4    2.22    0.21
  -5   3   4    2.35    0.22
   5   3  -4    2.21    0.21
  -5   3   4    2.13    0.24
  -3  -3   4    6.46    0.31
  -3  -3   4    6.93    0.29
  -3  -3   4    6.79    0.32
  -3  -3   4    7.10    0.33
  -3  -3   4    6.92    0.35
  -3  -3   4    6.80    0.45
  -3  -3   4    6.37    0.29
  -3  -3   4    6.96    0.39
  -3   3   4    6.80    0.37
   3   3  -4    6.52    0.28
  -3   3   4    6.73    0.24
   3   3  -4    6.70    0.30
  -3   3   4    6.97    0.35
  -3   3   4    7.14    0.34
  -3   3   4    7.26    0.32
  -3   3   4    6.75    0.30
  -3   3   4    7.02    0.36
  -3   3   4    6.93    0.33
   1  -3  -4   60.42    1.24
  -1  -3   4   61.35    1.50
  -1  -3   4   59.54    1.36
  -1  -3   4   58.02    1.57
  -1  -3   4   57.57    2.00
  -1  -3   4   61.37    1.61
  -1  -3   4   60.76    1.66
  -1  -3   4   62.70    1.34
  -1   3   4   58.32    1.63
  -1   3   4   61.01    1.38
   1   3  -4   58.17    1.38
  -1   3   4   60.56    1.49
  -1   3   4   60.89    1.90
  -1   3   4   59.05    1.38
  -1   3   4   59.72    1.42
   1   3  -4   61.09    1.29
  -1   3   4   60.31    1.47
   1  -3   4   30.07    0.93
   1  -3   4   32.00    0.90
   1  -3   4   32.57    0.87
  -1  -3  -4   32.09    0.77
   1  -3   4   31.70    1.01
   1  -3   4   31.55    1.02
   1   3   4   32.76    0.93
  -1   3  -4   32.97    0.81
   1   3   4   32.23    1.03
   1   3   4   32.09    1.17
   1   3   4   32.97    0.86
   1   3   4   32.55    0.88
   1   3   4   31.58    0.88
   3  -3   4    0.48    0.14
   3  -3   4    0.78    0.15
  -3  -3  -4    0.92    0.14
  -3  -3  -4    0.87    0.15
   3  -3   4    0.38    0.12
   3   3   4    0.68    0.13
   3   3   4    1.79    0.22
   3   3   4    0.51    0.13
  -3   3  -4    0.42    0.13
   3   3   4    0.52    0.17
   3   3   4    0.52    0.12
  -3   3  -4    0.55    0.12
   3   3   4    1.29    0.20
  -5  -3  -4    3.96    0.55
   5  -3   4    3.51    0.31
   5  -3   4    3.53    0.36
   5  -3   4    3.73    0.33
  -5  -3  -4    3.25    0.51
   5   3   4    3.42    0.31
   5   3   4    2.92    0.40
  -5   3  -4    3.28    0.30
  -5   3  -4    3.46    0.29
  -5   3  -4    4.63    0.48
  -5   3  -4    4.01    0.58
  -5   3  -4    3.74    0.54
   5   3   4    3.62    0.30
  -5   3  -4    2.94    0.49
  -5   3  -4    3.29    0.35
   5   3   4    3.55    0.36
   5   3   4    3.57    0.32
  -5   3  -4    3.21    0.38
  -5   3  -4    3.77    0.38
   5   3   4    3.53    0.30
   7  -3   4    1.37    0.25
  -7  -3  -4    1.33    0.35
   7  -3   4    1.03    0.20
  -7  -3  -4    1.18    0.33
   7  -3   4    1.29    0.21
  -7   3  -4    1.29    0.20
  -7   3  -4    0.97    0.31
  -7   3  -4    1.14    0.34
  -7   3  -4    1.08    0.23
   7   3   4    1.11    0.19
  -7   3  -4    1.27    0.37
   7   3   4    1.49    0.23
  -7   3  -4    1.17    0.24
  -7   3  -4    1.08    0.30
  -7   3  -4    1.29    0.23
  -7   3  -4    0.64    0.18
  -9  -3  -4    0.21    0.27
  -9  -3  -4   -0.12    0.20
   9  -3   4    0.18    0.12
  -9  -3  -4   -0.15    0.22
  -9   3  -4    0.18    0.22
  -9   3  -4    0.11    0.14
   9   3   4    0.30    0.13
  -9   3  -4    0.17    0.23
  -9   3  -4   -0.06    0.10
  -9   3  -4    0.10    0.20
  11  -3   4   -0.06    0.11
 -11  -3  -4    0.25    0.26
 -11  -3  -4    0.04    0.22
 -11   3  -4    0.24    0.15
  11   3   4   -0.06    0.12
 -11   3  -4    0.15    0.15
 -11   3  -4    0.18    0.21
 -11   3  -4    0.05    0.23
 -11   3  -4    0.04    0.24
 -13  -3  -4    2.13    0.43
 -13  -3  -4    1.84    0.36
  13   3   4    0.24    0.37
 -13   3  -4    2.19    0.44
 -13   3  -4    1.48    0.34
 -15  -3  -4    0.17    0.23
 -15   3  -4    0.09    0.17
  20  -4  -4    0.14    0.13
  20   4  -4    0.38    0.17
  20   4  -4   -0.10    0.13
  20   4  -4    0.07    0.24
  20   4  -4   -0.13    0.19
 -20   4   4    0.09    0.16
 -18  -4   4    0.43    0.18
  18  -4  -4    0.39    0.17
  18  -4  -4    0.70    0.17
  18  -4  -4    0.78    0.25
  18  -4  -4    0.68    0.21
 -18   4   4    0.64    0.18
 -18   4   4    0.73    0.16
  18   4  -4    0.60    0.26
  18   4  -4    0.52    0.30
 -18   4   4    0.50    0.18
  18   4  -4    0.55    0.16
 -18   4   4    0.35    0.23
  18   4  -4    0.50    0.19
  18   4  -4    0.58    0.21
  18   4  -4    0.30    0.27
  16  -4  -4   -0.10    0.19
  16  -4  -4   -0.02    0.13
  16  -4  -4    0.05    0.16
  16  -4  -4    0.05    0.19
 -16  -4   4    0.06    0.12
 -16  -4   4    0.14    0.16
  16   4  -4    0.02    0.25
  16   4  -4   -0.18    0.14
  16   4  -4    0.31    0.31
  16   4  -4    0.08    0.12
 -16   4   4    0.17    0.18
 -16   4   4   -0.01    0.13
 -16   4   4    0.08    0.11
 -16   4   4   -0.13    0.12
  16   4  -4    0.06    0.15
  16   4  -4    0.05    0.22
  14  -4  -4    2.08    0.35
  14  -4  -4    2.45    0.37
  14  -4  -4    1.91    0.33
  14  -4  -4    2.05    0.31
 -14  -4   4    1.76    0.24
 -14  -4   4    1.60    0.25
 -14  -4   4    1.54    0.24
  14   4  -4    1.85    0.28
  14   4  -4    2.18    0.55
  14   4  -4    2.20    0.28
  14   4  -4    1.90    0.33
  14   4  -4    1.97    0.33
  14   4  -4    2.25    0.56
  14   4  -4    2.35    0.43
 -14   4   4    1.94    0.27
 -14   4   4    1.94    0.28
 -14   4   4    1.87    0.21
  12  -4  -4   28.42    1.28
 -12  -4   4   30.60    0.93
 -12  -4   4   28.44    0.94
  12  -4  -4   29.09    1.11
 -12  -4   4   29.87    1.08
 -12  -4   4   30.69    0.91
  12  -4  -4   29.88    1.06
 -12  -4   4   29.91    1.08
  12  -4  -4   29.31    1.15
 -12  -4   4   27.78    1.31
  12   4  -4   27.11    0.99
 -12   4   4   28.92    1.08
  12   4  -4   31.97    0.96
  12   4  -4   27.97    1.06
  12   4  -4   28.44    1.31
 -12   4   4   29.21    0.80
 -12   4   4   29.37    1.08
 -12   4   4   30.37    0.97
  12   4  -4   28.21    1.12
  12   4  -4   28.87    1.03
  12   4  -4   27.75    1.67
 -12   4   4   30.82    0.96
 -10  -4   4    4.44    0.35
 -10  -4   4    4.58    0.35
  10  -4  -4    4.39    0.40
 -10  -4   4    4.73    0.31
 -10  -4   4    4.40    0.42
 -10  -4   4    4.18    0.49
  10  -4  -4    3.46    1.32
 -10  -4   4    4.43    0.42
  10  -4  -4    4.48    0.46
 -10   4   4    4.37    0.32
  10   4  -4    4.40    0.35
  10   4  -4    5.36    0.48
 -10   4   4    5.06    0.39
  10   4  -4    3.99    0.34
 -10   4   4    4.38    0.28
  10   4  -4    5.31    0.78
  10   4  -4    4.74    0.42
 -10   4   4    3.85    0.35
 -10   4   4    4.80    0.38
 -10   4   4    4.18    0.39
  10   4  -4    4.77    0.57
 -10   4   4    5.68    0.62
  -8  -4   4    4.28    0.31
  -8  -4   4    3.86    0.35
  -8  -4   4    3.97    0.38
  -8  -4   4    4.00    0.26
  -8  -4   4    4.30    0.32
  -8  -4   4    3.74    0.43
  -8   4   4    4.28    0.34
  -8   4   4    4.43    0.30
   8   4  -4    3.64    0.26
  -8   4   4    4.07    0.30
  -8   4   4    4.02    0.24
  -8   4   4    4.21    0.33
   8   4  -4    4.53    0.33
  -6  -4   4    4.70    0.28
  -6  -4   4    4.45    0.41
  -6  -4   4    4.98    0.27
  -6  -4   4    4.78    0.31
  -6  -4   4    4.54    0.37
  -6  -4   4    4.64    0.26
  -6   4   4    4.19    0.26
   6   4  -4    4.32    0.25
  -6   4   4    4.19    0.25
   6   4  -4    4.90    0.24
  -6   4   4    4.21    0.25
  -6   4   4    4.62    0.31
  -6   4   4    4.59    0.25
  -6   4   4    4.42    0.27
   6   4  -4    4.63    0.26
  -6   4   4    4.47    0.26
  -4  -4   4    9.20    0.47
  -4  -4   4    9.16    0.55
  -4  -4   4    8.61    0.36
  -4  -4   4    8.52    0.37
  -4  -4   4    9.36    0.39
  -4  -4   4    9.09    0.39
  -4  -4   4    8.95    0.42
   4   4  -4    9.20    0.38
  -4   4   4    9.57    0.41
  -4   4   4    9.18    0.40
   4   4  -4    9.00    0.34
  -4   4   4    9.36    0.38
  -4   4   4    9.11    0.39
  -4   4   4    8.93    0.42
  -4   4   4    9.22    0.45
  -2  -4   4    0.64    0.12
   2  -4  -4    0.57    0.10
  -2  -4   4    0.72    0.16
  -2  -4   4    0.52    0.12
  -2  -4   4    0.65    0.18
  -2  -4   4    0.67    0.13
  -2  -4   4    0.63    0.12
  -2  -4   4    0.68    0.13
  -2   4   4    0.55    0.13
  -2   4   4    0.60    0.14
  -2   4   4    0.59    0.08
  -2   4   4    0.65    0.12
  -2   4   4    0.59    0.13
  -2   4   4    0.58    0.13
  -2   4   4    0.65    0.14
   2   4  -4    0.60    0.12
  -2   4   4    0.79    0.14
   2   4  -4    1.12    0.15
   0  -4   4    4.99    0.30
   0  -4   4    5.00    0.31
   0  -4   4    5.23    0.28
   0  -4   4    5.45    0.34
   0  -4  -4    5.01    0.24
   0   4   4    5.29    0.31
   0   4  -4    4.86    0.27
   0   4   4    5.50    0.25
   0   4   4    5.28    0.29
   0   4  -4    4.97    0.26
   0   4   4    4.93    0.33
   0   4   4    5.19    0.28
   0   4   4    5.42    0.35
   2  -4   4    0.02    0.11
   2  -4   4    0.09    0.09
   2  -4   4    0.21    0.09
  -2   4  -4    0.22    0.11
  -2   4  -4    0.14    0.08
   2   4   4    0.10    0.11
   2   4   4    0.19    0.11
   2   4   4    0.19    0.09
   2   4   4    0.11    0.09
   2   4   4    0.12    0.08
   2   4   4    0.23    0.08
  -4  -4  -4    0.58    0.27
   4  -4   4    0.29    0.14
   4  -4   4    0.28    0.11
   4  -4   4    0.52    0.14
  -4  -4  -4    0.37    0.23
  -4   4  -4    2.10    1.75
  -4   4  -4    0.33    0.14
  -4   4  -4    0.38    0.12
  -4   4  -4    0.25    0.23
   4   4   4    0.37    0.11
  -4   4  -4    0.35    0.16
  -4   4  -4    0.48    0.12
   4   4   4    0.57    0.16
   4   4   4    0.39    0.11
  -4   4  -4    0.23    0.17
  -4   4  -4    0.43    0.26
   4   4   4    0.40    0.16
   4   4   4    0.48    0.13
  -4   4  -4    0.41    0.24
   4   4   4    0.46    0.13
  -4   4  -4    0.40    0.16
   6  -4   4   -0.10    0.08
   6  -4   4    0.01    0.11
  -6  -4  -4    0.09    0.20
   6  -4   4    0.02    0.12
  -6  -4  -4   -0.03    0.18
  -6   4  -4    0.02    0.14
   6   4   4   -0.01    0.11
   6   4   4   -0.02    0.10
  -6   4  -4   -0.05    0.23
  -6   4  -4    0.10    0.22
   6   4   4   -0.09    0.16
  -6   4  -4   -0.05    0.07
  -6   4  -4    0.06    0.19
  -6   4  -4   -0.01    0.22
  -6   4  -4   -0.03    0.09
  -6   4  -4    0.01    0.12
   6   4   4    0.07    0.13
  -6   4  -4    0.09    0.09
  -6   4  -4    0.05    0.10
   6   4   4    0.06    0.09
   8  -4   4    8.36    0.45
  -8  -4  -4    7.66    0.68
  -8  -4  -4    7.47    0.65
  -8   4  -4    7.63    0.69
  -8   4  -4    7.25    0.41
  -8   4  -4    7.27    0.68
  -8   4  -4    8.95    0.75
  -8   4  -4    7.43    0.52
  -8   4  -4    7.89    0.42
  -8   4  -4    7.24    0.69
   8   4   4    8.67    0.46
 -10  -4  -4    0.00    0.21
  10  -4   4    0.04    0.13
 -10  -4  -4    0.15    0.21
  10   4   4   -0.02    0.13
 -10   4  -4    0.29    0.16
 -10   4  -4    0.14    0.23
 -10   4  -4    0.01    0.21
 -10   4  -4   -0.13    0.21
 -12  -4  -4    0.84    0.27
 -12  -4  -4    1.08    0.34
 -12  -4  -4    1.03    0.23
 -12   4  -4    1.25    0.39
 -12   4  -4    0.96    0.30
 -12   4  -4    0.72    0.18
  12   4   4    0.33    0.33
 -14  -4  -4    1.48    0.29
 -14  -4  -4    2.84    0.41
 -14   4  -4    1.93    0.34
 -14   4  -4    2.22    0.41
  19  -5  -4    8.90    0.49
  19   5  -4    7.59    0.70
  19   5  -4    9.60    0.80
  19   5  -4    8.42    0.49
  19   5  -4    8.11    0.58
  19   5  -4    9.33    0.53
 -17  -5   4   -0.18    0.13
  17  -5  -4    0.20    0.15
  17  -5  -4    0.13    0.21
  17  -5  -4    0.04    0.17
  17   5  -4    0.08    0.29
  17   5  -4    0.15    0.15
 -17   5   4    0.15    0.11
  17   5  -4    0.43    0.30
 -17   5   4    0.09    0.14
 -17   5   4    0.19    0.20
  17   5  -4    0.18    0.23
  17   5  -4   -0.01    0.15
 -17   5   4    0.27    0.14
  17   5  -4   -0.03    0.16
  15  -5  -4    1.31    0.28
  15  -5  -4    1.10    0.25
  15  -5  -4   -0.09    0.58
 -15  -5   4    1.25    0.23
  15   5  -4    1.42    0.36
  15   5  -4    1.25    0.23
 -15   5   4    1.33    0.35
 -15   5   4    1.27    0.22
 -15   5   4    1.24    0.18
  15   5  -4    1.32    0.48
  15   5  -4    1.86    0.52
  15   5  -4    1.25    0.29
 -15   5   4    1.26    0.23
  15   5  -4    1.40    0.29
  13  -5  -4   13.99    0.75
  13  -5  -4   14.54    0.80
 -13  -5   4   14.38    0.60
  13  -5  -4   14.17    0.69
 -13  -5   4   13.72    0.70
  13   5  -4   14.51    0.73
  13   5  -4   14.70    0.62
 -13   5   4   12.59    0.77
  13   5  -4   14.49    0.87
  13   5  -4   13.78    0.68
 -13   5   4   14.93    0.63
  13   5  -4   13.97    1.10
 -13   5   4   15.71    0.98
  13   5  -4   13.84    0.70
 -13   5   4   14.29    0.63
 -13   5   4   14.53    0.49
  11  -5  -4    3.94    0.43
 -11  -5   4    4.35    0.36
  11  -5  -4    4.09    0.39
 -11  -5   4    3.78    0.40
 -11  -5   4    3.98    0.42
  11  -5  -4    4.35    0.42
  11  -5  -4    1.89    1.09
 -11  -5   4    4.04    0.36
 -11   5   4    3.65    0.38
  11   5  -4    4.20    0.36
  11   5  -4    3.37    0.36
 -11   5   4    4.23    0.37
 -11   5   4    4.75    0.39
  11   5  -4    4.79    0.48
  11   5  -4    3.51    0.35
  11   5  -4    4.64    0.75
  11   5  -4    4.52    0.55
 -11   5   4    4.83    0.61
 -11   5   4    4.01    0.27
 -11   5   4    4.52    0.38
  11   5  -4    4.14    0.43
  -9  -5   4    0.03    0.08
  -9  -5   4    0.08    0.12
  -9  -5   4   -0.06    0.09
  -9  -5   4    0.00    0.08
   9  -5  -4    0.04    0.15
   9  -5  -4   -0.03    0.68
   9  -5  -4    0.05    0.14
   9   5  -4    0.08    0.08
  -9   5   4    0.06    0.13
  -9   5   4    0.02    0.09
  -9   5   4    0.12    0.10
   9   5  -4    0.14    0.13
  -9   5   4   -0.14    0.07
   9   5  -4    0.08    0.19
  -9   5   4    0.09    0.08
   9   5  -4    0.33    0.19
   9   5  -4   -0.09    0.08
   9   5  -4    0.31    0.26
  -9   5   4    0.06    0.06
  -7  -5   4    9.56    0.43
  -7  -5   4    9.85    0.49
  -7  -5   4    9.64    0.52
  -7  -5   4    9.55    0.41
   7   5  -4    9.46    0.35
   7   5  -4   10.13    0.44
  -7   5   4    9.35    0.43
   7   5  -4    8.63    0.41
  -7   5   4    8.92    0.46
  -7   5   4    9.60    0.40
  -7   5   4    9.32    0.37
  -7   5   4    9.21    0.41
  -7   5   4    8.96    0.39
  -5  -5   4    0.18    0.09
  -5  -5   4    0.11    0.09
  -5  -5   4    0.08    0.07
  -5  -5   4    0.06    0.10
  -5   5   4    0.14    0.06
  -5   5   4    0.14    0.07
  -5   5   4    0.13    0.09
  -5   5   4    0.13    0.08
   5   5  -4    0.08    0.07
  -5   5   4    0.16    0.09
  -5   5   4    0.22    0.09
   5   5  -4    0.10    0.09
   5   5  -4    0.03    0.07
  -3  -5   4    3.85    0.37
  -3  -5   4    3.98    0.26
  -3  -5   4    4.03    0.24
  -3  -5   4    3.73    0.23
  -3  -5   4    4.07    0.27
   3   5  -4    4.27    0.29
  -3   5   4    4.07    0.26
  -3   5   4    3.87    0.36
  -3   5   4    3.79    0.25
   3   5  -4    3.97    0.31
  -3   5   4    3.72    0.28
  -3   5   4    4.06    0.26
  -3   5   4    4.03    0.24
  -1  -5   4    0.12    0.10
  -1  -5   4    0.13    0.09
  -1  -5   4    0.10    0.08
  -1   5   4    0.06    0.08
  -1   5   4    0.19    0.09
  -1   5   4    0.13    0.08
  -1   5   4    0.10    0.07
  -1   5   4    0.11    0.06
   1   5  -4    0.41    0.12
  -1   5   4    0.12    0.09
   1   5  -4    0.21    0.09
   1  -5   4   -0.06    0.06
   1  -5   4   -0.07    0.07
   1  -5   4   -0.01    0.10
  -1   5  -4    0.02    0.07
   1   5   4    0.04    0.06
  -1   5  -4    0.08    0.09
   1   5   4    0.02    0.09
   1   5   4    0.05    0.08
   1   5   4    0.16    0.09
  -1   5  -4    0.02    0.08
   1   5   4   -0.01    0.08
   1   5   4    0.02    0.07
  -3  -5  -4    0.32    0.22
   3  -5   4    0.52    0.13
  -3  -5  -4    0.12    0.22
   3  -5   4    0.46    0.14
  -3   5  -4    0.60    0.13
  -3   5  -4    0.04    0.19
   3   5   4    0.40    0.13
  -3   5  -4    1.98    1.58
   3   5   4    0.40    0.12
   3   5   4    0.36    0.13
   3   5   4    0.56    0.17
   3   5   4    0.46    0.11
  -3   5  -4    0.50    0.26
  -3   5  -4    0.75    0.18
  -3   5  -4    0.35    0.14
  -3   5  -4    0.58    0.18
  -3   5  -4    0.44    0.13
  -3   5  -4    0.22    0.18
   3   5   4    0.29    0.15
  -3   5  -4    0.38    0.22
   5  -5   4    0.19    0.13
   5  -5   4    0.08    0.13
   5  -5   4    0.12    0.10
  -5  -5  -4    0.07    0.20
  -5  -5  -4    0.18    0.22
  -5   5  -4    0.11    0.20
  -5   5  -4   -0.08    0.21
  -5   5  -4    0.19    1.31
  -5   5  -4    0.05    0.10
   5   5   4    0.26    0.12
  -5   5  -4    0.11    0.14
  -5   5  -4    0.04    0.21
   5   5   4   -0.01    0.09
  -5   5  -4   -0.02    0.10
  -5   5  -4    0.08    0.21
   5   5   4    0.08    0.10
   5   5   4    0.26    0.17
  -5   5  -4    0.15    0.16
  -5   5  -4    0.10    0.10
  -5   5  -4    0.14    0.14
   5   5   4    0.15    0.13
   7  -5   4    3.73    0.36
  -7  -5  -4    3.08    0.53
  -7  -5  -4    3.65    0.55
   7   5   4    2.86    0.37
  -7   5  -4    4.12    0.48
  -7   5  -4    3.21    0.32
  -7   5  -4    3.63    0.56
  -7   5  -4    3.73    0.38
  -7   5  -4    3.56    0.58
  -7   5  -4    3.26    0.40
  -7   5  -4    3.51    0.55
  -7   5  -4    3.02    0.52
   7   5   4    2.89    0.31
   7   5   4    3.19    0.31
   7   5   4    3.41    0.35
  -7   5  -4    2.90    0.32
  -9  -5  -4    0.12    0.26
   9  -5   4   -0.08    0.10
  -9  -5  -4    0.05    0.22
   9   5   4    0.33    0.19
  -9   5  -4    0.30    0.16
  -9   5  -4    0.08    0.23
  -9   5  -4   -0.04    0.16
  -9   5  -4    0.16    0.23
  -9   5  -4    0.07    0.13
   9   5   4    0.00    0.12
  -9   5  -4    0.31    0.15
  -9   5  -4   -0.22    0.20
 -11  -5  -4   -0.01    0.21
 -11  -5  -4    0.06    0.15
  11  -5   4    0.09    0.13
 -11  -5  -4    0.12    0.23
 -11   5  -4    0.09    0.20
 -11   5  -4    0.14    0.22
 -11   5  -4    0.08    0.23
 -11   5  -4   -0.02    0.15
 -13  -5  -4    1.42    0.31
 -13  -5  -4    2.30    0.42
 -13   5  -4    1.49    0.32
 -13   5  -4    2.65    0.46
  20  -6  -4    0.59    0.15
  20   6  -4    0.75    0.19
 -20   6   4    0.47    0.19
  20   6  -4    0.81    0.17
  20   6  -4    0.68    0.28
  18  -6  -4    1.42    0.24
  18  -6  -4    1.20    0.28
  18   6  -4    1.58    0.27
  18   6  -4    1.21    0.26
 -18   6   4    1.05    0.29
  18   6  -4    1.35    0.40
  18   6  -4    0.97    0.28
  18   6  -4    1.11    0.36
 -16  -6   4    3.27    0.34
  16  -6  -4    2.95    0.44
  16  -6  -4    2.78    0.34
  16   6  -4    3.52    0.51
  16   6  -4    3.25    0.35
  16   6  -4    3.42    0.40
  16   6  -4    3.81    0.72
 -16   6   4    2.91    0.35
 -16   6   4    2.76    0.48
 -16   6   4    3.08    0.35
 -16   6   4    3.38    0.28
  16   6  -4    3.47    0.42
  16   6  -4    3.21    0.64
  14  -6  -4    0.03    0.71
 -14  -6   4   -0.03    0.11
  14  -6  -4   -0.01    0.15
  14  -6  -4   -0.02    0.14
  14   6  -4   -0.14    0.13
 -14   6   4   -0.10    0.12
  14   6  -4    0.03    0.26
 -14   6   4    0.02    0.18
  14   6  -4    0.01    0.19
 -14   6   4    0.08    0.12
  14   6  -4   -0.02    0.16
 -14   6   4    0.01    0.08
  14   6  -4    0.13    0.13
  14   6  -4   -0.09    0.29
 -12  -6   4    0.13    0.14
 -12  -6   4    0.02    0.13
  12  -6  -4    0.27    0.19
 -12  -6   4    0.04    0.11
  12  -6  -4    0.21    0.17
  12  -6  -4   -0.21    0.13
  12  -6  -4    0.11    0.66
 -12   6   4    0.11    0.12
  12   6  -4    0.15    0.16
  12   6  -4    0.10    0.24
  12   6  -4   -0.09    0.14
 -12   6   4    0.00    0.14
  12   6  -4   -0.02    0.15
  12   6  -4    0.12    0.27
 -12   6   4    0.03    0.19
 -12   6   4    0.02    0.08
  12   6  -4   -0.03    0.09
 -12   6   4    0.04    0.11
 -12   6   4    0.18    0.12
  10  -6  -4    0.86    0.23
  10  -6  -4    1.03    0.22
  10  -6  -4    0.64    0.78
 -10  -6   4    0.89    0.20
 -10  -6   4    0.66    0.16
 -10  -6   4    0.89    0.22
  10   6  -4    0.51    0.30
 -10   6   4    0.67    0.26
 -10   6   4    0.80    0.18
  10   6  -4    0.53    0.17
 -10   6   4    0.78    0.17
  10   6  -4    0.87    0.28
  10   6  -4    0.62    0.16
 -10   6   4    0.57    0.11
  10   6  -4    0.70    0.21
  -8  -6   4    0.42    0.13
   8  -6  -4   -0.21    1.22
   8  -6  -4    0.81    0.77
  -8  -6   4    0.15    0.13
   8  -6  -4    0.41    0.16
   8  -6  -4    0.14    0.17
  -8  -6   4    0.41    0.14
   8   6  -4    0.23    0.12
  -8   6   4    0.32    0.11
  -8   6   4    0.46    0.19
   8   6  -4    0.29    0.11
  -8   6   4    0.33    0.12
  -8   6   4    0.28    0.12
  -8   6   4    0.35    0.13
   8   6  -4    0.31    0.12
  -8   6   4    0.32    0.06
  -6  -6   4    0.09    0.08
   6  -6  -4    0.36    1.24
   6  -6  -4    0.30    0.68
  -6  -6   4    0.02    0.10
  -6  -6   4   -0.03    0.09
   6   6  -4    0.11    0.08
  -6   6   4    0.08    0.08
  -6   6   4   -0.02    0.08
   6   6  -4   -0.02    0.07
  -6   6   4    0.10    0.10
  -6   6   4    0.09    0.10
   6   6  -4   -0.04    0.08
  -6   6   4    0.04    0.08
  -6   6   4    0.03    0.04
   6   6  -4    0.11    0.09
  -4  -6   4   -0.02    0.07
  -4  -6   4   -0.17    0.09
   4   6  -4    0.15    0.09
  -4   6   4    0.02    0.06
  -4   6   4    0.02    0.05
  -4   6   4   -0.03    0.07
   4   6  -4    0.06    0.07
  -4   6   4    0.09    0.07
  -4   6   4    0.04    0.08
  -2  -6   4    2.48    0.32
  -2  -6   4    2.70    0.25
  -2   6   4    2.53    0.15
  -2   6   4    2.62    0.22
  -2   6   4    2.87    0.26
   2   6  -4    2.75    0.27
  -2   6   4    2.30    0.28
  -2   6   4    2.61    0.27
   2   6  -4    2.56    0.23
   0  -6   4    4.30    0.40
   0  -6  -4    4.26    0.54
   0  -6   4    4.36    0.32
   0  -6   4    4.60    0.34
   0   6  -4    5.14    0.62
   0   6   4    4.87    0.24
   0   6   4    4.80    0.35
   0   6  -4    5.15    0.44
   0   6  -4    3.90    0.36
   0   6   4    4.86    0.38
   0   6  -4    4.67    0.32
   0   6  -4    4.93    0.44
   0   6  -4    4.71    0.36
   0   6   4    4.60    0.34
   0   6  -4    5.16    0.62
   0   6   4    4.43    0.41
   2  -6   4   10.39    0.46
   2  -6   4   10.36    0.53
  -2  -6  -4    8.80    0.72
  -2  -6  -4    8.35    0.72
   2   6   4   10.52    0.57
  -2   6  -4    9.26    0.74
   2   6   4   10.61    0.49
  -2   6  -4   10.17    0.47
  -2   6  -4   11.23    0.82
  -2   6  -4    9.24    0.51
   2   6   4   10.10    0.47
   2   6   4   10.79    0.42
  -2   6  -4    8.63    0.74
  -2   6  -4   10.42    0.43
  -2   6  -4   10.23    0.65
  -2   6  -4    9.12    0.50
   2   6   4    9.76    0.57
   2   6   4   10.58    0.45
   4  -6   4    0.14    0.10
  -4  -6  -4    0.44    0.24
   4  -6   4    0.05    0.12
  -4  -6  -4    0.05    0.20
  -4   6  -4   -0.05    0.20
   4   6   4    0.04    0.09
  -4   6  -4    0.03    0.19
  -4   6  -4    0.17    0.16
  -4   6  -4    0.16    0.10
  -4   6  -4    0.06    0.13
   4   6   4    0.10    0.09
  -4   6  -4    0.27    0.26
  -4   6  -4    0.07    0.15
  -4   6  -4    0.15    0.22
   4   6   4    0.16    0.14
   4   6   4    0.07    0.08
   4   6   4    0.15    0.12
  -4   6  -4    0.80    1.42
  -4   6  -4   -0.01    0.09
  -4   6  -4    0.01    0.11
  -6  -6  -4    0.12    0.25
   6  -6   4    0.17    0.13
   6  -6   4    0.23    0.11
  -6  -6  -4    0.16    0.22
  -6   6  -4    0.25    0.22
  -6   6  -4    0.22    0.11
  -6   6  -4    0.15    0.11
  -6   6  -4    0.32    0.25
  -6   6  -4   -0.06    0.10
   6   6   4    0.18    0.20
  -6   6  -4    0.32    0.19
   6   6   4    0.09    0.10
  -6   6  -4    0.07    0.15
  -6   6  -4    0.13    0.23
  -6   6  -4    0.40    0.27
   6   6   4    0.30    0.13
   6   6   4    0.06    0.12
   8  -6   4    8.99    0.47
  -8  -6  -4    8.16    0.72
  -8  -6  -4    8.45    0.73
  -8   6  -4    8.90    0.74
   8   6   4    8.46    0.55
  -8   6  -4    7.86    0.59
  -8   6  -4   10.00    0.79
  -8   6  -4    8.04    0.73
  -8   6  -4    9.01    0.46
  -8   6  -4    8.61    0.76
  -8   6  -4    8.58    0.57
 -10  -6  -4    1.06    0.34
  10  -6   4    1.14    0.21
 -10   6  -4    1.52    0.24
 -10   6  -4    0.83    0.21
  10   6   4    1.06    0.26
 -10   6  -4    1.40    0.41
 -10   6  -4    1.21    0.33
 -10   6  -4    1.35    0.23
 -10   6  -4    1.44    0.35
 -12  -6  -4    0.85    0.31
 -12   6  -4    0.84    0.33
  12   6   4    0.04    0.33
 -12   6  -4    0.29    0.20
 -14  -6  -4    1.43    0.29
  14   6   4   -0.25    0.26
  19  -7  -4    3.32    0.35
  19   7  -4    4.60    0.49
 -19   7   4    4.95    0.43
  19   7  -4    7.09    0.39
  17  -7  -4    0.11    0.64
  17  -7  -4    0.38    0.21
  17  -7  -4    0.63    0.19
 -17   7   4    0.55    0.24
  17   7  -4    0.61    0.22
  17   7  -4    1.00    0.35
  17   7  -4    1.14    0.44
  17   7  -4    0.81    0.22
  15  -7  -4    1.11    0.22
  15  -7  -4   -0.06    0.63
 -15  -7   4    1.44    0.24
  15   7  -4    1.65    0.48
  15   7  -4    1.39    0.31
 -15   7   4    1.21    0.16
  15   7  -4    0.96    0.39
 -15   7   4    1.42    0.24
  15   7  -4    1.32    0.27
  15   7  -4    1.37    0.23
 -15   7   4    1.60    0.38
  13  -7  -4    0.09    0.57
 -13  -7   4    0.83    0.24
 -13  -7   4    0.88    0.20
 -13   7   4    0.65    0.18
  13   7  -4    0.74    0.19
 -13   7   4    0.77    0.19
  13   7  -4    0.84    0.24
  13   7  -4    0.84    0.37
  13   7  -4    0.67    0.21
 -13   7   4    0.78    0.30
 -13   7   4    0.44    0.18
 -11  -7   4    5.01    0.50
 -11  -7   4    4.77    0.39
  11  -7  -4    1.72    1.03
 -11   7   4    5.13    0.64
  11   7  -4    4.51    0.45
  11   7  -4    4.27    0.70
 -11   7   4    4.45    0.37
  11   7  -4    4.17    0.42
 -11   7   4    3.58    0.23
 -11   7   4    4.94    0.40
  11   7  -4    4.94    0.42
  -9  -7   4    1.79    0.27
   9  -7  -4    1.41    0.99
   9  -7  -4    0.64    1.70
  -9  -7   4    2.20    0.26
  -9  -7   4    2.42    0.34
  -9   7   4    2.37    0.44
   9   7  -4    1.80    0.26
  -9   7   4    2.10    0.25
   9   7  -4    2.45    0.29
  -9   7   4    2.30    0.27
   9   7  -4    2.04    0.26
  -7  -7   4    2.63    0.31
  -7  -7   4    3.28    0.38
   7  -7  -4    2.23    1.12
   7  -7  -4    0.52    1.45
  -7  -7   4    3.02    0.27
   7   7  -4    2.56    0.28
   7   7  -4    2.68    0.29
  -7   7   4    2.87    0.12
  -7   7   4    3.10    0.29
   7   7  -4    3.20    0.32
  -7   7   4    3.38    0.28
  -7   7   4    4.10    0.54
  -7   7   4    3.21    0.29
   5  -7  -4    0.34    0.67
  -5  -7   4   -0.03    0.08
  -5  -7   4   -0.11    0.11
   5  -7  -4    0.13    1.28
  -5  -7   4    0.20    0.10
   5   7  -4    0.10    0.16
  -5   7   4    0.04    0.08
   5   7  -4   -0.41    0.52
   5   7  -4   -0.02    0.09
   5   7  -4    0.16    0.10
  -5   7   4    0.02    0.05
   5   7  -4   -0.01    0.08
   5   7  -4    0.57    0.28
  -5   7   4   -0.03    0.09
  -5   7   4    0.04    0.19
  -5   7   4    0.02    0.07
   5   7  -4   -0.26    1.38
  -5   7   4   -0.07    0.08
   3  -7  -4    7.45    0.63
  -3  -7   4    7.55    0.36
  -3  -7   4    8.53    0.50
  -3   7   4    7.87    0.38
   3   7  -4    7.74    0.62
   3   7  -4    7.04    0.63
  -3   7   4    7.47    0.45
   3   7  -4    8.07    0.57
   3   7  -4    7.63    0.34
   3   7  -4    6.47    0.42
   3   7  -4    8.04    0.42
  -3   7   4    7.50    0.40
   3   7  -4    8.25    0.90
  -3   7   4    8.15    0.63
  -3   7   4    7.18    0.38
  -1  -7   4   17.35    0.73
   1  -7  -4   15.70    0.96
  -1  -7   4   16.41    0.58
   1   7  -4   15.69    0.52
   1   7  -4   15.60    1.01
   1   7  -4   15.21    0.66
  -1   7   4   16.31    0.94
   1   7  -4   14.75    0.64
   1   7  -4   16.83    0.62
   1   7  -4   16.04    0.98
  -1   7   4   15.66    0.69
  -1   7   4   15.44    0.70
  -1   7   4   16.41    0.64
   1   7  -4   15.33    0.96
  -1   7   4   15.91    0.58
   1   7  -4   15.50    0.84
  -1   7   4   15.90    0.50
   1  -7   4    0.61    0.15
   1  -7   4    0.56    0.19
  -1  -7  -4    0.86    0.29
  -1  -7  -4    0.25    1.30
  -1   7  -4    0.46    0.25
  -1   7  -4    0.60    0.16
   1   7   4   -0.01    0.16
  -1   7  -4    0.73    0.29
  -1   7  -4    0.46    0.26
  -1   7  -4    0.85    1.50
  -1   7  -4    0.44    0.17
   1   7   4    0.45    0.15
  -1   7  -4    0.60    0.16
   1   7   4    0.35    0.12
   1   7   4    0.42    0.16
  -1   7  -4    0.82    0.24
   1   7   4    0.50    0.15
  -1   7  -4    0.48    0.13
   1   7   4    0.54    0.12
  -3  -7  -4    0.88    0.31
   3  -7   4    0.75    0.17
  -3  -7  -4    0.57    0.27
   3  -7   4    0.88    0.21
   3   7   4    0.54    0.20
  -3   7  -4    0.92    0.17
  -3   7  -4    0.87    0.21
  -3   7  -4    0.83    0.18
   3   7   4    0.74    0.20
  -3   7  -4    0.64    0.21
  -3   7  -4    0.95    0.31
   3   7   4    0.87    0.20
  -3   7  -4    0.58    0.31
   3   7   4    0.72    0.15
   3   7   4    0.81    0.20
  -3   7  -4    0.75    0.31
  -3   7  -4    0.58    0.17
  -3   7  -4    0.73    0.17
  -3   7  -4    2.44    1.75
  -3   7  -4    1.03    0.35
  -5  -7  -4    8.18    0.72
   5  -7   4    8.44    0.45
  -5  -7  -4    7.62    0.69
  -5   7  -4    7.00    0.52
  -5   7  -4    8.03    0.48
  -5   7  -4    8.70    0.74
  -5   7  -4    9.17    0.78
  -5   7  -4    8.46    0.47
   5   7   4    8.16    0.45
   5   7   4    7.87    0.41
  -5   7  -4    7.73    0.71
  -5   7  -4    7.77    0.41
  -5   7  -4    8.12    0.60
  -5   7  -4    8.37    0.73
   7  -7   4    5.90    0.46
  -7  -7  -4    6.30    0.77
  -7  -7  -4    6.64    0.74
   7   7   4    5.79    0.44
  -7   7  -4    6.11    0.51
  -7   7  -4    6.07    0.73
  -7   7  -4    5.55    0.67
  -7   7  -4    5.36    0.44
  -7   7  -4    6.67    0.81
   7   7   4    4.59    0.46
  -7   7  -4    5.75    0.47
  -7   7  -4    4.64    0.61
   7   7   4    6.07    0.38
  -7   7  -4    5.59    0.43
  -9  -7  -4    0.99    0.32
  -9  -7  -4    0.84    0.30
   9  -7   4    0.71    0.18
  -9   7  -4    0.78    0.20
   9   7   4    0.97    0.25
  -9   7  -4    0.70    0.24
  -9   7  -4    0.76    0.29
  -9   7  -4    0.88    0.21
  -9   7  -4    0.61    0.25
  -9   7  -4    0.99    0.35
  -9   7  -4    0.65    0.19
 -11  -7  -4    0.11    0.20
 -11   7  -4    0.06    0.19
  11   7   4    0.46    0.20
 -11   7  -4    0.32    0.25
  11   7   4   -0.12    0.32
 -13  -7  -4    0.24    0.23
 -13   7  -4    0.11    0.17
  13   7   4   -0.11    0.28
  18  -8  -4    7.20    0.50
  18   8  -4    9.73    0.50
  18   8  -4    8.59    0.45
  18   8  -4    9.40    0.72
 -18   8   4    6.40    0.53
  16  -8  -4   -0.03    0.54
  16  -8  -4    1.15    0.27
  16   8  -4    1.88    0.28
 -16   8   4    1.18    0.31
  16   8  -4    2.09    0.33
  16   8  -4    1.40    0.41
  16   8  -4    1.66    0.48
 -14  -8   4    0.12    0.19
  14  -8  -4    0.02    0.64
 -14  -8   4    0.09    0.14
  14   8  -4    0.16    0.18
  14   8  -4    0.14    0.16
 -14   8   4    0.11    0.19
 -14   8   4    0.10    0.13
  14   8  -4    0.26    0.16
  14   8  -4   -0.03    0.14
  14   8  -4    0.03    0.34
 -12  -8   4    0.04    0.15
  12  -8  -4   -0.05    0.63
 -12  -8   4    0.07    0.13
  12   8  -4    0.13    0.20
 -12   8   4    0.33    0.15
  12   8  -4    0.06    0.12
  12   8  -4    0.26    0.16
 -12   8   4    0.11    0.21
  12   8  -4    0.15    0.18
 -10  -8   4   17.46    0.67
 -10  -8   4   17.76    0.84
 -10   8   4   17.97    1.08
  10   8  -4   18.18    0.72
  10   8  -4   18.54    0.73
  -8  -8   4    0.04    0.13
  -8  -8   4    0.20    0.11
   8  -8  -4   -0.03    0.64
  -8  -8   4    0.28    0.16
   8  -8  -4    0.04    1.52
   8   8  -4    0.22    0.13
  -8   8   4    0.29    0.20
   8   8  -4   -0.11    0.11
   8   8  -4    0.07    0.13
  -6  -8   4    6.58    0.35
  -6  -8   4    6.24    0.42
  -6  -8   4    7.02    0.48
   6  -8  -4    2.78    1.31
  -6   8   4    6.29    0.42
   6   8  -4    7.43    0.42
  -6   8   4    6.28    0.25
   6   8  -4    6.24    0.41
  -6   8   4    6.46    0.34
   6   8  -4    6.82    0.39
  -6   8   4    6.61    0.37
  -6   8   4    6.60    0.61
   4  -8  -4    1.88    1.16
  -4  -8   4    3.75    0.43
   4  -8  -4    4.39    0.57
   4   8  -4    3.96    0.49
   4   8  -4    3.75    0.54
   4   8  -4    3.68    0.51
  -4   8   4    3.43    0.38
  -4   8   4    3.75    0.34
   4   8  -4    3.83    0.35
   4   8  -4    3.25    0.54
  -4   8   4    3.47    0.30
   4   8  -4    3.51    0.33
  -4   8   4    3.27    0.23
  -4   8   4    3.57    0.53
   4   8  -4    8.57    2.75
  -2  -8   4    0.62    0.19
   2  -8  -4    0.11    1.14
  -2  -8   4    0.67    0.14
   2  -8  -4    0.53    0.28
   2   8  -4    0.49    0.27
  -2   8   4    0.60    0.14
  -2   8   4    0.59    0.10
   2   8  -4    0.63    0.16
   2   8  -4    1.35    1.41
   2   8  -4    0.60    0.23
  -2   8   4    0.50    0.22
   2   8  -4    0.82    0.31
   2   8  -4    0.98    0.30
  -2   8   4    0.72    0.17
  -2   8   4    0.62    0.18
  -2   8   4    0.60    0.15
   0  -8   4   11.38    0.60
   0  -8   4   12.59    0.52
   0  -8  -4   12.49    0.87
   0   8  -4   12.45    0.48
   0   8   4   12.28    0.52
   0   8  -4   12.74    0.88
   0   8   4   12.64    0.85
   0   8   4   12.50    0.64
   0   8   4   12.02    0.65
   0   8  -4   12.51    0.57
   0   8  -4   11.87    0.74
   0   8   4   12.56    0.46
   0   8   4   12.57    0.57
   0   8  -4   12.02    0.88
   0   8  -4   11.55    0.58
   0   8  -4   11.54    0.89
   2  -8   4    0.29    0.12
  -2  -8  -4    0.15    0.23
   2  -8   4    0.19    0.14
  -2  -8  -4   -0.75    1.34
   2   8   4    0.19    0.16
   2   8   4    0.49    0.29
  -2   8  -4    0.38    0.23
  -2   8  -4    0.29    0.19
   2   8   4    0.13    0.14
  -2   8  -4    0.31    0.13
  -2   8  -4    0.31    0.24
  -2   8  -4    0.42    0.29
   2   8   4    0.37    0.17
   2   8   4    0.27    0.15
   2   8   4    0.06    0.11
   2   8   4    0.13    0.09
  -2   8  -4    0.10    0.15
  -2   8  -4    1.26    1.52
  -2   8  -4    0.08    0.12
  -2   8  -4    0.27    0.26
  -2   8  -4    0.04    0.12
  -2   8  -4    0.43    0.17
   4  -8   4    0.33    0.15
  -4  -8  -4    0.67    0.31
  -4  -8  -4    0.40    0.26
   4   8   4    1.00    0.20
  -4   8  -4    0.79    0.25
  -4   8  -4    0.60    0.16
  -4   8  -4    0.50    0.30
  -4   8  -4    0.47    0.16
  -4   8  -4    0.64    0.19
  -4   8  -4    0.49    0.18
  -4   8  -4    0.74    0.31
  -4   8  -4    0.66    0.31
   4   8   4    0.72    0.19
  -4   8  -4    0.76    0.29
   4   8   4    0.61    0.14
  -4   8  -4    0.60    0.20
  -6  -8  -4    4.59    0.65
   6  -8   4    3.35    0.34
   6  -8   4    3.89    0.37
  -6  -8  -4    3.24    0.55
   6   8   4    3.64    0.44
  -6   8  -4    4.28    0.53
  -6   8  -4    3.93    0.64
  -6   8  -4    3.81    0.45
  -6   8  -4    4.43    0.61
  -6   8  -4    4.52    0.64
   6   8   4    3.77    0.38
  -6   8  -4    4.95    0.65
   6   8   4    3.54    0.33
  -6   8  -4    3.66    0.35
  -6   8  -4    3.42    0.36
   8  -8   4    4.40    0.39
  -8  -8  -4    4.60    0.61
  -8  -8  -4    4.84    0.62
  -8   8  -4    4.02    0.55
  -8   8  -4    4.88    0.41
  -8   8  -4    4.65    0.67
  -8   8  -4    4.61    0.38
  -8   8  -4    5.02    0.54
  -8   8  -4    4.34    0.56
   8   8   4    4.87    0.47
  -8   8  -4    5.11    0.59
 -10  -8  -4    1.24    0.36
 -10   8  -4    1.00    0.19
 -10   8  -4    1.27    0.39
 -10   8  -4    0.62    0.25
  10   8   4    1.31    0.25
  10   8   4    0.00    0.32
 -10   8  -4    0.97    0.28
 -12  -8  -4    1.33    0.31
 -12   8  -4    0.82    0.29
 -12   8  -4    0.89    0.24
  12   8   4   -0.15    0.27
  17  -9  -4   -0.04    0.52
  17  -9  -4    0.40    0.19
  17   9  -4    0.23    0.18
 -17   9   4    0.44    0.20
  17   9  -4    0.22    0.17
  15  -9  -4    0.07    0.59
  15   9  -4    0.54    0.22
  15   9  -4    0.48    0.20
 -15   9   4    0.47    0.24
 -13  -9   4    4.46    0.49
 -13  -9   4    4.53    0.39
 -13   9   4    4.52    0.62
  13   9  -4    4.11    0.40
  13   9  -4    4.31    0.40
  13   9  -4    3.96    0.39
 -11  -9   4    2.21    0.28
  11  -9  -4    0.42    0.71
 -11  -9   4    2.01    0.33
  11  -9  -4    0.22    1.67
  11   9  -4    1.94    0.29
  11   9  -4    1.69    0.27
 -11   9   4    2.12    0.43
  -9  -9   4    0.71    0.18
   9  -9  -4   -0.05    1.27
   9  -9  -4    0.06    0.68
  -9  -9   4    0.73    0.22
  -9   9   4    0.28    0.24
   9   9  -4    0.70    0.17
   9   9  -4    0.57    0.18
  -7  -9   4    0.58    0.15
   7  -9  -4   -0.33    1.40
   7  -9  -4    0.18    0.72
  -7  -9   4    0.63    0.21
   7   9  -4    0.42    0.20
   7   9  -4    0.72    0.18
  -7   9   4    0.63    0.34
  -7   9   4    0.65    0.27
   7   9  -4    0.61    0.17
  -5  -9   4    0.21    0.17
   5  -9  -4    0.21    1.44
   5  -9  -4    0.02    0.75
   5   9  -4    0.52    0.31
  -5   9   4    0.20    0.08
  -5   9   4    0.25    0.15
  -5   9   4    0.27    0.12
   5   9  -4    0.39    0.16
   5   9  -4    0.45    0.23
  -5   9   4    0.38    0.14
  -5   9   4    0.27    0.21
   5   9  -4    0.15    0.14
   5   9  -4    0.23    0.26
   3  -9  -4   28.54    1.45
  -3  -9   4   28.05    0.84
  -3  -9   4   29.43    1.10
   3   9  -4   26.59    1.45
  -3   9   4   26.94    1.08
  -3   9   4   28.24    0.75
  -3   9   4   27.05    1.01
   3   9  -4   27.40    1.42
   3   9  -4   28.33    1.24
   3   9  -4   28.49    1.44
  -3   9   4   28.71    1.41
  -3   9   4   28.19    0.94
  -3   9   4   29.39    0.87
   3   9  -4   29.87    0.96
   1  -9  -4    3.85    0.56
  -1  -9   4    3.09    0.38
  -1  -9   4    3.39    0.32
  -1   9   4    3.37    0.41
  -1   9   4    3.54    0.37
  -1   9   4    3.58    0.23
   1   9  -4    3.66    0.59
  -1   9   4    3.23    0.35
   1   9  -4    4.01    0.57
  -1   9   4    4.14    0.58
  -1   9   4    3.94    0.35
   1   9  -4    4.05    0.51
   1   9  -4    3.91    0.38
   1   9  -4    4.30    0.61
   1  -9   4    9.41    0.47
  -1  -9  -4    9.81    0.80
   1   9   4    9.64    0.56
  -1   9  -4    9.32    0.79
  -1   9  -4    9.25    0.79
  -1   9  -4   10.34    0.81
  -1   9  -4    8.83    0.50
   1   9   4    9.54    0.42
  -1   9  -4    9.72    0.82
  -1   9  -4    9.41    0.66
   1   9   4    8.34    0.54
   1   9   4   10.10    0.78
  -1   9  -4    9.58    0.51
   1   9   4    9.92    0.52
  -1   9  -4   10.15    0.51
  -3  -9  -4    5.40    0.71
   3  -9   4    5.47    0.43
  -3  -9  -4    3.59    0.56
   3   9   4    5.03    0.32
  -3   9  -4    5.32    0.45
  -3   9  -4    4.84    0.37
  -3   9  -4    5.45    0.46
  -3   9  -4    6.07    0.74
   3   9   4    5.00    0.64
  -3   9  -4    5.24    0.45
   3   9   4    4.54    0.39
   3   9   4    5.26    0.46
   3   9   4    5.45    0.49
  -3   9  -4    4.35    0.63
  -3   9  -4    4.65    0.68
  -3   9  -4    4.34    0.58
  -3   9  -4    6.72    0.67
  -5  -9  -4    0.63    0.32
  -5  -9  -4    0.28    0.26
   5  -9   4    0.46    0.15
  -5   9  -4    0.31    0.27
  -5   9  -4    0.60    0.28
  -5   9  -4    0.39    0.19
   5   9   4    0.23    0.19
  -5   9  -4    0.49    0.26
  -5   9  -4    0.36    0.16
  -5   9  -4    0.33    0.16
   5   9   4    0.30    0.17
   5   9   4    0.40    0.18
   5   9   4    0.50    0.14
  -5   9  -4    0.55    0.22
  -5   9  -4    0.57    0.32
   5   9   4    0.35    0.18
  -7  -9  -4   11.03    0.81
   7  -9   4    9.94    0.51
  -7  -9  -4   10.64    0.82
  -7  -9  -4   10.34    0.61
   7   9   4   10.69    0.62
  -7   9  -4   11.16    0.87
  -7   9  -4    8.12    0.72
  -7   9  -4   10.41    0.49
  -7   9  -4   11.10    0.70
   7   9   4   10.00    0.50
  -7   9  -4   11.28    0.65
  -7   9  -4   10.30    0.79
  -7   9  -4   10.83    0.54
   7   9   4    9.71    0.51
  -9  -9  -4    3.43    0.53
  -9  -9  -4    2.28    0.42
  -9   9  -4    2.96    0.33
  -9   9  -4    3.39    0.53
  -9   9  -4    1.70    0.37
   9   9   4    2.90    0.37
  -9   9  -4    2.25    0.39
 -11  -9  -4    1.42    0.33
 -11   9  -4    1.95    0.36
 -11   9  -4    1.63    0.31
  11   9   4    1.06    0.21
  11   9   4    0.31    0.33
  16 -10  -4    0.33    0.17
  16 -10  -4    0.19    0.49
 -16  10   4   -0.05    0.16
  16  10  -4    0.00    0.15
  14 -10  -4    0.22    0.57
 -14  10   4    0.22    0.21
 -12 -10   4    0.34    0.16
 -12 -10   4    0.64    0.22
  12 -10  -4   -0.12    0.62
 -12  10   4    0.37    0.24
  12  10  -4    0.46    0.18
  12  10  -4    0.52    0.17
 -10 -10   4    0.62    0.23
  10 -10  -4    0.73    1.61
 -10 -10   4    0.87    0.19
  10 -10  -4    0.35    0.74
 -10  10   4    0.55    0.26
  10  10  -4    0.88    0.20
  10  10  -4    0.59    0.19
  -8 -10   4   19.63    0.90
  -8 -10   4   18.87    0.69
  -8  10   4   20.06    1.16
   8  10  -4   19.23    0.76
   8  10  -4   19.56    0.78
  -8  10   4   18.14    1.30
   6 -10  -4    1.77    1.23
  -6 -10   4    4.97    0.51
   6  10  -4    3.82    0.37
  -6  10   4    5.15    0.64
  -6  10   4    4.40    0.69
   6  10  -4    5.46    0.47
   6  10  -4    5.55    0.65
  -6  10   4    4.56    0.39
   4 -10  -4    5.74    0.69
  -4 -10   4    6.43    0.57
   4  10  -4    6.23    0.73
   4  10  -4    6.11    0.48
  -4  10   4    6.49    0.50
   4  10  -4    4.60    0.40
  -4  10   4    6.82    0.74
   4  10  -4    6.74    0.76
  -2 -10   4    6.28    0.56
   2 -10  -4    7.33    0.71
  -2 -10   4    6.77    0.38
   2  10  -4    7.32    0.66
  -2  10   4    6.72    0.42
   2  10  -4    6.85    0.54
   2  10  -4    6.44    0.72
   2  10  -4    6.94    0.52
   2  10  -4    6.52    0.65
   2  10  -4    6.75    0.78
   2  10  -4    6.41    0.41
  -2  10   4    7.15    0.78
  -2  10   4    6.52    0.31
   0 -10   4    1.79    0.24
   0 -10  -4   -0.30    1.28
   0 -10  -4    2.09    0.44
   0  10  -4    1.71    0.44
   0  10   4    1.69    0.27
   0  10  -4    1.57    0.25
   0  10  -4    2.00    0.46
   0  10  -4    2.09    0.30
   0  10   4    1.60    0.27
   0  10  -4    1.98    0.47
   0  10  -4    1.74    0.36
   0  10   4    1.77    0.20
   0  10  -4    1.78    0.41
   0  10   4    1.54    0.38
   0  10   4    1.62    0.28
   2 -10   4    5.38    0.43
  -2 -10  -4    6.47    0.76
  -2  10  -4    5.49    0.71
  -2  10  -4    6.12    0.75
   2  10   4    5.27    0.67
  -2  10  -4    5.65    0.76
   2  10   4    5.64    0.49
  -2  10  -4    5.46    0.46
  -2  10  -4    5.59    0.47
  -2  10  -4    5.80    0.74
   2  10   4    5.52    0.48
   2  10   4    5.17    0.32
   2  10   4    5.11    0.42
  -2  10  -4    5.60    0.60
  -4 -10  -4    0.19    0.25
  -4 -10  -4   -0.12    0.25
   4 -10   4   -0.05    0.10
   4  10   4   -0.01    0.15
   4  10   4   -0.04    0.12
  -4  10  -4    0.08    0.21
  -4  10  -4    0.30    0.18
  -4  10  -4    0.15    0.25
  -4  10  -4    0.05    0.13
   4  10   4    0.29    0.16
   4  10   4    0.23    0.21
   4  10   4    0.13    0.18
  -4  10  -4    0.08    0.17
  -4  10  -4   -0.06    0.22
  -4  10  -4    0.26    0.26
   4  10   4    0.02    0.11
  -4  10  -4    0.01    0.11
  -6 -10  -4    2.27    0.44
  -6 -10  -4    2.20    0.34
  -6 -10  -4    2.72    0.48
   6 -10   4    2.55    0.30
   6  10   4    2.29    0.26
  -6  10  -4    2.24    0.36
   6  10   4    2.74    0.38
   6  10   4    1.95    0.29
  -6  10  -4    2.50    0.48
  -6  10  -4    1.95    0.28
   6  10   4    2.89    0.34
  -6  10  -4    2.46    0.34
  -6  10  -4    2.04    0.42
  -6  10  -4    2.55    0.45
  -6  10  -4    2.17    0.42
  -8 -10  -4    0.50    0.29
  -8 -10  -4    0.20    0.24
   8  10   4    0.11    0.35
  -8  10  -4    0.53    0.26
  -8  10  -4    0.47    0.17
  -8  10  -4    0.53    0.25
   8  10   4    0.82    0.22
  -8  10  -4    0.73    0.32
 -10 -10  -4    3.28    0.46
 -10  10  -4    3.25    0.47
  10  10   4    1.89    0.24
 -10  10  -4    2.18    0.36
  15 -11  -4    0.18    0.16
  15 -11  -4    0.15    0.51
 -15  11   4    0.10    0.21
 -15  11   4    0.01    0.15
  13 -11  -4    0.81    0.26
  13 -11  -4    0.20    0.53
 -13  11   4    0.71    0.30
 -13  11   4    0.97    0.28
  11 -11  -4    0.57    1.54
  11 -11  -4   -0.26    0.57
 -11 -11   4    0.02    0.17
 -11 -11   4    0.15    0.16
 -11  11   4    0.02    0.28
  11  11  -4    0.26    0.15
 -11  11   4    0.18    0.20
  11  11  -4    0.10    0.15
  -9 -11   4    8.90    0.58
  -9  11   4    7.18    0.79
   9  11  -4    7.79    0.47
   9  11  -4    8.51    0.50
  -9  11   4    8.08    0.69
  -7 -11   4    9.82    0.62
  -7  11   4    9.51    0.90
  -7  11   4    9.86    0.78
   7  11  -4    9.28    0.52
   7  11  -4    8.34    0.48
  -5 -11   4   15.59    0.79
  -5  11   4   14.04    1.10
   5  11  -4   13.70    0.64
   5  11  -4   14.49    0.93
   5  11  -4   16.19    0.69
  -5  11   4   15.07    0.64
  -5  11   4   15.15    0.99
  -3 -11   4    2.26    0.36
   3 -11  -4    2.06    0.45
   3 -11  -4   -0.04    1.12
   3  11  -4    3.00    0.53
  -3  11   4    2.34    0.44
   3  11  -4    2.64    0.47
   3  11  -4    2.31    0.32
  -3  11   4    2.44    0.32
   3  11  -4    2.36    0.30
   3  11  -4    2.52    0.46
  -3  11   4    2.15    0.20
   1 -11  -4    2.33    0.50
  -1 -11   4    1.81    0.24
   1 -11  -4    0.04    1.01
   1  11  -4    2.11    0.44
  -1  11   4    2.04    0.44
   1  11  -4    3.02    0.50
  -1  11   4    1.91    0.29
  -1  11   4    1.89    0.28
   1  11  -4    2.22    0.38
   1  11  -4    2.10    0.31
  -1  11   4    1.78    0.20
   1  11  -4    1.74    0.26
   1  11  -4    2.44    0.51
  -1 -11  -4    4.18    0.60
   1 -11   4    4.03    0.37
  -1 -11  -4    0.92    1.45
   1  11   4    3.70    0.40
  -1  11  -4    4.05    0.60
  -1  11  -4    4.19    0.61
  -1  11  -4    2.85    0.51
   1  11   4    4.11    0.59
  -1  11  -4    3.17    0.35
   1  11   4    3.40    0.29
  -1  11  -4    4.00    0.41
  -1  11  -4    3.94    0.61
   1  11   4    3.91    0.41
  -1  11  -4    3.85    0.49
  -3 -11  -4    0.75    0.32
   3 -11   4    0.25    0.15
  -3 -11  -4    0.42    0.27
   3  11   4    0.70    0.20
   3  11   4    0.56    0.17
  -3  11  -4    0.59    0.22
  -3  11  -4    0.76    0.32
   3  11   4    0.53    0.15
  -3  11  -4    0.49    0.26
  -3  11  -4    0.36    0.26
  -3  11  -4    0.28    0.15
   3  11   4    0.65    0.28
  -3  11  -4    0.67    0.21
  -3  11  -4    0.57    0.20
   3  11   4    0.46    0.20
  -3  11  -4    0.70    0.29
  -5 -11  -4    0.08    0.25
   5 -11   4   -0.08    0.12
  -5 -11  -4    0.02    0.26
  -5 -11  -4    0.12    0.16
  -5  11  -4    0.19    0.20
   5  11   4   -0.13    0.11
  -5  11  -4    0.16    0.17
   5  11   4    0.06    0.15
   5  11   4   -0.12    0.18
   5  11   4   -0.01    0.17
  -5  11  -4   -0.10    0.12
   5  11   4    0.10    0.15
  -5  11  -4    0.22    0.28
  -5  11  -4    0.04    0.21
  -5  11  -4   -0.10    0.13
  -7 -11  -4    8.42    0.67
  -7 -11  -4    6.63    0.61
  -7  11  -4    8.08    0.49
   7  11   4    7.60    0.49
  -7  11  -4    8.21    0.62
  -7  11  -4    4.92    0.58
  -7  11  -4    8.62    0.69
  -9 -11  -4    1.28    0.29
  -9  11  -4    0.48    0.22
   9  11   4    0.78    0.18
  -9  11  -4    1.51    0.34
  -9  11  -4    1.06    0.16
  14 -12  -4    0.65    0.19
  14 -12  -4    0.33    0.50
 -14  12   4    0.53    0.19
  12 -12  -4    0.61    0.22
  12 -12  -4    0.37    0.57
 -12  12   4    0.51    0.20
 -12  12   4   -0.01    0.23
  10 -12  -4    0.26    1.39
 -10  12   4    2.30    0.47
 -10  12   4    3.53    0.48
   8 -12  -4   -0.08    1.19
  -8 -12   4    0.38    0.20
   8 -12  -4    0.22    0.69
   8  12  -4    0.35    0.17
  -8  12   4    0.54    0.31
   8  12  -4    0.53    0.17
  -8  12   4    0.50    0.25
  -6 -12   4    7.25    0.62
   6  12  -4    7.22    0.53
  -6  12   4    7.08    0.63
   6  12  -4    5.12    0.43
   6  12  -4    6.35    0.58
  -6  12   4    6.83    0.73
  -4 -12   4    8.37    0.56
   4 -12  -4    6.88    0.69
   4 -12  -4    8.63    0.58
  -4  12   4    7.73    0.34
   4  12  -4    8.05    0.69
  -4  12   4    8.25    0.69
   4  12  -4    8.45    0.51
   4  12  -4    8.46    0.67
  -4  12   4    8.49    0.48
   2 -12  -4    8.40    0.73
   2  12  -4    7.19    0.44
  -2  12   4    6.88    0.65
   2  12  -4    7.55    0.66
  -2  12   4    7.31    0.35
   2  12  -4    6.98    0.63
   2  12  -4    7.81    0.49
   2  12  -4    7.43    0.69
  -2  12   4    7.32    0.48
  -2  12   4    7.35    0.45
   0 -12  -4    1.18    0.29
   0 -12  -4    0.02    1.15
   0 -12   4    0.75    0.18
   0 -12  -4    0.93    0.33
   0  12  -4    0.79    0.20
   0  12  -4    1.09    0.27
   0  12   4    1.10    0.22
   0  12  -4    1.25    0.33
   0  12  -4    1.41    0.39
   0  12   4    1.05    0.33
   0  12   4    0.76    0.21
   0  12   4    1.02    0.16
   0  12  -4    1.46    0.38
   0  12  -4    1.22    0.26
  -2 -12  -4    8.04    0.71
   2 -12   4    7.96    0.43
  -2 -12  -4    9.28    0.60
   2  12   4    8.20    0.50
   2  12   4    7.06    0.63
  -2  12  -4    8.05    0.58
  -2  12  -4    8.89    0.76
  -2  12  -4    8.18    0.47
  -2  12  -4    9.16    0.72
  -2  12  -4    8.97    0.74
  -2  12  -4    8.10    0.49
   2  12   4    8.31    0.41
   2  12   4    7.70    0.46
   2  12   4    8.59    0.55
  -4 -12  -4    0.11    0.23
  -4 -12  -4    0.13    0.25
  -4  12  -4    0.13    0.15
  -4  12  -4    0.23    0.17
   4  12   4    0.23    0.20
  -4  12  -4    0.24    0.25
  -4  12  -4    0.25    0.24
  -4  12  -4    0.19    0.19
   4  12   4    0.11    0.17
   4  12   4    0.02    0.15
  -6 -12  -4    0.13    0.23
  -6 -12  -4    0.58    0.28
   6  12   4    0.42    0.15
  -6  12  -4    0.34    0.21
  -6  12  -4    0.58    0.18
  -6  12  -4    1.01    0.33
  -6  12  -4    0.19    0.23
   6  12   4    0.87    0.21
  -8 -12  -4   24.57    1.15
  -8  12  -4   25.10    0.94
  -8  12  -4   24.88    1.14
  11 -13  -4    0.81    1.37
  11 -13  -4    0.22    0.56
 -11  13   4    0.16    0.23
 -11  13   4    0.25    0.17
   9 -13  -4   -0.24    1.29
   9 -13  -4   -0.08    0.55
  -9  13   4    0.11    0.22
  -9  13   4    0.21    0.19
  -7  13   4    6.14    0.55
  -7  13   4    4.37    0.62
   5  13  -4   10.34    0.73
  -5  13   4   11.45    0.79
   5  13  -4   11.44    0.63
  -5  13   4    9.82    0.82
  -5  13   4   11.65    0.59
   3 -13  -4    5.76    0.62
  -3  13   4    4.49    0.42
   3  13  -4    4.93    0.59
  -3  13   4    4.32    0.40
   3  13  -4    4.25    0.40
  -3  13   4    4.75    0.58
   3  13  -4    4.09    0.52
   1 -13  -4   12.89    0.86
   1  13  -4   12.10    0.84
  -1  13   4   10.98    0.80
  -1  13   4   12.69    0.61
   1  13  -4   12.12    0.82
  -1  13   4   11.54    0.62
   1  13  -4   12.17    0.81
  -1 -13  -4    0.23    1.20
  -1 -13  -4    1.79    0.39
  -1  13  -4    1.88    0.30
  -1  13  -4    1.95    0.38
   1  13   4    1.90    0.28
   1  13   4    1.74    0.34
  -1  13  -4    2.05    0.39
   1  13   4    2.03    0.28
  -1  13  -4    2.07    0.42
  -3 -13  -4    0.27    0.23
   3  13   4    0.16    0.17
  -3  13  -4    0.06    0.17
  -3  13  -4    0.18    0.24
  -3  13  -4    0.07    0.20
   3  13   4    0.03    0.13
  -3  13  -4    0.19    0.15
   3  13   4    0.23    0.18
  -5 -13  -4    0.02    0.20
  -5 -13  -4    0.17    0.25
  -5  13  -4   -0.16    0.20
   5  13   4    0.22    0.14
   5  13   4   -0.09    0.14
  -5  13  -4    0.05    0.13
  -5  13  -4    0.14    0.17
  -5  13  -4   -0.03    0.18
 -10  14   4   -0.04    0.14
   8 -14  -4    0.35    0.99
  -8  14   4    0.10    0.13
  -8  14   4    0.29    0.18
  -8  14   4    0.08    0.17
   6 -14  -4    0.26    0.96
   6  14  -4    0.39    0.25
  -6  14   4    0.15    0.14
  -6  14   4    0.52    0.26
  -6  14   4    0.47    0.20
   4 -14  -4    0.29    0.88
   4 -14  -4    0.13    0.24
  -4  14   4    0.07    0.17
  -4  14   4    0.31    0.15
   4  14  -4    0.24    0.20
   2 -14  -4    0.12    0.94
   2 -14  -4   -0.13    0.19
   2  14  -4    0.15    0.19
  -2  14   4    0.03    0.18
   2  14  -4    0.00    0.20
  -2  14   4    0.12    0.13
   0 -14  -4    0.18    0.20
   0 -14  -4    0.48    1.05
   0  14   4    0.21    0.13
   0  14  -4   -0.12    0.18
   0  14  -4    0.18    0.19
   0  14   4    0.19    0.16
  -2 -14  -4    1.15    0.29
  -2  14  -4    1.32    0.28
   2  14   4    1.18    0.22
  -2  14  -4    1.45    0.22
   2  14   4    1.18    0.20
   2  14   4    0.60    0.19
  -2  14  -4    1.00    0.25
  -4 -14  -4    0.13    0.18
  -4  14  -4    0.41    0.18
  -4  14  -4    0.29    0.13
   7 -15  -4    0.04    0.80
   5 -15  -4   -0.14    0.62
  -5  15   4    0.12    0.15
  -5  15   4   -0.15    0.11
   3 -15  -4    0.43    0.86
  -3  15   4    0.07    0.12
  -3  15   4    0.26    0.17
   3  15  -4    0.19    0.18
   1 -15  -4    1.16    0.26
  -1  15   4    0.61    0.18
   1  15  -4    1.01    0.23
  -1  15   4    1.10    0.16
  20   0  -5    0.17    0.13
  20   0  -5    0.26    0.18
  20   0  -5    0.09    0.19
  20   0  -5   -0.10    0.23
  20   0  -5    0.08    0.15
  18   0  -5   -0.11    0.14
  18   0  -5    0.04    0.21
 -18   0   5    0.09    0.14
 -18   0   5   -0.06    0.13
  18   0  -5    0.03    0.17
  18   0  -5    0.25    0.18
  18   0  -5    0.01    0.15
  18   0  -5    0.42    0.19
  18   0  -5    0.00    0.26
  16   0  -5   -0.12    0.12
  16   0  -5   -0.13    0.17
 -16   0   5    0.13    0.14
  16   0  -5   -0.19    0.15
 -16   0   5    0.03    0.12
  16   0  -5   -0.07    0.21
  16   0  -5   -0.11    0.26
 -16   0   5    0.14    0.15
  16   0  -5    0.12    0.18
  16   0  -5   -0.02    0.15
  16   0  -5   -0.16    0.14
  14   0  -5    0.05    0.25
 -14   0   5    0.11    0.12
  14   0  -5    0.14    0.16
  14   0  -5    0.04    0.12
  14   0  -5    0.01    0.19
  14   0  -5    0.01    0.17
 -14   0   5    0.09    0.11
  14   0  -5    0.00    0.18
  14   0  -5   -0.07    0.12
 -14   0   5    0.11    0.12
  12   0  -5   -0.04    0.18
 -12   0   5    0.08    0.09
 -12   0   5   -0.02    0.12
  12   0  -5    0.16    0.12
 -12   0   5   -0.07    0.08
  12   0  -5    0.05    0.16
  12   0  -5   -0.39    0.13
  12   0  -5    0.04    0.10
  12   0  -5    0.29    0.68
 -12   0   5    0.11    0.13
  12   0  -5   -0.04    0.18
  12   0  -5    0.13    0.27
 -12   0   5    0.15    0.09
  10   0  -5    0.07    0.18
 -10   0   5    0.02    0.07
 -10   0   5    0.00    0.07
  10   0  -5   -0.02    0.12
  10   0  -5    0.00    0.22
 -10   0   5    0.18    0.15
  10   0  -5    0.02    0.18
 -10   0   5    0.00    0.11
  10   0  -5    0.19    0.18
  10   0  -5    0.13    0.60
 -10   0   5   -0.02    0.09
  10   0  -5   -0.09    0.07
  10   0  -5    0.21    0.15
 -10   0   5    0.03    0.10
  -8   0   5    0.02    0.07
  -8   0   5   -0.03    0.06
  -8   0   5   -0.05    0.09
  -8   0   5    0.09    0.08
  -8   0   5    0.02    0.09
   8   0  -5    0.08    0.12
   8   0  -5    0.01    0.07
  -8   0   5   -0.04    0.09
   8   0  -5    0.01    0.14
   8   0  -5   -0.07    0.17
   8   0  -5    0.34    0.61
   8   0  -5   -0.02    0.16
   8   0  -5   -0.04    0.19
  -6   0   5   -0.07    0.08
  -6   0   5   -0.06    0.07
  -6   0   5   -0.03    0.07
  -6   0   5    0.15    0.09
  -6   0   5    0.26    0.11
  -6   0   5   -0.04    0.05
  -6   0   5   -0.12    0.09
   4   0  -5   -0.04    0.06
  -4   0   5    0.01    0.09
  -4   0   5    0.02    0.07
  -4   0   5    0.06    0.07
  -4   0   5   -0.07    0.05
  -4   0   5    0.04    0.06
  -4   0   5   -0.04    0.09
  -4   0   5   -0.05    0.07
  -4   0   5    0.06    0.06
  -2   0   5    0.04    0.10
  -2   0   5    0.03    0.07
  -2   0   5    0.01    0.07
  -2   0   5    0.05    0.11
  -2   0   5   -0.01    0.07
  -2   0   5    0.01    0.07
  -2   0   5   -0.05    0.08
   2   0  -5   -0.03    0.06
  -2   0   5   -0.06    0.08
   0   0   5   -0.03    0.08
   0   0  -5    0.04    0.07
   0   0   5    0.07    0.10
   0   0   5   -0.08    0.08
   0   0   5   -0.16    0.07
   0   0  -5    0.08    1.33
   0   0   5    0.04    0.07
   0   0   5   -0.03    0.07
   0   0  -5    0.07    0.17
   0   0  -5    0.18    0.17
   0   0   5   -0.07    0.10
  -2   0  -5    0.01    0.07
   2   0   5    0.04    0.08
  -2   0  -5    0.00    0.09
   2   0   5   -0.07    0.06
   2   0   5    0.05    0.09
  -2   0  -5    0.20    0.21
  -2   0  -5    0.26    0.20
   2   0   5   -0.07    0.11
  -2   0  -5    0.35    1.41
  -2   0  -5    0.16    0.23
  -2   0  -5    0.27    0.15
   2   0   5   -0.09    0.08
  -2   0  -5    0.28    0.14
   2   0   5    0.11    0.08
  -4   0  -5    0.22    0.15
  -4   0  -5   -0.06    0.19
  -4   0  -5   -0.15    0.12
   4   0   5   -0.02    0.09
  -4   0  -5   -0.01    0.09
   4   0   5    0.04    0.09
  -4   0  -5    0.00    0.21
   4   0   5   -0.16    0.11
  -4   0  -5   -0.03    0.11
   6   0   5   -0.03    0.11
  -6   0  -5   -0.01    0.19
   6   0   5   -0.08    0.10
  -6   0  -5    0.08    0.23
  -6   0  -5    0.04    0.13
  -6   0  -5    0.04    0.11
   8   0   5   -0.01    0.11
  -8   0  -5    0.16    0.23
  -8   0  -5    0.22    0.15
  -8   0  -5    0.01    0.26
  10   0   5   -0.16    0.13
 -10   0  -5   -0.17    0.20
 -10   0  -5    0.23    0.24
 -12   0  -5   -0.12    0.20
 -12   0  -5    0.46    0.25
  21  -1  -5    2.59    0.24
  21  -1  -5    2.78    0.32
  21   1  -5    1.95    0.27
  21   1  -5    3.30    0.31
  21   1  -5    3.65    0.30
  21   1  -5    2.38    0.39
 -21   1   5    2.16    0.31
  19  -1  -5    2.42    0.30
  19  -1  -5    3.51    0.39
  19  -1  -5    3.56    0.41
  19  -1  -5    2.88    0.54
  19  -1  -5    3.25    0.47
  19   1  -5    3.65    0.39
  19   1  -5    4.20    0.67
  19   1  -5    2.80    0.34
  19   1  -5    3.75    0.42
  19   1  -5    2.59    0.40
  19   1  -5    2.91    0.32
  17  -1  -5    2.11    0.33
  17  -1  -5    2.43    0.55
  17  -1  -5    2.80    0.39
 -17  -1   5    2.29    0.29
  17  -1  -5    2.28    0.43
  17  -1  -5    2.12    0.32
  17  -1  -5    2.40    0.37
  17  -1  -5    1.91    0.35
  17  -1  -5    1.94    0.28
 -17  -1   5    1.64    0.25
 -17  -1   5    1.98    0.28
  17   1  -5    2.61    0.46
  17   1  -5    2.89    0.62
 -17   1   5    2.29    0.31
  17   1  -5    2.53    0.35
  17   1  -5    2.18    0.31
 -17   1   5    2.88    0.29
  17   1  -5    2.68    0.39
  17   1  -5    2.23    0.37
  17   1  -5    2.20    0.30
 -15  -1   5   -0.11    0.12
  15  -1  -5    0.08    0.14
  15  -1  -5    0.19    0.29
 -15  -1   5    0.26    0.14
  15  -1  -5    0.13    0.19
  15  -1  -5    0.25    0.18
 -15  -1   5    0.00    0.12
  15  -1  -5    0.31    0.18
  15  -1  -5    0.06    0.13
  15  -1  -5    0.20    0.19
  15  -1  -5    0.04    0.23
  15   1  -5   -0.10    0.13
  15   1  -5    0.07    0.17
  15   1  -5    0.09    0.24
 -15   1   5   -0.23    0.12
  15   1  -5    0.06    0.21
 -15   1   5    0.01    0.13
  15   1  -5    0.30    0.21
 -15   1   5    0.07    0.13
  15   1  -5   -0.17    0.15
  15   1  -5    0.07    0.13
 -15   1   5    0.09    0.11
  13  -1  -5    5.24    0.62
 -13  -1   5    4.13    0.36
 -13  -1   5    4.08    0.45
  13  -1  -5    4.70    0.48
  13  -1  -5    4.58    0.51
  13  -1  -5    4.35    0.38
  13  -1  -5    4.77    0.47
  13  -1  -5    5.60    0.68
  13  -1  -5    4.33    0.51
 -13  -1   5    4.55    0.41
 -13  -1   5    3.80    0.49
  13  -1  -5    4.75    0.79
 -13  -1   5    4.59    0.39
 -13   1   5    4.27    0.34
  13   1  -5    4.78    0.57
 -13   1   5    4.66    0.41
 -13   1   5    5.05    0.40
  13   1  -5    4.56    0.51
  13   1  -5    4.35    0.47
  13   1  -5    4.87    0.62
  13   1  -5    4.68    0.40
  13   1  -5    4.43    0.45
 -13   1   5    3.95    0.43
 -13   1   5    4.69    0.43
 -13   1   5    4.44    0.48
  13   1  -5    5.46    0.85
  11  -1  -5   11.12    1.94
 -11  -1   5   11.20    0.53
  11  -1  -5   11.20    0.59
 -11  -1   5   10.78    0.59
  11  -1  -5   10.82    0.60
 -11  -1   5   10.73    0.66
  11  -1  -5   11.38    0.74
 -11  -1   5   12.08    0.51
 -11  -1   5   12.40    0.51
  11  -1  -5   11.22    0.74
  11  -1  -5   10.66    0.47
  11  -1  -5   10.99    0.63
 -11  -1   5   11.43    0.62
  11  -1  -5   11.01    0.94
 -11   1   5   11.62    0.62
  11   1  -5   10.86    0.73
 -11   1   5   10.99    0.49
 -11   1   5   11.38    0.63
  11   1  -5   11.02    0.59
  11   1  -5   11.02    0.93
  11   1  -5   11.28    0.50
 -11   1   5   11.20    0.46
  11   1  -5   10.65    0.59
  11   1  -5   11.84    0.75
  11   1  -5   11.09    0.64
  11   1  -5   11.82    1.84
 -11   1   5   11.65    0.55
 -11   1   5   11.38    0.54
 -11   1   5   11.41    0.60
   9  -1  -5    0.92    0.20
  -9  -1   5    0.57    0.17
  -9  -1   5    0.67    0.14
  -9  -1   5    0.56    0.18
   9  -1  -5    0.70    0.14
   9  -1  -5    0.72    0.23
  -9  -1   5    0.80    0.15
   9  -1  -5    0.61    0.21
   9  -1  -5    0.83    0.23
  -9  -1   5    0.82    0.22
   9  -1  -5    0.67    0.72
   9  -1  -5    0.95    0.29
   9  -1  -5    0.98    0.38
  -9  -1   5    0.76    0.16
  -9   1   5    1.05    0.23
  -9   1   5    0.93    0.14
   9   1  -5    1.04    0.41
   9   1  -5    0.62    0.24
  -9   1   5    0.68    0.17
   9   1  -5    0.95    0.24
   9   1  -5    0.77    0.18
   9   1  -5    0.75    0.15
   9   1  -5    0.73    0.27
   9   1  -5    1.17    0.75
  -9   1   5    0.83    0.16
  -9   1   5    0.68    0.18
  -9   1   5    0.79    0.17
  -7  -1   5    4.72    0.30
  -7  -1   5    4.87    0.39
  -7  -1   5    4.84    0.29
  -7  -1   5    4.80    0.43
  -7  -1   5    4.60    0.28
  -7  -1   5    5.07    0.31
  -7  -1   5    4.46    0.40
  -7   1   5    5.05    0.45
  -7   1   5    4.98    0.35
  -7   1   5    4.52    0.33
  -7   1   5    4.55    0.35
  -7   1   5    4.60    0.29
  -7   1   5    4.85    0.26
  -7   1   5    5.04    0.32
   7   1  -5    4.80    0.27
  -5  -1   5    0.21    0.11
  -5  -1   5    0.06    0.08
  -5  -1   5    0.09    0.07
  -5  -1   5    0.11    0.12
  -5  -1   5    0.12    0.11
  -5  -1   5    0.00    0.07
  -5  -1   5    0.16    0.10
  -5   1   5    0.06    0.06
  -5   1   5    0.09    0.08
  -5   1   5    0.11    0.07
  -5   1   5    0.02    0.06
  -5   1   5    0.05    0.08
   5   1  -5    0.10    0.07
  -5   1   5    0.06    0.07
  -5   1   5    0.12    0.10
   3  -1  -5    7.15    0.32
  -3  -1   5    7.43    0.42
  -3  -1   5    6.95    0.38
  -3  -1   5    7.60    0.38
  -3  -1   5    7.24    0.35
  -3  -1   5    7.61    0.39
  -3  -1   5    7.38    0.50
  -3  -1   5    7.12    0.34
  -3  -1   5    6.51    0.33
  -3  -1   5    7.91    0.46
  -3   1   5    7.17    0.38
  -3   1   5    6.98    0.41
   3   1  -5    7.07    0.33
  -3   1   5    7.19    0.33
  -3   1   5    7.55    0.35
  -3   1   5    7.82    0.40
  -3   1   5    7.16    0.35
  -3   1   5    6.98    0.46
  -3   1   5    7.48    0.46
  -3   1   5    7.34    0.39
  -1  -1   5    0.29    0.16
  -1  -1   5    0.35    0.12
  -1  -1   5    0.41    0.15
   1  -1  -5    0.36    0.12
  -1  -1   5    0.39    0.13
  -1  -1   5    0.36    0.11
  -1  -1   5    0.40    0.13
  -1  -1   5    0.43    0.12
  -1  -1   5    0.39    0.12
  -1   1   5    0.33    0.12
  -1   1   5    0.33    0.12
  -1   1   5    0.29    0.12
  -1   1   5    0.42    0.11
  -1   1   5    0.46    0.12
  -1   1   5    0.34    0.15
  -1   1   5    0.27    0.12
   1   1  -5    0.41    0.11
   1  -1   5   40.76    1.14
   1  -1   5   38.59    1.09
   1  -1   5   40.43    1.06
  -1  -1  -5   36.99    1.53
   1  -1   5   38.55    1.22
  -1  -1  -5   38.01    1.71
  -1  -1  -5   36.96    1.51
   1  -1   5   37.34    1.51
   1  -1   5   38.80    0.99
   1  -1   5   36.91    1.17
  -1  -1  -5   40.10    0.97
   1   1   5   40.16    1.09
  -1   1  -5   36.53    1.53
  -1   1  -5   36.43    1.70
  -1   1  -5   35.67    1.51
  -1   1  -5   41.05    5.34
  -1   1  -5   37.85    1.46
  -1   1  -5   38.37    0.97
   1   1   5   39.37    1.12
  -1   1  -5   38.16    1.22
  -1   1  -5   33.78    3.23
  -1   1  -5   33.67    1.79
   1   1   5   37.21    1.47
   1   1   5   37.81    1.23
   1   1   5   40.87    1.08
   1   1   5   40.89    1.02
   3  -1   5    4.17    0.40
  -3  -1  -5    4.05    0.58
  -3  -1  -5    4.06    0.59
   3  -1   5    4.24    0.36
  -3  -1  -5    4.67    0.57
   3  -1   5    4.22    0.37
  -3  -1  -5    0.87    1.61
  -3  -1  -5    4.08    0.39
  -3  -1  -5    4.20    0.33
  -3  -1  -5    3.74    0.37
  -3   1  -5    9.05    3.36
  -3   1  -5    3.94    0.41
   3   1   5    4.48    0.35
   3   1   5    4.32    0.33
  -3   1  -5    4.13    0.38
   3   1   5    4.18    0.41
  -3   1  -5    4.26    0.41
  -3   1  -5    4.10    0.33
   3   1   5    3.57    0.48
   3   1   5    4.22    0.37
  -3   1  -5    4.61    0.62
   3   1   5    3.98    0.35
  -3   1  -5    4.00    0.58
  -3   1  -5    4.16    0.54
  -5  -1  -5   19.17    0.83
  -5  -1  -5   19.52    0.90
   5  -1   5   20.49    0.75
  -5  -1  -5   18.61    1.15
  -5  -1  -5   20.44    1.17
   5  -1   5   20.54    0.75
  -5  -1  -5   20.70    0.67
   5  -1   5   20.54    0.87
   5   1   5   20.42    0.75
  -5   1  -5   20.18    0.86
  -5   1  -5   19.62    1.18
  -5   1  -5   20.16    0.81
   5   1   5   21.09    0.75
  -5   1  -5   20.96    0.69
  -5   1  -5   19.43    0.94
  -5   1  -5   20.23    1.17
   5   1   5   19.60    0.86
  -7  -1  -5    5.66    0.40
  -7  -1  -5    5.93    0.72
   7  -1   5    5.91    0.45
  -7  -1  -5    6.33    0.72
   7   1   5    6.98    0.41
  -7   1  -5    6.66    0.65
  -7   1  -5    4.93    0.65
  -7   1  -5    4.52    0.59
  -7   1  -5    6.73    0.45
  -7   1  -5    6.00    0.44
   9  -1   5   10.23    0.50
  -9  -1  -5   10.91    0.85
  -9  -1  -5   10.20    0.78
  -9   1  -5   10.18    0.50
  -9   1  -5   10.07    0.83
   9   1   5   10.17    0.51
  -9   1  -5   10.50    0.79
  -9   1  -5   11.15    0.84
 -11  -1  -5   -0.02    0.22
 -11  -1  -5    0.29    0.25
 -11   1  -5   -0.13    0.20
  11   1   5    0.20    0.37
 -11   1  -5    0.18    0.23
 -13  -1  -5    0.00    0.20
 -13   1  -5    0.17    0.23
  20  -2  -5    0.48    0.15
  20  -2  -5    0.57    0.22
  20  -2  -5    0.78    0.21
  20  -2  -5    0.86    0.20
  20   2  -5    0.56    0.15
  20   2  -5    0.52    0.20
 -20   2   5    0.26    0.19
  20   2  -5    0.90    0.20
  20   2  -5    0.94    0.21
  20   2  -5    0.57    0.28
  20   2  -5    0.85    0.20
  18  -2  -5    0.33    0.19
  18  -2  -5    0.31    0.23
  18  -2  -5    0.44    0.26
  18  -2  -5    0.08    0.20
  18  -2  -5    0.60    0.35
  18  -2  -5    0.23    0.15
 -18  -2   5   -0.49    0.14
  18  -2  -5    0.21    0.15
 -18   2   5    0.13    0.12
  18   2  -5    0.15    0.17
  18   2  -5    0.25    0.31
  18   2  -5    0.19    0.20
  18   2  -5    0.18    0.23
  18   2  -5    0.18    0.19
 -18   2   5    0.20    0.20
  18   2  -5    0.15    0.15
  18   2  -5    0.29    0.15
 -18   2   5    0.13    0.14
  16  -2  -5    7.67    0.58
  16  -2  -5    7.15    0.44
  16  -2  -5    7.86    0.82
 -16  -2   5    7.20    0.42
  16  -2  -5    7.63    0.51
  16  -2  -5    7.70    0.63
  16  -2  -5    6.72    0.58
  16  -2  -5    7.44    0.55
  16  -2  -5    7.90    0.54
 -16  -2   5    7.61    0.45
 -16  -2   5    7.22    0.45
  16   2  -5    7.48    0.53
 -16   2   5    7.92    0.41
  16   2  -5    7.25    0.53
  16   2  -5    7.34    0.54
 -16   2   5    7.54    0.57
  16   2  -5    7.32    0.61
  16   2  -5    7.47    0.49
 -16   2   5    7.20    0.45
  16   2  -5    7.64    0.79
 -14  -2   5   37.44    1.16
 -14  -2   5   37.49    1.17
  14  -2  -5   39.44    1.32
  14  -2  -5   37.81    1.60
 -14  -2   5   39.33    1.12
  14  -2  -5   38.62    1.63
  14  -2  -5   37.46    1.12
  14  -2  -5   37.99    1.61
  14  -2  -5   35.88    2.04
  14  -2  -5   37.91    1.36
  14  -2  -5   37.74    1.42
  14   2  -5   38.17    1.31
 -14   2   5   39.30    1.09
  14   2  -5   36.70    2.09
 -14   2   5   37.93    1.20
  14   2  -5   37.46    1.33
  14   2  -5   37.76    1.15
  14   2  -5   37.38    1.63
  14   2  -5   38.42    1.58
 -14   2   5   36.93    1.09
  14   2  -5   38.29    1.42
 -14   2   5   38.38    1.20
  12  -2  -5    3.19    0.37
  12  -2  -5    3.01    0.45
  12  -2  -5    3.54    0.51
 -12  -2   5    3.07    0.37
  12  -2  -5    1.90    0.99
  12  -2  -5    3.07    0.64
 -12  -2   5    2.70    0.42
 -12  -2   5    3.36    0.35
 -12  -2   5    2.58    0.35
  12  -2  -5    2.85    0.41
  12  -2  -5    3.13    0.39
 -12  -2   5    3.11    0.31
 -12  -2   5    2.78    0.30
  12  -2  -5    3.31    0.31
  12  -2  -5    2.86    0.40
  12   2  -5    3.03    0.31
  12   2  -5    3.22    0.39
  12   2  -5    2.96    0.45
  12   2  -5    3.21    0.37
  12   2  -5    3.51    0.66
 -12   2   5    2.96    0.26
 -12   2   5    3.01    0.33
 -12   2   5    3.26    0.32
  12   2  -5    3.41    0.44
  12   2  -5    3.44    0.52
 -12   2   5    3.09    0.34
 -12   2   5    2.85    0.36
 -12   2   5    2.86    0.35
  10  -2  -5    6.37    0.69
  10  -2  -5    6.32    0.43
  10  -2  -5    6.64    1.70
  10  -2  -5    6.40    0.54
 -10  -2   5    6.73    0.37
 -10  -2   5    6.78    0.37
 -10  -2   5    6.17    0.50
  10  -2  -5    6.09    0.34
  10  -2  -5    5.49    0.48
  10  -2  -5    6.38    0.54
 -10  -2   5    5.89    0.36
 -10  -2   5    6.57    0.45
  10  -2  -5    6.10    0.47
  10  -2  -5    6.75    0.55
 -10  -2   5    6.29    0.44
 -10   2   5    6.12    0.42
 -10   2   5    6.12    0.35
 -10   2   5    6.14    0.30
 -10   2   5    5.97    0.38
 -10   2   5    6.13    0.38
  10   2  -5    6.28    0.42
 -10   2   5    6.23    0.42
  10   2  -5    6.56    0.55
  10   2  -5    6.32    0.54
  10   2  -5    5.85    0.66
  10   2  -5    6.33    0.36
  10   2  -5    5.67    1.29
  10   2  -5    6.01    0.45
  -8  -2   5    6.31    0.35
   8  -2  -5    5.96    0.50
   8  -2  -5    6.99    0.42
  -8  -2   5    6.71    0.35
   8  -2  -5    6.34    0.50
  -8  -2   5    6.40    0.41
   8  -2  -5    8.91    1.93
   8  -2  -5    6.09    0.45
   8  -2  -5    5.58    0.65
  -8  -2   5    6.40    0.44
  -8  -2   5    6.60    0.37
  -8  -2   5    6.42    0.49
  -8  -2   5    6.56    0.35
   8   2  -5    4.73    1.17
  -8   2   5    6.32    0.29
   8   2  -5    5.65    0.65
  -8   2   5    6.07    0.40
   8   2  -5    6.02    0.48
  -8   2   5    6.35    0.34
  -8   2   5    5.83    0.40
  -8   2   5    6.51    0.37
   8   2  -5    5.52    0.43
  -8   2   5    6.36    0.43
   8   2  -5    6.25    0.33
   8   2  -5    5.99    0.41
   8   2  -5    6.92    0.55
  -6  -2   5    0.05    0.11
  -6  -2   5    0.06    0.10
  -6  -2   5    0.13    0.09
  -6  -2   5    0.07    0.08
  -6  -2   5    0.05    0.09
  -6  -2   5    0.06    0.09
  -6  -2   5    0.10    0.08
  -6   2   5    0.02    0.08
  -6   2   5    0.03    0.05
  -6   2   5    0.13    0.12
   6   2  -5    0.13    0.08
  -6   2   5    0.11    0.09
  -6   2   5    0.09    0.09
   6   2  -5    0.06    0.08
  -6   2   5    0.03    0.06
  -6   2   5    0.20    0.10
  -4  -2   5   10.28    0.50
  -4  -2   5   10.41    0.43
  -4  -2   5   10.40    0.55
  -4  -2   5   10.71    0.45
  -4  -2   5   10.61    0.47
  -4  -2   5   10.54    0.46
  -4  -2   5    9.94    0.61
   4  -2  -5   10.20    0.39
  -4   2   5   10.85    0.56
  -4   2   5   10.58    0.46
  -4   2   5   10.42    0.39
  -4   2   5   10.78    0.47
  -4   2   5   10.01    0.41
  -4   2   5   10.00    0.51
  -4   2   5    9.62    0.47
   4   2  -5   10.98    0.41
  -4   2   5   10.48    0.44
  -2  -2   5    9.20    0.46
   2  -2  -5   10.08    0.39
  -2  -2   5    9.78    0.53
  -2  -2   5    9.94    0.46
  -2  -2   5    9.31    0.41
  -2  -2   5   10.04    0.62
  -2  -2   5    9.46    0.46
  -2  -2   5    9.07    0.42
  -2  -2   5    9.95    0.41
  -2   2   5    9.75    0.40
  -2   2   5   10.33    0.43
  -2   2   5    9.60    0.55
  -2   2   5    9.64    0.45
  -2   2   5    9.98    0.46
  -2   2   5    9.21    0.49
   2   2  -5   10.45    0.42
  -2   2   5   10.23    0.43
   0  -2   5    3.39    0.31
   0  -2  -5    3.98    0.37
   0  -2  -5    4.40    0.56
   0  -2   5    3.77    0.45
   0  -2   5    4.17    0.28
   0  -2   5    4.26    0.42
   0  -2   5    3.77    0.35
   0  -2  -5    4.39    0.53
   0  -2   5    4.32    0.34
   0  -2   5    4.16    0.30
   0  -2  -5    4.39    0.31
   0  -2   5    3.64    0.34
   0   2  -5    4.00    0.50
   0   2  -5    4.09    0.32
   0   2  -5    2.37    0.76
   0   2  -5   11.04    3.31
   0   2  -5    4.15    0.56
   0   2   5    4.01    0.38
   0   2  -5    4.61    0.60
   0   2   5    3.92    0.33
   0   2  -5    4.24    0.40
   0   2   5    3.92    0.42
   0   2   5    3.94    0.26
   0   2   5    3.87    0.31
   0   2   5    4.58    0.38
   0   2  -5    4.75    0.52
   2  -2   5    2.15    0.30
  -2  -2  -5    2.57    0.25
  -2  -2  -5    2.24    0.28
  -2  -2  -5    3.03    0.47
  -2  -2  -5    0.47    1.58
   2  -2   5    3.02    0.32
  -2  -2  -5    2.45    0.44
   2  -2   5    2.52    0.27
  -2  -2  -5    2.85    0.48
  -2  -2  -5    2.66    0.35
  -2   2  -5    3.28    0.52
  -2   2  -5    3.09    0.42
   2   2   5    2.67    0.38
   2   2   5    2.68    0.29
   2   2   5    2.75    0.26
   2   2   5    2.64    0.26
  -2   2  -5    2.55    0.32
  -2   2  -5    2.88    0.34
  -2   2  -5    7.79    3.24
  -2   2  -5    3.02    0.46
  -2   2  -5    2.70    0.27
   2   2   5    2.77    0.33
  -2   2  -5    2.90    0.38
  -2   2  -5    2.10    0.43
  -2   2  -5    2.68    0.47
   2   2   5    2.67    0.30
  -4  -2  -5   14.89    0.54
   4  -2   5   15.80    0.62
  -4  -2  -5   13.96    0.73
  -4  -2  -5   14.39    0.97
   4  -2   5   16.61    0.74
  -4  -2  -5   16.21    1.00
  -4  -2  -5   14.83    0.69
   4  -2   5   16.39    0.65
  -4   2  -5   15.19    0.72
   4   2   5   15.38    0.73
   4   2   5   15.87    0.62
  -4   2  -5   15.15    0.80
   4   2   5   16.43    0.64
  -4   2  -5   16.40    0.59
   4   2   5   15.71    0.64
  -4   2  -5   15.61    1.00
  -4   2  -5   15.66    3.29
   4   2   5   15.29    0.57
  -4   2  -5   15.39    0.69
  -4   2  -5   14.66    0.99
  -4   2  -5   15.83    1.06
  -6  -2  -5   -0.13    0.10
   6  -2   5    0.09    0.11
  -6  -2  -5    0.08    0.24
   6  -2   5    0.00    0.11
  -6  -2  -5    0.01    0.21
  -6   2  -5    0.02    0.23
  -6   2  -5    0.12    0.25
   6   2   5    0.08    0.12
   6   2   5   -0.02    0.10
  -6   2  -5    0.11    0.11
  -6   2  -5   -0.12    0.12
  -6   2  -5    0.12    0.21
  -6   2  -5   -0.04    0.13
  -8  -2  -5    4.33    0.56
   8  -2   5    5.16    0.42
  -8  -2  -5    5.60    0.73
  -8   2  -5    4.88    0.39
   8   2   5    5.33    0.43
  -8   2  -5    5.72    0.72
  -8   2  -5    3.50    0.54
  -8   2  -5    5.12    0.64
  10  -2   5    0.48    0.16
 -10  -2  -5    0.90    0.31
  10   2   5    0.54    0.18
 -10   2  -5    0.52    0.18
 -10   2  -5    0.83    0.31
 -10   2  -5    0.77    0.29
 -12  -2  -5    0.22    0.23
 -12  -2  -5    0.52    0.24
 -12   2  -5    0.19    0.25
 -12   2  -5    0.08    0.21
  12   2   5    0.15    0.36
  19  -3  -5    0.78    0.24
  19  -3  -5    1.17    0.29
  19  -3  -5    1.36    0.25
  19  -3  -5    0.78    0.19
  19  -3  -5    1.09    0.23
  19   3  -5    0.81    0.20
  19   3  -5    0.95    0.24
 -19   3   5    0.87    0.25
  19   3  -5    0.87    0.19
  19   3  -5    0.89    0.26
  19   3  -5    1.71    0.42
  19   3  -5    0.94    0.24
  17  -3  -5    0.41    0.16
 -17  -3   5    0.09    0.16
  17  -3  -5    0.26    0.21
  17  -3  -5    0.62    0.20
  17  -3  -5    0.08    0.22
 -17  -3   5   -0.04    0.16
  17  -3  -5    0.55    0.29
  17  -3  -5    0.24    0.17
  17   3  -5    0.37    0.32
  17   3  -5    0.45    0.19
  17   3  -5    0.29    0.24
 -17   3   5    0.44    0.18
 -17   3   5    0.51    0.14
  17   3  -5    0.45    0.21
  17   3  -5    0.12    0.18
 -17   3   5    0.42    0.15
  17   3  -5    0.43    0.17
 -17   3   5    0.48    0.22
  15  -3  -5   23.30    0.81
 -15  -3   5   24.31    0.83
  15  -3  -5   23.37    1.05
  15  -3  -5   23.54    0.95
  15  -3  -5   23.19    1.15
 -15  -3   5   21.32    0.82
 -15  -3   5   22.41    0.85
  15  -3  -5   24.18    1.14
  15  -3  -5   22.47    1.46
  15  -3  -5   24.29    1.19
  15   3  -5   23.58    0.85
  15   3  -5   22.45    1.17
 -15   3   5   23.29    0.88
  15   3  -5   23.74    1.03
  15   3  -5   22.16    1.49
  15   3  -5   23.39    0.96
 -15   3   5   23.97    0.88
  15   3  -5   23.72    0.94
 -15   3   5   23.69    1.28
 -15   3   5   22.45    0.76
 -13  -3   5    1.16    0.21
 -13  -3   5    0.96    0.22
  13  -3  -5    1.07    0.25
  13  -3  -5    1.33    0.29
 -13  -3   5    1.19    0.22
  13  -3  -5    1.25    0.32
  13  -3  -5    0.01    0.73
 -13  -3   5    1.31    0.28
  13  -3  -5    1.15    0.33
  13  -3  -5    1.38    0.30
  13  -3  -5    2.06    0.54
  13  -3  -5    1.20    0.20
 -13   3   5    1.40    0.18
 -13   3   5    1.36    0.33
  13   3  -5    1.50    0.47
  13   3  -5    1.47    0.36
  13   3  -5    1.38    0.25
 -13   3   5    1.11    0.22
  13   3  -5    1.23    0.28
  13   3  -5    1.42    0.23
  13   3  -5    1.29    0.27
 -13   3   5    1.22    0.23
 -13   3   5    1.31    0.21
 -11  -3   5   36.68    1.26
 -11  -3   5   32.80    1.46
  11  -3  -5   33.61    1.89
  11  -3  -5   36.79    1.51
  11  -3  -5   25.76    3.41
 -11  -3   5   35.17    1.06
  11  -3  -5   36.22    1.21
  11  -3  -5   34.95    1.31
  11  -3  -5   32.99    1.45
  11  -3  -5   33.95    0.98
 -11  -3   5   35.56    1.24
  11  -3  -5   34.07    1.47
 -11  -3   5   36.96    1.04
  11   3  -5   34.23    1.92
  11   3  -5   36.09    1.05
 -11   3   5   35.79    1.60
  11   3  -5   32.91    1.26
  11   3  -5   34.05    1.19
 -11   3   5   35.57    0.94
 -11   3   5   33.96    1.26
  11   3  -5   34.95    1.49
  11   3  -5   33.41    1.48
 -11   3   5   34.30    1.20
 -11   3   5   36.88    1.11
 -11   3   5   35.98    1.09
 -11   3   5   36.54    1.01
   9  -3  -5    1.16    0.23
   9  -3  -5    0.99    0.28
   9  -3  -5    0.77    0.22
  -9  -3   5    0.73    0.16
  -9  -3   5    0.94    0.18
  -9  -3   5    0.92    0.22
  -9  -3   5    0.59    0.14
   9  -3  -5    1.03    0.25
   9  -3  -5   -0.45    1.69
  -9  -3   5    0.76    0.19
   9  -3  -5    0.74    0.69
  -9  -3   5    0.75    0.24
   9  -3  -5    0.72    0.24
   9  -3  -5    1.08    0.40
   9   3  -5    0.77    0.35
  -9   3   5    0.75    0.17
   9   3  -5    0.82    0.16
  -9   3   5    0.85    0.28
   9   3  -5    0.79    0.25
   9   3  -5    0.71    0.24
  -9   3   5    0.64    0.11
   9   3  -5    0.75    0.19
   9   3  -5    0.95    0.28
  -9   3   5    0.78    0.17
  -9   3   5    0.70    0.18
  -9   3   5    0.71    0.15
   9   3  -5    0.36    0.52
  -9   3   5    0.70    0.17
  -7  -3   5    7.55    0.39
  -7  -3   5    6.92    0.51
   7  -3  -5    6.31    0.49
  -7  -3   5    6.95    0.36
   7  -3  -5    6.29    0.44
  -7  -3   5    7.26    0.37
   7  -3  -5    6.74    0.67
   7  -3  -5    3.63    1.36
  -7  -3   5    7.45    0.44
  -7  -3   5    7.31    0.46
  -7  -3   5    6.99    0.38
   7  -3  -5    6.77    0.44
   7  -3  -5    7.80    0.57
  -7   3   5    7.08    0.36
  -7   3   5    7.26    0.36
   7   3  -5    7.31    0.54
   7   3  -5    7.18    0.44
   7   3  -5    6.32    0.51
   7   3  -5    8.17    1.39
   7   3  -5    7.03    0.36
   7   3  -5    7.13    0.33
  -7   3   5    7.05    0.41
   7   3  -5    5.85    0.65
  -7   3   5    7.09    0.29
  -7   3   5    6.52    0.42
  -7   3   5    7.32    0.39
  -5  -3   5   -0.14    0.10
  -5  -3   5    0.04    0.09
   5  -3  -5    0.34    1.22
  -5  -3   5    0.00    0.08
  -5  -3   5    0.13    0.11
  -5  -3   5    0.03    0.08
   5  -3  -5   -0.12    0.40
  -5  -3   5    0.06    0.07
  -5  -3   5    0.13    0.10
  -5   3   5    0.00    0.05
  -5   3   5    0.09    0.08
   5   3  -5    0.05    0.51
  -5   3   5   -0.01    0.08
   5   3  -5    0.03    0.08
   5   3  -5    0.11    0.08
   5   3  -5   -0.18    0.09
   5   3  -5    0.13    0.10
  -5   3   5    0.11    0.06
  -5   3   5    0.00    0.07
  -5   3   5    0.01    0.09
   5   3  -5   -0.04    0.15
  -3  -3   5    0.12    0.10
   3  -3  -5    0.09    0.14
   3  -3  -5    0.00    1.27
  -3  -3   5    0.13    0.10
  -3  -3   5    0.10    0.09
  -3  -3   5    0.06    0.11
  -3  -3   5    0.07    0.11
  -3  -3   5    0.07    0.09
   3  -3  -5    0.17    0.09
  -3  -3   5    0.15    0.09
  -3  -3   5    0.04    0.09
  -3   3   5    0.04    0.09
  -3   3   5    0.14    0.08
  -3   3   5    0.11    0.09
  -3   3   5    0.08    0.08
   3   3  -5    0.15    1.59
  -3   3   5    0.18    0.10
  -3   3   5    0.13    0.10
   3   3  -5   -0.01    0.45
   3   3  -5    0.11    0.16
   3   3  -5    0.11    0.13
  -3   3   5    0.14    0.07
   3   3  -5    0.16    0.09
  -3   3   5    0.09    0.08
   1  -3  -5    6.00    0.67
  -1  -3   5    5.73    0.40
  -1  -3   5    4.72    0.31
   1  -3  -5    5.21    0.29
  -1  -3   5    5.72    0.35
  -1  -3   5    5.09    0.34
   1  -3  -5    4.87    0.57
   1  -3  -5    4.82    0.41
  -1  -3   5    4.88    0.34
  -1  -3   5    5.34    0.31
  -1  -3   5    5.39    0.29
   1   3  -5    5.29    0.38
   1   3  -5    8.83    2.51
   1   3  -5    5.55    0.30
  -1   3   5    5.41    0.33
   1   3  -5    5.70    0.60
  -1   3   5    5.36    0.31
  -1   3   5    5.81    0.42
  -1   3   5    5.77    0.33
   1   3  -5    5.72    0.67
   1   3  -5    3.09    0.84
  -1   3   5    5.45    0.38
   1   3  -5    6.05    0.69
   1   3  -5    5.60    0.46
  -1   3   5    5.23    0.29
   1  -3   5    0.47    0.17
   1  -3   5    0.28    0.11
  -1  -3  -5    0.48    0.17
   1  -3   5    0.37    0.12
  -1  -3  -5    0.52    0.24
  -1  -3  -5    0.38    0.25
  -1  -3  -5   -0.49    1.22
   1  -3   5    0.36    0.14
  -1  -3  -5    0.49    0.12
  -1   3  -5    0.57    0.56
   1   3   5    0.44    0.14
  -1   3  -5    0.39    0.15
   1   3   5    0.44    0.11
   1   3   5    0.33    0.13
  -1   3  -5    1.04    1.66
   1   3   5    0.46    0.12
  -1   3  -5    0.27    0.23
   1   3   5    0.42    0.17
  -1   3  -5    0.04    0.23
  -1   3  -5    0.42    0.16
  -1   3  -5    0.18    0.24
  -1   3  -5    0.69    0.23
  -1   3  -5    0.49    0.13
  -1   3  -5    0.52    0.23
   1   3   5    0.23    0.12
  -3  -3  -5   -0.39    1.53
   3  -3   5    0.61    0.17
   3  -3   5    0.68    0.15
   3  -3   5    0.46    0.16
  -3  -3  -5    0.62    0.27
  -3  -3  -5    0.64    0.15
  -3  -3  -5    0.46    0.17
  -3  -3  -5    0.34    0.24
  -3   3  -5    0.70    0.16
  -3   3  -5    0.67    0.19
  -3   3  -5    1.75    1.93
  -3   3  -5    0.52    0.19
   3   3   5    0.68    0.17
  -3   3  -5    0.66    0.26
  -3   3  -5    0.36    0.20
   3   3   5    0.74    0.16
  -3   3  -5    0.60    0.18
  -3   3  -5    0.74    0.16
   3   3   5    0.54    0.22
   3   3   5    0.71    0.17
  -3   3  -5    0.80    0.30
   3   3   5    0.60    0.15
  -3   3  -5    0.73    0.28
  -3   3  -5    0.42    0.28
  -5  -3  -5    2.54    0.49
   5  -3   5    3.01    0.33
   5  -3   5    3.00    0.32
  -5  -3  -5    3.12    0.50
  -5   3  -5    6.40    2.88
   5   3   5    2.65    0.28
   5   3   5    2.83    0.31
   5   3   5    3.24    0.34
  -5   3  -5    2.81    0.41
  -5   3  -5    2.84    0.35
  -5   3  -5    3.33    0.53
  -5   3  -5    2.54    0.47
  -5   3  -5    2.74    0.30
  -5   3  -5    2.78    0.51
  -5   3  -5    2.48    0.36
  -7  -3  -5    3.26    0.55
  -7  -3  -5    3.92    0.58
   7  -3   5    2.89    0.32
  -7   3  -5    3.28    0.54
  -7   3  -5    3.27    0.39
  -7   3  -5    3.81    0.57
   7   3   5    2.52    0.29
  -7   3  -5    2.89    0.50
   7   3   5    3.24    0.34
  -7   3  -5    4.04    0.36
  -9  -3  -5    2.02    0.39
  -9  -3  -5    2.36    0.46
   9  -3   5    2.08    0.27
  -9   3  -5    2.42    0.43
  -9   3  -5    2.19    0.44
  -9   3  -5    2.66    0.50
   9   3   5    2.27    0.28
  -9   3  -5    2.34    0.29
 -11  -3  -5    0.35    0.26
 -11   3  -5    0.10    0.24
 -11   3  -5    0.14    0.23
  11   3   5   -0.09    0.30
 -13  -3  -5    0.68    0.25
 -13   3  -5    0.42    0.25
  20  -4  -5    0.51    0.14
  20   4  -5    0.70    0.16
  20   4  -5    0.66    0.30
 -20   4   5    0.20    0.16
  20   4  -5    0.67    0.18
  20   4  -5    0.55    0.19
  20   4  -5    0.44    0.18
  18  -4  -5    0.98    0.23
  18  -4  -5    1.12    0.22
  18  -4  -5    0.74    0.24
  18  -4  -5    1.11    0.24
  18   4  -5    0.93    0.36
 -18   4   5    0.96    0.28
  18   4  -5    0.85    0.24
  18   4  -5    1.06    0.28
  18   4  -5    0.74    0.24
 -16  -4   5    2.48    0.29
  16  -4  -5    2.58    0.29
  16  -4  -5    2.60    0.37
  16  -4  -5    2.39    0.36
  16  -4  -5    1.93    0.37
  16  -4  -5    0.44    0.80
  16  -4  -5    2.26    0.31
  16   4  -5    1.99    0.29
 -16   4   5    2.77    0.34
  16   4  -5    2.33    0.34
  16   4  -5    2.29    0.42
 -16   4   5    1.79    0.29
  16   4  -5    1.95    0.33
 -16   4   5    2.22    0.41
  16   4  -5    2.67    0.61
  16   4  -5    2.23    0.30
 -16   4   5    2.14    0.24
  14  -4  -5   11.25    0.52
  14  -4  -5   12.43    0.65
  14  -4  -5   12.14    0.80
 -14  -4   5   13.15    0.57
 -14  -4   5   11.45    0.58
  14  -4  -5   12.60    0.74
 -14  -4   5   11.69    0.55
  14  -4  -5   11.80    0.69
 -14   4   5   11.93    0.48
 -14   4   5   11.81    0.58
  14   4  -5   12.07    0.68
  14   4  -5   11.50    1.00
 -14   4   5   11.58    0.58
  14   4  -5   12.30    0.81
  14   4  -5   12.95    0.59
  14   4  -5   12.68    0.66
  14   4  -5   12.16    0.62
 -14   4   5   12.79    0.88
  12  -4  -5    3.13    0.38
 -12  -4   5    3.12    0.32
  12  -4  -5    3.24    0.48
 -12  -4   5    2.93    0.39
  12  -4  -5    3.49    0.44
  12  -4  -5    2.66    0.28
 -12  -4   5    3.29    0.33
  12  -4  -5    3.49    0.45
 -12  -4   5    2.76    0.30
  12  -4  -5    0.71    0.90
  12  -4  -5    3.97    0.73
 -12   4   5    3.24    0.32
 -12   4   5    2.85    0.23
  12   4  -5    3.76    0.69
 -12   4   5    3.33    0.35
  12   4  -5    3.37    0.37
  12   4  -5    3.84    0.54
 -12   4   5    3.33    0.35
  12   4  -5    3.43    0.42
 -12   4   5    3.33    0.52
  12   4  -5    3.06    0.33
 -10  -4   5    5.82    0.52
  10  -4  -5    6.37    0.58
  10  -4  -5    3.60    1.51
 -10  -4   5    5.08    0.48
  10  -4  -5    5.64    0.49
 -10  -4   5    5.58    0.36
  10  -4  -5    7.11    0.92
 -10  -4   5    5.31    0.61
  10  -4  -5    6.59    0.68
 -10  -4   5    5.25    0.40
  10  -4  -5    5.44    0.46
 -10  -4   5    5.70    0.35
  10   4  -5    5.80    0.36
  10   4  -5    5.94    0.42
 -10   4   5    6.56    0.39
 -10   4   5    5.82    0.41
  10   4  -5    6.81    0.91
 -10   4   5    6.36    0.68
  10   4  -5    6.11    0.54
  10   4  -5    6.32    0.66
  10   4  -5    6.09    0.52
 -10   4   5    5.53    0.36
 -10   4   5    5.71    0.26
 -10   4   5    5.63    0.50
 -10   4   5    5.91    0.44
   8  -4  -5    1.24    0.27
   8  -4  -5    1.43    0.30
   8  -4  -5    0.99    0.24
  -8  -4   5    0.93    0.26
   8  -4  -5    1.08    0.39
  -8  -4   5    1.28    0.20
   8  -4  -5    0.42    1.53
  -8  -4   5    1.21    0.20
  -8  -4   5    1.15    0.24
  -8  -4   5    1.04    0.18
  -8  -4   5    1.26    0.23
  -8  -4   5    1.06    0.20
   8  -4  -5    2.04    1.12
  -8   4   5    1.27    0.19
  -8   4   5    1.26    0.21
   8   4  -5    1.27    0.41
  -8   4   5    1.41    0.20
  -8   4   5    1.23    0.21
   8   4  -5    1.60    0.31
  -8   4   5    1.36    0.24
   8   4  -5    1.28    0.24
   8   4  -5    1.03    0.15
   8   4  -5    1.24    0.20
   8   4  -5    1.36    0.31
  -8   4   5    1.27    0.13
  -8   4   5    1.13    0.30
   8   4  -5    0.89    0.65
  -6  -4   5    6.39    0.41
  -6  -4   5    6.31    0.35
  -6  -4   5    6.29    0.36
   6  -4  -5    5.79    0.63
  -6  -4   5    6.66    0.45
  -6  -4   5    6.22    0.36
  -6  -4   5    5.42    0.49
   6  -4  -5    6.19    0.51
  -6  -4   5    6.14    0.33
   6  -4  -5    5.78    0.45
   6  -4  -5   10.79    2.36
   6   4  -5    6.99    0.53
   6   4  -5    7.41    1.32
   6   4  -5    5.69    0.40
  -6   4   5    5.86    0.40
   6   4  -5    5.31    0.61
   6   4  -5    6.59    0.32
  -6   4   5    6.12    0.26
   6   4  -5    5.31    0.47
  -6   4   5    6.08    0.35
  -6   4   5    6.36    0.37
   6   4  -5    6.02    0.34
   6   4  -5   14.69    3.72
  -6   4   5    6.23    0.37
  -6   4   5    6.55    0.34
  -4  -4   5   11.08    0.54
   4  -4  -5   10.73    0.87
  -4  -4   5   11.72    0.50
  -4  -4   5   11.68    0.46
   4  -4  -5   11.03    2.34
   4  -4  -5   12.20    0.43
   4  -4  -5   10.55    0.63
  -4  -4   5   12.68    0.62
  -4  -4   5   12.70    0.53
   4   4  -5   11.30    0.47
  -4   4   5   12.24    0.52
  -4   4   5   12.21    0.52
  -4   4   5   11.52    0.41
   4   4  -5   12.73    1.70
  -4   4   5   11.80    0.58
   4   4  -5   12.41    0.46
   4   4  -5   10.58    0.68
  -4   4   5   11.30    0.56
   4   4  -5   11.45    0.58
  -4   4   5   11.08    0.54
  -4   4   5   12.13    0.49
   4   4  -5   12.77    0.76
  -2  -4   5    0.23    0.09
   2  -4  -5    0.15    0.70
   2  -4  -5    0.08    0.23
   2  -4  -5    0.20    0.16
   2  -4  -5    0.65    1.25
  -2  -4   5    0.18    0.13
  -2  -4   5   -0.01    0.09
  -2  -4   5    0.18    0.11
   2  -4  -5    0.13    0.21
  -2  -4   5    0.08    0.09
  -2  -4   5    0.06    0.08
   2  -4  -5    0.05    0.09
   2   4  -5   -0.41    1.46
  -2   4   5    0.07    0.09
   2   4  -5    0.09    0.09
  -2   4   5    0.20    0.08
   2   4  -5    0.30    0.53
  -2   4   5    0.13    0.11
  -2   4   5    0.26    0.11
  -2   4   5    0.19    0.09
  -2   4   5    0.17    0.11
   2   4  -5    0.16    0.14
   2   4  -5    0.10    0.14
   2   4  -5    0.00    0.22
   2   4  -5    0.07    0.21
   2   4  -5   -0.08    0.16
   0  -4  -5    1.08    0.23
   0  -4   5    1.28    0.19
   0  -4   5    1.20    0.21
   0  -4  -5   -0.20    1.11
   0  -4  -5    1.21    0.34
   0  -4   5    1.22    0.24
   0  -4  -5    1.23    0.18
   0  -4   5    0.93    0.18
   0   4  -5    1.11    0.23
   0   4  -5    1.18    0.33
   0   4  -5    0.89    0.64
   0   4  -5    1.26    0.31
   0   4   5    1.24    0.21
   0   4  -5    1.09    0.17
   0   4   5    0.97    0.22
   0   4  -5    1.22    0.35
   0   4   5    1.24    0.17
   0   4  -5    3.34    2.25
   0   4   5    0.99    0.17
   0   4   5    0.84    0.19
   0   4  -5    0.95    0.32
   0   4  -5    1.33    0.29
   0   4   5    1.21    0.20
  -2  -4  -5    0.20    0.24
   2  -4   5    0.32    0.12
  -2  -4  -5   -0.19    1.62
  -2  -4  -5    0.45    0.27
   2  -4   5    0.22    0.14
   2  -4   5    0.09    0.12
  -2   4  -5    0.39    0.21
   2   4   5    0.17    0.10
   2   4   5    0.28    0.14
   2   4   5    0.12    0.11
   2   4   5    0.12    0.12
  -2   4  -5    0.18    0.23
  -2   4  -5    0.57    0.17
   2   4   5    0.16    0.12
  -2   4  -5    0.68    1.69
  -2   4  -5    0.24    0.14
  -2   4  -5    0.34    0.24
  -2   4  -5    0.33    0.17
  -2   4  -5    0.36    0.12
   2   4   5    0.07    0.14
  -2   4  -5    0.27    0.17
  -2   4  -5    0.03    0.21
   4  -4   5    0.41    0.18
   4  -4   5    0.43    0.15
  -4  -4  -5    0.56    0.27
  -4  -4  -5    0.78    0.31
   4  -4   5    0.48    0.18
  -4   4  -5    0.31    0.15
  -4   4  -5    0.61    0.28
  -4   4  -5    0.47    0.14
  -4   4  -5    1.43    1.77
  -4   4  -5    0.47    0.26
  -4   4  -5    0.41    0.18
   4   4   5    0.49    0.15
   4   4   5    0.60    0.15
  -4   4  -5    0.49    0.19
   4   4   5    0.03    0.18
   4   4   5    0.59    0.17
   4   4   5    0.45    0.15
  -4   4  -5    0.75    0.23
  -4   4  -5    0.69    0.19
   4   4   5    0.40    0.18
  -4   4  -5    0.51    0.25
   6  -4   5    2.62    0.30
  -6  -4  -5    2.90    0.51
   6  -4   5    2.74    0.32
  -6  -4  -5    3.06    0.50
  -6   4  -5    3.02    0.32
   6   4   5    2.95    0.32
  -6   4  -5    2.27    0.28
   6   4   5    3.11    0.33
  -6   4  -5    2.59    0.36
  -6   4  -5    3.22    0.54
  -6   4  -5    3.06    0.35
  -6   4  -5    3.12    0.42
  -6   4  -5    2.52    0.47
   6   4   5    2.74    0.30
  -6   4  -5    3.29    0.55
  -8  -4  -5    2.73    0.48
  -8  -4  -5    2.90    0.52
   8  -4   5    2.50    0.30
  -8   4  -5    2.85    0.34
  -8   4  -5    3.32    0.56
  -8   4  -5    2.88    0.32
  -8   4  -5    2.52    0.44
   8   4   5    2.89    0.32
  -8   4  -5    1.29    0.35
 -10  -4  -5    3.35    0.52
 -10   4  -5    3.46    0.53
 -10   4  -5    1.73    0.36
 -12  -4  -5    0.27    0.21
 -12  -4  -5    0.04    0.22
  12   4   5    0.20    0.31
 -12   4  -5    0.52    0.27
  19  -5  -5    1.51    0.27
  19  -5  -5    1.43    0.23
  19   5  -5    1.72    0.28
 -19   5   5    1.34    0.28
  19   5  -5    1.88    0.26
  19   5  -5    2.04    0.45
  19   5  -5    1.36    0.27
  17  -5  -5    0.17    0.66
  17  -5  -5    1.66    0.31
  17  -5  -5    0.96    0.21
  17  -5  -5    1.30    0.24
  17  -5  -5    0.79    0.24
 -17  -5   5    1.18    0.22
 -17   5   5    1.08    0.22
 -17   5   5    1.40    0.34
  17   5  -5    1.66    0.28
 -17   5   5    1.19    0.18
  17   5  -5    1.63    0.26
  17   5  -5    1.46    0.28
  17   5  -5    1.51    0.33
  17   5  -5    1.65    0.46
 -15  -5   5   10.20    0.51
  15  -5  -5    9.19    0.48
  15  -5  -5   10.32    0.64
  15  -5  -5   10.04    0.57
  15  -5  -5   10.76    0.64
  15  -5  -5    9.28    0.68
  15   5  -5    9.70    0.58
  15   5  -5    8.75    0.54
 -15   5   5   10.02    0.53
  15   5  -5    9.95    0.90
 -15   5   5   10.00    0.42
  15   5  -5   10.28    0.61
  15   5  -5   10.43    0.70
 -15   5   5   10.53    0.54
 -15   5   5   11.00    0.81
  15   5  -5   11.28    0.56
  13  -5  -5    1.02    0.26
  13  -5  -5    0.82    0.19
  13  -5  -5    0.36    0.79
  13  -5  -5    0.98    0.27
 -13  -5   5    0.81    0.23
 -13  -5   5    0.92    0.19
  13  -5  -5    0.57    0.19
  13  -5  -5    0.85    0.27
 -13   5   5    0.88    0.14
 -13   5   5    1.00    0.20
  13   5  -5    0.89    0.37
  13   5  -5    0.70    0.22
 -13   5   5    0.75    0.20
  13   5  -5    1.02    0.24
  13   5  -5    0.70    0.28
  13   5  -5    0.99    0.21
 -13   5   5    0.69    0.29
 -11  -5   5    0.10    0.12
  11  -5  -5    0.16    0.17
  11  -5  -5   -0.06    0.60
  11  -5  -5    0.13    0.19
 -11  -5   5    0.16    0.16
  11  -5  -5    0.57    0.21
  11  -5  -5    0.38    0.19
 -11   5   5    0.12    0.12
  11   5  -5    0.32    0.21
  11   5  -5    0.13    0.11
 -11   5   5    0.19    0.13
  11   5  -5    0.32    0.31
  11   5  -5    0.25    0.17
 -11   5   5    0.08    0.19
 -11   5   5    0.25    0.12
 -11   5   5    0.22    0.13
  11   5  -5    0.29    0.19
  11   5  -5    0.21    0.13
  -9  -5   5    4.64    0.45
   9  -5  -5    3.83    1.57
   9  -5  -5    5.26    0.58
   9  -5  -5    4.99    0.43
  -9  -5   5    4.63    0.38
  -9  -5   5    5.05    0.39
   9  -5  -5    4.80    0.50
  -9  -5   5    5.34    0.50
   9  -5  -5    6.01    0.81
  -9   5   5    4.96    0.39
  -9   5   5    4.61    0.44
   9   5  -5    5.81    0.61
   9   5  -5    5.53    0.78
  -9   5   5    5.94    0.66
   9   5  -5    5.13    0.34
  -9   5   5    5.82    0.44
  -9   5   5    5.61    0.40
   9   5  -5    4.90    0.44
   9   5  -5    5.31    0.60
   9   5  -5    3.83    1.04
  -9   5   5    4.56    0.29
   9   5  -5    5.46    0.42
  -7  -5   5   11.52    0.62
  -7  -5   5   11.20    0.50
   7  -5  -5   11.03    0.70
   7  -5  -5   15.36    2.98
   7  -5  -5   10.08    0.62
  -7  -5   5   11.59    0.48
  -7  -5   5   10.35    0.56
   7   5  -5   12.00    1.70
  -7   5   5   11.85    0.52
   7   5  -5   11.63    0.73
   7   5  -5    9.13    0.83
   7   5  -5   11.44    0.44
  -7   5   5   10.80    0.49
   7   5  -5    9.30    0.64
   7   5  -5   10.32    0.56
  -7   5   5   10.52    0.48
  -7   5   5   10.68    0.57
  -7   5   5   11.19    0.48
   7   5  -5   11.07    0.50
  -7   5   5   10.81    0.75
   5  -5  -5   11.31    0.66
   5  -5  -5   10.71    0.90
  -5  -5   5   13.07    0.50
   5  -5  -5   13.19    2.08
   5  -5  -5   13.38    0.77
  -5  -5   5   12.91    0.66
  -5  -5   5   12.12    0.59
   5   5  -5   12.43    0.62
  -5   5   5   13.23    0.55
   5   5  -5   12.61    0.48
   5   5  -5   11.59    0.51
   5   5  -5   11.22    0.72
  -5   5   5   12.29    0.56
  -5   5   5   13.29    0.63
  -5   5   5   12.53    0.41
  -5   5   5   12.41    0.51
   5   5  -5   13.15    0.77
  -5   5   5   13.39    0.55
   5   5  -5   14.37    1.86
  -3  -5   5   11.36    0.60
   3  -5  -5   11.28    0.83
  -3  -5   5   11.00    0.44
   3  -5  -5   11.09    0.62
   3  -5  -5    9.83    0.87
  -3  -5   5   11.21    0.46
  -3   5   5   11.32    0.41
  -3   5   5   11.57    0.48
   3   5  -5    9.32    0.63
   3   5  -5   11.44    0.70
   3   5  -5   10.20    0.76
   3   5  -5   11.19    0.79
   3   5  -5   13.31    1.76
  -3   5   5   11.01    0.56
  -3   5   5   10.98    0.56
   3   5  -5   11.24    0.57
   3   5  -5   10.73    0.48
   3   5  -5   11.10    0.45
  -3   5   5   11.70    0.53
   1  -5  -5    0.94    1.46
   1  -5  -5    3.41    0.34
  -1  -5   5    4.24    0.34
   1  -5  -5    3.98    0.54
  -1  -5   5    3.77    0.40
  -1  -5   5    3.35    0.34
   1   5  -5   12.97    3.88
   1   5  -5    3.77    0.55
  -1   5   5    4.35    0.36
   1   5  -5    3.75    0.57
  -1   5   5    3.50    0.31
  -1   5   5    3.95    0.40
   1   5  -5    3.47    0.47
  -1   5   5    4.02    0.37
   1   5  -5    4.54    0.60
  -1   5   5    4.20    0.25
   1   5  -5    2.57    0.84
  -1   5   5    4.09    0.35
   1   5  -5    4.77    0.54
   1   5  -5    4.18    0.33
   1   5  -5    4.93    0.45
  -1  -5  -5   14.99    0.98
   1  -5   5   14.98    0.69
   1  -5   5   15.51    0.60
   1  -5   5   16.15    0.65
   1  -5   5   14.94    0.69
  -1   5  -5   14.22    0.96
  -1   5  -5   14.98    0.69
  -1   5  -5   13.10    0.81
  -1   5  -5   15.73    0.57
   1   5   5   14.94    0.73
  -1   5  -5   14.46    1.01
  -1   5  -5   15.12    0.84
   1   5   5   14.59    0.77
  -1   5  -5   13.09    0.96
   1   5   5   15.19    0.64
   1   5   5   15.55    0.62
   1   5   5   15.60    0.57
  -1   5  -5   14.73    0.70
   1   5   5   15.72    0.59
   3  -5   5    6.36    0.41
  -3  -5  -5    6.82    0.66
  -3  -5  -5    5.82    0.60
   3  -5   5    6.71    0.47
   3  -5   5    5.84    0.43
  -3   5  -5    7.28    0.56
  -3   5  -5    6.53    0.40
  -3   5  -5    4.66    0.64
   3   5   5    7.19    0.39
  -3   5  -5   12.86    3.55
   3   5   5    7.03    0.38
  -3   5  -5    5.62    0.47
   3   5   5    6.75    0.42
   3   5   5    6.76    0.49
  -3   5  -5    5.61    0.51
   3   5   5    7.27    0.51
  -3   5  -5    5.88    0.75
  -3   5  -5    6.79    0.45
  -3   5  -5    6.93    0.38
  -3   5  -5    7.05    0.65
   3   5   5    6.17    0.52
  -5  -5  -5    0.67    0.30
   5  -5   5    0.45    0.19
  -5  -5  -5    0.51    0.29
   5  -5   5    0.49    0.16
  -5   5  -5    1.13    1.55
  -5   5  -5    0.62    0.27
  -5   5  -5    0.70    0.29
  -5   5  -5    0.43    0.16
  -5   5  -5    0.63    0.23
   5   5   5    0.53    0.16
  -5   5  -5    0.74    0.18
   5   5   5    0.61    0.17
   5   5   5    0.72    0.18
  -5   5  -5    0.59    0.19
  -5   5  -5    0.47    0.28
  -5   5  -5    0.52    0.18
   7  -5   5    2.15    0.28
  -7  -5  -5    2.27    0.42
  -7  -5  -5    2.29    0.47
  -7   5  -5    2.58    0.38
  -7   5  -5    2.07    0.42
  -7   5  -5    1.89    0.25
  -7   5  -5    2.15    0.44
   7   5   5    1.88    0.26
   7   5   5    2.36    0.29
  -7   5  -5    2.65    0.31
  -7   5  -5    2.61    0.36
  -7   5  -5    2.79    0.53
  -9  -5  -5    0.10    0.23
   9  -5   5   -0.07    0.12
  -9  -5  -5   -0.07    0.22
  -9   5  -5    0.06    0.20
  -9   5  -5    0.12    0.14
  -9   5  -5    0.11    0.26
  -9   5  -5    0.02    0.23
 -11  -5  -5    0.03    0.23
 -11   5  -5    0.14    0.20
 -11   5  -5    0.04    0.25
  11   5   5    0.23    0.32
  18  -6  -5    1.22    0.21
  18  -6  -5    1.10    0.24
  18   6  -5    1.45    0.42
  18   6  -5    1.26    0.23
  18   6  -5    0.88    0.23
 -18   6   5    1.09    0.29
  18   6  -5    1.02    0.22
 -16  -6   5   -0.04    0.12
  16  -6  -5    0.15    0.14
  16  -6  -5    0.16    0.15
  16  -6  -5    0.13    0.19
  16  -6  -5    0.28    0.65
  16   6  -5    0.11    0.14
  16   6  -5    0.26    0.30
  16   6  -5    0.26    0.19
 -16   6   5    0.20    0.10
  16   6  -5    0.22    0.19
  16   6  -5   -0.07    0.20
 -16   6   5    0.03    0.18
 -16   6   5   -0.17    0.14
 -16   6   5    0.02    0.14
  14  -6  -5    5.14    0.40
  14  -6  -5    5.07    0.58
  14  -6  -5    4.92    0.44
 -14  -6   5    4.07    0.45
 -14  -6   5    5.05    0.41
  14  -6  -5    4.74    0.41
  14   6  -5    5.39    0.46
 -14   6   5    4.77    0.27
 -14   6   5    4.94    0.43
  14   6  -5    5.65    0.81
 -14   6   5    5.08    0.43
  14   6  -5    5.14    0.58
  14   6  -5    5.70    0.53
 -14   6   5    5.27    0.64
  14   6  -5    5.20    0.46
  12  -6  -5    0.53    0.73
 -12  -6   5    1.42    0.22
 -12  -6   5    1.46    0.29
  12  -6  -5    1.41    0.34
  12  -6  -5    1.30    0.26
  12   6  -5    1.19    0.22
 -12   6   5    1.08    0.31
  12   6  -5    1.67    0.31
 -12   6   5    1.32    0.22
 -12   6   5    1.21    0.22
  12   6  -5    1.56    0.33
  12   6  -5    1.37    0.45
 -10  -6   5    2.83    0.38
  10  -6  -5    0.63    1.68
  10  -6  -5    2.83    0.37
 -10  -6   5    3.09    0.31
  10  -6  -5    0.91    0.86
  10  -6  -5    3.10    0.47
 -10   6   5    2.81    0.29
  10   6  -5    2.43    0.52
  10   6  -5    2.75    0.31
  10   6  -5    2.37    0.31
 -10   6   5    2.91    0.49
 -10   6   5    2.32    0.21
 -10   6   5    2.62    0.30
 -10   6   5    2.42    0.30
  10   6  -5    2.90    0.44
   8  -6  -5    3.92    0.35
   8  -6  -5   -0.01    1.61
   8  -6  -5    4.15    0.51
  -8  -6   5    3.85    0.44
  -8  -6   5    3.01    0.36
   8  -6  -5    3.58    1.40
  -8  -6   5    3.76    0.34
   8   6  -5    3.95    0.52
  -8   6   5    3.89    0.34
   8   6  -5    3.51    0.46
   8   6  -5    3.54    0.29
  -8   6   5    3.89    0.36
  -8   6   5    3.34    0.38
  -8   6   5    3.53    0.52
   8   6  -5    2.64    0.89
   8   6  -5    3.89    0.39
  -8   6   5    3.30    0.22
   8   6  -5    3.72    0.35
   6  -6  -5    3.35    0.45
  -6  -6   5    3.53    0.42
   6  -6  -5    3.47    0.34
   6  -6  -5    4.22    1.62
   6  -6  -5    0.46    1.46
  -6  -6   5    3.15    0.35
  -6  -6   5    3.35    0.30
   6   6  -5    3.94    0.49
   6   6  -5    3.55    0.34
  -6   6   5    3.30    0.32
  -6   6   5    3.27    0.24
   6   6  -5    3.68    0.31
  -6   6   5    3.26    0.33
   6   6  -5    2.68    0.90
  -6   6   5    4.04    0.56
   6   6  -5    3.30    0.46
  -6   6   5    3.44    0.31
   6   6  -5   10.74    3.42
   6   6  -5    3.59    0.39
  -4  -6   5   11.63    0.63
   4  -6  -5    6.60    1.95
   4  -6  -5   10.86    0.80
   4  -6  -5   10.35    0.60
  -4   6   5   10.99    0.50
  -4   6   5   12.05    0.50
   4   6  -5   11.15    0.57
   4   6  -5   10.98    0.51
  -4   6   5   11.27    0.39
   4   6  -5   11.46    0.45
  -4   6   5   10.56    0.52
   4   6  -5   10.53    0.68
  -4   6   5   10.74    0.51
  -4   6   5   10.67    0.57
   4   6  -5   12.11    1.72
   4   6  -5   11.05    0.82
   4   6  -5   11.13    0.70
  -2  -6   5    0.24    0.14
  -2  -6   5    0.43    0.18
  -2  -6   5    0.50    0.14
   2  -6  -5    0.35    1.36
   2  -6  -5    0.65    0.29
  -2   6   5    0.62    0.17
  -2   6   5    0.60    0.11
   2   6  -5    0.28    0.56
   2   6  -5    1.75    2.00
   2   6  -5    0.49    0.21
  -2   6   5    0.39    0.16
   2   6  -5    0.72    0.20
  -2   6   5    0.35    0.14
  -2   6   5    0.62    0.15
   2   6  -5    0.47    0.23
   2   6  -5    0.55    0.16
   2   6  -5    0.35    0.25
   2   6  -5    0.88    0.28
   2   6  -5    0.54    0.13
   0  -6   5   10.54    0.48
   0  -6   5   10.23    0.58
   0  -6   5    9.49    0.54
   0  -6  -5   10.39    0.83
   0   6   5   10.31    0.60
   0   6   5   10.86    0.44
   0   6   5   10.28    0.47
   0   6  -5    9.68    0.56
   0   6  -5   10.66    0.69
   0   6  -5    9.41    0.79
   0   6  -5   11.56    0.85
   0   6  -5    9.44    0.67
   0   6   5   10.86    0.53
   0   6  -5    9.84    0.54
   0   6  -5   10.28    0.83
   0   6  -5   10.16    0.45
   0   6   5   10.15    0.60
   2  -6   5    4.91    0.40
  -2  -6  -5    5.16    0.68
   2  -6   5    4.62    0.42
  -2   6  -5    4.03    0.51
   2   6   5    4.79    0.42
  -2   6  -5    4.25    0.64
   2   6   5    4.81    0.31
   2   6   5    4.60    0.38
  -2   6  -5    4.51    0.40
  -2   6  -5    5.01    0.40
   2   6   5    3.92    0.36
  -2   6  -5    5.17    0.47
  -2   6  -5    5.48    0.59
  -2   6  -5    4.26    0.62
  -2   6  -5   12.27    3.51
  -2   6  -5    3.89    0.57
  -4  -6  -5    3.24    0.53
   4  -6   5    2.86    0.32
   4  -6   5    2.41    0.31
  -4  -6  -5    3.03    0.52
  -4   6  -5    3.36    0.46
  -4   6  -5    1.97    0.43
   4   6   5    2.41    0.30
  -4   6  -5    3.18    0.37
  -4   6  -5    3.24    0.54
  -4   6  -5    2.30    0.28
  -4   6  -5    2.75    0.31
  -4   6  -5    7.79    2.81
   4   6   5    2.81    0.29
  -4   6  -5    2.75    0.53
   4   6   5    2.38    0.30
  -4   6  -5    2.36    0.36
  -6  -6  -5    1.23    0.36
   6  -6   5    1.05    0.21
  -6  -6  -5    1.11    0.34
   6  -6   5    0.94    0.21
  -6   6  -5    0.96    0.38
   6   6   5    0.65    0.19
  -6   6  -5    1.21    0.25
   6   6   5    0.95    0.24
  -6   6  -5    1.37    0.29
  -6   6  -5    1.11    0.21
  -6   6  -5    0.59    0.27
  -6   6  -5    0.88    0.21
   6   6   5    0.97    0.20
  -6   6  -5    0.75    0.29
  -8  -6  -5    3.86    0.56
  -8  -6  -5    4.25    0.59
   8  -6   5    3.65    0.34
  -8   6  -5    4.16    0.36
  -8   6  -5    4.44    0.64
  -8   6  -5    2.30    0.42
  -8   6  -5    3.73    0.36
   8   6   5    3.65    0.40
  -8   6  -5    3.35    0.51
  -8   6  -5    4.00    0.46
 -10  -6  -5    0.68    0.30
 -10   6  -5    0.55    0.23
 -10   6  -5    0.45    0.29
  10   6   5    0.09    0.32
 -19   7   5    0.16    0.16
  17  -7  -5    0.44    0.18
  17  -7  -5    0.29    0.18
  17  -7  -5   -0.01    0.50
 -17   7   5    0.54    0.20
  17   7  -5    0.34    0.19
  17   7  -5    1.22    0.40
  17   7  -5    0.74    0.21
 -15  -7   5    6.39    0.45
  15  -7  -5    6.94    0.55
  15   7  -5    6.25    0.69
  15   7  -5    6.24    0.46
 -15   7   5    5.35    0.44
 -15   7   5    5.31    0.29
 -15   7   5    7.09    0.62
  15   7  -5    6.38    0.48
 -13  -7   5    0.37    0.19
  13  -7  -5    0.68    0.25
 -13  -7   5    0.68    0.17
  13  -7  -5    0.17    0.69
 -13   7   5    0.75    0.20
 -13   7   5    0.45    0.25
  13   7  -5    0.72    0.19
  13   7  -5    0.73    0.23
  13   7  -5    0.27    0.29
 -13   7   5    0.47    0.18
  11  -7  -5    0.48    1.85
  11  -7  -5    4.36    0.56
 -11  -7   5    3.92    0.45
 -11  -7   5    4.02    0.36
 -11   7   5    4.14    0.56
 -11   7   5    4.23    0.37
  11   7  -5    4.79    0.43
  -9  -7   5    9.95    0.63
   9  -7  -5   11.05    0.73
  -9  -7   5   10.60    0.49
  -9   7   5    9.94    0.47
  -9   7   5    9.50    0.48
   9   7  -5   10.49    0.53
  -9   7   5   10.59    0.79
   7  -7  -5   -0.41    1.31
  -7  -7   5    1.34    0.28
   7  -7  -5    0.79    0.81
  -7  -7   5    1.04    0.24
   7  -7  -5    0.83    0.28
  -7  -7   5    1.29    0.20
  -7   7   5    1.12    0.14
  -7   7   5    1.14    0.19
  -7   7   5    1.50    0.37
   7   7  -5    1.46    0.91
   7   7  -5    1.16    0.29
   7   7  -5    1.45    0.27
   7   7  -5    1.10    0.22
  -7   7   5    1.21    0.22
  -7   7   5    1.35    0.21
  -5  -7   5    5.98    0.55
   5   7  -5    5.71    0.68
   5   7  -5    5.96    0.60
   5   7  -5    6.31    1.54
  -5   7   5    5.26    0.34
  -5   7   5    5.64    0.45
   5   7  -5    6.15    0.50
  -5   7   5    5.79    0.67
  -5   7   5    6.01    0.35
   5   7  -5   14.14    3.60
  -5   7   5    5.06    0.32
   5   7  -5    5.69    0.44
   5   7  -5    5.45    0.38
  -3  -7   5   -0.16    0.13
   3  -7  -5   -0.26    1.17
   3  -7  -5    0.12    0.29
  -3   7   5    0.10    0.13
  -3   7   5    0.09    0.07
   3   7  -5    0.17    0.16
   3   7  -5    0.08    0.24
   3   7  -5   -0.19    1.30
   3   7  -5   -0.01    0.19
  -3   7   5    0.05    0.11
  -3   7   5    0.06    0.09
   3   7  -5    0.13    0.13
   3   7  -5   -0.16    0.10
  -3   7   5    0.00    0.09
   3   7  -5    0.01    0.10
   3   7  -5   -0.15    0.10
   1  -7  -5   10.35    0.82
  -1  -7   5    8.73    0.54
  -1  -7   5    9.18    0.46
  -1  -7   5    9.39    0.56
   1   7  -5    9.26    0.49
   1   7  -5    9.68    0.82
   1   7  -5   10.69    0.45
  -1   7   5    9.72    0.47
  -1   7   5    9.36    0.56
   1   7  -5    9.34    0.53
   1   7  -5    9.90    0.81
  -1   7   5   10.33    0.41
   1   7  -5    9.86    0.78
   1   7  -5    9.95    0.68
  -1   7   5   10.27    0.53
  -1   7   5    8.87    0.57
  -1  -7  -5   14.43    0.99
   1  -7   5   14.99    0.61
  -1   7  -5   14.77    0.64
   1   7   5   14.74    0.56
   1   7   5   14.08    0.59
  -1   7  -5   14.43    0.85
   1   7   5   14.58    0.65
  -1   7  -5   14.14    0.56
  -1   7  -5   13.62    0.67
  -1   7  -5   14.44    1.02
  -1   7  -5   14.98    1.01
  -1   7  -5   14.44    1.00
   3  -7   5    4.71    0.43
  -3  -7  -5    5.19    0.66
  -3  -7  -5    4.73    0.63
   3  -7   5    4.82    0.40
  -3   7  -5    3.88    0.57
  -3   7  -5    4.38    0.41
  -3   7  -5    5.19    0.69
  -3   7  -5    5.62    0.61
  -3   7  -5    5.02    0.43
  -3   7  -5   13.41    3.66
  -3   7  -5    4.92    0.40
  -3   7  -5    3.72    0.60
  -3   7  -5    4.49    0.43
   3   7   5    4.20    0.41
   3   7   5    4.27    0.36
   5  -7   5    0.40    0.16
   5  -7   5    0.03    0.16
  -5  -7  -5    0.38    0.26
  -5  -7  -5    0.23    0.23
  -5   7  -5    0.00    0.18
  -5   7  -5    0.27    0.14
  -5   7  -5    0.18    0.16
  -5   7  -5   -0.01    0.23
  -5   7  -5    0.39    0.17
  -5   7  -5    0.41    0.25
   5   7   5    0.25    0.14
   5   7   5    0.42    0.15
  -5   7  -5    0.24    0.14
  -5   7  -5    0.14    0.16
  -7  -7  -5    0.25    0.23
  -7  -7  -5    0.06    0.22
   7  -7   5    0.10    0.12
  -7   7  -5    0.01    0.15
  -7   7  -5    0.03    0.12
   7   7   5    0.19    0.17
  -7   7  -5   -0.35    0.22
  -7   7  -5   -0.01    0.15
  -7   7  -5    0.01    0.14
  -7   7  -5   -0.04    0.20
  -7   7  -5    0.01    0.18
  -9  -7  -5    0.34    0.25
  -9  -7  -5    0.72    0.29
  -9   7  -5    0.69    0.17
  -9   7  -5    0.66    0.31
   9   7   5    0.52    0.22
  -9   7  -5    0.72    0.24
 -11  -7  -5    0.17    0.21
 -11   7  -5    0.10    0.22
  11   7   5    0.12    0.26
  18  -8  -5    1.26    0.23
 -18   8   5    1.73    0.29
  16  -8  -5    2.94    0.40
  16   8  -5    3.99    0.60
  16   8  -5    3.19    0.35
 -16   8   5    3.12    0.46
  14  -8  -5    6.18    0.61
 -14  -8   5    7.17    0.41
  14   8  -5    6.05    0.48
 -14   8   5    6.63    0.60
  12  -8  -5    0.85    0.28
  12  -8  -5    0.14    0.61
 -12  -8   5    0.55    0.19
 -12  -8   5    1.13    0.20
 -12   8   5    0.80    0.29
  12   8  -5    0.60    0.20
  10  -8  -5    0.03    0.18
 -10  -8   5   -0.05    0.15
  10  -8  -5    0.19    0.70
 -10  -8   5    0.20    0.13
  10  -8  -5    0.46    1.56
 -10   8   5    0.22    0.21
  10   8  -5    0.14    0.14
  -8  -8   5   18.89    0.68
   8  -8  -5   19.05    1.00
  -8  -8   5   20.42    0.92
  -8   8   5   17.70    0.67
   8   8  -5   20.04    0.78
  -8   8   5   19.64    1.14
  -6  -8   5    1.04    0.27
   6  -8  -5    0.47    0.85
   6  -8  -5    0.13    1.32
  -6   8   5    0.86    0.18
   6   8  -5    0.88    0.21
   6   8  -5    2.23    1.99
  -6   8   5    0.85    0.31
   6   8  -5    0.67    0.24
  -6   8   5    0.79    0.20
  -4  -8   5    9.67    0.60
   4  -8  -5    9.28    0.78
   4   8  -5    9.44    0.50
  -4   8   5   10.04    0.47
  -4   8   5    9.85    0.50
  -4   8   5    9.40    0.72
   4   8  -5    9.53    0.65
   4   8  -5    9.02    0.53
   4   8  -5    9.52    0.76
  -4   8   5    9.36    0.36
   4   8  -5    8.72    0.73
  -2  -8   5    5.30    0.39
   2  -8  -5    6.62    0.77
  -2  -8   5    4.75    0.49
  -2   8   5    5.75    0.47
  -2   8   5    5.10    0.62
   2   8  -5   13.66    3.78
  -2   8   5    5.26    0.28
   2   8  -5    5.72    0.73
   2   8  -5    4.46    0.62
   2   8  -5    4.42    0.35
   2   8  -5    5.05    0.45
  -2   8   5    5.38    0.41
   2   8  -5    4.89    0.42
   2   8  -5    6.36    0.65
   2   8  -5    6.31    0.75
   0  -8   5    9.21    0.47
   0  -8  -5   11.04    0.87
   0   8   5    9.72    0.43
   0   8  -5   10.46    0.84
   0   8  -5   10.62    0.46
   0   8  -5   10.64    0.88
   0   8  -5    9.77    0.52
   0   8  -5   10.05    0.56
   0   8   5   10.38    0.54
   0   8  -5    9.84    0.79
   0   8   5    9.61    0.48
   0   8  -5   10.20    0.53
   0   8  -5    9.92    0.69
  -2  -8  -5    0.22    0.26
   2  -8   5    0.13    0.11
   2  -8   5    0.31    0.16
  -2  -8  -5   -0.13    1.45
  -2   8  -5    0.31    0.24
   2   8   5    0.22    0.14
  -2   8  -5    0.43    0.20
  -2   8  -5    0.44    0.30
  -2   8  -5    0.31    0.14
  -2   8  -5    0.22    0.15
   2   8   5    0.32    0.12
  -2   8  -5    0.49    0.29
  -2   8  -5    0.25    0.14
   4  -8   5    5.52    0.43
   4  -8   5    5.47    0.45
  -4  -8  -5    6.87    0.78
  -4  -8  -5    5.35    0.66
  -4   8  -5    4.47    0.64
   4   8   5    6.06    0.49
  -4   8  -5    6.04    0.61
  -4   8  -5    6.32    0.61
  -4   8  -5    4.68    0.61
  -4   8  -5    5.80    0.43
  -4   8  -5    5.31    0.44
   4   8   5    6.42    0.38
  -4   8  -5    6.00    0.40
  -6  -8  -5    0.77    0.28
  -6  -8  -5    1.03    0.33
   6  -8   5    0.79    0.19
  -6   8  -5    0.63    0.27
  -6   8  -5    0.61    0.20
   6   8   5    0.97    0.20
  -6   8  -5    0.69    0.31
  -6   8  -5    0.93    0.23
  -6   8  -5    0.76    0.20
   6   8   5    1.01    0.26
   6   8   5    0.74    0.20
  -6   8  -5    0.84    0.32
  -6   8  -5    0.81    0.23
  -8  -8  -5   11.78    0.79
  -8  -8  -5   13.99    0.88
  -8   8  -5   14.13    0.91
  -8   8  -5   10.46    0.76
  -8   8  -5   14.14    0.65
   8   8   5   13.17    0.63
  -8   8  -5   11.31    0.66
  -8   8  -5   12.64    0.78
 -10  -8  -5    1.22    0.31
  10   8   5    0.14    0.29
 -10   8  -5    1.15    0.30
  17  -9  -5    3.35    0.34
  15  -9  -5    0.03    0.16
  15  -9  -5    0.10    0.57
 -15   9   5    0.27    0.20
 -13  -9   5    0.13    0.19
 -13  -9   5    0.60    0.18
  13  -9  -5    0.42    0.20
  13  -9  -5   -0.03    0.53
  13   9  -5    0.39    0.17
 -13   9   5    0.46    0.22
  11  -9  -5    2.18    0.38
 -11  -9   5    2.04    0.35
 -11  -9   5    2.39    0.27
  11  -9  -5    0.44    1.55
  11   9  -5    1.90    0.28
 -11   9   5    2.26    0.44
   9  -9  -5    2.24    0.40
   9  -9  -5    0.66    0.71
  -9  -9   5    2.29    0.37
   9  -9  -5    0.51    1.45
  -9  -9   5    1.96    0.25
  -9   9   5    2.23    0.43
   9   9  -5    2.04    0.30
  -5  -9   5   31.22    1.18
   5   9  -5   29.98    1.28
  -5   9   5   29.55    0.90
  -5   9   5   29.37    0.98
   5   9  -5   24.21    1.38
   5   9  -5   30.15    0.99
  -5   9   5   30.24    1.46
   5   9  -5   28.06    1.46
   3  -9  -5    0.40    1.30
   3  -9  -5    3.32    0.56
  -3  -9   5    2.67    0.38
  -3   9   5    2.68    0.33
  -3   9   5    2.75    0.22
  -3   9   5    2.86    0.31
   3   9  -5    2.82    0.43
   3   9  -5    2.57    0.46
  -3   9   5    2.33    0.43
   3   9  -5    3.07    0.52
   3   9  -5    3.32    0.54
   3   9  -5    3.00    0.34
  -1  -9   5    0.70    0.24
  -1  -9   5    0.90    0.19
   1  -9  -5   -0.04    1.23
   1  -9  -5    0.78    0.33
  -1   9   5    1.01    0.24
   1   9  -5    1.58    0.39
  -1   9   5    1.29    0.35
   1   9  -5    1.25    0.25
  -1   9   5    1.27    0.17
   1   9  -5    1.08    0.22
   1   9  -5    0.91    0.32
   1   9  -5    1.43    0.26
  -1   9   5    1.10    0.20
   1   9  -5    1.59    0.35
   1   9  -5    1.11    0.38
  -1   9   5    1.14    0.25
   1  -9   5    0.33    0.14
  -1  -9  -5    0.50    0.30
  -1  -9  -5    0.34    1.26
  -1   9  -5    0.00    0.24
   1   9   5    0.26    0.19
  -1   9  -5    0.18    0.23
   1   9   5    0.38    0.12
  -1   9  -5    0.42    0.19
   1   9   5    0.05    0.13
  -1   9  -5    0.47    0.30
  -1   9  -5    0.09    0.13
  -1   9  -5   -0.18    0.16
  -1   9  -5    0.21    0.16
  -3  -9  -5    0.70    0.31
   3  -9   5    0.76    0.21
   3  -9   5    0.49    0.16
  -3   9  -5    0.75    0.28
  -3   9  -5    0.63    0.19
   3   9   5    0.49    0.14
   3   9   5    0.71    0.19
  -3   9  -5    0.77    0.34
  -3   9  -5    0.48    0.17
  -3   9  -5    0.84    0.29
  -3   9  -5    0.39    0.17
  -3   9  -5    0.53    0.19
  -3   9  -5    0.63    0.22
  -5  -9  -5    0.20    0.27
   5  -9   5    0.16    0.21
  -5  -9  -5    0.64    0.31
   5  -9   5    0.28    0.15
  -5   9  -5    0.70    0.29
  -5   9  -5    0.63    0.19
  -5   9  -5    0.76    0.32
  -5   9  -5    0.36    0.19
   5   9   5    0.39    0.14
  -5   9  -5    0.37    0.21
   5   9   5    0.25    0.16
  -5   9  -5    0.17    0.17
   5   9   5    0.90    0.23
  -5   9  -5    0.36    0.17
  -7  -9  -5   18.74    1.02
  -7  -9  -5   18.93    1.04
  -7   9  -5   16.15    0.84
  -7   9  -5   19.48    0.84
  -7   9  -5   15.41    0.96
  -7   9  -5   19.16    1.07
  -7   9  -5   18.12    0.99
   7   9   5   19.33    0.79
  -9  -9  -5    4.11    0.48
   9   9   5    3.31    0.30
  -9   9  -5    4.59    0.51
  -9   9  -5    2.15    0.33
  16 -10  -5    0.30    0.16
  16 -10  -5   -0.04    0.43
 -16  10   5    0.14    0.15
  14 -10  -5    3.32    0.37
 -14  10   5    2.87    0.40
  12 -10  -5    3.98    0.46
 -12  10   5    3.55    0.48
  10 -10  -5    0.07    0.20
  10 -10  -5   -0.15    0.53
 -10 -10   5   -0.03    0.16
  10 -10  -5    0.20    1.48
  10  10  -5    0.11    0.15
 -10  10   5   -0.03    0.19
  -8 -10   5   13.25    0.73
  -8  10   5   12.57    0.87
  -6 -10   5    6.21    0.58
   6  10  -5    6.40    0.50
  -6  10   5    6.49    0.49
  -6  10   5    6.43    0.60
   4 -10  -5    0.29    0.29
   4 -10  -5   -0.17    1.11
  -4 -10   5    0.07    0.19
  -4  10   5    0.39    0.17
   4  10  -5    0.45    0.26
   4  10  -5    0.44    0.27
   4  10  -5    0.22    0.18
  -4  10   5    0.44    0.11
  -4  10   5    0.57    0.27
   4  10  -5    0.35    0.28
   4  10  -5    0.35    0.22
   2 -10  -5   19.22    1.12
  -2 -10   5   15.61    0.78
   2  10  -5   16.39    0.90
  -2  10   5   17.41    0.73
   2  10  -5   16.35    1.06
  -2  10   5   16.92    0.58
   2  10  -5   16.92    1.09
  -2  10   5   16.76    0.76
   2  10  -5   18.40    0.75
  -2  10   5   15.86    1.02
   2  10  -5   17.99    0.72
   2  10  -5   17.92    1.07
   0 -10  -5    0.93    0.34
   0 -10  -5    0.15    1.21
   0 -10   5    0.47    0.17
   0  10  -5    0.79    0.24
   0  10  -5    0.71    0.19
   0  10  -5    0.71    0.22
   0  10   5    0.74    0.28
   0  10   5    0.95    0.15
   0  10   5    0.64    0.19
   0  10  -5    0.62    0.29
   0  10   5    0.73    0.21
   0  10  -5    0.95    0.33
   0  10  -5    0.90    0.32
   2 -10   5   -0.10    0.12
  -2 -10  -5    0.21    0.27
  -2  10  -5   -0.01    0.15
   2  10   5    0.14    0.11
   2  10   5    0.18    0.16
  -2  10  -5   -0.04    0.12
  -2  10  -5   -0.06    0.20
  -2  10  -5    0.04    0.14
   2  10   5   -0.16    0.12
  -2  10  -5    0.03    0.26
  -2  10  -5   -0.08    0.19
  -4 -10  -5    1.16    0.33
  -4 -10  -5    1.26    0.35
  -4  10  -5    0.98    0.21
  -4  10  -5    1.27    0.36
  -4  10  -5    1.23    0.28
  -4  10  -5    0.88    0.31
  -4  10  -5    0.97    0.34
  -4  10  -5    1.26    0.26
   4  10   5    1.28    0.26
  -6 -10  -5    0.28    0.23
  -6 -10  -5    0.26    0.26
  -6  10  -5    0.32    0.15
  -6  10  -5    0.14    0.24
  -6  10  -5    0.47    0.31
   6  10   5    0.51    0.20
  -6  10  -5    0.15    0.16
  -6  10  -5    0.61    0.25
  -8 -10  -5   16.79    0.87
  -8  10  -5   19.05    0.92
  -8  10  -5   13.00    0.76
  15 -11  -5    0.33    0.49
  13 -11  -5    1.74    0.28
 -13  11   5    1.69    0.31
  11 -11  -5    0.02    0.58
  11 -11  -5   -0.21    1.38
 -11  11   5    0.18    0.20
  -9 -11   5    0.29    0.20
   9 -11  -5    0.48    1.39
   9 -11  -5   -0.25    0.62
   9  11  -5    0.17    0.14
  -9  11   5    0.10    0.19
   5 -11  -5    0.24    1.11
  -5 -11   5    1.09    0.27
   5  11  -5    1.22    0.32
   5  11  -5    1.33    0.25
  -5  11   5    1.36    0.34
  -5  11   5    1.08    0.23
   5  11  -5    1.29    0.23
   3 -11  -5   13.01    0.91
  -3 -11   5   14.19    0.73
  -3  11   5   13.79    0.91
   3  11  -5   13.48    0.92
  -3  11   5   14.73    0.64
   3  11  -5   14.59    0.92
  -3  11   5   14.92    0.70
   3  11  -5   13.36    0.61
   3  11  -5   16.30    0.69
   3  11  -5   13.97    0.76
   1 -11  -5    4.01    0.56
   1  11  -5    3.41    0.36
   1  11  -5    5.00    0.60
  -1  11   5    3.49    0.36
  -1  11   5    4.01    0.27
   1  11  -5    3.98    0.38
   1  11  -5    4.07    0.47
   1  11  -5    4.53    0.63
  -1  11   5    3.90    0.53
  -1  11   5    4.26    0.42
  -1 -11  -5    0.62    1.25
  -1 -11  -5    0.24    0.26
   1  11   5    0.20    0.11
   1  11   5    0.07    0.14
  -1  11  -5    0.29    0.17
  -1  11  -5    0.46    0.28
  -1  11  -5    0.26    0.22
  -1  11  -5    0.30    0.14
  -1  11  -5    0.42    0.26
   1  11   5    0.02    0.15
  -3 -11  -5    1.72    0.36
  -3  11  -5    1.54    0.30
  -3  11  -5    1.48    0.32
  -3  11  -5    1.99    0.43
  -3  11  -5    1.42    0.25
   3  11   5    1.70    0.28
  -5 -11  -5    0.71    0.26
  -5 -11  -5    0.75    0.27
  -5  11  -5    0.44    0.18
  -5  11  -5    0.66    0.24
  -5  11  -5    0.60    0.17
   5  11   5    0.92    0.22
  -5  11  -5    0.44    0.29
  -7  11  -5    3.29    0.40
   7  11   5    3.95    0.30
  12 -12  -5    0.03    0.45
 -12  12   5    0.16    0.16
  10 -12  -5    0.20    1.23
  10 -12  -5    0.13    0.56
 -10  12   5    3.12    0.44
   8 -12  -5    0.09    1.08
   8 -12  -5    0.13    0.65
  -8  12   5    0.38    0.22
   6 -12  -5   -0.06    0.87
  -6  12   5    0.19    0.19
   4 -12  -5   10.25    0.77
  -4  12   5   12.04    0.58
   4  12  -5   10.39    0.73
  -4  12   5   10.75    0.76
   2 -12  -5    0.00    0.23
   2 -12  -5   -0.09    1.01
  -2  12   5    0.02    0.18
  -2  12   5    0.20    0.14
   2  12  -5    0.01    0.15
   2  12  -5    0.00    0.18
   2  12  -5    0.29    0.26
   0 -12  -5    5.06    0.59
   0  12  -5    6.19    0.54
   0  12   5    3.44    0.45
   0  12   5    5.54    0.37
   0  12  -5    6.96    0.60
   0  12  -5    4.87    0.42
  -2 -12  -5    0.46    0.25
   2  12   5    0.35    0.16
  -2  12  -5    0.55    0.25
  -2  12  -5    0.63    0.18
  -2  12  -5    0.34    0.16
  -2  12  -5    0.55    0.27
   2  12   5    0.36    0.19
  -4 -12  -5    0.44    0.21
  -4  12  -5    0.68    0.23
  -4  12  -5    0.73    0.18
   4  12   5    0.89    0.21
  -4  12  -5    1.11    0.32
 -11  13   5    0.42    0.20
   9 -13  -5    0.36    1.11
  -9  13   5    0.40    0.18
  -9  13   5    0.06    0.13
   7 -13  -5    0.18    1.02
  -7  13   5    0.11    0.14
  -7  13   5    0.00    0.15
   5 -13  -5    0.40    1.00
  -5  13   5    0.63    0.22
  -5  13   5    0.38    0.15
   5  13  -5    0.42    0.23
   3 -13  -5    2.97    0.44
   3 -13  -5    0.36    0.96
   3  13  -5    2.29    0.37
  -3  13   5    2.50    0.39
  -3  13   5    2.67    0.27
   1 -13  -5    0.22    0.22
   1 -13  -5    0.49    0.99
  -1  13   5   -0.01    0.16
  -1  13   5    0.09    0.15
  -1  13   5    0.08    0.13
   1  13  -5   -0.06    0.17
  -1 -13  -5    0.56    0.22
  -1  13  -5    0.63    0.22
   1  13   5    0.76    0.19
  -1  13  -5    0.70    0.26
  -1  13  -5    0.95    0.19
   1  13   5    0.55    0.14
  -3 -13  -5    0.27    0.17
  -3  13  -5    1.08    0.23
  -3  13  -5    0.61    0.25
   6 -14  -5    0.09    0.74
  -6  14   5    0.09    0.14
   4 -14  -5    0.30    0.78
  -4  14   5    0.21    0.13
  -4  14   5    0.33    0.17
  -2  14   5    0.59    0.13
  20   0  -6    1.65    0.34
  20   0  -6    2.15    0.31
  20   0  -6    2.16    0.27
  20   0  -6    1.98    0.26
  20   0  -6    1.80    0.23
  18   0  -6   -0.02    0.17
  18   0  -6    0.06    0.14
 -18   0   6    0.07    0.17
  18   0  -6   -0.16    0.15
  18   0  -6   -0.01    0.27
  18   0  -6    0.12    0.18
  16   0  -6    2.46    0.33
  16   0  -6    3.19    0.49
  16   0  -6    2.17    0.27
  16   0  -6    2.55    0.37
  16   0  -6    2.00    0.36
  16   0  -6    2.88    0.41
  16   0  -6    2.87    0.60
 -16   0   6    2.52    0.30
 -16   0   6    1.74    0.26
 -16   0   6    2.18    0.29
  14   0  -6   54.37    2.07
  14   0  -6   50.17    1.42
 -14   0   6   53.99    1.51
  14   0  -6   53.43    2.66
  14   0  -6   54.82    1.67
 -14   0   6   53.69    1.47
  14   0  -6   51.97    2.04
  14   0  -6   50.78    2.03
  14   0  -6   50.61    1.78
 -14   0   6   53.25    1.41
  14   0  -6   52.04    1.66
  12   0  -6    5.21    0.84
  12   0  -6    4.27    0.37
 -12   0   6    5.02    0.41
  12   0  -6    4.53    0.57
  12   0  -6    3.05    1.09
  12   0  -6    5.11    0.48
  12   0  -6    5.48    0.67
 -12   0   6    4.63    0.38
 -12   0   6    4.69    0.43
  12   0  -6    4.44    0.50
  10   0  -6   -0.18    0.23
  10   0  -6    0.05    0.19
  10   0  -6    0.18    0.14
  10   0  -6   -0.20    0.51
  10   0  -6   -0.08    0.17
 -10   0   6   -0.07    0.10
 -10   0   6    0.02    0.09
 -10   0   6    0.23    0.14
 -10   0   6    0.02    0.15
 -10   0   6   -0.27    0.12
 -10   0   6   -0.07    0.09
  10   0  -6    0.28    0.18
   8   0  -6    2.44    0.25
   8   0  -6    3.58    0.52
   8   0  -6    2.60    0.44
  -8   0   6    2.60    0.27
  -8   0   6    2.69    0.28
   8   0  -6   -0.02    1.95
  -8   0   6    2.23    0.26
   8   0  -6    3.36    0.39
   8   0  -6    3.09    0.64
   8   0  -6    2.85    0.38
  -8   0   6    2.67    0.35
  -8   0   6    2.87    0.33
  -8   0   6    2.85    0.41
   8   0  -6    4.10    1.43
  -8   0   6    3.42    0.42
  -6   0   6   12.95    0.53
  -6   0   6   13.56    0.58
   6   0  -6   12.23    1.02
  -6   0   6   13.39    0.55
   6   0  -6   13.30    0.81
   6   0  -6   11.21    0.64
   6   0  -6   13.29    0.51
  -6   0   6   12.32    0.64
   6   0  -6   13.50    0.65
  -6   0   6   13.53    0.59
   6   0  -6   14.56    2.03
  -6   0   6   12.62    0.74
   6   0  -6   14.20    0.84
  -6   0   6   13.45    0.70
   4   0  -6    0.68    0.25
   4   0  -6    0.66    0.67
  -4   0   6    0.82    0.22
  -4   0   6    0.77    0.16
   4   0  -6    0.69    0.22
   4   0  -6    0.82    1.67
  -4   0   6    0.62    0.17
  -4   0   6    0.68    0.15
   4   0  -6    0.93    0.36
   4   0  -6    0.98    0.36
   4   0  -6    0.65    0.25
   4   0  -6    0.71    0.22
  -4   0   6    0.78    0.24
   4   0  -6    0.70    0.15
  -4   0   6    0.48    0.17
  -2   0   6    2.18    0.25
   2   0  -6    2.77    0.59
   2   0  -6    2.78    0.42
  -2   0   6    2.13    0.25
   2   0  -6    2.70    0.48
   2   0  -6    2.15    0.30
   2   0  -6    2.30    0.36
  -2   0   6    2.15    0.31
   2   0  -6    0.00    1.30
   2   0  -6    1.95    0.84
  -2   0   6    1.91    0.29
  -2   0   6    2.48    0.27
   2   0  -6    2.70    0.44
  -2   0   6    2.06    0.36
  -2   0   6    2.23    0.28
   2   0  -6    2.40    0.27
   0   0   6    9.14    0.46
   0   0   6    8.42    0.42
   0   0  -6    8.91    0.76
   0   0   6    8.70    0.54
   0   0  -6    9.69    0.45
   0   0  -6    9.80    0.65
   0   0  -6    9.62    0.54
   0   0   6    9.57    0.47
   0   0  -6    7.40    3.04
   0   0  -6    9.66    0.64
   0   0   6   10.71    0.53
   0   0   6    8.58    0.68
   0   0  -6    9.29    0.68
  -2   0  -6   53.16    7.38
  -2   0  -6   71.32    2.54
  -2   0  -6   74.83    1.64
  -2   0  -6   71.57    2.55
  -2   0  -6   71.07    1.99
  -2   0  -6   70.33    2.84
   2   0   6   68.50    1.83
  -2   0  -6   74.51    2.86
  -4   0  -6   11.12    0.50
   4   0   6   10.71    0.53
  -4   0  -6   10.63    0.86
   4   0   6   11.27    0.55
  -4   0  -6   10.71    0.63
  -4   0  -6   10.56    0.83
  -6   0  -6    2.12    0.42
  -6   0  -6    1.24    0.33
   6   0   6    1.49    0.24
  -6   0  -6    2.67    0.51
  -6   0  -6    2.30    0.25
  -8   0  -6    0.18    0.22
  -8   0  -6    0.14    0.22
  -8   0  -6    0.21    0.24
 -10   0  -6    0.70    0.26
 -10   0  -6    0.37    0.21
  19  -1  -6    0.40    0.27
  19  -1  -6    0.00    0.15
 -19  -1   6    0.06    0.16
  19  -1  -6    0.19    0.13
  19  -1  -6    0.16    0.20
  19  -1  -6    0.02    0.15
  19   1  -6    0.23    0.14
  19   1  -6    0.15    0.16
  19   1  -6    0.11    0.15
  19   1  -6    0.07    0.24
 -19   1   6    0.00    0.15
  19   1  -6    0.24    0.18
  17  -1  -6    0.11    0.19
  17  -1  -6    0.02    0.16
  17  -1  -6    0.00    0.15
  17  -1  -6   -0.03    0.20
  17  -1  -6    0.01    0.13
  17  -1  -6   -0.05    0.28
 -17   1   6    0.47    0.14
  17   1  -6    0.16    0.15
 -17   1   6    0.02    0.16
  17   1  -6    0.21    0.19
  17   1  -6    0.18    0.18
  17   1  -6   -0.11    0.17
 -17   1   6    0.01    0.13
  17   1  -6   -0.11    0.16
  17   1  -6    0.04    0.24
  15  -1  -6   12.20    0.82
  15  -1  -6   13.77    1.10
 -15  -1   6   13.87    0.61
  15  -1  -6   13.28    0.74
  15  -1  -6   14.34    0.81
  15  -1  -6   13.36    0.59
 -15  -1   6   14.05    0.60
  15  -1  -6   14.57    0.86
 -15  -1   6   13.36    0.61
  15  -1  -6   14.20    0.69
  15   1  -6   13.83    0.69
  15   1  -6   12.05    0.80
 -15   1   6   13.89    0.58
  15   1  -6   13.90    0.85
 -15   1   6   12.14    0.85
  15   1  -6   14.09    0.61
  15   1  -6   14.19    0.70
 -15   1   6   13.75    0.63
  15   1  -6   14.05    1.09
  15   1  -6   14.22    0.76
 -13  -1   6    8.44    0.45
  13  -1  -6    8.29    0.60
  13  -1  -6    7.98    0.52
 -13  -1   6    7.55    0.47
  13  -1  -6    7.96    0.83
  13  -1  -6    8.46    0.69
  13  -1  -6    8.16    0.58
  13  -1  -6    7.43    0.44
  13  -1  -6    7.72    0.62
 -13  -1   6    8.62    0.47
  13   1  -6    8.43    0.67
  13   1  -6    7.93    0.43
  13   1  -6    7.71    0.81
 -13   1   6    7.89    0.44
 -13   1   6    8.03    0.47
  13   1  -6    7.78    0.62
  13   1  -6    8.29    0.52
 -13   1   6    7.66    0.64
 -13   1   6    8.42    0.43
  13   1  -6    7.21    0.54
 -11  -1   6    0.07    0.10
  11  -1  -6    0.02    0.13
  11  -1  -6    0.15    0.17
 -11  -1   6    0.08    0.12
  11  -1  -6    0.08    0.23
 -11  -1   6    0.04    0.16
  11  -1  -6   -0.05    0.19
  11  -1  -6    0.20    0.27
 -11  -1   6    0.17    0.11
  11  -1  -6    0.06    0.16
  11  -1  -6    0.01    0.64
 -11   1   6    0.13    0.11
  11   1  -6    0.11    0.12
  11   1  -6    0.17    0.21
  11   1  -6    0.30    0.65
 -11   1   6    0.05    0.10
 -11   1   6    0.04    0.11
  11   1  -6    0.23    0.26
  11   1  -6    0.21    0.16
  11   1  -6    0.26    0.20
  11   1  -6    0.29    0.19
  -9  -1   6    2.41    0.34
   9  -1  -6    2.64    0.61
   9  -1  -6    2.40    0.36
  -9  -1   6    2.29    0.35
   9  -1  -6    3.19    0.49
   9  -1  -6    2.36    0.33
  -9  -1   6    2.42    0.28
  -9  -1   6    2.31    0.27
   9  -1  -6    2.19    0.36
   9  -1  -6    2.67    1.21
  -9  -1   6    2.16    0.37
   9  -1  -6    0.84    2.12
  -9  -1   6    2.42    0.30
   9  -1  -6    2.49    0.42
   9   1  -6    3.03    0.47
  -9   1   6    2.50    0.35
   9   1  -6    3.25    0.66
   9   1  -6    3.08    0.48
   9   1  -6    2.40    0.36
  -9   1   6    2.61    0.31
   9   1  -6    3.86    1.31
  -9   1   6    2.60    0.38
  -9   1   6    2.73    0.38
   9   1  -6    2.69    0.28
  -9   1   6    2.53    0.28
  -9   1   6    2.08    0.23
   9   1  -6    2.91    0.36
  -7  -1   6   10.60    0.48
  -7  -1   6   10.26    0.51
   7  -1  -6    9.77    0.55
   7  -1  -6   10.05    0.90
  -7  -1   6    9.82    0.57
   7  -1  -6    9.38    0.63
   7  -1  -6   11.30    0.75
  -7  -1   6   10.32    0.50
   7  -1  -6   11.08    1.81
   7  -1  -6   10.60    0.45
  -7  -1   6   10.36    0.61
   7  -1  -6    9.84    0.59
  -7  -1   6    9.72    0.46
   7  -1  -6    9.69    0.69
  -7  -1   6   10.28    0.68
   7   1  -6   10.75    0.45
  -7   1   6   10.03    0.63
  -7   1   6    9.49    0.56
   7   1  -6    9.49    0.68
  -7   1   6   10.29    0.49
  -7   1   6   10.74    0.62
   7   1  -6   10.58    1.72
  -7   1   6   10.47    0.52
   7   1  -6    9.55    0.88
   7   1  -6    8.62    0.56
  -7   1   6   10.67    0.46
   7   1  -6    9.62    0.55
   7   1  -6   11.35    0.75
  -7   1   6   10.04    0.47
  -5  -1   6    1.00    0.18
  -5  -1   6    0.85    0.24
   5  -1  -6    0.95    0.17
   5  -1  -6    1.51    0.36
  -5  -1   6    0.86    0.18
  -5  -1   6    1.05    0.21
  -5  -1   6    1.01    0.25
  -5  -1   6    0.81    0.16
   5  -1  -6    0.75    0.23
   5  -1  -6   -0.22    1.35
   5  -1  -6    1.21    0.24
   5  -1  -6    0.98    0.71
  -5  -1   6    0.90    0.21
   5  -1  -6    1.04    0.29
   5  -1  -6    1.06    0.41
   5   1  -6   -0.24    1.48
  -5   1   6    1.08    0.20
  -5   1   6    1.17    0.22
   5   1  -6    1.21    0.69
   5   1  -6    1.46    0.44
  -5   1   6    0.90    0.22
   5   1  -6    1.06    0.30
  -5   1   6    0.81    0.15
   5   1  -6    1.24    0.31
   5   1  -6    1.00    0.18
   5   1  -6    1.11    0.22
  -5   1   6    0.90    0.18
  -5   1   6    1.14    0.26
  -3  -1   6    1.14    0.29
   3  -1  -6    1.03    0.22
  -3  -1   6    1.26    0.27
   3  -1  -6    1.09    0.34
   3  -1  -6    1.67    0.35
   3  -1  -6    1.10    0.27
  -3  -1   6    1.09    0.22
   3  -1  -6    0.20    1.08
  -3  -1   6    1.29    0.25
   3  -1  -6    4.15    1.26
  -3  -1   6    1.34    0.20
   3  -1  -6    1.29    0.20
   3  -1  -6    1.64    0.34
   3  -1  -6    1.46    0.44
  -3  -1   6    1.35    0.20
   3   1  -6    1.40    0.39
  -3   1   6    0.99    0.26
  -3   1   6    1.20    0.19
  -3   1   6    1.15    0.22
   3   1  -6    0.50    0.48
  -3   1   6    1.10    0.19
   3   1  -6    1.37    0.25
   3   1  -6    1.83    0.37
  -3   1   6    0.88    0.21
  -3   1   6    1.26    0.20
   3   1  -6    1.17    0.20
   3   1  -6    0.94    0.26
   3   1  -6    1.40    0.32
   3   1  -6    0.86    1.59
   3   1  -6    1.13    0.38
  -1  -1   6   17.76    0.78
   1  -1  -6   19.21    1.14
   1  -1  -6   18.37    2.23
  -1  -1   6   17.85    1.01
   1  -1  -6   19.07    0.79
  -1  -1   6   19.57    0.75
  -1  -1   6   18.18    0.65
   1  -1  -6   19.62    0.66
   1  -1  -6   18.81    1.02
  -1  -1   6   16.96    0.78
   1  -1  -6   19.50    0.97
  -1  -1   6   18.54    0.70
   1   1  -6   21.47    1.22
  -1   1   6   20.10    0.71
  -1   1   6   19.71    0.75
   1   1  -6   19.95    0.99
   1   1  -6   18.31    0.95
   1   1  -6   18.04    0.99
   1   1  -6   19.17    0.66
   1   1  -6   20.19    2.33
   1   1  -6   14.57    4.29
  -1   1   6   18.32    0.98
  -1   1   6   18.00    0.68
   1   1  -6   18.41    1.13
   1   1  -6   19.47    0.80
  -1   1   6   19.05    0.67
  -1  -1  -6   65.94    2.72
   1  -1   6   68.96    1.80
   1  -1   6   63.17    1.75
  -1  -1  -6   64.85    2.43
  -1  -1  -6   68.72    1.55
  -1  -1  -6   63.86    1.99
   1  -1   6   67.36    1.68
  -1  -1  -6   65.53    2.44
  -1   1  -6   69.98    5.25
  -1   1  -6   68.84    2.73
   1   1   6   61.10    2.41
   1   1   6   69.80    1.80
  -1   1  -6   68.95    1.57
  -1   1  -6   65.37    2.30
  -1   1  -6   66.79    2.46
  -1   1  -6   65.42    1.92
   1   1   6   69.82    1.69
  -1   1  -6   73.98    8.13
   1   1   6   67.95    1.62
  -1   1  -6   66.43    2.46
   1   1   6   70.94    1.78
  -3  -1  -6    5.68    0.44
  -3  -1  -6    5.71    0.40
  -3  -1  -6    6.10    0.74
  -3  -1  -6    4.60    0.62
   3  -1   6    5.80    0.45
  -3  -1  -6    2.11    2.23
   3  -1   6    5.65    0.46
  -3   1  -6    6.89    0.54
  -3   1  -6    6.01    0.47
  -3   1  -6    5.79    0.42
  -3   1  -6    5.37    0.68
  -3   1  -6    5.87    0.73
   3   1   6    5.84    0.45
  -3   1  -6    9.89    3.34
   3   1   6    6.18    0.48
  -3   1  -6    5.14    0.67
   5  -1   6    3.29    0.34
   5  -1   6    4.48    0.39
  -5  -1  -6    4.98    0.65
  -5  -1  -6    5.38    0.70
  -5  -1  -6    4.34    0.37
  -5   1  -6    4.19    0.39
  -5   1  -6    4.83    0.38
   5   1   6    4.52    0.39
  -5   1  -6    4.79    0.65
  -5   1  -6    4.61    0.62
   5   1   6    4.44    0.39
  -5   1  -6    3.80    0.57
  -5   1  -6    4.80    0.39
  -7  -1  -6    0.03    0.26
  -7  -1  -6    0.00    0.19
  -7  -1  -6    0.16    0.26
   7  -1   6    0.16    0.13
  -7   1  -6    0.21    0.25
   7   1   6    0.01    0.12
  -7   1  -6   -0.08    0.21
  -7   1  -6    0.15    0.21
  -7   1  -6    0.06    0.14
  -9  -1  -6    0.04    0.18
  -9  -1  -6    0.44    0.25
  -9  -1  -6    0.14    0.23
  -9   1  -6    0.19    0.21
  -9   1  -6    0.00    0.23
  -9   1  -6    0.04    0.20
 -11   1  -6    0.68    0.22
  20  -2  -6    1.17    0.16
  20  -2  -6    1.24    0.19
  20   2  -6    1.14    0.21
  20   2  -6    1.27    0.35
  20   2  -6    0.66    0.18
 -20   2   6    1.33    0.26
  20   2  -6    0.79    0.17
  18  -2  -6    0.86    0.22
  18  -2  -6    0.71    0.25
  18  -2  -6    0.37    0.21
  18  -2  -6    1.16    0.23
  18  -2  -6    0.72    0.19
  18  -2  -6    1.01    0.36
  18   2  -6    0.84    0.23
  18   2  -6    0.89    0.20
  18   2  -6    0.37    0.19
 -18   2   6    0.48    0.22
  18   2  -6    0.86    0.26
  18   2  -6    0.59    0.34
  18   2  -6    0.80    0.23
 -16  -2   6   37.38    1.17
  16  -2  -6   37.72    1.28
  16  -2  -6   38.67    1.14
  16  -2  -6   40.94    1.44
  16  -2  -6   40.88    1.61
  16  -2  -6   39.20    1.59
  16  -2  -6   39.51    2.06
  16  -2  -6   39.50    1.63
  16   2  -6   39.05    1.17
  16   2  -6   39.14    1.31
 -16   2   6   40.16    1.14
 -16   2   6   36.83    1.68
  16   2  -6   39.57    1.40
  16   2  -6   40.29    1.62
  16   2  -6   40.36    2.10
  16   2  -6   39.66    1.31
 -16   2   6   40.52    1.21
  14  -2  -6   12.16    1.04
  14  -2  -6   12.48    0.75
  14  -2  -6   12.99    0.81
  14  -2  -6   11.70    0.56
  14  -2  -6   13.33    0.74
  14  -2  -6   11.51    0.81
 -14  -2   6   12.06    0.58
 -14  -2   6   13.41    0.58
  14  -2  -6   13.31    0.66
 -14  -2   6   13.67    0.60
 -14   2   6   12.61    0.85
  14   2  -6   12.79    0.71
  14   2  -6   13.00    0.59
  14   2  -6   12.60    0.66
  14   2  -6   12.51    1.04
  14   2  -6   12.10    0.79
 -14   2   6   12.54    0.60
 -14   2   6   13.22    0.57
 -14   2   6   13.11    0.54
  14   2  -6   12.41    0.81
 -12  -2   6    0.20    0.15
  12  -2  -6    0.50    0.21
  12  -2  -6    0.13    0.22
  12  -2  -6    0.37    0.24
  12  -2  -6    0.32    0.17
  12  -2  -6    0.55    0.22
 -12  -2   6    0.38    0.14
 -12  -2   6    0.26    0.13
  12  -2  -6    0.03    0.57
  12  -2  -6    0.20    0.30
 -12  -2   6    0.32    0.18
 -12   2   6    0.28    0.12
  12   2  -6    0.27    0.21
 -12   2   6    0.03    0.19
 -12   2   6    0.41    0.14
  12   2  -6    0.12    0.19
  12   2  -6    0.22    0.27
  12   2  -6    0.10    0.60
  12   2  -6    0.23    0.19
  12   2  -6    0.36    0.17
  12   2  -6    0.33    0.15
 -12   2   6    0.11    0.13
  10  -2  -6    1.96    1.06
  10  -2  -6    4.09    0.55
 -10  -2   6    3.30    0.32
  10  -2  -6    4.06    0.74
 -10  -2   6    3.45    0.36
  10  -2  -6    2.94    0.45
  10  -2  -6    3.29    0.42
  10  -2  -6    3.40    0.44
  10  -2  -6    3.80    0.41
 -10  -2   6    3.19    0.40
 -10  -2   6    3.51    0.34
 -10   2   6    3.51    0.33
  10   2  -6    2.95    0.40
  10   2  -6    3.72    0.31
  10   2  -6    3.47    0.51
  10   2  -6    3.66    0.41
 -10   2   6    3.61    0.29
  10   2  -6    3.68    0.71
  10   2  -6    3.65    1.23
  10   2  -6    3.10    0.48
  10   2  -6    2.85    0.30
 -10   2   6    3.36    0.36
   8  -2  -6    7.20    0.75
  -8  -2   6    7.28    0.51
  -8  -2   6    7.46    0.41
  -8  -2   6    7.17    0.43
  -8  -2   6    6.21    0.64
   8  -2  -6    7.46    0.61
  -8  -2   6    7.40    0.40
   8  -2  -6    5.97    1.64
  -8  -2   6    6.56    0.40
   8  -2  -6    7.27    0.58
   8  -2  -6    6.85    0.50
  -8  -2   6    6.96    0.48
   8  -2  -6    6.58    0.52
   8  -2  -6    7.30    0.48
   8   2  -6    6.69    0.36
   8   2  -6    8.02    0.61
   8   2  -6    6.84    0.74
   8   2  -6    6.28    0.55
  -8   2   6    7.30    0.36
   8   2  -6    6.38    0.48
  -8   2   6    6.55    0.55
  -8   2   6    6.87    0.43
  -8   2   6    6.87    0.39
  -8   2   6    7.06    0.50
   8   2  -6    1.72    2.19
   8   2  -6    7.41    1.66
   8   2  -6    7.17    0.48
  -6  -2   6   14.97    0.62
   6  -2  -6   14.51    0.67
   6  -2  -6   12.78    1.06
  -6  -2   6   14.57    0.59
  -6  -2   6   13.44    0.68
   6  -2  -6   13.03    0.77
   6  -2  -6   14.21    0.84
   6  -2  -6   15.26    0.88
   6  -2  -6   14.39    0.53
  -6  -2   6   14.81    0.74
  -6  -2   6   14.19    0.57
  -6  -2   6   13.79    0.83
  -6  -2   6   14.75    0.62
   6  -2  -6   15.93    2.21
   6   2  -6   13.41    0.83
  -6   2   6   14.45    0.63
  -6   2   6   13.83    0.60
   6   2  -6   15.31    0.88
  -6   2   6   14.34    0.75
   6   2  -6   12.44    1.03
   6   2  -6   14.21    0.54
  -6   2   6   14.19    0.71
   6   2  -6   16.93    2.15
  -6   2   6   15.30    0.59
   6   2  -6   14.74    0.70
  -6   2   6   14.03    0.54
  -4  -2   6    0.13    0.15
   4  -2  -6    0.21    0.20
   4  -2  -6    0.38    0.17
  -4  -2   6    0.30    0.11
   4  -2  -6    0.30    0.30
   4  -2  -6    0.19    0.11
  -4  -2   6    0.29    0.15
   4  -2  -6    0.11    1.40
   4  -2  -6    0.28    0.28
   4  -2  -6    0.77    0.23
   4  -2  -6    0.40    0.60
  -4  -2   6    0.17    0.12
  -4  -2   6    0.31    0.13
   4  -2  -6    0.26    0.20
  -4  -2   6    0.10    0.18
  -4   2   6    0.22    0.10
   4   2  -6   -0.44    1.46
  -4   2   6    0.37    0.18
  -4   2   6    0.34    0.12
  -4   2   6    0.22    0.14
   4   2  -6    0.35    0.22
   4   2  -6    0.40    0.27
   4   2  -6    0.07    0.14
   4   2  -6    0.35    0.13
   4   2  -6    0.17    0.25
  -4   2   6    0.15    0.12
   4   2  -6    0.39    0.54
   4   2  -6    0.43    0.21
  -2  -2   6    0.42    0.19
  -2  -2   6    0.43    0.19
   2  -2  -6    0.37    0.13
   2  -2  -6    0.21    1.46
   2  -2  -6    0.51    0.24
  -2  -2   6    0.48    0.16
  -2  -2   6    0.48    0.15
  -2  -2   6    0.38    0.14
   2  -2  -6    0.35    0.20
   2  -2  -6    0.35    0.54
  -2  -2   6    0.25    0.14
   2  -2  -6    0.76    0.30
  -2   2   6    0.30    0.16
  -2   2   6    0.46    0.14
   2   2  -6    0.49    0.24
  -2   2   6    0.47    0.17
  -2   2   6    0.38    0.15
  -2   2   6    0.46    0.13
   2   2  -6    0.69    0.30
   2   2  -6    0.08    0.53
   2   2  -6    0.73    0.31
   2   2  -6    0.60    0.23
   2   2  -6    0.61    0.15
   2   2  -6    0.51    0.30
  -2   2   6    0.41    0.20
   2   2  -6    0.32    0.16
  -2   2   6    0.43    0.12
   2   2  -6    0.10    1.68
   0  -2  -6   14.85    1.02
   0  -2   6   16.34    0.68
   0  -2  -6   15.51    0.57
   0  -2  -6   14.98    0.90
   0  -2   6   14.93    0.72
   0  -2  -6   15.73    0.83
   0   2  -6   16.78    2.07
   0   2   6   14.68    0.76
   0   2   6   15.10    0.63
   0   2   6   16.93    0.64
   0   2   6   15.79    0.61
   0   2   6   15.47    0.89
   0   2  -6   15.73    0.87
   0   2  -6   16.08    0.93
   0   2  -6   15.77    0.73
   0   2  -6   16.13    1.08
   0   2  -6   22.70    4.11
   0   2  -6   15.16    0.84
   0   2  -6   15.68    1.05
   0   2  -6   16.43    0.61
   0   2   6   16.02    0.67
  -2  -2  -6    3.15    0.55
   2  -2   6    3.36    0.37
  -2  -2  -6    3.08    0.30
  -2  -2  -6    0.33    1.49
  -2  -2  -6    3.24    0.38
   2  -2   6    2.73    0.31
  -2   2  -6    6.54    2.92
   2   2   6    3.01    0.31
  -2   2  -6    3.29    0.42
  -2   2  -6    3.05    0.53
  -2   2  -6    2.95    0.40
   2   2   6    3.46    0.32
  -2   2  -6    1.92    0.44
   2   2   6    3.15    0.33
   2   2   6    3.38    0.37
  -2   2  -6    3.44    0.40
  -2   2  -6    3.31    0.32
  -2   2  -6    3.77    0.54
  -2   2  -6    2.51    0.46
  -4  -2  -6   10.16    0.81
   4  -2   6    8.96    0.48
  -4  -2  -6    9.58    0.77
   4  -2   6    9.87    0.53
  -4   2  -6    9.33    0.78
  -4   2  -6    9.69    0.61
  -4   2  -6    9.39    0.53
   4   2   6    9.01    0.48
  -4   2  -6   17.49    4.41
  -4   2  -6    9.79    0.81
   4   2   6   10.25    0.52
  -4   2  -6    9.57    0.48
   6  -2   6    1.38    0.23
  -6  -2  -6    1.78    0.41
   6  -2   6    0.75    0.21
  -6  -2  -6    1.22    0.37
   6   2   6    1.16    0.22
  -6   2  -6    1.25    0.21
   6   2   6    0.72    0.19
  -6   2  -6    1.45    0.25
  -6   2  -6    1.08    0.32
  -6   2  -6    1.48    0.39
  -6   2  -6    0.70    0.29
  -8  -2  -6    1.90    0.37
  -8  -2  -6    2.76    0.50
  -8  -2  -6    1.66    0.35
  -8   2  -6    1.75    0.35
  -8   2  -6    3.04    0.50
  -8   2  -6    1.94    0.40
 -10  -2  -6    0.02    0.18
 -10  -2  -6    0.07    0.22
 -10   2  -6   -0.09    0.16
 -10   2  -6    0.28    0.22
  10   2   6    0.17    0.31
  19  -3  -6    0.30    0.16
  19  -3  -6   -0.19    0.15
  19  -3  -6   -0.03    0.11
  19  -3  -6   -0.02    0.14
  19   3  -6    0.36    0.26
  19   3  -6    0.03    0.13
  19   3  -6    0.15    0.16
  19   3  -6    0.04    0.14
  19   3  -6    0.46    0.18
 -19   3   6    0.11    0.15
  19   3  -6    0.24    0.16
  17  -3  -6    1.87    0.32
  17  -3  -6    1.88    0.26
  17  -3  -6    2.21    0.32
  17  -3  -6    0.96    0.29
  17  -3  -6    1.73    0.47
  17  -3  -6    1.44    0.31
  17   3  -6    1.91    0.28
 -17   3   6    1.77    0.36
  17   3  -6    2.24    0.31
  17   3  -6    2.27    0.54
  17   3  -6    2.07    0.37
  17   3  -6    2.04    0.31
  15  -3  -6    0.46    0.19
 -15  -3   6    0.23    0.15
  15  -3  -6    0.13    0.62
  15  -3  -6    0.43    0.21
  15  -3  -6    0.31    0.24
  15  -3  -6    0.46    0.26
  15  -3  -6    0.33    0.32
 -15  -3   6    0.24    0.15
  15  -3  -6   -0.13    0.14
  15  -3  -6    0.15    0.18
 -15  -3   6   -0.09    0.15
 -15   3   6    0.23    0.12
  15   3  -6    0.36    0.22
 -15   3   6    0.27    0.21
  15   3  -6    0.23    0.15
  15   3  -6    0.19    0.20
  15   3  -6    0.38    0.31
 -15   3   6    0.29    0.16
  15   3  -6    0.37    0.20
  13  -3  -6    1.53    0.28
 -13  -3   6    1.36    0.24
  13  -3  -6    1.46    0.36
  13  -3  -6    0.37    0.58
 -13  -3   6    1.22    0.21
  13  -3  -6    1.42    0.33
  13  -3  -6    1.45    0.46
  13  -3  -6    1.67    0.31
 -13  -3   6    1.45    0.25
  13  -3  -6    1.78    0.33
  13   3  -6    1.31    0.23
  13   3  -6    1.43    0.27
  13   3  -6    1.54    0.36
 -13   3   6    1.28    0.24
 -13   3   6    1.36    0.34
 -13   3   6    1.29    0.23
  13   3  -6    1.43    0.34
  13   3  -6    1.78    0.23
 -13   3   6    1.24    0.18
  13   3  -6    1.35    0.30
  13   3  -6    1.76    0.52
  11  -3  -6    4.42    0.57
 -11  -3   6    4.08    0.37
  11  -3  -6    5.67    0.67
  11  -3  -6    4.81    0.77
  11  -3  -6    4.35    0.44
  11  -3  -6    4.44    0.43
 -11  -3   6    3.67    0.44
 -11  -3   6    4.36    0.39
  11  -3  -6    4.56    0.53
 -11  -3   6    3.62    0.35
  11  -3  -6    1.92    1.01
  11   3  -6    5.09    0.49
 -11   3   6    4.31    0.27
  11   3  -6    4.24    0.37
  11   3  -6    4.66    1.31
  11   3  -6    3.96    0.33
 -11   3   6    4.21    0.57
  11   3  -6    4.68    0.59
 -11   3   6    4.43    0.39
  11   3  -6    4.70    0.50
  11   3  -6    4.15    0.53
  11   3  -6    4.69    0.77
 -11   3   6    4.97    0.44
   9  -3  -6    0.93    0.32
   9  -3  -6    0.66    0.23
  -9  -3   6    0.76    0.18
   9  -3  -6    0.81    0.24
   9  -3  -6    0.84    0.23
  -9  -3   6    0.15    0.27
  -9  -3   6    0.76    0.17
  -9  -3   6    1.57    0.23
   9  -3  -6   -0.14    1.41
   9  -3  -6    0.32    0.23
   9  -3  -6    0.68    0.80
   9  -3  -6    0.76    0.35
  -9  -3   6    0.74    0.22
   9   3  -6    0.80    0.26
   9   3  -6    0.55    0.69
   9   3  -6    0.69    0.27
  -9   3   6    0.82    0.18
   9   3  -6    0.95    0.23
  -9   3   6    0.76    0.19
   9   3  -6    0.49    0.35
  -9   3   6    0.69    0.14
   9   3  -6    0.57    0.16
   9   3  -6    0.94    0.17
  -7  -3   6    0.01    0.13
  -7  -3   6    0.00    0.11
  -7  -3   6   -0.14    0.18
  -7  -3   6    0.08    0.13
   7  -3  -6    0.09    0.24
   7  -3  -6    0.19    1.61
   7  -3  -6   -0.01    0.08
   7  -3  -6    0.14    0.19
  -7  -3   6   -0.13    0.10
   7  -3  -6    0.06    0.17
   7  -3  -6   -0.01    0.52
   7  -3  -6   -0.01    0.23
  -7  -3   6    0.03    0.10
  -7  -3   6    0.00    0.11
   7  -3  -6    0.16    0.16
  -7   3   6    0.05    0.14
   7   3  -6   -0.82    1.77
  -7   3   6   -0.09    0.09
   7   3  -6   -0.02    0.11
   7   3  -6    0.06    0.19
  -7   3   6    0.08    0.12
   7   3  -6   -0.26    0.21
   7   3  -6   -0.10    0.16
   7   3  -6    0.09    0.53
   7   3  -6    0.00    0.10
  -7   3   6    0.02    0.07
  -7   3   6   -0.03    0.08
  -7   3   6    0.10    0.11
   5  -3  -6    0.02    0.10
   5  -3  -6    0.07    0.18
  -5  -3   6   -0.01    0.09
  -5  -3   6    0.05    0.11
   5  -3  -6    0.06    0.21
   5  -3  -6    0.00    0.59
  -5  -3   6    0.07    0.12
  -5  -3   6    0.19    0.15
   5  -3  -6    0.13    0.15
   5  -3  -6   -0.94    1.23
   5  -3  -6    0.05    0.24
  -5  -3   6   -0.10    0.12
  -5   3   6    0.03    0.08
   5   3  -6    0.15    0.23
   5   3  -6    0.01    0.13
   5   3  -6    0.18    0.12
   5   3  -6    0.37    0.47
  -5   3   6   -0.21    0.10
  -5   3   6    0.11    0.12
  -5   3   6    0.09    0.10
  -5   3   6    0.19    0.13
   5   3  -6   -0.06    0.17
  -5   3   6    0.16    0.10
   5   3  -6   -0.04    0.16
   5   3  -6    0.52    1.97
   3  -3  -6    0.64    0.28
   3  -3  -6    0.52    1.42
  -3  -3   6    0.12    0.11
   3  -3  -6    0.16    0.16
   3  -3  -6    0.22    0.25
   3  -3  -6    0.34    0.63
   3  -3  -6   -0.02    0.19
  -3  -3   6    0.12    0.11
  -3  -3   6    0.21    0.13
   3  -3  -6    0.18    0.12
  -3  -3   6    0.10    0.16
  -3  -3   6    0.17    0.18
   3   3  -6    0.10    0.13
   3   3  -6    0.25    0.19
   3   3  -6    0.12    0.53
  -3   3   6    0.16    0.11
  -3   3   6    0.19    0.10
   3   3  -6    0.13    0.19
  -3   3   6    0.07    0.11
  -3   3   6    0.26    0.12
   3   3  -6    0.19    0.10
  -3   3   6    0.08    0.14
   3   3  -6    0.25    0.24
   3   3  -6    0.11    0.25
   3   3  -6    0.58    1.59
  -3   3   6    0.07    0.15
   1  -3  -6    3.47    0.42
   1  -3  -6    3.17    0.30
  -1  -3   6    3.16    0.40
  -1  -3   6    2.94    0.34
   1  -3  -6    4.42    0.58
  -1  -3   6    3.11    0.31
  -1  -3   6    2.87    0.36
   1  -3  -6    3.67    0.55
   1   3  -6    7.55    3.23
  -1   3   6    3.32    0.36
   1   3  -6    3.56    0.52
  -1   3   6    3.75    0.34
   1   3  -6    3.81    0.50
  -1   3   6    3.41    0.31
   1   3  -6    3.36    0.38
   1   3  -6    3.27    0.56
  -1   3   6    2.70    0.35
   1   3  -6    3.29    0.32
  -1   3   6    3.06    0.43
   1   3  -6    2.87    0.91
   1   3  -6    3.80    0.57
  -1   3   6    3.60    0.33
  -1  -3  -6    2.07    0.45
   1  -3   6    2.34    0.31
   1  -3   6    1.81    0.26
  -1  -3  -6    0.15    1.50
  -1  -3  -6    2.05    0.25
  -1  -3  -6    1.99    0.30
  -1  -3  -6    2.43    0.44
  -1   3  -6    1.74    0.24
  -1   3  -6    4.87    2.52
  -1   3  -6    2.10    0.41
  -1   3  -6    2.15    0.38
  -1   3  -6    2.17    0.83
  -1   3  -6    2.40    0.33
  -1   3  -6    2.01    0.45
   1   3   6    2.07    0.25
  -1   3  -6    1.74    0.31
  -1   3  -6    2.11    0.45
   1   3   6    2.09    0.28
   1   3   6    1.96    0.25
   1   3   6    2.13    0.28
  -1   3  -6    1.93    0.42
   3  -3   6   11.42    0.57
  -3  -3  -6   11.24    0.87
  -3  -3  -6   10.64    0.83
  -3   3  -6    9.91    0.67
   3   3   6   10.45    0.54
  -3   3  -6   17.69    3.44
  -3   3  -6   10.43    0.84
   3   3   6   10.47    0.49
   3   3   6   11.44    0.55
  -3   3  -6   10.59    0.66
  -3   3  -6   11.48    0.60
  -3   3  -6   11.02    0.51
   3   3   6   11.06    0.53
  -3   3  -6   11.58    0.90
  -3   3  -6   10.49    0.83
  -5  -3  -6    0.57    0.27
  -5  -3  -6    0.50    0.29
   5  -3   6    0.69    0.19
   5  -3   6    0.55    0.18
  -5   3  -6    0.55    0.30
  -5   3  -6    0.70    0.30
  -5   3  -6    0.63    0.19
  -5   3  -6    0.75    0.19
   5   3   6    0.29    0.15
   5   3   6    0.72    0.19
  -5   3  -6    0.45    0.23
  -5   3  -6    0.71    0.21
   7  -3   6    3.55    0.34
  -7  -3  -6    4.71    0.63
  -7  -3  -6    2.78    0.45
  -7   3  -6    4.83    0.63
  -7   3  -6    3.94    0.35
  -7   3  -6    3.20    0.47
   7   3   6    4.32    0.37
  -7   3  -6    3.14    0.50
  -9  -3  -6    9.00    0.63
  -9  -3  -6    9.38    0.68
  -9  -3  -6    7.83    0.64
  -9   3  -6   10.30    0.71
  -9   3  -6    9.03    0.65
  -9   3  -6    6.77    0.59
  18  -4  -6    6.03    0.37
  18  -4  -6    4.51    0.47
  18  -4  -6    6.49    0.40
  18   4  -6    6.53    0.62
  18   4  -6    4.03    0.34
  18   4  -6    6.42    0.43
  18   4  -6    6.14    0.47
 -18   4   6    5.03    0.47
  18   4  -6    5.41    0.37
  16  -4  -6    6.15    0.46
  16  -4  -6    5.86    0.41
  16  -4  -6    5.23    0.55
  16  -4  -6    6.45    0.46
  16   4  -6    5.15    0.41
  16   4  -6    5.59    0.45
  16   4  -6    5.98    0.51
  16   4  -6    6.50    0.85
 -16   4   6    5.61    0.50
 -16   4   6    4.46    0.54
  16   4  -6    5.98    0.45
  14  -4  -6   13.63    1.05
  14  -4  -6   14.52    0.79
  14  -4  -6   14.95    0.76
 -14  -4   6   14.29    0.60
  14  -4  -6   14.17    0.68
  14  -4  -6   13.66    0.86
 -14   4   6   14.08    0.53
 -14   4   6   14.98    0.65
 -14   4   6   12.70    0.88
  14   4  -6   14.68    0.74
  14   4  -6   14.45    0.55
  14   4  -6   13.19    0.81
  14   4  -6   13.77    1.07
  14   4  -6   14.13    0.63
  14   4  -6   14.95    0.70
  12  -4  -6    0.87    0.85
  12  -4  -6    2.84    0.46
  12  -4  -6    3.63    0.67
 -12  -4   6    2.54    0.29
 -12  -4   6    2.74    0.31
  12  -4  -6    3.15    0.41
  12  -4  -6    3.26    0.39
  12  -4  -6    3.19    0.42
  12   4  -6    3.32    0.65
 -12   4   6    2.95    0.34
  12   4  -6    2.95    0.46
  12   4  -6    3.27    0.30
 -12   4   6    2.58    0.42
  12   4  -6    2.88    0.36
 -12   4   6    2.86    0.25
 -12   4   6    2.69    0.31
  12   4  -6    2.81    0.45
  12   4  -6    3.14    0.34
  12   4  -6    3.13    0.40
  10  -4  -6    1.32    0.40
  10  -4  -6    0.89    0.24
 -10  -4   6    0.85    0.24
  10  -4  -6    1.01    0.25
  10  -4  -6    0.17    0.65
  10  -4  -6   -0.10    1.62
  10  -4  -6    0.85    0.28
 -10  -4   6    0.80    0.20
 -10  -4   6    0.90    0.19
  10  -4  -6    0.83    0.24
 -10  -4   6    0.86    0.19
  10   4  -6    0.90    0.28
  10   4  -6    0.84    0.20
 -10   4   6    0.77    0.19
 -10   4   6    0.74    0.26
 -10   4   6    0.71    0.18
  10   4  -6    1.08    0.40
  10   4  -6    0.67    0.16
  10   4  -6    0.85    0.28
  10   4  -6    1.39    0.76
  10   4  -6    1.03    0.23
 -10   4   6    0.78    0.14
   8  -4  -6    8.03    0.64
   8  -4  -6    6.78    0.53
  -8  -4   6    7.04    0.41
  -8  -4   6    8.17    0.43
  -8  -4   6    6.96    0.42
  -8  -4   6    7.67    0.54
   8  -4  -6    6.79    0.75
  -8  -4   6    7.17    0.43
   8  -4  -6    6.77    1.93
   8   4  -6    7.78    0.50
   8   4  -6    6.49    0.57
  -8   4   6    7.59    0.35
   8   4  -6    7.51    0.61
   8   4  -6    8.16    1.45
  -8   4   6    7.89    0.42
   8   4  -6    7.25    0.39
  -8   4   6    7.96    0.46
   8   4  -6    7.10    0.41
   8   4  -6   12.36    3.73
   8   4  -6    6.91    0.73
  -6  -4   6   10.01    0.46
   6  -4  -6    8.75    0.60
  -6  -4   6    9.54    0.49
   6  -4  -6    9.74    0.69
   6  -4  -6    9.29    0.42
   6  -4  -6    8.19    0.81
  -6  -4   6    9.41    0.50
   6  -4  -6    7.06    1.94
  -6  -4   6    9.59    0.60
  -6  -4   6    8.06    0.52
  -6   4   6    8.67    0.53
   6   4  -6    9.22    0.55
  -6   4   6    8.51    0.55
   6   4  -6    7.78    0.78
   6   4  -6    8.51    0.64
  -6   4   6    9.52    0.46
  -6   4   6    9.27    0.49
  -6   4   6    9.33    0.48
   6   4  -6   17.05    3.41
   6   4  -6    9.33    1.56
  -6   4   6    9.86    0.41
   6   4  -6    9.59    0.45
   6   4  -6    9.99    0.70
   4  -4  -6   -0.54    1.16
  -4  -4   6    0.50    0.18
   4  -4  -6    0.65    0.66
   4  -4  -6    0.36    0.18
   4  -4  -6    0.44    0.29
   4  -4  -6    0.40    0.29
  -4  -4   6    0.35    0.15
   4  -4  -6    0.18    0.11
  -4  -4   6    0.29    0.12
  -4   4   6    0.30    0.16
   4   4  -6    0.32    0.57
  -4   4   6    0.22    0.14
   4   4  -6    0.32    0.19
  -4   4   6    0.35    0.19
   4   4  -6    0.24    0.20
   4   4  -6    0.20    0.27
   4   4  -6    0.98    1.91
  -4   4   6    0.26    0.11
  -4   4   6    0.26    0.13
   4   4  -6    0.20    0.16
   4   4  -6    0.30    0.14
   2  -4  -6    0.10    0.13
  -2  -4   6    0.07    0.13
   2  -4  -6    0.31    0.17
  -2  -4   6    0.29    0.17
   2  -4  -6    0.33    1.46
  -2  -4   6    0.10    0.12
   2  -4  -6   -0.01    0.23
   2   4  -6    0.25    0.57
   2   4  -6    0.12    0.18
  -2   4   6   -0.01    0.12
  -2   4   6    0.18    0.10
   2   4  -6    0.18    0.12
  -2   4   6    0.12    0.11
  -2   4   6    0.03    0.16
   2   4  -6    0.21    0.17
  -2   4   6    0.11    0.10
   2   4  -6    0.70    1.73
   2   4  -6    0.01    0.12
   2   4  -6    0.09    0.22
   2   4  -6    0.17    0.23
   0  -4  -6    1.27    0.24
   0  -4   6    1.18    0.21
   0  -4  -6    1.39    0.38
   0  -4   6    1.28    0.28
   0  -4  -6    0.65    1.55
   0  -4   6    1.38    0.25
   0   4   6    1.24    0.22
   0   4  -6    1.05    0.65
   0   4   6    0.94    0.21
   0   4  -6    1.37    0.39
   0   4  -6    3.13    2.10
   0   4  -6    0.99    0.21
   0   4   6    1.11    0.18
   0   4  -6    1.20    0.31
   0   4   6    1.15    0.21
   0   4  -6    1.34    0.38
   0   4  -6    1.20    0.28
   0   4  -6    1.28    0.21
   0   4  -6    1.13    0.27
   2  -4   6    0.24    0.18
   2  -4   6    0.06    0.11
  -2  -4  -6    0.33    1.34
  -2  -4  -6    0.23    0.24
  -2   4  -6    0.46    0.17
  -2   4  -6    0.21    0.26
  -2   4  -6    0.30    0.14
  -2   4  -6    0.41    0.19
   2   4   6    0.32    0.13
  -2   4  -6    0.26    1.56
  -2   4  -6    0.11    0.25
   2   4   6    0.27    0.14
   2   4   6    0.24    0.14
  -2   4  -6    0.10    0.14
   2   4   6    0.01    0.11
  -2   4  -6    0.28    0.16
  -2   4  -6    0.45    0.28
  -4  -4  -6    0.89    0.34
  -4  -4  -6    0.96    0.33
   4  -4   6    0.46    0.20
   4  -4   6    0.93    0.21
  -4   4  -6    1.52    1.68
  -4   4  -6    0.88    0.25
   4   4   6    0.76    0.20
  -4   4  -6    0.99    0.22
  -4   4  -6    0.77    0.30
  -4   4  -6    0.44    0.27
   4   4   6    0.50    0.18
   4   4   6    0.91    0.20
  -4   4  -6    0.68    0.28
  -4   4  -6    0.80    0.20
  -4   4  -6    0.94    0.22
  -6  -4  -6    0.84    0.32
   6  -4   6    0.77    0.18
  -6  -4  -6    0.84    0.31
  -6   4  -6    0.77    0.21
  -6   4  -6    0.74    0.28
  -6   4  -6    0.68    0.27
  -6   4  -6    0.65    0.29
   6   4   6    0.42    0.17
   6   4   6    0.70    0.18
  -6   4  -6    0.64    0.19
  -8  -4  -6    1.60    0.34
  -8  -4  -6    3.39    0.49
  -8   4  -6    3.10    0.47
  -8   4  -6    1.76    0.33
  -8   4  -6    1.40    0.33
 -10  -4  -6    0.02    0.20
 -10  -4  -6    0.08    0.18
  10   4   6    0.11    0.29
 -10   4  -6    0.23    0.23
 -10   4  -6    0.34    0.19
  19   5  -6    4.11    0.55
 -19   5   6    2.14    0.32
  17  -5  -6    8.13    0.59
  17  -5  -6    9.84    0.50
  17  -5  -6    8.76    0.47
  17   5  -6   10.57    0.81
  17   5  -6    9.82    0.53
  17   5  -6    9.80    0.60
 -17   5   6    8.43    0.64
  15  -5  -6   -0.22    0.51
  15  -5  -6    1.01    0.30
  15  -5  -6    1.30    0.24
 -15  -5   6    1.03    0.21
  15  -5  -6    1.03    0.24
 -15   5   6    0.83    0.21
 -15   5   6    0.81    0.25
  15   5  -6    0.98    0.21
 -15   5   6    0.91    0.16
  15   5  -6    1.51    0.44
  15   5  -6    0.99    0.22
  15   5  -6    1.19    0.26
  15   5  -6    1.26    0.30
 -13  -5   6    1.49    0.24
  13  -5  -6    0.14    0.60
  13  -5  -6    1.32    0.26
  13  -5  -6    1.52    0.34
  13  -5  -6    1.52    0.28
 -13  -5   6    1.29    0.28
 -13   5   6    1.61    0.26
  13   5  -6    1.91    0.49
 -13   5   6    1.25    0.17
  13   5  -6    1.54    0.32
 -13   5   6    1.21    0.34
  13   5  -6    1.51    0.26
  13   5  -6    1.55    0.27
  13   5  -6    2.11    0.41
 -11  -5   6    3.69    0.35
  11  -5  -6    3.80    0.44
  11  -5  -6    0.75    1.91
  11  -5  -6    3.94    0.68
  11  -5  -6    4.33    0.56
  11   5  -6    3.92    0.34
  11   5  -6    3.63    0.37
 -11   5   6    3.48    0.50
  11   5  -6    4.42    0.59
  11   5  -6    4.02    0.43
  11   5  -6    2.98    0.45
  11   5  -6    4.32    0.76
 -11   5   6    3.47    0.34
 -11   5   6    3.61    0.37
 -11   5   6    3.38    0.23
   9  -5  -6    1.71    0.37
   9  -5  -6    1.14    0.25
  -9  -5   6    1.10    0.21
  -9  -5   6    1.04    0.26
   9  -5  -6    0.95    0.37
   9  -5  -6    0.68    0.79
   9  -5  -6   -0.07    1.28
   9   5  -6    1.13    0.42
  -9   5   6    1.20    0.22
  -9   5   6    1.23    0.23
  -9   5   6    1.29    0.16
   9   5  -6    1.11    0.30
   9   5  -6    1.20    0.78
   9   5  -6    1.12    0.29
   9   5  -6    1.05    0.23
   9   5  -6    0.99    0.21
  -9   5   6    1.40    0.35
   9   5  -6    1.31    0.20
  -7  -5   6    3.56    0.33
   7  -5  -6    1.81    0.99
  -7  -5   6    3.58    0.44
   7  -5  -6    4.32    0.73
   7  -5  -6    3.28    0.49
   7  -5  -6    3.22    0.40
  -7  -5   6    3.62    0.36
   7  -5  -6    3.28    0.30
   7   5  -6    3.34    1.05
  -7   5   6    3.81    0.37
   7   5  -6    8.42    3.29
   7   5  -6    3.73    0.51
   7   5  -6    3.53    0.40
  -7   5   6    3.34    0.33
   7   5  -6    3.66    0.50
  -7   5   6    3.60    0.23
  -7   5   6    3.78    0.35
   7   5  -6    4.54    0.37
   7   5  -6    3.26    0.33
   5  -5  -6    1.13    0.42
   5  -5  -6    1.03    0.24
   5  -5  -6    0.93    0.85
  -5  -5   6    0.66    0.23
  -5  -5   6    0.75    0.17
   5  -5  -6    0.35    1.46
   5  -5  -6    0.95    0.17
  -5  -5   6    0.90    0.20
   5   5  -6    0.78    0.64
  -5   5   6    0.84    0.18
   5   5  -6    0.79    0.25
  -5   5   6    0.69    0.19
   5   5  -6    1.26    0.33
   5   5  -6    2.77    2.28
  -5   5   6    0.98    0.16
   5   5  -6    0.77    0.22
   5   5  -6    1.03    0.19
   3  -5  -6    5.17    0.43
  -3  -5   6    5.29    0.46
   3  -5  -6    5.42    0.69
  -3  -5   6    5.98    0.57
  -3   5   6    5.00    0.44
   3   5  -6    4.95    1.20
   3   5  -6    5.61    0.50
  -3   5   6    5.33    0.31
   3   5  -6    5.54    0.61
   3   5  -6    4.97    0.65
   3   5  -6    5.39    0.41
   3   5  -6    5.87    0.63
  -3   5   6    5.27    0.41
  -1  -5   6   -0.01    0.15
  -1  -5   6    0.17    0.12
  -1  -5   6   -0.08    0.11
   1  -5  -6    0.03    0.23
   1  -5  -6    0.12    1.44
  -1   5   6   -0.09    0.09
   1   5  -6    0.16    0.16
   1   5  -6   -0.11    0.21
  -1   5   6   -0.02    0.08
   1   5  -6   -0.63    1.33
   1   5  -6   -0.07    0.18
  -1   5   6   -0.10    0.11
   1   5  -6    0.32    0.23
   1   5  -6    0.05    0.12
   1   5  -6    0.11    0.12
  -1  -5  -6    8.51    0.75
   1  -5   6   10.01    0.54
   1  -5   6    8.99    0.47
   1   5   6    9.65    0.46
  -1   5  -6    9.52    0.81
  -1   5  -6    9.07    0.64
   1   5   6    8.98    0.48
   1   5   6    9.27    0.52
  -1   5  -6    8.30    0.62
  -1   5  -6    8.70    0.48
  -1   5  -6   16.54    3.32
  -1   5  -6    9.58    0.81
   1   5   6    9.58    0.47
  -1   5  -6    9.26    0.46
  -1   5  -6    8.38    0.59
  -1   5  -6    8.45    0.77
  -1   5  -6    8.95    0.54
   3  -5   6    2.17    0.31
   3  -5   6    1.78    0.26
  -3  -5  -6    1.95    0.42
   3   5   6    1.77    0.26
  -3   5  -6    1.28    0.33
   3   5   6    1.47    0.23
  -3   5  -6    1.77    0.34
  -3   5  -6    1.97    0.27
  -3   5  -6    5.91    2.58
  -3   5  -6    1.82    0.29
   3   5   6    1.91    0.27
  -3   5  -6    0.80    0.19
  -3   5  -6    1.83    0.47
  -3   5  -6    1.65    0.29
  -3   5  -6    1.44    0.37
  -5  -5  -6    3.53    0.53
  -5  -5  -6    3.35    0.54
   5  -5   6    2.88    0.32
   5  -5   6    2.77    0.30
  -5   5  -6    7.05    2.49
  -5   5  -6    2.78    0.48
  -5   5  -6    2.27    0.34
  -5   5  -6    3.20    0.31
  -5   5  -6    3.93    0.60
  -5   5  -6    2.62    0.46
  -5   5  -6    3.41    0.34
  -5   5  -6    3.32    0.33
   5   5   6    2.85    0.30
   5   5   6    2.51    0.31
  -7  -5  -6    0.77    0.30
  -7  -5  -6    0.61    0.28
  -7   5  -6    0.35    0.21
  -7   5  -6    0.64    0.30
  -7   5  -6    0.52    0.16
  -7   5  -6    0.42    0.26
  -9  -5  -6    0.36    0.25
  -9  -5  -6    0.21    0.23
  -9   5  -6    0.02    0.23
  -9   5  -6    0.09    0.16
  18  -6  -6    0.17    0.16
  18   6  -6    1.35    0.37
 -18   6   6    0.71    0.21
  18   6  -6    0.82    0.18
  16  -6  -6   -0.19    0.41
  16  -6  -6    0.79    0.25
 -16   6   6    1.01    0.27
  16   6  -6    1.07    0.38
  16   6  -6    0.78    0.22
  16   6  -6    0.91    0.24
  14  -6  -6    0.26    0.16
 -14  -6   6    0.21    0.21
 -14  -6   6   -0.19    0.13
  14  -6  -6    0.04    0.47
  14  -6  -6   -0.02    0.16
  14   6  -6   -0.05    0.18
  14   6  -6    0.11    0.15
 -14   6   6    0.14    0.11
  14   6  -6    0.01    0.26
  14   6  -6   -0.05    0.15
 -14   6   6    0.12    0.18
 -14   6   6    0.09    0.14
  14   6  -6    0.28    0.22
 -12  -6   6    1.80    0.31
  12  -6  -6    2.39    0.42
  12  -6  -6    2.22    0.31
 -12  -6   6    2.28    0.29
 -12   6   6    2.07    0.20
  12   6  -6    2.13    0.31
 -12   6   6    1.69    0.35
  12   6  -6    2.53    0.43
  12   6  -6    2.29    0.30
 -12   6   6    1.90    0.29
  12   6  -6    2.42    0.54
  10  -6  -6    3.16    0.48
 -10  -6   6    2.58    0.30
  10  -6  -6    3.18    0.38
  10  -6  -6    0.54    1.80
 -10  -6   6    2.72    0.39
 -10   6   6    2.89    0.32
  10   6  -6    3.11    0.44
 -10   6   6    2.59    0.30
 -10   6   6    2.68    0.22
 -10   6   6    3.12    0.50
  10   6  -6    2.65    0.33
  10   6  -6    2.45    0.31
  10   6  -6    2.64    0.44
   8  -6  -6    0.19    0.64
  -8  -6   6    0.31    0.19
  -8  -6   6    0.40    0.17
   8  -6  -6   -0.15    1.51
   8  -6  -6    0.49    0.25
   8  -6  -6    0.35    0.18
  -8  -6   6    0.23    0.14
   8  -6  -6    0.53    0.33
  -8   6   6    0.12    0.20
   8   6  -6    0.28    0.61
   8   6  -6    0.54    0.26
  -8   6   6    0.30    0.09
   8   6  -6    0.41    0.21
  -8   6   6    0.54    0.15
  -8   6   6    0.08    0.14
   8   6  -6    0.29    0.14
   8   6  -6    0.20    0.15
   8   6  -6    0.60    0.19
   6  -6  -6   -0.08    0.15
   6  -6  -6   -0.17    0.67
  -6  -6   6    0.02    0.12
  -6  -6   6   -0.06    0.13
  -6  -6   6    0.17    0.17
   6  -6  -6    0.94    1.49
   6   6  -6    0.04    0.13
  -6   6   6    0.08    0.11
  -6   6   6   -0.16    0.09
   6   6  -6    0.19    0.52
   6   6  -6    0.13    0.19
   6   6  -6   -0.16    0.11
   6   6  -6    0.11    0.15
   6   6  -6   -0.07    1.38
   6   6  -6    0.12    0.14
  -6   6   6   -0.05    0.07
   4  -6  -6   -0.36    1.26
   4  -6  -6    0.37    0.75
   4  -6  -6    0.58    0.35
  -4  -6   6    0.21    0.16
  -4  -6   6    0.08    0.13
   4   6  -6    1.04    1.55
   4   6  -6    0.31    0.16
  -4   6   6    0.23    0.13
   4   6  -6    0.14    0.20
   4   6  -6    0.20    0.14
   4   6  -6    0.06    0.57
   4   6  -6    0.23    0.18
  -4   6   6    0.30    0.15
   4   6  -6    0.03    0.24
  -4   6   6    0.26    0.10
  -2  -6   6    3.91    0.45
  -2  -6   6    3.71    0.39
   2  -6  -6    3.45    0.53
   2   6  -6    3.53    0.39
   2   6  -6    4.19    0.53
   2   6  -6    3.64    0.34
  -2   6   6    3.33    0.32
  -2   6   6    3.89    0.39
   2   6  -6    4.77    0.59
   2   6  -6    9.93    3.50
   2   6  -6    3.81    0.62
  -2   6   6    3.41    0.29
   2   6  -6    3.70    0.57
   0  -6   6    1.65    0.24
   0  -6  -6    2.09    0.46
   0  -6  -6    0.51    1.45
   0  -6   6    1.79    0.29
   0   6  -6    4.86    2.38
   0   6  -6    1.66    0.39
   0   6  -6    0.84    0.34
   0   6   6    1.64    0.24
   0   6  -6    2.15    0.27
   0   6   6    2.18    0.24
   0   6  -6    2.54    0.44
   0   6  -6    2.36    0.33
   0   6  -6    2.34    0.39
   0   6   6    2.47    0.31
   0   6  -6    2.04    0.45
  -2  -6  -6   -0.42    1.28
   2  -6   6    0.77    0.19
   2  -6   6    1.11    0.25
  -2  -6  -6    1.04    0.33
  -2   6  -6    1.06    0.27
  -2   6  -6    0.82    0.31
  -2   6  -6    2.62    1.89
  -2   6  -6    0.72    0.19
  -2   6  -6    1.38    0.41
   2   6   6    0.69    0.17
  -2   6  -6    1.10    0.21
   2   6   6    1.35    0.22
  -2   6  -6    0.87    0.23
  -2   6  -6    0.94    0.33
   2   6   6    0.80    0.21
  -2   6  -6    1.08    0.22
  -4  -6  -6    2.58    0.47
   4  -6   6    2.22    0.28
   4  -6   6    2.61    0.30
  -4  -6  -6    2.86    0.47
   4   6   6    2.40    0.26
  -4   6  -6    2.50    0.34
  -4   6  -6    2.66    0.32
  -4   6  -6    1.49    0.37
   4   6   6    1.92    0.26
  -4   6  -6    3.21    0.55
  -4   6  -6    5.67    2.27
  -4   6  -6    1.66    0.36
  -4   6  -6    3.00    0.31
  -4   6  -6    2.69    0.41
  -6  -6  -6    0.24    0.24
  -6  -6  -6    0.18    0.26
  -6   6  -6    0.02    0.26
  -6   6  -6    0.04    0.18
  -6   6  -6    0.38    0.26
  -6   6  -6    0.14    0.14
  -6   6  -6   -0.12    0.13
  -8  -6  -6    0.75    0.26
  -8  -6  -6    0.99    0.30
  -8   6  -6    0.86    0.31
  -8   6  -6    0.71    0.26
  -8   6  -6    0.73    0.22
  17  -7  -6    2.66    0.34
  17   7  -6    4.17    0.55
 -17   7   6    2.12    0.33
  15  -7  -6    0.08    0.50
  15  -7  -6    0.39    0.20
 -15   7   6    0.34    0.19
  15   7  -6   -0.06    0.27
 -13  -7   6    0.22    0.15
 -13  -7   6    0.16    0.17
  13  -7  -6   -0.16    0.50
  13  -7  -6    0.25    0.19
  13   7  -6   -0.25    0.20
 -13   7   6   -0.01    0.18
  13   7  -6   -0.04    0.15
  11  -7  -6    0.99    1.64
 -11  -7   6    0.87    0.19
 -11  -7   6    0.98    0.25
  11  -7  -6    0.22    0.62
  11  -7  -6    0.91    0.28
 -11   7   6    0.96    0.31
  11   7  -6    1.04    0.22
  11   7  -6    1.28    0.33
  11   7  -6    1.26    0.25
 -11   7   6    0.57    0.19
   9  -7  -6    0.31    1.33
   9  -7  -6    2.30    0.40
   9  -7  -6    0.32    0.71
  -9  -7   6    2.38    0.28
  -9  -7   6    2.31    0.36
   9   7  -6    2.22    0.29
  -9   7   6    2.23    0.27
  -9   7   6    2.05    0.27
  -9   7   6    2.25    0.42
   9   7  -6    2.24    0.40
   9   7  -6    2.47    0.40
   9   7  -6    2.36    0.32
   7  -7  -6   -0.03    1.05
   7  -7  -6    0.12    0.61
  -7  -7   6    0.34    0.16
  -7  -7   6    0.26    0.20
   7   7  -6    0.17    0.17
   7   7  -6    0.13    0.15
  -7   7   6    0.36    0.24
   7   7  -6    1.14    1.70
  -7   7   6    0.10    0.09
   7   7  -6    0.34    0.17
  -7   7   6    0.36    0.13
  -7   7   6    0.38    0.15
   5  -7  -6    0.84    0.80
  -5  -7   6    1.60    0.26
  -5  -7   6    1.86    0.33
   5  -7  -6    0.51    1.33
  -5   7   6    1.68    0.19
   5   7  -6    1.26    0.24
   5   7  -6    1.66    0.45
  -5   7   6    1.82    0.27
   5   7  -6    1.77    0.28
   5   7  -6    1.44    0.23
   5   7  -6    1.92    0.35
  -5   7   6    1.39    0.22
   5   7  -6    5.68    2.70
  -3  -7   6    8.88    0.60
  -3  -7   6   10.00    0.54
   3  -7  -6    9.41    0.78
   3   7  -6    8.54    0.77
   3   7  -6    9.95    0.77
   3   7  -6    9.87    0.54
  -3   7   6    9.56    0.41
  -3   7   6    9.03    0.47
   3   7  -6    8.98    0.44
   3   7  -6    9.20    0.66
  -3   7   6    9.96    0.53
  -1  -7   6    5.27    0.47
   1  -7  -6    4.05    0.61
  -1  -7   6    4.17    0.36
  -1  -7   6    4.65    0.49
   1   7  -6   12.33    3.67
  -1   7   6    4.82    0.31
  -1   7   6    4.53    0.44
   1   7  -6    5.46    0.67
  -1   7   6    4.94    0.39
   1   7  -6    5.88    0.75
   1   7  -6    4.98    0.40
   1   7  -6    5.31    0.58
   1   7  -6    5.44    0.49
  -1  -7  -6    0.86    0.32
   1  -7   6    0.34    0.14
   1  -7   6    0.81    0.22
  -1  -7  -6    0.18    1.28
  -1   7  -6    1.27    1.44
  -1   7  -6    0.56    0.21
   1   7   6    0.76    0.21
  -1   7  -6    0.42    0.25
  -1   7  -6    0.68    0.19
   1   7   6    0.34    0.15
  -1   7  -6    0.64    0.28
  -1   7  -6    0.14    0.30
   1   7   6    0.50    0.15
  -1   7  -6    0.34    0.19
  -1   7  -6    0.56    0.17
  -1   7  -6    0.60    0.17
   3  -7   6    0.53    0.16
   3  -7   6    0.51    0.20
  -3  -7  -6    0.47    0.27
  -3   7  -6    0.05    0.14
  -3   7  -6    0.46    0.26
  -3   7  -6    0.53    0.17
  -3   7  -6    0.39    0.17
   3   7   6    0.37    0.15
  -3   7  -6    0.46    0.20
  -3   7  -6    0.60    0.17
  -3   7  -6    0.62    0.35
  -3   7  -6    0.39    0.25
   3   7   6    0.34    0.14
  -5  -7  -6    5.90    0.58
  -5  -7  -6    5.81    0.65
  -5   7  -6    6.18    0.67
  -5   7  -6    4.22    0.55
  -5   7  -6    5.15    0.43
  -5   7  -6    4.59    0.60
   5   7   6    5.75    0.42
  -5   7  -6    6.16    0.44
  -7  -7  -6    0.16    0.24
  -7  -7  -6    0.07    0.21
  -7   7  -6    0.19    0.21
  -7   7  -6    0.27    0.25
  -7   7  -6   -0.05    0.14
  -7   7  -6    0.13    0.18
  -7   7  -6    0.10    0.12
  16  -8  -6    0.26    0.17
  16  -8  -6    0.12    0.39
 -16   8   6    0.07    0.15
  14  -8  -6    0.27    0.19
  14  -8  -6    0.18    0.55
 -14   8   6    0.04    0.16
  12  -8  -6    0.12    0.57
  12  -8  -6    0.93    0.26
 -12  -8   6    0.61    0.21
  12   8  -6    0.69    0.20
 -12   8   6    0.58    0.24
  10  -8  -6   14.97    0.86
 -10  -8   6   15.03    0.76
  10   8  -6   13.94    0.64
 -10   8   6   14.41    0.90
   8  -8  -6    0.00    0.60
   8  -8  -6    0.38    1.22
  -8  -8   6    0.11    0.18
  -8  -8   6   -0.36    0.13
  -8   8   6   -0.13    0.17
  -8   8   6   -0.05    0.13
   8   8  -6    0.12    0.17
   8   8  -6    0.07    0.16
   8   8  -6    0.07    0.16
  -6  -8   6   11.66    0.66
  -6  -8   6   10.23    0.54
  -6   8   6    9.46    0.73
   6   8  -6   10.50    0.69
   6   8  -6   10.26    0.54
  -6   8   6   10.72    0.50
  -6   8   6    9.85    0.53
  -6   8   6   10.13    0.39
   6   8  -6   11.42    0.56
  -4  -8   6    4.41    0.42
   4  -8  -6    4.70    0.63
  -4  -8   6    4.41    0.48
   4   8  -6    4.47    0.59
   4   8  -6    4.47    0.54
   4   8  -6    4.25    0.41
  -4   8   6    3.74    0.25
   4   8  -6    3.90    0.38
   4   8  -6   11.89    3.50
  -4   8   6    4.27    0.37
  -4   8   6    4.12    0.40
  -2  -8   6    1.25    0.26
   2  -8  -6    1.69    0.42
  -2  -8   6    1.38    0.32
   2  -8  -6   -0.34    1.01
   2   8  -6    1.48    0.32
  -2   8   6    1.25    0.24
  -2   8   6    1.22    0.18
   2   8  -6    1.18    0.35
   2   8  -6    1.85    0.29
   2   8  -6    1.28    0.41
  -2   8   6    1.44    0.23
   2   8  -6    1.15    0.22
   2   8  -6    3.53    2.05
   0  -8  -6   -0.12    1.13
   0  -8  -6    0.80    0.32
   0  -8   6    1.00    0.23
   0  -8   6    0.70    0.20
   0   8   6    0.98    0.17
   0   8  -6    0.83    0.20
   0   8  -6    1.10    0.35
   0   8  -6    0.79    0.31
   0   8  -6    2.25    1.61
   0   8   6    1.01    0.22
   0   8  -6    0.89    0.21
   0   8  -6    0.63    0.29
   0   8  -6    1.05    0.23
   0   8  -6    0.83    0.24
   2  -8   6    0.97    0.23
   2  -8   6    0.80    0.19
  -2  -8  -6    1.03    0.33
   2   8   6    0.99    0.19
  -2   8  -6    1.06    0.20
  -2   8  -6    1.08    0.20
  -2   8  -6    0.81    0.20
  -2   8  -6    1.20    0.36
  -2   8  -6    1.17    0.29
   2   8   6    0.94    0.22
  -2   8  -6    1.01    0.22
  -2   8  -6    0.86    0.31
  -2   8  -6    1.20    0.32
  -4  -8  -6    0.46    0.24
   4   8   6    0.63    0.22
  -4   8  -6    0.66    0.30
  -4   8  -6    0.17    0.24
  -4   8  -6    0.43    0.18
  -4   8  -6    0.67    0.22
  -4   8  -6    0.37    0.21
  -6  -8  -6    2.61    0.39
  -6  -8  -6    3.48    0.43
  -6   8  -6    4.75    0.49
   6   8   6    3.72    0.33
  -6   8  -6    3.74    0.46
  -6   8  -6    3.97    0.42
  15  -9  -6    1.15    0.24
  15  -9  -6    0.01    0.40
 -15   9   6    0.94    0.23
  13  -9  -6    3.06    0.39
 -13   9   6    3.15    0.43
  11  -9  -6    0.21    0.50
  11  -9  -6    0.33    0.22
  11  -9  -6   -0.58    1.35
 -11   9   6    0.16    0.20
  -7  -9   6    8.11    0.55
   7   9  -6    7.28    0.44
  -7   9   6    6.73    0.59
  -7   9   6    6.50    0.45
   7   9  -6    6.61    0.51
   5  -9  -6    0.04    1.01
  -5  -9   6    2.26    0.35
  -5  -9   6    1.75    0.28
   5   9  -6    1.90    0.28
  -5   9   6    1.83    0.25
   5   9  -6    1.83    0.34
  -5   9   6    1.69    0.27
   5   9  -6    2.25    0.43
  -5   9   6    1.68    0.18
  -3  -9   6    2.19    0.32
   3  -9  -6   -0.09    1.01
  -3  -9   6    1.13    0.30
   3  -9  -6    1.58    0.40
  -3   9   6    1.39    0.18
  -3   9   6    1.37    0.25
  -3   9   6    1.40    0.26
   3   9  -6    2.11    0.43
   3   9  -6    1.22    0.32
   3   9  -6    1.19    0.21
  -3   9   6    1.58    0.24
   3   9  -6    1.60    0.32
  -1  -9   6   -0.07    0.15
   1  -9  -6    0.27    0.28
   1  -9  -6    0.11    1.15
   1   9  -6   -0.08    0.25
   1   9  -6    0.05    0.13
  -1   9   6   -0.07    0.13
   1   9  -6    0.06    0.13
   1   9  -6   -0.13    0.17
  -1   9   6   -0.07    0.08
   1   9  -6    0.07    0.14
   1   9  -6    0.19    0.22
  -1  -9  -6    0.59    1.28
  -1  -9  -6    0.64    0.28
  -1   9  -6    0.33    0.14
   1   9   6    0.24    0.15
  -1   9  -6    0.35    0.18
  -1   9  -6    0.16    0.27
  -1   9  -6    0.46    0.26
  -1   9  -6    0.29    0.17
   1   9   6    0.37    0.12
  -1   9  -6    0.35    0.26
  -3  -9  -6    2.00    0.40
  -3   9  -6    1.97    0.38
  -3   9  -6    1.23    0.33
  -3   9  -6    1.59    0.28
  -3   9  -6    1.83    0.27
   3   9   6    2.09    0.29
  -3   9  -6    1.72    0.36
  -5  -9  -6    0.53    0.23
  -5   9  -6    0.25    0.25
  -5   9  -6    0.63    0.18
  -5   9  -6    0.31    0.19
   5   9   6    0.47    0.18
  -5   9  -6    0.44    0.25
  -5   9  -6    0.55    0.17
  14 -10  -6    0.22    0.45
 -14  10   6    0.17    0.13
  12 -10  -6    0.08    0.42
 -12  10   6    0.21    0.17
  10 -10  -6    0.05    0.53
  10 -10  -6   -0.34    1.26
 -10  10   6    0.14    0.17
   8 -10  -6    0.55    0.73
   8 -10  -6    0.35    1.10
  -8  10   6    2.35    0.37
   6 -10  -6   -0.01    0.91
   6  10  -6    0.11    0.17
  -6  10   6    0.13    0.19
   4 -10  -6    5.91    0.71
  -4 -10   6    6.88    0.56
  -4  10   6    7.42    0.45
   4  10  -6    7.63    0.44
   4  10  -6    7.02    0.51
   4  10  -6    6.95    0.63
   2 -10  -6    0.09    1.13
   2 -10  -6    0.11    0.26
   2  10  -6    0.07    0.22
   2  10  -6    0.22    0.22
   2  10  -6    0.14    0.14
   0 -10  -6    0.00    0.20
   0 -10  -6   -0.84    0.96
   0  10  -6    0.19    0.12
   0  10  -6   -0.08    0.20
   0  10  -6    0.14    0.27
   0  10  -6    0.09    0.14
   0  10  -6    0.14    0.24
  -2 -10  -6    0.14    0.21
  -2  10  -6    0.03    0.13
  -2  10  -6    0.23    0.26
  -2  10  -6    0.17    0.20
  -2  10  -6    0.11    0.14
   2  10   6    0.17    0.17
  -2  10  -6    0.16    0.22
  -4 -10  -6    1.47    0.29
  -4  10  -6    1.46    0.30
  -4  10  -6    1.90    0.37
   4  10   6    1.65    0.24
  -4  10  -6    0.85    0.19
  -4  10  -6    1.88    0.24
  -4  10  -6    0.88    0.27
  11 -11  -6    0.11    0.47
  11 -11  -6   -0.37    1.19
 -11  11   6    0.07    0.14
   9 -11  -6   -0.19    0.51
   9 -11  -6    0.12    1.16
  -9  11   6    0.40    0.20
   7 -11  -6   -0.01    0.90
  -7  11   6    1.25    0.27
  -5  11   6    3.78    0.45
  -5  11   6    5.80    0.38
   3 -11  -6    0.22    0.26
   3 -11  -6    0.20    1.02
  -3  11   6    0.19    0.15
   3  11  -6   -0.11    0.13
   3  11  -6    0.14    0.22
   1 -11  -6    0.69    1.08
   1 -11  -6    0.61    0.26
   1  11  -6    0.65    0.20
   1  11  -6    0.90    0.29
   1  11  -6    0.70    0.26
  -1 -11  -6    0.27    0.20
  -1  11  -6    0.26    0.18
  -1  11  -6    0.38    0.16
  -1  11  -6    0.63    0.26
   1  11   6    0.19    0.16
  -1  11  -6    0.22    0.15
  -3 -11  -6    0.12    0.16
  -3  11  -6    0.34    0.13
  -3  11  -6    0.16    0.16
  -3  11  -6    0.07    0.10
   3  11   6    0.32    0.15
 -10  12   6    0.08    0.13
 -10  12   6    0.04    0.11
   4 -12  -6    0.40    0.99
  -4  12   6    0.80    0.16
   2 -12  -6    0.24    0.20
   2 -12  -6    0.54    0.93
   2  12  -6    0.25    0.15
   2  12  -6   -0.04    0.17
   0 -12  -6    1.21    0.25
   0  12  -6    1.69    0.29
   0  12   6    1.43    0.21
  18   0  -7    0.04    0.14
  18   0  -7    0.07    0.15
  18   0  -7    0.11    0.21
  18   0  -7    0.03    0.11
  18   0  -7    0.03    0.12
  16   0  -7    0.10    0.19
  16   0  -7   -0.03    0.11
  16   0  -7    0.18    0.27
  16   0  -7    0.17    0.16
  16   0  -7    0.18    0.17
  16   0  -7    0.12    0.16
  14   0  -7   -0.05    0.16
 -14   0   7    0.05    0.11
  14   0  -7    0.18    0.17
  14   0  -7    0.11    0.18
 -14   0   7   -0.13    0.11
  14   0  -7   -0.02    0.23
 -14   0   7    0.15    0.14
  14   0  -7   -0.06    0.12
  14   0  -7    0.06    0.14
  14   0  -7   -0.08    0.17
  14   0  -7    0.17    0.47
 -12   0   7    0.08    0.11
  12   0  -7   -0.08    0.11
  12   0  -7    0.27    0.54
  12   0  -7   -0.01    0.12
  12   0  -7    0.03    0.25
 -12   0   7   -0.03    0.12
 -12   0   7    0.07    0.14
  12   0  -7   -0.13    0.19
  12   0  -7   -0.04    0.17
  12   0  -7    0.12    0.17
  12   0  -7    0.01    0.17
 -10   0   7   -0.03    0.11
  10   0  -7    0.05    0.16
  10   0  -7   -0.05    0.10
  10   0  -7    0.13    0.18
  10   0  -7    0.11    0.43
  10   0  -7   -0.11    0.16
  10   0  -7   -0.11    0.20
  10   0  -7   -0.05    0.13
  10   0  -7    0.03    0.16
  10   0  -7    1.46    1.95
 -10   0   7   -0.05    0.12
 -10   0   7    0.03    0.12
  -8   0   7   -0.03    0.10
  -8   0   7   -0.06    0.11
   8   0  -7   -0.17    0.15
   8   0  -7   -0.04    0.17
   8   0  -7    0.05    0.11
   8   0  -7   -0.01    0.38
   8   0  -7    0.44    1.65
   8   0  -7    0.01    0.13
  -8   0   7    0.01    0.11
   8   0  -7   -0.02    0.19
   8   0  -7    0.10    0.24
  -6   0   7   -0.09    0.11
   6   0  -7    0.12    0.26
   6   0  -7   -0.02    0.14
   6   0  -7    0.00    0.49
  -6   0   7    0.06    0.12
   6   0  -7   -0.01    0.15
   6   0  -7    0.07    0.11
  -6   0   7    0.08    0.12
   6   0  -7    0.13    0.20
   6   0  -7    0.07    1.60
   6   0  -7   -0.07    0.16
  -4   0   7    0.08    0.12
   4   0  -7    0.12    1.48
   4   0  -7    0.04    0.26
  -4   0   7   -0.15    0.10
   4   0  -7    0.04    0.12
   4   0  -7    0.07    0.51
   4   0  -7    0.06    0.20
   4   0  -7   -0.02    0.29
   4   0  -7    0.11    0.16
   4   0  -7   -0.02    0.16
   4   0  -7    0.09    0.20
  -4   0   7    0.03    0.12
   2   0  -7   -0.05    0.15
  -2   0   7   -0.14    0.10
   2   0  -7   -0.13    0.13
   2   0  -7   -0.07    0.11
  -2   0   7    0.08    0.12
   2   0  -7    0.22    0.53
   2   0  -7   -0.05    0.18
  -2   0   7    0.09    0.14
   2   0  -7    0.03    0.19
   2   0  -7   -0.02    1.48
   2   0  -7   -0.14    0.24
   0   0  -7    0.10    0.17
   0   0   7    0.04    0.13
   0   0   7    0.01    0.14
   0   0  -7   -0.10    0.13
   0   0  -7    0.85    1.60
   0   0  -7    0.07    0.19
   0   0  -7    0.16    0.25
   0   0  -7    0.21    0.29
   0   0  -7    0.06    0.12
  -2   0  -7   -0.13    0.23
  -2   0  -7    0.15    0.14
   2   0   7   -0.02    0.13
  -2   0  -7    0.08    0.22
  -2   0  -7   -0.61    1.51
  -2   0  -7    0.16    0.15
   2   0   7    0.14    0.16
  -4   0  -7    0.04    0.22
  -4   0  -7   -0.16    0.20
  -4   0  -7   -0.19    0.23
  -6   0  -7    0.14    0.22
  -6   0  -7    0.03    0.19
  -6   0  -7   -0.18    0.22
  17  -1  -7    0.33    0.17
  17  -1  -7    0.52    0.18
  17  -1  -7    0.36    0.17
  17  -1  -7    0.40    0.20
  17  -1  -7    0.17    0.24
  17  -1  -7    0.43    0.16
  17   1  -7    0.39    0.19
  17   1  -7    0.45    0.28
  17   1  -7    0.39    0.17
  17   1  -7    0.56    0.19
  17   1  -7    0.45    0.16
  17   1  -7    0.19    0.19
  15  -1  -7    0.56    0.20
  15  -1  -7    0.72    0.25
  15  -1  -7    0.21    0.48
  15  -1  -7    1.01    0.25
  15  -1  -7    0.71    0.34
  15  -1  -7    0.41    0.17
  15  -1  -7    0.60    0.22
  15   1  -7    0.49    0.22
  15   1  -7    0.53    0.19
  15   1  -7    0.55    0.20
  15   1  -7    0.75    0.32
  15   1  -7    0.34    0.18
  15   1  -7    0.51    0.22
  13  -1  -7    7.06    0.61
  13  -1  -7    7.82    0.40
  13  -1  -7    7.85    0.59
  13  -1  -7    7.83    0.53
  13  -1  -7    8.37    0.82
  13  -1  -7    7.50    0.48
 -13  -1   7    7.38    0.45
  13  -1  -7    7.74    0.56
 -13  -1   7    8.25    0.44
 -13  -1   7    7.87    0.43
 -13   1   7    7.61    0.41
  13   1  -7    7.46    0.52
 -13   1   7    7.56    0.46
  13   1  -7    8.25    0.51
  13   1  -7    7.89    0.78
  13   1  -7    7.98    0.63
  13   1  -7    7.80    0.61
  13   1  -7    8.34    0.42
 -13   1   7    7.53    0.44
  11  -1  -7    3.28    1.24
  11  -1  -7    5.99    0.88
  11  -1  -7    5.15    0.47
  11  -1  -7    4.63    0.45
  11  -1  -7    5.39    0.41
 -11  -1   7    5.30    0.42
 -11  -1   7    4.62    0.50
  11  -1  -7    4.13    0.55
 -11  -1   7    4.39    0.39
  11  -1  -7    5.52    0.65
  11  -1  -7    5.76    0.56
 -11  -1   7    5.33    0.45
 -11   1   7    5.14    0.34
  11   1  -7    5.83    0.42
  11   1  -7    5.34    0.60
  11   1  -7    4.51    1.37
  11   1  -7    4.61    0.49
 -11   1   7    4.79    0.40
  11   1  -7    6.17    0.70
  11   1  -7    5.98    0.86
  11   1  -7    5.52    0.50
 -11   1   7    4.94    0.44
  -9  -1   7    0.33    0.14
   9  -1  -7    0.63    0.24
  -9  -1   7    0.55    0.17
   9  -1  -7    0.77    0.31
   9  -1  -7    0.69    0.69
   9  -1  -7    0.64    0.22
  -9  -1   7    0.64    0.17
   9  -1  -7   -0.37    1.84
   9  -1  -7    0.71    0.18
   9  -1  -7    0.77    0.22
   9  -1  -7    0.36    0.32
  -9  -1   7    0.70    0.24
   9   1  -7    0.53    0.56
   9   1  -7    0.64    0.25
   9   1  -7    0.82    0.26
  -9   1   7    0.53    0.19
   9   1  -7    0.68    0.18
   9   1  -7    0.60    1.88
  -9   1   7    0.53    0.16
   9   1  -7    0.64    0.24
   9   1  -7    0.58    0.30
  -9   1   7    0.42    0.15
   9   1  -7    0.64    0.20
   7  -1  -7    1.63    0.39
   7  -1  -7    1.38    0.28
  -7  -1   7    1.57    0.32
   7  -1  -7    1.34    0.81
   7  -1  -7    1.81    0.32
   7  -1  -7    1.50    0.47
  -7  -1   7    1.03    0.21
  -7  -1   7    1.40    0.23
   7  -1  -7    0.06    1.49
   7  -1  -7    1.73    0.34
  -7  -1   7    1.64    0.26
   7  -1  -7    1.52    0.24
   7   1  -7    1.11    0.25
   7   1  -7    1.22    0.21
  -7   1   7    1.37    0.21
   7   1  -7    1.31    0.33
   7   1  -7    0.75    1.96
  -7   1   7    1.12    0.23
   7   1  -7    1.54    0.84
   7   1  -7    1.75    0.50
   7   1  -7    1.44    0.33
   7   1  -7    1.53    0.28
  -7   1   7    1.48    0.26
  -7   1   7    1.38    0.23
   5  -1  -7    1.49    0.28
   5  -1  -7    1.32    0.28
   5  -1  -7    1.42    0.37
  -5  -1   7    1.09    0.20
   5  -1  -7    1.40    0.46
   5  -1  -7    1.55    0.24
   5  -1  -7    0.11    1.19
  -5  -1   7    1.27    0.22
   5  -1  -7    1.30    0.31
  -5  -1   7    1.22    0.23
   5  -1  -7    1.53    0.87
   5   1  -7    1.73    0.49
   5   1  -7    1.13    0.26
   5   1  -7    1.18    0.22
  -5   1   7    1.34    0.24
   5   1  -7    1.41    0.35
   5   1  -7    1.60    0.87
   5   1  -7    1.57    0.34
  -5   1   7    1.22    0.20
   5   1  -7    0.86    1.70
  -5   1   7    1.27    0.23
   5   1  -7    1.19    0.24
   3  -1  -7    3.35    1.21
   3  -1  -7    5.36    0.42
   3  -1  -7    5.79    0.49
   3  -1  -7    6.52    0.71
  -3  -1   7    5.82    0.39
  -3  -1   7    5.94    0.49
   3  -1  -7    5.58    0.61
   3  -1  -7    6.09    0.51
   3  -1  -7    5.82    0.70
  -3  -1   7    4.83    0.38
  -3   1   7    5.75    0.48
   3   1  -7    5.85    1.44
   3   1  -7    5.93    0.68
   3   1  -7    5.69    0.61
   3   1  -7    1.76    1.84
   3   1  -7    6.78    0.74
   3   1  -7    6.18    0.43
   3   1  -7    5.94    0.43
  -3   1   7    5.79    0.44
   3   1  -7    5.82    0.50
  -3   1   7    6.11    0.44
  -1  -1   7    9.91    0.50
   1  -1  -7    9.35    1.52
   1  -1  -7   11.41    0.68
   1  -1  -7   11.41    0.77
   1  -1  -7    9.82    0.49
  -1  -1   7   11.71    0.58
   1  -1  -7   11.03    0.87
   1   1  -7   10.75    0.50
  -1   1   7   12.01    0.58
   1   1  -7   11.89    0.60
   1   1  -7   11.03    0.75
  -1   1   7    9.82    0.49
  -1   1   7   10.69    0.49
   1   1  -7   10.39    0.68
   1   1  -7   10.71    0.67
   1   1  -7   10.71    0.83
   1   1  -7    9.28    1.53
  -1   1   7    9.90    0.50
   1   1  -7   12.48    0.90
  -1  -1  -7    3.31    0.53
  -1  -1  -7    2.40    0.32
  -1  -1  -7    2.21    0.27
   1  -1   7    2.62    0.30
  -1  -1  -7    1.52    0.37
  -1  -1  -7    1.58    1.98
   1  -1   7    2.87    0.34
   1   1   7    2.35    0.33
  -1   1  -7    2.62    0.35
  -1   1  -7    2.43    1.92
  -1   1  -7    1.89    0.39
  -1   1  -7    2.59    0.30
   1   1   7    2.62    0.30
  -1   1  -7    2.71    0.32
  -1   1  -7    2.64    0.47
  -3  -1  -7    2.28    0.44
  -3  -1  -7    0.38    1.69
  -3  -1  -7    1.34    0.22
   3  -1   7    1.60    0.24
   3  -1   7    1.90    0.26
  -3  -1  -7    1.66    0.40
  -3   1  -7    1.56    0.23
   3   1   7    1.95    0.26
  -3   1  -7    1.91    1.93
  -3   1  -7    2.20    0.29
  -3   1  -7    1.89    0.40
  -3   1  -7    2.67    0.48
   3   1   7    2.09    0.28
  -3   1  -7    1.86    0.25
  -5  -1  -7    3.47    0.47
  -5  -1  -7    3.59    0.48
  -5  -1  -7    2.55    0.44
  -5   1  -7    2.38    0.40
  -5   1  -7    2.85    0.46
  -5   1  -7    2.55    0.41
  -7  -1  -7    0.32    0.22
  -7  -1  -7    0.34    0.22
  -7  -1  -7    0.50    0.22
  -7   1  -7    0.52    0.24
  -7   1  -7    0.37    0.20
  -7   1  -7    0.68    0.24
  18  -2  -7    0.53    0.16
  18  -2  -7    0.29    0.12
  18  -2  -7    0.19    0.16
  18   2  -7    0.56    0.19
  18   2  -7    0.84    0.21
  18   2  -7    0.56    0.16
  18   2  -7    0.50    0.14
  18   2  -7    0.79    0.28
  16  -2  -7    4.79    0.51
  16  -2  -7    6.60    0.45
  16  -2  -7    5.20    0.37
  16  -2  -7    6.63    0.45
  16  -2  -7    6.45    0.49
  16  -2  -7    5.71    0.61
  16   2  -7    5.94    0.63
  16   2  -7    6.14    0.43
  16   2  -7    6.36    0.49
  16   2  -7    5.71    0.45
  16   2  -7    4.26    0.46
  16   2  -7    5.82    0.39
  14  -2  -7    9.97    0.87
  14  -2  -7   10.24    0.55
  14  -2  -7    9.64    0.70
 -14  -2   7    9.36    0.50
 -14  -2   7    8.57    0.49
 -14  -2   7    9.52    0.48
  14  -2  -7   10.35    0.67
  14  -2  -7   10.53    0.62
  14   2  -7   10.27    0.59
  14   2  -7    9.96    0.68
 -14   2   7    9.87    0.54
  14   2  -7    9.95    0.66
 -14   2   7    9.85    0.46
  14   2  -7   10.90    0.47
 -14   2   7   10.32    0.54
  14   2  -7    9.97    0.89
  14   2  -7   10.13    0.55
  12  -2  -7    5.69    0.54
  12  -2  -7    6.23    0.71
  12  -2  -7    5.87    0.48
  12  -2  -7    6.31    0.42
 -12  -2   7    5.49    0.45
  12  -2  -7    4.84    0.57
 -12  -2   7    5.77    0.39
  12  -2  -7    6.10    0.53
  12  -2  -7    5.94    0.42
  12   2  -7    6.16    0.65
  12   2  -7    6.71    0.45
  12   2  -7    5.57    0.51
  12   2  -7    6.73    0.93
  12   2  -7    6.17    0.55
 -12   2   7    5.86    0.48
 -12   2   7    6.06    0.45
 -12   2   7    6.61    0.37
  12   2  -7    6.98    0.45
  12   2  -7    4.80    1.28
  10  -2  -7    2.96    0.63
  10  -2  -7    2.17    0.36
 -10  -2   7    1.83    0.28
 -10  -2   7    2.01    0.27
 -10  -2   7    1.55    0.31
 -10  -2   7    1.92    0.27
  10  -2  -7    2.80    0.46
  10  -2  -7    1.63    0.35
  10  -2  -7    2.36    0.32
  10  -2  -7    2.13    0.26
  10  -2  -7    1.24    0.83
  10  -2  -7    0.91    1.74
 -10   2   7    1.98    0.24
  10   2  -7    2.26    0.41
  10   2  -7    2.62    0.35
  10   2  -7    2.45    0.56
  10   2  -7    2.31    0.96
  10   2  -7    2.20    0.41
  10   2  -7    2.53    0.29
 -10   2   7    2.08    0.29
  10   2  -7    2.11    0.32
 -10   2   7    1.97    0.26
   8  -2  -7    6.15    0.52
  -8  -2   7    4.41    0.45
  -8  -2   7    6.53    0.41
  -8  -2   7    5.85    0.44
   8  -2  -7    5.92    0.63
   8  -2  -7    5.01    1.59
   8  -2  -7    5.60    0.41
   8  -2  -7    6.65    0.58
  -8  -2   7    6.01    0.56
   8  -2  -7    5.78    0.48
   8  -2  -7    6.56    0.92
   8   2  -7    6.16    0.53
   8   2  -7    6.35    0.88
   8   2  -7    6.86    1.68
   8   2  -7    6.09    0.67
  -8   2   7    6.42    0.37
   8   2  -7    6.43    0.70
  -8   2   7    6.53    0.51
   8   2  -7    7.28    0.49
  -8   2   7    6.35    0.47
   6  -2  -7    0.02    1.41
   6  -2  -7    0.13    0.25
   6  -2  -7    0.28    0.55
   6  -2  -7    0.04    0.12
   6  -2  -7    0.37    0.22
   6  -2  -7    0.16    0.17
   6  -2  -7    0.18    0.17
  -6  -2   7   -0.01    0.12
   6  -2  -7    0.38    0.24
  -6  -2   7    0.37    0.15
  -6  -2   7    0.02    0.17
  -6  -2   7    0.17    0.14
   6   2  -7    0.24    0.13
   6   2  -7    0.31    1.61
   6   2  -7    0.36    0.30
   6   2  -7    0.12    0.14
   6   2  -7    0.31    0.22
  -6   2   7    0.04    0.11
  -6   2   7    0.08    0.13
  -6   2   7    0.05    0.11
   6   2  -7    0.36    0.49
   6   2  -7    0.22    0.20
   4  -2  -7    1.29    0.33
   4  -2  -7    1.54    0.30
  -4  -2   7    1.51    0.25
   4  -2  -7    1.73    0.36
   4  -2  -7    0.89    0.72
  -4  -2   7    1.30    0.21
   4  -2  -7    1.71    0.44
   4  -2  -7    0.08    1.20
   4  -2  -7    1.20    0.22
  -4  -2   7    1.15    0.21
   4   2  -7    1.04    0.20
  -4   2   7    1.34    0.22
   4   2  -7    1.63    0.37
   4   2  -7    1.59    0.47
  -4   2   7    1.69    0.27
  -4   2   7    1.46    0.23
   4   2  -7    0.40    1.37
   4   2  -7    1.35    0.29
   4   2  -7    1.68    0.82
   4   2  -7    1.60    0.44
   4   2  -7    1.64    0.27
   4   2  -7    1.62    0.33
   2  -2  -7    1.01    0.34
   2  -2  -7    0.77    0.32
   2  -2  -7    0.91    1.41
   2  -2  -7    0.64    0.68
   2  -2  -7    0.77    0.18
  -2  -2   7    0.88    0.22
   2  -2  -7    1.05    0.24
   2   2  -7    0.68    0.67
   2   2  -7    0.82    0.30
   2   2  -7    0.45    0.29
   2   2  -7    0.24    1.37
   2   2  -7    0.97    0.25
   2   2  -7    0.82    0.25
  -2   2   7    0.80    0.19
  -2   2   7    0.96    0.19
  -2   2   7    1.11    0.24
   2   2  -7    0.87    0.22
   2   2  -7    0.82    0.19
   0  -2  -7    7.03    0.69
   0  -2  -7    5.60    0.40
   0  -2   7    6.18    0.44
   0  -2  -7    5.10    0.64
   0  -2  -7    6.64    0.47
   0  -2   7    6.84    0.44
   0   2  -7    7.21    0.47
   0   2  -7    6.55    0.56
   0   2  -7    6.14    0.44
   0   2   7    6.40    0.47
   0   2  -7    6.82    0.52
   0   2  -7    6.75    0.51
   0   2   7    5.48    0.41
   0   2   7    6.32    0.39
   0   2   7    6.99    0.44
   0   2  -7    4.25    0.59
   0   2  -7    9.26    3.25
   0   2  -7    6.92    0.66
   2  -2   7   15.30    0.63
  -2  -2  -7   16.52    1.07
  -2  -2  -7   15.29    1.02
   2  -2   7   16.95    0.69
  -2   2  -7   16.83    0.83
  -2   2  -7   17.06    1.05
  -2   2  -7   15.31    3.24
  -2   2  -7   17.53    1.10
  -2   2  -7   15.66    0.61
  -2   2  -7   16.29    0.70
   2   2   7   15.76    0.65
  -4  -2  -7    4.06    0.54
  -4  -2  -7    2.77    0.47
  -4   2  -7    3.45    0.32
  -4   2  -7    4.00    0.33
  -4   2  -7    2.91    0.45
  -4   2  -7    2.89    0.46
  -4   2  -7    3.24    0.49
  -6  -2  -7    1.77    0.35
  -6  -2  -7    1.09    0.29
  -6  -2  -7    1.15    0.30
  -6   2  -7    1.46    0.35
  -6   2  -7    1.34    0.30
  -6   2  -7    2.23    0.38
  17  -3  -7    0.13    0.12
  17  -3  -7    0.02    0.41
  17  -3  -7   -0.05    0.14
  17  -3  -7    0.17    0.17
  17   3  -7    0.00    0.14
  17   3  -7    0.13    0.23
  17   3  -7    0.17    0.15
  17   3  -7    0.22    0.13
  15  -3  -7   10.64    0.85
  15  -3  -7   10.76    0.65
  15  -3  -7   10.65    0.69
  15  -3  -7   10.41    0.53
  15  -3  -7   10.72    0.61
  15   3  -7   10.75    0.66
  15   3  -7   10.35    0.57
  15   3  -7   10.13    0.83
  15   3  -7    9.92    0.53
  15   3  -7    8.44    0.60
  13  -3  -7    1.58    0.34
  13  -3  -7    2.06    0.32
  13  -3  -7    1.80    0.49
  13  -3  -7    1.36    0.20
  13  -3  -7    1.88    0.27
 -13  -3   7    1.29    0.23
  13  -3  -7    1.97    0.39
 -13  -3   7    1.61    0.25
 -13  -3   7    1.09    0.24
 -13  -3   7    1.32    0.29
  13   3  -7    1.72    0.25
  13   3  -7    2.11    0.52
  13   3  -7    1.93    0.37
  13   3  -7    1.80    0.27
 -13   3   7    1.80    0.27
  13   3  -7    1.94    0.29
 -13   3   7    1.91    0.22
 -13   3   7    1.81    0.26
  13   3  -7    1.78    0.35
  13   3  -7    1.18    0.75
  11  -3  -7    0.34    0.17
  11  -3  -7    0.45    0.30
 -11  -3   7    0.36    0.16
 -11  -3   7    0.13    0.20
  11  -3  -7    0.41    0.20
  11  -3  -7    0.13    0.17
 -11  -3   7    0.37    0.16
  11  -3  -7    0.72    0.31
  11  -3  -7    0.11    0.51
 -11  -3   7    0.40    0.16
  11  -3  -7    0.28    0.14
 -11   3   7    0.80    0.20
  11   3  -7    0.79    0.27
 -11   3   7    0.41    0.13
  11   3  -7    0.31    0.23
  11   3  -7    0.30    0.29
  11   3  -7    0.57    0.18
  11   3  -7    0.29    0.16
 -11   3   7    0.44    0.16
  11   3  -7    0.42    0.64
  -9  -3   7    5.12    0.42
   9  -3  -7    6.46    0.49
  -9  -3   7    5.83    0.43
  -9  -3   7    5.82    0.57
   9  -3  -7    5.64    0.63
   9  -3  -7    6.33    0.51
   9  -3  -7    5.01    0.58
   9  -3  -7    7.35    0.98
   9  -3  -7    5.66    0.41
   9   3  -7    6.28    0.53
   9   3  -7    6.93    0.94
  -9   3   7    5.87    0.48
   9   3  -7    6.48    0.67
   9   3  -7    6.82    1.63
   9   3  -7    7.11    0.75
  -9   3   7    6.71    0.40
  -9   3   7    5.98    0.35
   9   3  -7    1.76    2.17
   9   3  -7    6.27    0.45
   7  -3  -7    1.25    0.43
  -7  -3   7    0.78    0.25
  -7  -3   7    0.63    0.19
   7  -3  -7    0.04    1.26
  -7  -3   7    0.67    0.19
   7  -3  -7    0.84    0.76
   7  -3  -7    0.90    0.19
  -7  -3   7    0.76    0.19
   7  -3  -7    1.05    0.25
   7  -3  -7    0.86    0.27
   7  -3  -7    1.09    0.33
  -7   3   7    0.86    0.18
   7   3  -7    1.09    0.23
  -7   3   7    0.98    0.21
   7   3  -7    0.76    0.64
   7   3  -7    1.12    0.40
   7   3  -7    0.86    0.28
   7   3  -7    1.08    0.22
   7   3  -7    0.95    0.28
  -7   3   7    0.88    0.20
   7   3  -7    0.72    1.73
   5  -3  -7    2.63    0.28
   5  -3  -7    2.44    0.41
  -5  -3   7    2.97    0.42
   5  -3  -7    1.85    1.05
   5  -3  -7    0.61    1.48
  -5  -3   7    2.03    0.25
   5  -3  -7    2.31    0.41
   5  -3  -7    2.56    0.38
  -5  -3   7    2.55    0.32
   5   3  -7    2.79    0.36
   5   3  -7    2.50    0.28
   5   3  -7    2.64    0.42
   5   3  -7    2.52    1.01
   5   3  -7    2.24    0.41
  -5   3   7    2.51    0.29
  -5   3   7    2.49    0.27
  -5   3   7    2.25    0.30
   5   3  -7    2.07    2.02
   5   3  -7    2.25    0.49
   3  -3  -7    5.48    0.41
   3  -3  -7    6.34    0.49
   3  -3  -7    6.26    1.67
  -3  -3   7    6.87    0.53
  -3  -3   7    5.03    0.52
   3  -3  -7    6.49    0.56
   3  -3  -7    5.90    0.71
   3   3  -7    5.01    1.29
   3   3  -7    6.88    0.47
  -3   3   7    6.26    0.38
   3   3  -7    6.19    0.63
   3   3  -7    6.48    0.74
   3   3  -7    5.94    0.50
  -3   3   7    5.93    0.44
   3   3  -7    5.69    0.50
   3   3  -7    5.46    2.28
   3   3  -7    6.38    0.57
  -3   3   7    6.43    0.52
   1  -3  -7    1.97    0.30
   1  -3  -7    2.22    0.43
  -1  -3   7    2.18    0.31
   1  -3  -7    2.08    0.48
   1  -3  -7   -0.18    1.00
   1   3  -7    2.08    0.30
   1   3  -7    2.01    0.28
   1   3  -7    2.61    0.51
  -1   3   7    1.68    0.27
   1   3  -7    1.31    0.34
   1   3  -7    2.51    0.44
   1   3  -7    2.14    0.85
   1   3  -7    1.60    1.47
  -1   3   7    1.97    0.26
   1   3  -7    1.90    0.34
   1   3  -7    2.15    0.33
  -1   3   7    1.59    0.25
  -1   3   7    1.81    0.24
  -1  -3  -7   -0.15    1.71
  -1  -3  -7    0.17    0.26
   1  -3   7    0.27    0.16
   1  -3   7    0.16    0.16
  -1   3  -7    0.04    1.45
   1   3   7   -0.06    0.15
  -1   3  -7    0.56    0.29
   1   3   7    0.07    0.13
   1   3   7    0.15    0.13
  -1   3  -7    0.42    0.16
  -1   3  -7    0.37    0.27
   1   3   7    0.11    0.13
  -1   3  -7    0.39    0.18
  -1   3  -7    0.22    0.14
  -1   3  -7    0.40    0.18
  -3  -3  -7    1.67    0.40
  -3   3  -7    2.10    0.44
  -3   3  -7    2.22    1.75
  -3   3  -7    1.67    0.25
  -3   3  -7    1.43    0.35
  -3   3  -7    1.72    0.27
  -3   3  -7    1.73    0.25
  -3   3  -7    1.71    0.38
  -5  -3  -7   -0.04    0.21
  -5  -3  -7    0.32    0.25
  -5   3  -7   -0.08    0.24
  -5   3  -7    0.31    0.23
  -5   3  -7    0.18    0.21
  -5   3  -7    0.14    0.14
  -7  -3  -7    1.65    0.31
  -7  -3  -7    0.87    0.24
  -7   3  -7    2.04    0.38
  -7   3  -7    0.95    0.23
  16  -4  -7    1.81    0.24
  16  -4  -7    1.44    0.22
  16  -4  -7    0.89    0.23
  16  -4  -7    0.18    0.46
  16   4  -7    1.67    0.41
  16   4  -7    1.07    0.21
  16   4  -7    1.62    0.31
  16   4  -7    1.29    0.23
  14  -4  -7    3.56    0.56
  14  -4  -7    3.54    0.34
  14  -4  -7    2.75    0.39
  14  -4  -7    3.14    0.32
  14   4  -7    3.52    0.36
  14   4  -7    2.70    0.37
  14   4  -7    4.04    0.38
  14   4  -7    3.97    0.64
  14   4  -7    3.09    0.43
  12  -4  -7    0.92    0.18
  12  -4  -7    1.57    0.46
  12  -4  -7    1.70    0.29
  12  -4  -7    0.11    0.54
 -12  -4   7    1.00    0.21
 -12  -4   7    1.16    0.27
  12  -4  -7    1.40    0.31
  12   4  -7    1.25    0.75
  12   4  -7    1.08    0.22
  12   4  -7    1.22    0.25
 -12   4   7    1.19    0.22
 -12   4   7    1.32    0.18
  12   4  -7    1.16    0.30
 -12   4   7    1.41    0.25
  12   4  -7    1.14    0.40
  12   4  -7    1.40    0.32
 -10  -4   7    2.42    0.38
  10  -4  -7    2.59    0.28
  10  -4  -7    0.39    1.74
 -10  -4   7    2.23    0.27
  10  -4  -7    3.30    0.64
  10  -4  -7    3.14    0.39
  10  -4  -7    2.29    0.38
  10   4  -7    2.50    0.34
  10   4  -7    3.71    1.19
  10   4  -7    3.01    0.31
 -10   4   7    2.38    0.30
 -10   4   7    2.53    0.25
  10   4  -7    3.04    0.47
  10   4  -7    2.84    0.44
 -10   4   7    2.70    0.30
  10   4  -7    2.91    0.58
  -8  -4   7    0.09    0.17
  -8  -4   7    0.71    0.25
   8  -4  -7    0.48    0.60
   8  -4  -7    0.61    0.18
  -8  -4   7    0.82    0.19
   8  -4  -7    0.22    1.45
   8  -4  -7    0.59    0.24
   8  -4  -7    1.04    0.39
   8  -4  -7    0.98    0.24
  -8   4   7    0.79    0.15
   8   4  -7    0.80    0.38
  -8   4   7    0.59    0.16
   8   4  -7    0.80    0.19
   8   4  -7    0.87    0.22
   8   4  -7    0.84    0.26
   8   4  -7    0.91    0.76
   8   4  -7    0.14    1.72
   8   4  -7    0.93    0.28
  -8   4   7    0.91    0.21
   6  -4  -7    3.33    0.41
   6  -4  -7    2.71    0.40
   6  -4  -7    0.20    1.28
   6  -4  -7    2.16    0.28
  -6  -4   7    2.22    0.27
  -6  -4   7    2.16    0.29
  -6  -4   7    2.84    0.41
   6  -4  -7    1.64    0.91
   6   4  -7    2.45    0.55
   6   4  -7    3.17    0.36
   6   4  -7    5.32    2.58
   6   4  -7    3.35    0.33
  -6   4   7    2.71    0.30
  -6   4   7    3.36    0.29
   6   4  -7    2.83    0.97
   6   4  -7    2.77    0.43
   6   4  -7    3.02    0.44
  -6   4   7    2.24    0.30
   4  -4  -7   -0.39    0.95
   4  -4  -7    0.13    0.55
   4  -4  -7    0.15    0.17
   4  -4  -7    0.63    0.35
  -4  -4   7    0.36    0.16
  -4  -4   7    0.14    0.20
  -4   4   7    0.40    0.13
   4   4  -7    0.27    0.14
   4   4  -7    0.19    0.18
   4   4  -7    0.08    0.49
   4   4  -7    0.22    0.17
   4   4  -7    0.13    0.19
  -4   4   7    0.29    0.14
   4   4  -7    0.11    0.27
   4   4  -7    0.90    1.48
  -4   4   7    0.28    0.15
   2  -4  -7    8.64    0.75
  -2  -4   7    8.11    0.49
   2  -4  -7    7.65    0.49
   2   4  -7    8.49    2.96
   2   4  -7    5.63    1.29
   2   4  -7    7.44    0.55
   2   4  -7    7.92    0.62
   2   4  -7    8.44    0.75
  -2   4   7    8.52    0.42
   2   4  -7    7.88    0.51
   2   4  -7    8.03    0.60
  -2   4   7    7.33    0.45
  -2   4   7    8.02    0.44
   2   4  -7    8.00    0.49
   0  -4   7    0.37    0.19
   0  -4  -7    0.29    1.30
   0  -4  -7    0.48    0.29
   0  -4   7    0.15    0.18
   0   4   7    0.24    0.16
   0   4   7    0.30    0.15
   0   4  -7    0.53    0.26
   0   4  -7    0.35    0.24
   0   4  -7    0.71    0.18
   0   4  -7    0.34    0.15
   0   4  -7    0.41    1.04
   0   4   7    0.40    0.17
   0   4  -7    0.40    0.26
   0   4  -7    0.44    0.18
   0   4  -7    0.36    0.17
  -2  -4  -7   -0.58    1.63
   2  -4   7    0.07    0.16
  -2  -4  -7    0.12    0.25
  -2   4  -7    0.10    0.22
  -2   4  -7    0.09    0.14
  -2   4  -7    0.71    1.35
  -2   4  -7    0.07    0.13
  -2   4  -7    0.15    0.14
   2   4   7    0.14    0.13
  -2   4  -7    0.18    0.22
  -2   4  -7    0.07    0.16
  -4  -4  -7    0.16    0.22
  -4   4  -7    0.15    0.23
  -4   4  -7    0.25    0.14
  -4   4  -7    0.04    0.21
  -4   4  -7    0.48    1.27
  -4   4  -7    0.12    0.27
  -6  -4  -7    0.16    0.24
  -6  -4  -7    0.01    0.19
  -6   4  -7    0.00    0.17
  -6   4  -7    0.23    0.20
  -6   4  -7   -0.03    0.21
  17  -5  -7    3.51    0.38
  15  -5  -7    2.29    0.32
  15  -5  -7    2.96    0.31
  15   5  -7    3.02    0.31
 -15   5   7    2.50    0.39
  15   5  -7    3.41    0.43
  15   5  -7    3.51    0.57
  13  -5  -7    0.54    0.19
  13  -5  -7   -0.03    0.44
  13  -5  -7    0.56    0.22
  13   5  -7    0.39    0.17
  13   5  -7    0.25    0.32
  13   5  -7    0.46    0.24
  13   5  -7    0.22    0.17
 -11  -5   7    0.08    0.14
  11  -5  -7    0.19    0.20
  11  -5  -7    0.40    0.18
  11  -5  -7   -0.20    1.62
  11  -5  -7    0.67    0.33
  11  -5  -7   -0.01    0.46
  11  -5  -7    0.12    0.15
 -11  -5   7    0.11    0.18
  11   5  -7    0.14    0.14
 -11   5   7    0.04    0.14
 -11   5   7    0.21    0.15
  11   5  -7    0.39    0.17
  11   5  -7    0.15    0.57
  11   5  -7    0.40    0.25
  11   5  -7    0.18    0.17
  11   5  -7    0.40    0.31
 -11   5   7    0.30    0.12
   9  -5  -7    0.28    0.17
   9  -5  -7    0.19    0.19
  -9  -5   7    0.23    0.13
   9  -5  -7   -0.05    0.51
   9  -5  -7    0.41    0.17
   9  -5  -7    0.18    1.58
   9  -5  -7    0.40    0.33
  -9  -5   7   -0.22    0.16
   9   5  -7    0.09    0.23
  -9   5   7    0.34    0.14
   9   5  -7    0.23    0.15
  -9   5   7    0.43    0.17
   9   5  -7    0.27    0.19
   9   5  -7    0.30    0.33
   9   5  -7    0.42    0.17
  -9   5   7    0.23    0.11
   9   5  -7   -0.02    0.57
   7  -5  -7    0.20    1.37
   7  -5  -7    2.93    0.41
   7  -5  -7    3.20    0.38
   7  -5  -7    1.35    0.88
  -7  -5   7    2.67    0.29
  -7  -5   7    2.80    0.41
   7   5  -7    4.95    2.43
   7   5  -7    2.80    0.30
  -7   5   7    3.25    0.28
   7   5  -7    3.78    1.11
   7   5  -7    3.06    0.45
   7   5  -7    3.28    0.47
   7   5  -7    2.96    0.36
  -7   5   7    2.81    0.31
   5  -5  -7    1.62    0.89
  -5  -5   7    2.62    0.32
   5  -5  -7    3.49    0.34
  -5  -5   7    3.19    0.43
  -5   5   7    2.94    0.34
   5   5  -7    3.21    0.97
   5   5  -7    3.66    0.49
   5   5  -7    3.24    0.36
  -5   5   7    3.27    0.33
   5   5  -7    3.86    0.51
  -5   5   7    3.40    0.30
   5   5  -7    6.45    2.65
   5   5  -7    3.21    0.32
  -3  -5   7    2.23    0.38
   3  -5  -7    0.53    1.25
   3  -5  -7    3.17    0.54
  -3  -5   7    3.27    0.36
   3   5  -7    2.64    0.33
  -3   5   7    2.78    0.30
   3   5  -7    3.33    0.49
  -3   5   7    3.06    0.34
   3   5  -7    3.56    1.85
  -3   5   7    3.24    0.30
   3   5  -7    3.18    0.43
   3   5  -7    2.81    0.50
   3   5  -7    3.13    0.32
   1  -5  -7    1.70    0.43
  -1  -5   7    1.17    0.24
   1  -5  -7    0.06    1.19
   1   5  -7    1.45    0.34
   1   5  -7    1.32    0.38
  -1   5   7    1.23    0.22
   1   5  -7    1.03    0.25
   1   5  -7    1.21    0.22
   1   5  -7    1.04    0.31
  -1   5   7    1.00    0.20
   1   5  -7    0.71    0.19
   1   5  -7    1.36    0.30
   1   5  -7    1.71    1.44
  -1   5   7    1.18    0.19
   1   5  -7    1.26    0.23
   1  -5   7    3.66    0.38
  -1  -5  -7    3.09    0.50
  -1   5  -7    7.59    2.59
  -1   5  -7    3.15    0.31
  -1   5  -7    3.56    0.52
  -1   5  -7    3.44    0.44
  -1   5  -7    3.56    0.56
   1   5   7    2.78    0.32
   1   5   7    3.12    0.30
  -1   5  -7    3.41    0.36
  -1   5  -7    3.27    0.39
  -3  -5  -7    1.35    0.33
  -3   5  -7    1.37    0.34
  -3   5  -7    2.00    0.26
  -3   5  -7    1.58    0.26
  -3   5  -7    1.53    0.35
  -3   5  -7    2.17    1.30
  -3   5  -7    2.14    0.41
  -3   5  -7    2.15    0.29
  -5  -5  -7    0.25    0.21
  -5   5  -7    0.65    0.15
  -5   5  -7    0.03    0.21
  -5   5  -7    0.02    0.17
  -5   5  -7   -0.01    0.23
  16  -6  -7    0.25    0.42
  16  -6  -7    0.36    0.16
  14  -6  -7    9.34    0.61
  14   6  -7    9.46    0.58
  14   6  -7    9.35    0.47
  14   6  -7    9.77    0.75
  12  -6  -7   -0.09    0.41
  12  -6  -7    0.19    0.19
  12   6  -7    0.11    0.14
  12   6  -7    0.03    0.17
  12   6  -7    0.22    0.19
 -10  -6   7   10.31    0.62
 -10  -6   7   10.02    0.48
  10  -6  -7    9.98    0.68
  10   6  -7    9.87    0.53
 -10   6   7    9.81    0.40
  10   6  -7    9.64    0.64
  10   6  -7    9.42    0.63
  10   6  -7   10.83    1.51
   8  -6  -7    8.44    0.63
   8   6  -7   15.73    2.93
  -8   6   7    9.61    0.46
   8   6  -7    9.12    1.46
   8   6  -7    9.17    0.51
   8   6  -7    8.46    0.43
   8   6  -7    8.01    0.60
   8   6  -7    8.54    0.61
  -8   6   7    9.44    0.39
  -6  -6   7   -0.04    0.17
   6  -6  -7   -0.04    0.50
   6  -6  -7   -0.03    1.12
  -6  -6   7    0.00    0.14
  -6   6   7   -0.03    0.09
   6   6  -7   -0.07    0.13
   6   6  -7   -0.02    1.37
   6   6  -7    0.08    0.12
  -6   6   7   -0.01    0.11
  -6   6   7    0.10    0.16
   6   6  -7   -0.04    0.14
   6   6  -7   -0.14    0.18
   4  -6  -7    0.19    1.00
  -4  -6   7    0.17    0.16
  -4  -6   7    0.47    0.22
   4   6  -7    0.31    0.15
   4   6  -7    0.42    0.25
  -4   6   7    0.16    0.13
   4   6  -7    0.38    0.16
  -4   6   7    0.29    0.16
   4   6  -7    0.33    0.32
   4   6  -7    0.82    1.33
  -4   6   7    0.25    0.11
   4   6  -7    0.19    0.18
  -2  -6   7    0.02    0.16
   2  -6  -7    0.43    0.30
  -2  -6   7    0.02    0.24
   2  -6  -7    0.50    1.23
   2   6  -7    0.15    0.92
  -2   6   7    0.18    0.11
  -2   6   7    0.10    0.14
   2   6  -7   -0.03    0.13
   2   6  -7    0.35    0.16
   2   6  -7    0.35    0.24
   2   6  -7    0.24    0.15
   2   6  -7    0.05    0.23
  -2   6   7    0.04    0.12
   2   6  -7    0.25    0.28
   0  -6   7    7.45    0.46
   0  -6  -7    6.84    0.65
   0   6  -7    9.61    2.64
   0   6  -7    6.60    0.42
   0   6  -7    7.84    0.52
   0   6  -7    8.10    0.69
   0   6  -7    7.28    0.53
   0   6   7    7.03    0.44
   0   6  -7    7.02    0.49
   0   6  -7    7.88    0.65
  -2  -6  -7    5.91    0.56
  -2   6  -7    5.41    0.36
  -2   6  -7    5.59    0.41
  -2   6  -7    5.28    0.51
  -2   6  -7    4.02    0.53
  -2   6  -7    5.05    0.42
  -2   6  -7    5.61    1.89
  -4  -6  -7    0.55    0.22
  -4   6  -7    0.52    0.28
  -4   6  -7    0.69    0.27
  -4   6  -7    0.37    0.21
  -4   6  -7    0.70    0.17
  -4   6  -7    0.87    0.19
  15  -7  -7    4.43    0.37
  13  -7  -7    0.73    0.21
  13  -7  -7    0.21    0.45
  11  -7  -7    0.00    1.41
  11  -7  -7   -0.08    0.43
  11  -7  -7    0.22    0.19
  11   7  -7    0.35    0.16
  11   7  -7   -0.03    0.20
  -9  -7   7   15.15    0.82
   9   7  -7   12.36    0.69
   9   7  -7   12.15    0.70
   9   7  -7   11.19    0.56
  -7  -7   7   -0.21    0.17
   7  -7  -7    0.48    1.28
   7  -7  -7   -0.02    0.56
  -7   7   7    0.26    0.13
   7   7  -7    0.32    0.23
   7   7  -7    0.04    1.17
  -7   7   7    0.30    0.11
   7   7  -7    0.24    0.14
   7   7  -7    0.26    0.17
  -5  -7   7    0.94    0.24
  -5  -7   7    1.19    0.28
   5  -7  -7    0.26    1.15
   5   7  -7    3.19    1.80
   5   7  -7    1.39    0.23
   5   7  -7    1.60    0.34
  -5   7   7    1.19    0.21
  -5   7   7    1.29    0.17
  -5   7   7    1.14    0.22
   5   7  -7    1.03    0.27
  -3  -7   7    0.03    0.16
   3  -7  -7   -0.18    0.27
   3  -7  -7    0.15    1.01
   3   7  -7    0.04    0.12
  -3   7   7    0.01    0.09
  -3   7   7    0.07    0.13
   3   7  -7   -0.14    0.95
  -3   7   7    0.07    0.13
   3   7  -7   -0.04    0.12
   3   7  -7   -0.07    0.26
   1  -7  -7    0.05    1.03
   1  -7  -7    0.76    0.30
   1   7  -7    0.85    0.17
   1   7  -7    0.98    0.25
   1   7  -7    0.44    0.19
   1   7  -7    1.26    1.14
   1   7  -7    0.69    0.31
   1   7  -7    0.89    0.30
  -1  -7  -7    2.60    0.41
  -1   7  -7    4.16    0.35
  -1   7  -7    4.07    0.44
  -1   7  -7    3.59    0.49
  -1   7  -7    4.81    0.54
  -1   7  -7    4.20    0.36
  -3  -7  -7    1.61    0.31
  -3   7  -7    1.98    0.28
  -3   7  -7    1.89    0.33
  -3   7  -7    2.00    0.27
  -3   7  -7    1.25    0.31
   3   7   7    2.06    0.26
  14  -8  -7   -0.10    0.33
  12  -8  -7   -0.20    0.36
  12  -8  -7    0.30    0.18
  10  -8  -7    0.25    1.33
  10  -8  -7    0.19    0.49
   6  -8  -7   -0.14    0.93
   6   8  -7    1.47    0.23
   6   8  -7    1.70    0.29
   4  -8  -7   -0.04    0.98
   4   8  -7    0.14    0.24
   4   8  -7    0.17    0.15
   4   8  -7    0.07    0.13
   2  -8  -7    0.33    1.11
   2  -8  -7    0.26    0.24
   2   8  -7    0.22    0.23
   2   8  -7    0.20    0.13
   2   8  -7   -0.04    0.13
   2   8  -7   -0.06    0.22
   0  -8  -7   11.63    0.76
   0   8  -7   10.74    0.72
   0   8  -7   10.97    0.50
   0   8  -7   13.15    0.78
   0   8  -7   10.16    0.61
  -2  -8  -7    0.28    0.19
  -2   8  -7   -0.09    0.18
   2   8   7    0.51    0.17
  -2   8  -7   -0.03    0.12
  -2   8  -7    0.10    0.13
  -2   8  -7    0.34    0.19
  11  -9  -7    0.23    0.42
  11  -9  -7    0.34    1.31
   9  -9  -7    0.05    1.13
   9  -9  -7    0.35    0.52
   5   9  -7    6.74    0.37
   5   9  -7    6.64    0.47
   3  -9  -7   -0.04    0.88
   3  -9  -7    1.03    0.30
   3   9  -7    0.35    0.25
   3   9  -7    1.48    0.21
   3   9  -7    1.28    0.25
   1  -9  -7    1.74    0.33
   1  -9  -7    0.36    1.06
   1   9  -7    2.89    0.41
   1   9  -7    1.56    0.34
   1   9  -7    2.57    0.25
   1   9  -7    2.83    0.35
  -1  -9  -7    0.26    0.19
  -1   9  -7   -0.11    0.18
  -1   9  -7    0.09    0.11
  -1   9  -7   -0.09    0.15
   1   9   7    0.26    0.15
  -1   9  -7    0.06    0.12
   8 -10  -7    0.47    1.00
   4 -10  -7   -0.01    0.84
   4  10  -7    0.25    0.14
   2 -10  -7    0.75    1.08
   2  10  -7    1.05    0.20
  16   0  -8    0.68    0.15
  16   0  -8    0.74    0.24
  16   0  -8    0.49    0.15
  14   0  -8   38.30    1.19
  14   0  -8   39.49    1.89
  14   0  -8   38.89    1.46
  14   0  -8   38.40    1.45
  12   0  -8    2.21    0.37
  12   0  -8    1.25    0.27
  12   0  -8    1.81    0.25
  12   0  -8    0.74    0.52
  12   0  -8    2.08    0.46
  12   0  -8    1.85    0.27
  10   0  -8    5.32    0.46
  10   0  -8    5.91    0.45
  10   0  -8    5.54    0.64
  10   0  -8    5.63    0.39
  10   0  -8    4.98    0.53
  10   0  -8    3.49    1.05
   8   0  -8    0.56    1.54
   8   0  -8   -0.21    0.12
  -8   0   8   -0.10    0.12
   8   0  -8    0.19    0.16
   8   0  -8    0.26    0.30
  -8   0   8    0.13    0.14
   8   0  -8    0.05    0.13
   8   0  -8   -0.07    0.16
   8   0  -8    0.09    0.42
   8   0  -8    0.25    0.21
   6   0  -8    0.46    0.53
   6   0  -8    0.53    0.22
   6   0  -8    0.54    0.20
  -6   0   8    0.61    0.17
   6   0  -8    0.49    0.17
   6   0  -8   -0.15    1.24
   6   0  -8    0.23    0.15
   6   0  -8    0.44    0.25
  -6   0   8    0.16    0.15
   4   0  -8   -0.10    0.13
   4   0  -8    0.21    0.51
   4   0  -8    0.14    0.17
   4   0  -8   -0.04    0.20
   4   0  -8    0.17    0.14
   4   0  -8   -0.01    1.17
   2   0  -8    1.45    0.25
   2   0  -8    0.42    1.10
   2   0  -8    1.22    0.30
   2   0  -8    0.59    0.28
   2   0  -8    1.13    0.68
   0   0  -8    0.58    0.17
   0   0  -8    0.03    1.03
   0   0  -8    0.69    0.27
  -2   0  -8   16.81    0.92
  -2   0  -8   18.13    0.94
  15  -1  -8    8.38    0.43
  15  -1  -8    8.55    0.51
  15  -1  -8    9.24    0.69
  15  -1  -8    7.78    0.53
  15  -1  -8    9.30    0.50
  15   1  -8    7.66    0.51
  15   1  -8    8.31    0.67
  15   1  -8    8.11    0.43
  15   1  -8    9.26    0.50
  15   1  -8    9.02    0.53
  13  -1  -8    5.73    0.55
  13  -1  -8    4.75    0.51
  13  -1  -8    4.66    0.38
  13  -1  -8    5.15    0.36
  13  -1  -8    5.33    0.58
  13   1  -8    4.36    0.37
  13   1  -8    4.96    0.44
  13   1  -8    4.96    0.39
  13   1  -8    5.19    0.68
  13   1  -8    3.42    0.40
  11  -1  -8    2.58    0.96
  11  -1  -8    5.56    0.46
  11  -1  -8    5.07    0.42
  11  -1  -8    4.73    0.52
  11  -1  -8    5.46    0.61
  11  -1  -8    5.52    0.44
  11   1  -8    5.57    0.38
  11   1  -8    4.21    1.20
  11   1  -8    4.13    0.49
  11   1  -8    5.69    0.62
  11   1  -8    5.73    0.48
   9  -1  -8    0.73    0.24
   9  -1  -8    0.02    1.56
   9  -1  -8    0.74    0.21
   9  -1  -8    1.10    0.29
   9  -1  -8    0.62    0.33
   9  -1  -8    0.67    0.58
   9  -1  -8    0.88    0.20
   9   1  -8    0.54    0.58
   9   1  -8    0.57    0.21
   9   1  -8    0.63    0.21
   9   1  -8    0.68    0.25
   9   1  -8    0.92    0.38
   9   1  -8    0.78    0.19
   9   1  -8   -0.26    1.62
   7  -1  -8    2.69    0.39
   7  -1  -8    3.16    0.41
   7  -1  -8    0.47    1.40
   7  -1  -8    2.08    0.26
   7  -1  -8    2.08    0.93
   7  -1  -8    2.87    0.32
   7  -1  -8    3.23    0.49
   7   1  -8    2.56    0.99
   7   1  -8    2.63    0.37
   7   1  -8    2.19    0.28
   7   1  -8    2.42    0.41
  -7   1   8    2.62    0.28
  -7   1   8    2.06    0.27
   7   1  -8    2.76    0.33
   7   1  -8    0.33    1.47
   7   1  -8    2.42    0.36
   7   1  -8    3.01    0.60
   5  -1  -8    2.72    0.42
   5  -1  -8    3.14    1.08
   5  -1  -8    2.44    0.37
   5  -1  -8    3.79    0.36
   5  -1  -8    2.47    0.32
   5   1  -8    3.36    0.40
   5   1  -8    3.24    0.41
   5   1  -8    3.04    1.01
   5   1  -8    0.31    1.22
   5   1  -8    2.96    0.32
   5   1  -8    3.06    0.45
   5   1  -8    2.74    0.29
   3  -1  -8    1.57    0.26
   3  -1  -8    1.28    0.34
   3  -1  -8    1.18    0.66
   3  -1  -8    1.32    0.33
   3  -1  -8   -0.01    1.07
   3   1  -8    1.41    0.72
   3   1  -8   -0.29    1.02
   3   1  -8    1.07    0.33
   3   1  -8    1.31    0.25
   3   1  -8    1.57    0.34
   3   1  -8    1.24    0.22
   3   1  -8    1.01    0.23
   1  -1  -8    8.72    0.48
   1  -1  -8    7.30    0.63
   1   1  -8    7.72    0.42
   1   1  -8    8.71    0.51
   1   1  -8    5.25    0.61
  -1  -1  -8   22.80    1.12
  -1  -1  -8   20.00    1.08
  -1   1  -8   20.44    1.07
  -1   1  -8   23.29    1.13
  -1   1  -8   23.83    0.90
  -3  -1  -8    1.05    0.32
  -3  -1  -8    0.30    0.18
  -3   1  -8    0.27    0.20
  -3   1  -8    0.32    0.20
  14  -2  -8    0.12    0.40
  14  -2  -8    1.38    0.27
  14  -2  -8    1.73    0.25
  14  -2  -8    1.20    0.26
  14  -2  -8    1.15    0.33
  14  -2  -8    1.04    0.19
  14   2  -8    1.01    0.23
  14   2  -8    1.35    0.21
  14   2  -8    1.10    0.25
  14   2  -8    1.29    0.35
  14   2  -8    0.90    0.54
  14   2  -8    1.32    0.22
  12  -2  -8    0.26    0.24
  12  -2  -8    0.26    0.18
  12  -2  -8    0.42    0.20
  12  -2  -8    0.35    0.17
  12  -2  -8    0.40    0.17
  12  -2  -8    0.17    0.39
  12   2  -8    0.13    0.13
  12   2  -8    0.56    0.51
  12   2  -8    0.41    0.21
  12   2  -8    0.16    0.16
  12   2  -8    0.73    0.31
  12   2  -8    0.23    0.15
  10  -2  -8    3.86    0.36
  10  -2  -8    4.49    0.68
  10  -2  -8    4.48    0.49
  10  -2  -8    4.71    0.40
  10  -2  -8    3.94    0.45
  10   2  -8    4.96    0.70
  10   2  -8    4.43    1.28
  10   2  -8    5.12    0.56
  10   2  -8    3.77    0.44
  10   2  -8    4.33    0.39
  10   2  -8    4.61    0.40
   8  -2  -8    0.68    0.22
   8  -2  -8    0.61    0.57
   8  -2  -8    0.68    1.64
   8  -2  -8    0.81    0.23
   8  -2  -8    0.74    0.22
   8  -2  -8    0.87    0.26
   8   2  -8    0.68    0.22
   8   2  -8    0.74    0.18
   8   2  -8    0.87    0.26
   8   2  -8    1.11    0.68
   8   2  -8    0.96    0.38
   8   2  -8    1.11    1.62
   8   2  -8    0.58    0.21
   6  -2  -8    1.46    0.32
   6  -2  -8    1.00    0.24
   6  -2  -8    1.08    0.68
   6  -2  -8    1.05    0.25
   6  -2  -8    0.17    1.34
   6   2  -8    1.21    0.25
   6   2  -8    0.26    1.25
   6   2  -8    1.04    0.21
   6   2  -8    0.62    0.22
  -6   2   8    0.60    0.20
   6   2  -8    0.72    0.25
  -6   2   8    0.68    0.19
   6   2  -8    1.10    0.67
   6   2  -8    0.85    0.21
   4  -2  -8    1.64    0.35
   4  -2  -8    0.06    1.15
   4  -2  -8    1.68    0.27
   4  -2  -8    1.04    0.66
   4   2  -8    0.29    1.12
   4   2  -8    1.33    0.70
   4   2  -8    1.22    0.31
   4   2  -8    1.46    0.27
   4   2  -8    1.21    0.28
   4   2  -8    1.62    0.25
   2  -2  -8    9.68    0.73
   2  -2  -8   10.63    0.54
   2   2  -8   10.51    0.59
   2   2  -8    9.11    0.49
   2   2  -8   10.26    0.66
   2   2  -8    8.50    0.57
   2   2  -8   10.40    0.75
   0  -2  -8    8.24    0.67
   0   2  -8   11.57    0.58
   0   2  -8   10.30    0.49
   0   2  -8   10.47    0.73
  -2  -2  -8    0.06    0.17
  -2  -2  -8    0.37    0.25
  -2   2  -8    0.27    0.20
  -2   2  -8    0.43    0.89
  -2   2  -8    0.06    0.19
  -2   2  -8    0.37    0.14
  15  -3  -8    3.30    0.34
  15  -3  -8    4.34    0.31
  15   3  -8    3.88    0.43
  15   3  -8    3.99    0.34
  15   3  -8    3.44    0.30
  13  -3  -8    0.72    0.19
  13  -3  -8    0.94    0.34
  13  -3  -8    1.17    0.21
  13  -3  -8    0.13    0.38
  13  -3  -8    0.61    0.19
  13   3  -8    0.97    0.19
  13   3  -8    0.98    0.32
  13   3  -8    0.71    0.20
  13   3  -8    0.60    0.20
  13   3  -8    0.28    0.52
  11  -3  -8    0.82    2.07
  11  -3  -8   -0.01    0.35
  11  -3  -8    0.23    0.16
  11  -3  -8    0.37    0.30
  11  -3  -8    0.31    0.19
  11   3  -8    0.36    0.20
  11   3  -8    0.35    0.18
  11   3  -8    0.23    0.27
  11   3  -8    0.40    0.14
  11   3  -8    0.29    0.49
   9  -3  -8    0.03    0.22
   9  -3  -8    0.41    0.21
   9  -3  -8    0.37    0.18
   9  -3  -8    0.42    1.46
   9  -3  -8    0.13    0.44
   9   3  -8    0.12    0.13
   9   3  -8    0.41    0.21
   9   3  -8    0.15    0.15
   9   3  -8    0.29    0.29
   9   3  -8    0.33    0.54
   9   3  -8   -0.14    1.41
   7  -3  -8    2.27    0.34
   7  -3  -8    1.97    0.36
   7  -3  -8   -0.09    1.15
   7  -3  -8    1.85    0.83
   7  -3  -8    3.40    0.38
   7   3  -8    2.55    0.31
   7   3  -8    2.96    0.99
   7   3  -8    2.79    0.36
   7   3  -8    2.60    0.39
   7   3  -8    1.62    1.75
   7   3  -8    2.23    0.37
   5  -3  -8    2.65    0.90
   5  -3  -8    4.80    0.54
   5  -3  -8    4.70    0.37
   5   3  -8    3.96    0.38
   5   3  -8    1.34    1.36
   5   3  -8    4.46    0.40
   5   3  -8    4.36    0.53
   5   3  -8    4.06    1.05
   5   3  -8    3.45    0.43
   3  -3  -8    0.33    0.27
   3  -3  -8    0.24    1.19
   3   3  -8   -0.39    0.74
   3   3  -8    0.14    0.14
   3   3  -8    0.05    0.19
   3   3  -8    0.09    0.13
   3   3  -8    0.05    0.25
   3   3  -8    0.10    0.14
   1  -3  -8   -0.23    1.03
   1  -3  -8    0.04    0.22
   1   3  -8    0.10    0.15
   1   3  -8    0.29    0.23
   1   3  -8    0.21    0.94
   1   3  -8    0.35    0.14
   1   3  -8    0.32    0.16
  -1  -3  -8    0.63    1.40
  -1  -3  -8    0.22    0.19
  -1   3  -8    0.52    0.91
  -1   3  -8   -0.03    0.11
  -1   3  -8    0.14    0.21
  -1   3  -8    0.08    0.21
  -1   3  -8   -0.08    0.11
  -3  -3  -8   -0.08    0.14
  -3   3  -8    0.37    0.19
  14  -4  -8    0.27    0.38
  14  -4  -8    0.94    0.21
  14   4  -8    0.66    0.15
  14   4  -8    1.14    0.24
  14   4  -8    0.90    0.30
  12  -4  -8    0.60    0.17
  12  -4  -8   -0.01    0.38
  12  -4  -8    0.22    0.17
  12   4  -8   -0.05    0.13
  12   4  -8   -0.16    0.44
  12   4  -8    0.05    0.15
  12   4  -8   -0.02    0.11
  12   4  -8    0.31    0.25
  10  -4  -8    0.60    0.22
  10  -4  -8    0.71    1.46
  10  -4  -8    0.91    0.20
  10  -4  -8    0.18    0.45
  10   4  -8    0.84    0.33
  10   4  -8    0.66    0.55
  10   4  -8    0.67    0.17
  10   4  -8    0.56    0.19
  10   4  -8    0.92    0.25
   8  -4  -8    0.15    1.33
   8  -4  -8    2.46    0.34
   8  -4  -8    3.58    0.33
   8   4  -8    3.01    0.40
   8   4  -8    3.15    0.34
   8   4  -8    2.29    1.68
   8   4  -8    3.60    1.04
   8   4  -8    2.95    0.41
   6  -4  -8    0.24    1.28
   6  -4  -8    0.27    0.49
   6  -4  -8    0.81    0.19
   6   4  -8    0.94    0.20
   6   4  -8    0.56    0.21
   6   4  -8    0.86    0.27
   6   4  -8    0.71    0.21
   6   4  -8    0.41    1.24
   6   4  -8    1.02    0.65
   4   4  -8    4.10    0.47
   4   4  -8    1.85    1.48
   4   4  -8    4.00    0.37
   4   4  -8    4.84    0.52
   4   4  -8    3.98    0.35
   2  -4  -8    3.91    0.48
   2   4  -8    3.57    0.42
   2   4  -8    1.91    1.26
   2   4  -8    3.70    0.33
   2   4  -8    3.83    0.34
   2   4  -8    2.36    0.40
   0  -4  -8    0.19    0.22
   0  -4  -8    0.15    0.94
   0   4  -8    0.37    0.23
   0   4  -8    0.76    0.19
   0   4  -8    0.88    0.21
   0   4  -8    0.73    0.89
   0   4  -8    0.30    0.26
   0   4  -8    0.69    0.16
  -2  -4  -8    0.37    0.18
  -2   4  -8    1.68    0.30
  13  -5  -8    3.65    0.37
  13   5  -8    3.44    0.28
  13   5  -8    4.01    0.34
  11  -5  -8    1.51    0.26
  11  -5  -8   -0.07    1.31
  11   5  -8    2.43    0.33
  11   5  -8    2.18    0.30
  11   5  -8    2.68    0.28
   9  -5  -8   -0.02    1.26
   9  -5  -8    0.24    0.44
   9  -5  -8    0.51    0.20
   9   5  -8    0.56    0.18
   9   5  -8    0.65    0.17
   9   5  -8    0.92    0.22
   7  -5  -8    0.67    0.61
   7  -5  -8    0.42    1.19
   7   5  -8    2.03    0.32
   7   5  -8    1.95    0.33
   7   5  -8    1.96    0.24
   7   5  -8    1.93    1.51
   5  -5  -8    0.15    1.05
   5   5  -8    0.43    1.07
   5   5  -8    0.61    0.17
   5   5  -8    0.31    0.21
   5   5  -8    0.16    0.16
   5   5  -8    0.47    0.18
   3  -5  -8    0.12    0.26
   3  -5  -8   -0.25    0.87
   3   5  -8    0.91    0.22
   3   5  -8    0.97    0.18
   3   5  -8    0.71    0.29
   3   5  -8    0.78    0.94
   3   5  -8    0.98    0.21
   1  -5  -8    0.55    1.11
   1  -5  -8    1.28    0.28
   1   5  -8    2.39    0.28
   1   5  -8    2.38    0.26
   1   5  -8    1.63    0.25
   1   5  -8    0.69    0.79
   1   5  -8    1.05    0.29
  -1  -5  -8    2.74    0.33
  -1   5  -8    3.80    0.25
  -1   5  -8    4.03    0.43
  12  -6  -8    0.20    0.35
  10  -6  -8   -0.22    1.22
  10  -6  -8    0.34    0.43
  10   6  -8    1.39    0.19
  10   6  -8    1.32    0.25
  10   6  -8    1.24    0.23
   8  -6  -8    0.20    0.41
   8  -6  -8    0.55    1.19
   8   6  -8    0.20    0.19
   8   6  -8    0.37    0.13
   8   6  -8    0.46    1.24
   8   6  -8    0.07    0.13
   6  -6  -8   -0.18    0.93
   6   6  -8    0.16    0.18
   6   6  -8    0.10    0.11
   6   6  -8    0.00    0.11
   6   6  -8   -0.18    1.00
   4  -6  -8    0.23    0.95
   4   6  -8    0.69    1.01
   4   6  -8    0.24    0.13
   4   6  -8    0.19    0.15
   4   6  -8    0.26    0.17
   2  -6  -8    0.27    0.24
   2  -6  -8    0.38    0.99
   2   6  -8    1.04    0.18
   2   6  -8    1.09    0.20
   2   6  -8    0.52    0.24
   2   6  -8    0.83    0.83
   2   6  -8    1.00    0.21
   0   6  -8    0.28    0.13
   0   6  -8    0.18    0.10
   0   6  -8    0.13    0.17
   9  -7  -8   -0.04    0.36
   9  -7  -8   -0.20    1.11
   9   7  -8    0.32    0.15
   9   7  -8   -0.02    0.10
   7  -7  -8    0.19    1.01
   7   7  -8    1.79    0.27
   7   7  -8    1.98    0.24
   5  -7  -8    0.14    0.88
   5   7  -8    0.27    0.11
   5   7  -8    0.02    0.11
   3  -7  -8    0.09    0.82
   3   7  -8    0.13    0.13
   3   7  -8    0.09    0.10
   3   7  -8    0.02    0.11
   6  -8  -8    0.20    0.89
  10   0  -9    0.10    0.35
  10   0  -9    0.10    0.12
   8   0  -9    0.22    0.13
   8   0  -9    0.16    0.41
   8   0  -9    0.13    0.16
   6   0  -9    0.22    0.16
   6   0  -9    0.29    0.48
   6   0  -9   -0.37    0.84
   4   0  -9   -0.10    0.74
   9  -1  -9    1.92    0.24
   9  -1  -9    1.19    0.55
   9   1  -9    1.11    0.51
   9   1  -9    1.72    0.23
   9   1  -9    0.97    0.19
   9   1  -9    1.47    0.24
   7  -1  -9    0.46    0.99
   7  -1  -9    2.93    0.26
   7  -1  -9    1.68    0.59
   7   1  -9    0.53    1.07
   7   1  -9    1.98    0.67
   7   1  -9    1.64    0.26
   7   1  -9    2.16    0.27
   5  -1  -9   -0.16    0.74
   5   1  -9    0.29    0.76
   5   1  -9    0.34    0.13
   8  -2  -9   -0.26    0.92
   8   2  -9    1.45    0.26
   8   2  -9    0.88    0.18
   8   2  -9    0.80    0.18
   6  -2  -9    0.09    0.89
   6   2  -9   -0.16    0.81
   6   2  -9    0.30    0.13
   6   2  -9    0.14    0.13
   0   0   0    0.00    0.00
;
_shelx_hkl_checksum              80100
_shelxl_version_number           2014-3
loop_
_space_group_symop_operation_xyz
'x, y, z'
'-x, y, -z+1/2'
'x+1/2, y+1/2, z'
'-x+1/2, y+1/2, -z+1/2'
'-x, -y, -z'
'x, -y, z-1/2'
'-x+1/2, -y+1/2, -z'
'x+1/2, -y+1/2, z-1/2'
loop_
_atom_site_label
_atom_site_type_symbol
_atom_site_fract_x
_atom_site_fract_y
_atom_site_fract_z
_atom_site_U_iso_or_equiv
_atom_site_adp_type
_atom_site_occupancy
_atom_site_site_symmetry_order
_atom_site_calc_flag
_atom_site_refinement_flags_posn
_atom_site_refinement_flags_adp
_atom_site_refinement_flags_occupancy
C1 C 0.5000 0.58713(14) 0.7500 0.0205(4) Uani 1 2 d S T P
C2 C 0.5000 0.48619(14) 0.7500 0.0220(5) Uani 1 2 d S T P
C3 C 0.56602(8) 0.43504(11) 0.75248(19) 0.0242(4) Uani 1 1 d . . .
H3 H 0.5654 0.3682 0.7577 0.029 Uiso 1 1 calc R . .
C4 C 0.63029(8) 0.47970(10) 0.7475(2) 0.0243(4) Uani 1 1 d . . .
H4 H 0.6746 0.4445 0.7517 0.029 Uiso 1 1 calc R . .
C5 C 0.63089(8) 0.57897(10) 0.73613(18) 0.0222(4) Uani 1 1 d . . .
C6 C 0.56793(7) 0.63341(10) 0.73737(18) 0.0210(4) Uani 1 1 d . . .
C7 C 0.69849(8) 0.62091(10) 0.7135(2) 0.0238(4) Uani 1 1 d . . .
C8 C 0.75590(8) 0.65022(10) 0.6915(2) 0.0256(4) Uani 1 1 d . . .
C9 C 0.82401(9) 0.69124(12) 0.6643(2) 0.0322(4) Uani 1 1 d . . .
H9A H 0.8234 0.6793 0.5369 0.048 Uiso 1 1 calc GR . .
H9B H 0.8698 0.6627 0.7516 0.048 Uiso 1 1 calc GR . .
H9C H 0.8246 0.7593 0.6861 0.048 Uiso 1 1 calc GR . .
C10 C 0.57614(8) 0.73715(10) 0.71614(19) 0.0217(4) Uani 1 1 d . . .
C11 C 0.52950(8) 0.78600(10) 0.5622(2) 0.0229(4) Uani 1 1 d . . .
H11 H 0.4892 0.7538 0.4725 0.027 Uiso 1 1 calc R . .
C12 C 0.54120(8) 0.88094(11) 0.5386(2) 0.0278(4) Uani 1 1 d . . .
H12 H 0.5087 0.9135 0.4339 0.033 Uiso 1 1 calc R . .
C13 C 0.60027(9) 0.92857(11) 0.6678(2) 0.0308(4) Uani 1 1 d . . .
H13 H 0.6085 0.9935 0.6509 0.037 Uiso 1 1 calc R . .
C14 C 0.64725(8) 0.88125(10) 0.8214(2) 0.0282(4) Uani 1 1 d . . .
H14 H 0.6876 0.9137 0.9103 0.034 Uiso 1 1 calc R . .
C15 C 0.63523(8) 0.78644(10) 0.8447(2) 0.0243(4) Uani 1 1 d . . .
H15 H 0.6677 0.7543 0.9501 0.029 Uiso 1 1 calc R . .
loop_
_atom_site_aniso_label
_atom_site_aniso_U_11
_atom_site_aniso_U_22
_atom_site_aniso_U_33
_atom_site_aniso_U_23
_atom_site_aniso_U_13
_atom_site_aniso_U_12
C1 0.0197(10) 0.0227(10) 0.0183(10) 0.000 0.0051(8) 0.000
C2 0.0218(10) 0.0246(10) 0.0197(10) 0.000 0.0070(8) 0.000
C3 0.0252(8) 0.0215(7) 0.0259(8) -0.0003(6) 0.0083(6) 0.0022(6)
C4 0.0214(8) 0.0256(8) 0.0260(8) 0.0009(6) 0.0077(6) 0.0037(6)
C5 0.0202(7) 0.0256(8) 0.0203(7) 0.0007(6) 0.0056(6) 0.0004(6)
C6 0.0204(8) 0.0235(8) 0.0188(7) -0.0002(6) 0.0057(6) 0.0002(5)
C7 0.0217(8) 0.0245(8) 0.0254(8) -0.0002(6) 0.0075(6) 0.0033(6)
C8 0.0231(8) 0.0271(8) 0.0266(8) 0.0003(6) 0.0081(6) 0.0028(6)
C9 0.0248(8) 0.0378(9) 0.0358(9) 0.0030(7) 0.0121(7) -0.0018(7)
C10 0.0195(7) 0.0235(8) 0.0255(7) -0.0017(6) 0.0120(6) 0.0000(5)
C11 0.0207(7) 0.0238(8) 0.0258(8) -0.0014(6) 0.0096(6) -0.0001(6)
C12 0.0270(8) 0.0261(8) 0.0319(8) 0.0035(6) 0.0117(7) 0.0044(6)
C13 0.0318(8) 0.0212(8) 0.0431(10) 0.0001(7) 0.0174(7) -0.0004(6)
C14 0.0246(8) 0.0268(8) 0.0348(9) -0.0067(7) 0.0120(7) -0.0044(6)
C15 0.0216(7) 0.0255(8) 0.0266(8) -0.0016(6) 0.0090(6) -0.0001(6)
loop_
_atom_type_symbol
_atom_type_description
_atom_type_scat_dispersion_real
_atom_type_scat_dispersion_imag
_atom_type_scat_source
C C 0.0181 0.0091 'International Tables Vol C Tables 4.2.6.8 and 6.1.1.4'
H H 0.0000 0.0000 'International Tables Vol C Tables 4.2.6.8 and 6.1.1.4'
loop_
_exptl_crystal_face_index_h
_exptl_crystal_face_index_k
_exptl_crystal_face_index_l
_exptl_crystal_face_perp_dist
-1.00 0.00 1.00 0.0900
0.00 1.00 -1.00 0.0200
-2.00 -1.00 2.00 0.0800
-1.00 0.00 0.00 0.0700
1.00 0.00 0.00 0.0500
1.00 2.00 1.00 0.1100
1.00 -2.00 -1.00 0.0700
-3.00 -2.00 -1.00 0.0500
-1.00 -2.00 2.00 0.0800
loop_
_geom_angle_atom_site_label_1
_geom_angle_atom_site_label_2
_geom_angle_atom_site_label_3
_geom_angle
_geom_angle_site_symmetry_1
_geom_angle_site_symmetry_3
C2 C1 C6 117.04(9) . .
C2 C1 C6 117.04(9) . 2_656
C6 C1 C6 125.92(18) . 2_656
C3 C2 C1 120.92(9) 2_656 .
C3 C2 C1 120.92(9) . .
C3 C2 C3 118.16(18) 2_656 .
C4 C3 C2 121.15(14) . .
C3 C4 C5 119.51(13) . .
C4 C5 C7 116.35(12) . .
C6 C5 C4 121.89(13) . .
C6 C5 C7 121.69(13) . .
C1 C6 C10 125.11(13) . .
C5 C6 C1 119.30(13) . .
C5 C6 C10 115.52(12) . .
C8 C7 C5 175.81(15) . .
C7 C8 C9 176.77(15) . .
C11 C10 C6 121.58(12) . .
C11 C10 C15 118.15(13) . .
C15 C10 C6 120.09(12) . .
C12 C11 C10 120.80(13) . .
C11 C12 C13 120.16(14) . .
C14 C13 C12 119.89(14) . .
C13 C14 C15 119.79(14) . .
C14 C15 C10 121.21(14) . .
loop_
_geom_bond_atom_site_label_1
_geom_bond_atom_site_label_2
_geom_bond_distance
_geom_bond_site_symmetry_2
C1 C2 1.434(3) .
C1 C6 1.4461(16) 2_656
C1 C6 1.4461(16) .
C2 C3 1.4139(17) .
C2 C3 1.4138(17) 2_656
C3 C4 1.357(2) .
C4 C5 1.413(2) .
C5 C6 1.3988(19) .
C5 C7 1.4419(19) .
C6 C10 1.495(2) .
C7 C8 1.199(2) .
C8 C9 1.460(2) .
C10 C11 1.396(2) .
C10 C15 1.398(2) .
C11 C12 1.386(2) .
C12 C13 1.388(2) .
C13 C14 1.386(2) .
C14 C15 1.385(2) .
