#------------------------------------------------------------------------------
#$Date: 2017-03-04 06:39:22 +0200 (Sat, 04 Mar 2017) $
#$Revision: 193052 $
#$URL: file:///home/coder/svn-repositories/cod/cif/4/12/56/4125655.cif $
#------------------------------------------------------------------------------
#
# This file is available in the Crystallography Open Database (COD),
# http://www.crystallography.net/
#
# All data on this site have been placed in the public domain by the
# contributors.
#
data_4125655
loop_
_publ_author_name
'Yang, Sanghee'
'Shin, Suyong'
'Choi, Inho'
'Lee, Jaeho'
'Choi, Tae-Lim'
_publ_section_title
;
 Direct Formation of Large-Area 2D Nanosheets from Fluorescent
 Semiconducting Homopolymer with Orthorhombic Crystalline Orientation.
;
_journal_issue                   8
_journal_name_full               'Journal of the American Chemical Society'
_journal_page_first              3082
_journal_page_last               3088
_journal_paper_doi               10.1021/jacs.6b12378
_journal_volume                  139
_journal_year                    2017
_chemical_formula_moiety         'C31 H38'
_chemical_formula_sum            'C31 H38'
_chemical_formula_weight         410.61
_space_group_crystal_system      triclinic
_space_group_IT_number           2
_space_group_name_Hall           '-P 1'
_space_group_name_H-M_alt        'P -1'
_symmetry_space_group_name_Hall  '-P 1'
_symmetry_space_group_name_H-M   'P -1'
_atom_sites_solution_hydrogens   geom
_audit_creation_date             2016-11-14
_audit_creation_method
;
Olex2 1.2
(compiled 2016.11.07 svn.r3352 for OlexSys, GUI svn.r5261)
;
_cell_angle_alpha                99.798(2)
_cell_angle_beta                 93.975(2)
_cell_angle_gamma                94.800(2)
_cell_formula_units_Z            4
_cell_length_a                   11.3612(3)
_cell_length_b                   15.0007(4)
_cell_length_c                   15.3112(4)
_cell_measurement_reflns_used    18244
_cell_measurement_temperature    100.0(2)
_cell_measurement_theta_max      76.3560
_cell_measurement_theta_min      4.5450
_cell_volume                     2553.05(12)
_computing_cell_refinement       'CrysAlisPro 1.171.38.41r (Rigaku OD, 2015)'
_computing_data_collection       'CrysAlisPro 1.171.38.41r (Rigaku OD, 2015)'
_computing_data_reduction        'CrysAlisPro 1.171.38.41r (Rigaku OD, 2015)'
_computing_molecular_graphics    'Olex2 (Dolomanov et al., 2009)'
_computing_publication_material  'Olex2 (Dolomanov et al., 2009)'
_computing_structure_refinement  'ShelXL (Sheldrick, 2015)'
_computing_structure_solution    'ShelXT (Sheldrick, 2015)'
_diffrn_ambient_environment      N~2~
_diffrn_ambient_temperature      100.0(2)
_diffrn_detector                 'CCD plate'
_diffrn_detector_area_resol_mean 5.2262
_diffrn_detector_type            AtlasS2
_diffrn_measured_fraction_theta_full 1.000
_diffrn_measured_fraction_theta_max 0.988
_diffrn_measurement_details
;
List of Runs (angles in degrees, time in seconds):

  # Type    Start    End  Width  t~exp~   \w     \q     \k     \f   Frames
--------------------------------------------------------------------------
  1  \w   -117.00  -9.00   1.00    4.69    --  -41.24 -77.00  60.00  108
  2  \w    -69.00  32.00   1.00    4.69    --  -41.24  57.00-180.00  101
  3  \w      1.00  82.00   1.00    4.69    --   41.24 -99.00   0.00   81
  4  \w      1.00  82.00   1.00    4.69    --   41.24 -99.00-120.00   81
  5  \w     17.00 116.00   1.00    4.69    --   41.24  38.00 -30.00   99
  6  \w     36.00 116.00   1.00   11.67    --  112.00-111.00-180.00   80
  7  \w     36.00 116.00   1.00   11.67    --  112.00-111.00-120.00   80
  8  \w     40.00 141.00   1.00   11.67    --  112.00 -61.00  60.00  101
  9  \w     86.00 178.00   1.00   11.67    --  112.00  45.00  60.00   92
 10  \w     29.00 109.00   1.00   11.67    --  112.00 -94.00 -30.00   80
 11  \w     79.00 178.00   1.00   11.67    --  112.00  77.00 -30.00   99
 12  \w     39.00 116.00   1.00   11.67    --  112.00-111.00 150.00   77
 13  \w     65.00 135.00   1.00   11.67    --  112.00 -77.00-120.00   70
 14  \w     38.00 165.00   1.00   11.67    --  112.00 -15.00   0.00  127
 15  \w    111.00 138.00   1.00   11.67    --  112.00 -77.00   0.00   27
 16  \w     45.00  93.00   1.00   11.67    --  112.00 -77.00   0.00   48
 17  \w     39.00 113.00   1.00   11.67    --  112.00-111.00  90.00   74
 18  \w     59.00  86.00   1.00   11.67    --  112.00 -94.00-180.00   27
 19  \w     71.00 116.00   1.00   11.67    --  112.00-111.00 -90.00   45
 20  \w     30.00 140.00   1.00   11.67    --  112.00 -15.00-180.00  110
 21  \w     48.00 118.00   1.00   11.67    --  112.00 -30.00  60.00   70
 22  \w     90.00 115.00   1.00   11.67    --  112.00-111.00   0.00   25
 23  \w    103.00 137.00   1.00   11.67    --  112.00  45.00  90.00   34
 24  \w     42.00  69.00   1.00   11.67    --  112.00 -94.00  60.00   27
 25  \w     87.00 173.00   1.00   11.67    --  112.00  45.00   0.00   86
 26  \w     58.00 143.00   1.00   11.67    --  112.00 178.00 120.00   85
 27  \w     44.00 138.00   1.00   11.67    --  112.00 -45.00-180.00   94
 28  \w     91.00 116.00   1.00    1.00    --  112.00-111.00 -60.00   25
 29  \w    153.00 178.00   1.00    1.00    --  112.00   0.00-150.00   25
 30  \w     92.00 136.00   1.00    1.00    --  112.00 -30.00-120.00   44
 31  \w     91.00 116.00   1.00    1.00    --  112.00-111.00  30.00   25
 32  \w     21.00  49.00   1.00   83.65    --   54.00  78.00 144.79   28
 33  \w     21.00  49.00   1.00   83.65    --   54.00  78.00-169.64   28
 34  \w     21.00  47.00   1.00   83.65    --   54.00  79.00 -99.66   26
 35  \w     20.00  46.00   1.00   83.65    --   54.00  81.00  28.00   26
 36  \w     49.00 147.00   1.00   83.65    --   74.00  43.00-128.97   98
 37  \w     86.00 178.00   1.00    1.00    --  112.00  45.00 -90.00   92
 38  \w     84.00 178.00   1.00    1.00    --  112.00  30.00 150.00   94
;
_diffrn_measurement_device       'four-circle diffractometer'
_diffrn_measurement_device_type  'SuperNova, Dual, Cu at zero, AtlasS2'
_diffrn_measurement_method       '\w scans'
_diffrn_orient_matrix_type
'CrysAlisPro convention (1999,Acta A55,543-557)'
_diffrn_orient_matrix_UB_11      -0.1043133000
_diffrn_orient_matrix_UB_12      0.0577515000
_diffrn_orient_matrix_UB_13      0.0189798000
_diffrn_orient_matrix_UB_21      -0.0614457000
_diffrn_orient_matrix_UB_22      -0.0416855000
_diffrn_orient_matrix_UB_23      -0.0925167000
_diffrn_orient_matrix_UB_31      -0.0632057000
_diffrn_orient_matrix_UB_32      -0.0767607000
_diffrn_orient_matrix_UB_33      0.0397754000
_diffrn_radiation_monochromator  mirror
_diffrn_radiation_probe          x-ray
_diffrn_radiation_type           CuK\a
_diffrn_radiation_wavelength     1.54184
_diffrn_reflns_av_R_equivalents  0.0406
_diffrn_reflns_av_unetI/netI     0.0298
_diffrn_reflns_Laue_measured_fraction_full 1.000
_diffrn_reflns_Laue_measured_fraction_max 0.988
_diffrn_reflns_limit_h_max       14
_diffrn_reflns_limit_h_min       -14
_diffrn_reflns_limit_k_max       16
_diffrn_reflns_limit_k_min       -18
_diffrn_reflns_limit_l_max       19
_diffrn_reflns_limit_l_min       -18
_diffrn_reflns_number            39788
_diffrn_reflns_point_group_measured_fraction_full 1.000
_diffrn_reflns_point_group_measured_fraction_max 0.988
_diffrn_reflns_theta_full        67.684
_diffrn_reflns_theta_max         76.879
_diffrn_reflns_theta_min         3.814
_diffrn_source                   'micro-focus sealed X-ray tube'
_diffrn_source_type              'SuperNova (Cu) X-ray Source'
_exptl_absorpt_coefficient_mu    0.441
_exptl_absorpt_correction_T_max  1.00000
_exptl_absorpt_correction_T_min  0.74758
_exptl_absorpt_correction_type   multi-scan
_exptl_absorpt_process_details
;
CrysAlisPro 1.171.38.41r (Rigaku Oxford Diffraction, 2015)
Empirical absorption correction using spherical harmonics,
 implemented in SCALE3 ABSPACK scaling algorithm.
;
_exptl_crystal_colour            'clear light colourless'
_exptl_crystal_colour_lustre     clear
_exptl_crystal_colour_modifier   light
_exptl_crystal_colour_primary    colourless
_exptl_crystal_density_diffrn    1.068
_exptl_crystal_description       block
_exptl_crystal_F_000             896
_exptl_crystal_size_max          0.308
_exptl_crystal_size_mid          0.131
_exptl_crystal_size_min          0.063
_refine_diff_density_max         0.263
_refine_diff_density_min         -0.246
_refine_diff_density_rms         0.040
_refine_ls_extinction_method     none
_refine_ls_goodness_of_fit_ref   1.053
_refine_ls_hydrogen_treatment    constr
_refine_ls_matrix_type           full
_refine_ls_number_parameters     593
_refine_ls_number_reflns         10645
_refine_ls_number_restraints     0
_refine_ls_restrained_S_all      1.053
_refine_ls_R_factor_all          0.0491
_refine_ls_R_factor_gt           0.0431
_refine_ls_shift/su_max          0.001
_refine_ls_shift/su_mean         0.000
_refine_ls_structure_factor_coef Fsqd
_refine_ls_weighting_details
'w=1/[\s^2^(Fo^2^)+(0.0552P)^2^+0.6646P] where P=(Fo^2^+2Fc^2^)/3'
_refine_ls_weighting_scheme      calc
_refine_ls_wR_factor_gt          0.1104
_refine_ls_wR_factor_ref         0.1154
_reflns_Friedel_coverage         0.000
_reflns_number_gt                9356
_reflns_number_total             10645
_reflns_threshold_expression     'I > 2\s(I)'
_iucr_refine_instructions_details
;

    ysh_sp3tbuf.res created by SHELXL-2014/7

TITL ysh_sp3tbuf_a.res in P-1
REM Old TITL ysh_sp3tbuf_a.res in P-1
REM SHELXT solution in P-1
REM R1 0.140, Rweak 0.005, Alpha 0.036, Orientation as input
REM Formula found by SHELXT: C62
CELL 1.54184 11.3612 15.0007 15.3112 99.798 93.975 94.8
ZERR 4 0.0003 0.0004 0.0004 0.002 0.002 0.002
LATT 1
SFAC C H
UNIT 124 152
 
L.S. 10 0 0
PLAN  20
BOND $H
list 4
fmap 2 53
acta
MORE -1
CONF
OMIT -6 1 2
REM <olex2.extras>
REM <HklSrc "%.\\YSH_sp3tBuF.hkl">
REM </olex2.extras>
 
WGHT    0.055200    0.664600
FVAR       0.44821   0.68262   0.56935
C00A  1    0.026445    0.474866    0.678760    11.00000    0.01943    0.02212 =
         0.02060    0.00505    0.00185   -0.00286
C00E  1    0.108950    0.330449    0.672884    11.00000    0.02448    0.02209 =
         0.02170    0.00418    0.00066   -0.00227
AFIX  43
H00J  2    0.153534    0.291751    0.699788    11.00000   -1.20000
AFIX   0
C00H  1    0.100675    0.556234    0.817758    11.00000    0.02378    0.02006 =
         0.02020    0.00627    0.00191   -0.00196
C00I  1    0.124643    0.631089    0.885305    11.00000    0.02872    0.02125 =
         0.01887    0.00553    0.00000   -0.00201
AFIX  43
H00K  2    0.176141    0.628415    0.934523    11.00000   -1.20000
AFIX   0
C00J  1   -0.026662    0.447462    0.592681    11.00000    0.02043    0.02760 =
         0.02230    0.00601   -0.00183   -0.00247
AFIX  43
H00M  2   -0.071414    0.486127    0.565867    11.00000   -1.20000
AFIX   0
C00K  1    0.069345    0.778201    1.043319    11.00000    0.02494    0.01922 =
         0.02234    0.00439   -0.00111   -0.00087
AFIX  23
H00N  2    0.111287    0.728301    1.058091    11.00000   -1.20000
H00O  2   -0.014826    0.759274    1.040158    11.00000   -1.20000
AFIX   0
C00M  1    0.146955    0.463186    0.811429    11.00000    0.02451    0.01917 =
         0.01867    0.00463   -0.00033   -0.00176
C00N  1    0.336825    0.387363    0.819373    11.00000    0.02411    0.02984 =
         0.02231    0.00723    0.00009   -0.00162
C00O  1    0.132858    0.446063    0.973328    11.00000    0.02814    0.02186 =
         0.02439    0.00833    0.00238    0.00283
C00P  1    0.094618    0.408938    0.879903    11.00000    0.02650    0.01991 =
         0.02113    0.00565    0.00097   -0.00145
AFIX  23
H00P  2    0.008846    0.406088    0.872061    11.00000   -1.20000
H00R  2    0.116292    0.347188    0.866680    11.00000   -1.20000
AFIX   0
C00U  1    0.191327    0.111130    0.426350    11.00000    0.02936    0.02066 =
         0.02305    0.00149   -0.00293    0.00100
C00V  1   -0.030208    0.637994    0.735966    11.00000    0.02451    0.02811 =
         0.02242    0.00753    0.00095    0.00239
AFIX  43
H00V  2   -0.082092    0.640390    0.686882    11.00000   -1.20000
AFIX   0
C00W  1    0.053911    0.301369    0.586725    11.00000    0.02189    0.02459 =
         0.02331    0.00113    0.00285   -0.00507
C00X  1    0.070943    0.710956    0.879198    11.00000    0.03134    0.02041 =
         0.02193    0.00575    0.00583   -0.00122
C01A  1    0.056545    0.830448    1.204288    11.00000    0.03978    0.02405 =
         0.02350    0.00278   -0.00297    0.00207
AFIX 137
H01Z  2   -0.028038    0.816977    1.197625    11.00000   -1.50000
H     2    0.078261    0.878540    1.254192    11.00000   -1.50000
HA    2    0.093216    0.777196    1.214034    11.00000   -1.50000
AFIX   0
C01F  1    0.379153    0.317223    0.817276    11.00000    0.03043    0.03066 =
         0.03340    0.00924    0.00382    0.00547
AFIX 163
H01   2    0.412250    0.262379    0.815636    11.00000   -1.20000
AFIX   0
C01G  1    0.032472    0.940643    1.100218    11.00000    0.04377    0.02372 =
         0.02666    0.00261   -0.00306    0.00858
AFIX 137
H1AA  2    0.065036    0.963829    1.051408    11.00000   -1.50000
HB    2    0.041206    0.987637    1.151952    11.00000   -1.50000
HC    2   -0.050094    0.920859    1.085077    11.00000   -1.50000
AFIX   0
C01H  1    0.162463    0.472261    1.049999    11.00000    0.03717    0.03178 =
         0.02250    0.00565   -0.00156    0.00666
AFIX 163
H2AA  2    0.185635    0.492766    1.110009    11.00000   -1.20000
AFIX   0
C01J  1    0.198298    0.034331    0.480247    11.00000    0.03646    0.02709 =
         0.03782    0.00967    0.00217    0.00465
AFIX 137
H3AA  2    0.264099    0.049203    0.524692    11.00000   -1.50000
HD    2    0.208944   -0.021174    0.441282    11.00000   -1.50000
HE    2    0.126223    0.026812    0.508561    11.00000   -1.50000
AFIX   0
C01L  1    0.305593    0.121035    0.380176    11.00000    0.04186    0.02602 =
         0.03164    0.00099    0.00742    0.00326
AFIX 137
H4AA  2    0.300489    0.167131    0.343966    11.00000   -1.50000
HF    2    0.316345    0.064228    0.343414    11.00000   -1.50000
HG    2    0.371688    0.137966    0.424156    11.00000   -1.50000
AFIX   0
C01M  1    0.231134    0.889433    1.133930    11.00000    0.03213    0.02950 =
         0.03826    0.00491   -0.00762   -0.00504
AFIX 137
H5AA  2    0.272846    0.838903    1.145129    11.00000   -1.50000
HH    2    0.246676    0.938202    1.183936    11.00000   -1.50000
HI    2    0.257446    0.909601    1.081669    11.00000   -1.50000
AFIX   0
C01N  1    0.086614    0.086627    0.355523    11.00000    0.04365    0.03349 =
         0.02892   -0.00677   -0.01252    0.00856
AFIX 137
H6AA  2    0.015787    0.072782    0.383333    11.00000   -1.50000
HJ    2    0.101545    0.034636    0.313245    11.00000   -1.50000
HK    2    0.076778    0.137084    0.325529    11.00000   -1.50000
AFIX   0
C007  1    0.026157    0.560411    0.741815    11.00000    0.02215    0.02232 =
         0.01962    0.00487    0.00205   -0.00259
C009  1    0.096655    0.417186    0.717868    11.00000    0.02184    0.02114 =
         0.01847    0.00452    0.00067   -0.00366
C012  1    0.098358    0.860186    1.119719    11.00000    0.02783    0.01934 =
         0.02294    0.00335   -0.00418    0.00102
C013  1   -0.011569    0.361096    0.547436    11.00000    0.02244    0.02996 =
         0.01977    0.00155   -0.00217   -0.00473
AFIX  43
H013  2   -0.045956    0.342666    0.489559    11.00000   -1.20000
AFIX   0
C014  1    0.177729    0.202276    0.486825    11.00000    0.02807    0.02110 =
         0.02319    0.00032   -0.00078   -0.00298
AFIX  23
H7AA  2    0.246051    0.216368    0.530163    11.00000   -1.20000
HL    2    0.179473    0.249404    0.450578    11.00000   -1.20000
AFIX   0
C015  1    0.065665    0.206797    0.536980    11.00000    0.02839    0.02383 =
         0.02575   -0.00097    0.00038   -0.00518
AFIX  23
H8AA  2   -0.003276    0.187379    0.494932    11.00000   -1.20000
HM    2    0.067493    0.165061    0.578877    11.00000   -1.20000
AFIX   0
C016  1   -0.007463    0.712351    0.805231    11.00000    0.03021    0.02382 =
         0.02604    0.00877    0.00585    0.00504
AFIX  43
H016  2   -0.045635    0.764320    0.802020    11.00000   -1.20000
AFIX   0
C017  1    0.100216    0.794074    0.951086    11.00000    0.03793    0.01933 =
         0.02571    0.00552    0.00448   -0.00096
AFIX  23
H9AA  2    0.057382    0.843100    0.935230    11.00000   -1.20000
HN    2    0.184275    0.813179    0.953645    11.00000   -1.20000
AFIX   0
C018  1    0.283931    0.473159    0.822905    11.00000    0.02416    0.02373 =
         0.02176    0.00645   -0.00151   -0.00273
AFIX  23
H0BA  2    0.313508    0.503529    0.776582    11.00000   -1.20000
HO    2    0.309739    0.511761    0.879637    11.00000   -1.20000
AFIX   0
 
PART 2
C0AA  1    0.622433    0.839814    0.870301   -31.00000    0.09694    0.02770 =
         0.03916   -0.00766   -0.03322    0.02108
AFIX 137
H0AA  2    0.699095    0.851066    0.849427   -31.00000   -1.50000
H0AB  2    0.611047    0.887557    0.918421   -31.00000   -1.50000
H0AC  2    0.562230    0.837985    0.822657   -31.00000   -1.50000
AFIX   0
PART 0
C00B  1    0.627206    0.431766    0.609489    11.00000    0.01939    0.01873 =
         0.01828    0.00390   -0.00343   -0.00067
C00C  1    0.744567    0.219533    0.375915    11.00000    0.01750    0.02185 =
         0.02045    0.00039   -0.00287   -0.00163
C00D  1    0.516318    0.278858    0.607604    11.00000    0.02262    0.02084 =
         0.01981    0.00572   -0.00076   -0.00012
AFIX  23
H00A  2    0.487203    0.303045    0.664046    11.00000   -1.20000
H00B  2    0.460972    0.290508    0.560666    11.00000   -1.20000
AFIX   0
C00F  1    0.582622    0.582628    0.671971    11.00000    0.02055    0.02073 =
         0.01992    0.00093   -0.00546    0.00123
C00G  1    0.618411    0.612529    0.595491    11.00000    0.02627    0.01757 =
         0.02393    0.00490   -0.00490    0.00009
AFIX  43
H00G  2    0.615916    0.673468    0.591259    11.00000   -1.20000
AFIX   0
C00L  1    0.587104    0.490793    0.678562    11.00000    0.02248    0.02163 =
         0.01757    0.00439   -0.00220    0.00079
AFIX  43
H00L  2    0.563361    0.469628    0.728881    11.00000   -1.20000
AFIX   0
C00Q  1    0.657630    0.553823    0.525557    11.00000    0.02469    0.02003 =
         0.01969    0.00606   -0.00240   -0.00088
AFIX  43
H00Q  2    0.681126    0.574896    0.475128    11.00000   -1.20000
AFIX   0
C00R  1    0.518802    0.180323    0.600693    11.00000    0.02371    0.02591 =
         0.02274    0.00685    0.00062   -0.00297
C00S  1    0.767801    0.129247    0.322982    11.00000    0.02206    0.02245 =
         0.02328   -0.00074   -0.00041    0.00034
AFIX  23
H00C  2    0.807014    0.094379    0.362174    11.00000   -1.20000
H00D  2    0.820609    0.139581    0.277806    11.00000   -1.20000
AFIX   0
C00T  1    0.543901    0.648921    0.747666    11.00000    0.02381    0.02126 =
         0.02243    0.00022   -0.00252    0.00257
AFIX  23
H00E  2    0.474851    0.621271    0.770382    11.00000   -1.20000
H00F  2    0.521370    0.702564    0.725692    11.00000   -1.20000
AFIX   0
C00Y  1    0.667803   -0.008250    0.206498    11.00000    0.02440    0.02014 =
         0.02177    0.00157   -0.00055   -0.00094
C00Z  1    0.733030    0.308177    0.670818    11.00000    0.02253    0.02206 =
         0.02019    0.00617   -0.00176    0.00186
AFIX  23
H00H  2    0.745726    0.244395    0.656260    11.00000   -1.20000
H00I  2    0.807423    0.343421    0.666835    11.00000   -1.20000
AFIX   0
C001  1    0.660948    0.462915    0.532682    11.00000    0.01893    0.01907 =
         0.01787    0.00377   -0.00357   -0.00050
C01B  1    0.613958    0.744304    0.904383    11.00000    0.03215    0.02759 =
         0.02260   -0.00298   -0.00631    0.00640
C01C  1    0.642209    0.677122    0.823341    11.00000    0.02770    0.02678 =
         0.02361   -0.00125   -0.00584    0.00631
AFIX  23
H01A  2    0.664611    0.622583    0.843623    11.00000   -1.20000
H01B  2    0.710842    0.703607    0.799180    11.00000   -1.20000
AFIX   0
C01D  1    0.545009   -0.058484    0.175788    11.00000    0.02913    0.02516 =
         0.02903    0.00066   -0.00395   -0.00293
AFIX 137
H01C  2    0.512173   -0.081166    0.224762    11.00000   -1.50000
H01D  2    0.552006   -0.108341    0.128605    11.00000   -1.50000
H01E  2    0.493914   -0.017418    0.154757    11.00000   -1.50000
AFIX   0
C01E  1    0.720632    0.023412    0.126109    11.00000    0.03703    0.02608 =
         0.02459    0.00263    0.00349   -0.00082
AFIX 137
H01F  2    0.671568    0.065298    0.104270    11.00000   -1.50000
H01G  2    0.724369   -0.028165    0.080055    11.00000   -1.50000
H01H  2    0.799011    0.052912    0.143710    11.00000   -1.50000
AFIX   0
C01I  1    0.673008    0.342017    0.836934    11.00000    0.03624    0.03958 =
         0.02218    0.00836   -0.00094    0.00576
AFIX 163
H01I  2    0.651570    0.353372    0.895026    11.00000   -1.20000
AFIX   0
C01K  1    0.523591    0.100739    0.594966    11.00000    0.03490    0.02389 =
         0.03590    0.00956    0.00498   -0.00141
AFIX 163
H01K  2    0.527339    0.038447    0.590482    11.00000   -1.20000
AFIX   0
C01O  1    0.721374    0.761522    0.972365    11.00000    0.04950    0.04127 =
         0.03132   -0.00961   -0.01678    0.01504
AFIX 137
H01J  2    0.739393    0.705184    0.989472    11.00000   -1.50000
H01L  2    0.704315    0.803116    1.023818    11.00000   -1.50000
H01M  2    0.788128    0.787122    0.946661    11.00000   -1.50000
AFIX   0
PART 1
C01P  1    0.567557    0.828707    0.884219    31.00000    0.06828    0.03720 =
         0.02998   -0.00573   -0.01148    0.02861
AFIX 137
H01N  2    0.622380    0.858380    0.850884    31.00000   -1.50000
H01O  2    0.557893    0.868567    0.938800    31.00000   -1.50000
H01P  2    0.492354    0.813823    0.849919    31.00000   -1.50000
AFIX   0
C01Q  1    0.516574    0.695664    0.952325    21.00000    0.06231    0.07864 =
         0.02223   -0.00628    0.00519   -0.02810
AFIX 137
H01Q  2    0.444425    0.682453    0.914030    21.00000   -1.50000
H01R  2    0.502646    0.734681    1.006389    21.00000   -1.50000
H01S  2    0.542985    0.640056    0.965928    21.00000   -1.50000
AFIX   0
PART 0
PART 2
C01R  1    0.492899    0.734226    0.929746   -21.00000    0.05927    0.07272 =
         0.02409   -0.00798    0.00961    0.00354
AFIX 137
H01T  2    0.438665    0.741983    0.881292   -21.00000   -1.50000
H01U  2    0.484233    0.779324    0.980867   -21.00000   -1.50000
H01V  2    0.476066    0.674735    0.943785   -21.00000   -1.50000
AFIX   0
PART 0
C002  1    0.693551    0.385985    0.469612    11.00000    0.01775    0.01819 =
         0.01819    0.00341   -0.00345   -0.00134
C003  1    0.638783    0.329901    0.600829    11.00000    0.02115    0.01781 =
         0.01713    0.00410   -0.00120    0.00050
C004  1    0.707696    0.224861    0.461986    11.00000    0.02087    0.01855 =
         0.02135    0.00451   -0.00123   -0.00086
AFIX  43
H004  2    0.701200    0.173224    0.488079    11.00000   -1.20000
AFIX   0
C005  1    0.755921    0.298259    0.338489    11.00000    0.02134    0.02652 =
         0.01640    0.00345   -0.00097   -0.00177
AFIX  43
H005  2    0.780217    0.294744    0.281338    11.00000   -1.20000
AFIX   0
C006  1    0.731558    0.381808    0.385120    11.00000    0.02133    0.02162 =
         0.01905    0.00630   -0.00252   -0.00177
AFIX  43
H006  2    0.740650    0.433933    0.359965    11.00000   -1.20000
AFIX   0
C008  1    0.680986    0.307488    0.507967    11.00000    0.01791    0.02022 =
         0.01779    0.00494   -0.00289   -0.00112
C010  1    0.653084    0.074379    0.278188    11.00000    0.02210    0.02182 =
         0.02446    0.00076   -0.00070   -0.00058
AFIX  23
H01W  2    0.605521    0.114939    0.251314    11.00000   -1.20000
H01X  2    0.608893    0.053315    0.323970    11.00000   -1.20000
AFIX   0
C011  1    0.700456    0.327480    0.762558    11.00000    0.02563    0.02420 =
         0.02216    0.00713   -0.00461    0.00175
C019  1    0.747398   -0.073060    0.243504    11.00000    0.03027    0.02241 =
         0.02792    0.00123   -0.00097    0.00237
AFIX 137
H01Y  2    0.824868   -0.042150    0.261839    11.00000   -1.50000
HP    2    0.753441   -0.124874    0.198224    11.00000   -1.50000
HQ    2    0.713757   -0.092762    0.293636    11.00000   -1.50000
AFIX   0
HKLF 4
 
REM  ysh_sp3tbuf_a.res in P-1
REM R1 =  0.0431 for    9356 Fo > 4sig(Fo)  and  0.0491 for all   10645 data
REM    593 parameters refined using      0 restraints
 
END  
     
WGHT      0.0554      0.6619 

REM Highest difference peak  0.263,  deepest hole -0.246,  1-sigma level  0.040
Q1    1   0.1180  0.4378  0.8428  11.00000  0.05    0.26
Q2    1   0.6798  0.3446  0.4828  11.00000  0.05    0.25
Q3    1   0.0208  0.5208  0.7057  11.00000  0.05    0.24
Q4    1   0.1314  0.5121  0.8216  11.00000  0.05    0.23
Q5    1   0.6874  0.3238  0.6302  11.00000  0.05    0.21
Q6    1   0.6318  0.3815  0.6159  11.00000  0.05    0.21
Q7    1   0.1226  0.4366  0.7651  11.00000  0.05    0.21
Q8    1   0.0620  0.4423  0.6924  11.00000  0.05    0.21
Q9    1   0.6814  0.4270  0.4950  11.00000  0.05    0.21
Q10   1   0.1023  0.6754  0.8803  11.00000  0.05    0.21
Q11   1   0.6609  0.4556  0.5732  11.00000  0.05    0.20
Q12   1   0.7015 -0.0388  0.2214  11.00000  0.05    0.20
Q13   1   0.5668  0.5390  0.6746  11.00000  0.05    0.20
Q14   1   0.6953  0.0044  0.1709  11.00000  0.05    0.20
Q15   1   0.0890  0.8199  1.0817  11.00000  0.05    0.19
Q16   1   0.1845  0.1584  0.4563  11.00000  0.05    0.19
Q17   1   0.5817  0.3062  0.6036  11.00000  0.05    0.18
Q18   1   0.0791  0.3181  0.6284  11.00000  0.05    0.18
Q19   1   0.0581  0.5613  0.7797  11.00000  0.05    0.18
Q20   1   0.6293  0.4426  0.5621  11.00000  0.05    0.18

  REM The information below was added by Olex2.
  REM
  REM R1 = 0.0431 for 9356 Fo > 4sig(Fo) and 0.0491 for all 39790 data
  REM n/a parameters refined using n/a restraints
  REM Highest difference peak 0.26, deepest hole -0.25
  REM Mean Shift 0, Max Shift 0.001.
  
  REM +++ Tabular Listing of Refinement Information +++
  REM R1_all = 0.0491
  REM R1_gt = 0.0431
  REM wR_ref = 0.1154
  REM GOOF = 1.053
  REM Shift_max = 0.001
  REM Shift_mean = 0
  REM Reflections_all = 39790
  REM Reflections_gt = 9356
  REM Parameters = n/a
  REM Hole = -0.25
  REM Peak = 0.26
  REM Flack = n/a
  
  
;
_cod_data_source_file            ja6b12378_si_003.cif
_cod_data_source_block           ysh_sp3tbuf
_cod_database_code               4125655
_chemical_oxdiff_formula         C31H38
_chemical_oxdiff_usercomment     Hexane
_shelx_space_group_comment
;
The symmetry employed for this shelxl refinement is uniquely defined
by the following loop, which should always be used as a source of
symmetry information in preference to the above space-group names.
They are only intended as comments.
;
_reflns_odcompleteness_completeness 99.94
_reflns_odcompleteness_iscentric 1
_reflns_odcompleteness_theta     74.33
_olex2_refinement_description
;
1. Fixed Uiso
 At 1.2 times of:
  All C(H) groups, All C(H,H) groups
 At 1.5 times of:
  All C(H,H,H) groups
2. Others
 Sof(C01R)=Sof(H01T)=Sof(H01U)=Sof(H01V)=1-FVAR(1)
 Sof(C01Q)=Sof(H01Q)=Sof(H01R)=Sof(H01S)=FVAR(1)
 Sof(C0AA)=Sof(H0AA)=Sof(H0AB)=Sof(H0AC)=1-FVAR(2)
 Sof(C01P)=Sof(H01N)=Sof(H01O)=Sof(H01P)=FVAR(2)
3.a Secondary CH2 refined with riding coordinates:
 C00K(H00N,H00O), C00P(H00P,H00R), C014(H7AA,HL), C015(H8AA,HM), C017(H9AA,HN),
  C018(H0BA,HO), C00D(H00A,H00B), C00S(H00C,H00D), C00T(H00E,H00F), C00Z(H00H,
 H00I), C01C(H01A,H01B), C010(H01W,H01X)
3.b Aromatic/amide H refined with riding coordinates:
 C00E(H00J), C00I(H00K), C00J(H00M), C00V(H00V), C013(H013), C016(H016),
 C00G(H00G), C00L(H00L), C00Q(H00Q), C004(H004), C005(H005), C006(H006)
3.c Idealised Me refined as rotating group:
 C01A(H01Z,H,HA), C01G(H1AA,HB,HC), C01J(H3AA,HD,HE), C01L(H4AA,HF,HG),
 C01M(H5AA,HH,HI), C01N(H6AA,HJ,HK), C0AA(H0AA,H0AB,H0AC), C01D(H01C,H01D,H01E),
  C01E(H01F,H01G,H01H), C01O(H01J,H01L,H01M), C01P(H01N,H01O,H01P), C01Q(H01Q,
 H01R,H01S), C01R(H01T,H01U,H01V), C019(H01Y,HP,HQ)
3.d :
 C01F(H01), C01H(H2AA), C01I(H01I), C01K(H01K)
;
_shelx_shelxl_version_number     2014/7
_olex2_submission_special_instructions 'No special instructions were received'
_oxdiff_exptl_absorpt_empirical_details
;
Empirical correction (ABSPACK) includes:
- Absorption correction using spherical harmonics
- Frame scaling
;
_oxdiff_exptl_absorpt_empirical_full_max 2.104
_oxdiff_exptl_absorpt_empirical_full_min 0.665
loop_
_space_group_symop_operation_xyz
'x, y, z'
'-x, -y, -z'
loop_
_atom_site_label
_atom_site_type_symbol
_atom_site_fract_x
_atom_site_fract_y
_atom_site_fract_z
_atom_site_U_iso_or_equiv
_atom_site_adp_type
_atom_site_occupancy
_atom_site_site_symmetry_order
_atom_site_calc_flag
_atom_site_refinement_flags_posn
_atom_site_refinement_flags_occupancy
_atom_site_disorder_assembly
_atom_site_disorder_group
C00A C 0.02644(9) 0.47487(7) 0.67876(7) 0.0208(2) Uani 1 1 d . . . .
C00E C 0.10895(10) 0.33045(8) 0.67288(7) 0.0230(2) Uani 1 1 d . . . .
H00J H 0.1535 0.2918 0.6998 0.028 Uiso 1 1 calc R . . .
C00H C 0.10067(10) 0.55623(7) 0.81776(7) 0.0213(2) Uani 1 1 d . . . .
C00I C 0.12464(10) 0.63109(7) 0.88531(7) 0.0231(2) Uani 1 1 d . . . .
H00K H 0.1761 0.6284 0.9345 0.028 Uiso 1 1 calc R . . .
C00J C -0.02666(10) 0.44746(8) 0.59268(8) 0.0237(2) Uani 1 1 d . . . .
H00M H -0.0714 0.4861 0.5659 0.028 Uiso 1 1 calc R . . .
C00K C 0.06935(10) 0.77820(7) 1.04332(7) 0.0224(2) Uani 1 1 d . . . .
H00N H 0.1113 0.7283 1.0581 0.027 Uiso 1 1 calc R . . .
H00O H -0.0148 0.7593 1.0402 0.027 Uiso 1 1 calc R . . .
C00M C 0.14696(10) 0.46319(7) 0.81143(7) 0.0210(2) Uani 1 1 d . . . .
C00N C 0.33682(10) 0.38736(8) 0.81937(8) 0.0254(2) Uani 1 1 d . . . .
C00O C 0.13286(10) 0.44606(8) 0.97333(8) 0.0243(2) Uani 1 1 d . . . .
C00P C 0.09462(10) 0.40894(7) 0.87990(7) 0.0225(2) Uani 1 1 d . . . .
H00P H 0.0088 0.4061 0.8721 0.027 Uiso 1 1 calc R . . .
H00R H 0.1163 0.3472 0.8667 0.027 Uiso 1 1 calc R . . .
C00U C 0.19133(11) 0.11113(8) 0.42635(8) 0.0250(2) Uani 1 1 d . . . .
C00V C -0.03021(10) 0.63799(8) 0.73597(8) 0.0247(2) Uani 1 1 d . . . .
H00V H -0.0821 0.6404 0.6869 0.030 Uiso 1 1 calc R . . .
C00W C 0.05391(10) 0.30137(8) 0.58673(8) 0.0240(2) Uani 1 1 d . . . .
C00X C 0.07094(11) 0.71096(8) 0.87920(8) 0.0244(2) Uani 1 1 d . . . .
C01A C 0.05655(12) 0.83045(8) 1.20429(8) 0.0296(3) Uani 1 1 d . . . .
H01Z H -0.0280 0.8170 1.1976 0.044 Uiso 1 1 calc GR . . .
H H 0.0783 0.8785 1.2542 0.044 Uiso 1 1 calc GR . . .
HA H 0.0932 0.7772 1.2140 0.044 Uiso 1 1 calc GR . . .
C01F C 0.37915(11) 0.31722(9) 0.81728(9) 0.0309(3) Uani 1 1 d . . . .
H01 H 0.4123 0.2624 0.8156 0.037 Uiso 1 1 calc R . . .
C01G C 0.03247(12) 0.94064(8) 1.10022(8) 0.0316(3) Uani 1 1 d . . . .
H1AA H 0.0650 0.9638 1.0514 0.047 Uiso 1 1 calc GR . . .
HB H 0.0412 0.9876 1.1520 0.047 Uiso 1 1 calc GR . . .
HC H -0.0501 0.9209 1.0851 0.047 Uiso 1 1 calc GR . . .
C01H C 0.16246(11) 0.47226(9) 1.05000(8) 0.0304(3) Uani 1 1 d . . . .
H2AA H 0.1856 0.4928 1.1100 0.036 Uiso 1 1 calc R . . .
C01J C 0.19830(12) 0.03433(9) 0.48025(9) 0.0333(3) Uani 1 1 d . . . .
H3AA H 0.2641 0.0492 0.5247 0.050 Uiso 1 1 calc GR . . .
HD H 0.2089 -0.0212 0.4413 0.050 Uiso 1 1 calc GR . . .
HE H 0.1262 0.0268 0.5086 0.050 Uiso 1 1 calc GR . . .
C01L C 0.30559(12) 0.12104(9) 0.38018(9) 0.0335(3) Uani 1 1 d . . . .
H4AA H 0.3005 0.1671 0.3440 0.050 Uiso 1 1 calc GR . . .
HF H 0.3163 0.0642 0.3434 0.050 Uiso 1 1 calc GR . . .
HG H 0.3717 0.1380 0.4242 0.050 Uiso 1 1 calc GR . . .
C01M C 0.23113(12) 0.88943(9) 1.13393(9) 0.0344(3) Uani 1 1 d . . . .
H5AA H 0.2728 0.8389 1.1451 0.052 Uiso 1 1 calc GR . . .
HH H 0.2467 0.9382 1.1839 0.052 Uiso 1 1 calc GR . . .
HI H 0.2574 0.9096 1.0817 0.052 Uiso 1 1 calc GR . . .
C01N C 0.08661(13) 0.08663(9) 0.35552(9) 0.0373(3) Uani 1 1 d . . . .
H6AA H 0.0158 0.0728 0.3833 0.056 Uiso 1 1 calc GR . . .
HJ H 0.1015 0.0346 0.3132 0.056 Uiso 1 1 calc GR . . .
HK H 0.0768 0.1371 0.3255 0.056 Uiso 1 1 calc GR . . .
C007 C 0.02616(10) 0.56041(7) 0.74182(7) 0.0215(2) Uani 1 1 d . . . .
C009 C 0.09665(10) 0.41719(7) 0.71787(7) 0.0207(2) Uani 1 1 d . . . .
C012 C 0.09836(10) 0.86019(7) 1.11972(7) 0.0238(2) Uani 1 1 d . . . .
C013 C -0.01157(10) 0.36110(8) 0.54744(8) 0.0250(2) Uani 1 1 d . . . .
H013 H -0.0460 0.3427 0.4896 0.030 Uiso 1 1 calc R . . .
C014 C 0.17773(10) 0.20228(8) 0.48683(8) 0.0250(2) Uani 1 1 d . . . .
H7AA H 0.2461 0.2164 0.5302 0.030 Uiso 1 1 calc R . . .
HL H 0.1795 0.2494 0.4506 0.030 Uiso 1 1 calc R . . .
C015 C 0.06567(11) 0.20680(8) 0.53698(8) 0.0272(2) Uani 1 1 d . . . .
H8AA H -0.0033 0.1874 0.4949 0.033 Uiso 1 1 calc R . . .
HM H 0.0675 0.1651 0.5789 0.033 Uiso 1 1 calc R . . .
C016 C -0.00746(11) 0.71235(8) 0.80523(8) 0.0259(2) Uani 1 1 d . . . .
H016 H -0.0456 0.7643 0.8020 0.031 Uiso 1 1 calc R . . .
C017 C 0.10022(12) 0.79407(8) 0.95109(8) 0.0276(2) Uani 1 1 d . . . .
H9AA H 0.0574 0.8431 0.9352 0.033 Uiso 1 1 calc R . . .
HN H 0.1843 0.8132 0.9536 0.033 Uiso 1 1 calc R . . .
C018 C 0.28393(10) 0.47316(8) 0.82291(8) 0.0234(2) Uani 1 1 d . . . .
H0BA H 0.3135 0.5035 0.7766 0.028 Uiso 1 1 calc R . . .
HO H 0.3097 0.5118 0.8796 0.028 Uiso 1 1 calc R . . .
C0AA C 0.6224(17) 0.8398(5) 0.8703(7) 0.057(3) Uani 0.43(2) 1 d . P A 2
H0AA H 0.6991 0.8511 0.8494 0.086 Uiso 0.43(2) 1 calc GR P A 2
H0AB H 0.6110 0.8876 0.9184 0.086 Uiso 0.43(2) 1 calc GR P A 2
H0AC H 0.5622 0.8380 0.8227 0.086 Uiso 0.43(2) 1 calc GR P A 2
C00B C 0.62721(9) 0.43177(7) 0.60949(7) 0.0191(2) Uani 1 1 d . . . .
C00C C 0.74457(9) 0.21953(7) 0.37591(7) 0.0207(2) Uani 1 1 d . . . .
C00D C 0.51632(10) 0.27886(7) 0.60760(7) 0.0211(2) Uani 1 1 d . . . .
H00A H 0.4872 0.3030 0.6640 0.025 Uiso 1 1 calc R . . .
H00B H 0.4610 0.2905 0.5607 0.025 Uiso 1 1 calc R . . .
C00F C 0.58262(9) 0.58263(7) 0.67197(7) 0.0211(2) Uani 1 1 d . . . .
C00G C 0.61841(10) 0.61253(7) 0.59549(7) 0.0229(2) Uani 1 1 d . . . .
H00G H 0.6159 0.6735 0.5913 0.027 Uiso 1 1 calc R . . .
C00L C 0.58710(10) 0.49079(7) 0.67856(7) 0.0207(2) Uani 1 1 d . . . .
H00L H 0.5634 0.4696 0.7289 0.025 Uiso 1 1 calc R . . .
C00Q C 0.65763(10) 0.55382(7) 0.52556(7) 0.0216(2) Uani 1 1 d . . . .
H00Q H 0.6811 0.5749 0.4751 0.026 Uiso 1 1 calc R . . .
C00R C 0.51880(10) 0.18032(8) 0.60069(8) 0.0242(2) Uani 1 1 d . . . .
C00S C 0.76780(10) 0.12925(7) 0.32298(8) 0.0234(2) Uani 1 1 d . . . .
H00C H 0.8070 0.0944 0.3622 0.028 Uiso 1 1 calc R . . .
H00D H 0.8206 0.1396 0.2778 0.028 Uiso 1 1 calc R . . .
C00T C 0.54390(10) 0.64892(7) 0.74767(7) 0.0231(2) Uani 1 1 d . . . .
H00E H 0.4749 0.6213 0.7704 0.028 Uiso 1 1 calc R . . .
H00F H 0.5214 0.7026 0.7257 0.028 Uiso 1 1 calc R . . .
C00Y C 0.66780(10) -0.00825(7) 0.20650(7) 0.0227(2) Uani 1 1 d . . . .
C00Z C 0.73303(10) 0.30818(7) 0.67082(7) 0.0215(2) Uani 1 1 d . . . .
H00H H 0.7457 0.2444 0.6563 0.026 Uiso 1 1 calc R . . .
H00I H 0.8074 0.3434 0.6668 0.026 Uiso 1 1 calc R . . .
C001 C 0.66095(9) 0.46292(7) 0.53268(7) 0.0189(2) Uani 1 1 d . . . .
C01B C 0.61396(11) 0.74430(8) 0.90438(8) 0.0285(3) Uani 1 1 d . . . .
C01C C 0.64221(11) 0.67712(8) 0.82334(8) 0.0269(2) Uani 1 1 d . . . .
H01A H 0.6646 0.6226 0.8436 0.032 Uiso 1 1 calc R . . .
H01B H 0.7108 0.7036 0.7992 0.032 Uiso 1 1 calc R . . .
C01D C 0.54501(11) -0.05848(8) 0.17579(8) 0.0289(3) Uani 1 1 d . . . .
H01C H 0.5122 -0.0812 0.2248 0.043 Uiso 1 1 calc GR . . .
H01D H 0.5520 -0.1083 0.1286 0.043 Uiso 1 1 calc GR . . .
H01E H 0.4939 -0.0174 0.1548 0.043 Uiso 1 1 calc GR . . .
C01E C 0.72063(12) 0.02341(8) 0.12611(8) 0.0296(3) Uani 1 1 d . . . .
H01F H 0.6716 0.0653 0.1043 0.044 Uiso 1 1 calc GR . . .
H01G H 0.7244 -0.0282 0.0801 0.044 Uiso 1 1 calc GR . . .
H01H H 0.7990 0.0529 0.1437 0.044 Uiso 1 1 calc GR . . .
C01I C 0.67301(12) 0.34202(9) 0.83693(8) 0.0324(3) Uani 1 1 d . . . .
H01I H 0.6516 0.3534 0.8950 0.039 Uiso 1 1 calc R . . .
C01K C 0.52359(11) 0.10074(8) 0.59497(9) 0.0312(3) Uani 1 1 d . . . .
H01K H 0.5273 0.0384 0.5905 0.037 Uiso 1 1 calc R . . .
C01O C 0.72137(14) 0.76152(10) 0.97237(9) 0.0429(4) Uani 1 1 d . . . .
H01J H 0.7394 0.7052 0.9895 0.064 Uiso 1 1 calc GR . . .
H01L H 0.7043 0.8031 1.0238 0.064 Uiso 1 1 calc GR . . .
H01M H 0.7881 0.7871 0.9467 0.064 Uiso 1 1 calc GR . . .
C01P C 0.5676(10) 0.8287(5) 0.8842(4) 0.0459(15) Uani 0.57(2) 1 d . P A 1
H01N H 0.6224 0.8584 0.8509 0.069 Uiso 0.57(2) 1 calc GR P A 1
H01O H 0.5579 0.8686 0.9388 0.069 Uiso 0.57(2) 1 calc GR P A 1
H01P H 0.4924 0.8138 0.8499 0.069 Uiso 0.57(2) 1 calc GR P A 1
C01Q C 0.5166(5) 0.6957(5) 0.9523(3) 0.0581(15) Uani 0.683(17) 1 d . P A 1
H01Q H 0.4444 0.6825 0.9140 0.087 Uiso 0.683(17) 1 calc GR P A 1
H01R H 0.5026 0.7347 1.0064 0.087 Uiso 0.683(17) 1 calc GR P A 1
H01S H 0.5430 0.6401 0.9659 0.087 Uiso 0.683(17) 1 calc GR P A 1
C01R C 0.4929(7) 0.7342(10) 0.9297(7) 0.054(3) Uani 0.317(17) 1 d . P A 2
H01T H 0.4387 0.7420 0.8813 0.081 Uiso 0.317(17) 1 calc GR P A 2
H01U H 0.4842 0.7793 0.9809 0.081 Uiso 0.317(17) 1 calc GR P A 2
H01V H 0.4761 0.6747 0.9438 0.081 Uiso 0.317(17) 1 calc GR P A 2
C002 C 0.69355(9) 0.38599(7) 0.46961(7) 0.0184(2) Uani 1 1 d . . . .
C003 C 0.63878(9) 0.32990(7) 0.60083(7) 0.0188(2) Uani 1 1 d . . . .
C004 C 0.70770(9) 0.22486(7) 0.46199(7) 0.0204(2) Uani 1 1 d . . . .
H004 H 0.7012 0.1732 0.4881 0.025 Uiso 1 1 calc R . . .
C005 C 0.75592(10) 0.29826(8) 0.33849(7) 0.0218(2) Uani 1 1 d . . . .
H005 H 0.7802 0.2947 0.2813 0.026 Uiso 1 1 calc R . . .
C006 C 0.73156(9) 0.38181(7) 0.38512(7) 0.0208(2) Uani 1 1 d . . . .
H006 H 0.7406 0.4339 0.3600 0.025 Uiso 1 1 calc R . . .
C008 C 0.68099(9) 0.30749(7) 0.50797(7) 0.0188(2) Uani 1 1 d . . . .
C010 C 0.65308(10) 0.07438(8) 0.27819(8) 0.0235(2) Uani 1 1 d . . . .
H01W H 0.6055 0.1149 0.2513 0.028 Uiso 1 1 calc R . . .
H01X H 0.6089 0.0533 0.3240 0.028 Uiso 1 1 calc R . . .
C011 C 0.70046(10) 0.32748(8) 0.76256(8) 0.0240(2) Uani 1 1 d . . . .
C019 C 0.74740(11) -0.07306(8) 0.24350(8) 0.0274(2) Uani 1 1 d . . . .
H01Y H 0.8249 -0.0422 0.2618 0.041 Uiso 1 1 calc GR . . .
HP H 0.7534 -0.1249 0.1982 0.041 Uiso 1 1 calc GR . . .
HQ H 0.7138 -0.0928 0.2936 0.041 Uiso 1 1 calc GR . . .
loop_
_atom_site_aniso_label
_atom_site_aniso_U_11
_atom_site_aniso_U_22
_atom_site_aniso_U_33
_atom_site_aniso_U_23
_atom_site_aniso_U_13
_atom_site_aniso_U_12
C00A 0.0194(5) 0.0221(5) 0.0206(5) 0.0050(4) 0.0019(4) -0.0029(4)
C00E 0.0245(5) 0.0221(5) 0.0217(5) 0.0042(4) 0.0007(4) -0.0023(4)
C00H 0.0238(5) 0.0201(5) 0.0202(5) 0.0063(4) 0.0019(4) -0.0020(4)
C00I 0.0287(6) 0.0213(5) 0.0189(5) 0.0055(4) 0.0000(4) -0.0020(4)
C00J 0.0204(5) 0.0276(6) 0.0223(5) 0.0060(4) -0.0018(4) -0.0025(4)
C00K 0.0249(5) 0.0192(5) 0.0223(5) 0.0044(4) -0.0011(4) -0.0009(4)
C00M 0.0245(5) 0.0192(5) 0.0187(5) 0.0046(4) -0.0003(4) -0.0018(4)
C00N 0.0241(5) 0.0298(6) 0.0223(5) 0.0072(5) 0.0001(4) -0.0016(5)
C00O 0.0281(6) 0.0219(5) 0.0244(6) 0.0083(4) 0.0024(4) 0.0028(4)
C00P 0.0265(5) 0.0199(5) 0.0211(5) 0.0057(4) 0.0010(4) -0.0015(4)
C00U 0.0294(6) 0.0207(5) 0.0230(5) 0.0015(4) -0.0029(4) 0.0010(4)
C00V 0.0245(5) 0.0281(6) 0.0224(5) 0.0075(4) 0.0009(4) 0.0024(4)
C00W 0.0219(5) 0.0246(5) 0.0233(5) 0.0011(4) 0.0029(4) -0.0051(4)
C00X 0.0313(6) 0.0204(5) 0.0219(5) 0.0058(4) 0.0058(4) -0.0012(4)
C01A 0.0398(7) 0.0241(6) 0.0235(6) 0.0028(4) -0.0030(5) 0.0021(5)
C01F 0.0304(6) 0.0307(6) 0.0334(7) 0.0092(5) 0.0038(5) 0.0055(5)
C01G 0.0438(7) 0.0237(6) 0.0267(6) 0.0026(5) -0.0031(5) 0.0086(5)
C01H 0.0372(7) 0.0318(6) 0.0225(6) 0.0056(5) -0.0016(5) 0.0067(5)
C01J 0.0365(7) 0.0271(6) 0.0378(7) 0.0097(5) 0.0022(5) 0.0047(5)
C01L 0.0419(7) 0.0260(6) 0.0316(7) 0.0010(5) 0.0074(5) 0.0033(5)
C01M 0.0321(7) 0.0295(6) 0.0383(7) 0.0049(5) -0.0076(5) -0.0050(5)
C01N 0.0437(8) 0.0335(7) 0.0289(6) -0.0068(5) -0.0125(5) 0.0086(6)
C007 0.0221(5) 0.0223(5) 0.0196(5) 0.0049(4) 0.0021(4) -0.0026(4)
C009 0.0218(5) 0.0211(5) 0.0185(5) 0.0045(4) 0.0007(4) -0.0037(4)
C012 0.0278(6) 0.0193(5) 0.0229(5) 0.0033(4) -0.0042(4) 0.0010(4)
C013 0.0224(5) 0.0300(6) 0.0198(5) 0.0016(4) -0.0022(4) -0.0047(4)
C014 0.0281(6) 0.0211(5) 0.0232(5) 0.0003(4) -0.0008(4) -0.0030(4)
C015 0.0284(6) 0.0238(6) 0.0257(6) -0.0010(4) 0.0004(4) -0.0052(4)
C016 0.0302(6) 0.0238(5) 0.0260(6) 0.0088(5) 0.0058(5) 0.0050(4)
C017 0.0379(6) 0.0193(5) 0.0257(6) 0.0055(4) 0.0045(5) -0.0010(5)
C018 0.0242(5) 0.0237(5) 0.0218(5) 0.0065(4) -0.0015(4) -0.0027(4)
C0AA 0.097(7) 0.028(2) 0.039(3) -0.008(2) -0.033(4) 0.021(4)
C00B 0.0194(5) 0.0187(5) 0.0183(5) 0.0039(4) -0.0034(4) -0.0007(4)
C00C 0.0175(5) 0.0218(5) 0.0205(5) 0.0004(4) -0.0029(4) -0.0016(4)
C00D 0.0226(5) 0.0208(5) 0.0198(5) 0.0057(4) -0.0008(4) -0.0001(4)
C00F 0.0206(5) 0.0207(5) 0.0199(5) 0.0009(4) -0.0055(4) 0.0012(4)
C00G 0.0263(5) 0.0176(5) 0.0239(5) 0.0049(4) -0.0049(4) 0.0001(4)
C00L 0.0225(5) 0.0216(5) 0.0176(5) 0.0044(4) -0.0022(4) 0.0008(4)
C00Q 0.0247(5) 0.0200(5) 0.0197(5) 0.0061(4) -0.0024(4) -0.0009(4)
C00R 0.0237(5) 0.0259(6) 0.0227(5) 0.0068(4) 0.0006(4) -0.0030(4)
C00S 0.0221(5) 0.0224(5) 0.0233(5) -0.0007(4) -0.0004(4) 0.0003(4)
C00T 0.0238(5) 0.0213(5) 0.0224(5) 0.0002(4) -0.0025(4) 0.0026(4)
C00Y 0.0244(5) 0.0201(5) 0.0218(5) 0.0016(4) -0.0006(4) -0.0009(4)
C00Z 0.0225(5) 0.0221(5) 0.0202(5) 0.0062(4) -0.0018(4) 0.0019(4)
C001 0.0189(5) 0.0191(5) 0.0179(5) 0.0038(4) -0.0036(4) -0.0005(4)
C01B 0.0321(6) 0.0276(6) 0.0226(6) -0.0030(5) -0.0063(5) 0.0064(5)
C01C 0.0277(6) 0.0268(6) 0.0236(6) -0.0013(5) -0.0058(4) 0.0063(5)
C01D 0.0291(6) 0.0252(6) 0.0290(6) 0.0007(5) -0.0040(5) -0.0029(5)
C01E 0.0370(7) 0.0261(6) 0.0246(6) 0.0026(5) 0.0035(5) -0.0008(5)
C01I 0.0362(7) 0.0396(7) 0.0222(6) 0.0084(5) -0.0009(5) 0.0058(5)
C01K 0.0349(7) 0.0239(6) 0.0359(7) 0.0096(5) 0.0050(5) -0.0014(5)
C01O 0.0495(9) 0.0413(8) 0.0313(7) -0.0096(6) -0.0168(6) 0.0150(6)
C01P 0.068(4) 0.037(2) 0.0300(16) -0.0057(13) -0.011(2) 0.029(2)
C01Q 0.062(2) 0.079(3) 0.0222(14) -0.0063(16) 0.0052(14) -0.0281(19)
C01R 0.059(4) 0.073(6) 0.024(3) -0.008(3) 0.010(3) 0.004(3)
C002 0.0177(5) 0.0182(5) 0.0182(5) 0.0034(4) -0.0034(4) -0.0013(4)
C003 0.0211(5) 0.0178(5) 0.0171(5) 0.0041(4) -0.0012(4) 0.0005(4)
C004 0.0209(5) 0.0186(5) 0.0214(5) 0.0045(4) -0.0012(4) -0.0009(4)
C005 0.0213(5) 0.0265(5) 0.0164(5) 0.0035(4) -0.0010(4) -0.0018(4)
C006 0.0213(5) 0.0216(5) 0.0190(5) 0.0063(4) -0.0025(4) -0.0018(4)
C008 0.0179(5) 0.0202(5) 0.0178(5) 0.0049(4) -0.0029(4) -0.0011(4)
C010 0.0221(5) 0.0218(5) 0.0245(6) 0.0008(4) -0.0007(4) -0.0006(4)
C011 0.0256(5) 0.0242(5) 0.0222(6) 0.0071(4) -0.0046(4) 0.0018(4)
C019 0.0303(6) 0.0224(5) 0.0279(6) 0.0012(4) -0.0010(5) 0.0024(4)
loop_
_atom_type_symbol
_atom_type_description
_atom_type_scat_dispersion_real
_atom_type_scat_dispersion_imag
_atom_type_scat_source
C C 0.0181 0.0091 'International Tables Vol C Tables 4.2.6.8 and 6.1.1.4'
H H 0.0000 0.0000 'International Tables Vol C Tables 4.2.6.8 and 6.1.1.4'
loop_
_geom_angle_atom_site_label_1
_geom_angle_atom_site_label_2
_geom_angle_atom_site_label_3
_geom_angle
C00J C00A C007 130.91(10)
C00J C00A C009 120.32(10)
C009 C00A C007 108.75(9)
C00W C00E H00J 120.1
C009 C00E H00J 120.1
C009 C00E C00W 119.76(10)
C00I C00H C00M 128.52(10)
C00I C00H C007 120.64(10)
C007 C00H C00M 110.83(10)
C00H C00I H00K 120.1
C00H C00I C00X 119.76(10)
C00X C00I H00K 120.1
C00A C00J H00M 120.6
C00A C00J C013 118.74(10)
C013 C00J H00M 120.6
H00N C00K H00O 107.4
C012 C00K H00N 108.3
C012 C00K H00O 108.3
C017 C00K H00N 108.3
C017 C00K H00O 108.3
C017 C00K C012 115.98(9)
C00H C00M C00P 111.89(9)
C00H C00M C009 101.44(8)
C00H C00M C018 110.28(9)
C009 C00M C00P 108.83(9)
C009 C00M C018 113.13(9)
C018 C00M C00P 110.94(9)
C01F C00N C018 179.23(13)
C01H C00O C00P 176.94(12)
C00M C00P H00P 108.5
C00M C00P H00R 108.5
C00O C00P C00M 115.28(9)
C00O C00P H00P 108.5
C00O C00P H00R 108.5
H00P C00P H00R 107.5
C01J C00U C014 111.22(10)
C01L C00U C01J 108.88(10)
C01L C00U C01N 108.84(11)
C01L C00U C014 108.52(9)
C01N C00U C01J 109.07(10)
C01N C00U C014 110.27(10)
C007 C00V H00V 120.7
C007 C00V C016 118.64(11)
C016 C00V H00V 120.7
C00E C00W C015 120.45(10)
C013 C00W C00E 119.02(11)
C013 C00W C015 120.53(10)
C00I C00X C017 120.03(10)
C016 C00X C00I 118.76(11)
C016 C00X C017 121.20(10)
H01Z C01A H 109.5
H01Z C01A HA 109.5
H C01A HA 109.5
C012 C01A H01Z 109.5
C012 C01A H 109.5
C012 C01A HA 109.5
C00N C01F H01 180.0
H1AA C01G HB 109.5
H1AA C01G HC 109.5
HB C01G HC 109.5
C012 C01G H1AA 109.5
C012 C01G HB 109.5
C012 C01G HC 109.5
C00O C01H H2AA 180.0
C00U C01J H3AA 109.5
C00U C01J HD 109.5
C00U C01J HE 109.5
H3AA C01J HD 109.5
H3AA C01J HE 109.5
HD C01J HE 109.5
C00U C01L H4AA 109.5
C00U C01L HF 109.5
C00U C01L HG 109.5
H4AA C01L HF 109.5
H4AA C01L HG 109.5
HF C01L HG 109.5
H5AA C01M HH 109.5
H5AA C01M HI 109.5
HH C01M HI 109.5
C012 C01M H5AA 109.5
C012 C01M HH 109.5
C012 C01M HI 109.5
C00U C01N H6AA 109.5
C00U C01N HJ 109.5
C00U C01N HK 109.5
H6AA C01N HJ 109.5
H6AA C01N HK 109.5
HJ C01N HK 109.5
C00H C007 C00A 108.33(10)
C00V C007 C00A 131.45(10)
C00V C007 C00H 120.20(10)
C00A C009 C00M 110.44(9)
C00E C009 C00A 120.40(10)
C00E C009 C00M 129.12(10)
C01A C012 C00K 107.17(9)
C01A C012 C01G 109.42(10)
C01G C012 C00K 110.34(9)
C01M C012 C00K 111.54(10)
C01M C012 C01A 109.11(10)
C01M C012 C01G 109.21(10)
C00J C013 C00W 121.68(10)
C00J C013 H013 119.2
C00W C013 H013 119.2
C00U C014 H7AA 108.2
C00U C014 HL 108.2
H7AA C014 HL 107.4
C015 C014 C00U 116.34(9)
C015 C014 H7AA 108.2
C015 C014 HL 108.2
C00W C015 C014 112.40(9)
C00W C015 H8AA 109.1
C00W C015 HM 109.1
C014 C015 H8AA 109.1
C014 C015 HM 109.1
H8AA C015 HM 107.9
C00V C016 C00X 121.87(11)
C00V C016 H016 119.1
C00X C016 H016 119.1
C00K C017 H9AA 108.9
C00K C017 HN 108.9
C00X C017 C00K 113.49(9)
C00X C017 H9AA 108.9
C00X C017 HN 108.9
H9AA C017 HN 107.7
C00M C018 H0BA 108.7
C00M C018 HO 108.7
C00N C018 C00M 114.39(9)
C00N C018 H0BA 108.7
C00N C018 HO 108.7
H0BA C018 HO 107.6
H0AA C0AA H0AB 109.5
H0AA C0AA H0AC 109.5
H0AB C0AA H0AC 109.5
C01B C0AA H0AA 109.5
C01B C0AA H0AB 109.5
C01B C0AA H0AC 109.5
C00L C00B C001 120.48(10)
C00L C00B C003 129.17(10)
C001 C00B C003 110.32(9)
C004 C00C C00S 120.36(10)
C005 C00C C00S 120.29(10)
C005 C00C C004 119.32(10)
H00A C00D H00B 107.7
C00R C00D H00A 108.8
C00R C00D H00B 108.8
C00R C00D C003 113.69(9)
C003 C00D H00A 108.8
C003 C00D H00B 108.8
C00G C00F C00L 119.03(10)
C00G C00F C00T 120.37(10)
C00L C00F C00T 120.56(10)
C00F C00G H00G 119.1
C00Q C00G C00F 121.89(10)
C00Q C00G H00G 119.1
C00B C00L C00F 119.55(10)
C00B C00L H00L 120.2
C00F C00L H00L 120.2
C00G C00Q H00Q 120.7
C001 C00Q C00G 118.50(10)
C001 C00Q H00Q 120.7
C01K C00R C00D 178.47(12)
C00C C00S H00C 109.2
C00C C00S H00D 109.2
C00C C00S C010 111.95(9)
H00C C00S H00D 107.9
C010 C00S H00C 109.2
C010 C00S H00D 109.2
C00F C00T H00E 109.2
C00F C00T H00F 109.2
C00F C00T C01C 111.88(9)
H00E C00T H00F 107.9
C01C C00T H00E 109.2
C01C C00T H00F 109.2
C01D C00Y C01E 108.41(9)
C01D C00Y C010 108.35(9)
C01E C00Y C010 110.00(9)
C019 C00Y C01D 109.22(9)
C019 C00Y C01E 109.88(10)
C019 C00Y C010 110.93(9)
H00H C00Z H00I 107.6
C003 C00Z H00H 108.8
C003 C00Z H00I 108.8
C011 C00Z H00H 108.8
C011 C00Z H00I 108.8
C011 C00Z C003 114.01(9)
C00B C001 C002 108.82(9)
C00Q C001 C00B 120.52(10)
C00Q C001 C002 130.64(10)
C01C C01B C0AA 103.3(5)
C01C C01B C01Q 108.1(2)
C01O C01B C0AA 99.4(5)
C01O C01B C01C 108.76(10)
C01O C01B C01Q 103.6(3)
C01P C01B C01C 115.2(2)
C01P C01B C01O 113.5(4)
C01P C01B C01Q 106.9(6)
C01R C01B C0AA 103.5(11)
C01R C01B C01C 115.9(3)
C01R C01B C01O 122.5(5)
C00T C01C H01A 108.0
C00T C01C H01B 108.0
C01B C01C C00T 117.02(10)
C01B C01C H01A 108.0
C01B C01C H01B 108.0
H01A C01C H01B 107.3
C00Y C01D H01C 109.5
C00Y C01D H01D 109.5
C00Y C01D H01E 109.5
H01C C01D H01D 109.5
H01C C01D H01E 109.5
H01D C01D H01E 109.5
C00Y C01E H01F 109.5
C00Y C01E H01G 109.5
C00Y C01E H01H 109.5
H01F C01E H01G 109.5
H01F C01E H01H 109.5
H01G C01E H01H 109.5
C011 C01I H01I 180.0
C00R C01K H01K 180.0
C01B C01O H01J 109.5
C01B C01O H01L 109.5
C01B C01O H01M 109.5
H01J C01O H01L 109.5
H01J C01O H01M 109.5
H01L C01O H01M 109.5
C01B C01P H01N 109.5
C01B C01P H01O 109.5
C01B C01P H01P 109.5
H01N C01P H01O 109.5
H01N C01P H01P 109.5
H01O C01P H01P 109.5
C01B C01Q H01Q 109.5
C01B C01Q H01R 109.5
C01B C01Q H01S 109.5
H01Q C01Q H01R 109.5
H01Q C01Q H01S 109.5
H01R C01Q H01S 109.5
C01B C01R H01T 109.5
C01B C01R H01U 109.5
C01B C01R H01V 109.5
H01T C01R H01U 109.5
H01T C01R H01V 109.5
H01U C01R H01V 109.5
C006 C002 C001 130.72(10)
C006 C002 C008 120.58(10)
C008 C002 C001 108.70(9)
C00B C003 C00D 109.73(8)
C00B C003 C00Z 112.46(8)
C00D C003 C00Z 110.84(8)
C008 C003 C00B 101.65(8)
C008 C003 C00D 112.02(9)
C008 C003 C00Z 109.85(9)
C00C C004 H004 120.2
C008 C004 C00C 119.63(10)
C008 C004 H004 120.2
C00C C005 H005 119.4
C006 C005 C00C 121.27(10)
C006 C005 H005 119.4
C002 C006 C005 118.87(10)
C002 C006 H006 120.6
C005 C006 H006 120.6
C002 C008 C003 110.50(9)
C004 C008 C002 120.30(10)
C004 C008 C003 129.20(9)
C00S C010 C00Y 116.21(9)
C00S C010 H01W 108.2
C00S C010 H01X 108.2
C00Y C010 H01W 108.2
C00Y C010 H01X 108.2
H01W C010 H01X 107.4
C01I C011 C00Z 179.07(13)
C00Y C019 H01Y 109.5
C00Y C019 HP 109.5
C00Y C019 HQ 109.5
H01Y C019 HP 109.5
H01Y C019 HQ 109.5
HP C019 HQ 109.5
loop_
_geom_bond_atom_site_label_1
_geom_bond_atom_site_label_2
_geom_bond_distance
C00A C00J 1.3907(15)
C00A C007 1.4691(15)
C00A C009 1.4032(15)
C00E H00J 0.9300
C00E C00W 1.4020(15)
C00E C009 1.3876(16)
C00H C00I 1.3853(16)
C00H C00M 1.5225(15)
C00H C007 1.4035(15)
C00I H00K 0.9300
C00I C00X 1.4032(16)
C00J H00M 0.9300
C00J C013 1.3914(17)
C00K H00N 0.9700
C00K H00O 0.9700
C00K C012 1.5423(15)
C00K C017 1.5307(16)
C00M C00P 1.5527(14)
C00M C009 1.5294(15)
C00M C018 1.5457(15)
C00N C01F 1.1894(18)
C00N C018 1.4597(16)
C00O C00P 1.4654(16)
C00O C01H 1.1882(17)
C00P H00P 0.9700
C00P H00R 0.9700
C00U C01J 1.5311(16)
C00U C01L 1.5290(18)
C00U C01N 1.5293(16)
C00U C014 1.5411(15)
C00V H00V 0.9300
C00V C007 1.3874(16)
C00V C016 1.3953(17)
C00W C013 1.3968(17)
C00W C015 1.5128(16)
C00X C016 1.3957(16)
C00X C017 1.5131(16)
C01A H01Z 0.9600
C01A H 0.9600
C01A HA 0.9600
C01A C012 1.5322(16)
C01F H01 0.9300
C01G H1AA 0.9600
C01G HB 0.9600
C01G HC 0.9600
C01G C012 1.5326(15)
C01H H2AA 0.9300
C01J H3AA 0.9600
C01J HD 0.9600
C01J HE 0.9600
C01L H4AA 0.9600
C01L HF 0.9600
C01L HG 0.9600
C01M H5AA 0.9600
C01M HH 0.9600
C01M HI 0.9600
C01M C012 1.5253(17)
C01N H6AA 0.9600
C01N HJ 0.9600
C01N HK 0.9600
C013 H013 0.9300
C014 H7AA 0.9700
C014 HL 0.9700
C014 C015 1.5322(17)
C015 H8AA 0.9700
C015 HM 0.9700
C016 H016 0.9300
C017 H9AA 0.9700
C017 HN 0.9700
C018 H0BA 0.9700
C018 HO 0.9700
C0AA H0AA 0.9600
C0AA H0AB 0.9600
C0AA H0AC 0.9600
C0AA C01B 1.604(9)
C00B C00L 1.3877(15)
C00B C001 1.4028(15)
C00B C003 1.5287(14)
C00C C00S 1.5089(15)
C00C C004 1.4017(15)
C00C C005 1.3981(15)
C00D H00A 0.9700
C00D H00B 0.9700
C00D C00R 1.4666(15)
C00D C003 1.5497(15)
C00F C00G 1.3971(16)
C00F C00L 1.4032(15)
C00F C00T 1.5091(15)
C00G H00G 0.9300
C00G C00Q 1.3898(16)
C00L H00L 0.9300
C00Q H00Q 0.9300
C00Q C001 1.3898(15)
C00R C01K 1.1882(17)
C00S H00C 0.9700
C00S H00D 0.9700
C00S C010 1.5332(15)
C00T H00E 0.9700
C00T H00F 0.9700
C00T C01C 1.5309(15)
C00Y C01D 1.5322(15)
C00Y C01E 1.5344(16)
C00Y C010 1.5383(15)
C00Y C019 1.5322(15)
C00Z H00H 0.9700
C00Z H00I 0.9700
C00Z C003 1.5554(14)
C00Z C011 1.4647(16)
C001 C002 1.4640(15)
C01B C01C 1.5304(16)
C01B C01O 1.5229(17)
C01B C01P 1.483(5)
C01B C01Q 1.567(4)
C01B C01R 1.458(8)
C01C H01A 0.9700
C01C H01B 0.9700
C01D H01C 0.9600
C01D H01D 0.9600
C01D H01E 0.9600
C01E H01F 0.9600
C01E H01G 0.9600
C01E H01H 0.9600
C01I H01I 0.9300
C01I C011 1.1907(18)
C01K H01K 0.9300
C01O H01J 0.9600
C01O H01L 0.9600
C01O H01M 0.9600
C01P H01N 0.9600
C01P H01O 0.9600
C01P H01P 0.9600
C01Q H01Q 0.9600
C01Q H01R 0.9600
C01Q H01S 0.9600
C01R H01T 0.9600
C01R H01U 0.9600
C01R H01V 0.9600
C002 C006 1.3851(15)
C002 C008 1.4038(14)
C003 C008 1.5242(15)
C004 H004 0.9300
C004 C008 1.3855(15)
C005 H005 0.9300
C005 C006 1.3921(16)
C006 H006 0.9300
C010 H01W 0.9700
C010 H01X 0.9700
C019 H01Y 0.9600
C019 HP 0.9600
C019 HQ 0.9600
loop_
_geom_torsion_atom_site_label_1
_geom_torsion_atom_site_label_2
_geom_torsion_atom_site_label_3
_geom_torsion_atom_site_label_4
_geom_torsion
C00A C00J C013 C00W 0.87(17)
C00E C00W C013 C00J -2.12(17)
C00E C00W C015 C014 -86.17(13)
C00H C00I C00X C016 1.07(17)
C00H C00I C00X C017 -177.75(10)
C00H C00M C00P C00O -67.49(12)
C00H C00M C009 C00A -2.75(11)
C00H C00M C009 C00E 179.61(11)
C00H C00M C018 C00N 179.00(9)
C00I C00H C00M C00P 69.44(14)
C00I C00H C00M C009 -174.69(11)
C00I C00H C00M C018 -54.55(15)
C00I C00H C007 C00A 174.67(10)
C00I C00H C007 C00V -3.93(17)
C00I C00X C016 C00V -2.49(17)
C00I C00X C017 C00K -60.38(15)
C00J C00A C007 C00H -175.71(11)
C00J C00A C007 C00V 2.7(2)
C00J C00A C009 C00E -3.30(16)
C00J C00A C009 C00M 178.82(10)
C00M C00H C00I C00X -178.87(10)
C00M C00H C007 C00A -4.52(12)
C00M C00H C007 C00V 176.88(10)
C00P C00M C009 C00A 115.35(10)
C00P C00M C009 C00E -62.30(15)
C00P C00M C018 C00N 54.45(13)
C00U C014 C015 C00W -173.96(10)
C00W C00E C009 C00A 2.02(16)
C00W C00E C009 C00M 179.46(10)
C01J C00U C014 C015 -62.07(13)
C01L C00U C014 C015 178.19(10)
C01N C00U C014 C015 59.06(14)
C007 C00A C00J C013 -179.97(11)
C007 C00A C009 C00E 178.14(10)
C007 C00A C009 C00M 0.26(12)
C007 C00H C00I C00X 2.09(17)
C007 C00H C00M C00P -111.44(10)
C007 C00H C00M C009 4.43(11)
C007 C00H C00M C018 124.57(10)
C007 C00V C016 C00X 0.70(17)
C009 C00A C00J C013 1.84(16)
C009 C00A C007 C00H 2.64(12)
C009 C00A C007 C00V -178.98(11)
C009 C00E C00W C013 0.64(16)
C009 C00E C00W C015 -179.56(10)
C009 C00M C00P C00O -178.77(9)
C009 C00M C018 C00N -68.18(12)
C012 C00K C017 C00X 179.37(10)
C013 C00W C015 C014 93.63(13)
C015 C00W C013 C00J 178.09(10)
C016 C00V C007 C00A -175.72(11)
C016 C00V C007 C00H 2.50(17)
C016 C00X C017 C00K 120.84(12)
C017 C00K C012 C01A 178.02(10)
C017 C00K C012 C01G 58.97(14)
C017 C00K C012 C01M -62.62(13)
C017 C00X C016 C00V 176.31(11)
C018 C00M C00P C00O 56.14(13)
C018 C00M C009 C00A -120.85(10)
C018 C00M C009 C00E 61.50(14)
C0AA C01B C01C C00T -76.5(6)
C00B C001 C002 C006 179.47(11)
C00B C001 C002 C008 -0.57(12)
C00B C003 C008 C002 0.84(11)
C00B C003 C008 C004 179.82(10)
C00C C00S C010 C00Y 166.90(9)
C00C C004 C008 C002 -1.59(15)
C00C C004 C008 C003 179.52(10)
C00C C005 C006 C002 -1.06(16)
C00D C003 C008 C002 117.91(9)
C00D C003 C008 C004 -63.11(14)
C00F C00G C00Q C001 0.00(16)
C00F C00T C01C C01B -179.94(10)
C00G C00F C00L C00B 0.23(15)
C00G C00F C00T C01C -100.51(12)
C00G C00Q C001 C00B -1.02(15)
C00G C00Q C001 C002 177.59(10)
C00L C00B C001 C00Q 1.66(15)
C00L C00B C001 C002 -177.22(9)
C00L C00B C003 C00D 58.26(14)
C00L C00B C003 C00Z -65.60(14)
C00L C00B C003 C008 176.98(10)
C00L C00F C00G C00Q 0.39(16)
C00L C00F C00T C01C 77.30(13)
C00Q C001 C002 C006 0.73(19)
C00Q C001 C002 C008 -179.31(10)
C00R C00D C003 C00B -179.55(9)
C00R C00D C003 C00Z -54.74(12)
C00R C00D C003 C008 68.35(11)
C00S C00C C004 C008 -176.76(9)
C00S C00C C005 C006 178.09(10)
C00T C00F C00G C00Q 178.23(10)
C00T C00F C00L C00B -177.60(9)
C00Z C003 C008 C002 -118.45(9)
C00Z C003 C008 C004 60.53(14)
C001 C00B C00L C00F -1.25(15)
C001 C00B C003 C00D -119.91(9)
C001 C00B C003 C00Z 116.22(10)
C001 C00B C003 C008 -1.19(11)
C001 C002 C006 C005 -179.38(10)
C001 C002 C008 C003 -0.22(11)
C001 C002 C008 C004 -179.30(9)
C01D C00Y C010 C00S 175.15(10)
C01E C00Y C010 C00S -66.50(12)
C01O C01B C01C C00T 178.61(11)
C01P C01B C01C C00T -52.7(5)
C01Q C01B C01C C00T 66.8(4)
C01R C01B C01C C00T 35.9(8)
C003 C00B C00L C00F -179.26(10)
C003 C00B C001 C00Q -179.98(9)
C003 C00B C001 C002 1.13(11)
C004 C00C C00S C010 81.46(12)
C004 C00C C005 C006 0.14(16)
C005 C00C C00S C010 -96.47(12)
C005 C00C C004 C008 1.19(15)
C006 C002 C008 C003 179.75(9)
C006 C002 C008 C004 0.66(15)
C008 C002 C006 C005 0.66(15)
C011 C00Z C003 C00B 67.60(12)
C011 C00Z C003 C00D -55.65(12)
C011 C00Z C003 C008 -179.97(9)
C019 C00Y C010 C00S 55.28(13)
loop_
_refln_index_h
_refln_index_k
_refln_index_l
_refln_F_squared_meas
_refln_F_squared_sigma
0 0 2 9.46 0.47
0 0 2 8.28 0.52
0 0 -2 8.93 0.46
0 0 -3 791.34 13.77
0 0 3 767.8 13.61
0 0 3 790.43 13.96
0 0 4 624.05 11.49
0 0 -4 622.95 11.13
0 0 5 17.61 0.89
0 0 5 21.18 1.3
0 0 -5 19.98 1.67
0 0 6 117.8 3.57
0 0 -6 113.68 4.51
0 0 -7 16.49 1.84
0 0 7 18.98 1.48
0 0 -7 17.54 0.46
0 0 8 0.33 0.35
0 0 -8 0.43 0.1
0 0 -8 0.55 0.55
0 0 -9 66.41 4.44
0 0 -9 69.37 1.4
0 0 -10 63.56 4.57
0 0 -11 39.12 3.74
0 0 -12 3.74 1.29
0 0 12 3.85 0.97
0 0 12 3.19 0.82
0 0 12 3.94 0.88
0 0 12 4.05 0.95
0 0 13 135.29 5.37
0 0 13 147.08 5.74
0 0 13 138.42 5.41
0 0 -13 143.12 16.37
0 0 13 144.82 5.92
0 0 14 805.61 18.25
0 0 14 838.27 18.84
0 0 -14 858.42 42.93
0 0 14 787.18 17.78
0 0 14 776.12 17.66
0 0 -15 192.57 19.2
0 0 15 178.95 6.51
0 0 15 191.34 7.2
0 0 15 177.65 6.7
0 0 16 1.59 0.65
0 0 -16 -0.19 2.58
0 0 16 2 0.83
0 0 16 3.1 0.97
0 0 17 13.53 1.63
0 0 17 11.15 0.95
0 0 17 16.29 1.52
0 0 -17 17.79 4.78
0 0 17 14.04 1.54
0 0 -18 7.84 2.59
0 0 18 10.29 1.03
0 0 18 11.2 1.27
0 -1 19 7.96 0.81
0 1 -18 48.88 5.7
0 -1 18 43.07 2.05
0 -1 18 47.02 2.65
0 -1 17 6.85 1.07
0 -1 17 6.9 1.05
0 -1 17 8.49 1.33
0 1 -17 9.84 3.17
0 1 -16 5.23 3.56
0 -1 16 6.45 1.23
0 -1 16 7.03 1.15
0 -1 16 7.6 1.38
0 -1 15 48.33 3.08
0 -1 15 40.81 2.97
0 -1 15 50.79 3.49
0 1 -15 46.23 9.26
0 -1 14 201.96 7.11
0 -1 14 216.84 7.26
0 1 -14 228.68 20.87
0 -1 14 235.58 7.93
0 1 -13 12.5 2.22
0 -1 13 16.18 1.91
0 -1 13 13.49 1.55
0 -1 13 15.28 1.66
0 1 -13 16.22 6.41
0 -1 13 13.97 1.59
0 -1 12 2.8 0.98
0 -1 12 0.12 0.57
0 1 -12 1.36 0.93
0 -1 12 1.68 0.69
0 -1 12 2.57 0.69
0 1 -11 3.47 1.21
0 1 -10 55.67 4.2
0 1 -9 368.3 6.29
0 -1 9 372.07 9.65
0 1 -9 380.96 11.73
0 1 -8 9.84 1.56
0 -1 8 9.14 1.19
0 1 -8 10.41 0.33
0 -1 8 10.56 1.3
0 -1 7 15.13 1.37
0 1 -7 13.32 1.65
0 1 -7 14.21 0.38
0 -1 7 15.01 1.42
0 -1 6 225.48 6.11
0 1 -6 218.43 6.82
0 1 -5 0.88 0.43
0 -1 5 1.42 0.27
0 1 -5 1.15 0.12
0 -1 5 1.65 0.44
0 -1 4 287.56 5.86
0 -1 4 328.72 6.88
0 -1 3 4.24 0.4
0 -1 3 4.5 0.5
0 -1 3 4.12 0.52
0 -1 2 123.63 2.79
0 -1 2 124.39 2.97
0 -1 2 122.98 2.71
0 -1 1 202.33 3.68
0 -1 1 196.46 3.8
0 -1 -1 121.07 2.73
0 -1 -1 124.9 2.73
0 1 2 4.47 0.28
0 -1 -2 4.41 0.45
0 -1 -2 4.54 0.53
0 1 3 144.72 3.06
0 1 3 137.91 3.34
0 -1 -3 140.99 3.56
0 -1 -4 1395.79 24.88
0 1 4 1417.28 24.21
0 1 4 1394.52 24.43
0 -1 -5 170.4 4.61
0 -1 -5 165.5 5.48
0 1 5 164.41 4.07
0 1 5 170.52 4.13
0 -1 -6 70.08 3.62
0 1 6 65.47 2.15
0 1 6 72.1 2.54
0 -1 -6 76.21 2.86
0 -1 -6 70.82 1.35
0 -1 -7 10.66 1.54
0 -1 -7 12.46 0.39
0 1 7 13.16 1.05
0 -1 -8 357.91 10.88
0 -1 -8 358.06 6.14
0 -1 -9 19.64 0.57
0 -1 -9 20.53 2.43
0 -1 -10 35.74 3.41
0 -1 -10 36.97 0.9
0 1 11 3.59 0.77
0 -1 -11 3.78 1.28
0 1 11 3.82 0.82
0 1 12 154.35 5.8
0 -1 -12 166.17 17.08
0 -1 -12 158.23 8.04
0 1 12 166.42 5.94
0 1 12 161.54 5.64
0 1 12 158.74 5.93
0 1 13 10.57 1.55
0 1 13 8.86 1.34
0 1 13 8.8 1.4
0 1 13 8.75 1.41
0 -1 -13 11.49 4.64
0 1 14 323.07 9.74
0 1 14 322.7 9.92
0 1 14 300.22 9.4
0 -1 -14 338.12 26.7
0 1 14 315.48 9.29
0 -1 -15 22.29 6.63
0 1 15 21.07 2.21
0 1 15 19.38 1.94
0 1 15 22.6 2.34
0 1 16 2.05 0.74
0 1 16 1.34 0.84
0 1 16 1.28 0.72
0 -1 -16 2.7 2.01
0 1 17 36.56 2.43
0 1 17 36.22 2.21
0 1 17 34.66 2.55
0 -1 -17 37.04 6.69
0 1 18 9.8 1.12
0 -1 -18 7.72 2.3
0 1 18 9.53 1
0 -2 19 35.41 1.79
0 -2 18 6.57 1.09
0 -2 18 5.53 0.73
0 -2 17 1.85 0.58
0 -2 17 2.31 0.88
0 2 -17 3.19 2.68
0 -2 17 2.31 0.6
0 -2 16 -0.03 0.51
0 -2 16 -0.04 0.59
0 -2 16 0.12 0.42
0 -2 15 15.23 1.71
0 -2 15 19.11 2.15
0 -2 15 17.89 1.89
0 -2 14 20.42 2.23
0 -2 14 20.33 1.96
0 2 -14 22.54 6.09
0 -2 14 21.72 1.99
0 -2 13 2.64 0.82
0 -2 13 1.28 0.55
0 -2 13 1.23 0.58
0 2 -13 1.94 1.1
0 -2 12 1.81 0.74
0 -2 12 1.28 0.59
0 2 -12 2.52 1.14
0 2 -11 8.69 1.75
0 2 -10 6.25 1.46
0 -2 10 7.21 1.24
0 -2 9 5.08 0.99
0 2 -9 4.81 1.17
0 2 -8 2.38 0.94
0 -2 8 3.03 0.83
0 -2 8 1.6 0.45
0 2 -8 2.71 0.16
0 2 -7 591.46 14.31
0 2 -7 596.44 10.06
0 -2 7 609.39 13.51
0 2 -6 4.18 0.89
0 -2 6 3.48 0.73
0 2 -6 3.95 0.23
0 -2 6 2.82 0.57
0 -2 5 385.27 7.41
0 2 -5 384.88 5.36
0 2 -4 47.28 0.86
0 -2 4 44.57 1.82
0 -2 4 48.16 2.17
0 2 -3 4.07 0.14
0 -2 3 3.96 0.35
0 -2 3 3.65 0.46
0 -2 2 3332.09 56.59
0 -2 2 3432.08 56.31
0 -2 1 0.16 0.17
0 -2 1 0.25 0.21
0 -2 0 50.09 1.68
0 -2 0 51.93 1.53
0 -2 0 48.26 1.33
0 -2 -1 20.29 0.97
0 -2 -1 20.04 1.08
0 -2 -2 14.15 0.97
0 -2 -2 14.74 1.04
0 2 2 14.14 0.33
0 -2 -3 336.35 7.92
0 -2 -3 327.4 8.11
0 2 4 12.47 1.01
0 2 4 12.08 0.4
0 -2 -4 12.15 1.23
0 -2 -4 13.28 1.18
0 -2 -5 33.32 2.3
0 2 5 31.98 1.23
0 -2 -5 34.93 2.02
0 2 5 31.48 1.67
0 -2 -6 23.94 2.15
0 -2 -6 26.18 0.64
0 2 6 27.12 1.53
0 -2 -6 30.25 1.96
0 2 6 27.16 1.23
0 -2 -7 27.38 2.48
0 -2 -7 29.37 2
0 -2 -7 27.26 0.68
0 -2 -8 31.43 0.78
0 -2 -8 31.74 2.89
0 -2 -9 18.33 0.58
0 -2 -9 15.24 2.21
0 -2 -10 1.11 0.17
0 -2 -10 0.59 0.58
0 2 11 24.29 2.07
0 2 11 26.37 2.11
0 -2 -11 24.53 1.85
0 2 11 26.77 2.19
0 2 11 23.04 1.85
0 -2 -11 25.34 3.07
0 2 12 6.17 1.21
0 -2 -12 5.78 1.04
0 2 12 6.2 1.16
0 -2 -12 4.29 1.5
0 2 12 5.72 1.12
0 -2 -12 7.88 5.12
0 2 12 4.06 0.87
0 2 13 9.16 1.64
0 -2 -13 9.33 1.32
0 2 13 8.27 1.3
0 2 13 7.46 1.41
0 -2 -13 12.11 5.11
0 2 13 8.55 1.44
0 2 14 26.57 2.48
0 2 14 27.5 2.56
0 2 14 28.88 2.7
0 -2 -14 20.39 6.56
0 2 14 28.6 2.35
0 2 15 0.87 0.73
0 2 15 2.64 1
0 2 15 2.02 0.73
0 2 16 7.84 1.32
0 2 16 7.3 1.11
0 2 16 7.58 1.32
0 2 17 4.8 0.91
0 2 17 4.73 0.8
0 2 17 4.33 0.92
0 2 18 7.55 0.85
0 2 18 6.23 0.8
0 -2 -18 8.45 2.33
0 -3 19 7.26 0.83
0 -3 18 1.64 0.64
0 -3 17 3.14 0.7
0 -3 17 3.06 0.66
0 -3 17 2.76 0.9
0 -3 17 2.74 0.58
0 3 -17 4.5 2.59
0 -3 16 1.32 0.77
0 -3 16 -0.08 0.58
0 3 -16 -1.51 2.71
0 -3 16 0.16 0.47
0 -3 15 2.78 0.93
0 -3 15 3.9 0.89
0 3 -15 5.03 3.34
0 -3 15 1.96 0.71
0 -3 14 21.39 2.27
0 3 -14 20.43 6.54
0 -3 14 17.03 1.74
0 -3 14 18.4 1.81
0 -3 13 2.14 0.63
0 -3 13 2.76 0.75
0 -3 13 2.75 0.85
0 3 -13 1.76 0.84
0 -3 12 13.08 1.5
0 -3 12 10.99 1.21
0 3 -12 13.29 2.2
0 -3 12 11.48 1.29
0 3 -11 16.09 2.37
0 -3 11 12.89 1.74
0 -3 10 3.46 0.93
0 3 -10 1.44 0.76
0 3 -9 25.66 2.67
0 -3 9 22.38 2.25
0 3 -8 29.64 2.63
0 -3 8 26.71 2.32
0 3 -8 27.06 0.79
0 -3 8 23.65 1.65
0 3 -7 0.68 0.56
0 3 -7 0.3 0.11
0 -3 7 0.66 0.47
0 -3 7 0.3 0.27
0 -3 6 0.54 0.38
0 -3 6 0.97 0.42
0 3 -6 0.88 0.13
0 -3 5 1.69 0.48
0 -3 5 2.65 0.65
0 3 -5 2.35 0.13
0 -3 5 2.23 0.28
0 -3 4 21.46 1.29
0 -3 4 21.99 1
0 3 -4 21.87 0.49
0 -3 3 540.46 10.22
0 -3 3 548.05 10.65
0 -3 2 4371.98 74.57
0 -3 2 4575.13 74.89
0 -3 1 113.32 3.2
0 -3 1 113.23 3.01
0 -3 1 115.64 3.35
0 -3 0 208.13 5.05
0 -3 0 211.85 4.72
0 -3 0 199.94 4.28
0 -3 -1 56.6 2.31
0 -3 -1 51.07 1.36
0 -3 -1 56.58 2.05
0 3 2 455.97 7.6
0 -3 -2 455.37 9.82
0 -3 -2 445.91 9.5
0 -3 -3 21.66 1.57
0 -3 -3 20.34 1.58
0 3 3 24.54 0.57
0 -3 -4 82.12 3.54
0 -3 -4 80.95 3.58
0 -3 -5 0.58 0.53
0 -3 -5 0.36 0.1
0 -3 -5 0.36 0.47
0 3 5 0.19 0.22
0 3 5 0.72 0.46
0 -3 -6 15.2 0.46
0 -3 -6 15.95 1.61
0 3 6 16.67 1.35
0 -3 -6 14.93 1.74
0 -3 -7 1.14 0.56
0 -3 -7 0.98 0.46
0 -3 -7 1.04 0.14
0 -3 -8 36.7 0.92
0 -3 -8 32.07 3.03
0 -3 -9 14.23 2.17
0 -3 -10 3.84 1.21
0 3 11 82.21 3.65
0 -3 -11 76.52 5.38
0 -3 -11 83.22 3.87
0 -3 -11 76.92 11.82
0 3 11 84.31 4.08
0 3 11 78.65 4.04
0 3 11 83.96 4.08
0 3 12 228.1 7.91
0 3 12 227.39 7.74
0 3 12 232.65 7.27
0 -3 -12 241.45 22.23
0 -3 -12 226.88 10.01
0 -3 -12 235.78 7.25
0 3 12 234.71 7.74
0 3 13 4.02 1.2
0 -3 -13 2.5 0.84
0 3 13 4.99 1.17
0 3 13 4.77 1.09
0 3 13 3.59 0.91
0 -3 -13 4.19 2.96
0 3 14 20.06 2.25
0 3 14 18.84 1.9
0 3 14 19.08 2.17
0 -3 -14 17.57 1.8
0 -3 -14 24.07 7.36
0 3 14 19.17 2.18
0 3 15 3.01 1.03
0 3 15 5.02 1.06
0 -3 -15 3.57 0.78
0 3 15 2.66 0.88
0 -3 -15 4.71 3.23
0 3 16 2.49 0.78
0 3 16 3.12 0.88
0 -3 -16 0.46 2.85
0 3 16 3.8 0.83
0 3 17 0.17 0.31
0 3 17 0.53 0.45
0 3 17 0.17 0.44
0 3 18 59.25 2.19
0 -4 19 0.65 0.42
0 -4 18 0.42 0.3
0 -4 18 0.8 0.51
0 -4 17 5.23 0.84
0 -4 17 3.98 0.69
0 -4 17 5.44 1.08
0 -4 16 0.67 0.48
0 -4 16 1.01 0.82
0 -4 15 0.77 0.61
0 -4 15 0.13 0.4
0 4 -15 -0.28 2.52
0 -4 15 0.61 0.72
0 -4 14 14.23 1.48
0 -4 14 17.13 1.61
0 4 -14 15.29 5.12
0 -4 14 18.43 2.06
0 4 -13 89.81 5.8
0 -4 13 83.51 3.67
0 -4 13 92.59 3.75
0 -4 13 98.86 4.58
0 4 -13 103.06 13
0 -4 12 26.15 1.83
0 -4 12 27.92 2.77
0 -4 12 28.84 2.23
0 4 -12 30.36 3.23
0 -4 11 85.96 4.88
0 4 -11 85.21 5.4
0 -4 10 2.66 0.94
0 4 -10 2.1 0.81
0 4 -9 -0.29 0.65
0 4 -9 0.74 0.16
0 -4 8 87.96 4.54
0 4 -8 80.98 1.77
0 4 -8 84.45 4.59
0 4 -7 294.77 5.22
0 -4 7 280.86 7.09
0 4 -6 185.36 3.22
0 -4 6 190.66 6.33
0 -4 5 14.3 1.2
0 -4 5 14.38 0.89
0 4 -5 15.28 0.44
0 -4 5 15.05 1.5
0 4 -4 496.38 8.33
0 -4 4 473.68 10.31
0 -4 4 513.35 11.28
0 4 -4 498.63 8.23
0 -4 4 484.05 9.77
0 -4 3 7.48 0.87
0 -4 3 7.91 0.79
0 -4 3 8.16 0.96
0 -4 2 654.89 12.96
0 -4 2 665.57 13.07
0 -4 2 658.56 13.21
0 -4 1 214.85 5.57
0 -4 1 212.61 5.12
0 -4 0 122.56 3.5
0 -4 0 116.68 3.9
0 -4 0 115.53 3.06
0 -4 -1 306.28 5.99
0 -4 -1 324.53 7.22
0 -4 -1 318 7.79
0 -4 -2 405.33 9.67
0 -4 -2 398.52 9.08
0 4 2 407.7 6.87
0 4 3 15.39 0.48
0 -4 -3 16.25 1.58
0 -4 -3 14.61 1.37
0 -4 -4 270.24 7.88
0 4 4 292.37 5.06
0 -4 -4 271.09 8.04
0 -4 -5 4.28 1
0 4 5 5.12 0.92
0 -4 -5 5.06 1.06
0 4 6 218.25 6.35
0 -4 -6 214.39 7.62
0 -4 -6 219.5 7.39
0 -4 -7 188.41 7.48
0 -4 -7 192.46 6.96
0 -4 -8 311.26 10.61
0 -4 -9 1.11 0.79
0 -4 -10 1.17 0.55
0 -4 -10 0.02 0.57
0 -4 -10 1.36 2.2
0 4 10 1.06 0.64
0 4 10 0.96 0.52
0 4 10 1.88 0.69
0 4 10 1.37 0.61
0 4 11 58.88 3.12
0 -4 -11 64.28 3.52
0 -4 -11 62.82 4.79
0 -4 -11 55.44 10.59
0 4 11 63.49 3.66
0 4 11 63.54 3.75
0 4 11 65.4 3.67
0 4 12 156.64 5.74
0 4 12 164.25 6.5
0 4 12 159.13 6.55
0 4 12 158.24 6.25
0 -4 -12 162.09 6.1
0 -4 -12 156.51 18.48
0 4 13 57.86 9.72
0 4 13 67.95 4.16
0 4 13 69.5 4.16
0 -4 -13 72.03 12.62
0 4 13 72.05 4.15
0 -4 -13 73.72 3.93
0 4 13 69.61 3.69
0 4 14 7.09 1.25
0 4 14 6.13 1.24
0 -4 -14 11.13 5.44
0 4 14 4.74 1.14
0 -4 -14 9.39 1.4
0 4 14 7.42 1.43
0 4 15 10.89 1.6
0 4 15 11.35 1.6
0 -4 -15 10.81 1.27
0 4 15 10.73 1.32
0 -4 -15 8.73 3.65
0 4 16 18.22 1.51
0 4 16 16.11 1.58
0 -4 -16 19.04 5.14
0 4 16 18.8 1.77
0 -4 -17 3.01 1.99
0 4 17 1.21 0.52
0 -5 19 6.42 1.02
0 -5 18 -0.14 0.37
0 -5 18 0.51 0.33
0 -5 17 0.88 0.6
0 -5 16 10.38 1.09
0 -5 16 11.89 1.59
0 -5 15 31.17 2.65
0 -5 15 29.38 1.93
0 5 -15 36.39 7.22
0 5 -14 4.82 3.49
0 -5 14 3.3 0.97
0 -5 14 3 0.63
0 -5 13 1 0.68
0 5 -12 266.74 10.21
0 -5 12 257 9.65
0 -5 12 276.57 7.92
0 -5 11 18.53 1.64
0 -5 11 15.17 2.22
0 5 -11 17.62 2.37
0 -5 10 0.83 0.71
0 5 -10 0.72 0.22
0 5 -10 0.15 0.57
0 5 -9 2.03 0.23
0 5 -9 2.1 0.93
0 -5 9 1.49 0.76
0 5 -8 0.49 0.49
0 -5 8 0.24 0.42
0 5 -8 0.17 0.13
0 5 -7 31.32 0.87
0 -5 7 29.58 1.84
0 -5 7 30.67 2.57
0 -5 6 99.81 3.65
0 -5 6 97.92 2.87
0 -5 6 104.91 4.67
0 5 -6 99.18 1.89
0 -5 5 53.12 3.08
0 5 -5 56.47 1.02
0 5 -5 49.84 1.11
0 -5 5 49.44 2.48
0 -5 5 46.85 2.07
0 -5 4 180.65 5.12
0 5 -4 194.63 3.32
0 -5 4 177.09 5.47
0 -5 4 191.31 6.06
0 5 -4 195.29 3.42
0 -5 3 222.33 6.32
0 -5 3 220.7 6.04
0 -5 3 238.11 6.56
0 5 -3 234.19 3.99
0 -5 2 1004.38 19.31
0 5 -2 986.75 16.37
0 -5 2 1017.62 19.08
0 -5 1 14.5 1.37
0 5 -1 13.7 0.4
0 -5 1 14.8 1.15
0 -5 0 245.1 5.64
0 5 0 250.71 4.32
0 -5 0 245.06 6.96
0 -5 -1 38.05 1.41
0 -5 -1 39.54 2.53
0 5 1 37.18 0.86
0 -5 -1 38.35 2.07
0 5 2 329.39 5.01
0 -5 -2 322.29 8.51
0 -5 -3 210.26 6.67
0 -5 -3 216.51 7.27
0 -5 -4 243.72 8.17
0 -5 -4 232.69 7.69
0 5 5 0.86 0.3
0 -5 -5 3.73 1
0 -5 -5 2.01 0.71
0 5 5 3.51 0.88
0 -5 -6 -0.32 0.66
0 5 6 0.33 0.44
0 -5 -6 0.02 0.5
0 -5 -7 38.66 3.14
0 -5 -7 38.68 3.27
0 -5 -8 243.28 9.29
0 -5 -9 59.37 4.44
0 5 10 0.57 0.53
0 5 10 0.71 0.51
0 5 10 0.77 0.5
0 -5 -10 -0.3 0.55
0 -5 -10 0.75 0.63
0 5 10 1.08 0.55
0 -5 -10 -1.01 3.91
0 5 11 17.57 1.66
0 5 11 20.25 2.13
0 -5 -11 16.17 2.42
0 -5 -11 14.38 6
0 5 11 16.62 1.99
0 5 11 20.08 2.04
0 -5 -11 18.74 2.04
0 5 12 201.12 7.52
0 -5 -12 196.65 21.21
0 5 12 203.59 6.62
0 5 12 201.84 7.19
0 -5 -12 211.52 7.47
0 5 12 215.37 7.72
0 5 13 60.51 3.72
0 5 13 64.35 3.98
0 5 13 64.57 3.43
0 -5 -13 65.54 12.19
0 5 13 69.68 11.44
0 -5 -13 65.61 3.85
0 5 13 69.42 4.16
0 5 14 -1.3 0.73
0 -5 -14 -0.7 2.15
0 5 14 -2.82 3.24
0 5 14 0.08 0.41
0 5 14 0.47 0.64
0 -5 -14 0.4 0.55
0 5 15 1.13 0.56
0 -5 -15 0.7 0.54
0 5 15 0.76 0.63
0 -5 -15 1.46 2.12
0 5 15 0.1 0.36
0 5 16 16.07 1.24
0 5 16 15.99 1.59
0 -5 -16 15.96 1.19
0 -5 -16 13.87 4.17
0 5 17 -0.23 0.31
0 -5 -17 2.62 1.25
0 -6 18 13.38 1.28
0 -6 18 13.47 1.05
0 -6 17 0.93 0.62
0 -6 16 54.33 3.31
0 -6 15 23.37 2.29
0 -6 14 37.22 2.84
0 6 -14 46.61 8.6
0 -6 13 48.05 3.08
0 -6 12 15.27 2.22
0 -6 12 19.67 1.48
0 -6 12 18.72 1.58
0 6 -12 17.49 2.38
0 -6 12 19.37 1.81
0 -6 11 -0.4 0.65
0 6 -11 0.47 0.18
0 6 -11 0.52 0.82
0 -6 11 0.23 0.44
0 -6 11 0.3 0.31
0 -6 11 0.76 0.46
0 -6 10 0.39 0.57
0 6 -10 0.69 0.19
0 6 -10 0.63 0.66
0 6 -9 133.77 6.22
0 -6 9 132.39 6.43
0 6 -9 124.55 2.62
0 -6 8 3.16 0.94
0 6 -8 3.26 0.28
0 -6 7 201.07 7.52
0 -6 7 189.77 5.7
0 6 -7 194.51 3.51
0 6 -6 78.19 1.51
0 -6 6 79.12 3.39
0 -6 6 77.95 2.85
0 -6 6 80.28 4.3
0 6 -6 79.93 1.61
0 -6 5 0.85 0.54
0 6 -5 0.39 0.08
0 -6 5 0.56 0.35
0 -6 5 0 0.35
0 6 -5 0.44 0.13
0 -6 4 -0.1 0.42
0 -6 4 -0.1 0.41
0 -6 4 -0.03 0.35
0 6 -4 0.13 0.06
0 -6 3 7.62 1.07
0 6 -3 8.53 0.31
0 -6 3 7.37 1.08
0 6 -2 825.02 13.72
0 -6 2 810.93 17.21
0 -6 2 804.85 16.63
0 -6 1 71.97 2.92
0 -6 1 70.52 3.53
0 6 -1 73.92 1.47
0 6 0 9.79 0.37
0 -6 0 8.97 1.25
0 -6 0 9.6 0.89
0 6 1 37.5 0.9
0 -6 -1 35.69 2.59
0 -6 -1 33.99 1.45
0 -6 -1 33.53 2.1
0 -6 -2 28.49 2.06
0 -6 -2 30.23 2.58
0 6 2 35.48 0.91
0 -6 -3 590.85 15.17
0 -6 -3 610.09 16.45
0 -6 -4 15.14 1.7
0 6 4 14.53 0.64
0 -6 -4 16.34 2.06
0 -6 -5 -0.27 0.64
0 -6 -5 0.59 0.52
0 6 5 0.29 0.39
0 6 6 230.75 7.58
0 -6 -6 221.09 8.15
0 -6 -6 220.92 8.54
0 -6 -7 22.26 2.49
0 -6 -7 22.84 2.52
0 -6 -8 158.12 7.22
0 6 9 0.71 0.44
0 6 9 0.18 0.52
0 -6 -9 1.19 0.64
0 6 9 1.17 0.61
0 -6 -9 1.46 0.92
0 -6 -10 -0.65 2.68
0 6 10 0.7 0.65
0 -6 -10 -1.08 0.75
0 -6 -10 -0.03 0.49
0 6 10 0.1 0.56
0 6 10 -0.09 0.39
0 -6 -11 324.42 9.93
0 6 11 318.51 8.41
0 6 11 322.74 9.81
0 6 11 311.45 9.71
0 6 11 317.53 9.46
0 -6 -11 329.77 27.39
0 6 12 153 6.37
0 6 12 147.06 6.28
0 -6 -12 150.36 18.55
0 6 12 138.48 5.66
0 6 12 142.87 5.18
0 6 12 122.91 16.69
0 -6 -12 144.13 6.13
0 6 13 33.76 2.87
0 6 13 24.38 7.13
0 6 13 35.91 2.88
0 -6 -13 33.27 8.62
0 6 13 33.06 2.28
0 -6 -13 37.29 2.88
0 6 13 29.39 2.44
0 -6 -14 4.16 1
0 6 14 4.48 0.83
0 6 14 5.15 1.14
0 6 14 5.77 3.27
0 -6 -14 -0.5 1.67
0 -6 -15 3.46 3.28
0 6 15 0.74 0.35
0 6 15 1 0.55
0 -6 -15 0.91 0.44
0 -6 -16 5.87 2.6
0 6 16 7.85 0.98
0 -6 -16 9.04 0.84
0 -7 18 1.96 0.49
0 -7 18 2.37 0.51
0 -7 17 1.54 0.63
0 -7 17 3.18 0.55
0 -7 16 25.03 2.13
0 -7 15 41 2.83
0 -7 14 0.09 0.5
0 -7 13 389.19 9.24
0 -7 13 396.4 10.53
0 -7 12 2 0.62
0 -7 12 0.82 0.58
0 -7 12 2.02 0.63
0 7 -12 2.7 1
0 -7 12 1.57 0.64
0 7 -11 71.2 1.81
0 -7 11 70.49 3.35
0 -7 11 69.75 3.17
0 7 -11 74.36 4.78
0 -7 11 69.73 3.27
0 -7 11 73.72 3.2
0 -7 11 73.04 5.02
0 7 -10 139.53 6.47
0 -7 10 132.05 4.65
0 -7 10 140.75 7.11
0 7 -10 129.96 2.81
0 7 -9 233.56 4.47
0 -7 9 231.91 9.28
0 7 -9 241.47 8.7
0 7 -8 19.48 0.72
0 -7 8 18.8 2.36
0 7 -7 0.55 0.14
0 -7 7 0.72 0.58
0 -7 6 46.16 3.33
0 7 -6 44.1 0.97
0 7 -6 42.87 1.07
0 -7 5 19.27 2.06
0 7 -5 19.22 0.65
0 -7 5 19.22 1.67
0 7 -4 15.32 0.47
0 -7 4 15.33 1.71
0 -7 4 14.34 1.54
0 -7 3 113.18 4.74
0 -7 3 111.78 4.77
0 7 -3 126.89 2.36
0 -7 2 407.34 10.22
0 -7 2 395.7 10.97
0 7 -2 432.78 7.36
0 7 -1 456 7.75
0 -7 1 423.19 10.08
0 -7 1 421.05 11.71
0 7 0 4.36 0.28
0 -7 0 5.12 0.72
0 -7 0 4.7 1.13
0 -7 -1 477.19 12.03
0 -7 -1 482.7 13.65
0 -7 -2 935.8 22.24
0 -7 -2 882.86 20.27
0 -7 -3 47.66 3.03
0 -7 -3 50.82 3.81
0 7 3 55.32 1.4
0 -7 -4 418.34 10.71
0 -7 -4 444.01 12.53
0 -7 -5 17.12 1.96
0 -7 -5 17.97 2.35
0 -7 -6 127.42 5.92
0 -7 -6 134.18 6.78
0 -7 -7 30.14 2.82
0 -7 -7 31.16 3.16
0 -7 -8 6.4 1.15
0 -7 -8 7.57 3.93
0 7 8 6.6 1.1
0 7 8 8.6 1.3
0 -7 -8 7.26 1.43
0 -7 -8 7.68 1.58
0 7 9 25.04 2.2
0 -7 -9 24.67 2.56
0 7 9 26.5 2.28
0 -7 -9 28.07 2.47
0 -7 -9 31.25 8.11
0 -7 -9 20.11 2.47
0 -7 -10 144.54 6.16
0 7 10 148.51 6.03
0 7 10 147.22 4.83
0 7 10 148.71 6.03
0 -7 -10 165.58 19.29
0 -7 -11 22.19 2.38
0 7 11 17.9 2.09
0 -7 -11 25.05 7.96
0 7 11 21.46 1.68
0 7 11 21.06 2.25
0 7 12 4.99 3.47
0 7 12 3.31 1.03
0 7 12 3.17 0.74
0 7 12 3.62 0.96
0 -7 -12 2.58 0.95
0 -7 -12 4.97 4
0 7 13 22.34 2.25
0 -7 -13 21.62 6.96
0 7 13 22.82 1.66
0 -7 -13 23.05 2.24
0 7 13 20.65 6.72
0 -7 -14 88.75 12.04
0 -7 -14 76.22 3.74
0 7 14 78.35 3.85
0 7 14 77.18 2.88
0 7 15 60.8 6.87
0 7 15 64.24 3.03
0 -7 -15 64.42 8.76
0 -7 -15 65.53 2.87
0 -7 -16 42.52 5.3
0 7 16 41.1 1.82
0 -8 18 6.34 0.7
0 -8 18 5.78 0.68
0 -8 17 20.77 1.62
0 -8 17 21.62 1.37
0 -8 16 46.39 2.75
0 -8 15 7.17 1.22
0 -8 14 5.7 1.1
0 -8 14 4.08 0.73
0 -8 13 200.23 6.12
0 -8 13 201.42 6.74
0 -8 13 207.2 6.2
0 -8 12 226.62 6.64
0 8 -12 224.37 4.43
0 -8 12 216.54 6.49
0 -8 12 233.93 7.03
0 -8 11 1.38 0.98
0 -8 11 1.9 0.61
0 -8 11 1.39 0.68
0 8 -11 3.14 1.09
0 -8 11 2.24 0.71
0 8 -11 2.16 0.3
0 -8 11 1.4 0.54
0 -8 11 2.2 0.66
0 -8 10 28.26 1.92
0 -8 10 30.27 2
0 -8 10 29.02 1.92
0 -8 10 30.58 2.08
0 -8 10 28.58 3.18
0 8 -10 27.89 0.99
0 -8 10 27.42 2.03
0 8 -10 28.95 2.81
0 -8 9 58.01 4.54
0 8 -9 61.97 3.91
0 8 -9 59.19 1.56
0 8 -8 30.32 0.85
0 -8 8 33.5 3.26
0 8 -7 338.75 6.05
0 -8 7 351.73 11.43
0 8 -6 192.15 3.47
0 -8 6 181.54 7.46
0 8 -6 190.57 3.61
0 -8 5 148.44 5.7
0 -8 5 145.54 6.43
0 8 -5 147.27 3.15
0 -8 4 150.51 6.22
0 -8 4 142.41 5.91
0 8 -4 160.95 3.18
0 8 -3 23.11 0.7
0 -8 3 17.55 2.01
0 -8 3 18.52 1.9
0 -8 2 30.84 2.74
0 8 -2 36.63 0.96
0 -8 2 29.28 2.23
0 -8 1 168.11 7.04
0 -8 1 169.55 5.52
0 -8 0 301.8 10.33
0 -8 0 308.26 7.65
0 -8 -1 0.51 0.6
0 8 1 -0.03 0.19
0 -8 -2 1.94 0.93
0 -8 -2 2.41 0.68
0 8 2 2.34 0.29
0 -8 -3 0.13 0.51
0 -8 -3 0.15 0.44
0 8 3 1.06 0.35
0 -8 -4 37.23 2.7
0 -8 -4 35.28 3.44
0 -8 -5 11.25 1.56
0 -8 -5 12.44 2.14
0 8 5 9.85 1.71
0 -8 -6 0.22 0.58
0 8 7 14.96 1.49
0 -8 -7 13.77 2.25
0 -8 -7 18.84 2.28
0 -8 -7 14.26 1.61
0 8 7 16.24 1.59
0 -8 -7 12.5 4.48
0 -8 -8 38.39 9.13
0 8 8 27.75 2.31
0 -8 -8 33.33 2.71
0 -8 -8 36.08 3.18
0 8 8 31.64 2.34
0 -8 -9 87.77 5.07
0 -8 -9 85.91 4.62
0 -8 -9 85.23 14
0 8 9 84.66 4.22
0 8 9 88.11 4.3
0 8 10 72.48 4.03
0 8 10 76.51 4.15
0 -8 -10 69.8 12.83
0 -8 -10 74.75 4.36
0 -8 -11 4.8 1.24
0 -8 -11 -0.77 2.43
0 8 11 4.95 1.08
0 8 11 4.33 1.04
0 8 11 3.06 3.73
0 -8 -12 2.72 3.74
0 -8 -12 3.03 0.94
0 8 12 2.22 0.85
0 8 12 4.42 4.07
0 8 12 2.3 0.87
0 8 13 2.86 0.88
0 -8 -13 3.05 0.91
0 -8 -13 3.99 2.95
0 8 13 2.18 2.76
0 -8 -14 7.05 0.89
0 8 14 2.77 1.9
0 -8 -14 8.63 1.18
0 8 14 7.02 1.05
0 -8 -14 10.18 4.18
0 -8 -15 2.67 0.53
0 8 15 3.09 0.57
0 -9 18 11.69 0.84
0 -9 17 0.19 0.35
0 -9 17 0.38 0.34
0 -9 17 1.09 0.41
0 -9 16 1.17 0.49
0 -9 15 -0.29 0.31
0 -9 15 -0.2 0.48
0 -9 14 11.38 1.39
0 -9 14 10.94 1.24
0 -9 13 34.35 2.34
0 -9 13 33.83 2.42
0 -9 13 31.14 2.12
0 -9 12 17.39 1.6
0 9 -12 19.63 0.8
0 -9 12 18.78 1.82
0 -9 12 17.97 1.69
0 -9 12 20.02 1.79
0 -9 11 4.72 0.89
0 -9 11 4.21 0.78
0 9 -11 4.52 0.4
0 -9 11 5.2 1.04
0 -9 11 3.93 0.86
0 -9 11 4.3 0.94
0 -9 10 68.6 3.31
0 -9 10 67.63 3.29
0 -9 10 65.12 3.09
0 -9 10 65.32 3.4
0 -9 10 62.94 4.87
0 9 -10 64.94 1.71
0 -9 10 71 3.1
0 -9 9 10.53 1.21
0 9 -9 10.08 0.56
0 -9 9 9.44 1.22
0 -9 9 9.43 1.14
0 -9 9 8.58 1.98
0 -9 9 9.88 1.17
0 -9 9 8.13 1.04
0 -9 9 11.62 2.07
0 -9 8 10.85 1.98
0 9 -8 11.25 0.49
0 -9 7 270.17 10.11
0 9 -7 265.4 4.9
0 -9 6 -0.03 0.61
0 9 -6 0.04 0.14
0 9 -6 0.15 0.12
0 -9 5 346.1 10.85
0 9 -5 326.55 6.19
0 9 -5 349.95 6.14
0 -9 5 350.48 10.03
0 -9 4 128.75 5.86
0 -9 4 124.72 5.77
0 9 -4 124.79 2.75
0 -9 3 71.46 4.52
0 -9 3 70.02 3.96
0 9 -2 11.26 0.56
0 -9 2 9.8 1.3
0 -9 2 8.31 1.67
0 -9 1 11.01 1.89
0 9 -1 15.95 0.68
0 -9 1 12.12 1.3
0 -9 0 172.41 7.97
0 9 0 202.4 3.95
0 -9 -1 97.99 5.86
0 9 1 116.86 2.67
0 9 2 40.03 1.34
0 -9 -2 47.01 4.08
0 -9 -3 4.78 1.53
0 9 3 3.14 0.5
0 -9 -4 42.82 4.08
0 9 4 4.44 0.75
0 -9 -5 0.11 0.81
0 -9 -5 0.99 1
0 9 5 -0.99 0.71
0 -9 -6 26.75 1.87
0 -9 -6 23.1 2.97
0 -9 -6 28.33 2.78
0 -9 -6 28.12 7.62
0 -9 -6 26.18 2.21
0 9 7 182.52 5.93
0 -9 -7 178.64 5.51
0 -9 -7 192.24 7.91
0 -9 -7 179.87 6.74
0 -9 -7 172.11 8.56
0 9 8 21.22 1.97
0 9 8 19.87 1.86
0 -9 -8 19.91 2.56
0 -9 -8 20.04 2.19
0 -9 -8 23.7 7.4
0 -9 -9 33.29 3.21
0 9 9 33.42 2.55
0 9 9 36.33 2.68
0 -9 -9 35.12 8.97
0 -9 -9 36.02 3.03
0 -9 -10 74.5 4.43
0 9 10 72.22 13.68
0 9 10 81.71 4.19
0 9 10 75.04 4.03
0 -9 -10 87.54 14.15
0 9 11 27.84 2.37
0 9 11 25.7 7.61
0 9 11 29.45 2.44
0 -9 -11 27.89 8.16
0 -9 -11 30 2.67
0 -9 -12 19.06 2
0 9 12 19.25 6.88
0 9 12 18.14 1.81
0 -9 -12 14.83 5.58
0 -9 -13 8.29 1.18
0 9 13 8.05 1.09
0 9 13 4.42 3.02
0 -9 -13 7.64 1.18
0 -9 -13 6.08 3.37
0 9 14 6.78 0.84
0 -9 -14 6.39 2.91
0 -9 -14 9.66 1.1
0 -9 -14 6.62 0.74
0 9 14 7.44 2.73
0 -9 -15 -1.42 1.15
0 -10 17 27.67 1.57
0 -10 17 26.76 1.42
0 -10 16 9.95 0.97
0 -10 16 12.89 1.26
0 -10 15 0.12 0.33
0 -10 15 -0.29 0.42
0 -10 14 123.9 4.53
0 -10 14 119.8 4.43
0 -10 13 8.62 1.12
0 -10 13 7.56 1.17
0 -10 13 8.73 1.11
0 10 -12 6.93 0.45
0 -10 12 8 1.19
0 -10 12 8.15 1.14
0 -10 12 8.61 1.08
0 -10 11 187.31 6.62
0 -10 11 184.4 6
0 -10 11 192.73 5.78
0 10 -11 183.44 3.76
0 -10 11 188.36 6.32
0 -10 11 192.43 6.42
0 -10 10 0.1 0.46
0 -10 10 0.14 0.42
0 -10 10 0.64 0.52
0 -10 10 0.77 0.71
0 10 -10 -0.18 0.19
0 -10 9 14.81 1.44
0 -10 9 17.48 1.64
0 -10 9 15.57 1.47
0 -10 9 15.71 2.4
0 -10 9 14.9 1.62
0 -10 9 11.33 2.27
0 10 -9 16.41 0.75
0 -10 9 15.02 1.56
0 10 -8 53.27 1.34
0 -10 8 49.96 2.66
0 -10 8 51.03 4.28
0 -10 8 52.74 2.8
0 -10 8 52.6 2.78
0 -10 8 50.21 2.85
0 -10 8 49.69 2.69
0 -10 8 48.41 3.34
0 10 -7 70.74 1.7
0 -10 7 70.33 3.19
0 -10 7 69.62 3.23
0 -10 7 66.77 3.41
0 -10 7 71.21 4.86
0 -10 7 69.45 3.12
0 -10 6 33.93 3.25
0 10 -6 37.39 1.11
0 10 -5 0.66 0.18
0 -10 5 1.71 0.93
0 -10 5 1.7 0.69
0 10 -5 0.57 0.22
0 -10 4 238.16 8.29
0 10 -4 250.1 4.36
0 -10 4 243.69 8.78
0 -10 3 3.04 0.81
0 10 -3 2.96 0.33
0 -10 3 2.1 0.91
0 10 -3 3.13 0.3
0 -10 2 7.52 1.65
0 10 -2 8.37 0.56
0 10 -1 121.8 2.81
0 -10 1 119.72 6.62
0 -10 0 10.79 2.01
0 10 0 10.16 0.65
0 10 1 68.42 2.08
0 -10 -1 91.87 6.01
0 -10 -2 63.5 5
0 10 2 25.29 1.2
0 -10 -3 56.93 4.8
0 10 3 8.56 0.83
0 -10 -4 2.92 0.7
0 -10 -4 3.32 0.77
0 -10 -4 2.19 1.2
0 -10 -4 4.79 2.06
0 -10 -4 4.02 1.19
0 -10 -5 7.2 1.83
0 -10 -5 6.3 1.51
0 -10 -5 6.11 1.17
0 -10 -5 5.7 0.95
0 -10 -5 10.43 4.37
0 -10 -6 1.28 0.72
0 -10 -6 1.47 2.55
0 -10 -6 1.4 0.62
0 -10 -6 2.04 0.7
0 -10 -6 2.17 1.19
0 -10 -7 158.29 7.55
0 -10 -7 150.94 6.3
0 -10 -7 146.61 18.11
0 -10 -7 152.06 5.22
0 -10 -8 1.98 2.93
0 -10 -8 -0.43 0.77
0 10 8 1.37 0.56
0 -10 -8 1.07 0.94
0 10 8 1.61 2.27
0 -10 -9 9.9 1.6
0 -10 -9 17.55 6.7
0 10 9 10.08 1.36
0 10 9 12.31 1.44
0 10 9 14.9 6.71
0 -10 -10 15.65 5.12
0 -10 -10 20.33 2.22
0 10 10 20.71 7.58
0 10 10 21.91 1.94
0 10 11 25.17 1.94
0 10 11 18.8 7.13
0 -10 -11 34.02 8.24
0 -10 -11 29.7 2.59
0 -10 -12 1.27 2.21
0 -10 -12 3.15 0.8
0 -10 -12 3.18 0.87
0 10 12 2.53 0.68
0 -10 -13 54.06 7.99
0 10 13 48.36 7.58
0 -10 -13 59.98 2.89
0 -10 -13 62.09 2.7
0 10 13 48.54 2.1
0 -10 -14 0.98 1.11
0 -10 -14 0.5 0.28
0 -11 17 9.85 0.78
0 -11 17 9.74 0.75
0 -11 16 20.77 1.09
0 -11 16 19.93 1.43
0 -11 16 19.65 1.43
0 -11 15 14.1 1.39
0 -11 15 13.89 1.2
0 -11 14 1.67 0.52
0 -11 14 0.78 0.49
0 -11 13 17.68 1.75
0 -11 13 18.2 1.56
0 -11 12 66.01 3.52
0 -11 12 68.61 3.48
0 -11 12 65.57 3.26
0 -11 11 111.45 4.92
0 11 -11 110.74 2.45
0 -11 11 115 4.8
0 -11 11 111.47 4.65
0 -11 11 111.3 4.49
0 -11 10 24.72 2.11
0 -11 10 22.66 1.95
0 11 -10 21.85 0.86
0 -11 10 22.68 2.11
0 -11 10 22.17 1.91
0 -11 9 0.42 0.44
0 -11 9 0.03 2.36
0 11 -9 -0.03 0.16
0 -11 9 0.35 0.39
0 -11 9 0.39 0.41
0 -11 9 -0.53 0.52
0 -11 9 0.52 0.68
0 -11 8 27.91 2.14
0 -11 8 27.55 2.23
0 -11 8 27.89 3.12
0 -11 8 25.37 1.84
0 -11 8 26.5 2.03
0 11 -8 29.64 0.92
0 -11 8 27.22 2.08
0 -11 8 27.14 3.11
0 -11 7 31.9 3.24
0 -11 7 31.89 2.01
0 -11 7 36.76 2.4
0 -11 7 37.25 2.35
0 -11 7 33.58 2.89
0 -11 7 28.02 14.33
0 -11 7 38.27 2.37
0 11 -7 37.07 1.12
0 -11 6 7.72 1.6
0 -11 6 7.65 1.08
0 -11 6 9.11 2.03
0 -11 6 7.75 0.93
0 -11 6 8.78 1.17
0 11 -6 8.54 0.5
0 -11 6 8.29 1.05
0 -11 5 94.31 3.87
0 -11 5 91.66 5.17
0 -11 5 102.76 4.05
0 11 -5 97.46 2.25
0 -11 5 92.98 3.8
0 -11 5 99.86 3.73
0 -11 5 96.93 16.18
0 -11 4 4.03 0.99
0 -11 4 3.68 1.04
0 11 -4 5.25 0.4
0 -11 4 4.16 0.8
0 -11 3 19.37 2.56
0 11 -3 19.23 0.76
0 11 -2 5.7 0.43
0 -11 2 5.69 1.48
0 -11 1 5.34 1.54
0 11 -1 2.81 0.44
0 11 0 0.15 0.29
0 -11 0 -0.46 0.5
0 -11 0 -0.18 0.67
0 -11 -1 6.3 1.04
0 -11 -1 6.45 1.04
0 -11 -1 6.01 1.65
0 -11 -2 4.99 1.55
0 -11 -2 2.92 2.15
0 -11 -2 7.68 1.9
0 -11 -2 6.11 1.04
0 -11 -3 190.66 18.09
0 11 3 202.16 18.8
0 -11 -3 221.92 8.52
0 -11 -3 206.67 6.54
0 -11 -3 204 9.86
0 -11 -3 187.41 6.06
0 -11 -4 10.61 1.41
0 -11 -4 12.33 2.06
0 -11 -4 12.11 4.98
0 -11 -4 9.26 1.37
0 11 4 8.59 1.89
0 -11 -4 10.45 2.14
0 -11 -5 48.39 10.1
0 -11 -5 35.1 2.68
0 11 5 52.59 10.87
0 -11 -5 42.81 3.78
0 -11 -5 37.78 2.59
0 -11 -6 199.26 20.94
0 -11 -6 190.28 6.26
0 -11 -6 189.06 8.58
0 -11 -6 182.88 6.89
0 11 6 196.55 21.78
0 -11 -7 33.27 2.85
0 -11 -7 34.23 2.37
0 11 7 32.27 9.2
0 -11 -7 36.24 9.24
0 -11 -7 32.52 3.49
0 -11 -8 0.75 1.02
0 11 8 -1.65 2.01
0 -11 -8 -0.21 0.73
0 -11 -8 1.08 0.43
0 -11 -8 -1.64 2.45
0 -11 -9 18.45 2.12
0 11 9 18.21 6.77
0 -11 -9 15.78 5.24
0 -11 -10 -0.59 0.66
0 11 10 -0.65 2.43
0 -11 -10 -1.15 2.53
0 -11 -11 3.25 0.89
0 -11 -11 0.52 1.7
0 -11 -11 3.2 0.92
0 11 11 3.05 3.14
0 11 12 8.1 3.74
0 -11 -12 7.01 1.05
0 -11 -12 9.54 3.34
0 -11 -12 7.83 1.05
0 11 13 2.26 1.4
0 -11 -13 2.06 1.55
0 -11 -13 1.94 0.5
0 -11 -13 2.17 0.44
0 -11 -13 1.36 0.31
0 -12 16 89.23 2.35
0 -12 16 87.9 2.71
0 -12 15 78.62 2.81
0 -12 15 76.94 3.12
0 -12 14 1.98 0.67
0 -12 14 1.01 0.53
0 -12 13 98.99 4.13
0 -12 13 97.4 3.65
0 -12 12 155.11 5.2
0 -12 12 160.79 5.73
0 -12 12 157.98 5.46
0 -12 11 40.15 2.8
0 -12 11 42.43 2.7
0 -12 11 40.33 2.54
0 -12 11 41.65 2.8
0 -12 10 2.31 0.88
0 -12 10 2.54 0.78
0 -12 10 2.81 0.83
0 12 -10 2.77 0.31
0 -12 10 2.84 0.8
0 -12 9 19.43 1.88
0 -12 9 22.11 1.96
0 -12 9 20.37 1.84
0 12 -9 18.85 0.79
0 -12 9 19.63 1.99
0 -12 8 56.97 3.39
0 -12 8 54.48 3.16
0 -12 8 58.71 3.18
0 12 -8 59.84 1.5
0 -12 8 50.33 2.72
0 -12 8 53.83 3.83
0 -12 8 61.36 3.29
0 -12 7 16.4 1.42
0 -12 7 19.22 1.81
0 -12 7 17.58 1.69
0 -12 7 14.69 2.93
0 12 -7 17.51 0.72
0 -12 7 15.13 2.23
0 -12 7 17.16 1.81
0 -12 7 17.43 1.68
0 -12 6 109.02 3.87
0 -12 6 118.93 4.59
0 -12 6 117.19 4.74
0 -12 6 117.11 4.45
0 12 -6 115.97 2.57
0 -12 6 114.62 4.58
0 -12 6 107.98 19.54
0 -12 6 101.21 5.7
0 -12 6 114.51 5.07
0 -12 5 5.29 0.95
0 -12 5 5.41 0.97
0 -12 5 6.11 1.01
0 -12 5 11.89 12.99
0 12 -5 6.25 0.45
0 -12 5 5.92 1.98
0 -12 5 5.72 0.9
0 -12 4 2.09 0.61
0 -12 4 3.31 0.82
0 -12 4 2.19 0.96
0 -12 4 3.98 12.76
0 -12 4 3.19 1.56
0 12 -4 2.61 0.32
0 -12 4 2.49 0.71
0 -12 4 1.74 0.45
0 -12 3 7.53 1.28
0 -12 3 7.12 1.11
0 -12 3 6.34 1.58
0 -12 3 7.67 1.16
0 12 -3 7.1 0.49
0 -12 3 6.37 1.01
0 -12 3 9.49 11.98
0 -12 2 17.77 1.63
0 -12 2 19.5 1.98
0 -12 2 18.85 2.67
0 -12 2 16.59 1.71
0 12 -2 17.04 0.78
0 -12 2 16.38 1.61
0 -12 1 228 8.06
0 -12 1 205.18 9.57
0 -12 1 215.31 6.92
0 12 -1 212.41 4.23
0 -12 1 213.35 6.53
0 -12 1 193.07 5.48
0 -12 1 220.69 7.04
0 -12 0 124.92 14.34
0 -12 0 125.09 7.46
0 -12 0 125.63 5.1
0 12 0 121.06 2.73
0 -12 0 121.51 4.98
0 -12 0 127.29 5.32
0 -12 0 123.46 4.75
0 -12 0 124.66 6.04
0 -12 -1 2.36 0.81
0 -12 -1 3.81 0.96
0 12 1 3.24 0.35
0 -12 -1 3.33 1.35
0 -12 -1 -0.88 2.3
0 -12 -1 3.28 0.84
0 -12 -1 2.53 2.06
0 -12 -2 526.77 13.69
0 -12 -2 501.74 12.4
0 -12 -2 547.48 15.26
0 12 2 498.96 8.98
0 -12 -2 465.65 29.96
0 -12 -2 528.65 12.8
0 -12 -2 498.26 16.79
0 -12 -3 171.6 18.27
0 -12 -3 185.73 6.39
0 -12 -3 186.59 8.16
0 12 3 185.33 18.44
0 12 3 157.36 3.24
0 -12 -4 6.09 1.1
0 -12 -4 10.18 1.42
0 -12 -4 7.8 1.86
0 -12 -4 10.97 4.47
0 12 4 5.7 3.51
0 12 4 7.22 0.43
0 -12 -5 3.16 3.65
0 12 5 2.65 2.85
0 -12 -5 1.74 0.72
0 -12 -5 0.97 1.3
0 -12 -5 2.79 0.95
0 -12 -6 8.9 1.84
0 12 6 10.7 5.47
0 -12 -6 13.38 5.59
0 -12 -6 9.18 1.46
0 -12 -6 9.51 1.35
0 -12 -7 -0.95 1.03
0 -12 -7 0.77 2.55
0 -12 -7 -0.36 0.52
0 12 7 -1.06 2.88
0 -12 -7 -0.83 0.74
0 -12 -8 49.28 3.27
0 12 8 48.18 10.72
0 -12 -8 47.86 2.4
0 -12 -8 46.68 9.56
0 -12 -8 50.05 3.7
0 -12 -9 18.14 2.08
0 -12 -9 15.67 5.63
0 12 9 21.09 6.99
0 -12 -9 16.7 1.84
0 -12 -10 0.51 0.57
0 -12 -10 0.27 0.5
0 12 10 -2.7 1.87
0 -12 -10 0.16 1.81
0 -12 -11 13.14 0.85
0 -12 -11 20.1 1.63
0 12 11 19.06 5.02
0 -12 -11 21.9 1.79
0 -12 -12 0.79 0.37
0 -12 -12 0.93 0.99
0 12 12 1.21 1.39
0 -12 -12 0.34 0.2
0 -12 -12 0.92 0.42
0 -13 16 17.98 0.97
0 -13 15 27.61 1.4
0 -13 15 25.36 1.49
0 -13 14 10.82 1.14
0 -13 14 8.3 0.81
0 -13 14 10.29 1.05
0 -13 13 40.59 2.39
0 -13 13 40.86 2.05
0 -13 13 41.78 2.46
0 -13 12 0.71 0.49
0 -13 12 0.53 0.44
0 -13 12 0.39 0.41
0 -13 11 10.74 1.44
0 -13 11 11.34 1.32
0 -13 11 11.46 1.33
0 -13 11 11.58 1.45
0 -13 10 2.65 0.79
0 -13 10 2.97 0.81
0 -13 10 3.28 0.93
0 -13 10 3.12 0.81
0 -13 9 3.34 0.85
0 -13 9 4.59 0.94
0 -13 9 5.27 1.04
0 -13 9 3.96 1.01
0 -13 8 8.36 1.25
0 -13 8 5.27 2.68
0 -13 8 9.06 1.29
0 -13 8 9.09 1.31
0 -13 8 8.83 1.36
0 13 -7 40.73 1.2
0 -13 7 36.45 2.22
0 -13 7 39.65 2.73
0 -13 7 42.96 2.72
0 -13 7 35.26 2.08
0 -13 7 40.79 2.9
0 -13 7 45.71 3.81
0 -13 7 41.59 2.69
0 -13 6 16.42 1.34
0 13 -6 17.09 0.74
0 -13 6 17.15 1.73
0 -13 6 18.37 1.69
0 -13 6 14.37 3.11
0 -13 6 18.38 1.78
0 -13 6 16.4 1.77
0 -13 5 79.29 3.49
0 -13 5 77.96 3.73
0 -13 5 75.64 3.89
0 -13 5 80.2 4.31
0 13 -5 79.22 1.97
0 -13 5 80.58 4.02
0 -13 4 15.1 1.37
0 -13 4 16 1.6
0 -13 4 13.07 2.54
0 -13 4 15.99 1.75
0 -13 4 14.74 1.73
0 13 -4 14.24 0.7
0 -13 3 32.79 2.6
0 13 -3 35.76 1.2
0 -13 3 36.65 2.48
0 -13 3 34.81 2.71
0 -13 3 37.31 2.68
0 -13 2 7.24 2.67
0 13 -2 10.38 0.62
0 -13 2 10.85 1.55
0 -13 2 12.4 1.92
0 -13 2 12.15 1.45
0 -13 2 10.71 1.46
0 -13 1 117.5 5.2
0 13 -1 117.44 2.67
0 -13 1 121.23 6.19
0 -13 1 118.04 5.07
0 -13 1 120.68 4.84
0 -13 0 57.47 3.53
0 13 0 52.54 1.5
0 -13 0 56.17 3.31
0 -13 0 53.49 4.55
0 -13 0 58.7 3.79
0 -13 0 54.06 3.37
0 -13 -1 139.07 16.14
0 -13 -1 145.87 5.62
0 13 1 138.51 3
0 -13 -1 151.07 5.93
0 -13 -1 151.63 5.9
0 -13 -1 149.34 7.34
0 -13 -1 147.97 6.3
0 -13 -2 4.4 1.1
0 -13 -2 5.8 1.18
0 -13 -2 3.76 0.93
0 13 2 3.75 0.35
0 -13 -2 4.71 2.44
0 -13 -2 5.69 3.75
0 -13 -2 4.28 0.95
0 -13 -3 125.82 5.22
0 -13 -3 134.31 6.25
0 13 3 142.35 15.64
0 -13 -3 131.38 16.42
0 -13 -3 144.09 7.35
0 13 3 114.44 2.51
0 -13 -3 137.11 5.54
0 -13 -4 3.58 1
0 -13 -4 4.54 0.98
0 -13 -4 4.16 1.03
0 -13 -4 3.61 1.24
0 -13 -4 -1.16 2.29
0 -13 -4 3.02 1.78
0 13 4 6.98 3.77
0 -13 -5 4.7 1.25
0 -13 -5 5.17 1.7
0 -13 -5 4.57 1.06
0 -13 -5 4.83 0.93
0 13 5 4.29 2.37
0 -13 -5 3.99 2.55
0 -13 -5 4.07 0.93
0 -13 -6 20.44 2.01
0 -13 -6 23.27 2.11
0 -13 -6 20.72 6.84
0 13 6 22.86 6.95
0 -13 -6 23.12 1.96
0 -13 -6 19.74 2.67
0 -13 -6 25.73 2.77
0 -13 -7 6.9 0.95
0 -13 -7 6.27 1.38
0 -13 -7 7.36 4.41
0 -13 -7 4.93 0.99
0 13 7 3.18 2.73
0 -13 -7 6.9 1.21
0 -13 -8 26.66 1.99
0 -13 -8 23.89 6.33
0 13 8 25.24 7.05
0 -13 -8 22.22 1.8
0 -13 -8 25.55 2.09
0 -13 -8 26.97 2.49
0 -13 -8 23.9 1.52
0 -13 -9 4.55 1.05
0 -13 -9 10.05 3.99
0 -13 -9 4.4 0.76
0 13 9 9.21 3.78
0 -13 -9 4.12 0.68
0 -13 -9 4.89 0.93
0 13 10 -1.21 2.03
0 -13 -10 0.2 0.23
0 -13 -10 0.76 0.44
0 -13 -10 0.01 0.41
0 -13 -10 0.48 0.31
0 -13 -10 0.23 1.16
0 -13 -11 5.65 0.52
0 -13 -11 8.22 2.41
0 -13 -11 9.37 0.91
0 -13 -11 9.2 0.81
0 13 11 9.3 2.66
0 -14 15 18.53 0.97
0 -14 14 1.09 0.42
0 -14 14 1.12 0.38
0 -14 13 0.54 0.44
0 -14 13 -0.09 0.34
0 -14 13 0.57 0.34
0 -14 12 9.82 1.14
0 -14 12 11.37 1.07
0 -14 12 10.74 1.25
0 -14 11 32.86 2.29
0 -14 11 34.72 2.1
0 -14 11 33.62 2.08
0 -14 11 31.9 2.28
0 -14 11 30.44 2.08
0 -14 10 89.54 3.77
0 -14 10 98.17 4.25
0 -14 10 88.32 3.76
0 -14 10 83.55 3.64
0 -14 10 93 4.12
0 -14 9 51.87 3.06
0 -14 9 52.57 3.15
0 -14 9 56.15 3.06
0 -14 9 53.64 2.93
0 -14 9 48.65 2.64
0 -14 8 7.46 1.3
0 -14 8 8.41 1
0 -14 8 8.36 1.23
0 -14 8 6.89 1.15
0 -14 8 8.02 1.19
0 -14 7 4.75 0.99
0 -14 7 5.37 0.99
0 -14 7 5.57 1.12
0 -14 7 5.6 1.1
0 -14 6 170.75 6.13
0 -14 6 170.75 6.23
0 -14 6 182.65 6.1
0 -14 6 167.05 5.64
0 -14 6 158.44 6.04
0 -14 5 143.92 5.68
0 -14 5 157.9 5.93
0 -14 5 151.84 5.01
0 14 -5 149.5 3.16
0 -14 5 152.91 5.91
0 -14 5 146.69 5.51
0 -14 4 4.8 2.46
0 -14 4 6.14 1.2
0 -14 4 7.49 1.28
0 14 -4 6.45 0.45
0 -14 4 5.89 1.05
0 -14 3 32.3 2.93
0 -14 3 35.86 2.71
0 14 -3 35.53 1.16
0 -14 3 36.95 2.58
0 -14 3 33.53 2.72
0 -14 2 1.79 1.95
0 -14 2 1.35 0.58
0 -14 2 1.47 0.67
0 14 -2 0.66 0.19
0 -14 2 0.11 0.57
0 -14 2 -0.52 1.83
0 14 -1 87.96 2.12
0 -14 1 93.09 4.53
0 -14 1 90.97 4.25
0 -14 1 86.3 5.29
0 -14 1 90.93 4.64
0 -14 0 -0.59 2.06
0 14 0 -0.09 0.18
0 -14 0 0.62 0.64
0 -14 0 -0.45 0.51
0 -14 0 -0.43 0.67
0 -14 0 -0.41 0.56
0 -14 -1 25.34 2.32
0 -14 -1 25.7 3.24
0 -14 -1 24.38 2.44
0 -14 -1 25.63 2.41
0 -14 -1 23.18 2.11
0 -14 -2 53.62 3.43
0 -14 -2 44.09 9.55
0 -14 -2 55.31 3.4
0 -14 -2 50.41 3.11
0 -14 -2 52.84 4.48
0 -14 -2 57.41 3.9
0 -14 -3 13.74 2.42
0 -14 -3 13.2 1.68
0 -14 -3 12.5 4.97
0 -14 -3 12.03 1.55
0 -14 -3 12.62 1.88
0 -14 -3 11.09 1.55
0 -14 -4 22.69 2.93
0 14 4 25.6 6.59
0 -14 -4 21.2 1.99
0 -14 -4 22.07 2.08
0 -14 -4 24.13 2.58
0 -14 -4 23.63 2.16
0 -14 -4 18.78 6.19
0 -14 -5 -0.03 1.03
0 -14 -5 -0.72 1.68
0 -14 -5 1.07 0.63
0 -14 -5 -0.57 0.71
0 -14 -5 0.61 0.43
0 -14 -5 0.02 0.44
0 -14 -6 16.72 1.52
0 -14 -6 16.43 1.62
0 -14 -6 18.4 1.61
0 -14 -6 19.35 2.15
0 14 6 25.9 6.58
0 -14 -6 17.18 1.65
0 -14 -6 20.16 5.88
0 14 7 7.36 4.01
0 -14 -7 8.14 1.39
0 -14 -7 8.32 0.96
0 -14 -7 6.26 0.91
0 -14 -7 6.1 0.92
0 -14 -7 5.17 3.1
0 -14 -7 6.47 0.95
0 -14 -8 34.61 2.49
0 -14 -8 30.1 1.71
0 -14 -8 26.52 1.59
0 -14 -8 28.98 1.79
0 14 8 27.17 5.96
0 -14 -9 8.5 0.76
0 -14 -9 12.37 1.29
0 -14 -9 10.91 3.22
0 -14 -9 10.85 0.94
0 14 9 9.21 3.14
0 -14 -9 9.4 0.69
0 14 10 0.61 0.73
0 -14 -10 1.7 0.45
0 -15 14 30.4 1.3
0 -15 13 10.21 0.81
0 -15 13 12.66 1.02
0 -15 12 10.08 0.92
0 -15 12 13.3 1.21
0 -15 12 13.02 0.97
0 -15 11 0.03 0.35
0 -15 11 0.26 0.31
0 -15 11 0.05 0.3
0 -15 11 0.27 0.36
0 -15 10 5.28 0.87
0 -15 10 4.59 0.86
0 -15 10 4.51 0.86
0 -15 10 5.45 0.83
0 -15 10 4.65 0.68
0 -15 9 0.09 0.4
0 -15 9 0.68 0.56
0 -15 9 0.73 0.51
0 -15 9 -0.09 0.37
0 -15 8 20.07 1.74
0 -15 8 17.57 1.6
0 -15 8 20.72 1.94
0 -15 8 20.22 1.66
0 -15 7 6.44 1.01
0 -15 7 6.42 1.18
0 -15 7 7.02 1.18
0 -15 7 6.63 1.06
0 -15 6 22.54 1.73
0 -15 6 20.91 1.93
0 -15 6 21.75 2.04
0 -15 6 22.38 1.88
0 -15 6 22.02 2.01
0 -15 5 8.35 0.97
0 -15 5 7.03 1.07
0 -15 5 6.54 1.16
0 -15 5 7.73 1.23
0 -15 4 4.49 2.03
0 -15 4 5.39 1.08
0 -15 4 5.33 0.98
0 -15 4 3.55 0.95
0 -15 3 13.86 2.15
0 -15 3 17.08 1.71
0 -15 3 14.31 1.76
0 -15 3 19.68 1.97
0 -15 2 3.99 1.66
0 -15 2 1.32 0.68
0 -15 2 1.52 0.63
0 -15 2 0.88 1.16
0 -15 2 0.85 0.72
0 -15 1 21.95 2.11
0 -15 1 19.89 2.3
0 -15 1 21.24 1.9
0 -15 1 20.8 2.17
0 -15 0 -0.19 0.4
0 -15 0 0.05 0.52
0 -15 0 0.29 0.64
0 -15 0 -0.3 0.56
0 -15 0 0.6 1.32
0 -15 -1 5.53 1.02
0 -15 -1 6.14 1.26
0 -15 -1 4.88 1.08
0 -15 -1 5.4 1.15
0 -15 -1 4.99 1.51
0 -15 -2 21.34 2.67
0 -15 -2 22.39 2.09
0 -15 -2 23.18 1.99
0 -15 -2 24.26 2.2
0 -15 -2 25.4 2.37
0 -15 -3 -1.09 1.04
0 -15 -3 0.23 0.48
0 -15 -3 -0.34 0.43
0 -15 -3 0.44 0.52
0 -15 -3 -0.41 0.54
0 -15 -4 1.22 0.62
0 -15 -4 -0.32 0.75
0 -15 -4 -0.28 0.47
0 -15 -4 0.38 0.79
0 -15 -4 0.22 0.37
0 -15 -5 2.85 0.75
0 -15 -5 2.59 0.82
0 15 5 3.75 1.59
0 -15 -5 2.62 0.62
0 -15 -5 2.81 0.69
0 -15 -6 -0.25 0.4
0 -15 -6 0.34 0.33
0 -15 -6 -0.08 0.47
0 -15 -6 0 0.36
0 15 6 1.41 2.05
0 15 7 6.16 2.4
0 -15 -7 5.32 0.59
0 -15 -7 5.04 0.66
0 -15 -7 5.25 0.9
0 -15 -7 4.43 0.62
0 15 8 9.19 2.55
0 -15 -8 8.45 0.64
0 -15 -8 10.64 1.09
0 -16 12 4.92 0.61
0 -16 12 4.31 0.42
0 -16 11 11.85 0.88
0 -16 11 12.97 1.08
0 -16 10 0.09 0.3
0 -16 10 0.85 0.43
0 -16 10 0.54 0.37
0 -16 10 0.04 0.31
0 -16 9 7.36 0.91
0 -16 9 7.94 1.02
0 -16 9 7.39 0.92
0 -16 9 7.85 0.86
0 -16 8 15 1.32
0 -16 8 16.75 1.56
0 -16 8 16.19 1.32
0 -16 8 15.23 1.42
0 -16 7 1.26 0.51
0 -16 7 0.81 0.59
0 -16 7 1.27 0.49
0 -16 7 0.85 0.54
0 -16 6 7.36 1.06
0 -16 6 9.32 1.23
0 -16 6 7.56 1.17
0 -16 6 7.87 1.02
0 -16 6 7.6 0.85
0 -16 5 -0.03 0.48
0 -16 5 -0.41 0.56
0 -16 5 0.07 0.38
0 -16 5 -0.07 0.41
0 -16 4 0.13 0.53
0 -16 4 0.44 0.53
0 -16 4 0.2 0.48
0 -16 3 15.38 1.64
0 -16 3 15.17 1.69
0 -16 3 14.26 1.44
0 -16 2 14.1 1.44
0 -16 2 13.4 1.58
0 -16 2 13.36 1.64
0 -16 1 6.61 1.19
0 -16 1 5.56 1.11
0 -16 1 5.5 0.93
0 -16 1 5.49 1.13
0 -16 0 2.83 0.82
0 -16 0 2.43 0.66
0 -16 0 2.17 0.78
0 -16 0 2.98 0.91
0 -16 -1 0.88 0.42
0 -16 -1 0.19 0.52
0 -16 -1 0.33 0.4
0 -16 -1 0.53 0.54
0 -16 -2 0.29 0.38
0 -16 -2 -0.35 0.41
0 -16 -2 0.26 0.48
0 -16 -2 -0.52 0.9
0 -16 -2 0.78 0.58
0 -16 -3 1.53 0.47
0 -16 -3 0.47 0.45
0 -16 -3 1.28 0.58
0 -16 -3 0.96 0.48
0 -16 -4 -0.09 0.37
0 -16 -4 0.24 0.28
0 -16 -4 -0.35 0.35
0 -16 -4 -0.76 0.54
0 -16 -5 2.36 0.45
0 -16 -5 2.88 0.58
0 -16 -5 2.34 0.52
0 -16 -5 2.84 0.73
0 -16 -6 -0.07 0.26
0 -16 -6 -0.11 0.3
0 -16 -6 -0.27 0.2
0 -16 -6 0.17 0.2
0 -17 10 0.15 0.21
0 -17 10 -0.18 0.23
0 -17 9 21.93 1.11
0 -17 9 20.88 1.18
0 -17 9 24.11 1.48
0 -17 9 25.34 1.38
0 -17 8 -0.01 0.34
0 -17 8 -0.05 0.25
0 -17 8 0.32 0.3
0 -17 8 0.31 0.27
0 -17 7 1.34 0.38
0 -17 7 0.86 0.41
0 -17 7 1.09 0.47
0 -17 6 2.46 0.58
0 -17 6 2.94 0.65
0 -17 6 2.88 0.66
0 -17 6 2.6 0.55
0 -17 5 4.44 0.67
0 -17 5 4.43 1
0 -17 5 3.11 0.67
0 -17 5 4.48 0.76
0 -17 4 5.07 0.92
0 -17 4 4.71 0.8
0 -17 4 3.73 0.74
0 -17 3 1.45 0.6
0 -17 3 1.51 0.5
0 -17 3 3.16 0.75
0 -17 3 1.43 0.51
0 -17 2 5.24 0.86
0 -17 2 4.3 0.77
0 -17 2 7.44 0.83
0 -17 2 4.47 0.89
0 -17 1 21.13 1.88
0 -17 1 19.37 1.36
0 -17 1 21.01 1.68
0 -17 0 0.46 0.42
0 -17 0 -0.12 0.27
0 -17 0 0.79 0.56
0 -17 -1 6.6 0.75
0 -17 -1 7.23 1.05
0 -17 -1 6.55 0.91
0 -17 -2 46.59 2.24
0 -17 -2 45.64 1.89
0 -17 -2 51.95 2.61
0 -17 -3 0.11 0.3
0 -17 -3 0.03 0.24
0 -17 -3 0.22 0.2
0 -17 -3 0.58 0.33
0 -17 -4 26.62 1.42
0 -17 -4 22.48 1.16
0 -18 8 -0.22 0.22
0 -18 7 0.39 0.25
0 -18 7 0.42 0.24
0 -18 6 19.21 1.19
0 -18 6 16.46 0.85
0 -18 6 16.8 1.1
0 -18 5 88.07 2.88
0 -18 5 67.33 2.44
0 -18 5 73.94 2.2
0 -18 5 84.25 2.72
0 -18 4 -0.11 0.21
0 -18 4 0.26 0.34
0 -18 4 0.02 0.29
0 -18 4 0.03 0.23
0 -18 3 15.53 0.9
0 -18 3 18.52 1.29
0 -18 3 15.42 1.04
0 -18 3 15.56 1.3
0 -18 2 6.44 0.88
0 -18 2 7.34 0.81
0 -18 2 4.89 0.57
0 -18 2 6.14 0.58
0 -18 1 0.08 0.18
0 -18 1 0.01 0.32
0 -18 1 0.23 0.28
0 -18 1 -0.11 0.18
0 -18 0 7.74 0.55
0 -18 0 9.97 0.87
0 -18 0 8.53 0.94
0 -18 -1 3.8 0.61
0 -18 -1 3.97 0.52
0 -18 -2 30.49 1.45
0 -18 -2 28.11 1.18
1 -18 -2 0.88 0.27
1 -18 -2 2.61 0.59
1 -18 -1 74.99 2.52
1 -18 -1 79.79 2.95
1 -18 0 4.81 0.77
1 -18 0 5.13 0.66
1 -18 0 4.08 0.51
1 -18 1 0.98 0.44
1 -18 1 1.37 0.37
1 -18 1 1.12 0.41
1 -18 2 6.71 0.93
1 -18 2 5.48 0.73
1 -18 2 5.32 0.67
1 -18 3 10.41 1.13
1 -18 3 11.99 1.03
1 -18 3 12.36 1.03
1 -18 4 2.5 0.59
1 -18 4 2.83 0.53
1 -18 4 2.31 0.51
1 -18 5 16.78 1.21
1 -18 5 13.2 1.11
1 -18 5 15.01 1.08
1 -18 6 10.17 0.91
1 -18 6 10.85 0.86
1 -18 7 13.02 0.97
1 -18 7 12.72 0.82
1 -18 8 33.7 1.47
1 -17 -5 22.74 1.05
1 -17 -4 0.66 0.32
1 -17 -4 1.05 0.42
1 -17 -4 0.52 0.25
1 -17 -3 -0.13 0.26
1 -17 -3 -0.1 0.37
1 -17 -3 0.02 0.33
1 -17 -2 0.25 0.21
1 -17 -2 0.97 0.57
1 -17 -2 0.87 0.46
1 -17 -2 0.9 0.41
1 -17 -1 0.18 0.21
1 -17 -1 -0.19 0.42
1 -17 -1 -0.68 0.49
1 -17 -1 0.04 0.37
1 -17 0 1.64 0.41
1 -17 0 0.88 0.47
1 -17 1 8.82 1.27
1 -17 1 7.8 0.77
1 -17 1 7.34 1.01
1 -17 2 0.04 0.43
1 -17 2 -0.03 0.53
1 -17 2 -0.36 0.28
1 -17 3 57.75 2.86
1 -17 3 56.43 3.18
1 -17 3 54.17 2.14
1 -17 4 1.17 0.59
1 -17 4 1.79 0.6
1 -17 4 1.91 0.39
1 -17 4 1.6 0.57
1 -17 5 8.69 1.2
1 -17 5 8.77 1.11
1 -17 5 8.46 0.79
1 -17 5 9 1.07
1 -17 6 20.3 1.16
1 -17 6 21.06 1.62
1 -17 6 19.94 1.51
1 -17 6 23.2 1.7
1 -17 7 0.4 0.31
1 -17 7 -0.31 0.31
1 -17 7 0.12 0.33
1 -17 7 0.52 0.34
1 -17 8 19.05 1.41
1 -17 8 16.41 1.07
1 -17 8 17.71 0.95
1 -17 8 18.31 1.21
1 -17 9 1.32 0.39
1 -17 9 1.55 0.39
1 -17 9 0.79 0.28
1 -17 10 6.83 0.65
1 -17 10 7 0.51
1 -16 -7 19.43 1.3
1 -16 -6 8.69 1.07
1 -16 -6 8.63 0.83
1 -16 -6 9.13 0.73
1 -16 -5 11.16 0.81
1 -16 -5 13.74 1.47
1 -16 -5 14.65 1.19
1 -16 -5 13.13 1.17
1 -16 -4 0.76 0.53
1 -16 -4 -0.21 0.27
1 -16 -4 0.38 0.4
1 -16 -4 0.07 0.35
1 -16 -3 7.33 0.8
1 -16 -3 9.03 1.16
1 -16 -3 8.79 1.26
1 -16 -3 9.68 1.27
1 -16 -2 6.38 0.83
1 -16 -2 5.86 0.97
1 -16 -2 6.54 1.19
1 -16 -2 6.85 1.1
1 -16 -1 0.99 0.4
1 -16 -1 0.49 0.55
1 -16 -1 0.97 0.55
1 -16 -1 1 0.49
1 -16 0 7 1.17
1 -16 0 7.08 0.9
1 -16 0 7.34 1.13
1 -16 0 8.94 1.37
1 -16 1 3.31 0.66
1 -16 1 3.75 0.93
1 -16 1 3.37 1
1 -16 2 2.13 0.59
1 -16 2 2.64 0.77
1 -16 2 1.82 0.75
1 -16 3 50.98 2.98
-1 16 -3 52.18 1.28
1 -16 3 48.84 2.44
1 -16 3 52.05 3.37
1 -16 4 1.41 0.68
1 -16 4 1.46 0.46
1 -16 4 1.09 0.62
1 -16 5 14.33 1.65
1 -16 5 14.14 1.58
1 -16 5 14.05 1.51
1 -16 5 14.76 1.25
1 -16 6 13.84 1.54
1 -16 6 16.58 1.33
1 -16 6 16.42 1.66
1 -16 6 16.56 1.55
1 -16 6 16.7 1.31
1 -16 7 16.65 1.61
1 -16 7 16.49 1.37
1 -16 7 15.99 1.22
1 -16 7 13.6 1.35
1 -16 7 15.98 1.46
1 -16 8 4.68 0.89
1 -16 8 4.11 0.63
1 -16 8 3.95 0.68
1 -16 8 4.15 0.72
1 -16 9 18.71 1.45
1 -16 9 18.33 1.57
1 -16 9 19.58 1.38
1 -16 9 18.31 1.16
1 -16 10 0.16 0.36
1 -16 10 0.22 0.26
1 -16 10 0.11 0.33
1 -16 11 5.13 0.52
1 -16 11 5.12 0.7
1 -16 12 29.64 1.47
1 -15 -8 5.06 0.82
1 -15 -8 3.8 0.48
-1 15 8 3.12 1.56
-1 15 7 39.8 6.12
1 -15 -7 33.48 1.83
1 -15 -7 30.83 1.43
1 -15 -7 33.28 1.62
1 -15 -7 39.94 2.51
1 -15 -6 3.63 0.92
1 -15 -6 2.46 0.53
-1 15 6 1.87 1.68
1 -15 -6 1.78 0.59
1 -15 -6 2.88 0.53
1 -15 -5 39.02 2.45
1 -15 -5 38.55 2.04
-1 15 5 43.91 7.16
1 -15 -5 41.41 3.05
1 -15 -5 41.01 2.45
1 -15 -4 -0.14 0.42
1 -15 -4 -1.12 0.64
1 -15 -4 -1.12 0.79
1 -15 -4 -0.05 0.4
1 -15 -3 5.97 1.24
1 -15 -3 5.66 1.17
1 -15 -3 5.77 1.11
1 -15 -3 6.56 0.96
1 -15 -2 1.12 0.71
1 -15 -2 0.16 0.86
1 -15 -2 0.57 0.41
1 -15 -2 1.5 0.77
1 -15 -2 0.91 0.62
1 -15 -1 12.81 2.01
1 -15 -1 15.11 1.48
1 -15 -1 15.76 1.78
1 -15 -1 15.93 1.86
1 -15 -1 14.19 1.9
1 -15 0 9.43 1.2
1 -15 0 9.72 1.46
1 -15 0 9.06 1.5
1 -15 0 9.57 1.54
1 -15 0 10.08 1.8
1 -15 1 -0.18 0.64
1 -15 1 -0.61 0.69
1 -15 1 0.91 0.67
1 -15 1 0.56 0.72
1 -15 1 -0.3 0.46
1 -15 2 0.36 0.59
1 -15 2 -0.29 0.55
1 -15 2 -0.01 0.38
1 -15 3 12.08 1.33
1 -15 3 14.22 1.69
1 -15 3 13.97 1.81
-1 15 -4 -0.22 0.17
1 -15 4 -0.55 0.68
1 -15 4 0.05 0.42
1 -15 4 -0.36 0.7
1 -15 5 91.15 4.55
1 -15 5 98.74 3.71
1 -15 5 99.27 3.9
1 -15 5 100.94 4.46
1 -15 6 61.82 3.03
1 -15 6 63.41 3.37
1 -15 6 63.67 3.56
1 -15 6 61.91 3.58
1 -15 6 63.86 3
1 -15 7 0.93 0.48
1 -15 7 -0.08 0.56
1 -15 7 0.79 0.54
1 -15 7 1.04 0.69
1 -15 7 -0.61 0.46
1 -15 8 2.34 0.74
1 -15 8 1.82 0.58
1 -15 8 1.89 0.66
1 -15 8 2.08 0.63
1 -15 9 0.48 0.45
1 -15 9 0.03 0.42
1 -15 9 0.24 0.32
1 -15 9 0.75 0.59
1 -15 10 0.77 0.53
1 -15 10 0.92 0.56
1 -15 10 0.94 0.44
1 -15 10 1.11 0.39
1 -15 10 0.79 0.38
1 -15 11 13.12 1.11
1 -15 11 15.5 1.11
1 -15 11 16.01 1.45
1 -15 11 16.57 1.43
1 -15 12 -0.1 0.4
1 -15 12 0.02 0.21
1 -15 12 0.05 0.3
1 -15 13 16.12 1.16
1 -15 13 12.78 0.87
1 -15 14 2.95 0.4
1 -14 -10 -0.1 0.3
-1 14 10 1.05 1.3
1 -14 -9 9.83 1.2
1 -14 -9 7.61 0.86
1 -14 -9 9.24 3.28
-1 14 9 8.36 3.26
1 -14 -9 6.14 0.69
1 -14 -9 5.9 0.59
1 -14 -8 33.11 1.68
1 -14 -8 32.28 1.95
1 -14 -8 33.21 2.08
1 -14 -8 34.39 6.92
1 -14 -8 42.34 2.8
1 -14 -7 69.08 10.47
-1 14 7 71.54 10.62
1 -14 -7 63.63 3.13
1 -14 -7 73.68 2.81
1 -14 -7 75.83 4.1
1 -14 -7 64.53 2.76
1 -14 -7 64.25 3.19
1 -14 -6 0.11 0.44
1 -14 -6 0.79 0.47
1 -14 -6 1.41 0.83
1 -14 -6 1.11 2.7
1 -14 -6 0.46 0.46
-1 14 6 0.7 1.74
1 -14 -6 1.28 0.54
1 -14 -5 1.48 0.59
-1 14 5 -1.71 2.41
1 -14 -5 3.81 2.7
1 -14 -5 2.45 0.73
1 -14 -5 1.44 0.77
1 -14 -5 1.52 1.05
1 -14 -5 1.55 0.66
1 -14 -4 9.37 1.38
-1 14 4 11.15 4.83
1 -14 -4 9.11 1.62
1 -14 -4 8.57 1.91
1 -14 -4 4.98 4.3
1 -14 -4 8.21 1.36
1 -14 -4 8.13 1.26
1 -14 -3 4.06 1.52
1 -14 -3 3.99 2.19
-1 14 3 1.63 1.92
1 -14 -3 5.52 1.13
1 -14 -3 3.57 1.11
1 -14 -3 3.57 0.82
1 -14 -3 4.63 1.09
1 -14 -2 19.69 2.07
1 -14 -2 18.14 2.6
1 -14 -2 14.69 5.93
1 -14 -2 17 1.69
1 -14 -2 16.98 1.93
1 -14 -1 2.48 1.02
1 -14 -1 3.12 1.43
-1 14 1 2.81 0.31
1 -14 -1 3.06 0.9
1 -14 -1 2.55 0.7
1 -14 -1 2.68 0.88
1 -14 0 3.5 1.39
1 -14 0 3.77 1
1 -14 0 3.42 0.98
1 -14 0 3.92 1.09
1 -14 0 3.81 0.83
-1 14 0 3.67 0.36
1 -14 1 224.4 7.44
-1 14 -1 211.94 4.25
1 -14 1 233.92 7.94
1 -14 1 209.51 7.73
1 -14 1 218.13 7.67
1 -14 1 214.33 6.64
1 -14 2 4.89 1.6
1 -14 2 3.76 0.81
-1 14 -2 3.53 0.35
1 -14 2 3.35 0.93
1 -14 2 5.35 1.21
1 -14 3 28.43 2.11
1 -14 3 29.12 2.39
-1 14 -3 29.91 1.05
1 -14 3 30.79 2.67
1 -14 3 28.83 2.44
1 -14 4 26.16 2.27
1 -14 4 27.93 1.83
1 -14 4 23.89 1.93
-1 14 -4 26.83 0.98
1 -14 4 28.04 2.48
1 -14 5 33.27 2.22
-1 14 -5 33.41 1.01
-1 14 -5 32.19 1.07
1 -14 5 32.55 2.67
1 -14 5 31.33 2.47
1 -14 5 31.75 2.11
1 -14 6 149.85 5.14
1 -14 6 150.12 5.25
1 -14 6 136.36 4.44
1 -14 6 147.28 5.52
1 -14 6 141.94 5.76
1 -14 7 3.65 0.67
1 -14 7 3.21 0.81
1 -14 7 3.16 0.71
1 -14 7 2.8 0.72
1 -14 7 3.66 0.92
1 -14 7 4.09 1.11
1 -14 8 40.05 2.63
1 -14 8 39.71 2.77
1 -14 8 40.33 2.4
1 -14 8 38.28 2.5
1 -14 9 3.55 0.91
1 -14 9 3.33 0.83
1 -14 9 4 0.78
1 -14 9 3.66 0.86
1 -14 9 3.95 0.78
1 -14 10 2.55 0.62
1 -14 10 2.93 0.72
1 -14 10 2.74 0.65
1 -14 10 2.37 0.75
1 -14 10 2.75 0.78
1 -14 11 0.59 0.44
1 -14 11 0.8 0.62
1 -14 11 0.03 0.42
1 -14 11 0.02 0.35
1 -14 11 -0.23 0.43
1 -14 12 2.52 0.47
1 -14 12 3.48 0.73
1 -14 12 2.79 0.67
1 -14 13 5.23 0.75
1 -14 13 6.53 0.88
1 -14 14 9.12 0.85
1 -14 14 8.5 0.83
1 -14 15 0.42 0.21
1 -13 -11 3.14 0.55
1 -13 -11 3.42 1.64
1 -13 -11 3.35 0.58
-1 13 11 5.01 2.37
1 -13 -10 35.17 2.1
1 -13 -10 28.11 1.54
1 -13 -10 37.87 2.36
1 -13 -10 27.44 1.41
-1 13 10 40.89 7.42
1 -13 -10 35.03 6.36
-1 13 9 -0.47 2.22
1 -13 -9 0.94 0.38
1 -13 -9 1.51 0.73
1 -13 -9 0.44 0.47
1 -13 -9 2.47 2.13
1 -13 -8 26.78 6.73
-1 13 8 19.35 6.08
1 -13 -8 20.34 2.2
1 -13 -8 19.48 1.92
1 -13 -8 17.37 1.48
-1 13 7 2.23 2.07
1 -13 -7 -0.6 0.53
1 -13 -7 -0.2 0.34
1 -13 -7 0.6 0.52
1 -13 -7 0.66 0.74
1 -13 -7 -0.69 3.16
1 -13 -6 3.84 0.91
1 -13 -6 5.33 1.09
1 -13 -6 7.54 1.54
1 -13 -6 5.49 0.95
1 -13 -6 4.21 3.27
-1 13 6 4.91 2.57
1 -13 -5 0.95 2.43
1 -13 -5 1.95 1.28
1 -13 -5 0.05 0.47
1 -13 -5 1.34 0.74
1 -13 -5 1.13 0.58
1 -13 -5 0.43 0.71
1 -13 -4 10.37 2.06
1 -13 -4 10.89 1.51
1 -13 -4 9.6 4.76
1 -13 -4 8.86 1.28
1 -13 -4 9.51 1.79
1 -13 -4 9.35 1.29
-1 13 4 2.71 3.69
-1 13 3 -1.16 2.31
1 -13 -3 5.48 1.73
1 -13 -3 4.32 0.9
1 -13 -3 4.15 1.05
-1 13 3 3.68 0.32
1 -13 -3 5.87 1.42
1 -13 -3 -0.13 2.85
1 -13 -2 25.04 2.09
1 -13 -2 26.98 3.16
1 -13 -2 20.95 6.6
1 -13 -2 27.67 2.41
1 -13 -2 29.9 2.82
-1 13 2 24.01 0.88
1 -13 -1 5.43 3.03
1 -13 -1 7.38 1.16
1 -13 -1 7.49 1.34
-1 13 1 7.94 0.5
1 -13 -1 8.82 1.96
1 -13 -1 9.99 1.54
1 -13 -1 9.14 1.58
-1 13 0 67.69 1.78
1 -13 0 70.13 4.15
1 -13 0 76.38 4
1 -13 0 67.59 4.8
1 -13 0 67.64 3.37
1 -13 0 71.93 3.94
1 -13 1 56.92 3.52
1 -13 1 50.2 3.82
1 -13 1 54.25 2.93
1 -13 1 55.65 3.53
-1 13 -1 52.8 1.53
1 -13 1 56.15 3.32
1 -13 2 150.43 6.06
-1 13 -2 151.75 3.26
1 -13 2 155.07 5.87
1 -13 2 151.51 5.22
1 -13 2 149.02 4.77
1 -13 3 231.34 6.69
1 -13 3 221.61 7.63
1 -13 3 230.22 7.33
-1 13 -3 224 4.49
1 -13 4 593.76 12.55
1 -13 4 566.44 12.86
-1 13 -4 577.31 10.27
1 -13 4 598.73 13.83
1 -13 4 575.2 14.17
1 -13 5 71.72 2.98
1 -13 5 76.21 3.45
-1 13 -5 75.91 1.92
1 -13 5 76.64 4.04
1 -13 5 73.21 3.36
1 -13 5 76.08 3.8
1 -13 5 68.14 3.85
1 -13 6 8.07 1.21
-1 13 -6 10.28 0.49
1 -13 6 8.74 1.15
1 -13 6 5.56 2.09
1 -13 6 9.69 1.38
-1 13 -6 8.84 0.53
1 -13 6 8.48 0.99
1 -13 6 7.83 1.16
1 -13 7 15.27 1.62
1 -13 7 14.84 1.49
1 -13 7 14.39 1.61
1 -13 7 14.5 1.61
1 -13 7 12.84 1.28
1 -13 8 8.88 1.38
1 -13 8 8 1.17
1 -13 8 8.9 1.14
1 -13 8 9.81 1.33
1 -13 8 9.71 1.24
1 -13 9 5.17 1.08
1 -13 9 3.97 0.83
1 -13 9 3.83 0.97
1 -13 9 4.11 0.79
1 -13 9 4.63 0.87
1 -13 10 3.82 0.84
1 -13 10 3.97 0.76
1 -13 10 3.92 0.87
1 -13 10 3.38 0.9
1 -13 11 0.74 0.46
1 -13 11 -0.22 0.47
1 -13 11 0.15 0.52
1 -13 11 -0.06 0.43
1 -13 12 4.29 0.9
1 -13 12 4.44 0.71
1 -13 13 -0.13 0.25
1 -13 13 -0.17 0.4
1 -13 14 0.34 0.34
1 -13 14 1 0.4
1 -13 15 4.73 0.54
1 -13 15 4.72 0.55
1 -13 15 4.19 0.67
1 -12 -12 0.05 0.3
1 -12 -12 0.25 0.32
-1 12 12 0.45 1.27
1 -12 -12 0.82 1.54
-1 12 11 3.45 2.36
1 -12 -11 0.69 0.34
1 -12 -11 1.59 0.61
1 -12 -11 0.59 1.29
1 -12 -11 2.02 0.67
1 -12 -10 2.76 0.9
-1 12 10 1.27 1.61
1 -12 -10 2.48 2.39
1 -12 -10 3.5 0.94
-1 12 9 5.09 4.1
1 -12 -9 7.87 4.01
1 -12 -9 8.99 1.42
1 -12 -9 8.52 1.52
1 -12 -8 2.52 2.9
-1 12 8 -0.99 3.15
1 -12 -8 0.41 0.79
1 -12 -8 0.66 0.72
-1 12 7 0.63 3.38
1 -12 -7 5.39 1.37
1 -12 -7 4.82 1.13
1 -12 -7 5.6 0.92
1 -12 -7 5.67 3.77
1 -12 -6 34.06 3.14
1 -12 -6 28.96 2.62
1 -12 -6 32.42 2.34
1 -12 -6 25.12 7.88
1 -12 -6 31.29 3.47
-1 12 6 27.23 8.52
-1 12 5 126.34 17.25
1 -12 -5 121.12 6.83
1 -12 -5 118.31 5.32
1 -12 -5 113.07 15.81
1 -12 -5 130.81 6.38
1 -12 -5 127.58 5
1 -12 -4 47.62 4.14
1 -12 -4 49.13 3.79
-1 12 4 59.91 11.19
1 -12 -4 44.28 2.95
1 -12 -4 40.27 9.22
1 -12 -4 49 3.07
1 -12 -3 10.92 1.39
1 -12 -3 12.49 1.59
-1 12 3 12.18 0.57
1 -12 -3 14.32 1.96
1 -12 -3 11.88 1.47
1 -12 -3 11.73 2.14
-1 12 3 12.47 5.16
1 -12 -3 10.69 4.95
1 -12 -2 70.99 4.31
-1 12 2 63.79 1.64
1 -12 -2 63.95 4.51
1 -12 -2 70.59 3.72
1 -12 -2 67.82 5.43
1 -12 -2 65.6 3.31
1 -12 -2 63.94 11.2
1 -12 -1 202.71 9.69
1 -12 -1 212.97 6.95
1 -12 -1 206.62 19.74
1 -12 -1 216.72 7.6
1 -12 -1 204.01 6.32
1 -12 -1 199.43 7.93
-1 12 1 195.44 3.98
-1 12 0 89.83 2.18
1 -12 0 90.14 5.02
1 -12 0 100.09 4.47
1 -12 0 97.33 6.47
1 -12 0 91.59 3.91
1 -12 0 87.13 12.28
1 -12 0 99.62 4.84
1 -12 0 96.24 4.27
-1 12 -1 201.65 4.12
1 -12 1 205.85 7.45
1 -12 1 212.18 6.73
1 -12 1 211.48 7.15
1 -12 1 217.21 9.73
1 -12 1 202.86 6.24
1 -12 1 215.44 6.97
1 -12 2 1.33 1.04
1 -12 2 2.24 0.66
1 -12 2 1.41 0.62
1 -12 2 1.74 0.73
-1 12 -2 1.71 0.29
1 -12 2 2.16 1.23
1 -12 3 71.51 3.51
1 -12 3 75.93 2.96
1 -12 3 73.82 3.71
-1 12 -3 74.34 1.91
1 -12 3 66.42 4.92
1 -12 3 71.19 3.31
1 -12 3 70.82 3.26
-1 12 -4 70.32 1.84
1 -12 4 65.55 3.26
1 -12 4 71.81 3.25
1 -12 4 69.46 3.45
1 -12 4 66.46 3.51
1 -12 4 68.42 3.04
1 -12 4 70.49 2.74
1 -12 4 60.92 4.57
1 -12 5 6.4 1.86
-1 12 -5 8.1 0.54
1 -12 5 8.3 1.12
1 -12 5 7.18 1.07
1 -12 5 9.74 1.25
1 -12 5 8.79 1.03
1 -12 5 8.93 1.32
1 -12 5 8.18 1.54
1 -12 6 6.33 1
1 -12 6 6.84 1.14
1 -12 6 7.52 2.29
-1 12 -6 5.99 0.45
1 -12 6 5.83 1.02
1 -12 6 4.96 1.19
-1 12 -6 6.9 0.41
1 -12 6 5.48 0.92
1 -12 6 5.43 0.83
1 -12 7 232.31 6.81
1 -12 7 242.65 7.45
1 -12 7 223.66 7.23
1 -12 7 229.76 9.35
1 -12 7 242.71 6.96
1 -12 7 260.74 7.52
1 -12 7 251.06 7.36
-1 12 -7 260.84 4.84
1 -12 8 74.65 3.44
1 -12 8 69.03 3.37
1 -12 8 70.09 3.45
1 -12 8 77.71 3.77
1 -12 8 76.45 3.93
1 -12 9 15.34 1.72
1 -12 9 15.9 1.59
-1 12 -9 15 0.7
1 -12 9 15.7 1.55
1 -12 9 15.96 1.61
1 -12 9 15.34 1.67
-1 12 -10 4.8 0.38
1 -12 10 5.85 1.07
1 -12 10 5.01 1.07
1 -12 10 6.69 1.02
1 -12 10 5.98 0.95
1 -12 11 52.27 2.87
1 -12 11 56.05 3.27
1 -12 11 54.59 2.76
1 -12 11 56.77 3.22
1 -12 12 33.43 1.98
1 -12 12 34.95 2.42
1 -12 12 33.94 1.97
1 -12 13 21.4 1.79
1 -12 13 21.03 1.36
1 -12 13 19.59 1.42
1 -12 14 0.21 0.36
1 -12 14 -0.22 0.44
1 -12 15 10.24 0.91
1 -12 15 11.89 1.16
1 -12 16 26.79 1.33
1 -12 16 26.72 1.45
-1 11 13 12.82 3.28
1 -11 -13 9.93 2.82
1 -11 -13 6.55 0.57
1 -11 -13 15.2 1.18
1 -11 -12 0.01 0.46
1 -11 -12 0.26 0.46
-1 11 12 -0.28 0.35
1 -11 -12 0.62 1.2
1 -11 -11 6.9 3.57
-1 11 11 6.6 0.98
1 -11 -11 5.34 1.14
1 -11 -11 6.82 1.23
-1 11 11 2.26 1.67
-1 11 10 9.76 5.1
1 -11 -10 7.43 4.37
-1 11 10 6.08 0.98
1 -11 -10 5.13 1.14
1 -11 -10 7.82 1.4
1 -11 -9 24.2 2.62
-1 11 9 23.08 1.94
1 -11 -9 22.26 2.39
1 -11 -9 21.21 6.64
-1 11 9 24.06 7.9
1 -11 -8 75.25 4.45
1 -11 -8 84.87 13.98
-1 11 8 84.75 14.64
1 -11 -7 5.14 1.2
-1 11 7 8.16 4.18
1 -11 -7 5.14 0.91
1 -11 -7 5.57 1.58
1 -11 -7 5.69 3.77
1 -11 -6 1.6 0.67
-1 11 6 2.45 2.27
1 -11 -6 -1.59 4.82
1 -11 -6 1.66 0.88
1 -11 -6 3.11 1.39
-1 11 5 190.32 20.31
1 -11 -5 189.23 8.38
1 -11 -5 193.61 9.46
1 -11 -5 172.58 6.59
1 -11 -5 201.13 20.71
1 -11 -5 194.19 6.19
1 -11 -4 3.07 0.81
1 -11 -4 3.44 1.16
1 -11 -4 6.44 3.21
1 -11 -4 3.31 0.74
-1 11 4 6.67 3.7
-1 11 4 3.3 0.28
1 -11 -4 2.53 1.22
1 -11 -3 32.09 2.32
1 -11 -3 37.03 3.95
-1 11 3 32.95 1.01
1 -11 -3 31.12 7.55
1 -11 -3 36.39 2.41
-1 11 3 29.26 7.04
1 -11 -3 34.49 3.12
1 -11 -2 285.32 11.52
1 -11 -2 285.85 7.88
-1 11 2 262.66 5.07
1 -11 -2 294.88 8.94
1 -11 -2 299.82 22.5
1 -11 -2 287.35 9.36
-1 11 1 89.14 2.1
1 -11 -1 86.44 3.62
1 -11 -1 96.64 5.03
1 -11 -1 98.14 4.06
1 -11 -1 94.66 6.28
1 -11 -1 97.5 4.64
1 -11 -1 100.44 12.78
-1 11 0 1.68 0.26
1 -11 0 2.21 1.04
1 -11 0 2.6 0.76
1 -11 1 22.21 2.88
-1 11 -1 21.33 0.84
-1 11 -2 16.06 0.72
1 -11 2 15.59 2.34
-1 11 -3 75.94 1.89
1 -11 3 72.28 4.97
-1 11 -4 83.45 2.03
1 -11 4 80.15 4.5
1 -11 4 80.36 4.94
1 -11 5 256.59 6.8
1 -11 5 246.31 7.22
1 -11 5 272.27 6.99
1 -11 5 258.26 7.18
-1 11 -5 254.53 4.92
1 -11 5 255.33 9.18
1 -11 5 252.21 9.22
1 -11 6 61.38 3.14
-1 11 -6 61.29 1.47
1 -11 6 53.75 3.1
1 -11 6 60.63 2.9
1 -11 6 54.71 2.6
1 -11 6 57.04 2.81
1 -11 6 56.08 4.16
1 -11 6 58.62 2.94
-1 11 -6 57.87 1.57
1 -11 7 1.58 0.52
1 -11 7 2.46 1.04
1 -11 7 1.52 0.55
1 -11 7 1.58 0.66
-1 11 -7 1.52 0.25
-1 11 -7 1.71 0.21
1 -11 7 1.69 0.42
1 -11 8 186.01 6.31
1 -11 8 179.38 5.73
1 -11 8 170.54 5.63
1 -11 8 180.72 8.34
1 -11 8 194.56 6.2
1 -11 8 184.33 5.69
1 -11 9 135.92 5.06
1 -11 9 137.89 4.96
1 -11 9 145.97 5
-1 11 -9 145.07 3.14
1 -11 9 151.73 5.48
1 -11 9 148.73 5.57
1 -11 10 128.47 4.63
1 -11 10 124.93 4.73
1 -11 10 134.78 5.27
1 -11 10 136.23 4.56
-1 11 -10 125.91 2.79
1 -11 10 135.99 5.2
1 -11 11 150.25 5.33
1 -11 11 153.31 5.04
-1 11 -11 151.17 3.18
1 -11 11 156.47 5.7
1 -11 11 164.2 5.25
1 -11 11 151.79 5.76
1 -11 12 128.78 4.61
1 -11 12 123.01 4.93
1 -11 12 130.11 4.37
1 -11 13 2.93 0.55
1 -11 13 3.59 0.82
1 -11 13 4.34 0.8
1 -11 14 6.45 0.93
1 -11 14 7.85 1.01
1 -11 15 16.72 1.24
1 -11 15 15.75 1.28
1 -11 16 2.86 0.58
1 -11 16 2.71 0.47
1 -11 17 2.02 0.38
1 -11 17 1.92 0.33
1 -10 -14 7.17 0.78
-1 10 14 6.96 2.36
1 -10 -14 8.61 2.62
-1 10 13 0.4 0.4
1 -10 -13 0.82 0.39
1 -10 -13 0.9 0.6
1 -10 -13 -1.02 1.71
-1 10 12 9.86 1.25
1 -10 -12 11.96 1.45
-1 10 12 8.34 3.87
1 -10 -12 11.35 4.33
1 -10 -12 11.32 1.51
1 -10 -11 3.73 1.11
-1 10 11 7.59 4.29
1 -10 -11 5.34 1.18
1 -10 -11 -0.37 1.99
-1 10 11 4.7 1.04
1 -10 -10 13.57 1.86
-1 10 10 13.52 5.96
-1 10 10 10.92 1.53
1 -10 -10 9.29 4.77
1 -10 -9 0.07 0.7
1 -10 -9 1.27 1.93
-1 10 9 0.88 0.62
-1 10 8 26.97 2.28
1 -10 -8 32.17 8.34
1 -10 -8 27.3 3.14
-1 10 8 32.45 9.24
1 -10 -8 28.34 2.7
-1 10 7 8.97 5.14
1 -10 -7 8.86 5.18
1 -10 -7 8.19 1.59
-1 10 7 11.22 1.56
1 -10 -7 11.11 2.09
1 -10 -6 7.32 1.09
-1 10 6 8.3 5.01
1 -10 -6 9.35 1.87
1 -10 -6 7.54 4.73
1 -10 -6 8.08 1.88
1 -10 -6 7.86 1.39
1 -10 -5 134.39 5.37
1 -10 -5 129.43 15.73
1 -10 -5 137.37 4.84
1 -10 -5 139.51 7.59
1 -10 -5 144.49 6.76
-1 10 5 136.78 16.49
-1 10 4 90.12 12.6
1 -10 -4 77.24 3.77
1 -10 -4 76.75 11.3
1 -10 -4 87.84 4.91
-1 10 4 78.7 1.78
1 -10 -4 84.52 3.61
1 -10 -4 88.84 6
-1 10 3 12.05 0.56
1 -10 -3 13.01 2.34
1 -10 -2 20.76 2.89
-1 10 2 20.57 0.77
-1 10 1 8.56 0.48
1 -10 -1 7.52 1.72
1 -10 0 58.65 4.55
-1 10 0 57.45 1.48
-1 10 -1 3.9 0.34
1 -10 1 4.73 1.28
-1 10 -2 124.9 2.67
1 -10 2 130.22 6.54
1 -10 2 132.55 5.13
1 -10 3 26.8 2.4
-1 10 -3 24.72 0.87
1 -10 3 22.68 2.55
1 -10 4 7.96 1.52
1 -10 4 6.75 1.31
-1 10 -4 6.62 0.44
-1 10 -5 5.27 0.4
1 -10 5 5.63 1.21
1 -10 5 5.23 1.24
-1 10 -6 0.62 0.16
1 -10 6 0.38 0.72
-1 10 -6 0.38 0.17
-1 10 -7 5.42 0.39
1 -10 7 4.09 1.58
1 -10 7 6.29 0.94
-1 10 -7 5.63 0.33
1 -10 7 5.73 0.77
1 -10 7 5.99 1.38
1 -10 8 14.85 2.32
1 -10 8 17.48 1.66
1 -10 8 15.99 1.45
1 -10 8 16.58 1.46
1 -10 8 19.13 1.64
1 -10 8 17.5 1.48
1 -10 9 0.75 0.58
1 -10 9 0.34 0.41
1 -10 9 0.59 0.45
-1 10 -9 0.59 0.19
1 -10 9 1.26 0.55
1 -10 9 0.5 0.41
1 -10 9 1.61 0.69
1 -10 10 21.93 1.7
1 -10 10 24.12 1.86
-1 10 -10 23.79 0.91
1 -10 10 22.37 1.92
1 -10 10 24.15 2.01
1 -10 10 26.66 1.9
1 -10 10 22.52 2
-1 10 -11 70.62 1.83
1 -10 11 73.5 3.65
1 -10 11 72.43 3.71
1 -10 11 71.85 3.2
1 -10 11 74.31 3.51
1 -10 11 72.67 3.43
-1 10 -12 53.88 1.48
1 -10 12 55.56 3.02
1 -10 12 58.52 2.73
1 -10 12 57.57 3.18
1 -10 13 0.86 0.57
1 -10 13 0.25 0.44
1 -10 13 0.37 0.4
1 -10 14 86.44 3.55
1 -10 14 85.62 3.8
1 -10 15 3.26 0.56
1 -10 15 3.42 0.74
1 -10 16 8.97 1
1 -10 17 0.9 0.42
1 -10 17 -0.01 0.25
1 -10 17 0.69 0.33
1 -9 -15 2.41 1.43
1 -9 -14 -0.92 1.29
1 -9 -14 1.17 0.53
-1 9 14 0.29 1.78
-1 9 14 1.14 0.46
1 -9 -13 2.94 2.54
1 -9 -13 1.71 0.63
1 -9 -13 2.45 0.8
-1 9 13 2.03 0.69
-1 9 13 0.49 2.19
1 -9 -12 -0.48 2.49
-1 9 12 0.35 0.61
-1 9 12 0.65 2.39
1 -9 -12 0.33 0.49
1 -9 -12 1.29 0.73
1 -9 -11 3.86 4.34
-1 9 11 7.92 1.34
1 -9 -11 7.91 1.43
-1 9 11 5.8 4.67
1 -9 -10 12.18 6.1
-1 9 10 13.28 1.77
1 -9 -10 13.96 1.91
-1 9 10 8.89 4.79
-1 9 9 13.18 1.74
-1 9 9 14.21 6.56
1 -9 -9 12.61 1.83
-1 9 9 12.71 1.6
1 -9 -9 14.53 6.04
1 -9 -8 13.02 2.23
1 -9 -8 12.77 5.94
-1 9 8 8.71 4.82
-1 9 8 12.48 1.54
-1 9 8 12.42 1.62
1 -9 -8 11.19 1.69
1 -9 -7 77.71 5.32
1 -9 -7 79.48 4.23
1 -9 -7 81.13 12.88
-1 9 7 72.79 3.83
1 -9 -7 80.56 5
-1 9 7 80.77 13.51
-1 9 7 85.05 3.73
1 -9 -6 45.61 3.54
1 -9 -6 39.73 2.77
1 -9 -6 42.77 8.78
1 -9 -6 44.92 4.04
1 -9 -5 40.94 3.89
-1 9 5 37.37 0.97
1 -9 -5 39.66 3.3
1 -9 -4 20.33 2.25
1 -9 -4 21.03 2.8
1 -9 -3 392.96 11.52
1 -9 -3 439.68 13.89
1 -9 -2 1.28 0.81
1 -9 -1 42.38 3.63
-1 9 1 6.62 0.61
-1 9 0 19.69 0.98
1 -9 0 75.24 4.75
-1 9 -1 54.22 1.21
1 -9 1 54.82 2.79
1 -9 1 52.81 3.87
1 -9 2 33.62 2.42
1 -9 2 34.13 3.05
-1 9 -2 31.37 0.88
1 -9 3 7.17 1.37
1 -9 3 8.23 1.33
-1 9 -3 8.33 0.45
1 -9 4 258.19 8.64
1 -9 4 256.01 8.68
-1 9 -4 249.33 4.68
-1 9 -5 41.21 1.16
1 -9 5 43.37 3.06
1 -9 5 41.07 3.3
1 -9 6 0.47 0.58
-1 9 -6 0.24 0.17
-1 9 -6 0.14 0.12
-1 9 -7 18.89 0.63
-1 9 -7 18.87 0.71
1 -9 7 18.61 2.43
1 -9 8 81.24 5.31
1 -9 9 329.24 8.18
1 -9 9 307.06 8.15
1 -9 9 286.57 7.84
1 -9 9 300.63 7.65
-1 9 -9 311.87 5.82
1 -9 9 308.49 7.97
1 -9 9 298.31 11.27
-1 9 -10 0.96 0.65
1 -9 10 0.09 0.34
1 -9 10 0.41 0.42
1 -9 10 0.02 0.55
1 -9 10 0.77 0.51
1 -9 10 -1.14 0.68
-1 9 -10 -0.23 0.16
1 -9 10 -0.19 0.47
1 -9 10 0.63 0.69
-1 9 -11 8.9 0.55
1 -9 11 6.75 1.1
1 -9 11 9.46 1.26
1 -9 11 8.73 1.21
1 -9 11 8.72 1.16
1 -9 11 10.6 1.18
1 -9 12 138.35 4.51
-1 9 -12 134.27 2.94
1 -9 12 139.33 5.03
1 -9 12 137.56 5.21
1 -9 13 72.99 3.75
1 -9 13 70.11 3.35
1 -9 14 18.72 1.84
1 -9 14 20.17 1.61
1 -9 15 4.79 0.91
1 -9 16 2.91 0.78
1 -9 17 30.65 1.58
1 -9 17 29.66 1.75
1 -9 18 3.75 0.45
-1 8 15 14.29 2.79
1 -8 -15 18.23 4.16
1 -8 -15 18.48 1.29
-1 8 15 15.31 1.3
-1 8 14 2.03 2.3
-1 8 14 1.31 0.59
1 -8 -14 1.25 0.59
1 -8 -14 2.9 2.49
1 -8 -13 -0.5 0.55
1 -8 -13 0.5 0.45
-1 8 13 1.9 1.68
-1 8 13 -0.19 0.57
1 -8 -13 -2.25 2.56
-1 8 12 10.95 1.64
1 -8 -12 6.1 1.31
-1 8 12 5.63 4.11
1 -8 -12 7.68 4.27
1 -8 -11 19.7 6.73
1 -8 -11 19.89 2.27
-1 8 11 18.28 6.86
-1 8 11 21.49 2.27
-1 8 10 8.25 1.4
-1 8 10 8.06 1.51
1 -8 -10 9.18 1.62
-1 8 10 6.92 4.8
1 -8 -10 9.92 4.69
-1 8 9 7.22 3.6
-1 8 9 9.41 1.51
1 -8 -9 7.81 4.53
1 -8 -9 9.85 1.58
-1 8 9 9.9 1.49
1 -8 -8 128.76 6.7
1 -8 -8 125.22 15.85
1 -8 -8 148.3 6.7
1 -8 -8 146.84 5.94
-1 8 8 137.3 5.5
-1 8 8 148.06 5.45
1 -8 -7 10.05 1.83
-1 8 7 9.27 1.16
1 -8 -7 12.3 5.32
1 -8 -7 12.31 2.12
-1 8 7 10.72 1.4
1 -8 -7 9.82 1.68
1 -8 -7 10.16 1.41
1 -8 -6 4.43 1.24
1 -8 -6 3.37 1.18
1 -8 -5 4.38 1.23
1 -8 -5 3.55 1.1
1 -8 -4 78.5 4.58
1 -8 -4 87.26 5.3
1 -8 -3 1.7 0.78
1 -8 -3 1.01 0.79
1 -8 -2 56.62 3.92
1 -8 -2 50.78 3.28
1 -8 -1 5.98 1.32
-1 8 1 2.08 0.38
1 -8 0 25.89 1.69
1 -8 0 22.88 2.41
1 -8 1 106.49 3.95
1 -8 1 106.4 5.1
-1 8 -2 33.47 0.88
1 -8 2 32.46 2.74
1 -8 2 35.28 2.42
-1 8 -3 58.11 1.22
1 -8 3 60.46 3.4
1 -8 3 58.94 3.6
1 -8 4 204.34 6.58
1 -8 4 192.38 6.24
-1 8 -4 197.6 2.15
1 -8 5 37.45 3.06
1 -8 5 38.79 2.68
-1 8 -5 37.32 1.03
1 -8 6 1.78 0.82
1 -8 6 0.94 0.47
-1 8 -6 1.16 0.18
-1 8 -6 1.34 0.21
-1 8 -7 264.99 4.75
-1 8 -7 252.23 4.6
1 -8 7 251.36 9.38
-1 8 -8 74.85 1.59
1 -8 8 76.6 4.98
-1 8 -9 12.35 0.61
1 -8 9 9.83 1.88
1 -8 10 94.63 3.88
1 -8 10 98.11 3.52
1 -8 10 100.35 5.95
1 -8 10 96.56 3.83
1 -8 10 105.24 4.03
1 -8 10 99.13 3.77
-1 8 -10 94.78 5.45
1 -8 10 91.29 3.78
-1 8 -10 94.97 2.25
-1 8 -11 64.33 1.73
1 -8 11 61.36 3.16
1 -8 11 61.46 4.58
1 -8 11 67.81 3.33
1 -8 11 71.83 3.18
1 -8 11 64.85 2.86
1 -8 11 66.47 3.22
-1 8 -11 65.69 4.65
1 -8 12 175.94 5.28
1 -8 12 178.1 5.58
-1 8 -12 174.82 3.64
1 -8 12 177.53 6.11
1 -8 13 152.23 4.95
1 -8 13 152.47 5.81
1 -8 14 2.1 0.54
1 -8 14 2.17 0.78
-1 8 -15 17.71 5.3
1 -8 15 23.34 2.12
1 -8 16 6.39 1.12
1 -8 17 9.88 0.91
1 -8 17 8.21 1.02
1 -8 18 13.07 1.03
1 -8 18 14.09 0.97
1 -7 -16 15.19 3
-1 7 16 14.58 1.14
-1 7 15 0.09 0.46
-1 7 15 1.57 1.78
1 -7 -15 1.48 0.5
1 -7 -15 -0.49 2.11
-1 7 14 0.77 0.67
1 -7 -14 0.26 0.57
-1 7 14 1.8 1.91
-1 7 14 -0.09 0.6
1 -7 -14 3.62 2.14
-1 7 13 13.87 1.81
1 -7 -13 14.78 1.82
-1 7 13 12.77 1.65
-1 7 13 11.02 1.18
-1 7 13 14.17 5.62
1 -7 -13 12.81 5.69
-1 7 12 -0.39 0.39
-1 7 12 -0.31 0.63
1 -7 -12 -0.59 3.39
-1 7 12 0.52 0.69
-1 7 12 3.66 3.7
1 -7 -12 0.23 0.58
1 -7 -11 28.2 2.66
1 -7 -11 26.96 7.84
-1 7 11 28.13 2.58
-1 7 11 27.26 8.15
-1 7 11 28.55 2.64
-1 7 11 28.57 1.95
-1 7 11 28.94 2.7
-1 7 10 10.5 1.68
-1 7 10 9.88 5.22
-1 7 10 8.87 1.46
1 -7 -10 6.07 3.67
-1 7 10 11.79 1.62
-1 7 10 11.56 1.23
1 -7 -10 12.55 1.74
1 -7 -9 18.43 1.96
1 -7 -9 15.63 2.33
-1 7 9 16.17 1.87
1 -7 -9 19.36 7.1
-1 7 9 18.47 1.89
-1 7 9 17.37 1.93
-1 7 8 28.32 2.27
1 -7 -8 27.81 2.29
1 -7 -8 27.04 2.62
-1 7 8 31.45 2.29
1 -7 -8 27.2 2.98
1 -7 -8 27.96 7.11
1 -7 -7 8.44 1.59
1 -7 -7 9.37 1.69
1 -7 -6 17.38 2.26
1 -7 -6 14.62 2.1
1 -7 -5 4.77 1.23
1 -7 -5 4.89 1.19
1 -7 -4 0.77 0.73
1 -7 -4 2.11 0.96
1 -7 -3 50.17 3.26
1 -7 -3 56.27 3.74
1 -7 -2 533.08 10.83
1 -7 -2 560.59 11.81
1 -7 -1 93.32 2.86
1 -7 -1 91.54 4.19
1 -7 -1 96.81 4.72
-1 7 0 4.47 0.42
1 -7 0 4.25 0.68
1 -7 0 4.18 1.06
1 -7 1 78.26 3.28
1 -7 1 78.68 4.04
1 -7 2 44.09 2.63
-1 7 -2 46.45 1.07
1 -7 2 41.88 2.85
1 -7 3 445.05 10.43
1 -7 3 451.67 10.27
-1 7 -3 437.12 6.15
1 -7 4 169.53 5.35
-1 7 -4 164.96 1.99
1 -7 4 177.71 5.85
1 -7 5 45.58 2.69
-1 7 -5 46.16 1.14
1 -7 5 49.9 3.32
-1 7 -6 78.93 1.62
1 -7 6 84.41 4.61
1 -7 6 79.67 3.36
-1 7 -6 78.55 1.7
1 -7 7 148.76 6.54
-1 7 -7 132.49 2.52
1 -7 8 4.99 1.19
-1 7 -8 4.58 0.35
-1 7 -8 4.61 0.27
1 -7 9 31.1 3.08
-1 7 -9 30.5 0.99
1 -7 10 18.09 1.52
1 -7 10 14.44 1.32
1 -7 10 17.67 2.39
-1 7 -10 16.46 2.34
-1 7 -10 16.62 0.72
-1 7 -11 3.4 1.09
1 -7 11 2.98 0.62
-1 7 -11 2.81 0.32
1 -7 11 4.4 0.8
1 -7 11 4.31 1.32
1 -7 12 -0.82 0.45
1 -7 12 -0.12 0.59
1 -7 12 0.48 0.5
-1 7 -12 0.16 0.62
1 -7 13 5.68 1.14
1 -7 14 11.17 1.53
1 -7 15 28.22 2.4
-1 7 -15 28.53 6.47
-1 7 -16 6.64 3
1 -7 16 6.55 1.15
1 -7 17 7.33 1.05
1 -7 18 14.62 1.21
1 -7 18 16.56 1.07
-1 6 16 2.88 0.74
1 -6 -16 2.78 0.49
1 -6 -16 1.7 1.34
1 -6 -15 3.61 2.28
-1 6 15 2.67 0.88
1 -6 -15 1.1 0.43
-1 6 15 -0.23 0.5
-1 6 14 6.51 1.36
1 -6 -14 7.81 1.38
-1 6 14 7.38 1.03
-1 6 14 4.66 1.13
1 -6 -14 6.92 3.16
-1 6 14 6.07 2.64
-1 6 13 4.82 0.91
-1 6 13 2.11 2.56
-1 6 13 5.61 1.35
1 -6 -13 1.96 3.06
-1 6 13 5.2 1.23
1 -6 -13 5.13 1.17
-1 6 12 45.01 9.93
1 -6 -12 42.67 9.2
1 -6 -12 53.14 3.53
-1 6 12 52.08 3.55
-1 6 12 43.62 3.42
-1 6 12 50.25 3.55
-1 6 12 50.64 2.89
-1 6 11 29.11 2.6
-1 6 11 26.17 1.96
1 -6 -11 26.92 2.53
1 -6 -11 20.27 6.5
-1 6 11 26.46 2.61
-1 6 11 28.62 2.66
-1 6 11 23.42 7.3
-1 6 10 17.47 1.98
-1 6 10 15.21 1.88
1 -6 -10 17.52 1.97
-1 6 10 16.13 1.52
1 -6 -10 12.36 2.1
-1 6 10 15.43 1.81
1 -6 -10 17.01 6.14
1 -6 -9 239.62 7.59
-1 6 9 236.24 7.64
-1 6 9 261.33 7.7
-1 6 9 251.39 7.68
-1 6 9 248.87 6.48
1 -6 -9 256.79 21.38
1 -6 -9 237.22 9.76
1 -6 -8 26.53 2.97
1 -6 -7 37.22 3.38
1 -6 -7 41.46 3.24
1 -6 -6 0.43 0.48
1 -6 -6 -0.04 0.47
1 -6 -5 44.44 3.31
1 -6 -5 37.67 3.1
1 -6 -4 3.56 0.96
1 -6 -4 3.81 0.91
1 -6 -3 21.54 2.09
1 -6 -3 20.77 2.01
1 -6 -2 32.51 2.5
1 -6 -2 30.85 2.33
1 -6 -2 28.49 1.21
1 -6 -1 21.36 1.25
1 -6 -1 22.65 1.93
1 -6 -1 23.26 2.05
-1 6 1 17.99 0.67
1 -6 0 41.26 2.01
1 -6 0 41.85 2.76
-1 6 0 42.19 1.09
1 -6 1 1205.42 23.37
-1 6 -1 1258.71 20.92
1 -6 1 1257.65 24.75
-1 6 -2 3.78 0.28
1 -6 2 4.38 0.85
1 -6 2 4.59 0.86
-1 6 -2 4.08 0.24
1 -6 3 83.52 3.63
-1 6 -3 81.37 1.51
1 -6 3 83.78 3.66
1 -6 4 413.76 7.87
-1 6 -4 396.9 3.36
1 -6 4 407.1 8.49
-1 6 -5 791.82 13.34
-1 6 -5 787.47 13.25
1 -6 5 820.02 16.37
1 -6 6 396.07 8.91
-1 6 -6 383.49 6.6
-1 6 -6 382.15 6.67
-1 6 -7 8.57 0.35
1 -6 7 7.97 1.43
-1 6 -8 6.05 0.38
-1 6 -8 5.92 0.29
1 -6 9 0.59 0.74
-1 6 -9 0.14 0.13
-1 6 -10 136.7 2.9
1 -6 10 138.19 6.76
-1 6 -10 141.93 7.06
-1 6 -11 94.03 5.71
-1 6 -11 83.83 2.06
1 -6 11 86.01 5.2
1 -6 11 88.73 3.78
1 -6 12 152.36 5.59
-1 6 -12 154.95 7.55
1 -6 12 137.88 6.79
1 -6 13 2.84 0.88
1 -6 14 0.46 0.54
-1 6 -15 171.05 17.04
1 -6 15 183.53 6.72
1 -6 16 9.89 1.42
-1 6 -16 11.18 3.85
1 -6 17 1.91 0.65
-1 6 -17 -0.51 2.19
1 -6 18 2.17 0.62
1 -6 18 2.18 0.44
1 -5 -17 10.01 2.29
-1 5 17 11.49 1.08
-1 5 16 6.67 1.03
-1 5 16 8.24 1.26
1 -5 -16 9.02 3.24
-1 5 15 23.59 2.24
-1 5 15 19.54 2.07
1 -5 -15 26.48 6.39
-1 5 15 23.13 1.82
1 -5 -15 22.54 1.79
-1 5 14 15.64 2.03
-1 5 14 17.16 1.69
-1 5 14 17.89 2.11
1 -5 -14 13.7 5.73
1 -5 -14 19.79 1.98
-1 5 14 17.14 5.11
-1 5 13 60.83 3.36
1 -5 -13 51.33 10.66
1 -5 -13 64.42 3.73
-1 5 13 53.56 3.83
-1 5 13 62.81 4
-1 5 13 61.21 10.81
-1 5 12 2.23 2.9
1 -5 -12 2.49 2.47
-1 5 12 1.22 0.67
1 -5 -12 0.53 0.54
-1 5 12 1.61 0.76
-1 5 12 0.19 0.63
-1 5 12 1.58 0.92
-1 5 11 28.2 2.55
-1 5 11 25.38 2.02
-1 5 11 27.14 2.48
1 -5 -11 23.75 3.03
-1 5 11 30.05 2.65
1 -5 -11 29.56 2.47
-1 5 11 30.2 7.73
1 -5 -11 26.87 7.67
-1 5 10 9.64 1.17
-1 5 10 9.9 1.42
1 -5 -10 10.45 1.87
1 -5 -10 12.36 1.54
-1 5 10 9.56 1.39
1 -5 -10 12.46 4.85
-1 5 10 8.95 1.41
1 -5 -9 233.94 9.7
1 -5 -8 23.69 2.82
1 -5 -7 33.52 2.66
1 -5 -7 32.83 3.08
1 -5 -6 0.75 0.67
1 -5 -6 0.27 0.5
1 -5 -5 56.48 3.44
1 -5 -5 59.58 3.7
1 -5 -4 2488.55 46.55
1 -5 -4 2554.57 46.22
1 -5 -3 309.79 7.36
1 -5 -3 314.58 7.3
1 -5 -2 51.96 2.84
1 -5 -2 50.21 2.75
1 -5 -1 15.71 1.58
1 -5 -1 17.37 1.56
-1 5 1 13.74 0.52
1 -5 0 938.29 19.41
1 -5 0 883.82 17.86
1 -5 0 919.18 19.11
1 -5 1 855.81 17.66
1 -5 1 879.28 18.56
1 -5 2 171.14 5.1
-1 5 -2 163.46 3.08
1 -5 2 173.52 5.32
-1 5 -2 176.74 3.05
1 -5 3 8.92 1.07
1 -5 3 7.56 0.99
-1 5 -3 8.23 0.32
1 -5 4 7.14 1.05
-1 5 -4 6.02 0.28
1 -5 4 6.99 0.9
-1 5 -5 132.51 2.45
1 -5 5 142.28 4.28
1 -5 5 146.53 5.32
-1 5 -5 135.77 2.51
-1 5 -6 53.61 1.13
1 -5 6 56.36 3.31
1 -5 6 56.84 2.31
1 -5 7 22.65 2.24
-1 5 -7 23.19 0.61
-1 5 -7 22.75 0.72
-1 5 -8 8.6 0.44
-1 5 -8 8.45 0.35
1 -5 8 9.61 1.5
1 -5 9 5.83 1.27
-1 5 -9 4.85 0.27
-1 5 -9 5.07 0.36
-1 5 -9 4.57 1.23
-1 5 -10 70.75 4.87
-1 5 -10 65.31 1.65
1 -5 10 65.81 4.35
1 -5 11 1.65 0.6
-1 5 -11 1.81 0.99
1 -5 11 1.68 0.85
1 -5 12 10.56 1.82
1 -5 12 10.77 1.41
-1 5 -12 10.84 2.05
1 -5 13 69.42 3.19
1 -5 13 75.27 3.94
1 -5 13 65.24 3.06
1 -5 14 14.27 1.77
1 -5 14 14.46 1.44
1 -5 14 13.57 1.34
-1 5 -14 12.63 5.11
1 -5 15 169.7 5.33
1 -5 15 179.9 5.54
1 -5 16 1.89 0.84
1 -5 16 1.22 0.42
-1 5 -16 0.03 1.84
1 -5 17 14.7 1.57
-1 5 -17 12.85 3.26
1 -5 18 13.08 1.33
1 -5 18 12.33 0.89
1 -5 19 -0.53 0.34
1 -4 -17 -0.64 1.36
-1 4 17 0.59 0.48
-1 4 17 0.19 0.46
-1 4 16 0.76 0.45
1 -4 -16 2.33 3.05
-1 4 16 0.24 0.51
-1 4 16 3.35 1.11
-1 4 15 5.09 1.22
-1 4 15 5.15 0.94
-1 4 15 3.96 1.08
1 -4 -15 5.99 0.95
1 -4 -15 5 3.16
-1 4 14 3.79 1.18
-1 4 14 3.53 1.11
1 -4 -14 5.29 4.17
1 -4 -14 7.37 1.19
-1 4 14 5.65 1.07
-1 4 13 112.99 4.83
-1 4 13 109.28 5.35
-1 4 13 109.34 5.38
1 -4 -13 110.67 15.16
-1 4 13 111.82 13.41
1 -4 -13 109.26 4.85
-1 4 13 111.63 5.53
-1 4 12 1.98 0.76
-1 4 12 2.73 0.94
-1 4 12 2.84 0.98
-1 4 12 3.25 1.05
1 -4 -12 4.35 4.08
-1 4 12 -0.95 1.78
1 -4 -12 2.42 0.87
1 -4 -11 19.48 5.68
-1 4 11 22.48 1.91
-1 4 11 24.78 2.32
1 -4 -11 22.95 2.98
-1 4 11 25.49 2.33
-1 4 11 22.15 5.91
1 -4 -11 23.18 2.07
-1 4 11 23.84 2.29
1 -4 -10 62.16 10.18
1 -4 -10 59.74 3.25
-1 4 10 63.67 3.39
1 -4 -10 57.78 4.64
-1 4 10 59.64 2.97
-1 4 10 66.49 3.61
-1 4 10 63.59 3.4
1 -4 -9 101.82 6.05
1 -4 -8 70.93 4.74
1 -4 -7 1.44 0.71
1 -4 -7 1.3 0.56
1 -4 -6 87.36 4.7
1 -4 -6 93.64 4.2
1 -4 -5 2900.65 50.83
1 -4 -5 2762.03 51.85
1 -4 -4 1278.5 24.37
1 -4 -4 1230.5 24.99
1 -4 -3 31.37 2.14
1 -4 -3 31.22 2.01
1 -4 -2 8.35 1.06
1 -4 -2 8.59 1.07
1 -4 -1 1310.17 23.95
1 -4 -1 1239.73 23.75
1 -4 0 73.55 2.97
1 -4 0 75.72 3.05
1 -4 1 377.94 8.5
-1 4 -1 362.32 6.19
-1 4 -2 22.68 0.59
1 -4 2 25.04 1.59
-1 4 -3 57.41 0.83
1 -4 3 59.79 2.32
1 -4 3 60.24 2.55
-1 4 -4 1012.51 16.81
1 -4 4 1053.95 19.95
1 -4 4 996.5 18.83
1 -4 5 48.91 2.15
1 -4 5 48.58 1.76
1 -4 5 52.2 2.82
-1 4 -5 54.64 1.11
-1 4 -6 17.6 0.56
1 -4 6 16.14 0.94
1 -4 6 17.14 1.11
-1 4 -6 16.78 0.47
-1 4 -7 103.15 2.04
-1 4 -7 96.4 1.89
-1 4 -8 47.86 1.18
-1 4 -8 44.35 1.01
1 -4 9 228.96 8.11
-1 4 -9 224.64 4.33
-1 4 -9 229.7 8.83
-1 4 -9 232.67 4.08
-1 4 -10 44.56 3.85
1 -4 10 44.21 3.37
-1 4 -11 21.94 2.83
1 -4 11 24.77 2.46
1 -4 12 17.93 1.79
1 -4 12 14.83 1.42
1 -4 12 14.66 1.37
-1 4 -12 15.18 2.43
1 -4 13 0.46 0.52
1 -4 13 -0.08 0.39
1 -4 13 0.34 0.5
1 -4 14 75.5 4.09
1 -4 14 67.34 3.38
-1 4 -14 78.44 12.6
1 -4 14 63.46 3.23
-1 4 -15 2.93 3.68
1 -4 15 1.3 0.63
1 -4 15 0.59 0.57
1 -4 15 0.13 0.56
1 -4 16 16.62 1.86
-1 4 -16 15.44 5.87
1 -4 16 13.02 1.38
1 -4 16 12.57 1.3
-1 4 -17 27.25 5.59
1 -4 17 24.71 1.6
1 -4 17 30.8 2.33
1 -4 17 24.99 1.63
1 -4 18 -0.1 0.45
-1 4 -18 0.4 1.43
1 -4 18 0.05 0.25
1 -4 19 7.66 0.77
-1 3 18 5.84 0.67
-1 3 17 -0.52 0.51
1 -3 -17 -2.08 2.1
-1 3 17 0.23 0.45
1 -3 -16 5.04 2.84
-1 3 16 5.37 1.24
-1 3 16 4.55 0.82
-1 3 16 5.33 1.09
1 -3 -15 -1.34 2.41
-1 3 15 -0.28 0.59
-1 3 15 -0.31 0.72
-1 3 15 -0.12 0.41
-1 3 14 28.79 2.66
-1 3 14 27.91 2.8
1 -3 -14 22.71 7.05
-1 3 14 26.76 2.31
1 -3 -14 29.81 2.15
1 -3 -13 29.29 2.26
-1 3 13 26.38 2.29
-1 3 13 26.92 2.53
-1 3 13 32.2 2.92
1 -3 -13 27.38 7.46
-1 3 13 28.37 2.64
1 -3 -12 0.54 3.57
-1 3 12 0.82 0.67
-1 3 12 1.28 0.73
1 -3 -12 0.44 0.5
-1 3 12 0.6 0.78
-1 3 12 0.5 0.63
1 -3 -12 0.96 0.85
-1 3 11 1.73 0.66
-1 3 11 0.49 0.51
1 -3 -11 0.97 0.88
-1 3 11 1.23 0.57
-1 3 11 1.49 0.8
1 -3 -11 1.15 0.65
1 -3 -10 10.44 1.96
1 -3 -9 15.42 2.21
1 -3 -8 49.68 3.8
1 -3 -7 11.14 1.24
1 -3 -7 9.49 1.56
1 -3 -6 0.25 0.51
1 -3 -6 0.26 0.39
1 -3 -5 118.23 4.94
1 -3 -5 122.52 4.22
1 -3 -4 52.36 2.88
1 -3 -4 54.02 2.53
1 -3 -3 2.27 0.56
1 -3 -3 2.88 0.72
1 -3 -2 33.17 1.83
1 -3 -2 33.26 1.76
1 -3 -1 562.59 11.63
1 -3 -1 585.31 11.66
1 -3 0 62.65 2.44
1 -3 0 63.03 2.42
-1 3 -1 320.77 5.72
1 -3 1 669.49 8.75
1 -3 2 84.34 2.42
1 -3 2 87.68 2.81
1 -3 3 697.89 13.55
-1 3 -3 662.32 11.03
1 -3 4 36.87 1.3
1 -3 4 40.36 2.12
-1 3 -4 40.3 0.83
1 -3 4 41.65 2.2
-1 3 -5 117.27 2.16
1 -3 5 116.92 3.97
1 -3 5 122.99 4.27
1 -3 6 1.19 0.44
-1 3 -6 1.73 0.14
1 -3 6 1.08 0.53
-1 3 -6 1.51 0.17
1 -3 6 1.22 0.27
1 -3 7 2.08 0.61
-1 3 -7 1.93 0.17
-1 3 -7 2.89 0.23
-1 3 -8 0.14 0.1
-1 3 -8 -0.06 0.48
-1 3 -8 0.02 0.12
1 -3 8 -0.15 0.47
-1 3 -9 198.08 3.54
1 -3 9 195.45 7.06
-1 3 -9 192.54 8.06
-1 3 -10 19.9 2.6
1 -3 10 18.96 2
-1 3 -10 20.67 0.6
-1 3 -11 2.45 0.88
1 -3 11 1.24 0.47
-1 3 -12 10.72 2.03
1 -3 12 10.29 1.22
1 -3 12 11.5 1.38
1 -3 12 10.54 1.29
1 -3 13 50.28 2.86
1 -3 13 50.27 2.89
-1 3 -13 51.12 9.94
1 -3 13 54.62 3.33
1 -3 14 4.62 0.96
1 -3 14 4.86 0.97
-1 3 -14 4.93 4.11
1 -3 14 5.09 1.12
1 -3 15 0.04 0.42
1 -3 15 -0.31 0.65
1 -3 15 0.15 0.5
-1 3 -15 -0.51 3.3
1 -3 16 0.47 0.5
1 -3 16 0.6 0.45
-1 3 -16 2.05 2.43
1 -3 16 1.2 0.76
1 -3 17 8.33 1.02
-1 3 -17 8.52 3.57
1 -3 17 8.81 0.87
1 -3 17 6.83 1.05
1 -3 17 8.9 1.35
1 -3 18 1.73 0.65
1 -3 18 1.32 0.39
1 -3 18 1.74 0.39
1 -3 19 0.95 0.32
-1 2 18 1.02 0.38
-1 2 18 1.36 0.29
1 -2 -17 5.1 2.83
-1 2 17 3.61 0.73
-1 2 17 4.26 1.01
-1 2 17 4.18 0.84
1 -2 -16 1.98 2.58
-1 2 16 1.68 0.66
-1 2 16 1.01 0.65
-1 2 16 1.84 0.79
-1 2 15 114.44 5.58
-1 2 15 105.19 5.08
-1 2 15 110.28 4.78
1 -2 -15 111.54 13.96
-1 2 14 2.34 0.79
-1 2 14 3.88 0.96
1 -2 -14 3.9 2.36
-1 2 14 3.68 1.19
-1 2 13 0.28 0.52
-1 2 13 -0.53 0.85
-1 2 13 0.35 0.54
-1 2 13 -0.13 0.55
1 -2 -13 -0.25 3.04
1 -2 -12 45.77 4.2
-1 2 12 51.5 3.26
-1 2 12 50.13 3.25
-1 2 12 50.21 2.99
-1 2 12 50.61 3.36
1 -2 -12 53.85 9.7
1 -2 -11 37.22 7.55
-1 2 11 37.01 2.33
1 -2 -11 39.64 3.89
-1 2 11 33.83 2.44
-1 2 11 34.2 2.44
-1 2 11 38.71 2.67
1 -2 -10 43.22 3.91
1 -2 -9 5.11 1.34
1 -2 -8 35.26 3.08
1 -2 -7 150 6.23
1 -2 -6 679.08 15.82
1 -2 -6 682.24 11.4
-1 2 5 19.15 0.97
1 -2 -5 18.57 1.75
1 -2 -5 20.06 1.33
1 -2 -4 44.99 1.95
1 -2 -4 43.89 2.45
1 -2 -3 187.14 4.63
1 -2 -2 231.13 5.37
1 -2 -1 1665.41 29.3
1 -2 -1 1692.02 29.07
-1 2 0 125.16 2.15
1 -2 0 129.78 3.37
1 -2 0 135.27 3.45
1 -2 0 130.65 3.3
1 -2 1 14.23 0.99
-1 2 -2 246.86 4.16
1 -2 2 252.59 5.79
1 -2 3 1.01 0.45
1 -2 3 0.84 0.15
1 -2 4 165.3 4.44
1 -2 4 165.64 4.49
1 -2 5 34.97 1.29
1 -2 5 36.16 1.94
-1 2 -5 37.54 0.84
1 -2 6 9.51 1.14
-1 2 -6 8.55 0.31
1 -2 6 8.44 0.96
1 -2 6 8.95 0.68
-1 2 -6 9.9 0.37
-1 2 -7 6.98 0.35
-1 2 -7 6.86 0.28
1 -2 7 6.78 1.01
1 -2 7 8.55 0.89
-1 2 -8 943.77 15.76
1 -2 8 982.33 19.82
-1 2 -8 963.03 21.62
1 -2 9 148.55 5.55
-1 2 -9 146.91 6.83
-1 2 -9 146.86 2.71
-1 2 -10 100.19 1.98
-1 2 -10 105.71 5.97
1 -2 10 106.69 4.58
-1 2 -11 4.64 1.32
1 -2 12 89.46 3.79
-1 2 -12 96.6 12.96
1 -2 12 92.72 3.93
-1 2 -12 90.59 5.92
1 -2 12 94.14 4.18
-1 2 -13 141.29 16.7
1 -2 13 154.12 5.93
1 -2 13 143.86 5.36
1 -2 13 143.74 5.44
1 -2 14 0.59 0.54
1 -2 14 0.95 0.59
-1 2 -14 1.56 3.14
1 -2 14 0.36 0.52
1 -2 15 3.16 0.84
1 -2 15 3.17 0.84
-1 2 -15 3.51 3.6
1 -2 15 5.42 1.23
-1 2 -16 9.88 5.2
1 -2 16 7.16 1.34
1 -2 16 6.07 1.09
1 -2 16 7.69 1.17
1 -2 17 1.89 0.76
-1 2 -17 2.75 2.46
1 -2 17 2 0.63
1 -2 17 1.44 0.61
1 -2 18 21.95 1.75
1 -2 18 18.75 1.27
1 -2 18 20.96 1.35
-1 1 18 17.01 1.27
-1 1 18 19.03 1.62
1 -1 -17 4.42 2.26
-1 1 17 5.69 1.05
-1 1 17 6.87 1
-1 1 17 6.97 1.37
-1 1 16 13.7 1.69
-1 1 16 13.02 1.53
-1 1 16 16.08 2.06
-1 1 15 29.84 2.82
1 -1 -15 31.79 7.46
-1 1 15 27.99 2.5
-1 1 15 27.71 2.38
1 -1 -14 6.48 4.37
-1 1 14 4.48 1.12
-1 1 14 6.26 1.38
-1 1 14 5.82 1.22
-1 1 13 1.57 0.94
-1 1 13 2.77 0.79
1 -1 -13 0.81 3.05
-1 1 13 1.72 0.88
-1 1 13 1.74 0.75
1 -1 -12 264.97 10.73
-1 1 12 253.66 7.61
1 -1 -12 284.45 21.68
-1 1 12 257.77 7.87
-1 1 12 266.25 8.28
-1 1 12 255.16 7.87
-1 1 11 55.06 2.81
1 -1 -11 59.07 4.68
1 -1 -10 22.1 2.69
1 -1 -9 1.81 0.88
-1 1 8 133.95 4.39
1 -1 -8 131.12 2.35
1 -1 -8 126.44 5.95
-1 1 7 -0.06 0.26
1 -1 -7 0.21 0.08
-1 1 6 8.85 1
1 -1 -6 9.07 0.78
1 -1 -6 9.33 1.3
1 -1 -5 22.07 1.81
1 -1 -5 22.69 1.16
-1 1 5 22.25 1.39
1 -1 -4 218.59 4.73
-1 1 4 210.71 5.13
-1 1 3 185.59 4.33
1 -1 -3 176.63 3.95
1 -1 -2 1330.61 22.8
1 -1 -1 5.19 0.42
1 -1 0 407.39 7.75
1 -1 1 4.8 0.52
1 -1 2 5.97 0.65
-1 1 -2 6.06 0.17
1 -1 3 872.28 16.26
1 -1 4 87.25 3.1
1 -1 4 98.46 3.05
-1 1 -5 23.15 0.59
1 -1 5 23.79 1.53
1 -1 5 22.06 1.47
-1 1 -6 319.79 5.45
1 -1 6 309.05 7.38
1 -1 7 258.65 6.32
-1 1 -7 268.3 4.63
1 -1 7 285.14 7.23
-1 1 -7 267.71 8.6
1 -1 7 259.92 6.36
-1 1 -8 3.57 1.05
1 -1 8 2.24 0.6
-1 1 -8 3.54 0.22
1 -1 9 0.71 0.43
-1 1 -9 0.29 0.11
-1 1 -9 -0.14 0.6
-1 1 -10 3.8 1.2
-1 1 -10 2.61 0.21
-1 1 -11 2.98 0.23
-1 1 -11 2.68 1.07
1 -1 12 30.33 2.22
1 -1 12 30.03 2.26
1 -1 12 29.2 2.13
-1 1 -12 26.4 3.14
-1 1 -12 26.79 7.05
1 -1 12 26.96 2.02
-1 1 -13 34.88 8.51
1 -1 13 29.55 2.38
1 -1 13 25.93 2.1
1 -1 13 28.18 2.28
1 -1 13 31.24 2.54
1 -1 14 1.64 0.85
1 -1 14 1.26 0.59
1 -1 14 1.05 0.56
1 -1 14 0.4 0.55
1 -1 15 46.51 3.01
1 -1 15 46.32 3.11
1 -1 15 47.52 3.28
-1 1 -15 55.71 10.84
1 -1 16 1.69 0.76
1 -1 16 0.98 0.5
1 -1 16 0.48 0.6
1 -1 17 1.19 0.57
-1 1 -17 2.24 1.98
1 -1 17 2.9 0.72
1 -1 17 3.23 0.81
1 -1 18 28.7 1.9
1 -1 18 28.2 1.66
-1 1 -18 33.55 4.99
1 -1 18 30.51 1.65
-1 0 18 54.66 2.87
-1 0 18 47.02 2.1
-1 0 17 0.49 0.3
1 0 -17 -0.89 1.58
-1 0 17 0.45 0.53
-1 0 17 1.23 0.56
-1 0 17 0.25 0.76
1 0 -16 3.3 2.37
-1 0 16 1.27 0.84
-1 0 16 2.34 0.8
-1 0 16 1.51 0.76
-1 0 15 38.77 2.82
1 0 -15 45.6 8.67
-1 0 15 37.28 2.86
-1 0 15 44.6 3.36
-1 0 14 17.58 1.95
-1 0 14 16.96 1.88
1 0 -14 19.31 6.38
-1 0 14 18.97 2.23
-1 0 13 70.76 3.74
-1 0 13 71.09 3.8
-1 0 13 80.07 4.28
-1 0 12 401.52 10.16
-1 0 12 381.77 10.23
1 0 -12 407.3 13.76
1 0 -12 413.89 25.45
-1 0 12 394.46 10.08
-1 0 12 414.1 10.81
1 0 -11 2.44 1.01
-1 0 10 1.01 0.65
1 0 -10 0.69 0.81
-1 0 9 271.11 9.09
-1 0 9 287.99 7.9
1 0 -9 279.39 9.79
-1 0 8 4.07 0.78
1 0 -8 4.64 1.18
1 0 -7 10.71 1.51
-1 0 7 11.24 1.23
-1 0 6 1.83 0.54
1 0 -6 0.67 0.45
1 0 -5 185.9 5.53
-1 0 5 184.42 4.92
-1 0 4 155.79 4.16
1 0 -4 142.24 2.9
-1 0 3 800.84 14.46
1 0 -3 771.08 13.22
-1 0 2 68.52 2.1
1 0 -2 64.24 2.04
1 0 -1 37.29 1.13
1 0 -1 36.16 1.18
1 0 0 216.25 4.07
1 0 0 217.22 4.43
1 0 1 1035.52 18.32
-1 0 -1 1033.11 17.42
1 0 2 332.71 7.06
1 0 3 727.33 13.96
1 0 4 151.68 3.89
1 0 4 159.75 4.48
-1 0 -5 678.61 14.94
1 0 5 692.68 13.96
1 0 5 725.56 13.44
-1 0 -6 5.86 1.07
1 0 6 7 0.83
-1 0 -6 6.93 0.27
1 0 6 5.93 0.81
1 0 7 52.17 2.29
-1 0 -7 53.79 1.14
-1 0 -7 60.03 3.63
1 0 7 59.75 2.54
1 0 8 44.47 2.23
-1 0 -8 39.77 0.93
-1 0 -8 42.3 3.26
-1 0 -9 92.27 5.3
-1 0 -9 85.82 1.76
-1 0 -10 126.97 6.58
-1 0 -10 118.39 2.34
1 0 11 13.92 1.39
-1 0 -11 13.31 0.5
-1 0 -11 13.73 2.2
-1 0 -12 0.14 0.88
-1 0 -12 3.65 2.93
1 0 12 1.31 0.6
1 0 12 3.72 0.82
1 0 12 0.27 0.49
1 0 12 1.56 0.68
1 0 13 361.99 10.2
1 0 13 342.94 9.7
1 0 13 362.03 9.89
1 0 13 373.42 10.28
-1 0 -14 24.23 7.46
1 0 14 24.67 2.2
1 0 14 24.32 2.36
1 0 14 22.04 2.21
1 0 14 22.79 2.14
1 0 15 52.31 3.22
1 0 15 55.37 3.51
1 0 15 55.96 3.49
-1 0 -15 48.27 10.23
1 0 16 37.91 2.84
1 0 16 31.44 2.33
-1 0 -16 31.52 7.48
1 0 16 34.21 2.62
1 0 17 0.54 0.53
-1 0 -17 2.29 2.37
1 0 17 0.71 0.43
1 0 17 0.28 0.54
1 0 18 5.35 0.78
-1 0 -18 6.78 2.42
1 0 18 5.4 0.69
1 0 18 4.96 0.73
-1 -1 19 32.71 1.74
-1 -1 18 46.75 2.8
-1 -1 18 40.44 1.91
-1 -1 17 18.74 1.64
-1 -1 17 24.06 1.89
-1 -1 17 21.44 1.42
1 1 -16 39.09 6.9
-1 -1 16 32.73 2.45
-1 -1 16 35.41 2.89
-1 -1 16 31.85 2.41
-1 -1 15 0.08 0.44
-1 -1 15 0.19 0.54
-1 -1 15 0.55 0.76
-1 -1 14 13.27 1.85
-1 -1 14 13.59 1.66
-1 -1 14 13.17 1.64
1 1 -13 138.14 7.39
-1 -1 13 131.35 5.29
-1 -1 13 138.56 5.28
-1 -1 13 148.09 5.96
-1 -1 12 30.47 2.18
-1 -1 12 26.53 2.03
-1 -1 12 35.81 2.57
1 1 -12 34.17 3.55
-1 -1 12 33.15 2.37
1 1 -12 26.69 5.71
1 1 -11 2.99 1.14
-1 -1 10 270.07 8.2
-1 -1 10 261.88 8.49
1 1 -9 0.12 0.49
-1 -1 9 0.27 0.51
-1 -1 9 0.15 0.39
1 1 -8 375.67 10.8
-1 -1 8 349.37 10.07
-1 -1 8 376.83 9.89
1 1 -7 597.99 14.11
-1 -1 7 567.82 13.66
-1 -1 7 581.07 13.12
1 1 -6 442.14 10.88
-1 -1 6 431.99 10.71
-1 -1 6 440.91 10.28
1 1 -5 2055.95 33.76
-1 -1 5 2024.67 37.07
-1 -1 5 2065.18 36.61
1 1 -5 1998.38 36.94
1 1 -4 1247.5 20.58
-1 -1 4 1260.57 22.92
-1 -1 4 1260.32 23.31
1 1 -4 1260.54 22.99
1 1 -3 98.28 1.72
-1 -1 3 100.53 3.08
-1 -1 3 96.03 3.18
1 1 -3 103.61 3
1 1 -2 265.27 5.37
-1 -1 2 267.09 5.92
-1 -1 1 654.96 12
1 1 -1 675.98 11.42
1 1 0 9.33 0.69
-1 -1 0 8.78 0.63
-1 -1 0 8.77 0.71
1 1 1 323.52 6.84
-1 -1 -1 338.95 6.56
-1 -1 -1 318.41 6.9
-1 -1 -2 47.07 2.07
1 1 2 49.56 2.02
-1 -1 -2 43.56 1.69
1 1 3 28.22 1.62
-1 -1 -3 29.35 1.7
1 1 3 24.95 0.95
-1 -1 -3 27.77 1.56
-1 -1 -4 115.29 4.02
1 1 4 111.99 3.79
-1 -1 -4 111.49 3.91
1 1 4 114.88 2.77
-1 -1 -5 120.67 4.6
-1 -1 -5 123.63 4.46
1 1 5 119.78 4.19
1 1 5 135.28 2.29
1 1 5 125.34 3.3
-1 -1 -6 44.76 2.87
1 1 6 50.3 1.87
-1 -1 -6 45.5 0.98
1 1 6 45.46 2.32
-1 -1 -7 256.26 4.55
-1 -1 -7 258.58 8.38
1 1 7 256.32 6.57
-1 -1 -8 0.52 0.13
-1 -1 -8 0.15 0.49
-1 -1 -9 61.03 1.37
-1 -1 -9 59.37 4.23
-1 -1 -10 7.59 0.38
-1 -1 -10 7.71 1.61
-1 -1 -11 92.56 1.95
-1 -1 -11 87.3 12.3
1 1 11 89.1 4.05
-1 -1 -11 89.02 5.76
1 1 11 94.78 4.04
1 1 11 95.84 4.03
1 1 11 96.02 3.86
1 1 12 108.02 4.64
-1 -1 -12 107.88 2.19
1 1 12 105.46 4.66
1 1 12 110.34 4.79
1 1 12 108.67 4.58
-1 -1 -12 114.31 4.37
-1 -1 -12 111.17 14.93
-1 -1 -12 106.28 6.35
1 1 13 75.85 3.87
1 1 13 70.74 3.92
1 1 13 76.53 4.1
-1 -1 -13 78.29 13.18
1 1 13 75.47 4.15
1 1 14 1.03 0.67
-1 -1 -14 1.69 3.87
1 1 14 0.23 0.53
1 1 14 1.6 0.68
1 1 14 0.83 0.75
1 1 15 11.59 1.56
1 1 15 11.61 1.66
1 1 15 11.41 1.56
1 1 15 13.54 1.78
-1 -1 -15 10.65 5.24
1 1 16 1.4 0.64
1 1 16 0.5 0.57
1 1 16 1.36 0.79
-1 -1 -16 2.67 2.95
1 1 17 43.74 2.37
1 1 17 39.63 2.44
-1 -1 -17 40.72 7.22
1 1 17 42.36 2.55
1 1 18 1.36 0.5
1 1 18 1.12 0.44
1 1 18 1.92 0.43
-1 -2 19 33.28 1.85
-1 -2 18 -0.28 0.43
-1 -2 17 10.27 1.22
-1 -2 17 11.91 1.75
-1 -2 17 9.54 0.88
-1 -2 17 8.17 1
-1 -2 16 3.18 1.1
-1 -2 16 2.89 0.71
-1 -2 16 2.33 0.78
-1 -2 16 2.01 0.77
-1 -2 16 2.66 0.62
-1 -2 15 10.84 1.66
-1 -2 15 8.29 1.22
-1 -2 15 8.6 1.3
-1 -2 14 15.16 1.6
-1 -2 14 15.36 1.96
-1 -2 14 12.57 1.55
1 2 -14 13.89 4.76
1 2 -13 39.28 8.08
1 2 -13 36.4 3.65
-1 -2 13 35.2 2.51
-1 -2 13 40.52 2.97
-1 -2 13 38.03 2.51
1 2 -12 86.47 5.64
-1 -2 12 91.23 4.16
-1 -2 12 81.36 3.64
-1 -2 12 85.58 3.62
-1 -2 11 4.23 0.99
1 2 -11 6.06 1.53
1 2 -10 47.32 3.78
-1 -2 10 41.57 3.1
-1 -2 9 21.32 2.14
-1 -2 9 21.19 1.98
1 2 -9 20.23 2.3
1 2 -8 51.54 3.42
-1 -2 8 49.96 3.13
-1 -2 8 45.84 2.92
1 2 -7 686.48 11.54
1 2 -7 685.9 15.75
-1 -2 7 690.58 15.33
-1 -2 7 653.39 15.05
1 2 -6 62.18 1.28
-1 -2 6 61.37 3.03
1 2 -6 64.73 3.24
-1 -2 6 64.7 3.17
1 2 -5 19.59 0.39
-1 -2 5 19.74 1.57
1 2 -5 19.21 0.51
1 2 -5 20.03 1.57
-1 -2 5 22.65 1.71
1 2 -4 1.21 0.07
1 2 -4 1.23 0.12
-1 -2 4 1.16 0.43
1 2 -4 0.95 0.39
-1 -2 3 1737.55 29.33
-1 -2 3 1734.67 30.85
1 2 -3 1757.22 30.23
-1 -2 2 6419.06 107.24
-1 -2 2 6438.51 106.35
-1 -2 1 259.47 5.46
-1 -2 1 242.26 5.44
-1 -2 0 0.81 0.23
-1 -2 0 0.96 0.36
-1 -2 -1 3649.56 59.79
-1 -2 -1 3483.36 61.16
1 2 2 2503.09 44.2
-1 -2 -2 2594.77 43.24
-1 -2 -2 2510.59 44.35
-1 -2 -3 474.29 7.88
1 2 3 460.82 8.42
-1 -2 -3 470.71 8.79
-1 -2 -4 273.67 7.24
-1 -2 -4 264.45 6.78
1 2 4 270.25 6.88
-1 -2 -5 96.8 4.09
-1 -2 -5 99.14 1.82
1 2 5 91.86 2.21
-1 -2 -5 92.86 3.94
1 2 5 97.72 1.73
1 2 5 93.01 3.74
-1 -2 -6 4.08 0.95
-1 -2 -6 4.59 0.24
-1 -2 -6 5.87 1.13
1 2 6 4.85 0.84
1 2 6 2.62 0.26
-1 -2 -7 3.96 0.25
-1 -2 -7 4.02 0.99
1 2 7 4 0.75
-1 -2 -8 1.95 0.2
-1 -2 -8 2.52 0.89
-1 -2 -9 58.07 1.34
-1 -2 -9 52.53 4.02
-1 -2 -10 6.32 0.37
-1 -2 -10 5.65 1.5
-1 -2 -11 122.48 14.91
1 2 11 117.59 4.7
-1 -2 -11 129.56 4.78
1 2 11 127.55 4.96
-1 -2 -11 116.13 6.63
1 2 11 125.62 5
1 2 11 119.31 4.53
-1 -2 -11 124.22 2.51
-1 -2 -12 243.62 7.36
1 2 12 241.81 7.41
1 2 12 222.3 7.67
-1 -2 -12 222.83 9.76
-1 -2 -12 258.09 23.25
1 2 12 242.94 7.52
1 2 12 247.14 7.88
-1 -2 -13 19.59 6.03
1 2 13 22.84 2.21
1 2 13 21.31 2.03
-1 -2 -13 22.21 2.04
1 2 13 20.95 2.17
1 2 13 18.67 2.1
1 2 14 0.49 0.57
1 2 14 0.73 0.65
1 2 14 0.48 0.62
-1 -2 -14 1.84 2.75
1 2 14 1.16 0.7
-1 -2 -14 0.83 0.54
1 2 15 14.23 1.65
-1 -2 -15 9.6 4.02
1 2 15 14.3 1.78
1 2 15 11.86 1.61
1 2 15 12.85 1.75
1 2 16 0.86 0.58
1 2 16 0.39 0.4
1 2 16 -0.64 0.71
-1 -2 -16 -0.96 1.82
1 2 17 8.98 1.2
1 2 17 5.93 0.92
-1 -2 -17 9.2 3.09
1 2 17 7.73 0.98
1 2 18 1.28 0.37
-1 -2 -18 1.14 0.79
-1 -3 19 5.58 0.76
-1 -3 18 0.14 0.48
-1 -3 17 11.37 1.09
-1 -3 17 12.48 1.61
-1 -3 16 50.19 2.88
-1 -3 16 47.52 2.55
-1 -3 16 47.65 2.32
-1 -3 16 60.14 2.96
-1 -3 16 60.39 3.73
-1 -3 15 7.97 1.08
-1 -3 15 8.84 1.33
-1 -3 15 9.01 1.19
-1 -3 15 9.65 1.55
-1 -3 14 97 4.02
-1 -3 14 100.92 4.92
1 3 -13 188.97 8.51
-1 -3 13 198.99 6.86
-1 -3 13 175.26 5.63
-1 -3 13 167.92 5.8
-1 -3 12 3.43 0.78
1 3 -12 2.94 1.21
-1 -3 12 4.19 0.87
1 3 -11 168.39 7.7
-1 -3 11 152.43 6.64
1 3 -10 41.25 3.5
-1 -3 10 42.52 3.3
-1 -3 9 92.75 4.21
1 3 -9 103.39 5.32
-1 -3 9 96.76 4.94
-1 -3 8 376.08 10.05
-1 -3 8 397.65 11.05
1 3 -8 407.79 11.22
1 3 -8 387.74 6.79
1 3 -7 809.82 17.46
1 3 -7 779.54 13.13
-1 -3 7 822.8 17.59
-1 -3 6 110.43 4.32
1 3 -6 121.14 4.58
1 3 -6 115.67 2.18
1 3 -6 115.27 2.01
-1 -3 6 123.55 4.79
-1 -3 5 252.74 6.95
-1 -3 5 265.35 7.29
1 3 -5 258.28 4.35
1 3 -5 253.67 6.82
-1 -3 4 733.42 14.76
-1 -3 4 722.8 12.92
-1 -3 3 304.7 7.35
-1 -3 3 303.65 6.35
-1 -3 2 47.02 2.2
-1 -3 2 47.66 2.06
-1 -3 2 43.87 1.87
-1 -3 1 119.85 3.32
-1 -3 1 115.12 3.55
-1 -3 0 1160.59 20.14
-1 -3 0 1151.27 21.89
1 3 0 1192.15 19.5
-1 -3 0 1191.82 20.75
-1 -3 -1 24.42 1.67
-1 -3 -1 23.93 1.06
-1 -3 -1 23.71 0.92
-1 -3 -2 210.01 4.95
-1 -3 -2 200.29 5.95
-1 -3 -3 246.62 7.06
1 3 3 235.66 6.77
-1 -3 -3 250.44 6.18
-1 -3 -4 61.39 2.88
-1 -3 -4 62.56 1.2
1 3 4 57.74 3.02
1 3 4 57.54 1.15
-1 -3 -4 59.23 3.21
-1 -3 -5 911.24 15.37
-1 -3 -5 891.01 18.93
-1 -3 -5 889.2 19.62
1 3 5 937.36 15.3
1 3 5 880.81 18.91
-1 -3 -6 559.1 13.89
1 3 6 562.43 12.84
-1 -3 -6 578.58 9.46
1 3 6 537.69 9.4
-1 -3 -6 565.59 13.62
-1 -3 -7 16.16 1.87
-1 -3 -7 15.53 0.54
-1 -3 -7 15.81 1.9
-1 -3 -8 24.57 0.74
-1 -3 -8 23.26 2.53
-1 -3 -9 148.58 2.92
-1 -3 -9 150 7.09
-1 -3 -10 320 5.75
-1 -3 -10 293.61 10.98
-1 -3 -10 295.18 22.66
-1 -3 -11 201.64 8.89
1 3 11 226.06 7.24
1 3 11 216.18 6.64
1 3 11 217.45 7.35
-1 -3 -11 219.33 21.07
1 3 11 219.24 6.88
-1 -3 -11 220.33 6.98
1 3 12 32 2.7
1 3 12 34.45 2.75
1 3 12 31.87 2.42
1 3 12 33.65 2.5
-1 -3 -12 35.72 2.63
-1 -3 -12 32.06 8.79
1 3 13 4.11 1.03
-1 -3 -13 4.93 1.17
-1 -3 -13 3.34 3.19
1 3 13 4.44 1.05
1 3 13 4.69 1.16
1 3 13 5.13 1.05
1 3 14 55.8 3.67
1 3 14 56.1 3.63
-1 -3 -14 56.88 3.28
1 3 14 54.2 3.22
-1 -3 -14 49.48 10.76
1 3 14 53.61 3.37
1 3 15 17.15 2
-1 -3 -15 14.85 1.48
1 3 15 15.62 1.77
1 3 15 15 1.61
1 3 15 15.17 1.76
1 3 16 0.5 0.55
-1 -3 -16 0.84 1.61
1 3 16 0.5 0.58
1 3 16 0.4 0.5
1 3 17 5.88 0.78
1 3 17 5.79 0.9
1 3 18 0.4 0.22
-1 -4 19 3.95 0.68
-1 -4 18 1.6 0.61
-1 -4 18 2.85 0.49
-1 -4 17 2.54 0.77
-1 -4 17 3.27 0.7
-1 -4 16 10.37 1.22
-1 -4 16 11.56 1.65
-1 -4 15 5.13 1.17
-1 -4 15 5.12 0.92
-1 -4 14 19.63 2.05
-1 -4 14 17.17 1.63
1 4 -13 0.55 0.62
-1 -4 13 2.16 0.71
-1 -4 13 1.88 0.64
1 4 -12 23.77 2.81
-1 -4 12 25.63 2.09
-1 -4 12 22.55 2.48
-1 -4 12 22.32 1.7
-1 -4 11 0.55 0.59
1 4 -11 0.54 0.67
-1 -4 10 20.41 2.39
1 4 -10 23.15 2.6
-1 -4 9 42.36 3.34
1 4 -9 41.82 3.29
1 4 -9 40.7 1.1
-1 -4 9 39.7 2.61
-1 -4 8 81.47 3.88
1 4 -8 87.56 1.85
1 4 -8 95.1 4.71
-1 -4 8 89.83 4.74
1 4 -7 327.86 9.19
-1 -4 7 333.16 9.61
1 4 -7 318.62 5.59
1 4 -6 17.14 1.59
-1 -4 6 17.62 1.81
1 4 -6 17.4 0.43
-1 -4 6 18.63 1.69
-1 -4 5 0.23 0.42
-1 -4 5 -0.09 0.41
1 4 -5 0.18 0.06
-1 -4 5 -0.04 0.21
-1 -4 4 36.85 1.66
-1 -4 4 37.11 2.29
-1 -4 4 38.38 2.3
-1 -4 3 0.34 0.34
-1 -4 3 0.07 0.33
-1 -4 3 0.24 0.47
-1 -4 2 6.53 0.81
-1 -4 2 6.68 0.85
-1 -4 2 6.26 0.88
-1 -4 1 83.52 3.28
-1 -4 1 85.26 2.88
-1 -4 0 263 7.01
1 4 0 259.74 4.34
-1 -4 0 264.98 5.73
-1 -4 -1 6.36 0.62
-1 -4 -1 7.6 1.07
-1 -4 -1 6.54 0.53
-1 -4 -2 58 2.32
-1 -4 -2 59.32 3.16
-1 -4 -3 0.79 0.11
-1 -4 -3 0.94 0.63
-1 -4 -3 0.85 0.47
-1 -4 -4 1.37 0.68
1 4 4 0.93 0.43
-1 -4 -4 1.25 0.14
1 4 4 1.26 0.14
-1 -4 -4 1.45 0.52
-1 -4 -5 0.34 0.55
-1 -4 -5 0.08 0.12
-1 -4 -5 -0.37 0.44
1 4 5 0.07 0.11
1 4 5 0.06 0.42
-1 -4 -6 159.31 6.2
1 4 6 163.23 6.01
1 4 6 163.03 3.11
-1 -4 -6 167.59 3.09
-1 -4 -6 162.95 6.78
-1 -4 -7 153.12 2.92
-1 -4 -7 145.4 6.49
-1 -4 -7 144.9 6.3
-1 -4 -8 68.15 4.41
-1 -4 -8 69.14 4.16
-1 -4 -8 70.03 1.6
-1 -4 -9 63.37 4.41
-1 -4 -10 1.07 3.29
1 4 10 1.41 0.6
-1 -4 -10 0.97 0.59
1 4 10 0.48 0.45
-1 -4 -10 0.43 0.61
1 4 10 0.42 0.46
1 4 11 467.14 11.13
1 4 11 469.96 11.46
1 4 11 454.55 12.24
-1 -4 -11 484.63 12.04
-1 -4 -11 408.59 13.91
-1 -4 -11 465.95 32.03
1 4 11 452.69 11.84
1 4 12 38.64 2.64
1 4 12 36.86 2.97
1 4 12 40.47 2.79
1 4 12 39.71 2.97
-1 -4 -12 44.58 9.95
-1 -4 -12 41.15 2.99
1 4 13 82.85 4.51
1 4 13 78.17 3.91
1 4 13 83.65 4.14
-1 -4 -13 79.03 13.63
-1 -4 -13 82.45 4.33
1 4 13 77.33 4.38
1 4 14 1.38 0.94
-1 -4 -14 -0.07 0.62
1 4 14 1.94 0.76
1 4 14 1.3 0.81
1 4 14 0.3 0.52
-1 -4 -14 2 3.9
-1 -4 -15 1.47 2.45
-1 -4 -15 0.73 0.48
1 4 15 1.2 0.7
1 4 15 0.72 0.49
1 4 15 1.57 0.64
-1 -4 -16 4.19 0.66
1 4 16 4.4 0.75
1 4 16 3.86 0.88
1 4 17 5.9 0.66
1 4 17 5.93 0.84
-1 -4 -17 4.87 2.16
-1 -5 19 0.35 0.27
-1 -5 18 27.03 1.96
-1 -5 18 29.05 1.54
-1 -5 17 4.66 0.86
-1 -5 17 3.07 0.83
-1 -5 16 8.67 1.41
-1 -5 15 1.97 0.59
-1 -5 15 1.59 0.77
-1 -5 14 0.48 0.64
-1 -5 14 1.16 0.49
-1 -5 13 3.76 0.92
-1 -5 12 9.51 1.26
1 5 -12 10.1 1.69
-1 -5 12 10.78 1.25
-1 -5 12 10 1.74
1 5 -11 0.53 0.58
-1 -5 11 2.83 1.08
1 5 -10 28.18 2.81
1 5 -10 28.8 0.93
-1 -5 10 28.34 2.9
-1 -5 9 189.6 7.8
1 5 -9 200.63 7.5
1 5 -9 182.92 3.55
1 5 -8 1.48 0.66
-1 -5 8 1.37 0.7
-1 -5 8 1.11 0.59
1 5 -8 1.11 0.18
1 5 -7 88.04 4.16
1 5 -7 89.02 1.87
1 5 -7 91.24 1.7
-1 -5 7 81.58 3.91
-1 -5 7 92.89 4.75
-1 -5 6 13.3 1.66
-1 -5 6 12.36 1.42
1 5 -6 11.93 0.37
-1 -5 5 48.69 3.01
-1 -5 5 44.05 2.68
-1 -5 5 45.93 2
-1 -5 4 31.89 1.85
-1 -5 4 32.38 2.23
-1 -5 4 32.26 2.3
-1 -5 3 633.36 13.49
-1 -5 3 653.74 14.01
-1 -5 3 659.16 14.4
-1 -5 2 0.88 0.51
-1 -5 2 1.85 0.54
-1 -5 2 1.86 0.56
-1 -5 1 68.41 2.7
-1 -5 1 62.4 3.15
-1 -5 1 69.35 3.43
-1 -5 0 15.54 1.07
1 5 0 13.98 0.31
-1 -5 0 14.82 1.54
-1 -5 -1 1.4 0.4
-1 -5 -1 0.83 0.49
-1 -5 -1 1.39 0.29
-1 -5 -2 4.25 0.64
-1 -5 -2 5.78 1.14
-1 -5 -3 521.18 11.39
1 5 3 509.96 8.68
-1 -5 -3 533.65 13.38
-1 -5 -4 142.08 6.11
1 5 4 140.55 5.91
-1 -5 -4 143.13 5.16
1 5 4 147.52 2.72
-1 -5 -5 25.11 2.57
-1 -5 -5 26.36 2.23
1 5 5 28.75 0.78
1 5 5 23.97 2.33
-1 -5 -6 95.99 4.68
1 5 6 97.88 4.71
1 5 6 82.78 1.89
-1 -5 -6 100.51 5.43
-1 -5 -7 2.04 0.78
-1 -5 -7 2.8 0.85
-1 -5 -8 0.61 0.59
-1 -5 -8 0.96 0.9
1 5 9 78.63 3.79
-1 -5 -9 83.49 3.9
1 5 9 80.8 3.7
-1 -5 -9 74.09 4.77
-1 -5 -9 88.54 12.3
-1 -5 -10 18.34 1.93
1 5 10 18.23 1.87
-1 -5 -10 17.99 2.41
-1 -5 -10 25.88 7.48
1 5 10 20.87 2.06
1 5 10 20.32 1.7
1 5 11 136.28 5.84
1 5 11 128.9 4.87
1 5 11 132.39 5.63
-1 -5 -11 140.01 5.82
-1 -5 -11 132.44 17.26
-1 -5 -12 43.3 9.79
1 5 12 55.33 3.66
1 5 12 49 2.93
1 5 12 47.55 3.33
-1 -5 -12 53.63 3.54
1 5 13 0.81 0.73
1 5 13 0.14 2.06
-1 -5 -13 1.09 0.78
1 5 13 0.48 0.59
-1 -5 -13 -1.08 2.25
1 5 13 1.21 0.64
1 5 14 7.85 1.39
1 5 14 8.37 3.84
1 5 14 6.55 1.06
-1 -5 -14 8.62 4.3
1 5 14 6.02 1.17
-1 -5 -14 7.48 1.25
1 5 15 11.18 1.48
-1 -5 -15 12.32 1.38
-1 -5 -15 10.82 4.13
1 5 15 12.69 1.31
1 5 16 -0.08 0.43
-1 -5 -16 1.72 2.11
1 5 16 0.55 0.32
-1 -5 -16 0.01 0.32
-1 -5 -17 4.17 1.39
1 5 17 2.94 0.48
-1 -6 18 0.89 0.49
-1 -6 18 1.52 0.49
-1 -6 17 1.36 0.52
-1 -6 17 1.04 0.52
-1 -6 16 42.61 2.21
-1 -6 16 39.62 2.81
-1 -6 15 0.66 1.05
-1 -6 14 0.15 0.54
-1 -6 13 86.53 4.16
-1 -6 12 159.77 5.37
-1 -6 12 157.31 4.97
1 6 -12 160.79 7.22
-1 -6 12 159.79 5.54
-1 -6 12 151.2 7.34
-1 -6 11 6.59 1.01
-1 -6 11 8.31 1.75
1 6 -11 7.01 1.34
-1 -6 11 7.16 0.88
-1 -6 11 8.01 1.07
-1 -6 11 8.43 1.11
1 6 -11 7.81 0.48
1 6 -10 7.17 0.44
1 6 -10 8.91 1.61
-1 -6 10 6.6 1.5
1 6 -9 0.05 0.13
-1 -6 9 0.68 0.6
1 6 -9 0.14 0.55
-1 -6 8 4.18 0.86
1 6 -8 4.56 0.32
1 6 -8 4.34 0.95
-1 -6 8 3.25 1.08
-1 -6 7 1.18 0.75
1 6 -7 1.37 0.14
1 6 -7 1.16 0.53
-1 -6 7 0.3 0.37
1 6 -6 81.97 1.67
-1 -6 6 76.74 3.92
1 6 -6 86.89 1.57
-1 -6 6 82.6 4.48
-1 -6 5 176.21 6.25
-1 -6 5 172.07 5.12
-1 -6 5 182.59 6.66
-1 -6 4 10.95 1.41
-1 -6 4 10.6 1.41
-1 -6 4 10.56 1.22
-1 -6 3 30.79 2.4
-1 -6 3 33.21 2.31
-1 -6 3 30.53 2.17
-1 -6 2 278.31 7.54
-1 -6 2 280.83 8.1
-1 -6 2 284.67 8.45
-1 -6 1 19.34 1.45
-1 -6 1 17.97 1.84
-1 -6 0 8.38 0.83
-1 -6 0 7.84 1.37
-1 -6 -1 27.76 1.57
-1 -6 -1 28.82 1.32
-1 -6 -1 28.91 2.52
1 6 2 83.08 1.7
-1 -6 -2 83.3 3.19
-1 -6 -2 79.19 4.43
-1 -6 -3 209.99 7.95
-1 -6 -3 204.99 6.09
1 6 3 213.69 3.86
-1 -6 -4 62.01 3.24
1 6 4 67.58 1.48
1 6 4 62.35 4.12
-1 -6 -4 63.78 4.32
-1 -6 -5 92.18 5.53
1 6 5 89.81 5.06
-1 -6 -5 101.62 4.62
-1 -6 -6 5.09 1.37
-1 -6 -6 4.69 0.94
1 6 6 2.95 0.47
1 6 6 4.2 0.99
-1 -6 -7 0.09 0.57
-1 -6 -7 -0.15 0.69
-1 -6 -8 229.97 8.56
-1 -6 -8 226.28 9.15
-1 -6 -9 14.31 6
-1 -6 -9 15.09 1.77
1 6 9 17.53 1.77
1 6 9 14.76 1.32
1 6 9 17.66 1.82
-1 -6 -9 13.95 2.02
1 6 10 25.26 2.24
1 6 10 25.17 1.87
-1 -6 -10 26.26 2.43
-1 -6 -10 25.56 7.58
1 6 10 25.41 2.35
1 6 11 63.56 3.92
-1 -6 -11 64.6 3.95
1 6 11 59.33 3.04
1 6 11 61.96 3.76
-1 -6 -11 62.35 12
-1 -6 -12 19.77 2.19
1 6 12 19.17 1.76
1 6 12 18.83 2.12
1 6 12 20.04 2.21
-1 -6 -12 23.04 7.62
-1 -6 -13 7.41 1.4
1 6 13 6.91 3.81
-1 -6 -13 3.86 3.25
1 6 13 6.52 1.03
1 6 13 7.52 1.4
1 6 13 6.98 1.37
1 6 14 0.18 0.33
1 6 14 -0.35 0.55
-1 -6 -14 0.28 0.6
1 6 14 -0.34 0.64
-1 -6 -14 -0.63 1.84
-1 -6 -15 2.89 2.84
-1 -6 -15 2.48 0.75
1 6 15 2.31 0.51
1 6 15 1.62 0.56
-1 -6 -16 26.21 5
1 6 16 27.12 1.64
-1 -6 -16 23.32 1.29
-1 -7 18 0.17 0.3
-1 -7 18 0.07 0.38
-1 -7 17 0.57 0.54
-1 -7 17 0.25 0.46
-1 -7 17 0.21 0.34
-1 -7 16 -0.29 0.47
-1 -7 16 -0.05 0.49
-1 -7 15 39.85 2.8
-1 -7 14 48.79 3.13
-1 -7 14 49.54 2.51
-1 -7 13 39.69 2.58
-1 -7 13 37.73 2.61
-1 -7 13 37.72 2.26
-1 -7 12 5.72 0.99
-1 -7 12 5.85 1
-1 -7 12 5 0.89
-1 -7 12 4.63 1.38
-1 -7 11 4.77 0.84
-1 -7 11 4.96 0.9
1 7 -11 4.79 0.38
-1 -7 11 5.5 0.92
-1 -7 11 4.27 0.88
-1 -7 11 5.2 1.37
1 7 -11 7.38 1.52
-1 -7 10 58.33 2.99
-1 -7 10 59.77 2.95
1 7 -10 55.71 1.49
1 7 -10 64.45 4
-1 -7 10 55.52 2.81
-1 -7 10 56.99 4.54
1 7 -9 127.28 2.68
-1 -7 9 124.34 6.71
1 7 -8 10.14 1.44
1 7 -8 10.18 0.51
-1 -7 8 8.88 1.68
-1 -7 7 50.25 3.79
1 7 -7 51.99 1.18
-1 -7 7 49.68 3.17
1 7 -7 54.4 3.08
-1 -7 6 214.98 8.18
-1 -7 6 211.39 7.47
1 7 -6 213.02 4.1
-1 -7 5 243.01 8.31
-1 -7 5 233.45 6.98
-1 -7 5 234.32 7.98
1 7 -5 250.21 4.34
-1 -7 4 88.63 4.11
-1 -7 4 92.72 4.47
-1 -7 4 90.71 4.54
-1 -7 3 78.37 3.85
-1 -7 3 73.52 3.91
-1 -7 2 540.57 13.6
-1 -7 2 535.57 12.45
-1 -7 1 17.69 1.49
-1 -7 1 16.85 1.97
-1 -7 0 0.44 0.71
-1 -7 0 0.26 0.23
1 7 0 0.15 0.12
1 7 1 11.44 0.47
-1 -7 -1 11.52 1.78
-1 -7 -2 255 6.78
1 7 2 267.8 4.8
-1 -7 -2 265.06 9.47
-1 -7 -3 47.52 3.84
1 7 3 54.07 1.3
-1 -7 -3 50.47 2.67
1 7 4 0.76 0.73
-1 -7 -4 0.62 0.68
1 7 4 0.32 0.16
-1 -7 -4 -0.25 0.39
1 7 5 1.71 0.32
-1 -7 -5 2.4 1.1
1 7 5 0.13 0.49
-1 -7 -6 27.13 3.11
1 7 6 24.91 2.56
-1 -7 -7 286.77 11.11
-1 -7 -8 16.02 2.41
-1 -7 -8 17.22 2.11
-1 -7 -8 22.91 6.73
1 7 8 19.1 1.85
-1 -7 -8 19.93 1.94
1 7 8 17.88 1.72
1 7 9 23.36 2.06
-1 -7 -9 24.27 2.39
-1 -7 -9 21.45 6.66
1 7 9 26.43 2.31
-1 -7 -9 25.58 2.42
-1 -7 -10 255.19 8.61
1 7 10 248.58 8.3
1 7 10 225.96 7.7
-1 -7 -10 238.02 23.76
1 7 10 256.29 6.85
-1 -7 -11 44.03 10.4
1 7 11 43.47 3.12
1 7 11 46.14 2.47
-1 -7 -11 45.81 3.44
1 7 11 44.08 3.23
1 7 12 185.84 5.62
-1 -7 -12 199.35 21.33
1 7 12 184.05 6.8
1 7 12 191.51 7.11
-1 -7 -12 191.65 7.24
1 7 13 17.11 5.6
-1 -7 -13 14.64 5.56
1 7 13 23.34 1.65
1 7 13 25.76 2.29
-1 -7 -13 27.11 2.43
1 7 13 22.58 2.15
1 7 14 -1.07 1.82
1 7 14 0.33 0.27
-1 -7 -14 -0.38 0.55
-1 -7 -14 -0.5 1.5
1 7 14 -0.47 0.58
-1 -7 -15 8.09 0.97
-1 -7 -15 4.17 2.29
1 7 15 6.56 2.36
1 7 15 7.37 0.94
-1 -7 -16 2.41 1.71
-1 -8 18 29.39 1.51
-1 -8 18 23.15 1.26
-1 -8 17 4.21 0.75
-1 -8 17 4.3 0.62
-1 -8 17 5.15 0.89
-1 -8 16 88.31 3.82
-1 -8 16 98.67 3.76
-1 -8 15 13.4 1.54
-1 -8 15 13.68 1.18
-1 -8 14 9.87 1.32
-1 -8 14 10.29 1.22
-1 -8 13 15.96 1.66
-1 -8 13 16.33 1.68
-1 -8 13 15.69 1.6
-1 -8 12 78.9 3.64
-1 -8 12 76.84 3.5
-1 -8 12 79.41 3.92
1 8 -12 78.96 1.91
-1 -8 12 77.25 3.71
-1 -8 11 27.84 2.09
-1 -8 11 29.16 1.99
-1 -8 11 29.49 3.24
-1 -8 11 34.48 2.62
-1 -8 11 27.57 2.22
-1 -8 11 28 2.19
1 8 -11 27.89 0.98
-1 -8 10 4.64 2.01
1 8 -10 2.9 0.31
-1 -8 10 3.25 0.73
-1 -8 10 2.23 1.04
-1 -8 10 3.15 0.72
-1 -8 10 2.41 0.7
-1 -8 10 1.96 0.54
1 8 -9 0.52 0.18
-1 -8 9 0.85 0.8
-1 -8 8 42.24 3.83
1 8 -8 44.81 1.07
1 8 -7 24.22 0.74
-1 -8 7 24.08 2.74
-1 -8 7 23.65 2.21
-1 -8 6 137.58 6.06
1 8 -6 145.28 3.03
-1 -8 6 141.93 6.67
-1 -8 5 4.92 1.17
1 8 -5 5.93 0.29
-1 -8 5 6.17 1.11
-1 -8 4 5.54 1.11
-1 -8 4 6.53 1.28
1 8 -4 6.71 0.33
-1 -8 3 14.67 1.71
1 8 -3 13.4 0.5
-1 -8 3 11.56 1.68
-1 -8 2 1.16 0.45
1 8 -2 0.78 0.16
-1 -8 2 0.85 0.71
-1 -8 1 0.73 0.37
-1 -8 1 1.06 0.81
1 8 -1 1.27 0.19
-1 -8 0 45.83 3.7
1 8 0 48.57 1.2
1 8 1 7.43 0.41
-1 -8 -1 6.15 1.39
1 8 2 0.16 0.14
-1 -8 -2 0.03 0.85
-1 -8 -3 7.14 1.95
1 8 3 7.65 0.46
-1 -8 -4 6.85 1.76
1 8 4 7.53 1.61
1 8 4 9.63 0.55
-1 -8 -5 43.34 4.06
1 8 5 45.35 3.79
-1 -8 -6 23.12 3.07
1 8 6 -0.09 0.76
-1 -8 -7 4.55 3.71
1 8 7 4 0.82
-1 -8 -7 5.82 1.37
-1 -8 -7 5.74 0.85
-1 -8 -7 7.17 1.76
-1 -8 -7 5.35 1.12
1 8 8 64.86 3.36
-1 -8 -8 76.44 12.92
1 8 8 69.77 3.62
-1 -8 -8 69.02 4.32
-1 -8 -8 64.97 3.82
1 8 9 0.64 0.51
-1 -8 -9 1.62 0.82
1 8 9 -0.36 0.68
-1 -8 -9 1.17 0.83
-1 -8 -9 0.55 3.2
1 8 10 32.67 2.75
-1 -8 -10 32.47 2.91
-1 -8 -10 31.6 2.79
-1 -8 -10 27.97 7.92
1 8 10 31.49 2.48
1 8 11 8.5 1.44
1 8 11 7.05 1.25
-1 -8 -11 7.86 1.57
-1 -8 -11 10.97 5.48
-1 -8 -12 28.68 7.69
1 8 12 26.24 2.21
1 8 12 23.82 7.39
-1 -8 -12 28.8 2.57
1 8 12 27.26 2.37
1 8 13 7.08 2.99
1 8 13 8.51 1.2
-1 -8 -13 8.41 1.34
-1 -8 -13 5.2 3.68
1 8 14 27.08 1.79
-1 -8 -14 24.37 5.74
-1 -8 -14 30.03 2.08
1 8 14 20.62 4.72
-1 -8 -15 2.03 1.73
1 8 15 1.69 0.42
-1 -8 -15 2.33 0.5
-1 -9 18 0.09 0.26
-1 -9 17 0.13 0.28
-1 -9 17 -0.09 0.31
-1 -9 17 0.04 0.42
-1 -9 16 21.54 1.67
-1 -9 16 18.94 1.45
-1 -9 15 18.43 1.45
-1 -9 15 15.7 1.51
-1 -9 14 33.31 2.24
-1 -9 14 32.32 2.2
-1 -9 13 7.46 1.14
-1 -9 13 5.74 1.02
-1 -9 13 4.92 0.87
-1 -9 12 1.85 0.57
-1 -9 12 2.89 0.78
-1 -9 12 2.01 0.72
1 9 -12 2.03 0.26
-1 -9 12 3.35 0.85
-1 -9 11 19.3 1.93
-1 -9 11 20.54 1.84
-1 -9 11 21.04 1.93
1 9 -11 17.88 0.75
-1 -9 11 18.55 1.76
-1 -9 10 68.69 3.53
-1 -9 10 73.89 3.49
-1 -9 10 60.87 3.59
1 9 -10 67.27 1.71
-1 -9 10 68.54 3.43
-1 -9 10 62.27 4.89
-1 -9 10 65.76 3.33
1 9 -9 31.68 1.04
-1 -9 9 30.34 2.22
-1 -9 9 31.49 2.17
-1 -9 9 32.04 2.15
-1 -9 9 28.5 3.26
-1 -9 9 31.97 2.77
-1 -9 9 31.96 2.16
1 9 -8 26.38 0.78
-1 -9 8 27.63 3.13
1 9 -7 31.04 0.92
-1 -9 7 30.54 3.18
1 9 -6 65.1 1.55
-1 -9 6 61.68 4.39
-1 -9 5 2.27 0.84
-1 -9 5 2.52 0.9
1 9 -5 1.73 0.19
-1 -9 4 8.68 1.53
-1 -9 4 11.19 1.64
1 9 -4 13.72 0.53
-1 -9 3 12.39 1.61
-1 -9 3 10.67 1.77
1 9 -3 12.09 0.51
-1 -9 2 0.08 0.34
-1 -9 2 -0.28 0.52
1 9 -2 0 0.13
-1 -9 1 -0.06 0.52
1 9 -1 0.07 0.14
-1 -9 0 14.15 2.27
1 9 0 16.84 0.66
1 9 1 58.71 1.48
-1 -9 -1 50.71 4.31
1 9 2 2.48 0.3
-1 -9 -2 4.13 1.4
1 9 3 20 0.85
-1 -9 -3 16.38 2.69
1 9 4 1.81 0.36
-1 -9 -4 2.39 1.05
1 9 4 0.63 0.61
-1 -9 -5 41.3 8.09
-1 -9 -5 47.39 2.6
-1 -9 -5 44.57 4.35
-1 -9 -5 44.85 2.74
1 9 5 45.35 3.86
-1 -9 -6 73.21 11.6
1 9 6 78.4 3.37
-1 -9 -6 72.86 3.78
-1 -9 -6 71.81 3.38
-1 -9 -6 73.42 5.6
-1 -9 -6 82.78 4.78
-1 -9 -7 89.94 5.22
-1 -9 -7 73.9 5.66
-1 -9 -7 83.58 3.63
1 9 7 85.57 3.9
-1 -9 -7 80.19 4.22
-1 -9 -7 83.22 13.14
-1 -9 -8 34.75 3.28
-1 -9 -8 36.73 9.2
-1 -9 -8 32.59 2.18
1 9 8 33.1 2.47
-1 -9 -8 35.41 2.95
-1 -9 -9 5.32 1.48
-1 -9 -9 5.82 4.46
1 9 9 4 0.9
1 9 9 5.58 1.12
-1 -9 -9 4.12 1.19
1 9 10 2.17 0.74
1 9 10 1.6 0.78
-1 -9 -10 -0.78 3.15
-1 -9 -10 1.91 0.85
-1 -9 -11 1.21 2.27
-1 -9 -11 1.27 0.74
1 9 11 2.61 0.85
1 9 11 0.92 0.67
1 9 11 4.02 3.5
1 9 12 8.48 1.13
-1 -9 -12 2.01 1.73
-1 -9 -12 9.23 1.42
1 9 12 10.04 4.66
1 9 13 -1.2 2.38
1 9 13 -0.44 0.41
-1 -9 -13 -0.28 0.49
-1 -9 -13 2.61 2.48
-1 -9 -14 3.06 0.63
-1 -9 -14 1.98 1.93
1 9 14 2.27 0.41
1 9 14 3.36 1.94
-1 -9 -14 2.61 0.49
-1 -10 17 125.68 3.76
-1 -10 17 121.97 3.44
-1 -10 16 35.08 2.02
-1 -10 16 31.97 1.53
-1 -10 16 31.21 2.01
-1 -10 15 -0.24 0.41
-1 -10 15 0.38 0.56
-1 -10 14 14.72 1.49
-1 -10 13 12.2 1.48
-1 -10 13 13.12 1.45
-1 -10 12 0.32 0.49
1 10 -12 0.15 0.14
-1 -10 12 -0.13 0.45
-1 -10 12 0.01 0.46
-1 -10 11 67.5 3.57
-1 -10 11 65.17 3.69
-1 -10 11 66.48 3.57
-1 -10 11 64.34 3.42
1 10 -11 66.94 1.68
-1 -10 10 30.57 2.34
-1 -10 10 32.22 2.48
1 10 -10 31 1.03
-1 -10 10 31.92 2.39
-1 -10 10 28.2 3.23
-1 -10 10 30.49 2.26
1 10 -9 80.66 1.96
-1 -10 9 71.53 5.21
-1 -10 9 82.82 3.94
-1 -10 9 79.61 3.76
-1 -10 9 81.22 3.78
-1 -10 9 81.51 3.77
-1 -10 8 11.11 2.25
1 10 -8 11.88 0.51
-1 -10 8 16.14 7.54
-1 -10 8 10.55 1.27
-1 -10 8 11.8 1.36
-1 -10 8 10.22 1.32
-1 -10 8 10.37 1.94
-1 -10 8 11.67 1.39
-1 -10 7 1.96 0.59
-1 -10 7 1.73 0.57
-1 -10 7 1.45 0.72
1 10 -7 1.52 0.22
-1 -10 7 1.9 0.5
-1 -10 7 1.87 0.66
-1 -10 7 1.21 1.1
1 10 -6 3.83 0.33
-1 -10 6 2.42 1
1 10 -5 0.03 0.15
-1 -10 5 -0.11 0.49
1 10 -5 0.11 0.15
-1 -10 4 33.06 3.09
-1 -10 4 32.48 2.86
-1 -10 3 136.78 5.83
-1 -10 3 131.86 6.95
1 10 -2 22.72 0.83
-1 -10 2 17.09 2.46
-1 -10 1 0.85 0.96
1 10 -1 0.2 0.17
-1 -10 0 -0.52 0.95
1 10 0 0.33 0.19
-1 -10 -1 142.92 8.15
1 10 1 190.19 3.87
1 10 2 0.5 0.27
-1 -10 -2 -0.14 0.72
-1 -10 -3 8.42 1.17
-1 -10 -3 5.5 1.66
1 10 3 6.7 0.59
-1 -10 -4 1.88 0.66
1 10 4 0.82 0.54
-1 -10 -4 1.55 2.52
1 10 4 2.14 0.99
-1 -10 -4 1.55 0.54
-1 -10 -4 1.1 1.01
-1 -10 -5 -0.55 1.07
1 10 5 0.57 0.89
-1 -10 -5 -0.36 0.55
-1 -10 -5 0.59 1.09
-1 -10 -5 1.66 2.27
-1 -10 -5 0.06 0.43
-1 -10 -6 3.76 0.93
-1 -10 -6 2.87 1.24
-1 -10 -6 3.86 0.88
-1 -10 -6 4.77 1.64
1 10 7 -0.12 0.48
-1 -10 -7 -0.11 1.15
-1 -10 -7 0.65 0.76
-1 -10 -7 -1.26 3.52
-1 -10 -7 0.28 0.49
1 10 8 13.95 1.53
-1 -10 -8 8.94 4.7
-1 -10 -8 12.78 1.36
-1 -10 -8 13.55 1.83
-1 -10 -8 14.51 2.39
-1 -10 -9 41.15 3.18
-1 -10 -9 39.6 9.14
-1 -10 -9 41.44 3.66
1 10 9 43.02 2.77
-1 -10 -10 78.92 12.84
-1 -10 -10 70.21 4.13
1 10 10 68.93 12.95
1 10 10 76.22 3.72
-1 -10 -11 6.95 4.11
-1 -10 -11 4.41 0.98
1 10 11 6.27 4.15
-1 -10 -12 1.11 0.72
1 10 12 0.08 1.44
-1 -10 -12 2.75 2
-1 -10 -13 2.17 1.26
-1 -10 -13 0.33 0.38
1 10 13 1.6 1.37
-1 -10 -13 0.2 0.45
-1 -10 -14 3.7 1.68
-1 -10 -14 3.54 0.49
-1 -11 17 18.6 1.06
-1 -11 17 20.49 1.06
-1 -11 16 15.34 0.97
-1 -11 16 15.34 1.23
-1 -11 16 15.99 1.26
-1 -11 15 19.59 1.58
-1 -11 15 21.12 1.54
-1 -11 15 22.42 1.74
-1 -11 14 43.08 2.71
-1 -11 14 42.28 2.52
-1 -11 13 28.97 2.24
-1 -11 13 29.65 2.16
-1 -11 12 4.48 0.95
-1 -11 12 4.17 0.94
-1 -11 12 4.39 0.9
1 11 -11 8.56 0.49
-1 -11 11 12.53 1.53
-1 -11 11 10.12 1.42
-1 -11 11 10.37 1.34
-1 -11 11 9.55 1.41
-1 -11 10 80.28 3.97
-1 -11 10 76.82 3.84
-1 -11 10 73.47 4.65
-1 -11 10 78.15 4.02
1 11 -10 76.09 1.86
-1 -11 10 78.26 3.88
-1 -11 9 103.24 4.48
-1 -11 9 106.36 4.61
-1 -11 9 105.31 4.53
-1 -11 9 106.23 4.74
-1 -11 9 104.56 5.14
1 11 -9 105.05 2.39
-1 -11 8 53.67 3.06
-1 -11 8 50.27 3.08
-1 -11 8 52.81 3.04
1 11 -8 53.34 1.35
-1 -11 8 47.03 4.15
-1 -11 8 51.99 2.98
-1 -11 7 0.16 0.58
-1 -11 7 -0.06 0.53
-1 -11 7 0.9 0.54
-1 -11 7 0.67 1.75
-1 -11 7 0.69 0.61
1 11 -7 0.28 0.15
-1 -11 7 1.58 10.42
-1 -11 7 0.62 0.5
-1 -11 7 0.62 0.47
-1 -11 6 3.61 0.84
1 11 -6 2.64 0.29
-1 -11 6 4.07 1.19
-1 -11 6 5.26 0.94
-1 -11 6 0.82 1
-1 -11 6 2.78 0.76
-1 -11 6 2.77 0.66
-1 -11 5 24.93 2.64
-1 -11 5 23.41 1.83
-1 -11 5 30.39 10.37
-1 -11 5 24.63 1.92
1 11 -5 24.67 0.89
-1 -11 5 23.31 1.73
-1 -11 5 23.37 1.9
-1 -11 5 22.03 1.72
1 11 -5 24.36 0.9
-1 -11 4 25.97 11.17
1 11 -4 29.19 1.02
1 11 -4 37.5 1.19
-1 -11 4 28.81 1.94
-1 -11 4 26.6 2.03
-1 -11 4 24.81 2.8
-1 -11 4 27.14 2.01
-1 -11 3 66.06 3.25
-1 -11 3 59.96 4.6
-1 -11 3 62.66 2.9
1 11 -3 79.4 1.92
-1 -11 3 63.55 3.24
-1 -11 3 71.44 16.05
-1 -11 2 2.04 0.58
-1 -11 2 0.59 0.83
-1 -11 2 1.64 13.09
1 11 -2 2.38 0.33
-1 -11 2 2.42 0.71
-1 -11 1 7.05 1.05
-1 -11 1 8.28 1.13
-1 -11 1 6.97 1.09
1 11 -1 8.79 0.58
-1 -11 1 6.03 1.75
-1 -11 0 31.58 2.21
-1 -11 0 34.36 2.38
-1 -11 0 26.15 11.87
-1 -11 0 30.58 3.68
-1 -11 0 31.62 2.28
1 11 0 41.82 1.43
1 11 1 0.58 0.29
-1 -11 -1 0.44 0.5
-1 -11 -1 -0.29 0.54
-1 -11 -1 -0.78 0.88
-1 -11 -2 20.08 5.63
-1 -11 -2 19.82 1.85
-1 -11 -2 14.86 2.64
1 11 2 13.67 0.88
-1 -11 -3 1.25 0.62
1 11 3 -0.43 0.45
-1 -11 -3 -0.63 1.02
1 11 3 2.31 1.16
-1 -11 -3 1.02 2.4
-1 -11 -4 9.86 1.32
-1 -11 -4 13.89 6.22
1 11 4 15.02 2.49
-1 -11 -4 9.23 2.23
-1 -11 -4 10.05 1.38
-1 -11 -4 8.99 1.89
-1 -11 -5 41.07 9.27
-1 -11 -5 46.28 3
-1 -11 -5 40 2.83
-1 -11 -5 45.38 3.93
-1 -11 -6 279.67 8.86
-1 -11 -6 300.14 11.06
-1 -11 -6 288.66 8.37
-1 -11 -6 285.46 24.91
-1 -11 -7 8.77 1.27
-1 -11 -7 8.44 2
-1 -11 -7 9.4 4.67
-1 -11 -7 8.18 1.42
-1 -11 -8 35.48 3.44
-1 -11 -8 28.57 7.7
-1 -11 -8 35.93 2.91
-1 -11 -8 32.02 2.14
1 11 8 25.11 8.32
1 11 9 60.55 2.87
-1 -11 -9 58.15 3.65
-1 -11 -9 49.27 10.01
1 11 9 56.56 11.36
1 11 10 37.87 9.18
-1 -11 -10 35.98 8.09
-1 -11 -10 43.3 2.97
-1 -11 -11 1.03 1.76
1 11 11 -0.95 2.2
-1 -11 -11 -0.03 0.44
-1 -11 -12 0.82 0.44
-1 -11 -12 -0.99 1.62
1 11 12 0.47 1.12
-1 -11 -12 0.67 0.42
-1 -11 -13 2.64 0.37
-1 -11 -13 2.87 1.48
-1 -11 -13 4.43 0.58
-1 -12 16 21.04 1.15
-1 -12 16 22.81 1.33
-1 -12 16 21.81 1.05
-1 -12 15 93.11 3.47
-1 -12 15 94.07 3.19
-1 -12 14 5.82 1.02
-1 -12 14 5.62 0.92
-1 -12 14 4.38 0.75
-1 -12 13 48.67 2.83
-1 -12 13 48.83 2.63
-1 -12 13 48.55 2.9
-1 -12 12 2.21 0.68
-1 -12 12 2.27 0.76
-1 -12 12 2.12 0.68
-1 -12 12 2.6 0.7
-1 -12 11 32.77 2.51
-1 -12 11 33.51 2.6
-1 -12 11 36.64 2.52
-1 -12 11 37.38 2.56
-1 -12 10 2.31 0.79
-1 -12 10 2.16 0.8
-1 -12 10 2.77 0.69
-1 -12 10 3.45 0.89
-1 -12 9 90.06 4.22
-1 -12 9 92.51 4.29
-1 -12 9 87.22 4.37
-1 -12 9 86.55 4.19
-1 -12 9 85 4.95
-1 -12 9 75.18 15.06
1 12 -9 87.47 2.06
-1 -12 8 15.87 3.3
-1 -12 8 19.59 1.92
-1 -12 8 17.68 1.86
1 12 -8 17.44 0.68
-1 -12 8 18.08 1.82
-1 -12 8 17.88 1.8
-1 -12 8 17.18 14.79
-1 -12 7 6.98 2.67
1 12 -7 5.93 0.41
-1 -12 7 5.44 1.01
-1 -12 7 5.66 1.04
-1 -12 7 5.26 0.99
-1 -12 7 6.03 1.12
-1 -12 7 2.3 16.12
-1 -12 7 5.61 0.95
-1 -12 7 5.69 1.12
-1 -12 6 52.9 2.85
-1 -12 6 45.29 16.82
-1 -12 6 47.73 3.65
-1 -12 6 54.7 3.12
-1 -12 6 50.72 2.65
1 12 -6 55.39 1.48
-1 -12 6 55.33 3.37
-1 -12 6 55.23 3.22
-1 -12 6 50.69 2.84
-1 -12 5 -0.03 0.42
-1 -12 5 -0.39 0.52
-1 -12 5 0.79 1.14
1 12 -5 0.29 0.27
-1 -12 5 0.18 0.47
-1 -12 5 1.18 0.94
1 12 -5 0.8 0.21
-1 -12 5 0.98 0.53
-1 -12 4 34.31 16.99
-1 -12 4 32.35 2.35
-1 -12 4 31.85 2.17
-1 -12 4 29.14 2.3
-1 -12 4 31.74 2.35
1 12 -4 30.52 1.03
-1 -12 4 30.72 2.23
-1 -12 4 29.95 1.87
1 12 -4 17.82 0.97
-1 -12 3 38.51 2.61
1 12 -3 31.37 1.32
-1 -12 3 33.48 2.87
-1 -12 3 41.41 18.39
-1 -12 3 36.8 2.52
-1 -12 3 36.49 2.45
-1 -12 3 36.26 3.72
1 12 -3 40.22 1.24
-1 -12 3 37.9 2.26
-1 -12 2 67.16 3.46
-1 -12 2 64.3 3.42
-1 -12 2 65.75 18.23
-1 -12 2 62.47 2.91
1 12 -2 58.15 1.92
-1 -12 2 67.57 3.45
-1 -12 2 56.24 4.78
-1 -12 1 313.89 30.45
-1 -12 1 403.36 10.11
-1 -12 1 379.33 8.67
-1 -12 1 399.54 10.15
-1 -12 1 415.47 10.17
-1 -12 1 373.78 13.52
1 12 -1 318.27 7.09
-1 -12 0 201.38 6.4
-1 -12 0 206.1 6.55
-1 -12 0 207.12 6.54
-1 -12 0 210.4 17.44
-1 -12 0 204.68 6.59
-1 -12 0 194.46 9.43
1 12 1 7.57 0.75
-1 -12 -1 19.62 2.16
-1 -12 -1 16.12 5.34
-1 -12 -1 17.53 1.85
-1 -12 -1 20.05 2.05
-1 -12 -1 16.9 1.78
-1 -12 -1 18.25 2.89
-1 -12 -2 22.86 2.13
-1 -12 -2 25.14 2.18
-1 -12 -2 25.22 2.23
1 12 2 27.02 3.57
1 12 3 99.94 13.52
-1 -12 -3 97.42 4.55
-1 -12 -3 99.6 6.21
-1 -12 -3 89.98 12.75
-1 -12 -4 26.13 2.12
-1 -12 -4 32.02 3.96
1 12 4 18.26 6.15
-1 -12 -4 24.69 7.06
-1 -12 -4 32.62 2.51
-1 -12 -5 188.07 8.66
-1 -12 -5 158.01 18.11
-1 -12 -5 168.5 6.1
-1 -12 -5 181.08 6.4
1 12 5 172.87 19.48
-1 -12 -6 15 1.66
1 12 6 8.92 4.06
-1 -12 -6 15.02 2.59
-1 -12 -6 13.17 1.67
-1 -12 -6 14.06 5.71
-1 -12 -7 31.5 3.36
-1 -12 -7 30.09 2.2
-1 -12 -7 31.08 2.58
1 12 7 34.84 9.37
1 12 8 12.25 5.29
-1 -12 -8 16.43 1.45
-1 -12 -8 8.71 4.05
-1 -12 -8 15.61 2.28
-1 -12 -8 16.11 1.79
-1 -12 -9 0.97 0.42
1 12 9 -1.31 2.72
-1 -12 -9 -1.7 2.69
-1 -12 -9 0.61 0.5
1 12 10 21.11 5.9
-1 -12 -10 19.8 5.42
-1 -12 -10 26.82 2.31
-1 -12 -10 19.36 1.74
-1 -12 -11 -1.19 1.8
-1 -12 -11 -0.39 0.46
-1 -12 -11 -0.53 0.37
-1 -12 -11 -0.11 0.29
-1 -12 -12 2.44 0.44
-1 -12 -12 2.98 0.49
1 12 12 3.26 1.68
-1 -12 -12 1.41 0.3
-1 -12 -12 3.02 1.19
-1 -13 16 16.36 0.89
-1 -13 15 46.13 2.05
-1 -13 15 48.37 1.93
-1 -13 14 0.59 0.34
-1 -13 14 1.42 0.48
-1 -13 14 1.29 0.49
-1 -13 13 16.31 1.37
-1 -13 13 16.86 1.58
-1 -13 13 15.09 1.47
-1 -13 13 15.07 1.14
-1 -13 12 1.54 0.64
-1 -13 12 1.24 0.56
-1 -13 12 1.47 0.56
-1 -13 12 0.63 0.44
-1 -13 11 75.5 3.78
-1 -13 11 74.91 3.71
-1 -13 11 78.25 3.88
-1 -13 11 77.63 3.67
-1 -13 11 80.75 3.74
-1 -13 10 37.35 2.55
-1 -13 10 38.16 2.69
-1 -13 10 39.03 2.6
-1 -13 10 39.44 2.63
-1 -13 10 39.45 2.77
-1 -13 9 8.06 1.25
-1 -13 9 7.69 1.25
-1 -13 9 7.71 1.27
-1 -13 9 6.72 1.09
-1 -13 9 8.42 1.26
-1 -13 8 41.56 2.89
-1 -13 8 40.25 2.74
-1 -13 8 38.66 2.46
-1 -13 8 40.8 4.35
-1 -13 8 40.7 2.73
-1 -13 8 29.79 14.06
-1 -13 8 40.53 2.75
-1 -13 7 -0.65 1.54
-1 -13 7 -0.17 0.54
-1 -13 7 0.23 0.47
-1 -13 7 -0.39 0.52
1 13 -7 0.34 0.19
-1 -13 7 0.27 0.46
-1 -13 7 0.63 0.47
1 13 -6 30 1
-1 -13 6 29.72 2.19
-1 -13 6 29.79 2.41
-1 -13 6 27.79 3.41
-1 -13 6 31.51 19.74
-1 -13 6 28.16 2.32
-1 -13 6 30.44 2.81
-1 -13 6 30.25 2.44
-1 -13 5 153.7 5.54
-1 -13 5 151.31 5.89
-1 -13 5 146.8 23.43
1 13 -5 153.23 3.2
-1 -13 5 156.21 5.85
-1 -13 5 152.4 5.68
-1 -13 5 145.91 5.01
-1 -13 4 23.83 2.12
-1 -13 4 25.67 1.78
-1 -13 4 25.37 2.22
1 13 -4 24.16 0.93
-1 -13 4 24.31 2.15
-1 -13 4 26.2 2.37
-1 -13 3 94.8 4.23
1 13 -3 94.4 1.85
-1 -13 3 92.47 4.22
-1 -13 3 85.96 3.63
-1 -13 3 96.59 4.31
-1 -13 2 15.64 1.7
-1 -13 2 17.59 1.83
-1 -13 2 14.79 1.75
-1 -13 2 16.6 1.79
1 13 -2 16.2 0.73
1 13 -1 220.48 3.21
-1 -13 1 236.22 7.09
-1 -13 1 218.16 5.28
-1 -13 1 241.02 6.92
-1 -13 1 236.13 6.93
1 13 0 40.45 1.26
-1 -13 0 37.18 2.76
-1 -13 0 45.07 4.73
-1 -13 0 41.46 3.03
-1 -13 0 37.59 2.8
-1 -13 -1 100.64 12.52
-1 -13 -1 108.03 5.03
-1 -13 -1 109.21 5.02
-1 -13 -1 106.27 4.97
-1 -13 -1 107.49 4.85
1 13 1 108.89 2.46
-1 -13 -1 125.16 7.13
-1 -13 -2 25.25 2.35
-1 -13 -2 24.13 4.19
-1 -13 -2 23.44 6.15
-1 -13 -2 24.96 2.49
-1 -13 -2 23.81 2.26
1 13 2 21.65 0.84
-1 -13 -2 22.19 2.13
-1 -13 -3 1.74 0.81
-1 -13 -3 2.5 0.8
1 13 3 2 0.26
-1 -13 -3 1.2 0.58
-1 -13 -3 1.9 0.71
-1 -13 -4 25.21 2.31
-1 -13 -4 21.68 2.07
-1 -13 -4 25 2.66
1 13 4 24.55 7.22
-1 -13 -4 27.39 2.34
-1 -13 -4 19.01 6.36
-1 -13 -4 29.01 3.83
-1 -13 -5 3.76 0.89
1 13 5 3.21 2.78
-1 -13 -5 3.64 0.85
-1 -13 -5 4.18 1.95
-1 -13 -5 -0.64 2.38
-1 -13 -5 4.37 1.02
-1 -13 -5 3.98 0.83
-1 -13 -5 5.47 1.46
-1 -13 -6 12.1 1.93
-1 -13 -6 11.45 1.43
-1 -13 -6 10.94 2.1
-1 -13 -6 10.13 4.27
-1 -13 -6 8.7 1.21
-1 -13 -6 11.53 1.45
-1 -13 -6 12.25 1.56
1 13 6 10.69 4.63
-1 -13 -7 1.42 0.55
-1 -13 -7 1.91 0.66
-1 -13 -7 2.18 0.98
-1 -13 -7 0.9 0.88
-1 -13 -7 1.67 0.66
1 13 7 3.95 2.47
-1 -13 -7 1.08 1.76
-1 -13 -7 1.66 0.58
-1 -13 -8 10.22 1.03
-1 -13 -8 11.44 1.07
-1 -13 -8 11.43 1.34
-1 -13 -8 13.18 1.75
1 13 8 12.38 4.26
-1 -13 -8 10.04 4.11
-1 -13 -8 10.86 1.3
-1 -13 -9 6.43 0.97
1 13 9 4.36 3.2
-1 -13 -9 6.27 0.89
-1 -13 -9 6.85 1.16
-1 -13 -9 1.91 1.43
-1 -13 -10 20.13 1.63
-1 -13 -10 16.09 1.17
-1 -13 -10 13.01 3.48
-1 -13 -10 17.29 1.27
1 13 10 15.37 4.25
-1 -13 -11 19.76 1.21
1 13 11 22.54 3.72
-1 -14 15 9.45 0.69
-1 -14 14 16.68 1.17
-1 -14 14 19.5 1.28
-1 -14 13 13.98 1.09
-1 -14 13 12.44 1.17
-1 -14 13 15.13 1.33
-1 -14 12 13.03 1.28
-1 -14 12 13.19 1.24
-1 -14 12 13.69 1.37
-1 -14 11 8.42 1.18
-1 -14 11 8.51 1.11
-1 -14 11 8.98 1.12
-1 -14 11 9.11 1.16
-1 -14 10 0.79 0.51
-1 -14 10 0.97 0.57
-1 -14 10 1.57 0.73
-1 -14 10 0.54 0.5
-1 -14 10 1.25 0.55
-1 -14 9 25.32 2.06
-1 -14 9 25.2 2.17
-1 -14 9 23.71 2
-1 -14 9 25.31 2.13
-1 -14 9 21.98 1.78
-1 -14 8 1.06 0.62
-1 -14 8 1.58 0.71
-1 -14 8 1.4 0.64
-1 -14 8 1.12 0.43
-1 -14 8 1.48 0.76
-1 -14 7 0.53 0.5
-1 -14 7 -0.4 0.53
-1 -14 7 0.27 0.62
-1 -14 7 0.28 0.56
-1 -14 6 38.67 2.71
-1 -14 6 39.53 2.51
-1 -14 6 40.36 2.82
-1 -14 6 43.25 4.21
-1 -14 6 36.47 2.71
-1 -14 6 40.5 2.48
-1 -14 5 196.44 5.8
-1 -14 5 197.53 6.89
-1 -14 5 189.72 6.6
-1 -14 5 203.77 6.84
1 14 -5 199.4 3.96
-1 -14 5 202.26 6.94
-1 -14 4 1.55 2.51
-1 -14 4 0.14 0.45
1 14 -4 -0.32 0.19
-1 -14 4 -0.58 0.67
-1 -14 4 0.16 0.5
-1 -14 3 175.27 6.45
-1 -14 3 174.13 6.26
-1 -14 3 161.46 5.66
1 14 -3 166.66 3.47
-1 -14 3 171.65 6.35
1 14 -2 83.83 2.04
-1 -14 2 89.83 4.4
-1 -14 2 90.18 5.25
-1 -14 2 82.42 3.82
-1 -14 2 86.44 4.22
-1 -14 2 89.7 4.53
-1 -14 1 13.98 1.69
-1 -14 1 12.69 1.6
-1 -14 1 10.85 1.83
1 14 -1 12.27 0.63
-1 -14 1 12.92 1.7
-1 -14 0 202.96 8.94
-1 -14 0 205.83 7.13
-1 -14 0 204.13 7.09
-1 -14 0 209.65 7.41
-1 -14 -1 3.84 0.96
-1 -14 -1 3.79 0.94
-1 -14 -1 3.6 0.94
-1 -14 -1 4.81 3.41
-1 -14 -1 3.67 1.01
-1 -14 -2 2.18 0.89
-1 -14 -2 1.75 0.71
-1 -14 -2 2.17 0.87
-1 -14 -2 1.12 2.63
-1 -14 -2 2.91 0.96
-1 -14 -3 0.28 2.06
-1 -14 -3 0.14 0.51
-1 -14 -3 -1.52 2.43
-1 -14 -3 0.28 0.45
-1 -14 -3 -0.97 0.57
-1 -14 -3 -0.34 0.53
-1 -14 -4 61.33 3.49
-1 -14 -4 52.07 9.34
-1 -14 -4 58.63 3.86
-1 -14 -4 52.64 3.08
1 14 4 63.56 9.61
-1 -14 -4 57.57 3.34
-1 -14 -4 59.13 4.7
-1 -14 -5 17.88 1.75
-1 -14 -5 16.45 1.97
-1 -14 -5 17.26 2.53
-1 -14 -5 15.75 1.57
-1 -14 -5 18.37 1.77
1 14 5 10.78 3.87
-1 -14 -5 12.75 4.13
-1 -14 -6 2.39 0.68
-1 -14 -6 1.93 0.61
-1 -14 -6 2.47 0.88
-1 -14 -6 1.03 1.85
-1 -14 -6 1.58 0.51
1 14 6 0.55 2.13
-1 -14 -6 2.12 1.23
1 14 7 2.38 3.35
-1 -14 -7 0.02 0.55
-1 -14 -7 2.25 0.56
-1 -14 -7 -0.03 0.26
-1 -14 -7 0.62 0.46
-1 -14 -7 -0.55 1.65
-1 -14 -7 0.46 0.34
-1 -14 -8 63.55 2.48
-1 -14 -8 77.57 3.55
1 14 8 82.16 9.59
-1 -14 -8 67.52 2.24
-1 -14 -8 63.8 7.8
-1 -14 -8 66.21 2.74
-1 -14 -8 59.79 2.03
-1 -14 -9 0.3 0.26
1 14 9 1.24 1.22
-1 -14 -9 0.18 0.37
-1 -15 14 -0.18 0.22
-1 -15 13 -0.56 0.32
-1 -15 13 -0.45 0.27
-1 -15 12 7.13 0.93
-1 -15 12 8.48 0.86
-1 -15 12 7.27 0.8
-1 -15 11 -0.16 0.39
-1 -15 11 0.5 0.36
-1 -15 11 0.51 0.38
-1 -15 11 0.65 0.41
-1 -15 10 1.11 0.48
-1 -15 10 0.87 0.4
-1 -15 10 1.2 0.6
-1 -15 10 1.11 0.57
-1 -15 10 0.51 0.4
-1 -15 9 1.91 0.49
-1 -15 9 2.54 0.72
-1 -15 9 2.45 0.67
-1 -15 9 1.56 0.57
-1 -15 9 2.46 0.69
-1 -15 8 5.46 0.95
-1 -15 8 5.56 1.02
-1 -15 8 5.78 1.01
-1 -15 8 5.48 0.92
-1 -15 7 38.21 2.59
-1 -15 7 36.16 2.54
-1 -15 7 32.11 3.21
-1 -15 7 38.96 2.5
-1 -15 7 34.35 2.21
-1 -15 6 34.74 2.5
-1 -15 6 36.61 2.58
-1 -15 6 35.52 2.11
-1 -15 6 32.82 2.21
-1 -15 6 37.03 3.54
-1 -15 6 36.64 2.48
-1 -15 5 9.52 1.36
-1 -15 5 8.04 1.21
-1 -15 5 10.45 1.46
-1 -15 5 8.31 1.23
-1 -15 5 8.87 2.82
-1 -15 4 37.82 3.44
-1 -15 4 34.32 2.59
-1 -15 4 40 2.68
-1 -15 4 37.89 2.73
-1 -15 3 119.31 5.2
-1 -15 3 117.67 4.86
-1 -15 3 107.53 4.61
-1 -15 3 118.27 5.04
-1 -15 2 44.17 3.09
-1 -15 2 44.19 3.61
-1 -15 2 44.02 2.93
-1 -15 2 45.41 2.93
-1 -15 2 41.28 2.93
-1 -15 1 6.75 2.75
-1 -15 1 3.78 0.92
-1 -15 1 3.96 0.99
-1 -15 1 4.78 1.01
-1 -15 0 0.57 0.47
-1 -15 0 1.8 2.11
-1 -15 0 1.88 0.74
-1 -15 0 2.33 0.77
-1 -15 -1 30.37 3.5
-1 -15 -1 27 2.17
-1 -15 -1 27.99 2.27
-1 -15 -1 28.68 2.43
-1 -15 -1 29.12 2.31
-1 -15 -2 29.97 2.28
-1 -15 -2 29.56 2.24
-1 -15 -2 30.46 3.17
-1 -15 -2 34.15 2.6
-1 -15 -2 29.7 2.36
-1 -15 -3 17.81 1.73
-1 -15 -3 17.94 1.83
-1 -15 -3 15.7 1.78
-1 -15 -3 15.31 1.57
-1 -15 -3 16.49 2.5
-1 -15 -4 14.21 1.45
-1 -15 -4 12.89 1.36
-1 -15 -4 16.5 2.25
-1 -15 -4 14.93 1.7
-1 -15 -4 16.52 1.64
-1 -15 -5 0.25 0.28
-1 -15 -5 0.53 0.86
-1 -15 -5 0.54 0.52
-1 -15 -5 0.63 0.39
-1 -15 -5 0.18 0.37
-1 -15 -6 0.05 0.3
-1 -15 -6 0.43 0.36
-1 -15 -6 0.39 0.3
-1 -15 -6 0.55 0.52
-1 -15 -7 44.11 2.36
1 15 7 43.07 5.49
-1 -15 -7 38.19 1.78
-1 -15 -7 39.85 1.65
-1 -15 -8 -0.11 0.31
-1 -15 -8 0.15 0.18
-1 -16 12 3.27 0.5
-1 -16 12 3.59 0.43
-1 -16 11 0.19 0.28
-1 -16 11 0.25 0.24
-1 -16 10 10.45 1.04
-1 -16 10 12.64 1.07
-1 -16 10 12.27 1.1
-1 -16 9 2.36 0.62
-1 -16 9 2.71 0.6
-1 -16 9 2.9 0.63
-1 -16 9 2.67 0.62
-1 -16 8 6.6 0.97
-1 -16 8 5 0.86
-1 -16 8 4.68 0.81
-1 -16 8 5.21 0.77
-1 -16 7 51.41 2.77
-1 -16 7 48.71 2.27
-1 -16 7 55.55 2.74
-1 -16 7 57.27 2.92
-1 -16 6 78.04 3.31
-1 -16 6 84.89 3.7
-1 -16 6 88.33 3.83
-1 -16 6 88.35 3.66
-1 -16 5 -0.53 0.59
-1 -16 5 -0.55 0.42
-1 -16 5 1 0.49
-1 -16 5 0.18 0.46
-1 -16 4 0.62 0.43
-1 -16 4 1.08 0.52
-1 -16 4 1.12 0.6
-1 -16 4 1.06 0.52
-1 -16 3 6.34 1.11
-1 -16 3 7.18 1.06
-1 -16 3 7.94 1.21
-1 -16 3 7.73 1.14
-1 -16 2 0.52 0.6
-1 -16 2 0.51 0.61
-1 -16 2 0.61 0.82
-1 -16 1 1.56 0.99
-1 -16 1 2.01 0.73
-1 -16 1 2.25 0.72
-1 -16 1 1.04 0.61
-1 -16 0 19.6 1.74
-1 -16 0 16.46 2.08
-1 -16 0 21.67 1.78
-1 -16 0 18.03 1.84
-1 -16 -1 0.39 0.46
-1 -16 -1 0.67 0.45
-1 -16 -1 0.99 1.01
-1 -16 -1 0.92 0.54
-1 -16 -2 2.52 0.65
-1 -16 -2 0.88 0.45
-1 -16 -2 1.6 0.95
-1 -16 -2 1.93 0.65
-1 -16 -2 1.82 0.58
-1 -16 -3 7.74 1.1
-1 -16 -3 7.11 1.38
-1 -16 -3 7.22 0.96
-1 -16 -3 6.38 0.88
-1 -16 -3 6.9 0.9
-1 -16 -4 0.12 0.33
-1 -16 -4 -0.09 0.28
-1 -16 -4 -0.36 0.38
-1 -16 -4 -0.23 0.41
-1 -16 -5 1.81 0.44
-1 -16 -5 1.23 0.33
-1 -16 -5 1.21 0.44
-1 -16 -5 0.84 0.37
-1 -16 -6 87.7 2.49
-1 -16 -6 85.18 2.82
-1 -17 10 54.77 1.82
-1 -17 10 64.58 2.07
-1 -17 9 53.46 1.95
-1 -17 9 53.98 2.12
-1 -17 8 0.77 0.32
-1 -17 8 0.42 0.36
-1 -17 8 0.71 0.37
-1 -17 8 0.79 0.29
-1 -17 7 32.5 1.73
-1 -17 7 32.02 1.8
-1 -17 7 33.97 1.94
-1 -17 6 16.92 1.36
-1 -17 6 17.76 1.45
-1 -17 6 19.09 1.38
-1 -17 5 5.57 0.86
-1 -17 5 5.12 0.78
-1 -17 5 4.86 0.74
-1 -17 5 6.52 0.83
-1 -17 4 2.35 0.62
-1 -17 4 1.95 0.52
-1 -17 4 2.07 0.61
-1 -17 4 2.14 0.52
-1 -17 3 0.79 0.47
-1 -17 3 1.03 0.49
-1 -17 3 1.59 0.51
-1 -17 3 0.8 0.41
-1 -17 2 1.05 0.41
-1 -17 2 0.62 0.29
-1 -17 2 0.8 0.44
-1 -17 1 0.68 0.43
-1 -17 1 -0.39 0.34
-1 -17 1 0.88 0.41
-1 -17 1 0.88 0.4
-1 -17 0 0.85 0.35
-1 -17 0 0.83 0.4
-1 -17 0 1.77 0.59
-1 -17 -1 0.15 0.3
-1 -17 -1 0.55 0.4
-1 -17 -1 0.56 0.35
-1 -17 -2 6.17 0.72
-1 -17 -2 8.23 1.03
-1 -17 -2 5.94 0.69
-1 -17 -3 0 0.23
-1 -17 -3 -0.25 0.24
-1 -17 -4 40.96 1.69
-1 -17 -4 34.85 1.32
-1 -18 8 2.6 0.37
-1 -18 7 8.56 0.71
-1 -18 7 8.2 0.6
-1 -18 6 11.73 0.91
-1 -18 6 10.92 0.74
-1 -18 6 8.87 0.69
-1 -18 5 46.97 1.96
-1 -18 5 44.06 1.66
-1 -18 4 0.78 0.28
-1 -18 4 1.35 0.4
-1 -18 4 0.82 0.33
-1 -18 4 0.67 0.24
-1 -18 3 2.17 0.46
-1 -18 3 1.56 0.36
-1 -18 3 2.3 0.49
-1 -18 3 1.61 0.3
-1 -18 2 4.63 0.62
-1 -18 2 4.19 0.51
-1 -18 2 4.73 0.69
-1 -18 1 5.23 0.53
-1 -18 1 5.99 0.77
-1 -18 1 6.67 0.81
-1 -18 0 16.04 0.87
-1 -18 0 18.54 1.28
-1 -18 0 16.44 0.98
-1 -18 -1 9.01 0.82
2 -18 -2 1.65 0.37
2 -18 -2 0.97 0.28
2 -18 -1 51 1.97
2 -18 -1 53.28 2.32
2 -18 0 0.78 0.45
2 -18 0 0.26 0.25
2 -18 1 77.08 2.69
2 -18 1 74.17 3.18
2 -18 2 2.14 0.48
2 -18 2 2.41 0.53
2 -18 3 16.87 1.45
2 -18 3 17.84 1.28
2 -18 3 17.79 1.19
2 -18 4 13.8 1.12
2 -18 4 12.92 1.24
2 -18 4 13.51 0.99
2 -18 5 -0.1 0.26
2 -18 5 0.15 0.23
2 -18 6 11.5 0.77
2 -18 6 10.66 0.93
2 -18 7 1.23 0.35
2 -18 8 5.84 0.57
2 -17 -5 4.12 0.61
2 -17 -5 3.58 0.43
2 -17 -4 3.99 0.69
2 -17 -4 4.13 0.59
2 -17 -4 3.88 0.56
2 -17 -3 -0.74 0.53
2 -17 -3 -0.14 0.34
2 -17 -3 0.5 0.32
2 -17 -2 3.51 0.82
2 -17 -2 3.27 0.71
2 -17 -2 4.07 0.74
2 -17 -1 2.42 0.66
2 -17 -1 2.35 0.6
2 -17 -1 2.9 0.73
2 -17 0 5.21 0.96
2 -17 0 4.61 0.82
2 -17 0 4.63 0.86
2 -17 1 4.36 0.83
2 -17 1 6.03 1.17
2 -17 2 23.73 1.74
2 -17 2 25.22 2.18
2 -17 3 -0.62 0.47
2 -17 3 0.13 0.54
2 -17 4 3.14 0.68
2 -17 4 2.7 0.79
2 -17 5 10.52 1.18
2 -17 5 9.91 1.07
2 -17 5 10.16 1.31
2 -17 6 14.2 1.42
2 -17 6 17.16 1.46
2 -17 6 16.75 1.03
2 -17 6 16.58 1.25
2 -17 7 11.71 0.9
2 -17 7 13.02 1
2 -17 7 12.9 1.2
2 -17 7 9.98 1.03
2 -17 8 2.96 0.48
2 -17 8 3.25 0.47
2 -17 8 2.34 0.55
2 -17 9 -0.13 0.28
2 -17 9 0.22 0.27
2 -17 10 1 0.29
2 -16 -7 0.4 0.34
2 -16 -7 1.07 0.27
2 -16 -6 45.2 2.49
2 -16 -6 40.01 1.88
2 -16 -5 39.53 2.55
2 -16 -5 34.24 2
2 -16 -5 36.19 1.82
2 -16 -4 -0.17 0.39
2 -16 -4 0.47 0.56
2 -16 -4 0.19 0.4
2 -16 -3 46.81 3.11
2 -16 -3 48.91 2.8
2 -16 -3 47 2.62
2 -16 -2 34.84 2.76
2 -16 -2 37.41 2.59
2 -16 -2 35.23 2.35
2 -16 -1 1.21 0.6
2 -16 -1 -0.1 0.66
2 -16 -1 0.44 0.52
2 -16 0 6.4 1.08
2 -16 0 8.35 1.33
2 -16 0 7.54 1.31
2 -16 1 2.08 0.75
2 -16 1 4 1.08
2 -16 1 3.21 0.84
2 -16 2 8.87 1.47
2 -16 2 8.51 1.19
2 -16 3 -0.03 0.52
-2 16 -3 0.18 0.15
2 -16 3 0.05 0.4
2 -16 4 7.76 1.38
-2 16 -4 6.78 0.38
2 -16 4 5.63 0.96
2 -16 5 7.44 1.08
2 -16 5 6.17 1.21
2 -16 5 6.88 0.8
2 -16 6 69.24 3.12
2 -16 6 69.21 3.67
2 -16 6 72.53 3.52
2 -16 6 69.08 2.88
2 -16 7 6.77 0.89
2 -16 7 7.92 0.98
2 -16 7 5.4 0.97
2 -16 7 8.08 1.1
2 -16 8 12.09 1.32
2 -16 8 11.78 1.06
2 -16 8 12.91 1.23
2 -16 9 0.33 0.26
2 -16 9 -0.22 0.33
2 -16 9 0.64 0.45
2 -16 10 2.81 0.6
2 -16 10 2.89 0.58
2 -16 11 13.45 1.07
2 -16 12 2.64 0.43
2 -15 -8 -0.14 0.27
2 -15 -8 0.03 0.23
2 -15 -8 0.42 0.4
-2 15 7 -0.68 2
2 -15 -7 0.81 0.42
2 -15 -7 1.17 0.4
2 -15 -7 0.94 0.57
2 -15 -6 -0.34 0.52
2 -15 -6 0.56 0.35
2 -15 -6 -0.13 0.31
2 -15 -6 0.46 0.47
2 -15 -5 36.31 2.06
2 -15 -5 40.87 2.51
2 -15 -5 47.86 3.29
2 -15 -5 49.31 2.58
-2 15 5 43.93 7.3
2 -15 -4 2.06 0.46
-2 15 4 3.36 2.16
2 -15 -4 1.22 0.65
2 -15 -4 1.9 0.73
2 -15 -4 1.97 0.79
2 -15 -3 0.86 0.55
2 -15 -3 0.43 0.5
2 -15 -3 0.51 0.39
2 -15 -3 0.57 0.77
2 -15 -2 18.86 1.92
2 -15 -2 19.2 1.43
2 -15 -2 22.3 2.39
2 -15 -2 20.47 2.08
2 -15 -1 2.94 1.2
2 -15 -1 2.09 0.57
2 -15 -1 1.05 0.63
2 -15 -1 2.33 0.77
2 -15 0 0.22 0.47
2 -15 0 0.84 0.56
2 -15 0 0.99 0.59
2 -15 0 0.99 0.46
2 -15 1 2.53 0.92
2 -15 1 1.5 0.72
2 -15 1 2.24 0.56
2 -15 1 2.06 0.8
2 -15 2 2.62 0.62
2 -15 2 3.18 0.86
2 -15 2 1.2 0.68
2 -15 2 2.66 1.02
2 -15 3 2.03 0.5
2 -15 3 2.38 0.78
2 -15 3 2.86 0.97
2 -15 4 164.77 6.65
2 -15 4 167.47 4.94
2 -15 4 169.42 5.95
2 -15 4 164.98 4.89
-2 15 -4 172.01 3.41
2 -15 5 14.27 1.24
2 -15 5 15.09 1.38
2 -15 5 14.76 1.2
2 -15 5 15.35 1.59
-2 15 -5 15.57 0.63
2 -15 5 12.54 1.77
2 -15 6 117.95 4.36
2 -15 6 104.17 4.96
2 -15 6 114.65 4.47
2 -15 6 105.65 3.77
2 -15 6 117.58 3.74
2 -15 7 3.13 0.87
2 -15 7 2.92 0.7
2 -15 7 3.03 0.67
2 -15 7 1.98 0.71
2 -15 7 3.56 0.63
2 -15 7 2.33 0.51
2 -15 8 0.8 0.31
2 -15 8 1.37 0.52
2 -15 8 1.24 0.47
2 -15 8 1.44 0.68
2 -15 8 0.77 0.53
2 -15 9 17.49 1.64
2 -15 9 17.07 1.54
2 -15 9 16.91 1.32
2 -15 10 0.31 0.3
2 -15 10 -0.18 0.45
2 -15 10 0.34 0.37
2 -15 10 -0.22 0.29
2 -15 11 6.94 0.74
2 -15 11 7.11 0.88
2 -15 11 7.29 0.92
2 -15 12 1.37 0.44
2 -15 12 0.35 0.22
2 -15 13 10.52 0.73
2 -15 13 15.56 1.05
2 -14 -10 21.85 1.36
2 -14 -10 20.05 1.15
2 -14 -9 -0.28 2.2
-2 14 9 -0.97 1.27
2 -14 -9 -0.06 0.35
2 -14 -9 -0.22 0.3
2 -14 -9 -0.28 0.45
2 -14 -8 6.32 1.13
2 -14 -8 5.16 0.87
2 -14 -8 4.63 0.81
-2 14 8 8.21 3.73
2 -14 -8 6.15 2.67
2 -14 -7 4.68 1.09
2 -14 -7 3.76 2.55
2 -14 -7 3.64 0.84
2 -14 -7 4.63 0.63
-2 14 7 8.01 4.37
2 -14 -6 5.83 0.88
2 -14 -6 4.92 1
-2 14 6 6.77 4
2 -14 -6 4.04 1.09
2 -14 -6 5.67 0.77
2 -14 -6 4.41 2.48
2 -14 -5 3.82 0.71
2 -14 -5 4.46 0.96
-2 14 5 0.02 3.43
2 -14 -5 4.56 1.21
2 -14 -5 4.37 0.99
2 -14 -5 5.2 3.65
2 -14 -4 5.66 3.87
2 -14 -4 7.6 1.18
2 -14 -4 6.78 0.98
-2 14 4 7.22 3.94
2 -14 -4 7.9 1.62
2 -14 -4 7.27 1.2
2 -14 -3 7.02 1.29
2 -14 -3 10.71 4.82
-2 14 3 4.24 3.81
2 -14 -3 8.04 1.57
2 -14 -3 6.67 0.93
2 -14 -3 7.78 1.33
2 -14 -2 8.62 1.09
2 -14 -2 9 1.81
2 -14 -2 7.14 1.6
2 -14 -2 7.91 1.36
2 -14 -2 6.42 1.25
2 -14 -1 0.97 0.83
2 -14 -1 1.14 0.81
2 -14 -1 0.5 0.47
2 -14 -1 -0.09 0.56
2 -14 0 28.67 2.43
2 -14 0 27.27 2.71
2 -14 0 28.59 1.88
-2 14 0 23.71 0.91
2 -14 0 27.92 2.79
2 -14 0 25.4 2.42
2 -14 1 -0.61 0.56
2 -14 1 -0.5 0.59
2 -14 1 0.73 0.66
2 -14 1 0.12 0.35
-2 14 -1 0.09 0.17
2 -14 1 -0.6 0.78
2 -14 2 34.1 2.82
2 -14 2 30.17 1.93
2 -14 2 30.88 2.73
2 -14 2 31.28 2.49
-2 14 -2 30.95 1.07
2 -14 3 20.64 2.25
-2 14 -3 18.33 0.79
2 -14 3 19.03 1.88
2 -14 3 20.96 1.59
2 -14 4 65.98 2.89
2 -14 4 56.5 3.72
-2 14 -4 63.33 1.67
2 -14 4 62.87 2.93
2 -14 4 64.06 3.48
2 -14 4 59.3 2.63
-2 14 -5 9.38 0.52
2 -14 5 9.74 1.53
2 -14 5 10.12 1.08
2 -14 5 10.31 1.26
2 -14 5 9.94 1.1
2 -14 5 9.45 1.31
2 -14 6 4.04 0.87
2 -14 6 3.98 0.77
2 -14 6 3.74 0.69
2 -14 6 4.52 0.96
2 -14 6 3.21 0.99
-2 14 -6 4.46 0.35
2 -14 7 7 0.98
2 -14 7 6.75 1.09
2 -14 7 7.83 1.11
2 -14 7 7.88 0.93
2 -14 7 6.21 1.19
2 -14 7 7.97 1.33
2 -14 8 0.36 0.52
2 -14 8 0.41 0.34
2 -14 8 -0.51 0.61
2 -14 8 0.8 0.56
2 -14 8 0.63 0.54
2 -14 8 0.61 0.47
2 -14 9 7.56 1.03
2 -14 9 7.34 1.18
2 -14 9 6.35 0.88
2 -14 9 6.47 0.82
2 -14 9 6.93 1.11
2 -14 10 25.22 2
2 -14 10 23.78 1.53
2 -14 10 22.34 1.44
2 -14 10 23.69 1.95
2 -14 11 5.22 0.9
2 -14 11 4 0.84
2 -14 12 0.96 0.51
2 -14 13 1.61 0.47
2 -14 13 1.45 0.46
2 -14 14 4.38 0.57
2 -14 14 5.5 0.63
2 -13 -11 59.67 2.37
2 -13 -11 64.21 2.36
2 -13 -11 57.22 6.57
-2 13 11 56.19 7.06
2 -13 -10 0.12 0.44
2 -13 -10 -0.47 0.5
-2 13 10 -0.92 2.48
2 -13 -10 0.01 1.48
2 -13 -9 2.19 2.37
2 -13 -9 3.56 0.93
2 -13 -9 2.72 0.79
2 -13 -9 1.23 0.35
2 -13 -8 28.75 1.68
2 -13 -8 33.5 2.8
2 -13 -8 33 7.5
-2 13 8 22.74 6.5
2 -13 -8 29.16 2.38
2 -13 -7 3.43 1.14
-2 13 7 4.32 4.08
2 -13 -7 2.87 0.67
2 -13 -7 3.29 3.23
2 -13 -7 3.44 0.83
2 -13 -6 0.62 0.4
2 -13 -6 -0.25 0.7
2 -13 -6 0.3 0.41
-2 13 6 0.38 2.23
2 -13 -6 -0.45 0.75
2 -13 -6 -1.28 3.08
2 -13 -5 9.93 1.22
2 -13 -5 7.44 4.3
2 -13 -5 12.09 1.69
2 -13 -5 12.93 2.03
-2 13 5 10.2 4.9
2 -13 -5 13.23 1.54
2 -13 -4 5.21 1.32
2 -13 -4 4.6 1.02
2 -13 -4 3.62 1.31
2 -13 -4 2.78 0.75
2 -13 -4 1.4 3.5
2 -13 -4 4.84 0.88
-2 13 4 6.38 4.41
2 -13 -3 42.28 2.77
2 -13 -3 49.04 3.82
2 -13 -3 43.45 2.45
2 -13 -3 42.71 3.91
-2 13 3 40.36 8.85
2 -13 -3 49.58 10.43
2 -13 -3 47.46 3.17
2 -13 -2 32.49 2.59
2 -13 -2 33.8 3.14
2 -13 -2 31.21 2.04
2 -13 -2 31.33 8.57
2 -13 -2 28.81 3.09
-2 13 2 27.6 0.95
2 -13 -1 122.25 5.33
-2 13 1 113.44 2.52
2 -13 -1 108.12 5.79
2 -13 -1 120.62 16.07
2 -13 -1 119.79 4.27
2 -13 -1 120.46 5.95
2 -13 0 1.11 0.77
2 -13 0 1.08 0.68
2 -13 0 1.3 0.92
-2 13 0 0.79 0.22
2 -13 0 0.63 0.52
2 -13 0 1.18 0.65
2 -13 1 1.37 0.61
2 -13 1 2.35 0.85
2 -13 1 2.56 0.84
-2 13 -1 1.94 0.29
2 -13 1 1.55 0.48
2 -13 1 3.45 1.12
2 -13 2 0.61 0.36
2 -13 2 1.09 0.72
2 -13 2 0.04 0.46
2 -13 2 0.26 0.57
-2 13 -2 0.81 0.23
2 -13 3 64.08 2.69
2 -13 3 64.24 2.88
2 -13 3 65.99 3.44
2 -13 3 62.31 3.83
2 -13 3 65.7 2.88
-2 13 -3 60.08 1.7
2 -13 3 60.07 3.73
2 -13 4 202.16 5.8
2 -13 4 202.65 5.95
2 -13 4 196.05 6.44
-2 13 -4 195.35 4.04
2 -13 4 198.72 7.29
2 -13 4 197.41 5.59
2 -13 5 42.33 2.52
2 -13 5 39.06 2.25
-2 13 -5 41.35 1.25
2 -13 5 40.27 2.25
2 -13 5 39.89 2.61
2 -13 5 39.52 2.99
-2 13 -5 42.2 1.31
2 -13 6 23.88 1.67
2 -13 6 23.16 2.28
2 -13 6 22.45 1.75
2 -13 6 20.77 1.83
2 -13 6 22.63 1.92
-2 13 -6 25.32 0.91
2 -13 7 32.91 2.37
-2 13 -7 31.97 0.96
2 -13 7 30.07 2.16
2 -13 7 31.05 1.93
2 -13 7 28.3 2.06
2 -13 7 26.92 2.35
2 -13 8 12.82 1.4
2 -13 8 13.43 1.39
2 -13 8 14.15 1.68
2 -13 8 12 1.54
2 -13 8 14.25 1.61
-2 13 -8 13.31 0.64
2 -13 8 14.43 1.28
2 -13 9 15.65 1.67
2 -13 9 15.78 1.41
2 -13 9 14.67 1.65
2 -13 9 14.94 1.33
2 -13 9 14.49 1.49
2 -13 10 2.67 0.87
2 -13 10 3.32 0.67
2 -13 10 3.07 0.82
2 -13 10 3.98 0.76
2 -13 10 3.05 0.81
2 -13 10 3 0.62
2 -13 11 73.69 3.54
2 -13 11 75.89 3.66
2 -13 11 76.23 3
2 -13 12 13.99 1.14
2 -13 12 17.47 1.59
2 -13 13 2.72 0.48
2 -13 13 3.53 0.7
2 -13 14 40.8 1.97
2 -13 15 4.83 0.63
2 -13 15 5.1 0.51
2 -13 15 5.09 0.55
2 -12 -12 0.04 0.33
-2 12 12 0.15 1.07
2 -12 -12 -0.25 0.27
2 -12 -12 -0.87 1.43
2 -12 -11 6.31 0.63
2 -12 -11 9.18 1.1
2 -12 -11 10.9 3.78
-2 12 11 7.95 3.36
2 -12 -11 9.99 1.23
-2 12 10 1.64 0.47
-2 12 10 0.41 1.79
2 -12 -10 0.48 0.57
2 -12 -10 -0.65 2.11
2 -12 -10 1.15 0.82
-2 12 9 14.56 1.39
-2 12 9 18.06 6.68
2 -12 -9 18.82 2.13
2 -12 -9 17.79 6.02
2 -12 -9 15.5 1.84
2 -12 -8 0.21 0.64
-2 12 8 0.11 2.08
2 -12 -8 0.2 2.35
2 -12 -8 -0.14 0.58
2 -12 -7 -0.54 0.78
2 -12 -7 0.6 2.52
2 -12 -7 0.32 0.62
-2 12 7 1.73 2.08
2 -12 -6 114.37 5.5
2 -12 -6 133.2 4.86
2 -12 -6 142.65 6.71
2 -12 -6 135.37 17.33
-2 12 6 129.5 17.72
2 -12 -5 27.26 2.87
2 -12 -5 22.77 2.9
-2 12 5 21.76 7.77
2 -12 -5 23.32 2.28
2 -12 -5 25 2.09
2 -12 -5 20.31 6.72
2 -12 -4 317.88 11.48
2 -12 -4 363.46 28.64
2 -12 -4 328.05 9.12
2 -12 -4 354.37 11.21
-2 12 4 336.02 27.09
2 -12 -4 316.66 8.35
2 -12 -4 290.19 9.17
-2 12 3 11.61 4.78
2 -12 -3 9.41 1.2
2 -12 -3 9.17 1.94
2 -12 -3 11.35 1.54
2 -12 -3 5.36 4.49
2 -12 -3 10.89 1.8
2 -12 -3 8.91 1.33
-2 12 3 8.63 0.48
2 -12 -2 2.16 0.57
-2 12 2 2.57 0.28
-2 12 2 2.2 2.73
2 -12 -2 0.06 2.14
2 -12 -2 4.36 1.34
2 -12 -2 2.51 0.87
2 -12 -2 0.7 0.61
2 -12 -2 3.25 1.36
2 -12 -1 104.05 13.93
2 -12 -1 86.73 3.56
-2 12 1 87.91 2.11
2 -12 -1 101.33 5.12
2 -12 -1 97.26 4.45
2 -12 -1 87.64 4.96
2 -12 -1 96.21 6.35
2 -12 0 10.9 2.12
2 -12 0 12.6 1.73
2 -12 0 14.84 5.16
2 -12 0 13.84 1.91
2 -12 0 17.91 1.84
-2 12 0 13.06 0.65
2 -12 0 12.55 1.25
2 -12 1 14.02 2.34
2 -12 1 16.89 1.91
2 -12 1 13.99 1.65
2 -12 1 10.84 1.67
-2 12 -1 14.55 0.72
2 -12 1 12.78 1.53
2 -12 2 45.09 2.68
2 -12 2 50.48 3.32
2 -12 2 50.86 3.16
-2 12 -2 47.07 1.41
2 -12 2 46.56 4.08
2 -12 3 0.29 0.34
2 -12 3 0.31 0.67
2 -12 3 -0.37 1
2 -12 3 0.15 0.42
-2 12 -3 0.23 0.18
2 -12 3 0.33 0.39
2 -12 3 -0.77 0.75
2 -12 3 -0.34 0.48
2 -12 4 2.76 0.77
2 -12 4 3.52 0.73
2 -12 4 2.92 0.67
2 -12 4 2.33 0.72
2 -12 4 2.82 1.24
2 -12 4 2.63 0.72
-2 12 -4 2.25 0.34
2 -12 5 0.58 0.61
2 -12 5 0.62 0.47
2 -12 5 0.44 0.47
2 -12 5 0.51 0.39
-2 12 -5 0.73 0.24
2 -12 5 0.67 0.5
2 -12 5 -0.92 0.7
2 -12 6 4.43 1.28
2 -12 6 5.82 0.97
2 -12 6 4.93 0.92
2 -12 6 6.5 0.9
2 -12 6 5.67 0.9
-2 12 -6 5.96 0.43
2 -12 6 6.78 1.24
2 -12 7 -0.8 0.63
2 -12 7 -0.57 0.56
2 -12 7 0.7 0.5
-2 12 -7 0.35 0.17
2 -12 7 -0.02 0.38
2 -12 7 1.56 0.61
2 -12 8 2.21 0.69
-2 12 -8 1.67 0.22
2 -12 8 1.23 0.62
2 -12 8 0.51 0.42
2 -12 8 1.87 0.58
2 -12 8 1.32 0.59
2 -12 9 2.52 0.75
-2 12 -9 1.94 0.27
2 -12 9 2.44 0.76
2 -12 9 1.97 0.56
2 -12 9 1.02 0.59
2 -12 9 2.36 0.64
2 -12 10 20.08 1.9
2 -12 10 23.15 1.61
2 -12 10 19.23 1.8
2 -12 10 19.23 1.55
2 -12 10 22.18 1.75
2 -12 10 20.88 1.92
2 -12 11 19.47 1.83
2 -12 11 19.99 1.67
2 -12 11 18.86 1.79
2 -12 12 6.11 0.95
2 -12 12 6.88 1.06
2 -12 13 10.98 1.19
2 -12 13 10.03 1.11
2 -12 14 1.85 0.59
2 -12 14 2.39 0.5
2 -12 15 25.29 1.36
2 -12 15 27.03 1.33
2 -12 16 3.14 0.5
2 -12 16 2.76 0.43
2 -11 -13 8.31 0.89
2 -11 -13 7.96 2.42
-2 11 13 9.19 2.76
2 -11 -12 11.99 3.81
-2 11 12 16.97 1.31
2 -11 -12 18.28 1.47
2 -11 -12 16.11 1.54
-2 11 12 13.46 4.41
-2 11 11 23.42 1.85
2 -11 -11 24.65 2.17
2 -11 -11 25.89 2.18
2 -11 -11 19.68 5.56
-2 11 11 23.07 6.93
2 -11 -10 9.72 4.02
-2 11 10 12.76 1.52
2 -11 -10 11.48 1.66
-2 11 10 11.08 5.34
2 -11 -10 13.65 1.77
-2 11 9 33.45 9.37
2 -11 -9 28.54 2.63
-2 11 9 28.49 2.41
2 -11 -9 31.73 2.95
2 -11 -9 37.16 8.4
-2 11 8 5.43 1.12
-2 11 8 7.81 5.14
2 -11 -8 3.34 2.52
2 -11 -8 6.07 1.42
2 -11 -8 6.41 1.75
-2 11 7 85.51 15.31
2 -11 -7 94.58 5.35
2 -11 -7 96.39 14.53
2 -11 -7 84.22 4.7
-2 11 7 84.74 4.17
2 -11 -6 1.12 3.4
2 -11 -6 2.27 1.28
2 -11 -6 1.61 0.64
2 -11 -6 1.1 0.69
2 -11 -6 2.03 0.9
2 -11 -5 7.44 1.18
2 -11 -5 7.18 1.51
2 -11 -5 6.63 1.63
2 -11 -5 6.83 1.32
2 -11 -5 5.99 3.58
-2 11 5 6.07 3.74
2 -11 -4 100.44 5.28
2 -11 -4 86.01 4.27
-2 11 4 90.98 14.28
2 -11 -4 95.49 4.03
2 -11 -4 92.19 6.21
2 -11 -4 92.98 5.57
2 -11 -4 86.67 13.21
2 -11 -3 63.14 4.01
2 -11 -3 55 3.23
2 -11 -3 62.41 4.34
2 -11 -3 66.41 5.19
-2 11 3 57.83 10.68
2 -11 -3 59.74 3.17
-2 11 3 58.85 1.47
2 -11 -3 69.42 11.47
2 -11 -2 285.23 9.49
2 -11 -2 327.68 12.08
2 -11 -2 326.02 9.59
2 -11 -2 297.34 23.14
-2 11 2 293.55 21.36
-2 11 2 283.77 5.38
2 -11 -2 307.31 8.22
2 -11 -2 279.7 7.91
2 -11 -1 26.7 2.41
2 -11 -1 26.33 2.04
2 -11 -1 23.95 2.41
2 -11 -1 24.95 6.35
-2 11 1 22.36 0.86
2 -11 -1 26.9 3.18
2 -11 0 184.76 17.33
2 -11 0 213.82 9.49
2 -11 0 202.67 6.28
-2 11 0 188.69 3.83
-2 11 -1 508.78 9.15
2 -11 1 542.04 16.16
2 -11 1 527.76 12.27
2 -11 2 702.14 19.09
-2 11 -2 690.01 12.09
2 -11 3 25.86 2.42
-2 11 -3 24.51 0.93
2 -11 3 23.74 2.84
2 -11 4 -0.22 0.46
2 -11 4 0.65 0.4
2 -11 4 0.69 0.42
2 -11 4 -0.27 0.63
2 -11 4 0.19 0.8
2 -11 4 0.55 0.65
-2 11 -4 0.49 0.2
2 -11 5 10 1.73
2 -11 5 10.43 1.07
2 -11 5 8.44 1.22
2 -11 5 11.89 1.29
-2 11 -5 11.09 0.6
2 -11 5 12.22 1.93
2 -11 5 12.49 1.25
2 -11 5 9.62 1.34
2 -11 6 0.13 0.52
2 -11 6 0.94 0.47
-2 11 -6 0.22 0.18
2 -11 6 -0.2 0.42
2 -11 6 0.76 0.48
-2 11 -6 0.32 0.19
2 -11 6 0.6 0.47
2 -11 7 3.95 0.88
2 -11 7 4.39 0.82
2 -11 7 5.43 0.87
-2 11 -7 4.35 0.35
2 -11 7 4.28 0.9
2 -11 7 3.97 0.65
2 -11 7 5.05 1.28
2 -11 8 2.76 0.74
-2 11 -8 2.57 0.27
2 -11 8 1.64 0.52
2 -11 8 1.66 0.63
2 -11 8 2.49 0.6
2 -11 8 3.1 0.71
2 -11 8 2.98 1.12
2 -11 9 0.87 0.44
2 -11 9 0.56 0.41
2 -11 9 1.1 0.55
2 -11 9 1.08 0.5
-2 11 -9 0.94 0.21
2 -11 9 1.14 0.54
-2 11 -10 6.04 0.44
2 -11 10 6 1.05
2 -11 10 6.96 0.97
2 -11 10 5.44 1.05
2 -11 10 5.92 0.85
2 -11 10 4.74 0.94
2 -11 11 87.24 4
2 -11 11 92.55 4.01
2 -11 11 88.92 4.08
2 -11 11 83.11 3.92
2 -11 12 215.87 6.72
2 -11 12 214.55 6.71
2 -11 13 -0.42 0.49
2 -11 13 -0.22 0.51
2 -11 14 19.75 1.49
2 -11 14 22.35 1.76
2 -11 15 16 1.32
2 -11 15 17.52 1.13
2 -11 16 4.09 0.58
2 -11 17 0.37 0.21
-2 10 14 3.61 0.55
2 -10 -14 3.57 1.64
-2 10 14 4.6 1.88
2 -10 -14 5.18 0.65
2 -10 -13 12.71 1.34
2 -10 -13 10.53 1
2 -10 -13 15.56 4.34
-2 10 13 12.17 1.22
2 -10 -12 26.03 6.23
-2 10 12 22.99 1.92
2 -10 -12 24.18 1.93
2 -10 -12 23.53 2.1
-2 10 12 19.56 6.06
-2 10 11 10.84 1.49
2 -10 -11 10.31 1.54
2 -10 -11 10.19 1.56
2 -10 -11 12.41 5.07
-2 10 11 11.72 5.8
2 -10 -10 0.28 0.61
-2 10 10 -1.22 3.3
2 -10 -10 0.03 0.64
2 -10 -10 1.95 2.18
-2 10 10 0.01 0.52
-2 10 9 59.55 12.67
-2 10 9 56.37 3.62
2 -10 -9 61.41 4.02
2 -10 -9 67.02 4.28
2 -10 -9 63.07 11.73
-2 10 8 5.01 4.82
2 -10 -8 4.04 1.19
-2 10 8 4.01 1.12
2 -10 -8 7.3 5.18
2 -10 -7 91.65 14.21
-2 10 7 92.4 4.46
-2 10 7 97.25 15.42
2 -10 -7 93.44 4.98
-2 10 6 4.92 1.06
-2 10 6 2.44 3.75
2 -10 -6 1.17 2.23
2 -10 -6 3.89 0.76
2 -10 -6 3.33 1.31
2 -10 -6 4.54 1.34
2 -10 -6 3.43 1.1
2 -10 -5 3.91 1.13
-2 10 5 4.92 1
2 -10 -5 3.89 4.09
2 -10 -5 3.66 1.09
2 -10 -5 3.61 0.91
2 -10 -5 5.53 0.93
2 -10 -5 5.44 1.32
-2 10 5 4.57 3.58
2 -10 -4 159.94 6.91
-2 10 4 152.9 2.99
2 -10 -4 175.02 17.35
2 -10 -4 154.71 5.72
-2 10 4 159.13 17.29
2 -10 -4 159.9 5.18
2 -10 -4 172.28 8.31
2 -10 -3 14.85 2.44
-2 10 3 14.33 0.59
2 -10 -2 234.67 9.73
-2 10 2 202.56 3.92
-2 10 1 11.12 0.55
2 -10 -1 12.06 2.1
2 -10 0 20.9 2.67
-2 10 0 18.13 0.72
-2 10 -1 19.57 0.77
2 -10 1 21.56 2.66
2 -10 2 6.52 1.48
2 -10 2 6.72 1.15
-2 10 -2 6.67 0.44
2 -10 3 5.69 1.38
2 -10 3 4.78 1
-2 10 -3 5.08 0.39
2 -10 4 4.19 1.13
2 -10 4 3.86 1.06
-2 10 -4 4.94 0.4
2 -10 5 0.28 0.48
2 -10 5 -0.31 0.5
-2 10 -5 0.02 0.16
2 -10 6 27.99 2.94
-2 10 -6 26.5 0.93
-2 10 -6 25.48 0.87
2 -10 7 1.44 0.52
2 -10 7 2.44 0.58
2 -10 7 1.31 0.62
2 -10 7 1.39 0.74
-2 10 -7 1.69 0.23
2 -10 8 31.76 3.3
2 -10 8 31.72 2.1
2 -10 8 29.2 1.84
-2 10 -8 32.14 0.95
2 -10 8 30.42 1.85
2 -10 8 32.31 2.18
2 -10 8 33.91 2.23
-2 10 -9 21.77 0.88
2 -10 9 24.75 1.96
2 -10 9 21.65 1.82
2 -10 9 21.41 1.81
2 -10 9 20.89 1.62
-2 10 -9 21.18 0.72
2 -10 9 21.3 2.71
2 -10 10 174.24 5.94
2 -10 10 190.74 6.08
2 -10 10 196.12 6.23
-2 10 -10 176.78 3.71
2 -10 10 183.89 5.52
2 -10 11 68.1 3.51
-2 10 -11 63.99 1.69
2 -10 11 65.63 3.35
2 -10 11 59.88 3.25
2 -10 11 64.09 3.3
2 -10 12 125.26 4.81
2 -10 12 128.3 5.06
2 -10 13 2.97 0.73
2 -10 13 1.87 0.64
2 -10 14 2.24 0.73
2 -10 14 2.37 0.61
2 -10 15 2.52 0.48
2 -10 15 3.14 0.71
2 -10 16 0.14 0.36
2 -10 17 6.21 0.65
2 -10 17 5.84 0.62
-2 9 14 20.73 4.43
-2 9 14 14.34 1.36
2 -9 -14 14.34 3.99
2 -9 -14 17.17 1.42
-2 9 13 35.5 7.37
2 -9 -13 39.84 2.16
-2 9 13 38.28 2.59
2 -9 -13 39.45 2.63
2 -9 -13 41.6 7.74
-2 9 12 0.33 0.53
2 -9 -12 1.05 0.61
-2 9 12 -0.79 1.85
2 -9 -12 1.81 0.78
2 -9 -12 2.48 2.99
-2 9 11 0.67 0.76
2 -9 -11 0.23 0.77
-2 9 11 0.84 0.8
-2 9 11 -0.76 3.06
2 -9 -11 1.09 3.72
2 -9 -11 0.61 0.76
2 -9 -10 23.57 2.49
-2 9 10 25.91 8.35
2 -9 -10 19.52 6.58
-2 9 10 22.34 2.37
-2 9 10 16.98 2.16
-2 9 9 0.58 0.69
2 -9 -9 2.27 3.19
-2 9 9 0.05 0.73
-2 9 9 1.51 1.88
2 -9 -9 0.31 0.56
2 -9 -8 154.48 6.49
-2 9 8 131.91 18.44
-2 9 8 155.17 6.21
2 -9 -8 159.71 18.48
2 -9 -7 11.26 5.59
2 -9 -7 14.21 2.18
-2 9 7 12.73 1.61
2 -9 -7 12.62 2.12
2 -9 -7 14.61 1.85
2 -9 -7 13.22 2.11
-2 9 7 10.95 5.68
2 -9 -6 3.1 1.27
2 -9 -6 3.87 1.22
-2 9 6 3.85 0.88
-2 9 6 0.75 3.64
2 -9 -6 2.02 0.79
2 -9 -6 3.26 0.91
2 -9 -6 8.03 4.82
2 -9 -5 3.95 1.1
2 -9 -5 3.76 3.29
2 -9 -5 2.22 0.93
2 -9 -5 3.05 1.15
-2 9 5 -1.22 2.69
2 -9 -4 556.67 15.41
-2 9 4 540.17 9.33
-2 9 3 116.52 2.41
2 -9 -3 140.14 7.03
2 -9 -3 130.67 6.35
2 -9 -2 1.01 0.73
-2 9 2 1.79 0.21
-2 9 1 5.37 0.36
2 -9 -1 4.8 1.33
2 -9 0 395.72 12.21
-2 9 0 359.77 6.49
2 -9 1 67.65 4.47
2 -9 1 65.23 3.35
-2 9 -1 64.77 1.57
2 -9 2 0.39 0.4
-2 9 -2 0.1 0.15
2 -9 2 0.27 0.73
-2 9 -3 0.55 0.17
2 -9 3 1.06 0.54
2 -9 3 1.12 0.53
2 -9 4 0.06 0.46
2 -9 4 0.75 0.53
-2 9 -4 0.41 0.17
-2 9 -5 27.9 0.93
2 -9 5 28.49 2.78
2 -9 5 29.23 2.58
-2 9 -6 182.74 3.58
2 -9 6 177.55 6.46
2 -9 6 176.19 7.75
-2 9 -6 179.34 3.51
2 -9 7 4.76 1.31
-2 9 -7 4.01 0.31
2 -9 8 21.26 1.66
2 -9 8 20.04 1.53
-2 9 -8 20.52 0.82
2 -9 8 21.76 2.69
-2 9 -8 21.11 0.72
2 -9 8 22.84 1.69
2 -9 9 48.44 2.6
2 -9 9 44.87 2.31
2 -9 9 40.6 2.14
2 -9 9 45.71 2.51
-2 9 -9 44.27 1.15
2 -9 9 42.92 2.47
-2 9 -9 45.01 1.34
2 -9 9 45.98 3.95
2 -9 10 864.18 18.29
2 -9 10 881.13 17.78
2 -9 10 879.87 18.13
-2 9 -10 885.13 15.38
2 -9 10 880.4 22.43
2 -9 11 0.17 0.45
2 -9 11 0.89 0.53
2 -9 11 0.25 0.47
2 -9 11 0.13 0.52
-2 9 -11 0.08 0.15
-2 9 -12 92.61 2.19
2 -9 12 94.72 3.92
2 -9 12 96.14 4.37
2 -9 13 84.81 3.57
2 -9 13 86.15 4.18
2 -9 14 5.66 0.79
2 -9 14 6.21 1.12
2 -9 15 30.34 2.2
-2 9 -16 -1.43 1.88
2 -9 16 -0.21 0.39
2 -9 17 0.95 0.41
-2 8 15 26.36 1.76
2 -8 -15 28.66 1.55
2 -8 -15 24.11 4.19
-2 8 14 0.97 0.65
2 -8 -14 0.49 0.44
2 -8 -14 0.84 1.38
2 -8 -13 13.59 1.35
-2 8 13 11.97 1.65
2 -8 -13 15.72 1.74
-2 8 13 13.03 4.99
-2 8 13 9.54 1.42
2 -8 -13 13.44 5.02
-2 8 12 3.1 2.37
2 -8 -12 0.66 2.75
2 -8 -12 1.86 0.67
2 -8 -12 1.53 0.76
-2 8 12 0.67 0.84
-2 8 12 2.12 0.95
2 -8 -11 2.43 1.06
-2 8 11 -1.38 3.11
-2 8 11 0.44 0.9
-2 8 11 1.26 0.75
2 -8 -11 -0.91 2.16
2 -8 -10 44.17 3.34
-2 8 10 36.71 3.19
-2 8 10 44.25 3.35
-2 8 10 46.96 10.66
2 -8 -10 50.21 10.44
-2 8 9 19.36 2.3
-2 8 9 24.95 2.46
-2 8 9 24.02 7.92
2 -8 -9 16.21 5.37
2 -8 -9 27.34 2.58
2 -8 -8 77.45 12.38
-2 8 8 65.61 4.16
-2 8 8 78.09 13.37
2 -8 -8 72.64 4.05
2 -8 -8 62.06 4.72
-2 8 8 69.87 3.9
-2 8 8 77.93 3.76
2 -8 -7 6.66 1.23
-2 8 7 7.01 1.19
2 -8 -7 6.38 1.52
2 -8 -7 4.3 1.22
2 -8 -7 7.24 4.13
-2 8 7 6.07 0.95
-2 8 7 5.52 1.27
-2 8 7 8.38 3.61
2 -8 -7 7.69 1.48
2 -8 -6 -0.28 0.64
2 -8 -6 0.24 0.48
2 -8 -5 79.97 5.06
2 -8 -5 84.15 5.22
2 -8 -4 19.4 2.46
-2 8 4 16.14 0.54
2 -8 -4 16.4 2.22
2 -8 -3 1.95 0.82
2 -8 -3 1.61 0.75
-2 8 3 1.17 0.17
2 -8 -2 17.56 2.23
-2 8 2 17.04 0.6
2 -8 -2 18.08 2.25
2 -8 -1 228.74 5.81
2 -8 -1 233.56 8.46
2 -8 0 708.87 14.78
-2 8 0 688.32 11.85
2 -8 1 239.89 7.17
-2 8 -1 236.24 4.39
2 -8 2 19.28 1.86
-2 8 -2 18.73 0.67
2 -8 2 19.37 2.17
2 -8 3 71.53 3.91
2 -8 3 73.46 4.19
-2 8 -3 68.41 1.6
2 -8 4 1007.74 21.52
2 -8 4 992.52 21.44
-2 8 -4 955.65 16.31
-2 8 -5 156.07 3.11
2 -8 5 156.76 6.1
2 -8 5 167.99 6.86
2 -8 6 0.39 0.52
2 -8 6 0.09 0.39
-2 8 -6 0.77 0.18
2 -8 7 2.27 0.92
-2 8 -7 1.54 0.2
-2 8 -8 7.11 0.39
-2 8 -8 6.92 0.44
2 -8 9 135.92 4.54
2 -8 9 149.8 7.31
-2 8 -9 140.66 3.02
-2 8 -9 141.92 2.82
2 -8 10 13.32 1.38
2 -8 10 14.01 2.21
2 -8 10 13.87 1.33
2 -8 10 13.56 1.36
2 -8 10 12.42 1.26
-2 8 -10 12.57 0.65
-2 8 -11 0.84 0.23
2 -8 11 1.51 0.62
-2 8 -11 0.38 0.7
2 -8 11 0.93 0.55
2 -8 11 0.72 0.46
2 -8 11 0 0.65
2 -8 11 1.01 0.46
2 -8 12 33.04 2.09
2 -8 12 36.4 2.61
2 -8 13 12.47 1.22
2 -8 13 12.88 1.57
2 -8 14 93.77 4.46
2 -8 15 14.21 1.64
-2 8 -16 5.33 2.64
2 -8 16 5.16 0.95
-2 8 -17 0.95 2.09
2 -8 17 0.47 0.39
2 -8 18 9.31 0.83
2 -8 18 10.46 0.72
-2 7 16 -0.02 0.31
-2 7 15 2.55 0.79
2 -7 -15 3.27 0.66
-2 7 15 2.63 0.64
-2 7 14 38.73 2.79
2 -7 -14 39.01 2.57
2 -7 -14 40.42 7.75
-2 7 14 28.33 2.46
-2 7 14 27.97 5.85
-2 7 13 -1.07 3.25
-2 7 13 1.21 0.94
2 -7 -13 -0.79 2.14
-2 7 13 1.22 0.79
2 -7 -13 1.72 0.77
-2 7 12 3.73 3.36
-2 7 12 6.08 0.97
-2 7 12 3.42 1.22
2 -7 -12 4.82 2.05
-2 7 12 4.7 1.28
2 -7 -12 4.66 1.19
2 -7 -11 137.28 17.08
-2 7 11 130.04 4.55
-2 7 11 138.84 18.27
2 -7 -11 133.21 5.87
-2 7 11 123.61 5.85
-2 7 11 118.46 6.05
-2 7 10 182.88 7.49
-2 7 10 191.65 7.33
-2 7 10 205.5 22.48
-2 7 10 189.97 5.76
2 -7 -10 221.07 21.19
2 -7 -10 194.96 7.3
-2 7 9 205.75 6.83
2 -7 -9 218.51 20.26
-2 7 9 198.32 20.87
-2 7 9 177.09 7.31
2 -7 -9 191.81 7.01
-2 7 9 198.44 7.1
2 -7 -9 184.4 8.73
2 -7 -8 -0.15 2.71
-2 7 8 1.34 0.52
-2 7 8 0.98 0.54
2 -7 -8 1.66 0.69
2 -7 -8 0.71 0.73
-2 7 8 0.97 0.87
-2 7 8 -1.83 2.46
2 -7 -7 2.04 0.84
2 -7 -7 2.23 0.95
2 -7 -6 42.68 3.77
2 -7 -6 43.74 3.48
2 -7 -5 15.34 2.08
2 -7 -5 15.56 2.18
2 -7 -4 14.73 2
2 -7 -4 16.92 2.08
-2 7 4 13.92 0.47
-2 7 3 1.01 0.15
2 -7 -3 1.91 0.85
2 -7 -3 1.53 0.67
2 -7 -2 261.43 6.27
2 -7 -2 311.35 9.46
2 -7 -2 293.61 9.24
-2 7 2 266.4 4.76
2 -7 -1 154.92 6.19
2 -7 -1 145.53 4.44
2 -7 -1 163.64 6.35
-2 7 1 136.34 2.65
-2 7 0 273.79 4.91
2 -7 0 277.07 7.36
2 -7 1 73.65 3.47
2 -7 1 80.19 4.24
-2 7 -1 71.65 1.57
2 -7 2 9.77 1.49
-2 7 -2 8.9 0.41
2 -7 2 8.52 1.23
-2 7 -3 33.05 0.91
2 -7 3 34.87 2.56
2 -7 3 33.9 2.65
2 -7 4 33.14 2.59
-2 7 -4 29.57 0.86
2 -7 4 31.76 2.49
-2 7 -5 249.82 4.5
2 -7 5 256.01 7.81
-2 7 -5 244.74 4.55
2 -7 6 19.49 2.21
-2 7 -6 18.57 0.62
2 -7 6 18.52 1.71
2 -7 7 -0.12 0.56
-2 7 -7 0.16 0.12
-2 7 -8 194.95 3.66
-2 7 -8 193.58 3.81
2 -7 9 -0.28 0.63
-2 7 -9 0.13 0.14
-2 7 -9 0.24 0.13
2 -7 10 10.38 1.04
2 -7 10 10.41 1.79
2 -7 10 10.09 1.11
2 -7 10 8.83 1.05
-2 7 -10 10.3 0.45
-2 7 -10 9.67 0.56
2 -7 10 9.26 1.04
2 -7 11 7.81 0.99
2 -7 11 7.71 1.68
-2 7 -11 8.13 1.74
2 -7 11 8.28 1.19
-2 7 -11 7.19 0.5
2 -7 11 8.09 1.08
2 -7 12 23.61 1.65
2 -7 12 24.11 2.12
2 -7 13 36.89 2.7
2 -7 14 1.38 0.7
-2 7 -15 0.7 1.97
2 -7 15 1.98 0.82
2 -7 16 3.71 0.88
-2 7 -16 4.75 1.91
-2 7 -17 -1.78 1.87
2 -7 17 1.37 0.5
2 -7 18 0.1 0.28
2 -7 18 0.1 0.24
-2 6 17 -0.15 0.21
-2 6 16 10.19 1.21
-2 6 16 5.3 0.88
2 -6 -16 6.2 2.22
-2 6 15 1.35 0.78
-2 6 15 1.75 0.86
2 -6 -15 0.84 0.43
2 -6 -14 0.84 1.68
2 -6 -14 0.58 0.6
-2 6 14 0.85 0.96
-2 6 14 1.25 1.49
-2 6 14 0.01 0.7
-2 6 13 0.3 0.8
2 -6 -13 -0.07 0.52
-2 6 13 0.16 0.69
2 -6 -13 0.82 2.61
-2 6 13 -0.39 0.51
-2 6 13 -1.14 2.51
-2 6 12 1.02 0.82
-2 6 12 -0.68 3.34
2 -6 -12 0.59 0.61
-2 6 12 1.51 0.62
2 -6 -12 -0.92 2.2
-2 6 12 2.03 0.99
-2 6 11 436.76 12.99
-2 6 11 428.61 10.65
-2 6 11 457.56 12.59
2 -6 -11 463.97 31.09
-2 6 11 431.71 31.06
2 -6 -11 453.53 12.2
2 -6 -10 119.69 14.95
-2 6 10 123.78 5.33
-2 6 10 109.81 14.99
2 -6 -10 108.1 6.61
-2 6 10 116.49 5.36
-2 6 10 111.74 4.28
2 -6 -10 119.98 5.23
-2 6 10 111.56 5.46
-2 6 9 85.56 4.22
-2 6 9 85.41 12.44
-2 6 9 92.46 4.16
-2 6 9 85.36 3.39
-2 6 9 86.36 4.64
2 -6 -9 80.35 11.39
2 -6 -9 88.9 4.2
2 -6 -9 85.11 5.74
2 -6 -8 -0.27 0.82
2 -6 -7 111.69 5.21
2 -6 -7 99.74 5.91
2 -6 -6 0.47 0.63
2 -6 -6 -0.12 0.54
2 -6 -5 34.41 3.09
2 -6 -5 39.13 2.98
2 -6 -4 3.17 0.83
2 -6 -4 3.26 0.91
-2 6 4 3.16 0.2
2 -6 -3 1.76 0.55
-2 6 3 2.62 0.19
2 -6 -3 1.54 0.72
2 -6 -2 710.63 15.81
2 -6 -2 741.77 15.77
2 -6 -1 305.45 8.84
2 -6 -1 316.4 8.91
2 -6 0 27.72 2.31
-2 6 0 25.21 0.69
2 -6 1 221.01 6.98
-2 6 -1 194.35 3.54
2 -6 2 853.71 18.06
-2 6 -2 821.29 13.86
2 -6 2 848.1 17.36
2 -6 3 407.7 10.42
2 -6 3 420.23 10.54
-2 6 -3 403.42 7.01
2 -6 4 205.35 6.75
2 -6 4 193.57 6.28
-2 6 -4 189.59 3.52
2 -6 5 324.82 8.66
-2 6 -5 327.66 5.64
2 -6 5 332.13 9.53
-2 6 -5 308.62 5.56
2 -6 6 21.9 2.19
2 -6 6 23.47 1.81
-2 6 -6 20.08 0.63
-2 6 -7 -0.06 0.13
2 -6 7 -0.11 0.45
-2 6 -7 0.04 0.12
-2 6 -8 304.08 5.52
-2 6 -8 317.18 5.68
-2 6 -9 11.89 0.49
2 -6 9 12.09 1.86
-2 6 -9 11.76 0.57
2 -6 10 32.01 3.11
-2 6 -10 33.54 0.9
-2 6 -10 31.67 1.06
-2 6 -11 94.42 5.96
2 -6 11 96.44 4.12
2 -6 11 88.08 5.15
2 -6 12 114.6 4.8
2 -6 12 100.04 5.52
2 -6 12 108.95 3.99
-2 6 -12 103.16 6.29
2 -6 13 169.29 5.34
2 -6 13 172.22 6.33
2 -6 14 0.55 0.54
2 -6 14 1.12 0.47
2 -6 15 32.4 1.98
-2 6 -15 34.18 7.59
2 -6 15 36.57 2.71
2 -6 16 -0.1 0.51
-2 6 -16 -0.58 2.32
2 -6 17 4.92 0.92
-2 6 -17 1.47 1.35
2 -6 18 14.24 0.88
2 -6 18 15.73 1.3
-2 5 17 1.64 0.46
-2 5 17 4.17 0.7
-2 5 16 1.4 0.61
-2 5 16 1.81 0.72
2 -5 -16 1.27 1.35
-2 5 15 16.36 1.89
2 -5 -15 17.61 1.49
-2 5 15 14.19 1.97
2 -5 -15 11.24 3.98
-2 5 14 0.5 0.91
-2 5 14 0.28 0.82
-2 5 14 -0.75 0.73
2 -5 -14 -0.03 0.51
-2 5 13 9.62 1.82
2 -5 -13 10.05 3.96
-2 5 13 10.13 1.68
-2 5 13 10.08 1.4
-2 5 13 9.89 3.9
2 -5 -13 12.8 1.68
2 -5 -12 122.87 5.31
-2 5 12 119.97 5.68
-2 5 12 116.3 14.86
-2 5 12 119.72 4.88
-2 5 12 116.2 5.94
2 -5 -12 131.67 16.04
-2 5 11 11.6 1.78
-2 5 11 14.31 1.81
-2 5 11 12.66 1.79
-2 5 11 12.05 1.41
2 -5 -11 13.71 1.68
2 -5 -11 9.99 2.03
2 -5 -11 15.31 5.16
-2 5 11 12.72 5.62
-2 5 10 31.97 2.71
2 -5 -10 35.19 8.08
-2 5 10 28.07 2.07
2 -5 -10 26.62 3.17
-2 5 10 28.81 2.49
-2 5 10 22.39 6.61
2 -5 -10 26.32 2.19
-2 5 10 30.22 2.42
2 -5 -9 42.86 3.99
2 -5 -8 3.21 1.14
2 -5 -7 132.9 6.72
2 -5 -7 149.75 5.66
2 -5 -6 5.27 1.34
2 -5 -6 6.62 1.17
2 -5 -5 34.55 2.96
2 -5 -5 39.71 2.77
-2 5 4 13.1 0.38
2 -5 -4 15.2 1.85
2 -5 -4 15.25 1.67
2 -5 -3 6.78 1.19
-2 5 3 6.28 0.25
2 -5 -3 6.9 1.14
2 -5 -2 140.55 5.36
2 -5 -2 148.95 5.26
2 -5 -1 188.45 5.98
-2 5 1 166.93 3.01
2 -5 -1 179.26 6.02
-2 5 0 240.23 4.23
2 -5 0 260.98 7.47
2 -5 0 262.83 7.33
-2 5 -1 0.24 0.1
2 -5 1 0.28 0.4
-2 5 -2 201.92 3.59
2 -5 2 197.15 6.15
2 -5 3 0.41 0.44
-2 5 -3 0.62 0.16
-2 5 -4 70.82 1.45
2 -5 4 71.48 3.52
-2 5 -4 65.89 1.38
2 -5 4 66.96 3.14
-2 5 -5 86.74 1.73
2 -5 5 88.6 3.62
2 -5 6 1.86 0.53
-2 5 -6 2.51 0.2
2 -5 6 2.37 0.77
2 -5 7 2 0.71
-2 5 -7 1.81 0.19
-2 5 -7 1.88 0.21
-2 5 -8 21.42 0.74
2 -5 8 22.78 2.34
-2 5 -8 20.32 0.65
2 -5 9 0.99 0.63
-2 5 -9 0.34 0.16
-2 5 -9 0.38 0.14
2 -5 10 31.67 2.92
-2 5 -10 32.28 1.06
-2 5 -10 33.39 3.45
-2 5 -10 34.04 0.91
2 -5 11 21.06 1.79
2 -5 11 18.2 2.23
-2 5 -11 18.99 2.68
2 -5 11 17.07 1.42
-2 5 -11 19.72 0.64
2 -5 12 14.3 1.57
2 -5 12 13.4 1.85
-2 5 -12 13.56 2.23
2 -5 12 14.88 1.45
2 -5 13 220.6 6.42
2 -5 13 232.15 6.81
2 -5 14 1.31 0.82
2 -5 14 1.96 0.61
2 -5 14 1.2 0.57
2 -5 15 1.03 0.62
2 -5 15 0.92 0.5
-2 5 -15 1.27 3.41
2 -5 15 -0.2 0.53
2 -5 16 11.68 1.06
2 -5 16 15.66 1.74
2 -5 16 12.43 1.26
2 -5 17 2.38 0.56
2 -5 17 0.06 0.45
-2 5 -17 1.02 1.6
-2 5 -18 46.8 5.55
2 -5 18 46.8 2.33
2 -5 18 40.17 1.5
-2 4 17 29.55 1.92
-2 4 17 24.01 1.87
-2 4 16 -0.76 0.61
-2 4 16 0.32 0.54
-2 4 15 0.33 0.63
-2 4 15 -0.48 0.75
-2 4 15 0.31 0.54
-2 4 14 0.12 0.8
-2 4 14 0.49 0.79
-2 4 14 0.26 0.59
2 -4 -14 -2.29 2.68
2 -4 -14 1.05 1.11
-2 4 13 5.38 1.29
2 -4 -13 6.97 1.18
-2 4 13 5.67 1.08
2 -4 -13 5.88 3.27
-2 4 13 6.65 1.39
2 -4 -12 91.47 12.95
2 -4 -12 112.6 4.73
-2 4 12 101.03 4.54
-2 4 12 106.64 5.49
-2 4 12 102.64 13.25
-2 4 12 110.46 5.31
-2 4 11 225.12 7.74
-2 4 11 229.04 6.9
-2 4 11 228.35 7.73
2 -4 -11 244.42 20.05
2 -4 -11 225.49 9.85
-2 4 11 225.81 19.82
-2 4 11 231.78 8.13
2 -4 -11 215.55 7.06
-2 4 10 10.19 1.5
-2 4 10 10.47 1.24
-2 4 10 10.2 1.39
2 -4 -10 9.91 2
2 -4 -10 11.06 1.39
-2 4 10 11.43 1.42
2 -4 -9 79.28 5.38
2 -4 -8 7.43 1.62
2 -4 -7 49.34 3.83
2 -4 -7 54.72 2.93
2 -4 -6 3.44 0.8
2 -4 -6 2.03 0.87
2 -4 -5 72.42 3.4
2 -4 -5 67.01 3.97
2 -4 -4 322.83 9.12
2 -4 -4 342.03 8.35
2 -4 -3 606.57 12.65
2 -4 -3 580.6 13.17
2 -4 -2 0.23 0.45
2 -4 -2 0.39 0.43
-2 4 2 0.29 0.09
2 -4 -1 189.92 5.76
2 -4 -1 185.83 5.47
2 -4 0 36.44 2.15
-2 4 0 32.73 0.73
2 -4 0 37.64 2.29
2 -4 1 33.93 2.06
2 -4 1 34.99 2.21
2 -4 2 381.03 9.26
-2 4 -2 357.29 6.12
-2 4 -3 60.55 1.24
2 -4 3 60.61 3.12
2 -4 4 115.05 4.59
-2 4 -4 109.5 2.04
2 -4 4 116.81 4.35
2 -4 5 183.82 5.92
-2 4 -5 170.86 3.08
2 -4 5 179.26 6.08
2 -4 6 0.5 0.56
2 -4 6 0.45 0.61
-2 4 -6 -0.06 0.11
-2 4 -6 0.09 0.11
2 -4 7 26.99 2.3
2 -4 7 24.43 2.06
-2 4 -7 23.63 0.72
-2 4 -7 22.61 0.66
-2 4 -8 227.49 4.19
-2 4 -8 238.48 4.34
2 -4 9 7.79 1.36
-2 4 -9 7.62 0.37
-2 4 -9 7.45 0.44
2 -4 10 2.89 0.88
-2 4 -10 1.18 0.67
-2 4 -10 3.03 0.25
-2 4 -11 97.3 6.15
2 -4 11 100.11 4.05
2 -4 11 99.82 3.8
-2 4 -11 97.8 2.02
2 -4 11 97.82 5
2 -4 12 38 2.6
2 -4 12 36.86 2.32
-2 4 -12 35.98 3.67
2 -4 12 35.47 2.22
2 -4 13 4 0.88
2 -4 13 5.33 1.11
2 -4 13 5.16 0.93
-2 4 -14 6.4 3.82
2 -4 14 7.16 1.28
2 -4 14 6.27 1.1
2 -4 14 6.1 0.98
2 -4 15 -0.36 0.61
2 -4 15 -0.03 0.71
2 -4 15 0.9 0.54
-2 4 -15 -0.78 1.87
2 -4 16 1.79 0.61
2 -4 16 1.83 0.76
2 -4 16 2.08 0.6
2 -4 17 6.91 1.15
2 -4 17 6.94 0.91
2 -4 17 6.61 0.78
2 -4 18 0.12 0.38
-2 4 -18 -2.09 1.57
-2 3 18 3.7 0.43
-2 3 18 4.79 0.72
-2 3 17 0.53 0.53
-2 3 17 0.2 0.4
-2 3 16 4.77 1.06
-2 3 16 4.24 1.2
2 -3 -16 5.73 2.92
-2 3 15 20.3 2.44
2 -3 -15 24.73 5.97
-2 3 15 25.11 2.15
-2 3 15 24.3 2.38
-2 3 14 3.72 0.98
-2 3 14 2.98 1.08
2 -3 -14 2.22 2.31
-2 3 14 2.85 1.09
2 -3 -13 57.56 10.21
-2 3 13 53.83 3.92
-2 3 13 52.62 3.61
-2 3 13 49.45 3.19
2 -3 -13 53.19 3.03
-2 3 12 89.38 4.92
-2 3 12 89.89 4.18
2 -3 -12 86.32 3.96
-2 3 12 85.58 4.54
2 -3 -12 85.23 5.87
2 -3 -12 93.74 12.43
-2 3 11 258.02 8.29
-2 3 11 243.56 7.83
2 -3 -11 239.58 10.23
-2 3 11 238.65 7.15
2 -3 -11 252.06 19.99
-2 3 11 245.16 7.81
2 -3 -11 246.55 7.16
2 -3 -10 116.37 6.72
2 -3 -9 258.85 10.12
2 -3 -8 40.82 3.56
2 -3 -7 321.67 10.47
2 -3 -6 359.2 10.8
2 -3 -6 389.56 9
2 -3 -5 39.46 2.81
2 -3 -5 42.48 2.25
-2 3 4 31.94 0.63
2 -3 -4 40.32 2.12
2 -3 -4 36.35 2.51
2 -3 -3 513.31 11.22
2 -3 -3 514.4 10.45
2 -3 -2 89.72 3.34
-2 3 2 85.08 1.52
2 -3 -1 338.37 7.71
2 -3 -1 331.36 7.77
-2 3 1 324.7 5.47
-2 3 0 58.39 1.12
2 -3 0 60.71 2.7
2 -3 1 649.77 13.49
2 -3 2 144.34 4.74
2 -3 3 61.46 2.99
2 -3 4 45.69 2.65
-2 3 -5 2.94 0.21
-2 3 -5 2.98 0.18
2 -3 5 3.11 0.77
2 -3 5 3.59 0.75
2 -3 6 17.56 1.7
-2 3 -6 16.48 0.53
-2 3 -6 15.98 0.49
2 -3 6 16.09 1.62
2 -3 7 20.83 1.89
2 -3 7 19.74 1.82
-2 3 -7 19.12 0.58
-2 3 -7 19.74 0.64
2 -3 8 77.36 3.49
-2 3 -8 76 1.6
-2 3 -8 75.96 1.71
2 -3 8 76.02 3.97
-2 3 -9 14.34 0.53
-2 3 -9 13.52 2.04
2 -3 9 15.66 1.81
2 -3 10 2.38 0.78
-2 3 -10 1.95 0.75
-2 3 -10 2.12 0.22
-2 3 -11 0.09 0.6
2 -3 11 0.25 0.46
-2 3 -11 0.38 0.13
2 -3 11 0.6 0.42
2 -3 12 118.66 4.44
-2 3 -12 123.51 7.04
2 -3 12 130.79 4.77
2 -3 12 126.82 5.01
2 -3 13 1.2 0.73
2 -3 13 1.77 0.67
2 -3 13 2.13 0.79
2 -3 14 12.12 1.52
-2 3 -14 15.18 5.89
2 -3 14 10.27 1.36
2 -3 14 12.66 1.69
2 -3 15 20.16 2.05
-2 3 -15 19.79 6.44
2 -3 15 18.83 1.8
2 -3 15 17.6 1.81
-2 3 -16 4.31 2.63
2 -3 16 8.62 1.24
2 -3 16 6.89 1.04
2 -3 16 7.48 1.25
-2 3 -17 5.32 2.72
2 -3 17 6.96 1.11
2 -3 17 7.85 0.94
2 -3 17 7.12 1.01
2 -3 18 -0.05 0.36
-2 3 -18 -0.59 1.82
2 -3 18 0.34 0.23
2 -3 18 0.27 0.28
-2 2 18 14.32 1.06
-2 2 18 14.33 0.91
-2 2 18 16.15 1.41
-2 2 17 2.89 0.93
-2 2 17 3.04 0.76
-2 2 16 17.72 1.87
-2 2 16 18.27 1.75
-2 2 16 18.89 2.2
2 -2 -16 19.09 4.35
-2 2 15 33.74 3.15
-2 2 15 28.45 2.61
-2 2 15 28.84 2.41
-2 2 14 9.35 1.51
-2 2 14 10.23 1.44
2 -2 -14 7.11 3.58
-2 2 14 11.78 1.87
2 -2 -13 12.66 4.62
-2 2 13 10.28 1.57
-2 2 13 12 1.56
-2 2 13 14.7 1.97
2 -2 -12 316.98 12.05
2 -2 -12 331.48 23.14
-2 2 12 322.61 9.45
-2 2 12 307.74 8.95
-2 2 12 341.37 10.11
2 -2 -11 12.96 4.66
-2 2 11 11.56 1.46
-2 2 11 10.32 1.24
-2 2 11 10.78 1.95
2 -2 -11 10.87 2.06
-2 2 11 12.51 1.61
-2 2 11 10.36 1.42
2 -2 -10 1.33 0.94
2 -2 -9 1.19 0.88
2 -2 -8 1.69 0.88
2 -2 -7 112.06 5.38
2 -2 -6 356.79 10.29
2 -2 -6 376.7 8.06
2 -2 -5 0.02 0.25
2 -2 -5 -0.03 0.41
2 -2 -4 10.95 0.98
2 -2 -4 11.07 1.33
2 -2 -3 310 6.97
2 -2 -2 9.7 0.87
2 -2 -2 9.45 0.93
-2 2 2 10.33 0.25
-2 2 1 42.3 0.79
2 -2 -1 40.48 0.75
2 -2 0 415.27 8.96
2 -2 1 3817.31 65.22
2 -2 2 572.31 12.22
-2 2 -3 104.23 1.87
2 -2 3 106.92 3.98
2 -2 4 -0.06 0.5
-2 2 -4 0.28 0.09
2 -2 5 82.49 3.44
2 -2 5 80.27 3.63
-2 2 -5 77.7 1.52
-2 2 -5 80.09 1.56
2 -2 6 89.89 3.77
-2 2 -6 91.63 1.79
2 -2 6 87.68 3.88
-2 2 -6 86 1.71
-2 2 -7 140.98 2.64
2 -2 7 146.59 5.12
2 -2 7 140.55 5.06
2 -2 8 108.13 4.46
-2 2 -8 105.04 2.09
-2 2 -8 106.76 5.53
2 -2 8 107.92 4.1
-2 2 -9 77.98 1.67
-2 2 -9 84.2 5.13
2 -2 9 82.25 3.9
-2 2 -10 18.17 2.55
-2 2 -10 17.96 0.63
2 -2 11 130.45 4.55
-2 2 -11 139.05 7.37
-2 2 -11 128.34 2.59
2 -2 11 141.53 4.93
2 -2 11 140.23 4.8
2 -2 12 197.24 6.25
-2 2 -12 193.1 9.01
-2 2 -12 201.39 3.76
2 -2 12 211.35 6.7
2 -2 12 205.08 6.45
2 -2 13 50.33 3.16
-2 2 -13 49.39 10.62
2 -2 13 48.37 2.91
2 -2 13 44.57 2.91
2 -2 14 10.43 1.49
2 -2 14 9.09 1.44
2 -2 14 9.16 1.3
2 -2 15 16.87 1.93
-2 2 -15 16.89 5.83
2 -2 15 16.54 1.77
2 -2 15 19.86 2.04
2 -2 16 12.65 1.6
-2 2 -16 13.65 5.02
2 -2 16 10.91 1.46
2 -2 16 10.8 1.31
2 -2 17 1.91 0.66
2 -2 17 1.76 0.57
2 -2 17 1.38 0.67
2 -2 18 7.7 0.94
2 -2 18 7.33 0.81
2 -2 18 7.71 0.75
-2 2 -18 10.8 3.12
-2 1 18 5.37 0.69
-2 1 18 4.44 0.54
-2 1 18 5.27 0.97
-2 1 17 0.67 0.69
-2 1 17 1.45 0.55
-2 1 17 1.27 0.47
-2 1 16 26.16 2.16
-2 1 16 24.34 2.17
-2 1 16 26.48 2.65
-2 1 15 0.56 0.74
-2 1 15 0.23 0.47
-2 1 15 -0.3 0.68
2 -1 -15 -2.18 2.96
-2 1 14 2.32 1.03
-2 1 14 1.52 0.77
-2 1 14 1.43 0.87
2 -1 -14 2.88 2.75
2 -1 -13 243.43 19.36
-2 1 13 226.11 7.65
-2 1 13 249.12 8.6
-2 1 13 231.6 7.65
-2 1 12 0.83 0.67
-2 1 12 2.02 1.01
-2 1 12 0.61 0.54
2 -1 -12 0.86 0.74
2 -1 -11 486.99 15.14
-2 1 11 462.8 14.11
-2 1 11 447.97 11.39
-2 1 11 488.27 11.82
-2 1 11 457.39 10.89
2 -1 -10 28.91 3.15
-2 1 10 25.41 2.91
2 -1 -9 83.43 5.07
2 -1 -8 0.26 0.48
2 -1 -7 0.36 0.41
2 -1 -6 10.92 0.76
2 -1 -6 9.77 1.4
2 -1 -5 42.2 2.63
2 -1 -5 45.91 1.66
2 -1 -4 114.33 4.2
2 -1 -4 119.15 3.16
2 -1 -3 1084.55 18.89
2 -1 -3 1116.61 19.52
2 -1 -2 340.61 6.95
2 -1 -1 196.67 4.83
2 -1 -1 197.25 4.79
2 -1 0 605.98 11.53
2 -1 0 595.06 9.83
2 -1 0 594.31 11.82
2 -1 1 7433.06 124.59
-2 1 -1 7471.13 122.88
-2 1 -2 3649.75 61.85
-2 1 -2 3779.98 61.53
2 -1 3 1802.7 31.86
-2 1 -3 1738.1 28.6
2 -1 4 344.04 8.86
-2 1 -4 355.03 6.01
-2 1 -5 123.85 2.17
2 -1 5 128.58 4.12
-2 1 -6 226.9 3.99
2 -1 6 218.09 6.76
2 -1 6 230.57 6.24
2 -1 7 241 7.13
-2 1 -7 252.51 4.46
-2 1 -7 235.72 8.26
-2 1 -8 0.47 0.13
-2 1 -8 0.26 0.66
2 -1 8 0.28 0.33
-2 1 -9 64.78 1.46
-2 1 -9 66.9 4.56
2 -1 9 72.49 3.25
-2 1 -10 5.82 1.44
-2 1 -10 5.57 0.34
2 -1 11 217.97 6.27
2 -1 11 213.32 6.44
-2 1 -11 200.98 9.06
2 -1 11 220.23 6.45
-2 1 -11 208.63 3.94
2 -1 12 19.69 1.82
2 -1 12 19.64 1.87
-2 1 -12 19.82 2.76
2 -1 12 17.72 1.64
-2 1 -12 22.13 6.53
2 -1 12 20.78 1.87
-2 1 -12 20.14 0.68
2 -1 13 3.23 1.01
-2 1 -13 1.46 3.49
2 -1 13 2.6 0.66
2 -1 13 3.84 0.95
2 -1 13 2.64 0.73
-2 1 -14 42.63 9.96
2 -1 14 35.49 2.4
2 -1 14 38.24 2.88
2 -1 14 38.37 2.76
2 -1 14 39.11 2.86
2 -1 15 10.78 1.57
-2 1 -15 9.63 5.28
2 -1 15 9.69 1.41
2 -1 15 10.46 1.19
2 -1 15 11.1 1.59
2 -1 16 176.24 6.22
2 -1 16 168.9 5.78
2 -1 16 169.55 6.06
2 -1 17 48.91 2.5
-2 1 -17 50.31 8.4
2 -1 17 49.3 2.79
2 -1 17 47.1 2.68
2 -1 18 0.26 0.28
-2 1 -18 0.34 1.4
2 -1 18 0.71 0.4
2 -1 18 0.08 0.3
-2 0 18 5.97 0.71
-2 0 18 6.04 0.63
-2 0 17 6.52 1.2
-2 0 17 6.61 0.89
-2 0 17 5.34 0.93
-2 0 16 21.95 2.36
-2 0 16 17.52 1.81
-2 0 16 17.99 1.82
-2 0 15 105.22 4.83
-2 0 15 106.62 4.85
-2 0 15 114.03 5.66
-2 0 14 10.04 1.69
-2 0 14 9.99 1.54
-2 0 14 7.92 1.31
-2 0 13 365.49 10.13
-2 0 13 359.25 10.02
-2 0 12 73.98 3.96
-2 0 12 67.53 3.49
-2 0 12 66.22 3.43
2 0 -12 65.19 4.95
-2 0 11 35.51 3.2
2 0 -11 31.1 3.37
2 0 -10 -0.26 0.75
-2 0 10 0.52 0.62
-2 0 9 0.63 0.42
2 0 -9 1.86 0.85
-2 0 9 0.89 0.72
2 0 -8 219.7 8.01
-2 0 8 221.48 8.33
-2 0 8 217.21 7.05
-2 0 7 349.42 9.36
2 0 -7 359.79 10.19
2 0 -6 590.57 13.51
-2 0 6 559.07 12.87
2 0 -5 278.43 5.27
2 0 -5 285.85 7.67
-2 0 5 286.03 7.49
2 0 -4 274.46 5.38
2 0 -4 277.33 7.01
-2 0 4 285.53 7.14
2 0 -3 138.41 3.12
2 0 -3 144.42 4.11
-2 0 3 138.4 4.24
2 0 -2 16.53 0.97
2 0 -2 17.31 1.09
-2 0 1 268.03 6.25
2 0 -1 279.54 5.8
2 0 -1 272.44 6.17
2 0 0 1.26 0.52
-2 0 0 -0.02 0.23
-2 0 -1 1882.49 32.03
2 0 1 1901.53 33.55
-2 0 -2 586.24 10.5
2 0 2 556.45 12.24
2 0 3 1047.81 20.49
2 0 4 0.12 0.44
-2 0 -5 1.13 0.13
2 0 5 0.75 0.58
2 0 5 1.9 0.47
2 0 6 1139.42 21.33
2 0 6 1107.28 22.8
-2 0 -6 1111.04 23.51
-2 0 -6 1158.19 19.12
-2 0 -7 16.52 1.92
2 0 7 18.53 1.7
2 0 7 18.27 1.37
-2 0 -7 17.96 0.56
-2 0 -8 1.18 0.66
-2 0 -8 2.17 0.22
-2 0 -9 2.58 0.96
-2 0 -9 2.64 0.24
-2 0 -10 135.69 6.94
-2 0 -10 136.02 2.71
2 0 11 7.95 1.12
2 0 11 8.37 1.19
2 0 11 8.58 1.17
2 0 11 7.96 1.09
-2 0 -11 10 1.86
-2 0 -11 7.32 2.79
-2 0 -11 6.74 0.39
-2 0 -12 23 0.77
2 0 12 25.7 2.1
-2 0 -12 18.45 5.65
2 0 12 25.48 2.18
2 0 12 23.44 2.01
-2 0 -12 22.33 2.76
2 0 12 20.32 1.87
-2 0 -12 26.08 1.97
2 0 13 47.75 3.2
2 0 13 49.22 3.06
2 0 13 48.66 3.07
-2 0 -13 48.3 1.2
-2 0 -13 57.57 11.58
2 0 13 52.23 3.22
2 0 14 11.82 1.65
2 0 14 9.78 1.41
2 0 14 12.62 1.63
-2 0 -14 9.56 5.12
2 0 14 11.35 1.52
2 0 15 0.56 0.59
2 0 15 -1.15 0.78
2 0 15 0.45 0.53
-2 0 -15 -0.68 3.27
2 0 15 -0.06 0.52
2 0 16 6.92 1.18
2 0 16 6.91 1.11
2 0 16 5.4 1.04
2 0 17 9.49 1.21
2 0 17 10.14 1.12
2 0 17 10.29 1.2
-2 0 -17 11.33 4.22
2 0 18 6.6 0.72
2 0 18 8.57 0.79
2 0 18 6.78 0.82
-2 -1 19 4.5 0.72
-2 -1 18 3.54 0.92
-2 -1 18 3.26 0.47
-2 -1 17 134.66 4.33
-2 -1 17 147.44 5.83
-2 -1 16 3.46 0.82
-2 -1 16 2.91 0.99
-2 -1 16 3.56 0.9
-2 -1 16 2.04 0.73
-2 -1 15 71.13 3.12
-2 -1 15 61.54 3.45
-2 -1 15 65.66 3.67
-2 -1 15 66.02 4.21
-2 -1 14 166.39 6.93
-2 -1 14 149.15 5.74
-2 -1 14 155.93 6.01
-2 -1 14 169.96 5.42
-2 -1 13 0.68 0.73
-2 -1 13 0.66 0.48
-2 -1 13 0.87 0.62
2 1 -13 0.45 0.74
-2 -1 12 1.79 0.61
-2 -1 12 1.45 0.58
-2 -1 12 2.23 0.93
2 1 -12 1.05 0.85
-2 -1 11 56.75 3.93
2 1 -11 56.22 4.36
-2 -1 10 56.71 3.61
-2 -1 10 54.29 3.86
2 1 -10 59.17 4.3
2 1 -9 9.89 1.69
-2 -1 9 7.08 1.48
-2 -1 9 8.41 1.4
2 1 -8 244.48 8.28
-2 -1 8 236.31 8.45
-2 -1 8 233.55 7.76
-2 -1 7 147.61 5.52
-2 -1 7 142.59 5.97
2 1 -7 141.03 5.6
-2 -1 6 42.94 2.95
-2 -1 6 43.73 2.7
2 1 -6 47.26 2.79
-2 -1 5 128.23 4.99
2 1 -5 133.2 4.48
2 1 -5 125.44 2.25
2 1 -4 160.35 4.63
-2 -1 4 162.51 5.38
-2 -1 4 162.84 5.04
2 1 -4 158.72 2.74
2 1 -4 157.9 3.42
2 1 -3 2972.31 48.14
2 1 -3 2950.51 48.74
2 1 -3 2846.17 46.79
2 1 -2 1883.79 31.74
2 1 -2 1826.92 32.1
2 1 -1 9999 163.79
2 1 -1 9889 165.04
2 1 0 123.09 3.81
-2 -1 0 122.76 3.51
-2 -1 -1 227.13 5.26
-2 -1 -1 228.05 6.17
2 1 1 225.92 5.99
-2 -1 -2 765.17 15.76
2 1 2 753.34 15.55
2 1 3 220.46 6.49
2 1 4 962.73 19.66
2 1 5 498.29 12.24
-2 -1 -5 482.23 11.88
-2 -1 -5 520.15 8.69
2 1 5 504.66 9.94
2 1 6 418.92 10.66
-2 -1 -6 400.28 6.96
-2 -1 -6 412.48 10.8
2 1 6 432.73 8.37
-2 -1 -7 146.14 6.02
-2 -1 -7 140.41 2.67
2 1 7 138.45 5.21
-2 -1 -8 14.02 1.95
-2 -1 -8 14.56 0.54
-2 -1 -9 18.29 0.64
-2 -1 -9 18.77 2.42
-2 -1 -10 -0.12 0.59
-2 -1 -10 0.32 0.16
-2 -1 -11 117.97 6.6
2 1 11 129.76 4.89
2 1 11 126.34 4.94
-2 -1 -11 123.84 2.57
-2 -1 -11 140.88 16.53
2 1 11 121.89 4.61
2 1 11 130.39 4.74
-2 -1 -11 126.53 4.72
-2 -1 -12 65.74 12.12
-2 -1 -12 64.8 1.58
2 1 12 71.64 3.61
2 1 12 66.29 3.69
2 1 12 72.15 3.8
-2 -1 -12 66.97 5
2 1 12 68.26 3.46
-2 -1 -12 74.12 3.56
-2 -1 -13 102.62 15.36
-2 -1 -13 107.01 4.44
2 1 13 104.92 4.66
-2 -1 -13 106.63 2.21
2 1 13 108.96 5.01
2 1 13 99.7 4.79
2 1 13 103.94 4.64
2 1 14 2.37 0.85
2 1 14 2.12 0.9
-2 -1 -14 2.19 0.72
2 1 14 0.88 0.56
-2 -1 -14 -0.33 2.17
2 1 14 1.51 0.75
2 1 15 27.97 2.36
2 1 15 30.36 2.33
2 1 15 26.04 2.22
2 1 15 28.78 2.52
-2 -1 -15 29.77 8.01
2 1 16 1.26 0.58
-2 -1 -16 1.66 1.76
2 1 16 2.09 0.93
2 1 16 0.95 0.62
2 1 17 3.22 0.67
-2 -1 -17 5.39 2.83
2 1 17 2.82 0.71
2 1 17 3.79 0.7
2 1 18 1.24 0.34
2 1 18 2.16 0.4
-2 -1 -18 2.26 1.49
-2 -2 19 0.64 0.37
-2 -2 18 63.42 3.21
-2 -2 18 50.19 1.79
-2 -2 17 166.35 6.26
-2 -2 17 175.28 4.56
-2 -2 16 33.21 2.91
-2 -2 16 26.98 2
-2 -2 16 26.05 1.91
-2 -2 16 27.74 2.21
-2 -2 16 30.08 1.98
-2 -2 15 2.71 0.78
-2 -2 15 2.81 0.95
-2 -2 15 1.7 0.58
-2 -2 15 1.69 0.73
-2 -2 14 4.28 1.17
-2 -2 14 4.29 1
-2 -2 14 3.91 0.98
-2 -2 13 12.28 1.43
-2 -2 13 11.37 1.45
2 2 -13 13.74 2.23
-2 -2 13 14.71 1.83
2 2 -12 1.24 0.91
-2 -2 12 2.98 1.01
-2 -2 12 1.1 0.86
-2 -2 11 77.99 4.47
2 2 -11 76.3 5.03
2 2 -10 13.41 2.02
-2 -2 10 11.45 1.66
-2 -2 10 13.97 1.92
-2 -2 9 32.93 2.89
2 2 -9 35.28 3.03
-2 -2 9 36.2 2.97
-2 -2 8 65.05 4.01
-2 -2 8 70.5 3.99
2 2 -8 71.31 4.04
2 2 -7 121.67 2.3
-2 -2 7 117.14 5.06
2 2 -7 118 4.97
-2 -2 7 120.45 5.31
-2 -2 6 11.89 1.49
-2 -2 6 11.61 1.54
2 2 -6 12.62 1.37
2 2 -6 11.83 0.39
2 2 -5 330.92 6.49
2 2 -5 326.14 8.03
2 2 -5 328.18 5.57
-2 -2 5 315.41 8.63
-2 -2 5 329.23 8.95
-2 -2 4 1.7 0.71
-2 -2 4 1.47 0.44
2 2 -4 1.66 0.38
2 2 -4 1.53 0.11
2 2 -4 1.16 0.4
2 2 -3 3061.72 52.53
2 2 -3 3114.63 52.21
2 2 -2 8.84 0.9
2 2 -2 8.9 0.56
2 2 -1 334.84 7.69
-2 -2 1 338.89 7.55
-2 -2 1 320.53 7.76
2 2 0 3.18 0.14
-2 -2 0 3.35 0.64
-2 -2 0 4.39 0.77
2 2 0 3.4 0.75
-2 -2 -1 197.59 4.02
-2 -2 -1 192.22 5.84
2 2 1 202.48 5.8
-2 -2 -1 208.69 5.45
-2 -2 -2 159.42 3.95
-2 -2 -2 164.19 5.58
2 2 2 158.84 5.23
-2 -2 -3 91.61 4.16
-2 -2 -3 93.98 3.19
2 2 3 92.57 3.98
2 2 4 136.98 5.19
2 2 4 123.48 2.98
-2 -2 -4 136.63 4.46
-2 -2 -4 136.72 5.44
-2 -2 -4 135.46 2.41
-2 -2 -5 62.55 1.29
2 2 5 60.77 1.76
-2 -2 -5 63.36 3.74
2 2 5 62.42 3.51
-2 -2 -5 61.8 3.15
-2 -2 -6 173.45 6.2
-2 -2 -6 169.89 3.12
2 2 6 162.82 6.12
2 2 6 169.86 2.94
2 2 7 121.18 5.01
-2 -2 -7 122.04 2.39
-2 -2 -7 116.79 5.36
-2 -2 -8 63.07 4.12
-2 -2 -8 65.59 1.5
-2 -2 -9 8.43 0.44
-2 -2 -9 7.34 1.47
-2 -2 -10 28.82 0.91
-2 -2 -10 27.01 2.97
2 2 11 30.34 2.12
2 2 11 26.84 2.28
2 2 11 27.37 2.07
-2 -2 -11 28.77 2.24
-2 -2 -11 31.74 8.42
-2 -2 -11 26.2 2.96
2 2 11 28.33 2.27
-2 -2 -11 26.75 0.89
2 2 12 10.27 1.54
-2 -2 -12 6.92 2.9
-2 -2 -12 11.16 0.54
-2 -2 -12 10.9 1.96
2 2 12 13.23 1.65
2 2 12 11.92 1.45
2 2 12 10.25 1.38
-2 -2 -12 10.61 1.49
2 2 13 169.28 6.71
-2 -2 -13 185.79 6.43
2 2 13 182.15 6.77
2 2 13 183.76 6.45
-2 -2 -13 198.73 21.76
2 2 13 175.41 6.16
2 2 14 13.73 1.62
2 2 14 13.63 1.72
-2 -2 -14 13.02 1.54
2 2 14 13.82 1.78
-2 -2 -14 15.72 5.86
2 2 14 13.12 1.58
2 2 15 42.85 2.74
-2 -2 -15 46.34 9.78
2 2 15 41.85 2.97
-2 -2 -15 39.95 2.42
2 2 15 43.63 2.79
2 2 15 38.89 2.73
2 2 16 1.4 0.66
2 2 16 1.64 0.53
2 2 16 2.28 0.63
2 2 17 8.21 1.07
2 2 17 8.92 0.97
-2 -2 -17 7.82 3.24
2 2 18 0.02 0.2
-2 -3 19 8.79 0.94
-2 -3 18 4.46 0.9
-2 -3 18 4.69 0.56
-2 -3 17 22.77 2.15
-2 -3 17 22.16 1.53
-2 -3 17 17.01 1.24
-2 -3 16 140.03 4.89
-2 -3 16 136 5.85
-2 -3 15 9.64 1.68
-2 -3 15 8.38 1.28
-2 -3 15 8.42 1.17
-2 -3 14 0.96 0.73
-2 -3 14 1.14 0.51
-2 -3 14 1.19 0.53
-2 -3 13 10.12 1.53
-2 -3 13 8.49 1.23
2 3 -13 7.53 1.71
-2 -3 12 76.46 3.56
-2 -3 12 87.39 4.02
2 3 -12 89.35 5.42
-2 -3 12 80.53 4.83
-2 -3 11 35.74 3.21
2 3 -11 39.09 3.43
-2 -3 10 167.17 6.66
2 3 -10 163.01 7.13
-2 -3 10 167.56 7.22
-2 -3 9 58.38 3.77
-2 -3 9 55.83 3.91
2 3 -9 61.38 3.92
-2 -3 8 31.96 2.75
2 3 -8 38.04 0.96
2 3 -8 37.13 2.81
-2 -3 8 40.19 3.09
2 3 -7 417.95 7.19
-2 -3 7 427.95 11.53
2 3 -7 438.19 10.92
-2 -3 7 407.15 11.38
-2 -3 6 157.96 5.9
2 3 -6 169.85 5.37
-2 -3 6 149.68 5.85
2 3 -6 163.88 3.97
2 3 -6 154.42 2.82
2 3 -5 254.08 6.44
2 3 -5 239.9 4.17
-2 -3 5 240.12 7.37
-2 -3 5 240 7.29
-2 -3 4 22.26 1.88
2 3 -4 20.26 1.28
-2 -3 4 22.07 1.8
-2 -3 3 1799.93 32.77
2 3 -3 1796.87 30.33
-2 -3 3 1817.14 32.44
-2 -3 2 0.5 0.47
-2 -3 2 0.07 0.44
2 3 -2 0.42 0.13
-2 -3 1 158.99 5
-2 -3 1 160.04 4.6
-2 -3 0 179.26 5.75
2 3 0 185.97 3.17
-2 -3 -1 62.4 2.98
-2 -3 -1 64.91 1.67
-2 -3 -1 62.94 3.23
2 3 1 62.67 3.15
-2 -3 -2 82.38 2.46
2 3 2 79.16 3.77
-2 -3 -2 77.48 3.83
2 3 3 6.03 1.12
-2 -3 -3 5.07 0.22
-2 -3 -3 4.16 0.63
-2 -3 -3 4.6 1.03
2 3 4 -0.31 0.61
-2 -3 -4 0.1 0.09
-2 -3 -4 0.51 0.36
-2 -3 -4 0.3 0.54
2 3 5 7.13 1.23
-2 -3 -5 9.26 1.52
-2 -3 -5 8.32 1.17
-2 -3 -5 8.94 0.37
-2 -3 -6 51.44 3.7
2 3 6 52.67 3.44
-2 -3 -6 54.32 1.23
-2 -3 -6 52.78 3.23
2 3 6 53.4 1.08
2 3 7 162.71 6.29
-2 -3 -7 174.17 6.7
-2 -3 -7 172.7 3.26
-2 -3 -8 0.99 0.19
-2 -3 -8 1.26 0.66
-2 -3 -9 123.31 2.57
-2 -3 -9 122.44 6.18
2 3 10 41.74 2.78
-2 -3 -10 43.1 1.21
2 3 10 46.59 2.72
-2 -3 -10 38.08 3.41
2 3 10 44.31 2.48
-2 -3 -10 42.86 8.93
-2 -3 -10 44.61 2.78
-2 -3 -11 32.56 1.02
2 3 11 32.45 2.5
2 3 11 33.91 2.35
-2 -3 -11 24.65 2.92
-2 -3 -11 33.66 2.54
2 3 11 27.8 2.47
-2 -3 -11 27.18 7.98
2 3 12 -0.15 0.55
2 3 12 0.33 0.5
2 3 12 -0.1 0.47
-2 -3 -12 0.11 0.56
2 3 12 -0.14 0.55
-2 -3 -12 -1.03 2.54
-2 -3 -13 5.74 1.19
2 3 13 6.05 1.05
2 3 13 5.32 1.25
2 3 13 4.93 1
2 3 13 5.03 1.09
-2 -3 -13 5.88 3.95
2 3 14 38.6 2.56
2 3 14 38.34 2.95
2 3 14 40.8 2.74
2 3 14 39.43 2.98
-2 -3 -14 37.98 2.73
-2 -3 -14 45.63 10.05
-2 -3 -15 1.93 0.61
2 3 15 1.03 0.72
2 3 15 2 0.71
2 3 15 2.07 0.63
-2 -3 -15 1.65 2.33
2 3 15 3 0.74
2 3 16 1.57 0.58
2 3 16 1.59 0.62
-2 -3 -16 0.64 2.3
-2 -3 -16 1.91 0.53
-2 -3 -17 3.87 2.04
2 3 17 3.68 0.72
2 3 17 3.58 0.57
-2 -4 19 1.57 0.43
-2 -4 18 1.36 0.38
-2 -4 18 1.52 0.6
-2 -4 17 10.69 1.45
-2 -4 17 10.06 1.13
-2 -4 16 11.15 1.33
-2 -4 16 7.52 0.91
-2 -4 16 8.26 1.38
-2 -4 15 15.1 1.48
-2 -4 15 13.62 1.45
-2 -4 15 15.27 1.89
-2 -4 14 48.77 3.31
-2 -4 14 43.5 2.57
-2 -4 14 43.47 2.68
-2 -4 13 5.8 1.13
-2 -4 13 4.78 0.88
-2 -4 13 6.38 0.98
-2 -4 12 285.55 7.89
-2 -4 12 253.37 9.7
-2 -4 12 254.14 7.14
-2 -4 12 243.97 7.02
2 4 -12 292.88 10.19
-2 -4 11 53.07 4.12
2 4 -11 58.11 4.12
-2 -4 10 86.75 5.2
2 4 -10 90.11 4.99
-2 -4 10 86.57 4.56
2 4 -9 7.88 0.4
-2 -4 9 6.26 1.24
2 4 -9 7.84 1.37
-2 -4 9 8.22 1.55
-2 -4 8 9.42 1.56
-2 -4 8 7.35 1.34
2 4 -8 9.49 1.37
2 4 -8 8.79 0.4
-2 -4 7 17.69 1.95
2 4 -7 19.61 0.59
-2 -4 7 19.1 2.1
2 4 -7 18.71 1.75
2 4 -6 257.12 7
-2 -4 6 248.59 8.06
2 4 -6 251.17 4.42
-2 -4 6 243.65 8.01
2 4 -5 188.11 5.23
-2 -4 5 191.21 6.6
-2 -4 5 186.79 6.43
2 4 -4 92 2.91
-2 -4 4 87.08 3.19
-2 -4 4 91.11 4.07
-2 -4 4 93.74 4.23
-2 -4 3 6.42 0.96
-2 -4 3 5.87 0.89
2 4 -3 6.45 0.53
-2 -4 3 6.79 1.13
-2 -4 2 7.33 1.09
2 4 -2 4.95 0.31
-2 -4 2 5.41 0.91
-2 -4 2 5.13 0.83
-2 -4 1 588.35 12.89
-2 -4 1 561.38 11.82
-2 -4 0 45.74 2.79
-2 -4 0 49.89 2.82
2 4 0 48.37 0.93
-2 -4 0 47.32 2.12
-2 -4 -1 36.93 2.59
-2 -4 -1 34.1 1.16
-2 -4 -2 21.29 0.53
-2 -4 -2 19.91 2.03
-2 -4 -2 20.86 1.14
2 4 2 19.25 1.97
-2 -4 -3 32.01 2.73
-2 -4 -3 34.59 1.81
2 4 3 32.54 2.62
-2 -4 -3 34.89 0.81
-2 -4 -4 132.49 4.49
-2 -4 -4 135.21 2.51
2 4 4 125.17 5.65
-2 -4 -4 122.13 5.79
-2 -4 -5 5.09 1.2
-2 -4 -5 6 0.32
2 4 5 5.63 1.23
-2 -4 -5 6.52 1.04
2 4 5 5.67 0.27
-2 -4 -6 36.79 2.67
2 4 6 36.33 3.03
-2 -4 -6 36.45 3.35
2 4 6 40.88 0.92
-2 -4 -6 40.42 1.03
-2 -4 -7 67.4 4.61
-2 -4 -7 70.35 4.06
-2 -4 -7 71.03 1.61
2 4 7 68.29 4.04
-2 -4 -8 52.6 1.34
-2 -4 -8 48.34 3.57
-2 -4 -9 70.03 4.49
-2 -4 -9 74.19 1.76
-2 -4 -10 0.27 0.71
2 4 10 -0.03 0.46
2 4 10 0.83 0.5
-2 -4 -10 0.24 0.51
2 4 10 0.54 0.41
-2 -4 -10 -1.04 3.02
2 4 11 2.42 0.93
-2 -4 -11 0.42 2.12
2 4 11 2.64 0.76
-2 -4 -11 2.49 0.9
2 4 11 1.34 0.58
2 4 12 70.03 3.62
2 4 12 69.49 3.98
-2 -4 -12 78.78 13.71
-2 -4 -12 70.25 4.03
2 4 12 69.89 4.16
2 4 13 102.5 5.08
2 4 13 106.96 5.04
-2 -4 -13 89.57 14.43
2 4 13 103.35 4.48
-2 -4 -13 106.51 4.99
2 4 14 1.72 0.71
2 4 14 -0.39 2.2
2 4 14 1.85 0.84
2 4 14 2.3 0.68
-2 -4 -14 2.85 0.87
-2 -4 -14 0.71 2.14
-2 -4 -15 0.59 0.54
2 4 15 0.11 0.57
-2 -4 -15 -1.24 2.69
2 4 15 0.6 0.5
2 4 15 0.13 0.43
-2 -4 -16 6.63 0.81
2 4 16 6.54 0.99
2 4 16 8.18 0.94
-2 -4 -16 7.15 3.32
2 4 17 0.07 0.29
2 4 17 0.52 0.21
-2 -5 18 0.58 0.33
-2 -5 18 0.91 0.49
-2 -5 17 5.89 1.12
-2 -5 17 6.32 0.96
-2 -5 16 1.97 0.77
-2 -5 16 3.37 0.85
-2 -5 15 21.15 1.57
-2 -5 15 22.39 2.25
-2 -5 15 18.58 1.48
-2 -5 14 7.4 1.36
-2 -5 14 7.85 1.02
-2 -5 14 7.27 0.99
-2 -5 13 14.49 1.42
-2 -5 13 16.95 1.82
-2 -5 12 119.56 4.66
-2 -5 12 106.4 4.08
2 5 -12 123.48 6.2
-2 -5 12 109.42 6.21
-2 -5 12 126.72 4.2
-2 -5 12 122.86 4.73
-2 -5 11 4.88 0.79
-2 -5 11 6.08 1.55
-2 -5 11 6.79 0.9
2 5 -11 4.47 1.21
-2 -5 11 4.92 0.89
-2 -5 10 133.52 6.86
2 5 -10 146.4 6.35
2 5 -10 144.76 2.91
2 5 -9 16.67 0.62
-2 -5 9 15.9 1.87
2 5 -9 17.43 1.99
-2 -5 9 17.08 2.28
-2 -5 8 350.58 10.59
2 5 -8 354.04 6.28
-2 -5 8 368.76 11.44
2 5 -8 385.83 10.1
-2 -5 7 121.35 5.48
2 5 -7 133.61 4.95
2 5 -7 126.92 2.47
-2 -5 7 131.05 6.01
-2 -5 6 75.11 4.1
-2 -5 6 74.27 4.22
2 5 -6 78.14 3.27
2 5 -5 71.49 2.76
-2 -5 5 65.22 2.72
-2 -5 5 67.04 3.79
-2 -5 5 72.99 3.94
-2 -5 4 104.66 4.68
-2 -5 4 99.84 3.87
-2 -5 4 101.49 4.56
2 5 -4 106.52 3.06
-2 -5 3 76.77 3.63
-2 -5 3 77.95 3.9
2 5 -3 75.06 2.1
-2 -5 3 71.77 3.39
-2 -5 2 549.25 10.98
-2 -5 2 540.78 11.39
-2 -5 1 1.24 0.48
-2 -5 1 1.15 0.6
-2 -5 1 1.46 0.71
-2 -5 0 99.77 4.55
-2 -5 0 89.87 4.41
2 5 0 100.34 1.77
-2 -5 0 92.44 3.33
-2 -5 -1 38.05 1.33
-2 -5 -1 43.17 3.12
2 5 2 7.26 1.32
-2 -5 -2 6.32 1.29
-2 -5 -2 6.23 0.65
-2 -5 -3 186.62 3.35
-2 -5 -3 182.71 4.98
-2 -5 -3 167.75 7.13
2 5 3 169.66 7.01
-2 -5 -4 431.52 13.14
2 5 4 425.55 12.64
-2 -5 -4 459.11 10.36
-2 -5 -4 451.98 7.77
2 5 5 0.12 0.11
-2 -5 -5 0.2 0.14
-2 -5 -5 -0.38 0.71
-2 -5 -5 0.04 0.32
2 5 5 0.89 0.75
-2 -5 -6 18.72 2.56
-2 -5 -6 21.59 0.73
-2 -5 -6 20.58 1.96
2 5 6 22.48 0.68
2 5 6 19.58 2.33
-2 -5 -7 104.79 4.96
-2 -5 -7 113.35 2.36
-2 -5 -7 107.27 6.23
2 5 7 103.79 5.3
-2 -5 -8 34.62 2.93
2 5 9 113.96 4.86
2 5 9 114.57 4.57
-2 -5 -9 110.58 14.29
2 5 9 120.07 4.17
-2 -5 -9 117.88 4.88
2 5 10 17.29 1.94
2 5 10 17.37 1.62
2 5 10 16.4 1.77
-2 -5 -10 14.31 5.97
-2 -5 -10 14.61 1.87
-2 -5 -11 13.69 5.54
-2 -5 -11 17.55 2.02
2 5 11 20.39 1.88
2 5 11 13.68 1.69
2 5 11 15.69 2
-2 -5 -12 311.96 9.72
2 5 12 311.06 9.84
2 5 12 305.27 9.36
2 5 12 304.49 8.56
-2 -5 -12 303.56 27.23
2 5 13 4.5 1.05
-2 -5 -13 1.58 1.97
2 5 13 3.77 1.06
2 5 13 2.9 0.78
-2 -5 -13 4.19 1.06
2 5 14 0.2 0.42
2 5 14 1.7 1.6
-2 -5 -14 0.42 0.54
2 5 14 0.83 0.66
-2 -5 -14 0.37 2.38
2 5 14 0.35 0.59
2 5 15 1.31 0.49
-2 -5 -15 1.41 0.61
2 5 15 0.44 0.52
-2 -5 -15 -0.29 2.32
2 5 16 56.87 2.56
-2 -5 -16 59.49 7.96
2 5 16 58.95 2.17
-2 -5 -16 57.25 2.22
-2 -6 18 11.37 1.15
-2 -6 18 15.95 1.18
-2 -6 17 20.11 1.78
-2 -6 17 25.86 1.84
-2 -6 16 6.92 1.24
-2 -6 16 7.71 1.19
-2 -6 16 7.89 0.91
-2 -6 15 12.15 1.29
-2 -6 15 11.14 1.54
-2 -6 14 10.5 1.5
-2 -6 13 2.65 0.58
-2 -6 13 2.44 0.74
-2 -6 12 -0.17 0.49
-2 -6 12 -0.65 0.94
-2 -6 12 -0.12 0.38
-2 -6 12 -0.83 0.56
-2 -6 11 62.86 2.96
-2 -6 11 62.65 4.76
-2 -6 11 61.85 2.96
2 6 -11 64.35 1.6
-2 -6 11 61.51 3.12
2 6 -11 64.14 4.06
-2 -6 11 65.64 3.28
2 6 -10 53.66 3.5
2 6 -10 51.28 1.33
-2 -6 10 48.46 4.13
-2 -6 9 121.33 6.47
2 6 -9 128.57 2.61
2 6 -9 135.73 5.44
-2 -6 9 120.56 5.49
-2 -6 8 7.51 1.51
-2 -6 8 7.37 1.33
2 6 -8 7.68 0.4
2 6 -8 7.88 1.17
-2 -6 7 150.77 6.42
2 6 -7 166.95 5.47
2 6 -7 166.38 2.97
-2 -6 7 155.17 6.99
-2 -6 6 0.83 0.66
-2 -6 6 -0.17 0.49
2 6 -6 -0.05 0.3
-2 -6 5 166.73 5.4
2 6 -5 187.06 4.85
-2 -6 5 176.79 6.84
-2 -6 5 178.59 6.83
-2 -6 4 307.94 9.39
-2 -6 4 280.09 8.13
-2 -6 4 293.46 8.86
-2 -6 3 110.14 5.11
-2 -6 3 104.89 4.57
-2 -6 3 100 4.5
-2 -6 2 7.56 1.39
-2 -6 2 5.7 1.16
-2 -6 2 6.37 1.04
-2 -6 1 22.58 2.23
-2 -6 1 24.23 2.36
2 6 -1 25.22 0.56
-2 -6 1 24.4 1.8
-2 -6 0 5.94 0.77
2 6 0 6.57 0.22
-2 -6 -1 50.72 3.61
-2 -6 -2 276.72 9.63
2 6 3 485.57 14.08
-2 -6 -3 499.3 14.46
2 6 4 6.75 1.45
-2 -6 -4 7.31 1.63
2 6 4 8.73 0.42
-2 -6 -5 117.51 6.68
2 6 5 126.59 2.49
2 6 5 109.64 6.02
2 6 6 191.35 8.26
-2 -6 -6 188.43 9.22
2 6 7 100.84 2.4
-2 -6 -7 162.65 7.91
2 6 8 111.18 4.6
-2 -6 -8 106.6 6.35
-2 -6 -8 114.24 13.91
-2 -6 -8 108.86 4.62
2 6 8 112.02 4.19
2 6 9 100.25 4.7
2 6 9 100.6 4.33
2 6 9 104.66 3.87
-2 -6 -9 104.14 14.72
-2 -6 -9 106.87 4.83
2 6 10 116.93 5.31
2 6 10 113.09 4.85
-2 -6 -10 117.43 5.38
-2 -6 -10 107.79 15.68
2 6 10 113.88 4.22
2 6 11 13.23 1.41
2 6 11 12.81 1.82
2 6 11 12.44 1.65
-2 -6 -11 6.92 4.44
-2 -6 -11 13.01 1.82
-2 -6 -12 10.59 5.31
2 6 12 8.66 1.38
2 6 12 7.2 1.07
2 6 12 6.78 1.37
-2 -6 -12 8.21 1.49
2 6 13 1.33 0.74
2 6 13 1.72 0.69
2 6 13 0.9 0.38
-2 -6 -13 2 0.86
-2 -6 -13 0.15 3.02
2 6 14 0.19 0.55
2 6 14 -0.61 1.78
2 6 14 0.34 0.43
2 6 14 -0.07 0.49
-2 -6 -14 -0.14 0.57
-2 -6 -14 -0.13 2.43
2 6 15 24.52 4.46
2 6 15 29.03 1.53
2 6 15 28.15 1.9
-2 -6 -15 29.65 1.93
-2 -6 -15 31.15 6.61
-2 -6 -16 7.9 2.82
2 6 16 5.98 0.65
-2 -7 18 7.32 0.77
-2 -7 18 8.55 0.87
-2 -7 17 39.13 1.7
-2 -7 17 41.08 2.31
-2 -7 16 8.83 1.19
-2 -7 16 9.7 1.09
-2 -7 16 12.11 1.41
-2 -7 15 33.56 2.49
-2 -7 15 41.56 2.54
-2 -7 14 104.99 4.57
-2 -7 14 113.66 4.2
-2 -7 13 6.43 1.1
-2 -7 13 6.26 1.01
-2 -7 13 6.72 1.14
-2 -7 12 64.06 3.22
-2 -7 12 66.85 3.47
-2 -7 12 70.02 3.37
2 7 -11 31.41 1
-2 -7 11 29.56 2.19
-2 -7 11 29.51 2.1
-2 -7 11 31.41 2.33
-2 -7 11 26.37 3.12
-2 -7 10 29.63 2.05
-2 -7 10 32.64 2.17
-2 -7 10 31.34 1.97
-2 -7 10 30.79 2.19
2 7 -10 31.62 0.98
-2 -7 10 30.85 2.09
-2 -7 10 30.57 3.37
2 7 -9 39.81 1.12
-2 -7 9 42.58 3.88
-2 -7 8 1.22 0.83
2 7 -8 1.15 0.19
-2 -7 8 1.11 0.64
2 7 -7 14.96 0.48
-2 -7 7 12.96 1.95
-2 -7 7 15.07 1.99
-2 -7 6 9.78 1.61
-2 -7 6 10.92 1.71
-2 -7 5 325.08 10.28
-2 -7 5 345.04 10.71
-2 -7 5 323.51 8.89
-2 -7 4 54.13 3.49
-2 -7 4 56.28 3.84
-2 -7 4 53.02 3.3
-2 -7 3 207.68 7.49
-2 -7 3 231.49 8.26
-2 -7 3 216.27 7.28
-2 -7 2 20.95 2.25
-2 -7 2 25.28 2.58
-2 -7 2 24.63 2.03
-2 -7 1 0.24 0.64
-2 -7 1 -0.13 0.4
-2 -7 0 55.59 3.99
-2 -7 0 57.59 2.54
-2 -7 -1 156.1 7.13
-2 -7 -2 82.85 5.25
2 7 3 98.43 2.06
-2 -7 -3 92.2 5.83
2 7 3 95.07 5.73
2 7 4 4.49 1.29
-2 -7 -4 6.02 1.74
2 7 4 5.62 0.36
-2 -7 -5 39.4 4.01
2 7 5 45.84 1.24
2 7 5 41.08 3.72
2 7 6 116.14 6.33
-2 -7 -6 114.65 7.13
-2 -7 -7 16.85 1.72
-2 -7 -7 17.98 1.98
-2 -7 -7 14.98 4.6
-2 -7 -7 13.67 2.4
-2 -7 -8 11.95 1.73
2 7 8 12.32 1.36
-2 -7 -8 10.17 2.03
2 7 8 13.08 1.62
-2 -7 -8 9.98 1.44
-2 -7 -8 11.75 5.74
-2 -7 -9 53.62 11.02
-2 -7 -9 55.55 3.6
2 7 9 56.67 3.16
2 7 9 57.02 3.55
-2 -7 -10 10 1.57
-2 -7 -10 12.13 5.88
2 7 10 7.87 1.25
2 7 10 8.69 1.05
2 7 10 9.07 1.47
-2 -7 -11 84.27 14.04
2 7 11 80.84 3.35
-2 -7 -11 84.84 4.65
2 7 11 81.34 4.44
2 7 11 78.14 4.06
-2 -7 -12 15.5 1.91
2 7 12 18.17 2.03
2 7 12 15.09 1.37
2 7 12 17.18 1.85
-2 -7 -12 14.61 6.04
-2 -7 -13 1.7 0.89
2 7 13 2.05 0.77
-2 -7 -13 -0.29 2.51
2 7 13 2.04 0.56
2 7 13 -0.09 1.7
2 7 13 2.09 0.84
2 7 14 0.13 0.44
2 7 14 -0.37 0.35
-2 -7 -14 0.34 0.5
-2 -7 -15 9.41 0.78
2 7 15 7.13 1.75
-2 -7 -15 7.91 2.68
2 7 15 10.59 0.94
-2 -7 -15 11.52 1.08
-2 -8 18 0.25 0.29
-2 -8 17 4.49 0.69
-2 -8 17 6.72 0.93
-2 -8 17 6.92 0.74
-2 -8 16 0.33 0.42
-2 -8 16 -0.22 0.52
-2 -8 16 0.91 0.61
-2 -8 15 3.03 0.73
-2 -8 15 3.94 0.72
-2 -8 15 3.77 0.86
-2 -8 14 5.96 1.02
-2 -8 14 6.84 1.07
-2 -8 13 0.4 0.5
-2 -8 13 1.46 0.57
-2 -8 13 0.92 0.61
-2 -8 12 18.34 1.9
-2 -8 12 21.07 1.87
-2 -8 12 20.4 1.94
-2 -8 11 7.28 1.17
2 8 -11 6.46 0.42
-2 -8 11 6.29 1.11
-2 -8 11 7.01 1.18
-2 -8 11 6.16 1.55
-2 -8 10 18.35 1.68
-2 -8 10 18.35 1.7
-2 -8 10 14.55 2.4
-2 -8 10 16.97 1.63
2 8 -10 17.09 0.69
-2 -8 10 17.49 2.55
-2 -8 10 17.59 1.76
-2 -8 9 89.58 3.69
-2 -8 9 86.01 3.61
-2 -8 9 89.09 3.81
2 8 -9 88.96 2
-2 -8 9 90.43 3.76
-2 -8 9 79.1 5.55
-2 -8 9 85.78 3.45
-2 -8 8 4.29 1.3
-2 -8 8 3.05 0.97
-2 -8 7 94.84 5.72
2 8 -7 102.86 2.06
-2 -8 7 98.58 5.32
-2 -8 6 109 5.69
-2 -8 6 109.72 5.85
-2 -8 5 0.57 0.65
-2 -8 5 1.39 0.8
-2 -8 5 1.2 0.62
-2 -8 4 10.22 1.73
-2 -8 4 7.62 1.36
-2 -8 4 9.5 1.54
-2 -8 3 136.73 6.24
-2 -8 3 140.52 5.73
-2 -8 2 127.83 5.09
-2 -8 2 129.33 6.34
-2 -8 1 3.85 0.77
-2 -8 1 3.08 1.02
-2 -8 0 4.65 1.34
-2 -8 -1 71.02 5.14
2 8 1 81.33 1.81
-2 -8 -2 1.09 0.94
2 8 2 1.23 0.2
-2 -8 -3 42.75 4.13
2 8 3 45.88 4.15
2 8 3 43.63 1.21
2 8 4 124.07 2.59
-2 -8 -4 109.08 6.97
2 8 4 113.3 6.65
2 8 5 252.21 10.56
-2 -8 -5 239.5 11.26
-2 -8 -6 13.28 1.42
2 8 6 13.53 1.41
-2 -8 -6 16.51 5.55
2 8 6 14.42 2.21
-2 -8 -6 13.18 2.42
2 8 6 11.02 0.8
-2 -8 -6 14.62 1.57
-2 -8 -7 251.29 11.35
-2 -8 -7 315.62 9.97
2 8 7 282.77 8.15
-2 -8 -7 290.45 23.26
-2 -8 -7 279.6 8.58
-2 -8 -7 283.16 7.79
2 8 8 0.22 0.59
-2 -8 -8 1.17 1.02
-2 -8 -8 -0.28 0.58
-2 -8 -8 1.78 0.67
-2 -8 -9 46.77 10.44
2 8 9 54.14 3.48
2 8 9 52.53 3.01
-2 -8 -9 55.44 3.67
-2 -8 -9 54.57 3.69
2 8 10 36.87 2.88
2 8 10 39.32 2.58
-2 -8 -10 38.69 3.15
-2 -8 -11 17.97 6.38
2 8 11 16.52 1.74
2 8 11 19.32 2.08
-2 -8 -11 18.12 2.1
2 8 12 57.98 3.37
2 8 12 54.56 2.97
-2 -8 -12 60.06 3.63
-2 -8 -12 55.86 10.48
2 8 13 9.74 1.27
-2 -8 -13 9.71 1.36
2 8 13 7.02 3.44
-2 -8 -13 7.65 3.51
2 8 13 8.44 1.06
2 8 14 9.55 0.91
-2 -8 -14 12.97 4
-2 -8 -14 11.77 1.23
-2 -8 -15 21.72 3.81
-2 -8 -15 27.34 1.35
-2 -9 18 6.49 0.61
-2 -9 17 0.44 0.27
-2 -9 17 0.83 0.41
-2 -9 16 30.7 2.08
-2 -9 16 34.14 2.01
-2 -9 16 28.82 1.53
-2 -9 15 33.92 2.43
-2 -9 15 34.51 2.32
-2 -9 15 33.8 2.06
-2 -9 14 -0.13 0.56
-2 -9 14 -0.18 0.54
-2 -9 13 79.31 3.88
-2 -9 13 82.3 3.95
-2 -9 12 64.64 3.52
2 9 -12 62.98 1.58
-2 -9 12 61.49 3.42
-2 -9 12 68.57 3.63
-2 -9 11 4.22 0.99
-2 -9 11 3.33 0.86
-2 -9 11 3.54 0.82
-2 -9 11 4.25 2.35
2 9 -11 3.32 0.31
-2 -9 10 16.8 2.48
-2 -9 10 18.87 1.82
-2 -9 10 18.59 1.84
-2 -9 10 14.71 2.66
-2 -9 10 17.62 1.8
2 9 -10 17.12 0.69
-2 -9 10 16.85 1.65
-2 -9 9 118.42 4.58
-2 -9 9 115.45 4.63
-2 -9 9 112.26 4.36
-2 -9 9 117.6 4.57
-2 -9 9 116.26 4.52
2 9 -9 113.66 2.48
-2 -9 9 109.13 6.58
-2 -9 8 215.54 6.35
-2 -9 8 237.95 6.68
-2 -9 8 244.13 6.87
-2 -9 8 219 6.23
-2 -9 8 242.83 6.88
-2 -9 8 237.16 6.76
-2 -9 8 229.13 8.49
-2 -9 8 211.35 9.37
-2 -9 7 125.72 6.07
2 9 -7 127.23 2.53
2 9 -6 224.21 4.02
-2 -9 6 180.54 8.19
2 9 -5 71.92 1.58
-2 -9 5 60.54 4.23
-2 -9 4 5.97 1.36
-2 -9 4 7.55 1.38
2 9 -4 7.34 0.39
2 9 -3 17.27 0.64
-2 -9 3 17.08 2.3
-2 -9 3 15.91 1.82
2 9 -2 6.49 0.39
-2 -9 2 6.14 1.01
-2 -9 2 5.45 1.38
-2 -9 1 166.4 8.17
2 9 -1 185.03 3.56
-2 -9 0 23.51 3.01
2 9 0 30.3 0.95
-2 -9 -1 6.47 1.68
2 9 1 9.4 0.49
2 9 2 0.42 0.81
2 9 2 0.35 0.17
-2 -9 -2 0.74 0.8
2 9 3 13.84 2.46
-2 -9 -3 10.67 2.27
2 9 3 13.95 0.64
2 9 4 34.81 3.75
-2 -9 -4 35.97 2.38
-2 -9 -4 37.63 4.24
2 9 4 45.85 1.38
-2 -9 -5 24.13 1.94
-2 -9 -5 23.82 2.06
-2 -9 -5 26.54 3.51
2 9 5 28.94 3.23
2 9 5 24.38 1.05
-2 -9 -5 29.28 7.22
-2 -9 -6 28.47 3.6
2 9 6 33.39 2.26
-2 -9 -6 28.69 2.34
-2 -9 -6 27.77 7.4
-2 -9 -6 29.55 2.21
2 9 7 253.62 7.46
-2 -9 -7 233.21 7.04
-2 -9 -7 257.77 9.4
-2 -9 -7 222.46 21.47
-2 -9 -7 236.41 7.94
-2 -9 -7 208.23 10.08
2 9 8 51.33 3.15
-2 -9 -8 52.14 3.93
-2 -9 -8 43.53 3.26
-2 -9 -8 55.13 11.02
-2 -9 -8 41 2.56
2 9 9 10.67 1.52
-2 -9 -9 9.8 1.65
-2 -9 -9 8.71 4.98
-2 -9 -9 12.17 1.9
-2 -9 -9 10.36 1.2
2 9 10 3.71 0.91
-2 -9 -10 2.96 1.01
-2 -9 -10 4.26 1.19
-2 -9 -10 4.72 3.89
2 9 11 9.73 1.39
-2 -9 -11 9.74 1.57
-2 -9 -12 0.05 0.54
2 9 12 -0.77 2.27
2 9 12 1.15 0.61
-2 -9 -12 -1.5 2.22
-2 -9 -13 5.27 0.97
2 9 13 5.75 2.99
-2 -9 -13 3.11 1.81
-2 -9 -14 31.48 1.52
-2 -9 -14 34.46 1.77
2 9 14 28.88 4.38
-2 -9 -14 26.38 4.49
-2 -10 17 0.69 0.27
-2 -10 17 1.29 0.43
-2 -10 16 13.64 1.02
-2 -10 16 13.73 1.23
-2 -10 16 13.96 1.31
-2 -10 15 8.49 1.13
-2 -10 15 7.43 1.01
-2 -10 15 7.3 1.12
-2 -10 14 11.21 1.42
-2 -10 14 11.6 1.46
-2 -10 14 10.45 1.29
-2 -10 13 38.83 2.69
-2 -10 13 41.67 2.7
-2 -10 13 42.81 2.9
-2 -10 12 54.1 3.24
-2 -10 12 54.67 3.2
-2 -10 12 50.73 3.14
2 10 -11 0.5 0.15
-2 -10 11 0.54 0.45
-2 -10 11 0.45 0.57
-2 -10 11 0.75 2.64
-2 -10 11 0.85 0.7
-2 -10 10 49.67 3.03
-2 -10 10 50.67 3.8
-2 -10 10 49.05 3.03
-2 -10 10 49.82 3.05
-2 -10 10 48.36 3.12
2 10 -10 45.94 1.28
-2 -10 9 42.03 2.69
-2 -10 9 34.27 3.58
-2 -10 9 43.14 2.75
2 10 -9 39.87 1.18
-2 -10 9 41.15 2.69
-2 -10 9 44.27 2.86
-2 -10 9 52.53 3.68
-2 -10 9 28.07 8.82
-2 -10 8 140.42 5.12
-2 -10 8 138.15 4.93
-2 -10 8 137.49 5.1
-2 -10 8 132.36 16.03
-2 -10 8 138.51 5.16
-2 -10 8 139.92 5.18
-2 -10 8 127.38 6.99
-2 -10 7 1.2 0.51
-2 -10 7 -0.01 0.5
-2 -10 7 0.65 0.53
-2 -10 7 -0.03 0.37
-2 -10 7 0.31 0.85
-2 -10 7 0.96 0.55
-2 -10 7 2.61 0.99
-2 -10 7 1.8 4.21
2 10 -7 0.74 0.2
2 10 -6 148.24 3.15
-2 -10 6 145.01 4.95
-2 -10 6 149.85 4.99
-2 -10 6 153.64 5.24
-2 -10 6 151.55 5.22
-2 -10 6 136.52 4.58
-2 -10 6 155.27 5.2
-2 -10 6 133.63 6.86
-2 -10 5 31.96 2.99
2 10 -5 39.13 1.05
-2 -10 4 1.44 0.64
-2 -10 4 1.91 0.83
2 10 -4 2.53 0.26
-2 -10 3 3.58 1.12
2 10 -3 4.8 0.35
-2 -10 2 4.55 1.35
2 10 -2 5.96 0.4
-2 -10 1 27.62 3.36
2 10 -1 39.22 1.15
2 10 0 41.41 1.21
-2 -10 0 35.98 3.91
-2 -10 -1 3.08 1.4
2 10 1 2.37 0.3
-2 -10 -2 2.15 1.07
2 10 2 3.29 1.35
2 10 2 4.07 0.37
-2 -10 -2 5.1 0.97
-2 -10 -3 83.51 3.97
-2 -10 -3 81.87 6.39
-2 -10 -3 75.56 10.33
2 10 3 83.57 6.07
-2 -10 -4 75.66 3.74
2 10 4 66.91 5.23
-2 -10 -4 56.96 9.56
-2 -10 -4 65.7 5.75
2 10 4 71.77 2.04
-2 -10 -4 62.62 3.24
-2 -10 -5 6.78 1.15
-2 -10 -5 7.98 3.88
2 10 5 8.61 1.9
-2 -10 -5 5.59 1.97
-2 -10 -5 5.92 1.11
2 10 5 1.7 0.66
-2 -10 -6 0.17 0.48
-2 -10 -6 1.27 1.06
-2 -10 -6 -0.1 0.44
-2 -10 -7 18.28 2.06
2 10 7 20.54 1.81
-2 -10 -7 20.44 2.64
-2 -10 -7 18.36 1.77
-2 -10 -7 18.02 6.6
2 10 8 28.55 2.19
-2 -10 -8 26.44 2.85
-2 -10 -8 25.08 2.49
-2 -10 -8 21.36 7.25
-2 -10 -8 26.37 2.07
2 10 9 4.54 0.97
-2 -10 -9 3.28 1.08
-2 -10 -9 3.02 2.23
-2 -10 -9 4.33 1.24
-2 -10 -9 3.46 0.73
-2 -10 -10 1.47 0.88
2 10 10 0.77 0.52
-2 -10 -10 0.74 1.64
2 10 11 -0.13 0.41
-2 -10 -11 0.27 0.51
2 10 11 -1.66 2.49
-2 -10 -11 2.4 2.4
2 10 12 10.89 4.19
-2 -10 -12 14.26 4.28
-2 -10 -12 14.49 1.51
-2 -10 -13 12.59 1.12
2 10 13 11.29 3.28
-2 -10 -13 10.36 3.09
-2 -10 -13 12.46 1.13
-2 -11 17 22.67 1.06
-2 -11 17 20.86 1.04
-2 -11 16 0.89 0.44
-2 -11 16 0.6 0.35
-2 -11 16 0.76 0.3
-2 -11 15 68.9 3.14
-2 -11 15 72.22 2.95
-2 -11 15 66.29 2.96
-2 -11 14 12.73 1.39
-2 -11 14 12.95 1.4
-2 -11 14 12.76 1.45
-2 -11 13 19.78 1.78
-2 -11 13 18.56 1.89
-2 -11 13 18.28 1.82
-2 -11 13 19.26 1.72
-2 -11 12 8.48 1.32
-2 -11 12 9.79 1.35
-2 -11 12 9.61 1.33
-2 -11 12 10.22 1.46
-2 -11 11 10.71 1.42
-2 -11 11 11.1 1.47
-2 -11 11 12 1.56
-2 -11 11 11.02 1.43
-2 -11 10 8.57 3.25
-2 -11 10 9.75 1.41
-2 -11 10 10.51 1.5
-2 -11 10 8.99 1.46
-2 -11 10 8.98 1.34
-2 -11 10 8.67 1.32
2 11 -10 8.98 0.49
2 11 -9 257.1 4.81
-2 -11 9 265.42 8.03
-2 -11 9 259.31 7.91
-2 -11 9 227.16 6.92
-2 -11 9 250.81 7.86
-2 -11 9 256.75 8.02
-2 -11 9 247.15 7.78
-2 -11 9 240.29 22.62
-2 -11 9 260.52 7.93
-2 -11 8 59.11 4.68
-2 -11 8 66.33 3.75
-2 -11 8 56.59 3.05
-2 -11 8 65.32 3.43
-2 -11 8 63.76 3.5
-2 -11 8 67.1 3.5
-2 -11 8 66.91 3.57
-2 -11 8 66.09 3.54
-2 -11 8 59.86 12.3
-2 -11 7 52.73 3.08
-2 -11 7 50.61 2.87
-2 -11 7 49.01 11.21
-2 -11 7 49.99 3.01
-2 -11 7 49.08 2.78
-2 -11 7 48.8 2.78
-2 -11 7 52.29 3.05
-2 -11 7 53.67 3.06
2 11 -7 51.91 1.33
-2 -11 7 47 4.04
-2 -11 6 11.9 1.93
-2 -11 6 13.92 1.47
-2 -11 6 14.99 1.54
-2 -11 6 14.65 1.44
-2 -11 6 16.53 1.57
-2 -11 6 14.72 1.57
-2 -11 6 16.03 1.63
-2 -11 6 15.7 1.65
2 11 -6 15.92 0.67
-2 -11 6 15.33 8.04
-2 -11 5 22.65 1.73
-2 -11 5 25.24 1.99
-2 -11 5 24.05 8.13
-2 -11 5 24.73 2.01
-2 -11 5 22.6 1.82
-2 -11 5 24.32 1.72
-2 -11 5 24.17 2.03
-2 -11 5 21.79 2.53
2 11 -5 31.83 0.93
-2 -11 4 7.52 1.16
-2 -11 4 8.78 1.16
2 11 -4 11.3 0.56
-2 -11 4 8.54 0.99
-2 -11 4 6.48 1.04
-2 -11 4 12.56 7.14
-2 -11 4 4.14 1.21
-2 -11 4 7.85 1.1
-2 -11 4 9.12 1.14
-2 -11 3 1.48 0.55
-2 -11 3 1.62 0.57
2 11 -3 2.37 0.29
-2 -11 3 1.78 0.55
-2 -11 3 3.22 1.24
-2 -11 3 1.04 0.63
-2 -11 3 2.67 0.71
-2 -11 2 5.55 0.98
-2 -11 2 6.05 1.31
-2 -11 2 8.59 1.17
-2 -11 2 5.5 1.62
-2 -11 2 6.31 0.93
2 11 -2 8.26 0.5
-2 -11 2 6.97 1.09
-2 -11 1 44.46 2.62
-2 -11 1 38.8 4.07
-2 -11 1 41.39 3.13
2 11 -1 55.74 1.51
-2 -11 1 44.72 2.36
-2 -11 1 47.42 15.52
-2 -11 1 42.98 2.61
-2 -11 1 43.46 2.78
-2 -11 0 61.98 3.45
2 11 0 78.45 1.92
-2 -11 0 65.01 3.23
-2 -11 0 65.14 3.39
-2 -11 0 63.71 2.78
-2 -11 0 57.83 5.14
-2 -11 0 68.12 18.02
-2 -11 -1 4.33 0.9
-2 -11 -1 6.66 1.97
-2 -11 -1 4.37 0.98
2 11 1 2.94 1.26
-2 -11 -1 7.14 12.37
-2 -11 -1 4.09 0.86
2 11 1 7.09 0.55
2 11 2 87.64 2.23
-2 -11 -2 75.25 3.55
-2 -11 -2 74.75 3.92
-2 -11 -2 67.29 5.84
2 11 2 82.45 6.11
-2 -11 -3 270.56 20.81
2 11 3 266.28 11.38
-2 -11 -3 281.04 8.25
2 11 3 253 5.32
-2 -11 -3 253.44 11.69
-2 -11 -4 59.6 3.36
-2 -11 -4 56.09 3.04
-2 -11 -5 204.2 6.82
-2 -11 -5 195.28 19.08
-2 -11 -5 218.08 7.21
-2 -11 -6 77.54 3.88
-2 -11 -6 70.9 3.9
-2 -11 -6 78.03 5.33
-2 -11 -6 67.51 11.77
-2 -11 -7 1.16 0.65
-2 -11 -7 2.8 0.8
-2 -11 -7 2.53 1.32
2 11 8 2.93 0.67
-2 -11 -8 2.88 0.96
-2 -11 -8 3.98 3.83
-2 -11 -8 3.76 0.87
-2 -11 -8 5.04 1.47
2 11 9 6.86 0.98
-2 -11 -9 6.58 1.26
-2 -11 -9 5.95 0.86
-2 -11 -9 5.64 1.33
2 11 9 4.5 3.83
-2 -11 -9 7.71 3.77
-2 -11 -10 1.39 1.38
-2 -11 -10 0.59 0.59
2 11 10 -1.95 3.37
2 11 11 -1.59 1.5
-2 -11 -11 0.46 0.51
-2 -11 -11 0.85 1.42
-2 -11 -12 15.92 1.37
2 11 12 14.16 3.79
-2 -11 -12 14.67 3.55
-2 -11 -12 14.35 1.23
-2 -12 16 6.63 0.71
-2 -12 16 5.26 0.51
-2 -12 16 5.21 0.53
-2 -12 15 10.06 1.06
-2 -12 15 9.13 0.87
-2 -12 15 10.55 1.01
-2 -12 14 0.19 0.37
-2 -12 14 0.55 0.54
-2 -12 14 0.31 0.4
-2 -12 13 8.17 1.09
-2 -12 13 10 1.32
-2 -12 13 8.1 1.15
-2 -12 13 8.28 1.04
-2 -12 12 33.55 2.37
-2 -12 12 35.81 2.48
-2 -12 12 31.43 2.42
-2 -12 12 31.45 2.42
-2 -12 12 29.34 1.93
-2 -12 11 3.47 0.76
-2 -12 11 5.56 1.15
-2 -12 11 5.22 1.12
-2 -12 11 5.36 1.06
-2 -12 11 4.48 1.03
-2 -12 10 2.66 0.89
-2 -12 10 2.73 0.73
-2 -12 10 2.69 0.77
-2 -12 10 3.87 0.96
-2 -12 10 5.86 3.58
-2 -12 10 3.04 0.72
-2 -12 9 92.89 4.31
-2 -12 9 78.6 3.47
-2 -12 9 85 4.12
-2 -12 9 85.58 5.02
2 12 -9 82.04 1.92
-2 -12 9 82.59 4.05
-2 -12 9 86.87 4.28
-2 -12 9 85.87 4.17
-2 -12 8 4.17 0.95
-2 -12 8 5.24 1.05
-2 -12 8 4.55 0.89
-2 -12 8 4.6 0.97
-2 -12 8 16.8 14.99
-2 -12 8 8.93 3.06
-2 -12 8 5.14 1.01
-2 -12 8 16.73 1.69
-2 -12 7 19.98 16.35
-2 -12 7 14.72 1.65
-2 -12 7 14 1.62
-2 -12 7 13.38 1.58
-2 -12 7 13.52 1.46
-2 -12 7 13.01 1.53
-2 -12 7 15.13 2.2
-2 -12 7 12.32 1.44
2 12 -7 13.65 0.6
-2 -12 6 55.52 3.21
-2 -12 6 56.42 3.21
-2 -12 6 54.5 3.13
-2 -12 6 60.39 3.42
-2 -12 6 60.11 3.41
-2 -12 6 59.86 2.98
-2 -12 6 64.98 17.21
2 12 -6 59.15 1.53
-2 -12 6 58.27 3.04
-2 -12 5 60.91 3.4
-2 -12 5 65.29 3.53
-2 -12 5 65.41 3.6
-2 -12 5 63.39 3.31
-2 -12 5 62.69 3.11
-2 -12 5 72.44 17.28
2 12 -5 77.62 1.88
2 12 -5 63.59 1.7
-2 -12 5 60.15 3.02
-2 -12 4 15.99 1.82
-2 -12 4 17.41 1.68
-2 -12 4 17.55 1.83
-2 -12 4 17.91 1.68
2 12 -4 20.83 0.83
-2 -12 4 17.11 1.76
-2 -12 4 23.55 17.55
-2 -12 4 15.74 1.41
-2 -12 3 2.04 0.71
-2 -12 3 2.22 1.16
-2 -12 3 2.98 1.6
-2 -12 3 3.55 0.92
-2 -12 3 2.51 0.78
-2 -12 3 3.59 0.81
2 12 -3 3.44 0.4
-2 -12 2 40.54 4.29
-2 -12 2 47.29 3.08
-2 -12 2 48.21 2.69
-2 -12 2 45.65 3.65
2 12 -2 61.42 1.68
-2 -12 2 50.15 3.03
-2 -12 2 45.73 21.93
-2 -12 2 47.49 2.94
-2 -12 1 82.02 22.99
-2 -12 1 54.59 3.2
-2 -12 1 56.45 3.4
-2 -12 1 52.94 3.27
-2 -12 1 53.69 2.75
2 12 -1 73.32 1.9
-2 -12 1 49.32 4.69
-2 -12 0 18.06 1.93
-2 -12 0 20.8 2.05
2 12 0 23.13 3.33
-2 -12 0 21.2 1.97
2 12 0 28.39 1.18
-2 -12 0 13.9 2.58
-2 -12 0 21.38 1.6
-2 -12 -1 116.23 5.18
-2 -12 -1 114.73 4.74
2 12 1 122.87 3.01
-2 -12 -1 116.88 5.1
-2 -12 -2 14.82 1.84
-2 -12 -2 14.22 1.62
2 12 2 11.75 0.86
-2 -12 -3 25.09 2.05
-2 -12 -3 30.09 6.83
-2 -12 -3 29.3 2.46
-2 -12 -3 29.09 2.56
-2 -12 -4 3.93 0.83
-2 -12 -4 0.88 3.01
-2 -12 -4 4.15 3.38
-2 -12 -4 4.73 0.98
-2 -12 -5 142.43 5.21
-2 -12 -5 173.54 8.35
-2 -12 -5 158.4 5.95
-2 -12 -5 147.02 16.3
-2 -12 -5 152.65 5.51
-2 -12 -6 16.53 3.12
-2 -12 -6 12.17 1.28
-2 -12 -6 12.79 1.57
-2 -12 -6 12.7 1.57
-2 -12 -7 90.94 5.45
-2 -12 -7 74.12 3.07
-2 -12 -7 89.28 3.89
-2 -12 -7 86.52 12.43
2 12 7 95.23 14.64
-2 -12 -7 80.75 4.03
2 12 8 10.64 4.42
-2 -12 -8 6.03 3.94
-2 -12 -8 9.13 1.08
-2 -12 -8 11.19 1.77
-2 -12 -8 10.1 1.36
-2 -12 -9 -0.38 0.37
2 12 9 -1.52 2.8
-2 -12 -9 0.48 2.11
-2 -12 -9 0.28 0.55
-2 -12 -10 7.42 1.02
-2 -12 -10 10.37 1.35
-2 -12 -10 11.68 3.78
2 12 10 6.94 3.33
-2 -12 -10 9.34 1.14
-2 -12 -11 4.78 0.66
-2 -12 -11 5.64 0.85
-2 -12 -11 3.8 0.58
-2 -12 -11 3.32 1.65
2 12 11 6.34 2.78
-2 -13 15 76.8 2.7
-2 -13 15 76.03 2.54
-2 -13 14 270.65 6.96
-2 -13 14 275.58 6.92
-2 -13 13 -0.21 0.44
-2 -13 13 0.47 0.41
-2 -13 13 -0.47 0.51
-2 -13 12 0.43 0.48
-2 -13 12 -0.15 0.45
-2 -13 12 -0.15 0.45
-2 -13 12 -0.31 0.48
-2 -13 11 2.23 0.73
-2 -13 11 2.69 0.77
-2 -13 11 2.14 0.67
-2 -13 11 2.18 0.7
-2 -13 10 7.58 1.18
-2 -13 10 7.01 1.16
-2 -13 10 7.36 1.18
-2 -13 10 5.83 1.13
-2 -13 10 6.11 1.06
-2 -13 9 -0.26 0.58
-2 -13 9 0.74 0.7
-2 -13 9 1.58 0.78
-2 -13 9 0.61 0.86
-2 -13 9 0.55 0.54
-2 -13 9 0.25 0.55
-2 -13 9 -1.37 3.37
-2 -13 9 5.87 14.67
-2 -13 8 23.8 3.84
-2 -13 8 20.72 1.9
-2 -13 8 22.61 5.84
-2 -13 8 19.8 1.96
-2 -13 8 24.62 2.13
-2 -13 8 20.91 1.96
-2 -13 8 21.84 2.07
-2 -13 8 9.98 18.1
-2 -13 8 19.56 1.77
-2 -13 7 11.62 1.44
-2 -13 7 14.53 1.67
-2 -13 7 14.3 1.76
-2 -13 7 17.31 3.02
-2 -13 7 14.68 1.48
-2 -13 7 15.46 1.75
2 13 -7 14.16 0.6
-2 -13 7 14.74 1.68
-2 -13 6 11.3 1.53
-2 -13 6 11.06 1.76
-2 -13 6 11.29 1.46
-2 -13 6 13.51 1.66
-2 -13 6 12.31 2.38
-2 -13 6 5.5 19.46
-2 -13 6 11.2 1.31
2 13 -6 11.03 0.56
-2 -13 5 1.52 0.57
-2 -13 5 2.89 0.88
-2 -13 5 3.43 1.97
-2 -13 5 2.86 0.87
-2 -13 5 3.15 1.46
-2 -13 5 2.69 0.93
-2 -13 5 2.17 0.7
2 13 -5 2.37 0.29
-2 -13 5 10.01 20.09
-2 -13 4 6.09 2.55
-2 -13 4 6.53 1.19
-2 -13 4 6.95 1.44
-2 -13 4 6.83 1.21
2 13 -4 4.27 0.54
2 13 -4 5.96 0.44
-2 -13 4 5.25 1.07
2 13 -3 0.76 0.28
-2 -13 3 1.18 0.57
2 13 -3 0.58 0.29
-2 -13 3 2.23 1.01
-2 -13 3 1.36 0.7
-2 -13 3 1.06 0.65
-2 -13 2 1.94 0.7
-2 -13 2 1.31 0.66
-2 -13 2 2.21 0.81
-2 -13 2 2.11 0.72
2 13 -2 1.88 0.44
-2 -13 1 83.31 4.08
-2 -13 1 92.37 4.44
-2 -13 1 91.72 4.43
-2 -13 1 84.35 3.43
-2 -13 0 218.12 5.48
-2 -13 0 215.8 6.76
-2 -13 0 223.8 7.18
-2 -13 0 236.77 7.36
-2 -13 -1 12.7 1.69
-2 -13 -1 11.61 1.47
-2 -13 -1 10.84 1.56
-2 -13 -1 11.23 1.48
-2 -13 -2 38.3 2.62
-2 -13 -2 39.78 2.89
-2 -13 -2 38.4 2.87
-2 -13 -2 38.11 2.89
-2 -13 -2 42.45 5.23
-2 -13 -3 34.31 2.7
-2 -13 -3 32.28 6.82
-2 -13 -3 33.12 2.43
-2 -13 -3 34.18 2.9
-2 -13 -3 36.33 5.28
-2 -13 -3 38 2.8
-2 -13 -4 1.64 0.76
-2 -13 -4 1.16 1.72
-2 -13 -4 2.7 0.65
-2 -13 -4 4.29 3.35
2 13 4 5.35 3.17
-2 -13 -4 2.03 0.7
-2 -13 -5 55.99 3.4
-2 -13 -5 51.47 2.79
2 13 5 72.3 11.8
-2 -13 -5 44.86 8.33
-2 -13 -5 60.29 5.08
-2 -13 -5 61.51 3.41
-2 -13 -6 2.97 1.66
-2 -13 -6 1.91 3.2
-2 -13 -6 1.45 0.66
-2 -13 -6 0.58 0.39
-2 -13 -6 2.55 0.74
-2 -13 -6 1.32 0.46
2 13 6 2.66 2.74
-2 -13 -7 0.44 0.44
2 13 7 2.73 2.99
-2 -13 -7 0.79 0.6
-2 -13 -7 1.06 0.44
-2 -13 -7 1.71 1.1
-2 -13 -7 1.13 0.49
-2 -13 -8 1.31 0.73
-2 -13 -8 0.55 0.37
-2 -13 -8 -1.09 1.83
-2 -13 -8 0.5 0.45
-2 -13 -8 0.31 0.4
2 13 8 -1.44 2.52
-2 -13 -9 3.23 0.77
2 13 9 -1.15 1.69
-2 -13 -9 -0.36 1.12
-2 -13 -9 2.34 0.62
-2 -13 -9 2.56 0.55
-2 -13 -10 51.55 2.08
-2 -13 -10 54.55 2.04
2 13 10 52.62 6.71
-2 -13 -10 62.05 2.66
-2 -14 14 28.34 1.53
-2 -14 14 26.93 1.46
-2 -14 13 0.95 0.37
-2 -14 13 1.48 0.45
-2 -14 13 0.18 1.16
-2 -14 13 1.27 0.46
-2 -14 12 0.37 0.45
-2 -14 12 -0.1 0.41
-2 -14 12 1.26 1.49
-2 -14 12 1.03 0.51
-2 -14 12 0.32 0.46
-2 -14 11 5.16 0.88
-2 -14 11 5.09 0.86
-2 -14 11 4.71 0.87
-2 -14 11 4.56 2.07
-2 -14 11 5.58 1.02
-2 -14 10 -0.24 0.52
-2 -14 10 -0.21 0.5
-2 -14 10 0.21 0.4
-2 -14 10 0.66 0.49
-2 -14 10 0.52 0.5
-2 -14 9 11.02 1.4
-2 -14 9 12.17 1.45
-2 -14 9 8.38 1.22
-2 -14 9 10.4 1.37
-2 -14 9 7.51 3.36
-2 -14 9 9.23 1.15
-2 -14 8 20.1 1.92
-2 -14 8 20.64 1.93
-2 -14 8 19.57 1.61
-2 -14 8 19.44 3.91
-2 -14 8 18.19 1.73
-2 -14 8 21.43 1.94
-2 -14 7 3.42 0.82
-2 -14 7 3.97 1.03
-2 -14 7 3.32 0.81
-2 -14 7 3.13 0.88
-2 -14 7 2.23 3.37
-2 -14 7 1.44 14.7
-2 -14 6 0.24 0.46
-2 -14 6 2.41 3.07
-2 -14 6 0.88 0.66
-2 -14 6 0.56 0.69
-2 -14 6 0.37 0.44
-2 -14 5 14.07 1.65
-2 -14 5 14.24 1.51
-2 -14 5 14.27 1.66
-2 -14 5 13.06 1.53
-2 -14 5 12.45 2.68
-2 -14 5 11.95 1.2
-2 -14 5 11.54 16.42
-2 -14 4 26.69 2.31
-2 -14 4 26.15 2.1
-2 -14 4 25.94 2.64
-2 -14 4 27.8 2.23
-2 -14 4 27.82 2.34
-2 -14 3 171 6.24
-2 -14 3 159.61 5.67
-2 -14 3 161.45 6.12
-2 -14 3 177.41 6.4
-2 -14 2 2.65 0.9
-2 -14 2 2.05 0.71
-2 -14 2 1.35 1.36
-2 -14 1 27.31 2.32
-2 -14 1 27.19 2.42
-2 -14 1 32.22 4.51
-2 -14 1 25.71 1.96
-2 -14 1 25.27 2.32
-2 -14 0 171.31 8.61
-2 -14 0 165.36 6.11
-2 -14 0 178.19 6.63
-2 -14 0 175.32 6.45
-2 -14 -1 -0.4 0.49
-2 -14 -1 0.86 3.98
-2 -14 -1 0.59 0.5
-2 -14 -1 -0.16 0.58
-2 -14 -2 2.9 0.83
-2 -14 -2 3.84 0.99
-2 -14 -2 1.96 0.82
-2 -14 -2 3.74 0.86
-2 -14 -3 26.95 2.32
-2 -14 -3 23.14 1.91
-2 -14 -3 25.13 3.9
-2 -14 -3 24.37 2.3
-2 -14 -3 27.57 2.29
-2 -14 -4 4.75 1.1
-2 -14 -4 3.26 0.89
-2 -14 -4 6.19 2.51
-2 -14 -4 3.64 0.74
2 14 4 0.03 1.97
-2 -14 -4 1.23 2.14
-2 -14 -4 4.13 0.96
-2 -14 -5 -0.69 1.38
-2 -14 -5 0.53 0.47
-2 -14 -5 0.1 0.56
-2 -14 -5 1.3 1.32
-2 -14 -5 0.2 0.49
2 14 5 0.14 1.91
-2 -14 -5 0.88 0.56
-2 -14 -6 4.87 1.39
-2 -14 -6 3.83 0.98
-2 -14 -6 3.64 0.59
-2 -14 -6 6.12 2.54
-2 -14 -6 3.55 0.75
2 14 6 4.82 2.65
-2 -14 -6 3.25 0.77
2 14 7 10.67 3.5
-2 -14 -7 9.76 1.15
-2 -14 -7 11.1 1.37
-2 -14 -7 11.78 1.1
-2 -14 -7 10.85 3.19
-2 -14 -8 2.72 0.57
2 14 8 1.28 1.35
-2 -14 -8 2.56 0.62
-2 -14 -8 2.03 0.41
2 14 9 5.3 1.87
-2 -14 -9 5.7 0.72
-2 -14 -9 4.19 0.51
-2 -15 13 10.33 0.78
-2 -15 13 11.4 0.94
-2 -15 12 0.49 0.38
-2 -15 12 0.48 0.32
-2 -15 12 -0.13 0.32
-2 -15 11 18.31 1.42
-2 -15 11 18.93 1.48
-2 -15 11 18.55 1.43
-2 -15 11 14.2 1.14
-2 -15 10 21.44 1.66
-2 -15 10 17.01 1.3
-2 -15 10 20.83 1.61
-2 -15 10 20.69 1.64
-2 -15 9 15.6 1.51
-2 -15 9 16.46 1.54
-2 -15 9 11.45 1.03
-2 -15 9 16.5 1.5
-2 -15 9 15.8 1.46
-2 -15 8 28.96 2.1
-2 -15 8 29.84 2.19
-2 -15 8 26.65 1.92
-2 -15 8 30.09 3.61
-2 -15 8 25.57 1.99
-2 -15 7 55.41 3.14
-2 -15 7 59.24 3.14
-2 -15 7 53.92 2.97
-2 -15 7 49.37 4.15
-2 -15 7 48.8 2.57
-2 -15 6 37.71 2.57
-2 -15 6 34.31 1.98
-2 -15 6 36.53 2.44
-2 -15 6 38.59 2.55
-2 -15 6 36.86 3.88
-2 -15 5 41.88 2.8
-2 -15 5 45.79 2.71
-2 -15 5 49.21 4.06
-2 -15 5 48.79 2.95
-2 -15 5 41.6 2.53
-2 -15 4 8.56 1.28
-2 -15 4 10.42 1.25
-2 -15 4 7.72 2.9
-2 -15 4 8.69 1.27
-2 -15 4 8.69 1.28
-2 -15 3 16.72 1.79
-2 -15 3 17.77 1.83
-2 -15 3 15.97 1.74
-2 -15 3 14.98 1.46
-2 -15 3 18.96 3.04
-2 -15 3 13.81 2.84
-2 -15 2 99.23 3.83
-2 -15 2 100.19 5.84
-2 -15 2 94.65 4.14
-2 -15 2 100.82 4.61
-2 -15 2 101.81 4.49
-2 -15 2 102.43 4.55
-2 -15 1 5.47 1.09
-2 -15 1 5.34 3.2
-2 -15 1 4.63 0.95
-2 -15 1 6.11 1.97
-2 -15 1 5.68 1.13
-2 -15 0 58.19 3.19
-2 -15 0 57.73 5.22
-2 -15 0 58.5 3.48
-2 -15 0 60.49 3.39
-2 -15 -1 1.06 0.65
-2 -15 -1 0.39 0.4
-2 -15 -1 0.32 0.55
-2 -15 -2 36.26 2.51
-2 -15 -2 31.72 2.46
-2 -15 -2 33.65 2.26
-2 -15 -2 34.47 3.74
-2 -15 -3 16.2 1.6
-2 -15 -3 13.49 1.34
-2 -15 -3 14.68 1.48
-2 -15 -3 16.73 1.7
-2 -15 -3 17.56 2.52
-2 -15 -4 1.81 0.67
-2 -15 -4 1.58 0.46
-2 -15 -4 3.87 0.83
-2 -15 -4 2.4 0.72
-2 -15 -4 2.24 1.23
-2 -15 -5 10.65 1.17
-2 -15 -5 8.86 1.53
-2 -15 -5 8.04 0.77
-2 -15 -5 7.42 1.04
-2 -15 -5 10.42 1.15
-2 -15 -6 0.19 0.29
-2 -15 -6 0.91 0.49
-2 -15 -6 0.81 0.37
-2 -15 -7 5.92 0.67
-2 -15 -7 4.74 0.68
-2 -15 -7 5.74 0.58
-2 -16 12 20.53 1.01
-2 -16 12 18.96 1.03
-2 -16 11 0.52 0.32
-2 -16 11 0.53 0.29
-2 -16 10 11.12 1.01
-2 -16 10 10.45 1
-2 -16 10 9.24 0.9
-2 -16 9 114.29 3.79
-2 -16 9 103.22 3.47
-2 -16 9 112.68 3.86
-2 -16 8 12.59 1.08
-2 -16 8 13.55 1.27
-2 -16 8 14.99 1.34
-2 -16 8 16.46 1.45
-2 -16 7 15.89 1.43
-2 -16 7 13.75 1.06
-2 -16 7 13.32 1.28
-2 -16 6 3.75 0.79
-2 -16 6 4.43 0.75
-2 -16 6 4.01 2.29
-2 -16 6 4.9 0.85
-2 -16 5 15.26 1.48
-2 -16 5 14.47 1.3
-2 -16 5 15.16 1.52
-2 -16 5 13.85 1.31
-2 -16 5 17.99 2.65
-2 -16 4 21.53 1.78
-2 -16 4 23.73 1.9
-2 -16 4 20.77 1.55
-2 -16 4 18.48 2.51
-2 -16 4 22.04 1.85
-2 -16 3 67.6 3.3
-2 -16 3 65.54 3.28
-2 -16 3 66.23 3.28
-2 -16 3 59.93 2.62
-2 -16 3 67.25 3.39
-2 -16 2 0.2 0.45
-2 -16 2 0.06 0.44
-2 -16 2 0.05 0.3
-2 -16 2 -0.51 1.59
-2 -16 2 0.58 1.44
-2 -16 2 0.06 0.47
-2 -16 1 19.88 2.48
-2 -16 1 19.54 1.69
-2 -16 1 20.24 1.86
-2 -16 1 21.06 1.8
-2 -16 0 4.14 0.78
-2 -16 0 4.25 1.59
-2 -16 0 5.05 0.94
-2 -16 0 4.32 0.85
-2 -16 -1 0.62 0.47
-2 -16 -1 -0.28 0.4
-2 -16 -1 0.87 0.57
-2 -16 -1 -0.12 1
-2 -16 -2 1.64 0.57
-2 -16 -2 1.55 0.46
-2 -16 -2 1.41 0.54
-2 -16 -2 0.81 0.78
-2 -16 -3 4.8 0.83
-2 -16 -3 3.75 0.56
-2 -16 -3 3.73 1.06
-2 -16 -3 4.35 0.73
-2 -16 -4 2.83 0.69
-2 -16 -4 2.51 0.4
-2 -16 -4 3.02 0.96
-2 -16 -4 2.4 0.52
-2 -16 -5 1.81 0.41
-2 -16 -5 1.68 0.42
-2 -16 -6 18.6 0.93
-2 -17 10 1.96 0.35
-2 -17 9 11.21 0.86
-2 -17 9 12.19 0.92
-2 -17 8 16.51 1.19
-2 -17 8 16.11 1.14
-2 -17 7 -0.18 0.34
-2 -17 7 -0.01 0.29
-2 -17 6 56.76 2.46
-2 -17 6 61.45 2.63
-2 -17 5 38.52 2.04
-2 -17 5 38.39 2.09
-2 -17 5 35.49 1.66
-2 -17 4 14.47 1.28
-2 -17 4 13.59 1.22
-2 -17 4 13.85 0.98
-2 -17 4 12.07 1.11
-2 -17 3 7.86 0.91
-2 -17 3 7.85 1
-2 -17 3 6.28 0.85
-2 -17 2 8.82 0.99
-2 -17 2 9.51 1.13
-2 -17 1 3.11 0.59
-2 -17 1 2.89 0.66
-2 -17 1 4.11 0.72
-2 -17 1 2.18 0.66
-2 -17 0 17.1 1.3
-2 -17 0 16.29 1.22
-2 -17 0 15.54 1.52
-2 -17 0 18.43 1.53
-2 -17 -1 -0.29 0.28
-2 -17 -1 -0.32 0.36
-2 -17 -1 -0.09 0.65
-2 -17 -1 -0.21 0.23
-2 -17 -2 6.96 0.85
-2 -17 -2 6.12 0.68
-2 -17 -2 5.24 0.53
-2 -17 -3 43.56 1.91
-2 -17 -3 38.52 1.56
-2 -18 7 2.36 0.36
-2 -18 7 2.74 0.38
-2 -18 6 0.37 0.26
-2 -18 6 0.01 0.18
-2 -18 5 7.86 0.67
-2 -18 5 7.44 0.68
-2 -18 4 5.19 0.57
-2 -18 4 5.92 0.62
-2 -18 3 0 0.21
-2 -18 3 -0.31 0.25
-2 -18 2 1.85 0.4
-2 -18 2 1.48 0.32
-2 -18 2 1.68 0.36
-2 -18 1 2.47 0.37
-2 -18 1 3.62 0.45
-2 -18 1 2.52 0.46
-2 -18 0 0.44 0.24
-2 -18 0 0.42 0.19
3 -18 -2 5.93 0.51
3 -18 -1 2.01 0.37
3 -18 -1 1.78 0.47
3 -18 0 11.47 0.86
3 -18 0 11.84 1.11
3 -18 1 5.54 0.6
3 -18 1 6.68 0.9
3 -18 2 13.6 1.3
3 -18 2 12.69 0.89
3 -18 3 22.54 1.16
3 -18 3 24.99 1.47
3 -18 3 22.95 1.69
3 -18 4 0.82 0.32
3 -18 4 0.73 0.39
3 -18 4 0.67 0.34
3 -18 5 16.22 1.12
3 -18 5 13.72 1.18
3 -18 5 14.73 0.78
3 -18 6 0.12 0.26
3 -18 6 -0.36 0.29
3 -18 7 1.26 0.32
3 -17 -5 0.78 0.35
3 -17 -5 0.43 0.19
3 -17 -4 1.3 0.49
3 -17 -4 1.26 0.36
3 -17 -4 1.09 0.29
3 -17 -3 0.28 0.41
3 -17 -3 -0.34 0.3
3 -17 -3 0.43 0.33
3 -17 -2 5.76 0.87
3 -17 -2 5.61 0.94
3 -17 -2 4.36 0.71
3 -17 -1 2.66 0.75
3 -17 -1 3.26 0.66
3 -17 -1 3.62 0.79
3 -17 0 3.86 0.87
3 -17 0 4.13 0.86
3 -17 0 4.16 0.74
3 -17 1 0.43 0.34
3 -17 1 -0.15 0.47
3 -17 1 -0.25 0.53
3 -17 2 2.38 0.56
3 -17 2 2.92 0.86
3 -17 3 30.81 1.79
3 -17 3 32.22 2.41
3 -17 4 7.76 1.19
3 -17 4 6.77 0.82
3 -17 5 35.23 2.44
3 -17 5 39.33 2.23
3 -17 5 36.1 1.75
3 -17 6 2.27 0.65
3 -17 6 2.32 0.59
3 -17 6 2.45 0.43
3 -17 6 1.95 0.39
3 -17 7 154.47 4.47
3 -17 7 155.23 3.91
3 -17 7 147.37 3.52
3 -17 8 2.05 0.41
3 -17 8 3.17 0.54
3 -17 9 9.01 0.78
3 -17 9 8.51 0.73
3 -17 10 3.67 0.43
3 -16 -7 46.05 1.65
3 -16 -7 54.83 2.27
3 -16 -6 6.34 0.9
3 -16 -6 7.17 0.76
3 -16 -5 10.42 1.08
3 -16 -5 12.83 1.45
3 -16 -5 12.21 0.97
3 -16 -4 0.66 0.52
3 -16 -4 0.25 0.33
3 -16 -4 -0.48 0.36
3 -16 -3 2.72 0.85
3 -16 -3 2.46 0.65
3 -16 -3 2.43 0.65
3 -16 -2 9.37 1.19
3 -16 -2 11.14 1.62
3 -16 -2 9.75 1.31
3 -16 -1 40.04 2.44
3 -16 -1 38.03 2.98
3 -16 -1 41 2.84
3 -16 0 34.91 2.68
3 -16 0 31.03 2.19
3 -16 0 33.94 2.78
3 -16 1 3.38 1.06
3 -16 1 3.24 0.76
3 -16 1 4.65 1.05
3 -16 2 12.73 1.41
-3 16 -2 11.66 0.55
3 -16 2 10.73 1.56
3 -16 2 11.74 1.6
-3 16 -3 1.15 0.22
3 -16 3 0.49 0.37
3 -16 3 1.02 0.71
3 -16 4 -0.32 0.38
3 -16 4 0.07 0.54
3 -16 5 18.5 1.33
3 -16 5 16.53 1.4
3 -16 5 14.87 1.09
3 -16 5 17.33 1.9
3 -16 6 2.53 0.57
3 -16 6 1.81 0.43
3 -16 6 2.53 0.68
3 -16 6 1.52 0.7
3 -16 6 1.83 0.5
3 -16 7 -0.01 0.39
3 -16 7 0.32 0.33
3 -16 7 0.15 0.4
3 -16 7 -0.7 0.58
3 -16 7 -0.48 0.33
3 -16 8 7.94 0.99
3 -16 8 8.02 0.95
3 -16 9 0.38 0.31
3 -16 9 1.18 0.46
3 -16 10 27.31 1.5
3 -16 10 27.45 1.61
3 -16 11 0.67 0.29
3 -16 12 15.77 0.91
3 -15 -8 6.62 0.71
3 -15 -8 9.35 1.07
3 -15 -8 6.76 0.67
-3 15 8 5.81 2.09
3 -15 -7 2.81 0.74
-3 15 7 1.42 1.3
3 -15 -7 3.36 0.65
3 -15 -7 3.41 0.61
-3 15 6 3.63 2.37
3 -15 -6 3.83 0.69
3 -15 -6 3.76 0.73
3 -15 -5 4.82 1.22
3 -15 -5 3.18 0.78
3 -15 -5 3.96 0.76
-3 15 5 3.59 2.46
3 -15 -5 3.96 0.74
-3 15 4 6.01 2.51
3 -15 -4 6.78 1.11
3 -15 -4 6.02 0.88
3 -15 -4 6.17 0.99
3 -15 -4 5.58 1.18
3 -15 -3 2.91 0.97
3 -15 -3 3.19 0.82
3 -15 -3 3.17 0.84
3 -15 -2 0.05 0.6
3 -15 -2 -0.18 0.51
3 -15 -2 0.32 0.46
3 -15 -1 21.76 2.54
3 -15 -1 18.36 1.82
3 -15 -1 21.15 2.14
3 -15 0 2.08 0.95
3 -15 0 1.7 0.71
3 -15 0 2.42 0.98
3 -15 1 5.08 1.34
3 -15 1 6.04 1.11
3 -15 1 6.71 1.36
3 -15 2 24.49 2.45
3 -15 2 24.53 2.04
3 -15 2 23.67 2.53
3 -15 3 0.83 0.73
3 -15 3 -0.19 0.48
3 -15 3 0.41 0.53
-3 15 -3 0.38 0.2
3 -15 4 6.68 0.88
3 -15 4 6.87 1.37
3 -15 4 6.73 0.85
-3 15 -4 7.31 0.46
3 -15 4 6.55 1.08
3 -15 5 1.72 0.87
3 -15 5 1.41 0.5
-3 15 -5 0.88 0.2
3 -15 5 0.58 0.42
3 -15 5 1.49 0.57
3 -15 6 12.66 1.25
3 -15 6 10.96 1.16
-3 15 -6 12.51 0.54
3 -15 6 12.98 1.33
3 -15 6 11.86 1.71
3 -15 7 5.9 0.95
3 -15 7 5.74 0.84
3 -15 7 5.65 0.81
3 -15 7 5.73 1.12
3 -15 7 5.29 0.98
3 -15 8 0.75 0.67
3 -15 8 0.09 0.42
3 -15 8 -0.24 0.29
3 -15 8 0.08 0.4
3 -15 8 0.28 0.43
3 -15 9 0.04 0.4
3 -15 9 -0.22 0.42
3 -15 10 3.54 0.72
3 -15 10 2.38 0.55
3 -15 11 21.97 1.56
3 -15 11 17.02 1.06
3 -15 12 2.77 0.57
3 -15 12 1.69 0.34
3 -15 13 10.55 0.8
3 -14 -10 6.48 0.57
3 -14 -10 6.66 0.7
3 -14 -10 6.39 0.65
-3 14 10 6.28 2.25
3 -14 -9 3.45 0.59
3 -14 -9 4.64 0.86
-3 14 9 6.75 2.92
3 -14 -9 4.21 0.69
3 -14 -8 3.76 0.97
3 -14 -8 3.52 0.79
-3 14 8 2.52 1.95
3 -14 -8 3.75 1.27
3 -14 -7 0.19 0.64
3 -14 -7 0.39 0.5
3 -14 -7 1.83 1.78
-3 14 7 2.91 2.66
3 -14 -6 0.56 0.57
3 -14 -6 0.29 0.67
3 -14 -6 0.82 0.44
-3 14 6 -1.23 2.84
3 -14 -5 10 1.77
3 -14 -5 11.31 4.74
3 -14 -5 7.63 1.19
3 -14 -5 8.88 1.19
-3 14 5 9.4 4.45
3 -14 -4 0.62 0.76
-3 14 4 -0.64 1.99
3 -14 -4 1.24 0.63
3 -14 -4 -0.12 3.37
3 -14 -4 0.68 0.5
3 -14 -3 0.28 0.59
3 -14 -3 -0.47 0.86
3 -14 -3 0.58 0.56
3 -14 -2 0.58 0.94
3 -14 -2 -0.27 0.51
3 -14 -2 0.11 0.54
3 -14 -1 4.62 1.36
3 -14 -1 4.6 1.09
3 -14 -1 5.36 1.21
3 -14 0 0.85 0.64
3 -14 0 2.14 0.77
3 -14 1 55.12 3.99
3 -14 1 54.26 3.24
3 -14 1 51.61 3.6
3 -14 2 69.75 4.42
3 -14 2 76.81 3.81
3 -14 2 72.56 4.32
3 -14 3 42.42 2.73
3 -14 3 39.65 3.21
3 -14 3 45.84 2.35
3 -14 3 44.72 2.3
3 -14 3 46.86 3.41
3 -14 4 17.72 1.55
3 -14 4 19.83 1.56
-3 14 -4 19.66 0.83
3 -14 4 18.88 1.75
3 -14 4 18.66 2.1
3 -14 4 19.44 2.26
3 -14 5 70.11 3.19
3 -14 5 64.53 4.11
3 -14 5 76.73 3.5
3 -14 5 68.42 3.32
-3 14 -5 75.02 1.85
3 -14 6 50.92 2.73
-3 14 -6 52.33 1.41
3 -14 6 53.88 3.65
3 -14 6 51.92 2.69
3 -14 6 53.09 2.96
3 -14 7 -0.13 0.48
3 -14 7 0.32 0.52
3 -14 7 0.18 0.51
3 -14 7 -0.3 0.52
3 -14 7 0.01 0.38
3 -14 8 19.21 1.77
3 -14 8 16.42 1.3
3 -14 8 17.7 1.61
3 -14 8 15.03 1.75
3 -14 8 17.3 1.77
3 -14 9 0.21 0.5
3 -14 9 -0.63 0.46
3 -14 9 0.3 0.46
3 -14 10 21.83 1.75
3 -14 10 24.36 1.53
3 -14 10 25.53 1.97
3 -14 11 6.81 0.78
3 -14 11 5.84 0.9
3 -14 11 6.37 0.87
3 -14 12 8.91 0.78
3 -14 12 9.25 1.02
3 -14 13 0.25 0.32
3 -14 13 1.35 0.4
3 -14 14 9.14 0.72
3 -14 14 11.39 0.76
3 -13 -11 0.92 0.36
-3 13 11 0.41 1.35
3 -13 -11 0.02 0.21
3 -13 -11 0.46 0.25
3 -13 -10 8.09 1.04
-3 13 10 4.5 2.56
3 -13 -10 9.5 3.25
3 -13 -10 7.5 1.02
3 -13 -9 68.03 3.59
-3 13 9 68.77 10.72
3 -13 -9 62.75 3.26
3 -13 -9 60.95 9.42
-3 13 8 14.89 5.29
3 -13 -8 22.36 2.33
3 -13 -8 18.62 5.29
3 -13 -8 19.81 1.95
3 -13 -7 3.24 0.96
3 -13 -7 2.35 0.97
3 -13 -7 1.34 2.65
-3 13 7 0.64 2.13
3 -13 -6 3.73 1.31
3 -13 -6 2.92 0.85
-3 13 6 1.1 3.23
3 -13 -6 2.18 0.67
3 -13 -6 4.91 3.34
3 -13 -5 11.16 1.38
-3 13 5 7.63 4.04
3 -13 -5 13.47 2.08
3 -13 -5 11.12 1.6
3 -13 -5 8.98 4.19
3 -13 -4 55.81 3.51
3 -13 -4 56.9 11.11
3 -13 -4 64.39 3.55
-3 13 4 74.18 12.7
3 -13 -4 68.04 4.62
3 -13 -3 91.01 5.28
3 -13 -3 77.64 4.03
-3 13 3 74.09 11.87
3 -13 -3 81.73 4.19
3 -13 -3 84.72 13.63
3 -13 -2 10.67 1.52
-3 13 2 10.81 0.53
3 -13 -2 9.73 1.32
3 -13 -2 12.28 1.98
-3 13 2 7.01 3.27
3 -13 -2 10.51 4.74
3 -13 -1 27.25 2.43
3 -13 -1 29.01 2.92
-3 13 1 25.56 0.91
-3 13 0 326.48 6.17
3 -13 0 354.1 10.2
3 -13 0 349.57 11.21
3 -13 0 354.47 9.56
3 -13 1 42.57 2.75
3 -13 1 41.22 3.13
3 -13 1 43.13 3.5
-3 13 -1 39.73 1.26
-3 13 -2 2.78 0.33
3 -13 2 2.01 0.86
3 -13 2 2 0.72
3 -13 2 1.95 0.55
3 -13 2 3.09 1.1
3 -13 3 24.06 1.76
3 -13 3 26.27 1.78
3 -13 3 22.95 2.48
3 -13 3 24.68 2.43
3 -13 3 22.98 1.97
3 -13 4 8.96 1.08
3 -13 4 8.71 1.22
3 -13 4 10.42 1.25
3 -13 4 10.26 1.62
3 -13 4 9.53 1.6
3 -13 5 148.04 5.22
-3 13 -5 145.03 3.13
3 -13 5 134.26 6.08
3 -13 5 137.57 4.88
3 -13 5 144.12 4.94
3 -13 6 26.08 2.08
3 -13 6 23.16 1.86
3 -13 6 25.48 1.85
3 -13 6 23.5 2.41
-3 13 -6 25.61 0.93
3 -13 7 0.11 0.46
3 -13 7 0.45 0.67
3 -13 7 0.29 0.35
3 -13 7 0.24 0.4
-3 13 -7 0.02 0.16
3 -13 8 19.61 1.74
3 -13 8 20.06 1.88
3 -13 8 19.58 1.89
3 -13 8 16.98 1.93
-3 13 -8 20.32 0.73
3 -13 9 38.39 2.5
3 -13 9 40.61 2.64
3 -13 9 44.31 2.78
3 -13 10 111.16 4.48
3 -13 10 97.38 4.13
3 -13 10 97.84 4.1
3 -13 10 108.27 4.08
3 -13 11 47.83 2.76
3 -13 11 44.84 2.42
3 -13 11 45.73 2.5
3 -13 12 1.15 0.43
3 -13 12 0.65 0.4
3 -13 13 -0.14 0.34
3 -13 13 1.03 0.46
3 -13 14 4.45 0.58
3 -13 14 6.27 0.69
3 -13 15 4.74 0.55
3 -12 -12 0.53 0.34
3 -12 -12 0.49 1.24
3 -12 -11 3.72 0.73
-3 12 11 3.88 0.68
3 -12 -11 4.82 0.91
3 -12 -11 5.28 2.46
-3 12 11 2.29 2.79
3 -12 -10 4.48 2.7
3 -12 -10 2.64 0.76
-3 12 10 2.44 0.66
3 -12 -10 2.56 0.78
-3 12 10 -0.01 2.54
3 -12 -9 2.09 2.61
3 -12 -9 -0.46 0.69
-3 12 9 0.59 0.54
3 -12 -9 -0.47 0.57
-3 12 9 0.74 3.36
3 -12 -8 0.77 0.71
-3 12 8 0.67 0.64
3 -12 -8 0.39 0.63
3 -12 -8 2.65 2.85
-3 12 8 -0.85 3.56
-3 12 7 4.34 3.9
3 -12 -7 4.8 1.29
-3 12 7 4.1 0.88
3 -12 -7 2.17 2.37
3 -12 -7 4.38 1.04
3 -12 -6 6.31 1.01
3 -12 -6 4.67 1.34
-3 12 6 2.76 2.97
3 -12 -6 6.42 3.8
-3 12 6 4.99 1.06
3 -12 -6 5.27 1.35
-3 12 5 29.26 8.76
3 -12 -5 21.76 7.23
3 -12 -5 23.11 2.69
3 -12 -5 20.83 2.24
3 -12 -5 23.06 1.95
3 -12 -4 8.59 1.7
-3 12 4 3.6 4.35
3 -12 -4 6.79 1.19
3 -12 -4 3.58 3.69
3 -12 -4 6.28 1.22
3 -12 -3 1.55 0.73
3 -12 -3 4.25 1.22
-3 12 3 -1.38 2.35
3 -12 -3 4.58 3.1
3 -12 -3 2.17 0.75
-3 12 2 0.01 0.15
3 -12 -2 -0.32 0.61
3 -12 -2 0.22 0.57
3 -12 -2 -0.2 3.14
3 -12 -2 0.65 0.77
3 -12 -2 -0.21 0.53
-3 12 2 1.01 3.39
3 -12 -1 252.97 22.77
3 -12 -1 276.48 11.03
3 -12 -1 242.7 8.8
-3 12 1 253.64 4.9
3 -12 -1 286.52 9.58
3 -12 -1 270.36 8.27
3 -12 0 3.45 1.18
3 -12 0 2.18 1.13
3 -12 0 2.33 0.65
3 -12 0 2.91 1.02
-3 12 0 2.9 0.33
3 -12 1 288.82 9.39
-3 12 -1 271.32 5.35
3 -12 1 285.4 7.91
3 -12 1 294.2 7.01
3 -12 1 293.53 11.24
3 -12 1 288 8.75
3 -12 2 37.66 3.02
3 -12 2 40.22 2.16
3 -12 2 38.07 2.1
-3 12 -2 36.19 1.2
3 -12 2 37.99 3.7
3 -12 2 36.59 2.32
3 -12 2 35.58 2.74
3 -12 3 7.68 0.96
3 -12 3 7.64 1
3 -12 3 7.72 1.07
3 -12 3 6.85 1.31
3 -12 3 7.23 1.34
3 -12 3 6.19 1.51
-3 12 -3 7.51 0.52
3 -12 4 219.17 6.19
3 -12 4 194.67 7.17
3 -12 4 186.76 7.47
3 -12 4 199.31 5.8
3 -12 4 199.68 6.06
3 -12 4 191.11 7.37
3 -12 4 195.13 8.6
3 -12 5 17.24 1.94
3 -12 5 16.83 2.19
3 -12 5 16.32 1.46
3 -12 5 19.84 1.73
-3 12 -5 18.05 0.8
3 -12 5 16.01 1.47
3 -12 5 16.69 2.23
3 -12 6 1.09 0.92
3 -12 6 1.88 0.66
-3 12 -6 0.97 0.24
3 -12 6 0.6 0.42
3 -12 6 1.24 0.67
3 -12 6 1.33 0.59
-3 12 -7 1.37 0.26
3 -12 7 2.27 0.93
3 -12 7 1.5 0.52
3 -12 7 0.62 0.35
3 -12 7 1.72 0.68
3 -12 8 65.6 3.33
3 -12 8 57.79 3.53
3 -12 8 62.58 3.38
-3 12 -8 67.23 1.64
-3 12 -8 64.12 1.7
3 -12 9 8.47 1.2
3 -12 9 8.49 1.2
-3 12 -9 8.5 0.51
-3 12 -9 8.75 0.46
3 -12 9 7.18 1.12
3 -12 10 15.12 1.59
3 -12 10 15.93 1.63
3 -12 10 15.32 1.57
3 -12 11 9.87 1.26
3 -12 11 7.73 1.14
3 -12 11 7.13 1.02
3 -12 11 9.02 1.25
3 -12 12 10.82 1.26
3 -12 12 10.92 1.27
3 -12 13 3.46 0.71
3 -12 13 2.61 0.64
3 -12 14 13.69 1.09
3 -12 14 14.64 1.22
3 -12 15 56.75 2.14
-3 12 -15 59.68 5.84
3 -12 15 54.28 1.77
3 -12 16 3.66 0.44
3 -11 -13 13.16 1.05
-3 11 13 13.51 3.26
3 -11 -13 12.17 2.58
3 -11 -12 -0.76 0.42
3 -11 -12 0.55 0.47
-3 11 12 -1.32 2.17
-3 11 12 -0.08 0.39
3 -11 -12 -0.76 1.4
3 -11 -11 1.79 0.64
-3 11 11 3 2.59
3 -11 -11 0.56 1.81
3 -11 -11 1.51 0.71
-3 11 11 3.48 0.96
3 -11 -10 8.39 1.4
3 -11 -10 9.37 1.48
-3 11 10 9.59 5.52
-3 11 10 7.87 1.32
3 -11 -10 6 3.94
3 -11 -9 38.38 8.65
3 -11 -9 30.07 2.81
-3 11 9 28.55 8.75
3 -11 -9 26.11 2.54
-3 11 9 29.19 2.52
3 -11 -8 0.37 0.6
3 -11 -8 0.05 0.71
-3 11 8 -0.6 2.73
-3 11 8 0.13 0.57
3 -11 -8 0.07 2.42
-3 11 7 35.04 9.44
3 -11 -7 44.05 9.33
3 -11 -7 49 3.74
3 -11 -7 46.79 3.46
-3 11 7 46.91 3.28
3 -11 -6 1.73 0.98
3 -11 -6 2.22 0.99
-3 11 6 2.82 2.48
-3 11 6 2.86 0.93
3 -11 -5 18.62 6.71
-3 11 5 8.55 5.34
3 -11 -5 15.71 1.93
3 -11 -5 18.63 2.37
-3 11 5 16.31 1.84
3 -11 -5 17.33 1.67
3 -11 -4 42.42 3
3 -11 -4 47.56 3.64
3 -11 -4 43.6 9.37
3 -11 -4 45.29 4.25
3 -11 -4 42.77 2.67
-3 11 4 44.34 9.82
-3 11 3 42.28 9.09
3 -11 -3 47.26 3.05
3 -11 -3 54.97 3.79
3 -11 -3 42.86 8.77
3 -11 -3 47.54 3.78
-3 11 3 47.75 1.26
3 -11 -3 53.23 2.99
3 -11 -3 54.43 4.65
3 -11 -2 13.5 1.99
3 -11 -2 11.48 1.45
3 -11 -2 12.83 1.82
-3 11 2 11.51 0.56
3 -11 -2 12.27 2.2
3 -11 -2 8.69 3.67
-3 11 2 11.41 4.12
3 -11 -2 12.3 1.47
3 -11 -1 47.49 4.27
3 -11 -1 49.54 2.89
3 -11 -1 44.96 3.25
3 -11 -1 43.62 3.27
-3 11 1 42.74 1.27
3 -11 -1 47.84 9.33
3 -11 0 0.99 0.45
3 -11 0 0.64 0.73
3 -11 0 -0.25 0.88
3 -11 0 -1.83 3.6
-3 11 0 0.8 0.23
3 -11 1 143.69 5.36
3 -11 1 153.19 7.72
-3 11 -1 138.85 3.01
3 -11 1 146.09 6.01
3 -11 2 2.6 0.8
3 -11 2 4.05 0.77
3 -11 2 6.35 1.61
3 -11 2 4.96 1.19
-3 11 -2 4.06 0.38
3 -11 3 12.99 2.04
3 -11 3 14.21 1.25
3 -11 3 14.71 1.87
3 -11 3 13.17 1.56
3 -11 3 13.59 1.32
-3 11 -3 13.17 0.67
3 -11 3 11.89 1.61
3 -11 4 1.55 0.52
3 -11 4 1.52 0.71
3 -11 4 2.07 0.59
3 -11 4 0.63 0.54
3 -11 4 0.81 0.75
-3 11 -4 2.35 0.32
3 -11 4 3.07 0.93
3 -11 5 115.48 4.12
3 -11 5 119.42 6.06
3 -11 5 118.74 4.05
-3 11 -5 121.51 2.69
3 -11 5 117.55 6.12
3 -11 5 124.72 5.13
3 -11 6 7.95 1.31
3 -11 6 7.99 1.55
3 -11 6 7.08 1.03
3 -11 6 8.87 1.21
-3 11 -6 7.79 0.51
3 -11 7 39.01 2.4
-3 11 -7 38.29 1.18
3 -11 7 42.94 2.62
3 -11 7 35.05 3.41
3 -11 7 34.39 2.67
3 -11 8 3.43 0.85
3 -11 8 2.29 0.8
3 -11 8 2.41 0.75
3 -11 8 1.56 0.62
-3 11 -8 2.1 0.27
-3 11 -8 2.24 0.29
3 -11 9 2.1 0.63
-3 11 -9 2.11 0.27
3 -11 9 2.39 0.71
-3 11 -9 2.33 0.27
3 -11 9 1.81 0.64
3 -11 10 7.93 1.21
3 -11 10 7.66 1.18
3 -11 10 7.95 1.17
-3 11 -10 6.62 0.45
3 -11 11 40.91 2.68
3 -11 11 34.61 2.42
3 -11 11 36.81 2.29
3 -11 11 39.13 2.54
3 -11 12 43.78 2.62
3 -11 12 42.09 2.7
3 -11 13 1.01 0.46
3 -11 13 1.18 0.48
3 -11 14 44.83 2.15
3 -11 14 46.25 2.55
3 -11 15 9.84 0.74
3 -11 15 9.93 1.04
3 -11 16 2.03 0.43
-3 10 14 1.63 0.38
3 -10 -14 1.47 0.38
3 -10 -13 9.51 1.12
-3 10 13 7.35 3.23
-3 10 13 9.23 1.11
3 -10 -13 8.36 2.96
-3 10 12 6.54 3.09
-3 10 12 4.41 0.97
3 -10 -12 1.68 1.4
3 -10 -12 4.07 0.92
3 -10 -12 4.98 0.82
3 -10 -11 0.66 0.58
-3 10 11 1.8 0.78
3 -10 -11 1.12 0.88
3 -10 -11 -0.94 2.13
3 -10 -10 4.28 1.16
3 -10 -10 2.43 3.24
3 -10 -10 5.13 1.24
-3 10 10 3.09 3.3
-3 10 10 4.55 1.14
-3 10 9 11.54 1.8
3 -10 -9 14.47 5.41
-3 10 9 11.65 6.74
3 -10 -9 12.95 1.88
3 -10 -9 13.52 1.96
-3 10 8 -0.5 2.93
3 -10 -8 0.59 0.62
-3 10 8 1.4 0.87
3 -10 -8 5.22 3.6
3 -10 -8 1.5 0.84
-3 10 7 2.05 3.54
3 -10 -7 1.16 0.79
3 -10 -7 0.06 0.6
-3 10 7 0.59 0.68
3 -10 -7 -1.22 2.82
3 -10 -6 500.38 13.48
3 -10 -6 491.27 15.18
-3 10 6 492.81 12.92
3 -10 -6 574.2 14.59
3 -10 -6 548.05 15.81
3 -10 -6 530.99 33.39
-3 10 6 503.76 35.39
3 -10 -5 23.71 2.24
3 -10 -5 28.33 2.65
3 -10 -5 23.67 2.91
-3 10 5 26.7 7.8
3 -10 -5 23.42 1.78
3 -10 -5 25.43 7.3
3 -10 -5 27.03 3.07
-3 10 5 24.43 2.2
3 -10 -4 5.89 1.27
-3 10 4 3.91 2.6
-3 10 4 6.13 1.13
3 -10 -4 3.41 1.25
3 -10 -4 5.71 0.92
3 -10 -4 1.65 2.82
3 -10 -4 4.47 1.33
3 -10 -3 103.07 4.04
3 -10 -3 107.1 4.99
-3 10 3 97.95 2.12
3 -10 -3 96.05 5.09
-3 10 3 86.37 12.13
3 -10 -3 103.95 12.89
3 -10 -3 94.87 4.33
3 -10 -3 111.02 6.45
-3 10 2 720.69 12.5
3 -10 -2 828.16 20.68
3 -10 -1 28.81 3.19
-3 10 1 25.69 0.88
3 -10 0 23.44 2.9
-3 10 0 18.97 0.76
3 -10 1 15.04 1.66
-3 10 -1 14.46 0.67
3 -10 1 13.17 2.1
-3 10 -2 2.63 0.31
3 -10 2 2.38 0.79
3 -10 2 2.77 0.98
3 -10 3 1 0.53
3 -10 3 0.04 0.77
-3 10 -3 1.1 0.24
3 -10 4 55.09 3.94
-3 10 -4 59.23 1.57
3 -10 4 54.92 4.09
3 -10 5 -0.59 0.7
-3 10 -5 0.04 0.19
3 -10 5 -0.84 0.84
3 -10 6 3.95 1.23
3 -10 6 3.37 0.68
3 -10 6 2.89 0.86
3 -10 6 2.94 0.8
-3 10 -6 3.66 0.4
-3 10 -7 23.07 0.85
3 -10 7 23.01 1.72
3 -10 7 21.8 2.72
3 -10 7 23.91 2.1
3 -10 8 180.54 5.73
3 -10 8 163.51 4.85
3 -10 8 152.32 5.88
3 -10 8 164.4 5.45
3 -10 8 163.89 5.35
-3 10 -8 161.09 3.43
3 -10 8 166.02 7.81
-3 10 -8 171.02 3.39
-3 10 -9 197.44 3.86
3 -10 9 196.46 6.24
3 -10 9 191.52 5.65
3 -10 9 206.02 6.08
-3 10 -9 193.18 3.98
3 -10 9 191.44 8.65
-3 10 -10 44.96 1.19
3 -10 10 43.43 2.38
3 -10 10 49.58 2.94
3 -10 10 49.37 2.86
3 -10 10 42.45 2.45
-3 10 -10 41.71 1.29
3 -10 11 0.26 0.41
3 -10 11 -0.01 0.48
3 -10 11 0.42 0.39
-3 10 -11 0.37 0.17
3 -10 12 12.75 1.52
3 -10 12 11.75 1.32
3 -10 13 69.59 3.14
3 -10 13 76.9 3.75
3 -10 14 3.8 0.62
3 -10 14 3.93 0.84
3 -10 15 14.69 1.42
-3 10 -16 15.42 3.63
3 -10 16 14.75 1.22
3 -10 17 0.73 0.3
3 -10 17 0.33 0.22
3 -9 -14 6.79 2.61
-3 9 14 7.49 2.67
3 -9 -14 9.9 1.05
-3 9 14 8.66 1.06
-3 9 13 26.87 2.21
3 -9 -13 21.99 5.3
-3 9 13 26.39 6.35
3 -9 -13 29.88 2.16
-3 9 12 3.04 0.99
3 -9 -12 3.26 0.98
3 -9 -12 2.05 0.66
3 -9 -12 1.43 2.11
-3 9 12 2.68 2.18
-3 9 11 14.12 1.92
3 -9 -11 13.93 1.86
3 -9 -11 12.29 1.62
-3 9 11 7.31 4.1
3 -9 -11 14.29 5.41
-3 9 11 8.45 1.64
3 -9 -10 13.88 1.95
-3 9 10 10.21 1.88
3 -9 -10 12.16 1.71
-3 9 10 11.78 1.78
-3 9 10 10.43 5.15
3 -9 -10 8.48 4.34
3 -9 -9 82.1 4.63
3 -9 -9 88.66 4.76
-3 9 9 85.2 4.71
-3 9 9 88.37 15.17
3 -9 -9 86.99 13.41
-3 9 9 59.18 4.34
-3 9 8 50.63 4.03
-3 9 8 76.54 13.74
3 -9 -8 71.21 4.25
3 -9 -8 75.66 4.45
-3 9 8 69.34 4.19
3 -9 -8 79.78 12.85
-3 9 7 2.33 1.18
-3 9 7 -0.8 2.99
-3 9 7 0.62 0.65
3 -9 -7 -1.15 1.07
3 -9 -7 1.87 0.94
3 -9 -7 0.29 3.1
3 -9 -7 2.24 0.91
-3 9 6 187.5 19.82
3 -9 -6 190.59 6.96
3 -9 -6 168.29 7.99
-3 9 6 162.36 6.18
3 -9 -6 161.02 16.95
3 -9 -6 167.82 6.36
3 -9 -6 183.68 8.01
3 -9 -5 29.78 7.13
3 -9 -5 30.65 2.36
-3 9 5 35.03 7.76
3 -9 -5 33.74 2.68
3 -9 -5 31.33 2.94
3 -9 -5 29.8 3.23
-3 9 5 30.73 2.37
3 -9 -5 34.93 3.42
3 -9 -4 9.01 1.84
-3 9 4 7.79 0.37
3 -9 -4 9.16 1.82
3 -9 -3 6.4 1.58
-3 9 3 4.75 0.31
3 -9 -3 6.56 1.54
3 -9 -2 4.94 1.3
-3 9 2 4.06 0.31
3 -9 -1 27.43 2.96
-3 9 1 20.69 0.75
3 -9 0 14.77 2.17
3 -9 0 12.86 1.45
-3 9 0 13.49 0.6
3 -9 1 1.84 0.84
-3 9 -1 1.88 0.25
3 -9 1 1.26 0.56
3 -9 2 8.16 1.39
3 -9 2 7.63 1.51
-3 9 -2 7.58 0.45
3 -9 3 2.32 0.9
3 -9 3 2.79 0.94
-3 9 -3 2.39 0.27
-3 9 -4 42.84 1.23
3 -9 4 39.89 3.3
3 -9 5 39.81 3.37
3 -9 5 36.55 3.04
-3 9 -5 39.54 1.15
3 -9 6 64.2 4.49
3 -9 6 66.48 3.89
-3 9 -6 65.11 1.63
3 -9 7 7.19 1.52
-3 9 -7 5.69 0.39
3 -9 8 41.47 2.34
3 -9 8 36.18 2.14
3 -9 8 33.09 1.92
3 -9 8 33.24 2.02
3 -9 8 35.6 3.49
-3 9 -8 36.88 1.09
-3 9 -8 34.27 1.12
3 -9 9 70.34 3.27
3 -9 9 73.75 5.1
3 -9 9 88.6 3.57
3 -9 9 83.72 3.59
-3 9 -9 73.74 1.77
3 -9 9 65.68 2.99
-3 9 -9 70.57 1.83
-3 9 -10 3.43 0.31
3 -9 10 1.02 0.59
3 -9 10 2.55 0.7
3 -9 10 3.57 0.69
3 -9 10 1.53 0.54
3 -9 10 2.57 0.65
-3 9 -10 2.42 0.3
3 -9 11 1.18 0.4
3 -9 11 2.22 0.6
-3 9 -11 1.62 0.26
3 -9 11 1.25 0.57
3 -9 12 0.08 0.41
3 -9 12 0.62 0.58
3 -9 13 235.2 6.45
3 -9 13 246.78 7.68
3 -9 14 19.77 1.87
3 -9 14 17.71 1.26
3 -9 15 12.4 1.39
3 -9 16 3.19 0.66
-3 9 -16 2.35 2.09
3 -9 17 7.5 0.81
-3 8 15 0.67 0.39
3 -8 -15 0.1 0.29
3 -8 -14 15.52 1.44
-3 8 14 15.85 1.62
3 -8 -14 8.73 3.11
-3 8 14 11.44 3.8
3 -8 -13 0.51 0.51
-3 8 13 0.48 0.61
-3 8 13 1.24 0.9
-3 8 13 0.36 2.58
3 -8 -13 0.7 2.26
3 -8 -12 2.09 0.9
-3 8 12 3.2 3.54
3 -8 -12 0.5 0.51
-3 8 12 1.86 0.98
3 -8 -12 1.05 2.06
-3 8 12 1.46 0.92
-3 8 11 6.1 1.4
3 -8 -11 5.83 1.12
-3 8 11 4.21 1.36
-3 8 11 4.26 3.41
3 -8 -11 5.54 1.23
3 -8 -11 1.06 2.96
-3 8 10 13.5 5.97
3 -8 -10 15.58 1.88
-3 8 10 12.26 2.1
-3 8 10 13.7 1.94
3 -8 -10 17.47 6.32
3 -8 -10 12.9 1.86
-3 8 9 43.78 3.39
-3 8 9 49.18 11.24
-3 8 9 38.22 3.48
3 -8 -9 49.81 3.34
3 -8 -9 51.81 10.14
3 -8 -9 45.54 3.33
-3 8 8 53.14 3.97
-3 8 8 51.86 10.91
-3 8 8 65.15 3.87
3 -8 -8 55.47 4.63
3 -8 -8 64.2 10.8
3 -8 -8 58.96 3.7
-3 8 7 95.49 5.34
3 -8 -7 118.76 14.24
3 -8 -7 125.22 6.88
3 -8 -7 118.62 5.16
-3 8 7 118.29 5.11
3 -8 -7 133.96 6.29
-3 8 7 116.02 15.82
-3 8 6 1.53 1.85
3 -8 -6 0.89 0.58
3 -8 -6 1.72 0.89
3 -8 -6 2.26 0.83
3 -8 -5 13.45 2.19
3 -8 -5 13.12 2.02
-3 8 4 9.7 0.4
3 -8 -4 9.78 1.75
3 -8 -4 9.5 1.77
3 -8 -3 15.4 2.17
3 -8 -3 14.02 2.1
-3 8 3 12.36 0.49
-3 8 2 14.02 0.55
3 -8 -2 15.1 2.17
3 -8 -2 14.72 2.08
3 -8 -1 126.04 4.51
-3 8 1 118 2.43
3 -8 0 0.84 0.75
-3 8 0 1.46 0.21
3 -8 0 1.29 0.59
3 -8 1 7.62 1.27
-3 8 -1 7.01 0.4
3 -8 1 7.12 1.47
3 -8 2 2.94 0.85
3 -8 2 3.6 1.07
-3 8 -2 2.3 0.25
3 -8 3 334.51 10.03
3 -8 3 342.9 10.59
-3 8 -3 312.98 5.76
-3 8 -4 6.42 0.41
3 -8 4 6.39 1.24
3 -8 4 5.57 1.2
3 -8 5 11.03 1.71
-3 8 -5 11.82 0.54
3 -8 5 11.76 1.67
3 -8 6 59.31 4.16
-3 8 -6 59.03 1.47
3 -8 6 58.91 3.59
-3 8 -7 24.29 0.82
3 -8 7 27.98 2.93
-3 8 -8 61.97 1.52
3 -8 8 63.76 4.57
-3 8 -8 57.47 1.54
3 -8 9 0.62 0.71
3 -8 9 1.71 0.57
3 -8 9 1.92 0.6
3 -8 9 0.32 0.36
-3 8 -9 0.95 0.22
-3 8 -9 0.9 0.2
3 -8 10 15.72 1.48
3 -8 10 15.02 2.22
3 -8 10 14.79 1.38
3 -8 10 16.31 1.47
-3 8 -10 13.91 0.68
-3 8 -10 13.38 0.59
3 -8 11 10.95 1.25
3 -8 11 12.81 1.28
-3 8 -11 12.85 0.53
-3 8 -11 11.3 0.62
3 -8 12 42.95 2.33
3 -8 12 42.79 2.94
3 -8 13 44.41 2.97
3 -8 13 45 2.23
3 -8 14 0.45 0.54
3 -8 15 0.27 0.49
-3 8 -16 31.41 6.19
3 -8 16 27.43 1.98
-3 8 -17 13.92 3.38
3 -8 17 11.3 1.1
-3 7 16 44.62 2.07
-3 7 15 2.04 0.62
-3 7 15 1.41 0.65
3 -7 -15 1.81 1.21
3 -7 -15 1.68 0.43
3 -7 -14 5.05 0.9
-3 7 14 2.75 1.03
3 -7 -14 3.1 2.24
-3 7 14 2.9 0.87
-3 7 13 9.3 1.81
-3 7 13 10.37 1.67
-3 7 13 5.58 4.16
3 -7 -13 4.92 2.65
3 -7 -13 11.7 1.59
-3 7 12 29.99 3.14
3 -7 -12 41.08 3.07
-3 7 12 35.58 9.27
3 -7 -12 35.52 7.92
-3 7 12 37.68 3.14
-3 7 11 3.49 1.17
-3 7 11 6.43 1.49
3 -7 -11 5.42 1.25
3 -7 -11 5.22 1.15
-3 7 11 5.96 3
3 -7 -11 2.94 2.05
3 -7 -10 4.83 1.02
-3 7 10 4.27 1.12
-3 7 10 3.61 1.35
-3 7 10 3.42 2.76
3 -7 -10 2.55 0.9
3 -7 -10 3.15 2.77
-3 7 9 7.69 1.67
3 -7 -9 8.18 4.3
-3 7 9 3.64 3.13
-3 7 9 6.12 1.25
3 -7 -9 7.58 1.38
3 -7 -9 7 1.82
3 -7 -8 11.22 1.54
-3 7 8 12.03 1.62
-3 7 8 10.36 4.61
3 -7 -8 11.45 2.12
-3 7 8 8.14 1.6
3 -7 -7 0.55 0.45
3 -7 -7 0.13 0.68
3 -7 -6 12.09 2.05
3 -7 -6 12.28 1.78
3 -7 -5 30.16 3.13
3 -7 -5 33.59 2.97
3 -7 -4 39.41 3.47
3 -7 -4 40.93 3.29
-3 7 4 39.77 0.94
3 -7 -3 41.77 3.36
3 -7 -3 38.45 3.34
-3 7 3 36.28 0.91
3 -7 -2 19.3 2.23
3 -7 -2 21.83 2.43
-3 7 2 17.75 0.59
3 -7 -1 15.67 1.99
-3 7 1 11.66 0.48
3 -7 0 26.25 2.54
-3 7 0 22.34 0.71
3 -7 1 1.14 0.69
-3 7 -1 1.13 0.2
3 -7 2 2.22 0.77
-3 7 -2 1.77 0.21
3 -7 3 321.54 9.7
3 -7 3 316.73 9.77
-3 7 -3 323.29 5.78
3 -7 4 8.22 1.42
3 -7 4 7.52 1.32
3 -7 5 38.72 3.1
-3 7 -5 34.84 0.98
3 -7 5 36.16 2.77
3 -7 6 29.33 2.38
3 -7 6 33.31 2.95
-3 7 -6 30.59 0.91
-3 7 -7 109.92 2.35
-3 7 -7 108.88 2.31
-3 7 -8 52.68 1.37
-3 7 -8 53.79 1.42
3 -7 9 19.38 2.47
-3 7 -9 18.56 0.71
-3 7 -9 18.24 0.75
3 -7 10 0.84 0.49
3 -7 10 0.48 0.69
3 -7 10 1.93 0.58
-3 7 -10 1.58 0.23
3 -7 10 1.45 0.55
-3 7 -10 1.31 0.23
-3 7 -11 222.28 9.6
-3 7 -11 229.46 4.21
3 -7 11 225.92 6.17
3 -7 11 220.77 8.87
3 -7 12 307.4 9.02
3 -7 12 300.62 7.85
3 -7 13 124.09 4.38
3 -7 13 128.97 5.33
3 -7 14 37.14 2.13
3 -7 14 39.24 2.78
3 -7 15 13.61 1.64
-3 7 -15 14.44 5.34
3 -7 16 21.39 1.8
-3 7 -16 20.54 5.27
3 -7 17 49.54 2.47
-3 7 -17 54.43 7.08
3 -7 18 1.19 0.36
-3 6 16 28.73 1.89
-3 6 16 20.17 1.69
-3 6 15 0.76 0.66
-3 6 15 2.12 0.81
3 -6 -15 2.39 0.56
3 -6 -15 2.12 2.18
-3 6 14 1.52 2.31
3 -6 -14 1.98 0.67
3 -6 -14 2.33 2.55
-3 6 14 1.7 0.88
-3 6 14 1.83 0.93
-3 6 13 0.25 0.79
3 -6 -13 0.64 0.68
-3 6 13 1.28 0.86
-3 6 13 1.93 2.45
3 -6 -13 0.36 1.82
3 -6 -12 44.03 3.16
-3 6 12 37.8 9.11
3 -6 -12 41.07 8.55
-3 6 12 42.05 3.39
-3 6 12 43.02 2.71
-3 6 12 36.74 3.56
-3 6 11 216.11 21.72
-3 6 11 210.35 8.67
-3 6 11 217.64 6.7
3 -6 -11 220.18 20.03
-3 6 11 216.57 8.09
3 -6 -11 231.16 7.87
-3 6 10 11.16 1.9
3 -6 -10 11.83 1.61
-3 6 10 10.25 1.6
-3 6 10 12.09 1.36
3 -6 -10 10.66 2.11
3 -6 -10 8.37 4.97
-3 6 10 9.92 4.73
3 -6 -9 1.38 0.7
3 -6 -9 5.46 4.23
3 -6 -9 0.64 0.65
-3 6 9 2.07 0.99
-3 6 9 1.72 0.62
-3 6 9 3.94 3.53
-3 6 9 0.96 0.79
3 -6 -8 52.84 4.49
3 -6 -7 29.22 3.22
3 -6 -7 36.22 2.77
3 -6 -6 30.69 3.19
3 -6 -6 31.29 2.67
3 -6 -5 261.71 8.59
3 -6 -5 249.46 9.43
3 -6 -4 243.38 8.94
-3 6 4 240.67 4.22
-3 6 3 807.73 13.63
3 -6 -3 860.34 19.69
3 -6 -2 426.99 11.69
3 -6 -2 464.62 11.59
3 -6 -1 10.26 1.5
3 -6 -1 10.72 1.59
-3 6 1 8.96 0.38
3 -6 0 66.74 3.73
-3 6 0 58.57 1.31
3 -6 1 267.21 8.16
-3 6 -1 246.52 4.45
3 -6 2 2104.16 38.36
-3 6 -2 2005.44 33.33
3 -6 3 293.23 8.83
3 -6 4 13.61 1.64
-3 6 -4 14.2 0.53
3 -6 4 16.29 1.8
3 -6 5 545.73 13.36
-3 6 -5 544.07 9.4
3 -6 6 8.83 1.47
3 -6 6 7.64 1.18
-3 6 -6 7.49 0.39
3 -6 7 59.75 3.11
-3 6 -7 58.79 1.4
-3 6 -7 56.83 1.41
3 -6 7 63.84 4.06
3 -6 8 -0.04 0.54
-3 6 -8 0.12 0.13
-3 6 -8 0.23 0.15
3 -6 9 61.03 4.24
-3 6 -9 57.85 1.5
-3 6 -9 55.3 1.41
3 -6 10 20.38 1.55
3 -6 10 21.93 1.67
-3 6 -10 24.93 0.82
3 -6 10 20.63 2.39
-3 6 -10 22.82 0.88
3 -6 11 14.25 1.39
3 -6 11 16.17 1.58
-3 6 -11 18.83 2.68
-3 6 -11 18.07 0.67
3 -6 11 14.07 2.05
3 -6 11 18.58 1.78
3 -6 12 168.06 6.13
3 -6 12 166.74 5.44
-3 6 -12 167.89 3.23
3 -6 13 129.5 5.36
3 -6 13 122.81 4.64
3 -6 14 3.85 0.93
3 -6 14 3.24 0.81
3 -6 15 11.62 1.52
3 -6 15 10.77 1.2
3 -6 16 22.5 1.91
3 -6 16 18.29 1.36
-3 6 -17 3.41 1.76
3 -6 17 3.83 0.75
3 -6 18 0.88 0.37
-3 5 17 0.12 0.22
-3 5 17 0.68 0.37
-3 5 17 -0.41 0.4
-3 5 16 0 0.66
-3 5 16 -0.38 0.5
3 -5 -15 6.28 2.53
-3 5 15 7.96 1.35
-3 5 15 6.58 1.47
-3 5 14 3.84 1.13
3 -5 -14 4.21 0.86
3 -5 -14 2.77 2.43
-3 5 14 2.38 1.12
3 -5 -13 0.29 0.58
-3 5 13 -0.05 0.49
-3 5 13 -1.6 3.21
-3 5 13 -0.07 0.65
3 -5 -13 3.05 3.48
-3 5 13 0.68 0.92
-3 5 12 421.3 12.96
-3 5 12 411.36 28.06
3 -5 -12 404.4 26.56
-3 5 12 404.78 10.71
3 -5 -12 416.17 11.23
-3 5 12 424.21 12.24
-3 5 11 48.83 3.88
-3 5 11 47.55 3.43
-3 5 11 45.24 2.83
-3 5 11 33.08 7.89
3 -5 -11 46.02 8.57
3 -5 -11 49.74 3.19
3 -5 -10 -0.24 0.5
3 -5 -10 -0.77 1
-3 5 10 -0.24 0.38
-3 5 10 2.88 4.06
3 -5 -10 -2.25 3.04
-3 5 10 0.29 0.66
-3 5 10 0.04 0.53
-3 5 9 10.34 1.46
-3 5 9 14.03 1.81
-3 5 9 9.93 1.13
3 -5 -9 11.4 2.11
3 -5 -9 12.96 1.53
3 -5 -8 8.17 1.78
3 -5 -7 20.58 1.89
3 -5 -7 18.54 2.54
3 -5 -6 0.87 0.45
3 -5 -6 1.15 0.79
3 -5 -5 17.12 2.12
3 -5 -5 16 1.76
3 -5 -4 184.08 7.2
-3 5 4 173.52 3.07
-3 5 3 323.98 5.57
3 -5 -3 347.36 10.13
3 -5 -3 351.01 9.62
-3 5 2 4.86 0.25
3 -5 -2 5.93 1.13
3 -5 -2 5.12 1.15
3 -5 -1 19.91 1.9
3 -5 -1 21.53 2.06
-3 5 1 17.91 0.53
-3 5 0 96.73 1.9
3 -5 0 105.25 4.43
3 -5 1 36.58 2.58
-3 5 -1 36.72 0.9
3 -5 1 39.88 2.77
3 -5 2 512.91 12.64
3 -5 2 554.04 13.33
3 -5 3 375.03 10.55
3 -5 4 85.37 4.39
-3 5 -4 82.42 1.69
3 -5 5 244.35 8.3
-3 5 -5 237.77 4.31
3 -5 6 74.21 4.08
3 -5 6 70.98 4.19
-3 5 -6 65.09 1.49
-3 5 -6 67.36 1.49
-3 5 -7 58.53 1.39
3 -5 7 64.49 3.88
-3 5 -7 58.39 1.39
3 -5 7 58.76 2.99
3 -5 7 62.7 3.9
3 -5 8 29.48 2.69
-3 5 -8 27.37 0.86
-3 5 -8 28.49 0.89
-3 5 -9 132.76 2.79
-3 5 -9 133.39 2.72
3 -5 10 15.47 1.39
3 -5 10 14.52 1.95
-3 5 -10 16.07 0.63
3 -5 11 1.77 0.68
-3 5 -11 1.79 0.24
3 -5 11 1.09 0.52
-3 5 -11 2.43 1.19
3 -5 11 2.57 0.62
-3 5 -12 2.61 0.25
3 -5 12 1.8 0.55
3 -5 12 2.59 0.75
3 -5 12 2.12 0.73
3 -5 13 1.89 0.67
3 -5 13 1.53 0.62
3 -5 13 1.56 0.54
3 -5 14 72.09 3.55
3 -5 14 72.49 3.88
3 -5 14 65.99 3.04
3 -5 15 29.36 2.37
3 -5 15 25.25 1.71
3 -5 15 27.37 2.1
-3 5 -15 28.77 7.84
3 -5 16 39.58 2.59
3 -5 16 34.66 1.79
-3 5 -16 42.52 8.43
3 -5 16 36.18 2.14
3 -5 17 0.47 0.52
-3 5 -17 0.51 1.41
3 -5 17 -0.25 0.32
-3 5 -18 5.53 2.21
3 -5 18 4.12 0.64
-3 4 17 0.38 0.41
-3 4 17 0.36 0.3
-3 4 17 0.77 0.66
-3 4 16 3.76 1.11
-3 4 16 3.92 0.94
-3 4 15 9.14 1.74
-3 4 15 12.93 1.7
3 -4 -15 11.37 3.27
-3 4 14 13.87 2.13
3 -4 -14 11.19 4.23
-3 4 14 14.62 1.93
-3 4 14 15.56 1.69
-3 4 13 106.33 5.81
3 -4 -13 106.03 4.44
-3 4 13 98.99 4.6
3 -4 -13 97.02 12.16
-3 4 13 101.74 5.23
-3 4 12 67.52 4.52
3 -4 -12 68.18 10.19
-3 4 12 59.47 9.96
-3 4 12 65.57 4.12
-3 4 12 66.37 3.64
3 -4 -12 68.29 3.58
-3 4 11 69.56 4.42
3 -4 -11 59.39 9.58
-3 4 11 71.73 4.07
-3 4 11 68.45 3.53
3 -4 -11 63.01 5.01
3 -4 -11 64.58 3.52
-3 4 11 66.7 10.72
3 -4 -10 1.17 0.6
-3 4 10 0.8 0.89
-3 4 10 1.5 0.7
-3 4 10 0.86 0.39
-3 4 10 0.3 2.41
3 -4 -10 -2.78 3.64
3 -4 -10 0.94 0.71
3 -4 -9 158.48 7.89
3 -4 -8 223.42 9.26
3 -4 -7 136.64 6.75
3 -4 -6 0.12 0.36
3 -4 -6 0.62 0.56
3 -4 -5 139.3 5.01
3 -4 -5 123.28 5.81
3 -4 -4 7.41 1.15
3 -4 -4 7.19 1.34
-3 4 3 54.08 1.06
3 -4 -3 53.27 3.3
3 -4 -3 56.34 3
3 -4 -3 53.47 0.99
3 -4 -2 6.08 1.08
3 -4 -2 6.29 1.04
-3 4 2 5.49 0.24
3 -4 -2 5.67 0.18
3 -4 -1 52.76 2.79
3 -4 -1 50.48 2.8
3 -4 -1 54.21 3.1
-3 4 1 51.07 1.07
3 -4 0 129.38 4.84
3 -4 1 291.52 8.24
3 -4 2 861.94 18.52
-3 4 -3 3.26 0.21
3 -4 3 3.39 0.99
3 -4 4 63.04 3.62
-3 4 -4 57.69 1.24
3 -4 5 11.41 1.6
-3 4 -5 11.44 0.43
-3 4 -5 10.92 0.41
-3 4 -6 292.37 5.07
3 -4 6 301.49 8.86
3 -4 6 300.59 9.28
-3 4 -6 274.69 5.04
-3 4 -7 3.55 0.29
-3 4 -7 3.66 0.28
3 -4 7 2.93 0.85
3 -4 7 3.53 0.92
-3 4 -8 52.81 1.32
-3 4 -8 49.14 1.26
3 -4 8 56.96 3.49
3 -4 8 53.11 3.51
3 -4 9 10.71 1.6
-3 4 -9 10.7 0.5
3 -4 10 4.04 0.99
-3 4 -10 3.24 1.23
-3 4 -10 3.7 0.29
3 -4 11 25.2 1.99
-3 4 -11 23.51 0.8
3 -4 11 23.4 1.7
-3 4 -11 22.52 6.12
3 -4 11 28.05 1.99
-3 4 -11 23.5 3.05
3 -4 11 25.82 2.44
3 -4 12 45.41 2.88
-3 4 -12 41.01 1.12
-3 4 -12 41.27 3.99
3 -4 12 44.34 2.69
3 -4 12 42.36 2.44
3 -4 13 74.58 3.87
3 -4 13 68.36 3.57
3 -4 13 67.7 3.28
3 -4 14 14.44 1.61
3 -4 14 13.8 1.47
3 -4 14 17.42 1.91
3 -4 15 4.97 1.09
3 -4 15 4.9 1.06
3 -4 15 3.45 0.79
-3 4 -15 6.68 4.47
3 -4 16 22.71 2
-3 4 -16 23.37 6.63
3 -4 16 22.27 1.83
3 -4 16 19.51 1.52
3 -4 17 2.24 0.71
3 -4 17 1.83 0.44
3 -4 17 1.48 0.48
-3 4 -17 2.17 2.28
3 -4 18 0.57 0.36
-3 4 -18 0.32 1.18
-3 3 18 10.87 0.71
-3 3 18 10.42 1
-3 3 17 2.24 0.84
-3 3 17 3.62 0.73
-3 3 17 2.84 0.58
-3 3 16 6.9 1.2
-3 3 16 3.95 1.24
-3 3 15 4.24 1.24
-3 3 15 3.57 1.07
-3 3 14 72.5 4.77
-3 3 14 68.48 4.18
-3 3 14 72.12 3.85
3 -3 -14 84.58 10.32
-3 3 13 89.7 5.29
-3 3 13 78.83 4.1
-3 3 13 77.05 4.45
3 -3 -13 81.11 10.79
-3 3 12 2.13 0.9
3 -3 -12 4.11 3.39
-3 3 12 2.94 0.92
-3 3 12 2.79 0.99
-3 3 11 94.26 4.93
3 -3 -11 84.65 3.76
-3 3 11 85.15 4.27
-3 3 11 84.71 3.91
-3 3 11 85.63 5.92
3 -3 -11 81.41 5.68
3 -3 -11 101.99 11.55
-3 3 10 1.29 0.57
-3 3 10 1.98 0.72
-3 3 10 2.49 0.87
3 -3 -10 2.95 1.29
3 -3 -9 94.99 5.9
3 -3 -8 3.53 1.08
3 -3 -7 4.25 1.2
3 -3 -6 218.64 8.2
3 -3 -6 245.35 6.43
3 -3 -5 197.78 5.77
3 -3 -5 183.84 6.95
3 -3 -4 99.47 4.61
3 -3 -4 101.49 3.9
3 -3 -3 32.14 2.08
3 -3 -3 34.15 2.44
3 -3 -2 10.37 0.28
3 -3 -2 11.23 1.33
3 -3 -2 10.73 1.23
3 -3 -2 11.49 1.13
3 -3 -1 136.66 4.73
3 -3 -1 142.87 2.46
3 -3 -1 144.13 5.02
3 -3 0 713.55 15.1
3 -3 1 1357.39 26.1
3 -3 2 0.29 0.52
-3 3 -3 170.17 3.03
3 -3 3 179.53 6.21
-3 3 -4 1.95 0.16
3 -3 4 2.26 0.87
-3 3 -4 1.95 0.17
-3 3 -5 14.74 0.48
-3 3 -5 15.82 0.5
-3 3 -6 4.85 0.29
3 -3 6 5.27 1.15
3 -3 6 5.51 1.02
-3 3 -6 4.92 0.28
3 -3 7 61.43 3.41
-3 3 -7 58.84 1.35
3 -3 7 58.69 3.63
-3 3 -7 55.9 1.32
3 -3 8 19.78 2
3 -3 8 20.16 2.03
-3 3 -8 19.19 0.66
-3 3 -9 27.69 0.86
3 -3 9 31.23 2.54
-3 3 -10 48.35 1.26
3 -3 10 49.54 3.18
-3 3 -10 46.83 4.18
-3 3 -11 22.05 2.9
3 -3 11 27.03 1.98
3 -3 11 24.94 1.83
-3 3 -11 25.58 0.84
3 -3 11 26.54 2.01
3 -3 12 34.13 2.44
3 -3 12 30.97 2.14
-3 3 -12 29.26 0.92
-3 3 -12 30.23 3.31
3 -3 12 32.73 2.41
-3 3 -13 58.99 1.4
3 -3 13 56.95 3.13
3 -3 13 58.74 3.38
3 -3 13 63.95 3.56
3 -3 14 15.26 1.77
-3 3 -14 17.31 6.32
3 -3 14 14.11 1.69
3 -3 14 14.51 1.6
3 -3 15 3.07 1.01
3 -3 15 2.79 0.89
3 -3 15 2.07 0.56
-3 3 -15 0.87 2.24
-3 3 -16 1.16 2.59
3 -3 16 2.55 0.69
3 -3 16 3.12 0.81
3 -3 16 3.47 0.87
3 -3 17 5.3 0.93
3 -3 17 6.39 0.91
3 -3 17 5.55 0.74
3 -3 18 0.34 0.29
3 -3 18 -0.05 0.28
3 -3 18 0.56 0.25
-3 3 -18 -1 1.76
-3 2 18 9.75 1.15
-3 2 18 9.93 0.76
-3 2 17 22.08 2.18
-3 2 17 22.08 1.75
-3 2 17 26.35 1.74
-3 2 16 0.18 0.66
-3 2 16 -0.39 0.68
-3 2 15 47.71 3.75
-3 2 15 41.55 3.06
-3 2 14 3.31 0.84
-3 2 14 3.58 1.17
-3 2 14 3.52 1.25
-3 2 13 100.62 5.49
-3 2 13 92.36 4.79
-3 2 13 89.37 4.44
-3 2 12 26.54 2.37
-3 2 12 27.23 2.69
-3 2 12 25.25 3.01
-3 2 12 24.66 2.14
3 -2 -12 23.47 2.87
-3 2 11 1.08 0.57
-3 2 11 1.33 0.69
-3 2 11 0.29 0.69
3 -2 -11 -0.47 0.98
-3 2 11 1.38 0.84
-3 2 10 84.89 5.81
3 -2 -10 90.55 5.81
3 -2 -9 19.93 2.59
3 -2 -8 4.52 1.22
3 -2 -7 139.49 6.26
3 -2 -6 125.15 3.75
3 -2 -6 118.91 5.48
3 -2 -5 79.08 2.97
3 -2 -5 70.06 3.84
3 -2 -4 41.73 2.67
3 -2 -4 43 2.16
3 -2 -3 25.43 1.52
3 -2 -3 26.83 2.01
3 -2 -2 1.24 0.58
3 -2 -2 0.35 0.35
3 -2 -1 281.44 7.23
3 -2 -1 271.55 7.07
3 -2 -1 274.17 4.63
3 -2 0 836.21 17.02
3 -2 1 6.73 1.06
-3 2 -2 129.54 2.88
3 -2 2 130.92 4.91
-3 2 -2 125.96 2.19
3 -2 3 16.29 1.76
-3 2 -3 16.85 0.42
3 -2 4 851.08 17.97
-3 2 -4 819.5 13.39
-3 2 -5 240.49 4.19
-3 2 -5 234.41 4.21
-3 2 -6 20.16 0.63
3 -2 6 20.64 2.1
3 -2 6 21.8 1.82
3 -2 7 39.43 2.56
-3 2 -7 39.76 1.01
3 -2 7 40.81 2.95
3 -2 8 256.99 7.66
3 -2 8 250.04 7.95
-3 2 -8 253.43 4.62
-3 2 -9 0.39 0.15
3 -2 9 0.3 0.4
-3 2 -9 0.68 0.71
-3 2 -10 63.28 4.81
-3 2 -10 63.53 1.54
3 -2 11 14.28 1.44
3 -2 11 15.42 1.47
-3 2 -11 14.81 2.34
3 -2 11 14.95 1.5
-3 2 -11 14.09 0.62
3 -2 12 13.15 1.52
3 -2 12 11.71 1.36
-3 2 -12 10.72 0.53
3 -2 12 13.22 1.51
-3 2 -12 10.89 2
3 -2 13 29.24 2.28
3 -2 13 28.98 2.42
-3 2 -13 29.04 8.44
-3 2 -13 27.37 0.84
3 -2 13 27.49 2.32
3 -2 14 27.64 2.25
3 -2 14 27.23 2.38
3 -2 14 30.68 2.44
-3 2 -15 -0.02 2.18
3 -2 15 0.26 0.54
3 -2 15 0.44 0.59
3 -2 15 -0.55 0.69
3 -2 16 0.14 0.47
3 -2 16 0.86 0.56
3 -2 16 0.63 0.42
-3 2 -16 -0.82 1.7
3 -2 17 17.22 1.47
3 -2 17 16.78 1.47
3 -2 17 14.06 1.22
-3 2 -17 14.85 4.46
3 -2 18 15.86 1.08
-3 2 -18 13.08 3.04
3 -2 18 14.91 1.04
3 -2 18 16.04 0.93
-3 1 18 3.32 0.51
-3 1 18 2.11 0.74
-3 1 17 4.26 1.02
-3 1 17 3.42 0.81
-3 1 17 5.37 0.82
-3 1 16 63.08 4.07
-3 1 16 56.19 3.19
-3 1 15 1.69 0.94
-3 1 15 1.28 0.75
-3 1 15 1.54 0.7
-3 1 14 5.64 1.39
-3 1 14 6.61 1.18
-3 1 14 7.02 1.33
-3 1 13 39.43 3.24
-3 1 13 34.02 2.71
-3 1 13 35.41 2.66
-3 1 12 5.62 1.26
-3 1 12 5.25 1.08
-3 1 12 4.26 0.93
-3 1 12 4.94 1.34
3 -1 -12 4.29 1.25
-3 1 11 8.3 1.37
-3 1 11 8.26 1.76
-3 1 11 8.15 1.23
3 -1 -11 9.55 1.86
-3 1 11 6.57 1.02
-3 1 10 43.02 3.95
3 -1 -10 44.86 3.93
-3 1 9 196.26 8.77
3 -1 -9 188.96 8.11
3 -1 -8 103.27 5.48
3 -1 -7 21.51 2.3
3 -1 -6 11.09 0.81
3 -1 -6 11.06 1.54
3 -1 -5 84.61 2.77
3 -1 -5 82.68 3.97
3 -1 -4 1.82 0.36
3 -1 -4 1.33 0.42
3 -1 -4 2.22 0.73
3 -1 -3 367.76 7.82
3 -1 -3 367.98 8.91
3 -1 -2 21.83 1.45
3 -1 -2 23.23 1.61
3 -1 -1 575.63 11.81
3 -1 -1 544.01 9.09
3 -1 -1 563.67 11.5
3 -1 0 -0.37 0.59
-3 1 0 -0.15 0.32
3 -1 0 0.13 0.09
3 -1 1 53.42 2.84
-3 1 -1 52.86 1.97
-3 1 -2 3102.67 51.27
3 -1 2 3011.09 54.47
-3 1 -2 3066.05 50.25
3 -1 3 819.52 17.8
-3 1 -3 825.05 13.65
-3 1 -4 389.3 6.65
3 -1 4 409.4 10.7
3 -1 5 409.09 10.9
-3 1 -5 388.86 6.69
3 -1 6 185.39 5.78
3 -1 6 188.76 6.98
-3 1 -6 192.67 3.51
3 -1 7 79.82 4.25
-3 1 -7 83.57 1.76
3 -1 7 80.28 3.53
-3 1 -8 27.69 0.82
3 -1 8 29.4 2.02
3 -1 8 24.26 2.23
-3 1 -8 28.47 2.84
-3 1 -9 103.76 2.21
-3 1 -9 104.25 5.88
-3 1 -10 183.48 8.39
-3 1 -10 179.35 3.51
3 -1 11 88.56 3.76
-3 1 -11 82.06 1.91
3 -1 11 81.46 3.58
3 -1 11 84.62 3.69
3 -1 11 88.86 3.9
-3 1 -11 85.45 3.51
-3 1 -11 81.61 5.48
-3 1 -12 44.75 1.23
3 -1 12 43.07 2.66
-3 1 -12 45.44 9.73
-3 1 -12 42.35 4
3 -1 12 46.57 2.98
3 -1 12 46.87 2.86
3 -1 12 47.94 2.84
3 -1 13 2.35 0.73
-3 1 -13 -0.27 2.13
-3 1 -13 1.52 0.21
3 -1 13 1.9 0.79
3 -1 13 1.28 0.79
3 -1 13 1.04 0.55
3 -1 14 35.51 2.62
3 -1 14 37.48 2.66
3 -1 14 31.92 2.23
3 -1 14 36.7 2.77
3 -1 15 0.66 0.45
3 -1 15 0.83 0.59
3 -1 15 0.63 0.55
3 -1 15 0.52 0.49
3 -1 16 106.17 4.26
3 -1 16 104.45 4.44
3 -1 16 103.5 4.11
3 -1 17 52.46 2.44
-3 1 -17 57.34 8.71
3 -1 17 51.85 2.64
3 -1 17 51.56 2.43
3 -1 18 0.66 0.25
-3 1 -18 -0.1 1.85
3 -1 18 0.16 0.25
-3 0 18 12.29 1.54
-3 0 18 14.04 1.01
-3 0 17 18.39 2.01
-3 0 17 15.1 1.31
-3 0 17 19.3 1.56
-3 0 16 -0.31 0.67
-3 0 16 0.26 0.48
-3 0 16 0.99 0.57
-3 0 15 2.51 1.14
-3 0 15 1.79 0.77
-3 0 15 1.28 0.61
-3 0 14 25.1 2.63
-3 0 14 21.63 2.11
-3 0 14 23.39 2.21
-3 0 14 25.8 1.84
-3 0 13 70.05 4.28
-3 0 13 57.77 3.37
-3 0 13 64.76 3.68
-3 0 13 75.6 3.33
-3 0 12 45.16 3.19
-3 0 12 39.71 2.62
-3 0 12 40.49 2.73
3 0 -12 43.4 3.98
-3 0 12 47.6 2.55
-3 0 11 137.59 6.97
-3 0 11 133.7 4.88
-3 0 11 148.93 5.56
3 0 -11 139.03 7.17
-3 0 10 5.24 1.4
3 0 -10 4.46 1.28
-3 0 9 -0.46 0.69
3 0 -9 0.31 0.46
-3 0 8 26.59 2.89
3 0 -8 27.91 2.68
3 0 -7 256.06 8.39
-3 0 7 248.79 9.21
-3 0 6 251.46 8.72
3 0 -6 238.89 7.59
3 0 -5 1.21 0.59
-3 0 5 0.75 0.71
3 0 -5 0.07 0.2
3 0 -4 66.79 2.11
-3 0 4 72.38 3.78
3 0 -4 70.13 3.13
3 0 -3 288.49 6.64
-3 0 3 300.3 8.2
3 0 -3 289.61 7.14
3 0 -2 1542.98 28.24
-3 0 2 1592.21 29.18
3 0 -2 1568.05 27.96
3 0 -1 6.49 0.97
-3 0 1 6.49 0.9
3 0 -1 5.32 0.68
3 0 0 1942.84 35.2
-3 0 0 1930.08 34.05
-3 0 -1 1331.29 23.74
3 0 1 1331.84 25.64
3 0 2 222.76 6.98
-3 0 -2 229.99 5.19
3 0 3 1409.99 27.83
3 0 4 0.72 0.71
-3 0 -4 0.9 0.13
3 0 5 69.27 3.96
-3 0 -5 70.73 1.45
3 0 6 30.55 1.83
3 0 6 30.89 2.63
-3 0 -6 32.81 0.84
3 0 7 108.66 3.74
-3 0 -7 107.48 2.16
3 0 7 100.06 4.92
-3 0 -7 103.17 5.15
3 0 8 38.91 2.84
-3 0 -8 42.25 3.42
-3 0 -8 40 1.06
-3 0 -9 0.84 0.92
-3 0 -9 0.03 0.13
-3 0 -10 38.22 3.57
-3 0 -10 35.05 1.04
3 0 11 89.58 3.78
3 0 11 79.62 3.82
-3 0 -11 85.31 1.98
3 0 11 93.5 4.08
3 0 11 93.81 3.92
-3 0 -11 91.95 5.69
-3 0 -11 80.24 12.42
-3 0 -11 87.7 3.88
-3 0 -12 21.37 7.36
3 0 12 20.46 2.01
-3 0 -12 22.91 0.8
-3 0 -12 23.71 2
-3 0 -12 21.17 2.8
3 0 12 21.54 1.97
3 0 12 19.46 1.86
3 0 12 24.2 1.96
3 0 13 3.26 0.97
3 0 13 2 0.74
3 0 13 2.28 0.8
3 0 13 1.96 0.74
-3 0 -13 3.25 3.9
-3 0 -13 2.37 0.26
-3 0 -13 3.15 0.79
3 0 14 49.2 3.02
3 0 14 46.41 2.92
3 0 14 48.7 3.11
-3 0 -14 54.47 11.52
3 0 14 52.91 3.42
-3 0 -14 52 2.8
3 0 15 54.39 3.07
3 0 15 51.1 2.87
3 0 15 59.72 3.47
3 0 15 55.07 3.16
-3 0 -15 61.31 11.55
3 0 16 81.31 3.49
3 0 16 83.96 3.88
3 0 16 85.27 3.66
-3 0 -16 80.34 11.99
3 0 17 8.76 0.91
3 0 17 10.04 1.16
3 0 17 8.61 0.96
-3 0 -17 11.74 4
3 0 18 -0.04 0.23
3 0 18 -0.42 0.22
-3 0 -18 -0.95 1.48
-3 -1 18 34.9 1.59
-3 -1 18 32.19 2.32
-3 -1 17 0.35 0.63
-3 -1 17 0.93 0.5
-3 -1 16 42.94 3.27
-3 -1 16 42.52 2.65
-3 -1 16 44.35 2.18
-3 -1 15 65.98 4.33
-3 -1 15 55.6 3.11
-3 -1 15 58.92 3.51
-3 -1 15 70.84 3.17
-3 -1 14 56.68 3.85
-3 -1 14 48.47 2.96
-3 -1 14 49.66 3.24
-3 -1 14 59.84 3.06
-3 -1 13 118.58 5.52
-3 -1 13 109.88 4.58
-3 -1 13 107.11 4.79
-3 -1 13 120.62 4.54
-3 -1 12 59.41 3.55
-3 -1 12 56.52 2.94
-3 -1 12 51.44 3.05
3 1 -12 52.51 4.3
-3 -1 11 40.13 2.5
3 1 -11 49.45 4.08
-3 -1 11 48.35 2.97
-3 -1 11 40.88 3.62
-3 -1 10 66.33 4.74
3 1 -10 74.42 4.82
3 1 -9 1.72 0.76
-3 -1 9 2.24 0.98
3 1 -8 3.85 1.03
-3 -1 8 2.75 1.06
-3 -1 8 3.39 1.05
3 1 -7 371.49 10.33
-3 -1 7 370.47 11.44
-3 -1 7 365.79 10.57
-3 -1 6 486.17 12.99
3 1 -6 466.67 11.49
-3 -1 6 462.62 12.04
3 1 -5 63.37 1.89
3 1 -5 75.54 3.3
-3 -1 5 74.05 3.71
-3 -1 5 75.15 4.05
3 1 -4 370.52 7.83
-3 -1 4 365.1 9.66
-3 -1 4 372.96 10.05
3 1 -4 378.09 8.68
3 1 -3 36.52 0.67
-3 -1 3 36.92 2.43
3 1 -3 39.05 1.87
3 1 -3 38.85 1.96
3 1 -2 354.92 7.44
3 1 -2 350.05 8.32
3 1 -1 5573.68 93.17
-3 -1 1 5691.43 95.02
3 1 -1 5613.57 95.21
3 1 0 2882.53 51.24
-3 -1 0 2915.36 50.3
-3 -1 -1 2650.95 45.55
3 1 1 2595.35 47.27
-3 -1 -2 26.82 1.58
3 1 2 23.67 2.02
-3 -1 -3 432.22 7.28
3 1 3 409.8 11.22
-3 -1 -4 4.08 0.23
3 1 4 3.05 1.02
-3 -1 -5 249.25 7.69
3 1 5 256.82 8.72
3 1 6 99.4 5.01
-3 -1 -6 101.56 2.03
-3 -1 -6 99.27 4.62
3 1 6 100.02 3.21
3 1 7 53.68 3.57
-3 -1 -7 55.81 3.65
-3 -1 -7 55.32 1.31
3 1 8 14.87 1.78
-3 -1 -8 13.69 0.57
-3 -1 -8 13.67 1.93
-3 -1 -9 6.04 0.4
-3 -1 -9 6.87 1.5
3 1 10 1.39 0.59
-3 -1 -10 2.68 1.04
3 1 10 2.46 0.71
-3 -1 -10 0.99 2.84
-3 -1 -10 1.98 0.26
3 1 11 135.33 5.01
3 1 11 128.43 5.15
-3 -1 -11 129.9 2.77
-3 -1 -11 124.65 6.69
-3 -1 -11 134.32 5.13
3 1 11 134.22 5.15
3 1 11 138.5 4.76
3 1 12 617.14 13.76
-3 -1 -12 624.14 39.2
3 1 12 562.46 14.35
-3 -1 -12 601.59 10.54
3 1 12 638.31 14.75
3 1 12 608.45 14.14
-3 -1 -12 623.79 14.26
3 1 13 23.61 1.96
3 1 13 23.77 2.28
-3 -1 -13 22.21 0.79
3 1 13 23.77 2.21
3 1 13 22.81 2.11
-3 -1 -13 27.45 8.16
-3 -1 -13 22.5 2.02
3 1 14 96.73 4.22
3 1 14 99.12 4.76
3 1 14 95.08 4.56
-3 -1 -14 109.39 4.45
-3 -1 -14 95.11 14.82
3 1 14 104.56 4.61
3 1 15 31.62 2.19
-3 -1 -15 27.84 8.01
-3 -1 -15 32.96 2.08
3 1 15 31.69 2.33
3 1 15 31.49 2.48
3 1 15 28.69 2.21
3 1 16 -0.38 0.42
3 1 16 0.2 0.52
3 1 16 0.4 0.43
3 1 17 21.27 1.6
3 1 17 20.28 1.41
-3 -1 -17 24.29 5.25
-3 -2 19 14.62 1.13
-3 -2 18 84.14 2.6
-3 -2 18 93.15 3.93
-3 -2 17 33.33 2.62
-3 -2 17 30.44 1.9
-3 -2 17 35.56 1.79
-3 -2 16 19.97 2.26
-3 -2 16 21.55 1.83
-3 -2 16 23.44 1.79
-3 -2 15 1.78 0.93
-3 -2 15 3.08 0.79
-3 -2 15 3.14 0.84
-3 -2 14 6.92 1.4
-3 -2 14 8.24 1.19
-3 -2 14 6.04 1.12
-3 -2 13 20.77 2.16
-3 -2 13 17.89 1.83
-3 -2 13 22.69 1.92
-3 -2 12 29.67 2.21
-3 -2 12 30.36 2.41
3 2 -12 33.51 3.29
-3 -2 11 160.64 7.29
3 2 -11 161.7 7.42
-3 -2 10 85.71 5.09
3 2 -10 97.41 5.43
-3 -2 10 94.12 5.54
-3 -2 9 1.75 0.9
-3 -2 9 0.99 0.76
3 2 -9 0.77 0.68
3 2 -8 114.95 5.26
-3 -2 8 114.46 5.66
-3 -2 8 116.54 5.96
-3 -2 7 45.05 3.44
-3 -2 7 43.2 3.2
3 2 -7 41.92 2.8
-3 -2 6 216.38 7.51
3 2 -6 228.12 3.96
3 2 -6 225.33 6.77
-3 -2 6 235.99 8.17
-3 -2 5 290.27 8.86
3 2 -5 277.91 4.75
3 2 -5 291.27 7.33
3 2 -5 291.71 6.29
-3 -2 5 290.16 8.53
-3 -2 4 1.32 0.67
3 2 -4 0.92 0.08
3 2 -4 2.21 0.43
-3 -2 4 0.64 0.49
3 2 -4 1.66 0.51
3 2 -3 1768.54 32.57
-3 -2 3 1824.01 34.03
3 2 -3 1832.15 31.49
-3 -2 3 1819.08 33.78
-3 -2 2 317.39 8.43
3 2 -2 320.98 6.33
3 2 -2 313.93 7.96
3 2 -1 5.63 0.96
-3 -2 1 6.48 0.98
3 2 0 887.81 14.67
-3 -2 0 867.76 17.63
3 2 0 846.77 18.26
3 2 1 1098.79 22.9
-3 -2 -1 1173.86 21.91
-3 -2 -2 32.87 2.02
3 2 2 27.15 2.37
-3 -2 -3 77.25 2.94
-3 -2 -3 82.42 1.58
3 2 3 82.73 4.29
-3 -2 -4 104 3.88
-3 -2 -4 105.8 2.01
3 2 4 98.45 4.99
-3 -2 -5 1.12 0.53
3 2 5 0.06 0.66
-3 -2 -5 0.45 0.13
3 2 6 178.34 7.29
-3 -2 -6 183.05 3.41
-3 -2 -6 181.9 6.46
3 2 7 9.93 1.66
-3 -2 -7 9.09 1.43
-3 -2 -7 9.44 0.45
-3 -2 -8 2.97 0.28
-3 -2 -8 3.39 1.01
-3 -2 -9 0.44 0.53
-3 -2 -9 1.22 0.22
3 2 10 27.65 2.05
-3 -2 -10 28.46 0.95
3 2 10 28 2
-3 -2 -10 25.57 6.94
-3 -2 -10 25.85 2.78
-3 -2 -10 26.46 2.17
-3 -2 -11 9.5 0.54
3 2 11 10.29 1.57
3 2 11 11.35 1.54
3 2 11 9.65 1.28
-3 -2 -11 8.89 1.34
-3 -2 -11 7.23 1.58
-3 -2 -12 107 2.36
-3 -2 -12 114.46 16.39
3 2 12 107.05 5.07
3 2 12 109.82 4.92
3 2 12 112.04 4.71
-3 -2 -12 111.95 4.94
3 2 13 4.57 0.99
3 2 13 5.07 0.95
-3 -2 -13 4.53 2.84
3 2 13 3.8 1.1
-3 -2 -13 3.52 0.95
3 2 14 19.5 1.67
-3 -2 -14 13.04 5.77
3 2 14 17.93 1.82
3 2 14 16.26 1.86
3 2 14 14.54 1.83
-3 -2 -14 17.29 1.81
3 2 15 113.13 4.7
3 2 15 121.28 4.98
3 2 15 121.69 4.64
-3 -2 -15 120.99 15.42
-3 -2 -15 118.85 4.38
3 2 16 5.12 0.86
-3 -2 -16 5.7 3.18
3 2 16 4.16 0.83
3 2 17 0.19 0.36
3 2 17 -0.09 0.27
-3 -2 -17 -0.13 1.5
-3 -3 18 0.36 0.45
-3 -3 18 -0.39 0.22
-3 -3 18 -0.31 0.3
-3 -3 17 8.56 1.31
-3 -3 17 8.46 0.95
-3 -3 17 10.73 1.08
-3 -3 16 2.35 0.7
-3 -3 16 3.09 1.05
-3 -3 16 3.15 0.73
-3 -3 15 6.49 1.12
-3 -3 15 6.86 1.37
-3 -3 15 5.3 1.04
-3 -3 14 13.92 1.82
-3 -3 14 11.95 1.51
-3 -3 14 12.62 1.52
-3 -3 14 13.69 1.61
-3 -3 13 34.85 2.75
-3 -3 13 31.84 2.35
-3 -3 13 31.93 2.36
-3 -3 12 68.54 3.6
-3 -3 12 61.32 3.15
3 3 -12 65.79 4.55
-3 -3 11 18.04 2.33
3 3 -11 19.02 2.36
-3 -3 11 20.15 2.55
-3 -3 10 3.17 1.06
3 3 -10 1.66 0.74
-3 -3 10 2.48 1.05
-3 -3 9 104.93 5.73
3 3 -9 107.67 5.22
-3 -3 9 102.91 5.72
3 3 -8 80.46 4.15
-3 -3 8 80.7 4.9
-3 -3 8 87.14 4.94
3 3 -7 117.78 4.71
-3 -3 7 113.32 5.65
-3 -3 7 107.68 5.42
3 3 -7 115.36 2.18
-3 -3 6 56.2 3.57
-3 -3 6 54.27 3.64
3 3 -6 57.26 2.84
3 3 -6 54.78 1.13
-3 -3 5 1322.24 26.93
3 3 -5 1348.76 24.16
3 3 -5 1347.09 24.02
3 3 -5 1294.71 21.49
-3 -3 5 1334.63 26.54
-3 -3 4 52.72 3.31
3 3 -4 54.73 2.14
3 3 -4 52.09 2.58
-3 -3 4 51.24 3.12
-3 -3 3 1266.98 25.46
3 3 -3 1281.1 22.03
3 3 -3 1233.12 24.24
-3 -3 3 1263.45 24.96
3 3 -2 97.28 3.85
-3 -3 2 92.46 3.91
-3 -3 2 94.48 3.87
-3 -3 2 99.76 4.17
3 3 -1 405.78 10.36
-3 -3 1 392.56 10.49
3 3 -1 412.86 6.95
-3 -3 1 420.26 10.32
3 3 0 240.23 4.13
3 3 0 229.41 7.4
-3 -3 0 221.48 7.48
-3 -3 -1 0.4 0.42
-3 -3 -1 1.7 0.21
3 3 1 0.38 0.6
-3 -3 -1 0.16 0.64
-3 -3 -2 4.13 0.21
-3 -3 -2 3.96 1.11
-3 -3 -2 4.34 0.47
-3 -3 -3 271.89 9.36
3 3 3 271.51 8.99
-3 -3 -3 293.3 5.04
-3 -3 -3 286.07 6.65
-3 -3 -4 35.8 3.14
-3 -3 -4 38.86 2.16
-3 -3 -4 39.32 0.94
3 3 4 38.24 3.16
-3 -3 -5 1.15 0.17
-3 -3 -5 1.07 0.45
-3 -3 -6 111.61 2.26
-3 -3 -6 110.79 4.71
3 3 6 100.83 5.55
3 3 7 9.94 1.65
-3 -3 -7 9.6 1.45
-3 -3 -7 9.84 0.48
-3 -3 -8 198.44 7.56
-3 -3 -8 212.76 4.05
-3 -3 -9 243.86 8.87
-3 -3 -9 259.43 4.87
-3 -3 -10 315.47 5.9
3 3 10 329.24 8.75
-3 -3 -10 290.03 10.35
3 3 10 333.31 8.48
-3 -3 -10 299.56 24.54
-3 -3 -10 328.97 9.22
-3 -3 -11 77.47 1.9
-3 -3 -11 77.82 4.12
3 3 11 74.25 4.18
3 3 11 84.64 4.12
-3 -3 -11 87.33 14.04
3 3 11 79.47 3.79
3 3 12 75.56 4.27
3 3 12 79.02 4.14
3 3 12 78.66 3.88
-3 -3 -12 77.37 4.22
-3 -3 -12 80.25 14.15
3 3 13 3.29 1.15
-3 -3 -13 1.96 0.81
3 3 13 2.22 0.83
3 3 13 2.63 0.77
3 3 14 2.13 0.83
3 3 14 1.94 0.77
-3 -3 -14 1.17 0.66
3 3 14 2.08 0.76
-3 -3 -14 -0.94 3.04
3 3 15 61.64 3.31
3 3 15 66.99 3.46
-3 -3 -15 71.36 11.37
3 3 15 63.13 3.1
-3 -3 -15 62.51 3.08
3 3 16 0.05 0.41
3 3 16 0.1 0.35
-3 -3 -16 -0.19 1.28
-3 -3 -16 0.02 0.31
3 3 17 -0.62 0.31
3 3 17 -0.09 0.19
-3 -3 -17 -1.94 1.87
-3 -4 18 10.41 1.21
-3 -4 18 12.27 0.94
-3 -4 17 2.93 0.55
-3 -4 17 5 0.84
-3 -4 17 3.7 0.96
-3 -4 16 4.43 1.09
-3 -4 16 5.96 0.89
-3 -4 15 9 1.24
-3 -4 15 9.66 1.59
-3 -4 15 10.46 1.43
-3 -4 14 10.54 1.64
-3 -4 14 10.24 1.43
-3 -4 14 9.76 1.31
-3 -4 13 35.76 2.68
-3 -4 13 38.08 2.26
-3 -4 13 33.65 2.41
-3 -4 12 45.62 2.79
-3 -4 12 41.52 2.55
-3 -4 12 36.94 2.33
3 4 -12 44.3 3.57
-3 -4 12 36.82 3.5
3 4 -11 7.03 1.42
-3 -4 11 9.55 1.19
-3 -4 11 3.72 1.22
-3 -4 11 5.54 0.87
-3 -4 11 6.68 1.03
-3 -4 10 17.47 2.23
3 4 -10 22.08 2.31
-3 -4 10 20.18 2.64
-3 -4 9 156.95 7.15
3 4 -9 165.08 6.34
-3 -4 9 155.39 7.33
3 4 -8 143.14 5.5
-3 -4 8 139.48 6.67
3 4 -8 147.21 2.77
-3 -4 8 144.98 6.74
-3 -4 7 122.07 5.96
-3 -4 7 123.38 5.92
3 4 -7 124.72 4.64
3 4 -7 123.75 2.34
3 4 -6 147.9 4.52
-3 -4 6 146.14 6.39
3 4 -6 148.99 4.7
-3 -4 6 142.75 6.13
3 4 -6 146.48 2.68
-3 -4 5 1199.04 25.85
3 4 -5 1257.52 22.58
3 4 -5 1252.23 23.74
-3 -4 5 1195.8 25.65
-3 -4 4 1.33 0.7
3 4 -4 2.18 0.74
3 4 -4 1.1 0.28
-3 -4 4 2.3 0.88
-3 -4 3 3.16 0.87
-3 -4 3 3.21 0.95
3 4 -3 2.61 0.7
3 4 -3 2.45 0.25
-3 -4 3 2.64 0.74
-3 -4 2 347.53 9.72
-3 -4 2 376.3 10.08
3 4 -2 362.12 9.76
-3 -4 2 350.94 9.42
-3 -4 1 10.47 1.5
3 4 -1 11.24 0.36
-3 -4 1 12.53 1.52
3 4 -1 11.32 1.54
3 4 0 246.35 4.23
3 4 0 235.56 7.87
-3 -4 0 244.85 7.83
-3 -4 0 231.86 8.04
3 4 1 0.84 0.81
-3 -4 -1 0.7 0.56
-3 -4 -1 1.21 0.79
-3 -4 -1 1.15 0.12
3 4 2 17.05 2.07
-3 -4 -2 17.75 2.23
-3 -4 -2 18.29 0.91
-3 -4 -2 20.84 0.55
-3 -4 -3 0.39 0.31
3 4 3 -0.34 0.65
-3 -4 -3 -0.01 0.64
-3 -4 -3 0.16 0.11
-3 -4 -4 4.82 0.29
-3 -4 -4 4.76 0.73
3 4 4 4.42 1.15
-3 -4 -4 5.23 1.43
-3 -4 -5 19.81 2.58
-3 -4 -5 22.07 1.74
-3 -4 -5 23.41 0.72
3 4 5 22.52 2.62
-3 -4 -6 52.58 2.97
-3 -4 -6 50.7 1.24
3 4 6 45.64 3.73
3 4 6 46.29 1.05
-3 -4 -7 18.06 0.69
-3 -4 -7 16.14 1.75
3 4 7 15.79 2.18
-3 -4 -8 42.44 1.21
-3 -4 -8 41.56 3.11
3 4 9 593.54 12.7
3 4 9 581.14 13.04
-3 -4 -9 573.18 10.13
-3 -4 -9 569.01 13.58
-3 -4 -9 584.36 33.12
-3 -4 -10 57.55 1.55
3 4 10 56.31 3.48
3 4 10 55.6 2.94
3 4 10 54.39 3.12
-3 -4 -10 60.3 11.15
-3 -4 -10 58.81 3.57
3 4 11 6.37 1.3
3 4 11 6.82 1.26
3 4 11 6.2 1.09
-3 -4 -11 6.79 3.98
-3 -4 -11 6.96 1.36
3 4 12 79.49 4.46
3 4 12 83.4 4.28
3 4 12 81.98 3.93
-3 -4 -12 88.15 14.42
-3 -4 -12 87.31 4.57
-3 -4 -13 76.93 4.16
3 4 13 76.57 4.27
-3 -4 -13 70.96 12.83
3 4 13 73.17 4.03
3 4 13 75.95 3.72
3 4 14 2.34 0.83
3 4 14 2.79 0.78
-3 -4 -14 0.93 1.81
3 4 14 2.66 0.77
-3 -4 -14 2.88 0.87
3 4 15 3.44 0.86
3 4 15 3.48 0.8
3 4 15 3.87 0.76
-3 -4 -15 1.59 2.05
-3 -4 -15 5.63 1.12
-3 -4 -16 0.13 0.31
3 4 16 -0.47 0.4
3 4 16 -0.17 0.3
-3 -5 18 2.43 0.59
-3 -5 18 4.35 0.64
-3 -5 17 5.04 0.97
-3 -5 17 7.45 0.96
-3 -5 16 17.03 1.84
-3 -5 16 17.81 1.39
-3 -5 16 18.81 1.76
-3 -5 15 9.78 1.36
-3 -5 15 8.76 1.15
-3 -5 15 9.46 1.08
-3 -5 15 9.64 1.54
-3 -5 14 14.55 1.74
-3 -5 14 14.16 1.48
-3 -5 14 16.8 1.5
-3 -5 13 5.08 1.09
-3 -5 13 6.1 0.97
-3 -5 13 4.73 0.9
-3 -5 13 5.98 0.98
-3 -5 12 30.13 2.2
-3 -5 12 27.87 2.04
-3 -5 12 29.84 2.06
-3 -5 12 29.8 3.2
-3 -5 12 33.2 2.42
-3 -5 11 0.86 0.48
-3 -5 11 0.22 0.47
-3 -5 11 0.99 0.47
-3 -5 11 0.74 0.53
-3 -5 11 0.58 0.4
-3 -5 11 1.31 0.9
-3 -5 10 47.12 3.63
3 5 -10 49.4 3.33
-3 -5 10 41.03 3.82
-3 -5 9 6.91 1.45
-3 -5 9 6.59 1.46
3 5 -9 7.16 1.18
3 5 -9 7.05 0.37
3 5 -8 5.15 0.29
-3 -5 8 5.09 1.21
3 5 -8 5.44 0.94
-3 -5 8 5.52 1.32
-3 -5 7 0.49 0.64
-3 -5 7 -0.45 0.5
3 5 -7 0.42 0.39
3 5 -7 0.12 0.09
-3 -5 6 33.55 2.97
3 5 -6 33.81 1.88
3 5 -6 30 2.1
-3 -5 6 30.91 2.88
-3 -5 5 132.52 5.98
3 5 -5 139.05 5.22
-3 -5 5 124.24 5.72
-3 -5 4 82.03 3.9
-3 -5 4 92.29 4.76
-3 -5 4 92.46 4.56
-3 -5 3 43.45 2.96
-3 -5 3 50.24 3.33
-3 -5 3 45.45 3.03
-3 -5 2 10.41 1.54
-3 -5 2 10.95 1.57
-3 -5 2 10.42 1.4
-3 -5 1 153.33 6.45
3 5 -1 162.83 6.5
-3 -5 1 165.73 6.57
3 5 -1 163.63 2.91
-3 -5 0 201.5 7.12
3 5 0 191.99 3.35
3 5 0 186.52 7.26
-3 -5 -1 181.33 7.71
3 5 1 189.5 7.68
-3 -5 -2 38.25 3.43
-3 -5 -2 42.67 0.98
3 5 2 37.26 3.25
-3 -5 -3 47.09 3.93
3 5 3 46.08 3.74
-3 -5 -3 50.39 1.17
-3 -5 -4 296.39 11.24
-3 -5 -4 322.88 5.7
3 5 4 298.04 10.72
-3 -5 -5 79.56 5.5
3 5 5 74.12 5.07
-3 -5 -5 87.17 1.88
-3 -5 -6 53.1 4.5
-3 -5 -6 55.64 1.4
3 5 6 51.22 4.08
3 5 6 54.29 1.23
-3 -5 -7 49.88 1.34
3 5 7 42.1 3.59
-3 -5 -8 67.62 10.69
-3 -5 -8 63.74 3.39
-3 -5 -8 63.57 1.64
3 5 9 10.98 1.36
3 5 9 9.23 1.12
-3 -5 -9 9 4.71
-3 -5 -9 8.76 1.47
3 5 10 101.89 5.03
3 5 10 104.6 4.21
-3 -5 -10 103.76 15.03
-3 -5 -10 107.98 5.04
3 5 10 102.32 4.45
3 5 11 39.67 3.11
3 5 11 44.26 2.96
3 5 11 46.62 2.76
-3 -5 -11 48.31 10.62
-3 -5 -11 43.97 3.29
-3 -5 -12 1.99 3.71
-3 -5 -12 1.01 0.73
3 5 12 0.98 0.62
3 5 12 1.75 0.77
3 5 12 1.63 0.91
3 5 13 1.08 0.73
-3 -5 -13 0.31 0.66
3 5 13 0.49 0.56
3 5 13 0.73 0.56
-3 -5 -13 -1.18 2.23
3 5 14 49.7 8.01
3 5 14 60.51 3.38
3 5 14 60.33 3.27
3 5 14 60.13 2.93
-3 -5 -14 65.26 3.47
-3 -5 -14 64.87 10.88
3 5 15 36.11 1.88
3 5 15 33.66 2.19
3 5 15 33.84 2.08
-3 -5 -15 38.36 7.34
-3 -5 -15 37.01 2.18
-3 -5 -16 9.4 0.75
3 5 16 9.19 0.85
3 5 16 10.08 0.72
-3 -5 -16 9.17 2.87
-3 -6 18 13.73 1.08
-3 -6 18 20.21 1.27
-3 -6 17 10.54 1.19
-3 -6 17 16.01 1.42
-3 -6 16 4.36 0.9
-3 -6 16 6.3 0.77
-3 -6 16 5.64 0.98
-3 -6 15 3.59 0.91
-3 -6 15 4.36 0.72
-3 -6 15 5.78 0.95
-3 -6 15 6.64 1.22
-3 -6 14 1.2 0.52
-3 -6 14 0.63 0.48
-3 -6 14 0.39 0.46
-3 -6 14 1.11 0.56
-3 -6 13 59.35 3.02
-3 -6 13 57.92 3.21
-3 -6 13 66.81 3.38
-3 -6 13 64.77 3.16
-3 -6 12 59.91 3.1
-3 -6 12 62 3.1
-3 -6 12 63.25 3.49
-3 -6 12 51.56 4.39
-3 -6 12 55.13 2.89
-3 -6 11 182.38 5.92
-3 -6 11 160.25 5.07
-3 -6 11 185.98 6.06
-3 -6 11 173.94 5.59
-3 -6 11 159.02 5.33
-3 -6 11 163.75 8.13
-3 -6 10 0.19 0.47
-3 -6 10 -0.21 0.46
-3 -6 10 0.5 0.46
3 6 -10 0.5 0.15
-3 -6 10 0.56 0.37
-3 -6 10 -0.15 0.51
-3 -6 9 18.49 2.35
3 6 -9 17.36 0.62
-3 -6 9 18.76 2.63
-3 -6 8 0.08 0.49
-3 -6 8 -0.63 0.69
3 6 -8 0.21 0.12
-3 -6 7 37.35 3.32
3 6 -7 39.95 0.99
-3 -6 7 36.87 3.42
-3 -6 6 24.21 2.62
3 6 -6 24.72 2.1
-3 -6 6 20.56 2.42
-3 -6 5 12.35 1.39
-3 -6 5 11.92 1.78
-3 -6 5 11.08 1.74
-3 -6 4 55.44 3.81
-3 -6 4 47 3.1
-3 -6 4 51.87 3.49
-3 -6 3 3.56 1.06
-3 -6 3 1.47 0.68
-3 -6 3 1.81 0.72
3 6 -2 6.45 0.27
-3 -6 2 5.67 1.11
-3 -6 2 7.52 1.44
-3 -6 2 5.57 1.21
-3 -6 1 99.94 5.42
-3 -6 1 96.68 4.27
-3 -6 1 112.22 5.45
3 6 -1 109.61 2.02
-3 -6 0 4.45 1.23
3 6 0 3.84 1.19
3 6 0 4.37 0.21
3 6 1 52.35 4.03
-3 -6 -1 54.52 4.19
-3 -6 -2 20.88 2.67
3 6 2 20.38 2.6
3 6 3 11.35 2
-3 -6 -3 11.42 2.06
-3 -6 -4 15.91 2.47
3 6 4 16.92 2.45
3 6 5 1.22 0.93
3 6 5 0.74 0.16
-3 -6 -5 1.1 0.83
-3 -6 -6 367.07 13.87
3 6 6 366.53 12.63
3 6 6 390.29 6.81
-3 -6 -7 27.48 2.22
3 6 7 32.75 3.3
-3 -6 -8 584.55 14.29
3 6 8 592.9 13.03
3 6 8 605.55 12.51
-3 -6 -8 595.16 33.62
3 6 9 73.24 4.09
3 6 9 75.16 3.26
3 6 9 75.73 3.58
-3 -6 -9 72.93 12.31
-3 -6 -9 74.87 4.15
3 6 10 27.68 2.6
3 6 10 25.11 2.16
3 6 10 29.87 2.03
-3 -6 -10 26.09 7.72
-3 -6 -10 28.78 2.63
3 6 11 69.77 4.1
-3 -6 -11 72.1 4.27
3 6 11 70.52 3.36
3 6 11 69.44 3.7
-3 -6 -11 71.22 12.77
3 6 12 35.09 2.84
-3 -6 -12 35.02 2.83
-3 -6 -12 42.35 9.59
3 6 12 36.96 2.32
3 6 12 33.89 2.57
3 6 13 0.53 0.57
-3 -6 -13 -1.57 3.8
3 6 13 -0.42 0.51
3 6 13 1.16 0.56
-3 -6 -13 0.92 0.84
3 6 14 97.11 4.14
3 6 14 88.98 3.69
3 6 14 90.69 3.23
-3 -6 -14 99.79 12.3
-3 -6 -14 97.88 4.12
3 6 15 12.92 1.1
3 6 15 15.53 0.96
-3 -6 -15 14.09 3.77
-3 -6 -15 15.56 1.29
-3 -7 18 0.87 0.34
-3 -7 17 0.95 0.48
-3 -7 17 2.29 0.69
-3 -7 16 18.12 1.38
-3 -7 16 20.38 1.81
-3 -7 15 15.75 1.56
-3 -7 15 16.02 1.55
-3 -7 15 18.43 1.85
-3 -7 15 17.56 1.42
-3 -7 14 8.81 1.19
-3 -7 14 8.45 1.14
-3 -7 14 8.47 1.04
-3 -7 14 9.32 1.42
-3 -7 14 10.24 1.41
-3 -7 13 24.79 2.2
-3 -7 13 23.71 1.76
-3 -7 13 24.61 2.1
-3 -7 13 25.22 2.05
-3 -7 12 22.87 1.98
-3 -7 12 22.67 2.04
-3 -7 12 19.7 1.64
-3 -7 12 22.27 2.03
-3 -7 11 59.73 3.24
-3 -7 11 51.59 4.48
-3 -7 11 62.46 3.36
3 7 -11 60.46 1.44
-3 -7 11 52.39 2.75
-3 -7 11 58.65 3.16
-3 -7 11 53.91 2.87
-3 -7 10 261.17 7.38
-3 -7 10 227.84 10.13
3 7 -10 261.6 4.74
-3 -7 10 229.88 6.63
-3 -7 10 257.26 7.32
-3 -7 10 271.24 7.54
-3 -7 10 252.58 6.94
-3 -7 9 132.34 6.35
3 7 -9 131.48 2.64
-3 -7 9 121.87 7
-3 -7 8 8.33 1.78
-3 -7 8 10.43 1.78
3 7 -8 10.27 0.46
-3 -7 7 2.37 0.9
-3 -7 7 1.18 0.54
-3 -7 6 31.77 3.11
-3 -7 6 26.2 2.84
-3 -7 5 89.4 4.27
-3 -7 5 89.05 5.07
-3 -7 4 -0.03 0.51
-3 -7 4 -0.35 0.82
-3 -7 4 0.42 0.5
-3 -7 3 224.43 7.93
-3 -7 3 225.22 8.44
-3 -7 2 86.79 4.29
3 7 -2 99.8 1.87
-3 -7 2 91.72 5.35
-3 -7 2 100.06 5.54
-3 -7 1 272.08 10.44
3 7 -1 314.81 5.36
3 7 0 8.11 1.65
-3 -7 0 5.85 1.47
-3 -7 -1 69.31 5.1
3 7 1 77.12 5.16
-3 -7 -2 62.03 4.95
3 7 2 69.4 5.04
3 7 3 12.2 2.22
-3 -7 -3 12.48 2.31
3 7 4 64.5 1.53
-3 -7 -4 69.85 5.61
3 7 4 65.2 5
-3 -7 -5 174.28 9.25
3 7 5 180.16 8.64
3 7 5 186.97 3.58
3 7 6 0.35 0.17
-3 -7 -6 0.04 0.78
3 7 6 0.91 0.88
-3 -7 -6 -0.27 0.6
-3 -7 -7 269.6 21.74
-3 -7 -7 262.47 8.04
-3 -7 -8 63.13 3.79
-3 -7 -8 71.65 4.05
3 7 9 4.37 1.13
3 7 9 5.36 1.03
-3 -7 -9 1.15 2.9
-3 -7 -9 4.46 1.14
-3 -7 -10 2.9 3.06
3 7 10 5.53 1.2
3 7 10 5.26 1.05
3 7 10 6.91 0.91
-3 -7 -10 5.37 1.2
3 7 11 7.14 1.4
3 7 11 6.87 1.27
-3 -7 -11 7.75 4.01
3 7 11 7.97 1.02
-3 -7 -11 7.6 1.47
3 7 12 25.86 2.38
3 7 12 25.66 1.69
-3 -7 -12 29.56 8.17
3 7 12 23.56 1.97
-3 -7 -12 25.15 2.39
-3 -7 -13 3.23 0.88
3 7 13 1.68 0.61
3 7 13 1.76 0.44
3 7 13 3.02 0.79
-3 -7 -14 8.6 2.97
3 7 14 9.2 1.15
-3 -7 -14 11.48 1.27
3 7 14 8.09 0.87
3 7 14 9.13 0.73
3 7 14 10.38 3.26
-3 -7 -15 18.02 3.6
-3 -7 -15 19.7 1.24
-3 -8 18 4.75 0.55
-3 -8 17 39.18 1.64
-3 -8 17 39.28 2.11
-3 -8 16 -0.28 0.37
-3 -8 16 -0.01 0.54
-3 -8 15 64.27 3.19
-3 -8 15 63.09 3.42
-3 -8 15 67.46 3
-3 -8 14 3.66 0.79
-3 -8 14 5.09 1.08
-3 -8 14 5.41 0.98
-3 -8 13 178.02 6.34
-3 -8 13 184.8 6.46
-3 -8 13 169.13 6.08
-3 -8 12 113.62 4.86
-3 -8 12 121.67 5.08
-3 -8 12 120.42 5.07
-3 -8 12 117.26 4.98
-3 -8 11 39.13 2.7
-3 -8 11 31.45 2.04
-3 -8 11 38.63 2.65
3 8 -11 36.9 1.05
-3 -8 11 39.03 2.69
-3 -8 10 20.89 1.9
-3 -8 10 19.14 1.78
-3 -8 10 19.67 1.72
-3 -8 10 23.38 1.99
-3 -8 10 23.43 2.51
-3 -8 10 19.64 2.85
3 8 -10 20.81 0.72
-3 -8 10 17.25 1.47
-3 -8 9 0.08 0.65
-3 -8 9 1.39 0.64
-3 -8 9 1.01 0.58
3 8 -9 0.99 0.18
-3 -8 9 1.48 0.67
-3 -8 9 1.57 0.59
-3 -8 9 1.25 0.74
-3 -8 9 1.26 0.46
-3 -8 9 2.04 1.03
-3 -8 9 1.04 0.35
-3 -8 8 10.69 1.84
-3 -8 8 10.14 1.96
3 8 -8 11.12 0.5
-3 -8 7 0.46 0.62
-3 -8 7 0.05 0.55
-3 -8 6 8.3 1.74
-3 -8 6 11.75 2.22
-3 -8 5 54.8 4.24
-3 -8 5 50.37 3.93
-3 -8 4 0.99 0.93
-3 -8 4 0.64 0.87
-3 -8 4 0.67 0.55
-3 -8 3 32.66 3.25
3 8 -3 31.98 0.76
-3 -8 3 27.34 2.52
-3 -8 2 2.12 0.98
-3 -8 2 1.86 0.69
-3 -8 1 278.28 10.72
3 8 0 55.56 4.58
-3 -8 0 53.13 4.56
-3 -8 -1 152.82 8.2
3 8 1 167.29 8.28
3 8 2 2.03 1.32
-3 -8 -2 2.71 1.25
3 8 3 49.1 4.55
-3 -8 -3 44.7 4.53
3 8 3 47.21 1.28
3 8 4 9.13 1.84
-3 -8 -4 9.24 2.21
3 8 4 9.89 0.52
3 8 5 1.81 1
-3 -8 -5 3.47 1.55
-3 -8 -5 2.68 0.72
3 8 5 2 0.26
-3 -8 -6 135.35 5.32
-3 -8 -6 129.57 14.67
-3 -8 -6 117 7.54
3 8 6 120.29 6.99
3 8 6 145.14 2.98
-3 -8 -7 133.78 5.57
-3 -8 -7 129.55 15.17
-3 -8 -8 0.6 0.45
3 8 8 1.28 0.61
-3 -8 -8 1.42 0.87
-3 -8 -8 0.73 0.67
3 8 9 5.89 1.19
-3 -8 -9 4.92 0.9
-3 -8 -9 8.29 5.06
-3 -8 -9 5.76 1.27
-3 -8 -9 6.62 1.35
3 8 10 8.71 1.41
-3 -8 -10 4.89 3.58
-3 -8 -10 7.11 1.42
3 8 11 72.02 3.91
-3 -8 -11 64.79 3.89
-3 -8 -11 64.05 11.43
3 8 11 63.2 2.99
-3 -8 -12 3.61 0.99
3 8 12 3.3 0.8
3 8 12 2.82 0.63
-3 -8 -12 0.92 2.53
3 8 13 0.9 0.5
3 8 13 0.56 0.33
3 8 13 -1.93 1.61
-3 -8 -13 1.69 0.66
-3 -8 -13 -2.89 2.49
-3 -8 -14 2.18 0.56
-3 -8 -14 1.61 1.23
3 8 14 1.13 1.32
-3 -9 17 46.01 2.14
-3 -9 17 45.3 1.75
-3 -9 16 62.5 2.33
-3 -9 16 64.17 3
-3 -9 16 65.89 2.8
-3 -9 15 19.41 1.72
-3 -9 15 18.31 1.55
-3 -9 15 17.08 1.71
-3 -9 14 19.58 1.83
-3 -9 14 20.25 1.9
-3 -9 14 17.92 1.87
-3 -9 13 0.87 0.66
-3 -9 13 -0.31 0.59
-3 -9 13 1.1 0.66
-3 -9 13 0.58 0.58
-3 -9 12 0.44 0.57
-3 -9 12 1.04 0.67
-3 -9 12 -0.36 0.58
-3 -9 12 -0.33 0.55
-3 -9 11 14.98 1.68
3 9 -11 14.13 0.58
-3 -9 11 15.05 1.73
-3 -9 11 15.17 1.7
-3 -9 11 14.53 2.77
-3 -9 11 15.41 1.71
-3 -9 10 13.91 1.6
-3 -9 10 10.76 1.5
-3 -9 10 14.62 1.68
-3 -9 10 12.75 2.4
-3 -9 10 12.58 1.53
-3 -9 10 13.87 1.6
3 9 -10 12.28 0.54
-3 -9 10 13.68 1.61
-3 -9 9 0.09 0.56
-3 -9 9 0.46 0.88
-3 -9 9 2.23 0.73
-3 -9 9 0.8 0.57
-3 -9 9 0.96 0.63
-3 -9 9 1.91 0.75
3 9 -9 0.83 0.17
-3 -9 9 0.71 0.52
-3 -9 8 15.64 1.55
-3 -9 8 17.4 1.62
-3 -9 8 15.04 2.18
3 9 -8 15.79 0.62
-3 -9 8 15.31 1.56
-3 -9 8 16.59 1.59
-3 -9 8 14.1 1.63
-3 -9 8 16 1.58
-3 -9 8 13.64 2.26
-3 -9 8 15.09 1.4
-3 -9 7 72.62 3.31
-3 -9 7 63.3 3.06
-3 -9 7 63.12 4.59
-3 -9 7 64.61 3.12
-3 -9 7 67.96 3.24
-3 -9 7 64.71 3.08
-3 -9 7 63.64 2.97
-3 -9 7 58.29 4.59
-3 -9 7 59.78 2.79
3 9 -7 67.66 1.5
-3 -9 6 36.38 3.53
-3 -9 6 32.93 3.28
-3 -9 5 2.22 0.91
-3 -9 5 2.87 1.07
-3 -9 4 12.15 1.92
-3 -9 4 13.62 1.9
-3 -9 3 4.6 1.06
-3 -9 3 6.46 1.53
-3 -9 2 4.06 1.35
-3 -9 1 347.52 13.01
3 9 -1 388.96 13.64
-3 -9 0 129.86 7.64
3 9 0 153.55 8.27
3 9 1 1.69 0.97
-3 -9 -1 1.86 1.18
3 9 1 0.52 0.17
3 9 2 1.08 0.89
-3 -9 -2 0.88 1.03
3 9 2 1.59 0.24
-3 -9 -3 21.45 3.29
3 9 3 16.71 2.71
3 9 3 19.64 0.79
3 9 4 16.18 0.7
-3 -9 -4 15.01 1.55
3 9 4 12.96 2.34
-3 -9 -4 11.97 2.42
-3 -9 -5 13.74 1.58
3 9 5 12.82 2.42
-3 -9 -5 11.15 2.54
-3 -9 -5 13.65 1.62
3 9 5 18 0.8
-3 -9 -5 15.28 4.92
3 9 6 12.43 1.42
-3 -9 -6 11.67 1.47
-3 -9 -6 7.15 3
-3 -9 -6 10.32 1.5
3 9 6 12.11 0.87
-3 -9 -6 10.7 2.34
-3 -9 -7 13.35 2.09
3 9 7 13.93 1.58
-3 -9 -7 10.29 1.57
-3 -9 -7 9.96 4.14
-3 -9 -7 11.92 1.51
-3 -9 -8 0.33 1.97
3 9 8 1.09 0.63
-3 -9 -8 0.32 0.89
-3 -9 -8 0.57 0.49
-3 -9 -8 2.91 1.05
3 9 9 13.28 1.63
-3 -9 -9 13.41 1.87
-3 -9 -9 9.87 4.4
-3 -9 -9 11.32 1.33
-3 -9 -9 11.8 1.83
-3 -9 -10 1.61 0.88
3 9 10 0.06 0.6
-3 -9 -10 -1.01 2.11
-3 -9 -11 0.71 0.63
3 9 11 0.76 0.56
-3 -9 -11 -1.25 2.46
3 9 12 1.27 0.56
-3 -9 -12 0.12 1.31
-3 -9 -12 1.76 0.72
-3 -9 -13 5.88 2.61
3 9 13 7.14 2.57
-3 -9 -13 8.96 1.05
-3 -9 -14 5.15 0.59
-3 -10 17 0.04 0.26
-3 -10 17 0.55 0.28
-3 -10 16 9.43 0.97
-3 -10 16 8.91 0.79
-3 -10 16 9.28 1.04
-3 -10 15 29.51 2.02
-3 -10 15 28.65 2.03
-3 -10 15 28.44 1.87
-3 -10 14 58.27 3.16
-3 -10 14 50.58 2.91
-3 -10 14 49.55 2.89
-3 -10 13 10.12 1.35
-3 -10 13 8.73 1.31
-3 -10 13 11.5 1.44
-3 -10 13 11.13 1.46
-3 -10 12 5.49 1.04
-3 -10 12 5.64 1.14
-3 -10 12 5.56 1.04
-3 -10 12 5.48 1.16
-3 -10 12 6.54 1.2
-3 -10 11 8.35 1.29
-3 -10 11 7.6 1.19
-3 -10 11 8 1.22
-3 -10 11 7.9 1.29
-3 -10 11 8.52 1.32
-3 -10 10 17.71 1.89
-3 -10 10 17.02 1.81
-3 -10 10 19.76 1.95
-3 -10 10 14.93 1.72
-3 -10 10 16.68 1.84
-3 -10 10 17.96 2.96
3 10 -10 16.51 0.63
-3 -10 9 19.71 1.93
-3 -10 9 20.5 1.96
-3 -10 9 19.25 1.9
-3 -10 9 21.48 1.99
-3 -10 9 20 1.94
-3 -10 9 19.32 2.28
3 10 -9 20.4 0.72
-3 -10 9 19.66 1.89
-3 -10 8 50.36 3
-3 -10 8 48.61 2.72
-3 -10 8 50.26 2.95
-3 -10 8 52.55 3.05
-3 -10 8 51.36 3.04
-3 -10 8 47.19 2.84
-3 -10 8 48.51 2.83
-3 -10 8 44.18 4.03
3 10 -8 48.56 1.27
-3 -10 7 61.75 3.26
-3 -10 7 59.19 2.86
-3 -10 7 50.39 4.23
-3 -10 7 59.48 3.07
-3 -10 7 56.77 2.98
-3 -10 7 61.68 3.04
-3 -10 7 59.49 3.16
-3 -10 7 60.22 3.16
3 10 -7 60.21 1.42
-3 -10 6 34.89 2.36
-3 -10 6 33.38 2.02
-3 -10 6 32.31 2.23
-3 -10 6 34.64 2.26
-3 -10 6 33.74 2.2
-3 -10 6 31.36 2.16
-3 -10 6 35.43 2.27
3 10 -6 32.05 3.36
-3 -10 6 29.67 3.09
3 10 -6 37.85 0.98
-3 -10 5 23.2 1.81
-3 -10 5 18.54 1.77
-3 -10 5 20.94 1.48
-3 -10 5 20.83 1.64
-3 -10 5 23.63 1.89
-3 -10 5 18.45 2.32
3 10 -5 22.37 0.75
-3 -10 5 20.78 1.64
-3 -10 5 21.49 1.68
-3 -10 4 76.36 5.11
-3 -10 4 82.99 3.71
3 10 -4 88.35 1.97
-3 -10 4 81.81 3.74
-3 -10 4 77.39 4.59
-3 -10 4 85.66 3.51
-3 -10 3 18.52 2.56
3 10 -3 22.66 0.83
3 10 -2 14.78 2.62
-3 -10 2 11.56 2.19
3 10 -2 12.56 0.61
3 10 -1 2.14 1.26
-3 -10 1 0.73 0.64
-3 -10 1 1.32 0.89
3 10 -1 1.51 0.26
-3 -10 0 95.6 4.13
-3 -10 0 83.87 6.39
-3 -10 0 101.65 4.19
-3 -10 0 96.96 4.3
-3 -10 0 88.79 3.99
3 10 0 99.3 6.86
3 10 0 105.19 2.32
-3 -10 -1 79.72 3.82
-3 -10 -1 71.55 6.03
-3 -10 -1 76.91 3.23
-3 -10 -1 79.52 3.11
3 10 1 83.24 6.29
-3 -10 -1 82.32 3.81
3 10 1 89.19 2.06
-3 -10 -1 78.86 16.91
-3 -10 -2 2.77 0.65
3 10 2 3.79 0.35
-3 -10 -2 2.48 1.46
-3 -10 -2 3.78 0.92
3 10 2 4.23 1.56
3 10 3 7.1 1.83
-3 -10 -3 6.75 2
-3 -10 -3 6.56 0.99
3 10 3 8.14 0.54
-3 -10 -3 6.9 1.18
-3 -10 -4 13.2 1.44
3 10 4 13.98 2.72
-3 -10 -4 15.77 2.82
-3 -10 -4 14.25 1.66
3 10 4 17.55 0.82
-3 -10 -5 225.7 19.07
-3 -10 -5 244.13 7.59
-3 -10 -5 230.29 7.06
3 10 5 208.26 4.46
3 10 6 1.38 0.56
-3 -10 -6 2.03 0.93
-3 -10 -6 2.01 1.31
-3 -10 -6 1.19 0.69
-3 -10 -6 2.03 3.5
3 10 6 0.36 1.06
-3 -10 -7 281.41 9.09
-3 -10 -7 296.76 8.64
3 10 7 315.1 8.44
-3 -10 -7 320.17 10.96
-3 -10 -7 280.83 23.06
-3 -10 -8 6.98 1.69
3 10 8 7.41 1.19
-3 -10 -8 6.83 1.37
-3 -10 -8 7.25 4.28
-3 -10 -8 6.16 1.04
-3 -10 -9 71.83 4.04
3 10 9 79.58 3.73
-3 -10 -9 78.15 4.32
-3 -10 -9 73.27 11.55
-3 -10 -9 69.67 3.18
3 10 10 6.11 1.01
-3 -10 -10 5.24 1.07
3 10 11 33.27 2.04
-3 -10 -11 30.82 2.29
3 10 11 25.4 6.62
-3 -10 -11 27.79 6.01
-3 -10 -12 19.59 4.26
-3 -10 -12 24.79 1.78
3 10 12 19.87 5.08
-3 -10 -13 8.83 0.7
-3 -10 -13 11.61 0.93
-3 -10 -13 13.24 0.98
3 10 13 13.21 2.99
-3 -11 16 10.4 0.89
-3 -11 16 9.43 0.91
-3 -11 16 9.06 0.74
-3 -11 15 -0.03 0.34
-3 -11 15 -0.07 0.39
-3 -11 15 0.05 0.41
-3 -11 14 52.1 2.67
-3 -11 14 54.15 2.92
-3 -11 14 52.69 2.8
-3 -11 13 11.71 1.39
-3 -11 13 8.75 1.16
-3 -11 13 10.36 1.42
-3 -11 13 11.06 1.41
-3 -11 12 22.25 1.97
-3 -11 12 20.05 1.98
-3 -11 12 16.64 1.58
-3 -11 12 18.01 1.84
-3 -11 12 21.89 1.93
-3 -11 11 43.5 2.94
-3 -11 11 42.47 2.83
-3 -11 11 37.23 2.31
-3 -11 11 41.27 2.9
-3 -11 11 43.61 2.87
-3 -11 11 40.87 3.76
-3 -11 11 39.63 2.45
-3 -11 10 84.86 4.15
-3 -11 10 86.81 4.25
-3 -11 10 71.86 3.57
-3 -11 10 85.64 4.17
-3 -11 10 79.44 4.11
-3 -11 10 75.99 4.75
-3 -11 10 79.59 4.11
-3 -11 10 79.76 3.42
-3 -11 9 1.56 0.67
-3 -11 9 2.41 0.78
-3 -11 9 1.12 0.64
-3 -11 9 2.3 0.81
-3 -11 9 6.36 2.62
3 11 -9 2.2 0.24
-3 -11 9 2.75 0.86
-3 -11 9 2.15 0.76
-3 -11 9 5.61 6.51
-3 -11 8 1.78 0.77
-3 -11 8 1.94 0.68
-3 -11 8 0.5 0.54
-3 -11 8 1.28 0.68
-3 -11 8 0.39 0.48
3 11 -8 1.44 0.22
-3 -11 8 1.21 1.32
-3 -11 8 2.09 1.01
-3 -11 8 -0.48 4.72
-3 -11 7 190.63 6.34
-3 -11 7 199.07 6.7
-3 -11 7 163.87 8.01
-3 -11 7 203.49 6.7
-3 -11 7 186.1 6.45
-3 -11 7 189.82 6.33
-3 -11 7 193.47 6.33
-3 -11 7 195.88 6.43
-3 -11 7 187.27 5.9
3 11 -7 198.4 3.75
-3 -11 7 185.91 20.6
-3 -11 6 68.93 3.63
-3 -11 6 57.79 2.85
-3 -11 6 62.25 3.42
-3 -11 6 61.63 3.14
-3 -11 6 64.6 3.43
-3 -11 6 60 3.09
-3 -11 6 64.78 3.2
-3 -11 6 64.96 3.33
3 11 -6 67.92 4.97
-3 -11 6 55.76 4.22
-3 -11 6 46.33 11
3 11 -6 68.38 1.62
-3 -11 5 188.88 6.44
-3 -11 5 191.1 18.07
-3 -11 5 170.49 5.25
-3 -11 5 180.68 5.74
-3 -11 5 185.58 5.83
-3 -11 5 188.58 6.08
3 11 -5 183.03 8.99
-3 -11 5 174.27 5.33
-3 -11 5 181.49 6.13
-3 -11 5 177.44 6.31
3 11 -5 202.6 3.68
-3 -11 5 182.57 20.66
-3 -11 5 175.16 5.69
-3 -11 4 -0.66 4
-3 -11 4 0.44 0.48
-3 -11 4 0.5 0.53
3 11 -4 0.69 1.06
-3 -11 4 0.8 0.36
3 11 -4 0.64 0.19
-3 -11 4 1.48 0.56
-3 -11 4 0.88 0.49
-3 -11 4 0.52 0.46
-3 -11 4 0.81 0.63
-3 -11 4 1.17 0.53
-3 -11 4 0.09 3.99
-3 -11 4 1.84 0.67
-3 -11 3 2.81 2.39
-3 -11 3 3.83 0.91
3 11 -3 4.04 0.34
3 11 -3 3.51 1.36
-3 -11 3 3.06 0.8
-3 -11 3 3.29 0.72
-3 -11 3 3.23 0.77
-3 -11 3 1.9 6.39
-3 -11 3 3.53 1.34
-3 -11 3 3.45 0.79
-3 -11 3 2.69 0.86
-3 -11 3 3.5 0.74
-3 -11 2 56.93 3.33
-3 -11 2 48.03 2.66
-3 -11 2 52.45 2.84
-3 -11 2 53.97 2.78
-3 -11 2 55.14 3.18
3 11 -2 61.84 5.38
-3 -11 2 49.35 2.9
-3 -11 2 55.25 2.99
-3 -11 2 44.02 4.35
3 11 -2 57.01 1.51
-3 -11 1 28.49 2.3
-3 -11 1 29.72 3.66
-3 -11 1 31.64 2.06
3 11 -1 34.26 3.99
-3 -11 1 29.44 2.25
-3 -11 1 28.64 2.07
-3 -11 1 32.33 2.83
3 11 -1 32.51 1.07
-3 -11 1 27 12.93
-3 -11 0 55.99 3.36
-3 -11 0 49 4.83
-3 -11 0 48.58 2.75
-3 -11 0 54.34 17.11
-3 -11 0 53.56 2.69
3 11 0 55.78 5.12
-3 -11 0 56.62 3.24
3 11 0 60.68 1.62
3 11 1 15.11 2.68
-3 -11 -1 14.34 1.73
-3 -11 -1 13.27 1.4
-3 -11 -1 14.59 2.69
-3 -11 -1 13.18 1.29
-3 -11 -1 24.53 15.72
3 11 1 17.15 0.77
-3 -11 -1 16.26 1.79
-3 -11 -2 0.73 0.59
3 11 2 0.01 0.95
-3 -11 -2 1.21 0.63
-3 -11 -2 -1.17 1.37
3 11 2 1.24 0.27
-3 -11 -3 2.61 0.85
-3 -11 -3 1.45 0.5
3 11 3 3.06 0.39
-3 -11 -4 207.39 6.07
3 11 4 190.7 4.24
-3 -11 -5 51.54 3.25
-3 -11 -5 48.74 2.84
-3 -11 -6 2.24 0.72
-3 -11 -6 3.11 2.69
-3 -11 -6 1.08 2.9
-3 -11 -6 3.6 0.98
-3 -11 -7 190.31 8.17
-3 -11 -7 171.9 6.4
-3 -11 -7 172.74 17.07
-3 -11 -7 187.43 6.3
-3 -11 -8 39.8 8.03
3 11 8 39.82 2.26
-3 -11 -8 35.51 2.68
-3 -11 -8 39.68 3.31
-3 -11 -8 37.78 2.38
-3 -11 -9 10.22 1.1
3 11 9 11.85 1.16
-3 -11 -9 9.5 1.35
-3 -11 -9 9.24 3.9
-3 -11 -9 12.77 1.67
3 11 10 2.47 0.54
-3 -11 -10 4.06 2.33
-3 -11 -10 2.26 0.71
3 11 11 9.44 3.59
-3 -11 -11 5.52 2.4
-3 -11 -11 5.58 0.83
-3 -11 -12 0.14 0.22
-3 -11 -12 0.03 0.26
-3 -11 -12 0.27 0.33
3 11 12 -1.1 1.52
-3 -12 16 1.23 0.94
-3 -12 16 -0.14 0.26
-3 -12 15 9.65 0.82
-3 -12 15 10.65 1.05
-3 -12 15 11.11 1
-3 -12 14 21.84 1.7
-3 -12 14 18.58 1.3
-3 -12 14 22.57 1.69
-3 -12 13 21.22 1.73
-3 -12 13 20.15 1.79
-3 -12 13 19.09 1.42
-3 -12 13 18.61 1.73
-3 -12 12 1.71 0.76
-3 -12 12 2.39 0.73
-3 -12 12 1.59 0.65
-3 -12 12 1.9 0.8
-3 -12 12 1.83 0.6
-3 -12 11 2.19 0.79
-3 -12 11 2.39 0.81
-3 -12 11 1.55 0.51
-3 -12 11 -5.79 14.24
-3 -12 11 1.55 0.63
-3 -12 11 2.47 0.83
-3 -12 10 92.66 4.26
-3 -12 10 83.06 3.72
-3 -12 10 91.12 4.26
-3 -12 10 80.33 16.61
-3 -12 10 86.84 4.25
-3 -12 10 86.41 4.22
-3 -12 10 85.27 4.83
-3 -12 9 25.06 2.21
-3 -12 9 22.85 2.08
-3 -12 9 24.9 2.2
-3 -12 9 22.54 1.96
-3 -12 9 29.51 14.49
-3 -12 9 22.42 2.07
-3 -12 9 20.01 3.36
-3 -12 9 25.39 2.22
-3 -12 8 18.84 1.89
-3 -12 8 16.68 1.78
-3 -12 8 15.4 1.72
-3 -12 8 15.03 1.69
-3 -12 8 14.94 1.67
-3 -12 8 16.56 2.49
-3 -12 8 15.58 1.71
3 12 -8 15.69 0.62
-3 -12 8 14.23 10.5
-3 -12 7 17.75 6.27
-3 -12 7 17.62 1.88
-3 -12 7 16.61 1.78
-3 -12 7 13.48 1.67
-3 -12 7 15.62 1.65
-3 -12 7 16.26 1.71
-3 -12 7 19.33 2.11
-3 -12 7 15.45 1.72
-3 -12 7 14.9 8.31
-3 -12 6 29.38 7.03
-3 -12 6 34 13.29
-3 -12 6 27.81 2.4
-3 -12 6 27.7 2.3
-3 -12 6 26.91 2.09
-3 -12 6 25.95 2.24
-3 -12 6 25.08 2.02
-3 -12 6 27.71 2.05
3 12 -6 27.93 0.92
-3 -12 6 28.37 2.34
-3 -12 5 56.95 9.9
-3 -12 5 49.73 3.25
-3 -12 5 53.24 3.31
3 12 -5 55.05 1.49
-3 -12 5 52.45 3.18
-3 -12 5 47.98 2.66
-3 -12 5 50.2 2.81
-3 -12 5 46.35 12.59
-3 -12 5 51.31 2.77
-3 -12 5 53.26 3.12
3 12 -5 64.38 1.54
-3 -12 4 1.62 0.58
-3 -12 4 0.78 0.63
-3 -12 4 2.53 1.06
-3 -12 4 1.65 0.66
-3 -12 4 1.66 0.62
-3 -12 4 1 0.64
-3 -12 4 1.33 0.54
3 12 -4 2.74 0.31
-3 -12 4 3.54 2.29
-3 -12 4 -1.76 11.4
-3 -12 3 3.13 0.92
-3 -12 3 3.18 1.25
-3 -12 3 3.77 1.05
-3 -12 3 2.95 0.8
-3 -12 3 4.17 0.94
-3 -12 3 2.87 0.72
3 12 -3 4.35 0.39
-3 -12 2 2.14 0.8
-3 -12 2 -3.39 17.06
-3 -12 2 1.72 0.74
-3 -12 2 2.02 0.89
-3 -12 2 0.95 1.9
-3 -12 2 1.12 0.52
3 12 -2 2.72 0.35
-3 -12 1 0.68 0.63
-3 -12 1 0.96 0.59
-3 -12 1 0.59 0.58
-3 -12 1 0.11 0.47
3 12 -1 0.79 0.24
-3 -12 0 70.5 4.01
-3 -12 0 70.14 3.15
-3 -12 0 67.49 3.45
-3 -12 0 69.2 3.92
-3 -12 -1 35.34 2.78
-3 -12 -1 33.45 2.32
-3 -12 -1 35.38 2.12
-3 -12 -1 34.88 2.75
-3 -12 -2 33.72 2.74
-3 -12 -2 31.81 2.23
-3 -12 -2 35.03 2.8
3 12 2 40.65 1.44
-3 -12 -3 12.7 1.33
-3 -12 -3 13.66 1.78
3 12 3 8.69 0.79
-3 -12 -3 13.85 1.76
-3 -12 -4 29.21 2.58
-3 -12 -4 27.35 1.89
-3 -12 -4 34.6 2.75
-3 -12 -5 67.64 5.9
-3 -12 -5 62.76 3.56
-3 -12 -5 54.54 3.48
-3 -12 -6 -0.01 2.54
-3 -12 -6 -0.52 2.29
-3 -12 -6 0.31 0.42
-3 -12 -6 0.6 0.53
-3 -12 -7 2.99 0.8
-3 -12 -7 2.35 1.49
-3 -12 -7 0.5 1.77
-3 -12 -7 2.31 0.73
-3 -12 -8 5.33 0.98
-3 -12 -8 7.6 3.58
3 12 8 5.62 3.9
-3 -12 -8 5.66 0.99
-3 -12 -8 4.99 1.27
-3 -12 -8 5.84 0.91
-3 -12 -9 12.14 1.34
3 12 9 11.38 4.27
-3 -12 -9 12.42 0.99
-3 -12 -9 11.65 3.47
-3 -12 -9 13.59 1.34
-3 -12 -10 7.14 1.04
3 12 10 5.13 2.78
-3 -12 -10 6.39 2.01
-3 -12 -10 6.26 0.8
-3 -12 -10 6.1 0.8
-3 -12 -11 1.33 0.32
-3 -12 -11 1.97 0.45
3 12 11 0.65 1.01
-3 -13 15 33.48 1.55
-3 -13 15 33.74 1.48
-3 -13 14 0.42 1.35
-3 -13 14 0.68 0.43
-3 -13 14 0.05 0.31
-3 -13 13 -1.22 2.18
-3 -13 13 -0.03 0.33
-3 -13 13 -0.35 0.39
-3 -13 13 0.11 0.39
-3 -13 12 9.93 1.16
-3 -13 12 9.37 1.21
-3 -13 12 10.12 1.3
-3 -13 12 10.7 1.24
-3 -13 11 12.75 1.4
-3 -13 11 12.32 1.44
-3 -13 11 10.94 1.44
-3 -13 11 11.75 1.38
-3 -13 10 4.9 0.96
-3 -13 10 3.35 2.76
-3 -13 10 4.12 0.85
-3 -13 10 5.57 1.09
-3 -13 10 3.95 0.89
-3 -13 10 9.37 3.54
-3 -13 10 4.62 0.98
-3 -13 9 0.97 0.53
-3 -13 9 3.21 3.28
-3 -13 9 1.93 0.84
-3 -13 9 1.14 0.66
-3 -13 9 1.13 0.62
-3 -13 9 1.12 0.52
-3 -13 9 -2.48 3.37
-3 -13 9 1.43 0.65
-3 -13 9 8.74 16.68
-3 -13 8 20.39 1.95
-3 -13 8 17.45 1.71
-3 -13 8 19.99 1.96
-3 -13 8 18.58 1.89
-3 -13 8 20.22 1.91
-3 -13 8 13.77 3.22
-3 -13 8 17.84 18.1
-3 -13 8 19.43 5.9
-3 -13 8 16.91 1.8
-3 -13 7 41.48 2.88
-3 -13 7 36.09 20.41
-3 -13 7 38.57 2.74
-3 -13 7 33.08 7.55
-3 -13 7 40.05 2.52
-3 -13 7 36.85 2.54
-3 -13 7 41.35 3.33
-3 -13 7 38.35 2.79
-3 -13 7 36.08 2.52
-3 -13 6 0.84 0.7
-3 -13 6 0.1 0.9
-3 -13 6 -0.13 0.51
-3 -13 6 0.77 0.55
-3 -13 6 0.27 0.41
-3 -13 6 0.02 1.31
-3 -13 6 0.04 0.39
3 13 -6 0.36 0.15
-3 -13 6 2.43 2.85
-3 -13 5 34.09 2.61
-3 -13 5 28.2 2.33
-3 -13 5 30.15 2.4
-3 -13 5 26.04 1.87
-3 -13 5 32.46 2.25
-3 -13 5 37.42 19.06
-3 -13 5 32.21 2.82
3 13 -5 29.93 0.99
-3 -13 4 64.75 3.66
-3 -13 4 56.7 3.26
-3 -13 4 59.1 3.4
-3 -13 4 49.59 3.78
-3 -13 4 56.62 2.91
-3 -13 4 54.21 3.03
3 13 -4 57.11 1.55
3 13 -4 69.62 1.81
-3 -13 4 53.37 23.91
-3 -13 3 63.08 24.65
-3 -13 3 71.2 4.67
-3 -13 3 72.28 3.82
-3 -13 3 76.25 4.05
-3 -13 3 71.3 3.21
-3 -13 3 71.7 3.66
-3 -13 3 73.9 3.79
3 13 -3 83.12 2.04
-3 -13 2 20.23 19.26
-3 -13 2 13.7 1.63
-3 -13 2 13.98 1.51
-3 -13 2 15.58 1.69
3 13 -2 16.82 0.79
-3 -13 2 16.03 1.84
-3 -13 1 256.41 31.39
-3 -13 1 310.56 9.35
-3 -13 1 325.7 8.85
-3 -13 1 323.89 9.86
3 13 -1 397.31 7.06
-3 -13 1 347.51 10.15
-3 -13 0 32.25 2.35
-3 -13 0 32.05 2.03
-3 -13 0 33.82 2.69
-3 -13 0 31.46 2.64
3 13 0 32.02 1.24
-3 -13 -1 192.73 6.08
-3 -13 -1 188.29 5.17
-3 -13 -1 200.46 6.97
-3 -13 -1 205.32 7.04
-3 -13 -2 18.26 2
-3 -13 -2 15.37 1.7
-3 -13 -2 18.15 2
-3 -13 -2 15.64 1.55
-3 -13 -3 118.02 5.21
-3 -13 -3 114.15 4.24
-3 -13 -3 123.38 5.29
-3 -13 -3 133.68 7.9
3 13 4 110.6 13.32
-3 -13 -4 101.35 4.72
-3 -13 -4 116.86 7.48
-3 -13 -4 106.64 4.72
-3 -13 -4 99.23 3.66
3 13 5 10.68 4.62
-3 -13 -5 17.63 3.67
-3 -13 -5 14.09 1.7
-3 -13 -5 13.87 1.6
3 13 6 40.98 8.37
-3 -13 -6 47.64 2.79
-3 -13 -6 51.87 4.11
-3 -13 -6 45.43 2.89
-3 -13 -7 12.48 1.4
-3 -13 -7 11.7 1.25
3 13 7 12.44 4.34
-3 -13 -7 11.18 1.09
-3 -13 -7 15.9 2.04
-3 -13 -8 12.28 1.24
-3 -13 -8 14.25 1.12
-3 -13 -8 13.88 1.52
-3 -13 -8 12.99 1.09
3 13 9 55.17 7.29
-3 -13 -9 51.64 2.24
-3 -13 -9 58.69 2.72
-3 -13 -9 46.94 1.83
-3 -13 -10 9.44 0.69
-3 -13 -10 11.7 0.93
-3 -14 14 15.55 1.01
-3 -14 14 15.51 1.03
-3 -14 13 0.13 0.41
-3 -14 13 -0.25 0.34
-3 -14 13 -0.33 0.29
-3 -14 12 27.46 1.75
-3 -14 12 24.41 1.72
-3 -14 12 27.39 1.75
-3 -14 12 24.84 1.78
-3 -14 11 9.86 1.17
-3 -14 11 7.45 3.12
-3 -14 11 9.43 1.17
-3 -14 11 9.32 1.17
-3 -14 11 11.43 1.21
-3 -14 10 8.16 3.09
-3 -14 10 8.4 1.16
-3 -14 10 9.99 1.24
-3 -14 10 9.71 1.21
-3 -14 10 8.55 1.13
-3 -14 9 102.47 11.52
-3 -14 9 101.23 4.06
-3 -14 9 101.74 4.22
-3 -14 9 107.78 4.44
-3 -14 9 95.68 3.93
-3 -14 9 93.67 5.12
-3 -14 9 101.24 4.26
-3 -14 9 111.67 4.48
-3 -14 9 107.62 20.28
-3 -14 8 38.23 7.15
-3 -14 8 45.29 2.8
-3 -14 8 40.7 2.58
-3 -14 8 40.49 2.73
-3 -14 8 38.92 2.31
-3 -14 8 40.47 3.07
-3 -14 8 41.09 4.37
-3 -14 8 41.56 2.59
-3 -14 7 69.12 3.57
-3 -14 7 58.91 3.04
-3 -14 7 63.89 3.47
-3 -14 7 62.07 3.86
-3 -14 7 57.43 2.71
-3 -14 7 61.62 3.2
-3 -14 7 61.02 4.46
-3 -14 7 50.51 24.98
-3 -14 6 45.75 2.94
-3 -14 6 40.29 2.73
-3 -14 6 43.51 3.63
-3 -14 6 40.06 2.5
-3 -14 6 38.72 3.41
-3 -14 6 33.4 22.26
-3 -14 6 38.03 2.3
-3 -14 5 1.52 0.63
-3 -14 5 2.3 0.74
-3 -14 5 2.43 1.77
-3 -14 5 1.16 0.72
-3 -14 5 -3.85 18.92
-3 -14 4 84.15 4.14
-3 -14 4 78.18 3.91
-3 -14 4 77.06 3.34
-3 -14 4 77.78 3.85
-3 -14 4 76.45 3.67
-3 -14 3 13.97 1.63
-3 -14 3 14.35 1.63
-3 -14 3 14.83 1.34
-3 -14 3 13.84 1.85
-3 -14 3 16.15 1.78
-3 -14 3 5.07 17.57
-3 -14 2 68.33 3.58
-3 -14 2 60.32 3.22
-3 -14 2 68.4 3.7
-3 -14 2 69.83 3.8
-3 -14 1 63.37 3.4
-3 -14 1 59.85 3.01
-3 -14 1 66.17 3.76
-3 -14 1 68.79 3.81
-3 -14 0 1.7 0.88
-3 -14 0 -0.11 0.52
-3 -14 0 0 0.4
-3 -14 0 1.37 0.66
-3 -14 -1 0.37 0.52
-3 -14 -1 0.28 0.35
-3 -14 -1 1.42 0.72
-3 -14 -2 1.2 0.53
-3 -14 -2 0.11 0.54
-3 -14 -3 2.98 0.86
-3 -14 -3 3.1 0.81
-3 -14 -3 2.73 0.64
-3 -14 -3 2.61 3.57
-3 -14 -3 2.33 0.82
-3 -14 -4 1.64 2.46
-3 -14 -4 0.35 0.5
-3 -14 -4 0.73 0.56
-3 -14 -4 1.31 0.42
-3 -14 -4 1.8 0.68
-3 -14 -5 14.23 2.32
-3 -14 -5 12.45 1.47
3 14 5 16.32 4.16
-3 -14 -5 12.57 1.39
-3 -14 -5 11.5 1.36
-3 -14 -6 0.77 0.55
-3 -14 -6 0.54 0.85
3 14 6 1.29 1.63
-3 -14 -6 0.15 0.39
-3 -14 -6 1.16 0.51
-3 -14 -7 0.33 0.32
-3 -14 -7 0.33 0.35
3 14 7 -1.12 1.66
-3 -14 -7 0.18 0.3
3 14 8 1.71 1.25
-3 -14 -8 1.7 0.4
-3 -14 -8 1.21 0.4
-3 -15 13 10.05 0.77
-3 -15 12 27.19 1.38
-3 -15 12 32.06 1.62
-3 -15 12 30.61 1.64
-3 -15 11 11.87 1.1
-3 -15 11 11.52 1.08
-3 -15 11 9.35 0.87
-3 -15 11 9.17 0.99
-3 -15 10 14.25 1.31
-3 -15 10 12.43 1.08
-3 -15 10 15.7 1.35
-3 -15 10 13.58 1.28
-3 -15 9 18.81 1.59
-3 -15 9 16.7 1.51
-3 -15 9 15.5 1.18
-3 -15 9 15.57 1.39
-3 -15 8 0.53 0.44
-3 -15 8 0.19 0.48
-3 -15 8 0.47 0.49
-3 -15 8 0.5 0.47
-3 -15 7 31.25 2.21
-3 -15 7 30.7 2.18
-3 -15 7 26.36 1.85
-3 -15 7 29.04 3.65
-3 -15 7 27.86 1.78
-3 -15 6 17.45 1.72
-3 -15 6 15.82 1.6
-3 -15 6 15.75 3.5
-3 -15 6 15.73 1.41
-3 -15 5 0.44 0.53
-3 -15 5 0.49 0.57
-3 -15 5 0.92 0.42
-3 -15 5 -1.37 2.82
-3 -15 4 31.13 2.37
-3 -15 4 28.12 3.02
-3 -15 4 27.75 2.16
-3 -15 4 26.45 1.69
-3 -15 4 25.34 1.95
-3 -15 3 0.75 0.5
-3 -15 3 3.93 2.15
-3 -15 3 -0.89 3.16
-3 -15 3 1.3 0.64
-3 -15 3 0.92 0.58
-3 -15 2 20.54 2.25
-3 -15 2 17.25 1.76
-3 -15 2 19.16 1.73
-3 -15 2 18.49 1.82
-3 -15 2 18.81 3.93
-3 -15 1 6.25 1.17
-3 -15 1 6.77 1.05
-3 -15 1 6.55 1.72
-3 -15 1 8.77 3.7
-3 -15 1 5.81 1.09
-3 -15 0 4.93 3.87
-3 -15 0 1.57 0.57
-3 -15 0 2.21 0.78
-3 -15 0 1.69 0.67
-3 -15 -1 24.4 1.76
-3 -15 -1 27.54 2.16
-3 -15 -1 27.27 2.22
-3 -15 -1 28.11 4.32
-3 -15 -2 5.59 1.04
-3 -15 -2 4.04 0.7
-3 -15 -2 6.04 2.59
-3 -15 -2 4.66 0.95
-3 -15 -3 1.12 0.61
-3 -15 -3 1.22 1.69
-3 -15 -3 1.11 0.42
-3 -15 -3 1.64 0.62
-3 -15 -4 0.88 0.97
-3 -15 -4 1.18 0.48
-3 -15 -4 1.36 0.49
-3 -15 -4 0.85 0.55
-3 -15 -5 5.58 1.15
-3 -15 -5 5.74 0.82
-3 -15 -5 4.58 0.71
-3 -15 -5 6.18 0.87
-3 -15 -6 9.16 0.89
-3 -15 -6 6.97 0.72
-3 -15 -6 9.05 0.85
-3 -15 -7 38.51 1.5
-3 -16 11 0.54 0.26
-3 -16 11 0.7 0.22
-3 -16 10 13.33 1.05
-3 -16 10 11.85 0.91
-3 -16 9 37.25 1.95
-3 -16 9 37.73 1.94
-3 -16 8 1.06 0.46
-3 -16 8 1.39 0.49
-3 -16 8 0.43 0.29
-3 -16 7 4.68 0.79
-3 -16 7 4.13 0.74
-3 -16 6 146.41 4.8
-3 -16 6 145.81 4.76
-3 -16 6 133.65 3.93
-3 -16 6 135.8 4.95
-3 -16 5 0.93 0.53
-3 -16 5 1.63 0.57
-3 -16 5 0.36 0.28
-3 -16 4 47.94 2.62
-3 -16 4 46.26 2.52
-3 -16 4 42.32 2.23
-3 -16 4 45.83 3.05
-3 -16 3 16.94 1.57
-3 -16 3 15.89 1.43
-3 -16 3 14.82 2.36
-3 -16 3 18.8 2.25
-3 -16 3 15.44 1.43
-3 -16 2 14.38 2.27
-3 -16 2 14.61 1.35
-3 -16 2 11.71 1.9
-3 -16 2 13.41 1.4
-3 -16 2 15.92 1.53
-3 -16 1 11.9 1.2
-3 -16 1 11.95 2.32
-3 -16 1 12.94 1.41
-3 -16 1 12.17 1.32
-3 -16 0 17.28 1.55
-3 -16 0 16.9 1.58
-3 -16 0 15.38 2.29
-3 -16 0 15.48 1.24
-3 -16 -1 0.88 0.47
-3 -16 -1 0.02 0.26
-3 -16 -1 0.7 1.24
-3 -16 -1 1.35 0.54
-3 -16 -2 1.57 0.52
-3 -16 -2 1.44 0.34
-3 -16 -2 2.11 0.6
-3 -16 -2 1.5 0.85
-3 -16 -3 1.22 0.45
-3 -16 -3 0.6 0.64
-3 -16 -3 0.93 0.47
-3 -16 -4 3.11 0.51
-3 -16 -4 2.61 0.81
-3 -16 -4 2.22 0.49
-3 -16 -5 5.1 0.54
-3 -16 -5 3.47 0.47
-3 -17 9 34.23 1.43
-3 -17 9 33.05 1.4
-3 -17 8 4.22 0.58
-3 -17 8 4.58 0.58
-3 -17 7 6.97 0.78
-3 -17 7 6.18 0.71
-3 -17 6 14.68 1.15
-3 -17 6 15.45 1.15
-3 -17 5 4.89 0.72
-3 -17 5 4.58 0.7
-3 -17 4 15.47 1.26
-3 -17 4 15.86 1.19
-3 -17 3 94.04 3.32
-3 -17 3 90.67 3.07
-3 -17 3 93.83 3.11
-3 -17 2 10.62 1.02
-3 -17 2 10.37 0.89
-3 -17 2 9.81 1
-3 -17 2 10.74 1.04
-3 -17 1 -0.53 0.46
-3 -17 1 0.47 0.35
-3 -17 1 -0.09 0.33
-3 -17 1 0.32 0.28
-3 -17 0 4.6 0.65
-3 -17 0 4.38 0.69
-3 -17 0 3.81 0.46
-3 -17 0 4.61 0.82
-3 -17 -1 8.34 1.05
-3 -17 -1 9.08 0.84
-3 -17 -1 9.05 0.92
-3 -17 -2 0.19 0.25
-3 -17 -2 0.03 0.23
-3 -18 5 17.91 0.91
-3 -18 4 -0.11 0.19
-3 -18 3 1.24 0.28
-3 -18 2 12.94 0.76
4 -18 -1 0.51 0.29
4 -18 0 0.67 0.35
4 -18 1 0.39 0.37
4 -18 1 0.16 0.16
4 -18 2 20.33 1.5
4 -18 2 22.01 1.27
4 -18 3 0.3 0.24
4 -18 3 0.05 0.33
4 -18 4 6.77 0.87
4 -18 4 8.62 0.76
4 -18 5 2.83 0.43
4 -18 5 3.25 0.62
4 -18 6 59.73 1.88
4 -17 -4 4.07 0.71
4 -17 -4 3.69 0.46
4 -17 -3 -0.28 0.3
4 -17 -3 -0.25 0.42
4 -17 -3 0.24 0.26
4 -17 -2 1.34 0.53
4 -17 -2 0.91 0.49
4 -17 -2 1.38 0.39
4 -17 -1 -0.48 0.45
4 -17 -1 -0.42 0.3
4 -17 0 170.99 4.67
4 -17 0 185.82 5.85
4 -17 0 175.73 5.94
4 -17 1 0.17 0.44
4 -17 1 -0.62 0.36
4 -17 1 -0.11 0.52
4 -17 2 1.72 0.66
4 -17 2 1.76 0.42
4 -17 2 0.9 0.51
4 -17 3 0.11 0.23
4 -17 3 -0.24 0.5
4 -17 4 0.53 0.52
4 -17 4 0.5 0.25
4 -17 5 8.49 1.19
4 -17 5 10.99 1.08
4 -17 6 4.8 0.56
4 -17 6 4.27 0.67
4 -17 6 4.55 0.86
4 -17 7 53.16 1.91
4 -17 7 56.07 2.18
4 -17 8 0.5 0.23
4 -17 8 0.87 0.29
4 -17 9 1.97 0.35
4 -16 -6 -0.21 0.35
4 -16 -6 -0.18 0.21
4 -16 -5 0 0.46
4 -16 -5 0.17 0.25
4 -16 -4 12.83 1.11
4 -16 -4 11.25 1.46
4 -16 -4 9.73 1.06
4 -16 -3 0.03 0.32
4 -16 -3 1.01 0.71
4 -16 -3 0.24 0.41
4 -16 -2 5.52 1.18
4 -16 -2 3.85 0.76
4 -16 -2 4.96 0.96
4 -16 -1 10.9 1.47
4 -16 -1 9.58 1.14
4 -16 -1 9.31 1.56
4 -16 0 8.6 1.05
4 -16 0 10.74 1.66
4 -16 0 10.93 1.5
4 -16 1 2.91 0.94
4 -16 1 1.99 0.56
4 -16 1 2.86 0.91
4 -16 2 1.98 0.54
4 -16 2 1.4 0.84
4 -16 2 1.78 0.86
4 -16 3 4.08 1.1
4 -16 3 3.09 0.83
4 -16 3 2.82 0.62
4 -16 4 2.17 0.46
4 -16 4 2.2 0.48
4 -16 4 2.19 0.92
4 -16 4 2.33 0.56
4 -16 5 53.56 2.28
4 -16 5 50.31 3.3
4 -16 5 51.66 2.11
4 -16 5 54.41 2.36
4 -16 6 13.07 1.16
4 -16 6 11.73 1.03
4 -16 6 9.04 1.38
4 -16 6 12.07 1.25
4 -16 7 0.55 0.36
4 -16 7 0.3 0.35
4 -16 7 0.1 0.31
4 -16 7 0.15 0.44
4 -16 8 6.09 0.9
4 -16 8 7.21 0.85
4 -16 8 6.28 0.75
4 -16 8 5.84 0.76
4 -16 9 10.17 0.96
4 -16 9 8.98 0.82
4 -16 10 2.86 0.49
4 -16 11 -0.14 0.21
4 -15 -8 2.43 0.43
-4 15 8 2.61 1.07
4 -15 -7 6.31 0.76
4 -15 -7 5.68 0.77
4 -15 -7 7.67 1.12
-4 15 7 6.89 2.78
4 -15 -6 0.47 0.4
4 -15 -6 0.43 0.56
-4 15 6 -1.08 1.64
4 -15 -6 0.02 0.3
4 -15 -5 0.46 0.62
4 -15 -5 0.68 0.47
4 -15 -5 -0.53 0.4
4 -15 -5 1.03 0.45
4 -15 -4 0.29 0.37
4 -15 -4 0.77 0.69
4 -15 -4 0.44 0.42
-4 15 4 -1.37 2.27
4 -15 -4 0.95 0.5
4 -15 -3 -0.5 0.63
4 -15 -3 0.14 0.48
4 -15 -3 -0.07 0.48
4 -15 -3 0.74 0.49
4 -15 -2 22.17 1.94
4 -15 -2 23.71 2.57
4 -15 -2 24.24 2.16
4 -15 -1 9.04 1.25
4 -15 -1 9.45 1.71
4 -15 -1 12.09 1.62
4 -15 0 23.22 1.94
4 -15 0 24.38 2.7
4 -15 0 24.02 2.4
4 -15 1 1.48 0.85
4 -15 1 1.43 0.59
4 -15 1 1.42 0.81
4 -15 2 0.32 0.38
4 -15 2 0.05 0.69
4 -15 2 -0.9 0.81
4 -15 2 -0.36 0.38
-4 15 -2 -0.14 0.19
4 -15 3 2.5 0.57
4 -15 3 2.66 1.02
4 -15 3 3.36 0.73
4 -15 3 2.84 0.59
4 -15 3 2.64 1.01
-4 15 -3 3.2 0.34
4 -15 4 3.86 0.68
-4 15 -4 5.03 0.39
4 -15 4 4.28 1.1
4 -15 4 4.42 0.76
4 -15 4 5.28 1.22
4 -15 4 5.09 0.82
4 -15 5 0.39 0.33
4 -15 5 -0.28 0.43
4 -15 5 -0.24 0.29
4 -15 5 0.12 0.66
-4 15 -5 0.13 0.15
4 -15 6 -0.38 0.41
4 -15 6 -0.24 0.37
-4 15 -6 0.03 0.15
4 -15 6 0.05 0.6
4 -15 7 1.44 0.73
4 -15 7 1.39 0.54
4 -15 7 0.89 0.48
4 -15 7 0.82 0.5
4 -15 8 2.86 0.62
4 -15 8 1.73 0.55
4 -15 8 2.36 0.63
4 -15 8 1.78 0.58
4 -15 9 0.88 0.47
4 -15 9 0.71 0.48
4 -15 9 0.49 0.3
4 -15 9 -0.13 0.34
4 -15 9 0.25 0.48
4 -15 10 16.61 1.37
4 -15 10 15.31 1.01
4 -15 10 16.06 1.12
4 -15 11 19.52 1.37
4 -15 12 11.98 0.92
4 -14 -9 17.16 1.19
-4 14 9 22.66 4.7
4 -14 -9 22.87 1.6
4 -14 -9 19.96 1.37
4 -14 -8 1.73 0.58
4 -14 -8 2.28 0.74
-4 14 8 1.44 1.39
4 -14 -7 30.16 2.18
4 -14 -7 35.84 2.71
-4 14 7 31.54 7.21
-4 14 6 50.04 9.42
4 -14 -6 62.62 3.88
4 -14 -6 51.69 3.04
4 -14 -5 2.47 0.95
4 -14 -5 2.35 0.8
4 -14 -5 1.62 0.59
-4 14 5 2.39 3.5
-4 14 4 5.16 3.28
4 -14 -4 7.03 1.54
4 -14 -4 5.83 1.04
4 -14 -4 4.6 1.03
4 -14 -3 4.46 1.05
-4 14 3 1.51 2.02
4 -14 -3 2.31 0.99
4 -14 -3 3.27 0.83
4 -14 -2 16.12 2.05
4 -14 -2 15.7 2.27
4 -14 -2 15.05 1.57
4 -14 -2 12.02 1.58
4 -14 -1 2.15 1.25
4 -14 -1 0.93 0.58
4 -14 -1 1.27 0.73
4 -14 0 -0.17 0.76
4 -14 0 0.08 0.53
4 -14 0 0.02 0.57
4 -14 1 4.56 0.8
4 -14 1 5.45 1.38
4 -14 1 5.12 0.97
4 -14 1 3.31 1.07
4 -14 2 1.59 0.97
4 -14 2 -0.42 0.46
4 -14 2 0.66 0.42
4 -14 2 -0.06 0.65
4 -14 3 78.34 3.31
4 -14 3 77.82 3.31
4 -14 3 77.51 4.8
-4 14 -3 79.57 2.01
4 -14 3 69.66 3.33
4 -14 3 73.84 4.51
4 -14 4 11.25 1.26
4 -14 4 12.2 1.32
4 -14 4 10.19 1.2
4 -14 4 11.94 1.89
4 -14 4 11.99 1.82
-4 14 -4 12.7 0.66
4 -14 5 133.44 4.84
4 -14 5 124.62 4.6
-4 14 -5 128.92 2.81
4 -14 5 125.86 4.2
4 -14 5 116.9 5.72
4 -14 5 130.72 6.11
4 -14 6 16.03 1.63
4 -14 6 14.29 1.92
4 -14 6 16.01 1.56
-4 14 -6 14.47 0.65
4 -14 7 5.92 1.04
4 -14 7 5.48 1.29
4 -14 7 6.07 0.96
4 -14 7 4.74 0.9
-4 14 -7 5.64 0.39
4 -14 8 36.38 2.32
4 -14 8 34.64 2.25
-4 14 -8 34.35 0.99
4 -14 8 31.96 2.67
4 -14 8 39.39 2.48
4 -14 9 5.81 0.99
4 -14 9 6.93 1
4 -14 9 5.46 0.85
4 -14 9 5.13 1.02
4 -14 10 30.7 2.03
4 -14 10 25.8 1.81
4 -14 10 26.16 1.66
4 -14 10 29.44 1.8
4 -14 11 69.49 3.02
4 -14 11 68.79 2.69
4 -14 12 77.89 2.94
4 -14 12 74.98 2.56
4 -14 13 0.98 0.32
4 -14 13 1.56 0.31
4 -13 -11 6.82 0.59
-4 13 11 8.68 2.52
4 -13 -11 10.16 0.85
-4 13 10 5.7 3.05
4 -13 -10 3.87 0.67
4 -13 -10 3.29 0.67
4 -13 -9 13.76 1.49
-4 13 9 14.22 1.23
4 -13 -9 12.87 4.15
-4 13 9 15.59 4.94
4 -13 -9 14.53 1.54
-4 13 8 4.43 0.87
4 -13 -8 3.95 1.06
-4 13 8 2.63 2.11
4 -13 -8 3.8 0.96
4 -13 -8 4.44 3.35
4 -13 -7 0.4 0.63
-4 13 7 0.33 0.62
4 -13 -7 -0.58 1.6
-4 13 7 -1.78 2.69
4 -13 -7 0.2 0.53
-4 13 6 19.5 6.68
-4 13 6 18.54 1.72
4 -13 -6 13.58 5.28
4 -13 -6 17.58 1.97
4 -13 -6 19.2 2.37
4 -13 -5 3.98 1.28
4 -13 -5 4.17 1.07
-4 13 5 3.31 2.71
4 -13 -5 4.3 3.46
4 -13 -5 3.12 0.7
4 -13 -4 3.62 0.88
4 -13 -4 5.3 1.13
4 -13 -4 4.23 1.34
4 -13 -4 3.26 3.36
-4 13 4 3.67 3.19
4 -13 -3 37.32 3.46
4 -13 -3 39.61 2.84
-4 13 3 45.05 9.64
4 -13 -3 32.57 2.65
4 -13 -2 25.93 2.37
-4 13 2 17.12 5.54
4 -13 -2 23.82 2.76
4 -13 -2 18.75 1.93
4 -13 -1 47.71 3.32
4 -13 -1 51.39 3.97
4 -13 -1 46.13 2.87
4 -13 0 13.19 1.53
4 -13 0 14.73 1.28
4 -13 0 13.97 1.8
4 -13 0 15.29 2.17
4 -13 1 8.32 1.02
4 -13 1 8.62 1.75
4 -13 1 6.33 1.08
4 -13 1 8.65 1.51
4 -13 2 4.58 0.8
4 -13 2 5.2 0.84
4 -13 2 3.69 1.04
4 -13 2 5.71 1.33
4 -13 2 3.52 0.83
4 -13 3 77.62 3.41
4 -13 3 83.49 3.57
4 -13 3 77.23 3.42
4 -13 3 75.56 4.8
4 -13 3 77.1 4.55
4 -13 4 82.85 3.71
4 -13 4 79.63 3.54
4 -13 4 79.5 4.86
4 -13 4 79.91 3.35
4 -13 4 71.11 4.42
-4 13 -4 82.42 2.1
4 -13 5 11.22 1.35
4 -13 5 10.88 1.3
4 -13 5 8.69 1.6
4 -13 5 10.55 1.68
-4 13 -5 10.96 0.62
4 -13 6 1.65 0.71
4 -13 6 0.19 0.58
4 -13 6 1.28 0.55
-4 13 -6 1.26 0.25
4 -13 7 2.23 0.7
4 -13 7 1.84 0.85
4 -13 7 2.24 0.67
-4 13 -7 2.38 0.3
4 -13 8 0.25 0.7
4 -13 8 -0.29 0.51
4 -13 8 0.04 0.56
4 -13 8 -0.51 0.49
-4 13 -8 0.18 0.18
4 -13 9 5.78 0.99
4 -13 9 6.15 0.99
4 -13 9 3.73 0.92
-4 13 -9 6.77 0.4
4 -13 9 5.58 0.9
4 -13 10 20.99 1.76
4 -13 10 21.82 1.88
4 -13 10 20.6 1.56
4 -13 11 0.66 0.45
4 -13 11 0.41 0.46
4 -13 12 8.42 0.99
4 -13 12 6.79 0.9
4 -13 13 10.28 0.96
4 -13 13 10.98 1.01
4 -13 14 1.36 0.33
4 -13 14 1.4 0.31
-4 12 12 62.34 6.76
4 -12 -12 68.98 2.47
-4 12 11 14.73 4.38
-4 12 11 11.01 1.02
4 -12 -11 11.07 1.03
4 -12 -11 10.25 2.85
4 -12 -11 11.54 1.23
4 -12 -10 23.47 1.98
4 -12 -10 23.69 1.92
-4 12 10 20.81 1.7
4 -12 -10 19.42 5.09
-4 12 10 19.79 6.01
4 -12 -9 -0.27 2.15
4 -12 -9 0.24 0.56
-4 12 9 -0.51 0.61
4 -12 -9 0.53 0.63
4 -12 -8 2.4 0.83
4 -12 -8 5.14 2.7
-4 12 8 3.77 1.08
4 -12 -8 2.66 0.9
-4 12 8 2.28 2.91
4 -12 -7 1.85 0.87
4 -12 -7 4.44 3.41
-4 12 7 4.78 3.44
-4 12 7 1.93 0.82
4 -12 -7 1.28 0.82
-4 12 6 1.38 4.74
4 -12 -6 1.97 1.12
4 -12 -6 1.31 2.69
4 -12 -6 1.48 0.87
-4 12 6 0.82 0.67
4 -12 -5 1.1 0.92
-4 12 5 0.36 0.69
-4 12 5 -2.29 4.03
4 -12 -5 -1.22 2.55
4 -12 -5 1.03 0.88
4 -12 -5 2.57 0.79
4 -12 -4 4.36 1.06
4 -12 -4 1.43 3.35
4 -12 -4 0.44 1.14
4 -12 -4 2.11 1.32
-4 12 4 2.03 1.09
-4 12 4 1.72 4.17
-4 12 3 30.93 2.45
-4 12 3 24.29 7.47
4 -12 -3 30.95 2.46
4 -12 -3 37.21 8.84
4 -12 -3 24.69 2.38
4 -12 -3 31.29 3.12
4 -12 -2 109.09 4.89
4 -12 -2 91.25 4.47
4 -12 -2 98.24 14.41
4 -12 -2 117.33 6.05
-4 12 2 108.26 14.29
4 -12 -1 2.14 0.88
4 -12 -1 1.84 0.58
4 -12 -1 0.72 0.86
4 -12 -1 2.26 1.38
-4 12 1 0.99 2.95
4 -12 0 55.99 2.61
4 -12 0 59.76 4.25
4 -12 0 57.55 4.74
4 -12 0 53.4 3.49
4 -12 1 53.16 3.97
4 -12 1 47.6 2.69
4 -12 1 51.66 2.55
4 -12 1 51.08 3.42
4 -12 1 58.64 4.66
4 -12 2 145.69 7.47
4 -12 2 133.42 4.7
4 -12 2 131.74 6.35
4 -12 2 134.88 5.9
4 -12 2 138.71 4.61
4 -12 3 239.02 8.88
4 -12 3 240.41 6.73
4 -12 3 245.31 8.47
4 -12 3 256.46 6.96
4 -12 3 234.52 9.8
4 -12 4 452.47 12.69
-4 12 -4 466.92 8.45
4 -12 4 448.11 13.09
4 -12 4 444.38 10.26
4 -12 4 448.2 12.77
4 -12 4 441.97 13.94
4 -12 4 478.19 10.92
4 -12 5 1.39 0.7
4 -12 5 0.21 0.4
4 -12 5 0.43 0.87
-4 12 -5 -0.15 0.21
4 -12 6 45.59 2.8
4 -12 6 42.87 2.57
4 -12 6 38.64 3.18
4 -12 6 40.34 3.29
-4 12 -6 41.63 1.3
4 -12 7 48.57 2.91
4 -12 7 48.02 2.8
-4 12 -7 45.68 1.34
4 -12 7 42.46 3.32
-4 12 -7 41.68 1.25
4 -12 8 23.78 2.05
4 -12 8 22.24 1.87
-4 12 -8 21.81 0.83
-4 12 -8 19.18 0.78
4 -12 8 20.19 1.74
4 -12 8 18.4 2.12
4 -12 9 19.13 1.82
4 -12 9 18.51 1.72
4 -12 9 19.08 1.63
4 -12 9 17.57 1.94
-4 12 -9 17.92 0.7
4 -12 10 0.3 0.5
4 -12 10 0.35 0.38
-4 12 -10 0.38 0.19
4 -12 10 0.72 0.52
4 -12 11 32.85 2.23
4 -12 11 28.45 2.04
4 -12 11 33.52 2.32
4 -12 11 29.49 1.73
4 -12 12 20.62 1.73
4 -12 12 18.9 1.58
4 -12 13 5.57 0.8
4 -12 13 4.55 0.81
4 -12 14 0.15 0.35
4 -12 14 -0.39 0.32
4 -12 15 2.54 0.45
-4 12 -15 4.47 1.59
4 -11 -13 4.27 0.56
-4 11 13 4.32 1.77
-4 11 12 4.05 2.77
4 -11 -12 1.78 1.51
-4 11 12 4.87 0.8
4 -11 -12 5.59 0.9
4 -11 -11 -0.24 0.48
4 -11 -11 0.38 0.53
4 -11 -11 1.35 1.96
-4 11 11 0.06 0.48
4 -11 -10 36.79 2.64
-4 11 10 32.81 2.57
-4 11 10 26.17 7.38
4 -11 -10 32.09 2.63
4 -11 -10 32.83 7.06
4 -11 -9 1.17 0.7
-4 11 9 0.63 0.77
4 -11 -9 1.38 0.86
4 -11 -9 -1.94 2.03
-4 11 9 0.77 3.52
-4 11 8 -2.12 3.31
4 -11 -8 2.4 0.98
-4 11 8 0.63 0.69
4 -11 -8 -1.21 2.83
4 -11 -8 1.26 0.74
4 -11 -7 67.57 4.37
-4 11 7 68.04 4.09
4 -11 -7 61.98 4.07
4 -11 -7 61.89 11.22
-4 11 7 52.82 11.67
-4 11 6 78.23 13.95
4 -11 -6 93.76 5.26
4 -11 -6 85.55 13.24
4 -11 -6 82.22 4.71
-4 11 6 83.84 4.54
4 -11 -5 130.35 4.81
4 -11 -5 134.78 6.44
4 -11 -5 126.97 16.27
4 -11 -5 116.83 5.64
-4 11 5 114.35 16.59
-4 11 5 120.31 5.42
4 -11 -4 14.47 2.05
4 -11 -4 11 1.64
-4 11 4 15.1 1.85
4 -11 -4 7.89 3.94
-4 11 4 15.43 6.19
4 -11 -4 11.53 1.42
4 -11 -3 11.45 4.65
4 -11 -3 9.78 1.33
4 -11 -3 10.75 2.08
4 -11 -3 9.77 1.52
-4 11 3 12.39 1.82
-4 11 3 6.49 4.16
4 -11 -3 11.31 1.95
4 -11 -2 613.6 14.14
4 -11 -2 613.84 12.61
-4 11 2 594.15 34.28
4 -11 -2 644.23 16.16
-4 11 2 601.96 14.23
4 -11 -2 619.73 35.16
4 -11 -2 547.16 14.06
4 -11 -2 675.39 18.35
4 -11 -1 35.36 1.99
4 -11 -1 37.4 3.15
4 -11 -1 32.17 7.52
-4 11 1 38.63 7.94
4 -11 -1 34.4 2.52
4 -11 -1 38.05 3.8
4 -11 -1 31.58 2.39
4 -11 0 52.61 3.68
4 -11 0 53.99 2.56
4 -11 0 55.36 4.61
4 -11 0 43.4 2.68
4 -11 0 53.47 3.18
4 -11 1 18.58 2.16
4 -11 1 17.7 2.58
4 -11 1 18.73 1.49
4 -11 1 20.21 2.01
4 -11 2 77.25 4.34
4 -11 2 76.81 4.03
4 -11 2 74.09 3.12
4 -11 2 87.02 4.66
4 -11 2 74.76 3.11
4 -11 2 74.99 5.2
4 -11 3 35.57 3.09
4 -11 3 36.5 2.13
4 -11 3 33.6 3.38
4 -11 3 36.09 2.74
4 -11 3 31.3 2.83
4 -11 4 110.71 5.84
4 -11 4 111.84 4.14
4 -11 4 114.96 5.67
4 -11 4 106.08 5.08
4 -11 4 111.58 6.1
-4 11 -4 116.11 2.65
4 -11 5 81.18 5.05
-4 11 -5 84.99 2.1
4 -11 5 75.69 4.61
4 -11 5 85.88 3.57
4 -11 5 76.28 4.28
4 -11 5 77.92 4.95
4 -11 6 9.83 1.77
-4 11 -6 11.99 0.64
4 -11 6 13.43 1.4
4 -11 6 12.24 1.73
-4 11 -7 19.9 0.79
4 -11 7 22.27 1.86
4 -11 7 22.69 1.58
-4 11 -7 20.64 0.85
4 -11 8 44.17 2.75
4 -11 8 39.48 2.5
4 -11 8 39.7 2.15
4 -11 8 31.88 2.71
4 -11 8 39.56 2.32
-4 11 -8 40.66 1.23
-4 11 -8 35.5 1.13
-4 11 -9 43.15 1.26
4 -11 9 43.69 2.68
4 -11 9 42.49 2.31
4 -11 9 47.39 2.85
4 -11 9 45.91 2.47
-4 11 -9 41.95 1.24
4 -11 10 9.94 1.31
-4 11 -10 8.3 0.45
4 -11 10 9.14 1.26
4 -11 10 8.55 1
4 -11 10 8.41 1.05
4 -11 11 3.36 0.81
4 -11 11 4.67 0.91
4 -11 12 186.98 5.85
4 -11 12 195.88 6.39
4 -11 13 4.26 0.71
4 -11 13 2.56 0.75
4 -11 14 5.92 0.89
4 -11 14 6.16 0.69
-4 11 -15 -1.62 2.36
4 -11 15 1.13 0.49
4 -11 16 7.05 0.66
-4 10 13 6.12 2.54
4 -10 -13 3.54 1.57
-4 10 13 5.19 0.81
4 -10 -13 6.6 0.92
-4 10 12 14.4 1.6
4 -10 -12 11.05 3.39
-4 10 12 10.35 4.24
4 -10 -12 15.25 1.6
4 -10 -11 39.68 2.86
4 -10 -11 39.66 2.5
-4 10 11 39.01 2.87
4 -10 -11 30.93 6.7
-4 10 11 38.78 8.98
-4 10 10 1.65 2.33
4 -10 -10 3 0.95
4 -10 -10 2.52 2.69
-4 10 10 1.7 0.64
4 -10 -10 1.82 0.72
4 -10 -9 5.02 1.19
-4 10 9 3.75 1.14
-4 10 9 3.63 3.69
4 -10 -9 5.62 3.54
4 -10 -9 5.94 1.37
4 -10 -8 18.8 2.27
-4 10 8 14.99 2.04
4 -10 -8 8.95 5
-4 10 8 19.98 7.7
4 -10 -8 15.04 1.99
4 -10 -7 10.63 1.69
4 -10 -7 14.17 1.97
-4 10 7 13.47 1.91
4 -10 -7 16.36 6.36
-4 10 7 8.81 4.88
4 -10 -6 41.19 3.24
-4 10 6 40.65 3.13
-4 10 6 38.6 10.14
4 -10 -6 40.14 9.1
4 -10 -6 47.74 3.57
4 -10 -5 1.73 0.87
4 -10 -5 2.51 0.83
-4 10 5 2.75 0.92
4 -10 -5 3.31 1.21
-4 10 5 2.52 3.52
4 -10 -5 7.41 4.21
4 -10 -4 11.55 1.56
4 -10 -4 11.89 1.75
4 -10 -4 11.31 1.99
-4 10 4 13.46 1.73
-4 10 4 12.4 5.62
4 -10 -4 13.33 1.42
4 -10 -4 18.94 6.18
4 -10 -3 356.7 10.51
-4 10 3 324 9.4
4 -10 -3 374.82 12.59
-4 10 3 331.72 25.16
4 -10 -3 347.24 8.94
4 -10 -3 308.5 9.25
4 -10 -3 339.7 24.11
-4 10 2 30.42 7.1
4 -10 -2 34.55 7.54
4 -10 -2 28.03 2.26
4 -10 -2 33.54 2.73
4 -10 -2 30.09 2.22
4 -10 -2 30.77 3.33
4 -10 -1 271.9 8.79
4 -10 -1 295.09 11.03
4 -10 -1 255.59 20.3
-4 10 1 270.24 5.08
4 -10 0 6.57 1.64
4 -10 1 517.46 13.52
4 -10 1 582.29 16.6
4 -10 2 -0.36 0.4
4 -10 2 0.82 0.82
4 -10 3 201.04 8.59
4 -10 3 180.49 7.51
4 -10 4 142.84 6.72
4 -10 4 145.25 5.65
4 -10 4 148.22 4.69
4 -10 4 148.71 7.14
-4 10 -4 149.31 3.18
-4 10 -5 1.31 0.25
4 -10 5 1.39 0.54
4 -10 5 0.52 0.63
4 -10 5 -0.02 0.49
4 -10 5 1.57 0.63
4 -10 5 1.56 0.85
4 -10 6 8.27 1.58
4 -10 6 7.67 0.9
4 -10 6 8.04 1.05
4 -10 6 5.74 1.45
4 -10 6 8.13 1.57
4 -10 6 7.08 1.3
-4 10 -6 7.42 0.49
4 -10 7 24.79 2.87
-4 10 -7 23.48 0.9
4 -10 7 23.11 1.83
4 -10 7 23.28 1.64
-4 10 -7 21.06 0.82
4 -10 7 20.05 2.08
4 -10 8 28.91 2.55
4 -10 8 31.86 2.21
-4 10 -8 33.69 1.09
-4 10 -8 30.25 1.01
4 -10 8 29.6 1.9
4 -10 8 32.56 2.03
4 -10 8 27.28 3.01
-4 10 -9 7.8 0.49
4 -10 9 9.18 1.27
4 -10 9 7.78 1.06
4 -10 9 8.06 1.13
4 -10 9 8.87 1.07
-4 10 -9 8.48 0.5
4 -10 9 7.72 1.41
-4 10 -10 108.85 2.48
4 -10 10 112.7 4.57
4 -10 10 114.21 4.35
-4 10 -10 116.97 2.49
4 -10 11 233.81 6.91
-4 10 -11 231.05 4.31
4 -10 12 180.24 6.31
4 -10 12 173.12 5.56
4 -10 13 33.28 1.93
4 -10 13 36.06 2.48
4 -10 14 12.96 1.36
4 -10 14 14.19 1.04
4 -10 15 0.86 0.46
4 -10 16 7.28 0.79
-4 10 -16 7.85 2.56
-4 9 14 31.74 4.66
4 -9 -14 36.78 1.8
-4 9 14 35.44 2.06
4 -9 -13 0.16 0.5
4 -9 -13 2.91 1.15
-4 9 13 -0.58 0.6
-4 9 13 -0.46 2.44
-4 9 12 1.64 2.18
4 -9 -12 0.95 1.84
4 -9 -12 1.6 0.7
-4 9 12 -0.39 0.64
-4 9 11 1.42 0.9
4 -9 -11 0.73 0.55
-4 9 11 -0.1 0.74
4 -9 -11 -1.11 2.12
-4 9 11 1.01 2.15
4 -9 -11 2.03 0.98
-4 9 10 5.07 1.54
4 -9 -10 7.26 1.49
-4 9 10 8.88 1.66
4 -9 -10 8.39 1.37
-4 9 10 7.37 5.64
4 -9 -10 5.29 2.91
4 -9 -9 15.62 1.93
-4 9 9 13.56 1.96
-4 9 9 12.26 5.37
4 -9 -9 14.75 1.98
4 -9 -9 18.42 6.61
-4 9 9 12.24 2.2
-4 9 8 30 2.84
4 -9 -8 29.75 2.71
-4 9 8 19.03 2.66
-4 9 8 26.77 8.4
4 -9 -8 27.26 7.03
4 -9 -8 24.36 2.45
4 -9 -7 3.86 1.11
4 -9 -7 3.48 1.02
-4 9 7 3.62 1.06
4 -9 -7 1.22 3.28
4 -9 -7 4.39 1.37
-4 9 7 3.82 4.63
-4 9 7 2.54 1.08
4 -9 -6 -0.54 0.59
4 -9 -6 0.21 0.72
-4 9 6 1.24 3.42
-4 9 6 -0.35 0.57
4 -9 -6 0.25 0.71
4 -9 -6 3.35 3.63
-4 9 6 0.02 0.88
4 -9 -6 0.68 0.63
-4 9 5 178.8 19.27
4 -9 -5 171.84 6.47
4 -9 -5 192.33 6.99
4 -9 -5 184.61 8.72
4 -9 -5 180.92 17.03
-4 9 5 170.13 6.5
4 -9 -5 198.16 8.32
-4 9 4 5.97 3.28
4 -9 -4 11.33 1.52
-4 9 4 8.82 1.38
4 -9 -4 11 2
4 -9 -4 8.05 1.72
4 -9 -4 6.45 2.51
4 -9 -4 9.75 1.34
4 -9 -3 314.49 11.3
4 -9 -2 30.01 3.22
4 -9 -1 2.16 1.01
-4 9 1 1.19 0.2
-4 9 0 79.51 1.84
4 -9 0 83.35 5.35
4 -9 1 2.39 1.07
4 -9 1 1.89 0.77
4 -9 2 37.54 3.18
4 -9 2 46.68 3.9
4 -9 3 0.36 0.51
4 -9 3 -0.17 0.64
4 -9 4 0.2 0.69
4 -9 4 0.34 0.58
-4 9 -4 0.35 0.2
4 -9 5 69.88 4.52
4 -9 5 70.11 4.68
-4 9 -5 72.92 1.81
4 -9 6 0.86 0.51
4 -9 6 0.84 0.71
4 -9 6 -0.09 0.48
-4 9 -6 0.77 0.23
4 -9 7 18.5 2.44
4 -9 7 18.11 1.45
-4 9 -7 18.22 0.76
4 -9 7 18.82 1.52
-4 9 -7 17.33 0.72
4 -9 7 15.82 1.8
4 -9 8 2.61 1.12
4 -9 8 1.53 0.53
4 -9 8 2.39 0.74
4 -9 8 0.67 0.77
-4 9 -8 1.46 0.24
-4 9 -8 1.89 0.26
4 -9 9 17.16 1.58
4 -9 9 13.07 1.71
4 -9 9 13.97 1.44
4 -9 9 15.18 1.44
4 -9 9 16.63 2.34
-4 9 -9 15.21 0.69
-4 9 -9 13.54 0.64
4 -9 10 3.32 0.74
4 -9 10 2.8 0.76
4 -9 10 3.07 0.77
-4 9 -10 2.73 0.3
-4 9 -10 2.63 0.3
4 -9 11 153.92 5.15
4 -9 11 131.03 5
4 -9 11 135.61 5.13
-4 9 -11 151.96 3
4 -9 12 62.69 3.49
4 -9 12 59.47 2.88
4 -9 13 21.84 1.62
4 -9 13 16.64 1.76
4 -9 14 9.51 1.29
4 -9 15 -0.03 0.41
4 -9 16 65.17 2.77
-4 9 -16 71.29 8.36
4 -9 17 0.99 0.32
-4 8 15 2.3 0.61
4 -8 -14 3.56 0.65
-4 8 14 3.09 0.81
4 -8 -14 1.9 1.81
-4 8 14 5.38 2.27
4 -8 -13 10.01 1.36
-4 8 13 9.37 1.46
-4 8 13 8.83 1.6
-4 8 13 5.31 3.23
4 -8 -13 13.17 4.07
-4 8 12 22.21 2.4
-4 8 12 18.6 6.52
4 -8 -12 17.22 4.86
4 -8 -12 23.9 2.23
-4 8 12 14.82 2.26
-4 8 11 5.64 1.58
-4 8 11 8.07 1.6
4 -8 -11 9.76 1.66
-4 8 11 2.08 1.97
4 -8 -11 4.52 3.47
4 -8 -10 11.17 4.44
4 -8 -10 12.75 1.59
4 -8 -10 12.74 1.8
-4 8 10 11.79 5.81
-4 8 10 10.96 1.8
-4 8 10 9.47 2.04
-4 8 9 64 4.89
4 -8 -9 84.76 4.28
-4 8 9 71.5 4.44
4 -8 -9 77.37 11.69
-4 8 9 73.04 13.68
4 -8 -9 72.88 4.31
-4 8 8 -2.6 3.08
4 -8 -8 0.89 0.78
4 -8 -8 2.28 0.9
4 -8 -8 0.27 0.71
-4 8 8 1.62 0.93
4 -8 -8 -0.1 3.32
-4 8 8 0.85 0.95
4 -8 -7 4.79 1.12
-4 8 7 6.69 1.36
-4 8 7 2.09 2.48
4 -8 -7 4.94 1.11
4 -8 -7 4.08 2.72
4 -8 -7 5.15 1.48
-4 8 7 5.16 1.39
-4 8 6 0.6 0.76
4 -8 -6 1.17 0.55
-4 8 6 1.04 0.74
4 -8 -6 1.35 0.93
-4 8 6 5.39 4.57
4 -8 -6 2.97 3.04
4 -8 -6 1.8 0.85
4 -8 -6 0.05 0.66
4 -8 -5 124.15 7.09
4 -8 -5 145.55 6.73
4 -8 -4 230.01 9.81
4 -8 -4 256.44 9.5
4 -8 -3 2.14 0.85
4 -8 -3 3.14 1.08
4 -8 -2 18.47 2.42
4 -8 -1 123.18 6.22
-4 8 1 106.61 2.26
4 -8 0 45.32 3.74
4 -8 1 40.12 3.49
4 -8 2 251.8 9.36
4 -8 3 2.25 0.8
4 -8 3 2.4 0.8
4 -8 4 11.98 1.84
4 -8 4 12.69 1.91
-4 8 -4 14.01 0.62
-4 8 -5 113.93 2.48
4 -8 5 117.23 5.81
4 -8 5 114.72 5.94
4 -8 6 0.05 0.54
4 -8 6 -0.05 0.43
-4 8 -6 0.13 0.16
4 -8 7 166.65 7.63
-4 8 -7 165.57 3.35
-4 8 -7 160.3 3.28
4 -8 8 167.89 7.71
4 -8 8 142.12 5.63
4 -8 8 157.71 4.86
4 -8 8 165.24 4.99
-4 8 -8 152.35 3.15
-4 8 -8 154.28 3.23
4 -8 9 320.52 8.05
4 -8 9 319.58 8.17
-4 8 -9 314.38 5.87
-4 8 -9 308.37 5.82
4 -8 9 320.99 11.3
4 -8 10 28.32 1.91
4 -8 10 26.84 1.93
4 -8 10 26.14 1.99
-4 8 -10 25.88 0.93
-4 8 -10 25.48 0.93
4 -8 10 28.24 3.01
4 -8 11 10.52 1.25
4 -8 11 10.61 1.31
4 -8 11 12.74 1.26
-4 8 -11 11.59 0.56
4 -8 12 42.03 2.89
4 -8 12 37.84 2.23
-4 8 -12 40.13 1.09
4 -8 12 39.35 2.15
4 -8 13 3.53 0.93
4 -8 13 4.54 0.77
4 -8 14 17.39 1.35
4 -8 14 20.95 1.95
4 -8 15 1.68 0.65
4 -8 16 36.26 2.12
-4 8 -16 41.93 7.18
4 -8 17 1.31 0.43
-4 8 -17 2.38 1.72
-4 7 16 17.94 1.14
-4 7 16 12.85 0.78
-4 7 15 2.24 0.76
4 -7 -15 2.32 0.48
-4 7 14 12.43 1.8
-4 7 14 18.53 1.94
4 -7 -14 17.77 3.84
-4 7 14 13.98 3.72
4 -7 -14 18.6 1.57
-4 7 13 2.58 1.25
-4 7 13 3.23 1.03
-4 7 13 -0.3 1.95
4 -7 -13 3.75 2.62
4 -7 -13 3.2 0.91
-4 7 12 1.72 1.02
-4 7 12 2.02 0.95
-4 7 12 -2.09 2.02
4 -7 -12 1.06 2.44
4 -7 -12 2.27 0.96
-4 7 11 6.46 1.63
-4 7 11 6.5 1.39
4 -7 -11 7.56 4.33
4 -7 -11 6.8 1.3
-4 7 11 8.76 4.9
-4 7 10 42.77 3.44
-4 7 10 39.8 3.74
-4 7 10 43.2 10.19
4 -7 -10 41.93 8.56
4 -7 -10 47.19 3.32
-4 7 9 27.03 3.1
-4 7 9 28.42 2.66
4 -7 -9 23.87 3.11
-4 7 9 33.29 8.69
4 -7 -9 32.96 2.5
4 -7 -9 24.57 6.37
4 -7 -9 30.99 2.7
4 -7 -8 239.37 7.98
4 -7 -8 274.28 8.01
-4 7 8 241.3 8.26
4 -7 -8 243.99 19.49
4 -7 -8 242.2 10.4
-4 7 8 262.94 24.1
-4 7 8 219.95 8.93
-4 7 7 111.26 5.84
-4 7 7 139.2 16.19
4 -7 -7 144.93 5.3
-4 7 7 122.44 5.25
4 -7 -7 138.39 13.84
4 -7 -7 127.11 7.27
4 -7 -7 123.18 5.09
4 -7 -6 -1.2 0.67
4 -7 -6 -0.07 0.76
4 -7 -5 10.39 1.69
4 -7 -5 9.45 1.89
4 -7 -4 31.03 2.93
4 -7 -4 30.04 3.19
4 -7 -3 122.54 6.49
4 -7 -3 133.61 6.31
4 -7 -2 95.01 5.57
4 -7 -2 98.26 5.32
4 -7 -1 136.49 6.38
4 -7 0 404.39 12.01
4 -7 1 11.47 1.8
4 -7 2 78.31 4.59
4 -7 3 373.63 11.37
4 -7 4 58.21 3.95
4 -7 4 57.6 3.85
-4 7 -4 58.07 1.44
4 -7 5 39.9 3.31
4 -7 5 36.55 2.98
-4 7 -5 36.87 1.07
4 -7 6 15.4 2.09
-4 7 -6 15.8 0.65
-4 7 -6 13.85 0.57
4 -7 6 14.68 1.86
4 -7 7 50.64 3.87
4 -7 7 47.82 3.15
-4 7 -7 46.92 1.28
-4 7 -7 42.41 1.19
4 -7 8 119.53 6.22
-4 7 -8 115.01 2.51
-4 7 -8 111.05 2.43
4 -7 9 16.67 2.27
4 -7 9 14.72 1.32
4 -7 9 14.66 1.38
-4 7 -9 15.07 0.67
-4 7 -9 15.26 0.69
4 -7 10 23.59 1.63
4 -7 10 23.41 1.71
-4 7 -10 21.82 0.83
-4 7 -10 21.87 0.84
4 -7 10 21.25 1.77
4 -7 10 21.01 2.57
4 -7 11 50.94 2.95
4 -7 11 55.5 2.6
-4 7 -11 54.24 1.42
4 -7 12 178.97 6.4
-4 7 -12 171.03 3.34
4 -7 12 170.51 5.62
4 -7 13 3.66 0.79
4 -7 13 2.71 0.91
4 -7 14 0.99 0.51
4 -7 14 1.77 0.86
4 -7 15 72.48 3.49
4 -7 15 65.59 2.78
-4 7 -15 67.6 11.18
4 -7 16 11.09 1.25
4 -7 16 8.9 0.81
-4 7 -16 11.31 3.98
4 -7 17 11.1 1.04
-4 7 -17 12.06 3.24
-4 6 16 -0.13 0.4
-4 6 16 0.33 0.33
-4 6 16 0.29 0.3
-4 6 15 2.26 1.09
-4 6 15 0.39 0.47
-4 6 14 9.09 1.49
4 -6 -14 8.71 1.12
-4 6 14 7.67 3.07
-4 6 14 5.98 1.46
-4 6 13 21.5 2.74
-4 6 13 29.94 2.77
4 -6 -13 34.23 6.48
4 -6 -13 28.3 2.32
-4 6 13 25.94 6.76
4 -6 -12 8.03 4.24
4 -6 -12 7.79 1.34
-4 6 12 7.41 3.93
-4 6 12 10.61 1.82
-4 6 12 6.42 1.57
-4 6 11 5.55 1.39
-4 6 11 7.84 1.46
-4 6 11 5.72 3.41
4 -6 -11 2.36 1.72
4 -6 -11 5.2 1.12
-4 6 10 2 0.82
-4 6 10 2.81 0.98
-4 6 10 2.8 3.84
4 -6 -10 1.76 2.31
4 -6 -10 3.21 0.93
-4 6 9 4.74 1.09
-4 6 9 2.38 2.52
4 -6 -9 1.91 2.18
-4 6 9 3.85 1.31
4 -6 -9 3.73 1.29
4 -6 -9 3.71 0.89
-4 6 8 9.47 1.64
-4 6 8 10.46 1.51
4 -6 -8 8.81 1.99
4 -6 -8 12.8 5.49
-4 6 8 7.88 4.06
4 -6 -8 9.43 1.31
4 -6 -7 54.74 4.57
4 -6 -6 117.79 6.66
4 -6 -6 133.77 5.65
4 -6 -5 0.89 0.62
4 -6 -5 0.59 0.72
4 -6 -4 4.06 1.03
4 -6 -4 4.01 1.19
4 -6 -3 3.99 1.21
4 -6 -3 4.86 1.2
4 -6 -2 1.12 0.69
4 -6 -2 0.8 0.59
4 -6 -1 143.95 6.13
4 -6 0 84.6 4.53
4 -6 1 1.7 0.8
4 -6 2 62.37 4.02
4 -6 2 53.44 3.6
4 -6 3 81.95 4.76
-4 6 -3 75.66 1.67
4 -6 3 77.87 4.34
4 -6 4 30.91 2.95
4 -6 4 29.42 2.59
-4 6 -4 29.12 0.86
4 -6 5 167.34 6.84
4 -6 5 168.46 7.34
4 -6 5 152.32 6.36
-4 6 -5 161.54 3.17
4 -6 6 10.96 1.71
-4 6 -6 10.4 0.5
4 -6 6 9.74 1.48
4 -6 6 11.02 1.77
-4 6 -6 9.89 0.45
4 -6 7 1.87 0.82
4 -6 7 2.98 0.84
-4 6 -7 2.83 0.29
-4 6 -7 2.46 0.25
4 -6 8 0.55 0.59
-4 6 -8 0.64 0.19
-4 6 -8 0.55 0.17
-4 6 -9 67.43 1.71
4 -6 9 70.58 3.09
-4 6 -9 67.48 1.69
4 -6 9 74.59 4.71
4 -6 10 0.97 0.64
4 -6 10 1.29 0.51
4 -6 10 1.09 0.56
-4 6 -10 0.91 0.2
-4 6 -11 13.79 0.62
4 -6 11 11.67 1.17
4 -6 11 13.31 1.84
4 -6 11 11.57 1.38
-4 6 -11 15.79 2.5
4 -6 12 26.56 2.07
-4 6 -12 23.72 0.82
4 -6 12 23.7 2.13
4 -6 13 53.4 3.27
4 -6 13 45.81 2.78
4 -6 14 44.12 2.67
4 -6 14 46.72 2.97
4 -6 15 -0.23 0.55
4 -6 15 -0.04 0.37
4 -6 16 1.43 0.65
4 -6 16 1.35 0.46
4 -6 17 8.84 0.95
-4 6 -17 9.73 3.29
4 -6 17 7.26 0.63
-4 5 17 5.77 0.64
-4 5 17 4.19 0.49
-4 5 16 0.82 0.58
-4 5 16 1.12 0.58
-4 5 15 12.19 1.92
-4 5 15 15.08 1.74
-4 5 14 9.44 1.92
-4 5 14 12 1.71
4 -5 -14 13.36 1.33
4 -5 -13 88.08 4.04
-4 5 13 82 4.68
-4 5 13 76.78 10.68
-4 5 13 73.96 5.08
-4 5 12 9.25 1.95
4 -5 -12 10.34 1.46
-4 5 12 8.64 1.57
4 -5 -12 13.27 5.03
-4 5 11 33.78 3.37
4 -5 -11 32.72 2.56
-4 5 11 35.93 3.04
-4 5 11 31.18 7.68
4 -5 -11 37.48 7.25
-4 5 10 34.1 3.28
-4 5 10 37.18 2.98
4 -5 -10 38.16 3.88
-4 5 10 36.01 8.26
4 -5 -10 44.91 7.99
4 -5 -10 37.21 2.67
-4 5 9 154.87 6.73
-4 5 9 149.57 5.96
-4 5 9 150.96 5.21
4 -5 -9 157.45 8.13
-4 5 9 155.6 16.84
4 -5 -9 161.74 5.84
4 -5 -8 272.62 10.86
4 -5 -7 45.34 4.03
4 -5 -6 4.81 0.9
4 -5 -6 4.71 1.28
4 -5 -5 0.33 0.37
4 -5 -5 1.1 0.83
4 -5 -4 329.55 10.93
4 -5 -4 360.79 10.17
4 -5 -3 108.54 5.51
4 -5 -3 113.94 5.15
4 -5 -2 16.94 1.92
4 -5 -2 17.97 2.09
4 -5 -1 51.34 3.19
4 -5 -1 47.07 3.17
4 -5 -1 44.82 3.25
4 -5 0 259.98 8.28
4 -5 0 259.5 8.31
4 -5 1 14.2 1.79
4 -5 2 2.79 0.97
-4 5 -3 21.04 0.66
4 -5 3 23.67 2.52
-4 5 -4 96.37 2
4 -5 4 100.48 5.28
-4 5 -5 39.24 0.98
-4 5 -5 40.98 1.06
-4 5 -6 6.82 0.39
4 -5 6 5.95 1.25
-4 5 -6 6.42 0.35
4 -5 6 6.41 1.43
-4 5 -7 66.71 1.6
4 -5 7 71.36 4.37
-4 5 -7 64.8 1.52
4 -5 7 70.74 4.53
4 -5 8 9.01 1.55
-4 5 -8 7.63 0.43
4 -5 8 6.74 1.36
-4 5 -8 7.96 0.47
4 -5 9 217.76 8.11
-4 5 -9 198.7 3.93
4 -5 10 91.78 3.21
4 -5 10 88.25 3.72
-4 5 -10 95.32 11.74
4 -5 10 98.11 5.12
-4 5 -10 95.91 2.17
4 -5 11 294.9 7.43
4 -5 11 282.1 8.02
-4 5 -11 290.21 5.43
-4 5 -11 289.97 11.38
4 -5 11 282.06 9.42
-4 5 -11 307.99 22.64
4 -5 11 303.18 8.46
4 -5 12 3.89 0.88
4 -5 12 5.12 0.84
4 -5 12 5.65 1.1
-4 5 -12 4.37 0.36
4 -5 13 7.94 1.27
4 -5 13 7.45 1.17
4 -5 13 7.04 0.98
-4 5 -13 6.6 0.39
4 -5 14 19.5 1.88
4 -5 14 16.98 1.44
4 -5 14 19.74 1.92
4 -5 15 16.88 1.73
4 -5 15 16.94 1.62
4 -5 15 15.8 1.3
-4 5 -15 21.35 7.19
4 -5 16 12.34 1.36
4 -5 16 11.46 1.22
4 -5 16 9.65 0.86
-4 5 -16 14.08 5
4 -5 17 1.04 0.47
4 -5 17 0.6 0.26
-4 4 17 12.85 1.01
-4 4 17 14.29 1.1
-4 4 16 3.19 1.05
-4 4 16 1.98 0.68
-4 4 15 34.33 2.62
-4 4 15 33.98 3.11
-4 4 14 30.34 3.15
-4 4 14 28.99 2.63
-4 4 13 28.1 3.13
-4 4 13 22.49 2.45
-4 4 12 26.1 2.9
-4 4 12 28.41 2.72
4 -4 -12 24.29 2.08
4 -4 -11 2.6 0.78
-4 4 11 2.57 1.02
-4 4 11 0.57 0.47
-4 4 11 1.99 1.17
-4 4 11 1.09 0.7
-4 4 10 2.29 0.72
-4 4 10 2.98 1.05
-4 4 10 1.59 0.64
-4 4 10 5.01 4.28
4 -4 -10 1.57 0.88
4 -4 -10 4.8 1.23
-4 4 9 14.24 1.85
-4 4 9 19.26 1.93
4 -4 -9 15.13 2.45
4 -4 -8 8.41 1.77
4 -4 -7 104.78 5.99
4 -4 -6 2.26 0.7
4 -4 -6 1.47 0.86
4 -4 -5 524.22 12.51
4 -4 -5 493.71 14.07
4 -4 -4 262.59 8.76
4 -4 -4 246.51 4.23
4 -4 -4 265.49 7.94
4 -4 -3 71.31 3.83
4 -4 -3 75.03 4.27
4 -4 -3 76 1.41
4 -4 -2 2.23 0.71
4 -4 -2 2.04 0.7
4 -4 -2 1.93 0.72
4 -4 -2 2.04 0.13
4 -4 -1 4.08 0.96
4 -4 -1 3.75 1
4 -4 0 46.35 3.09
4 -4 1 26.51 2.4
4 -4 2 24.28 2.28
-4 4 -2 25.16 0.68
4 -4 3 109.14 5.27
-4 4 -3 105.48 2.08
-4 4 -4 328.83 5.75
-4 4 -4 324.62 5.64
-4 4 -5 8.26 0.4
-4 4 -5 7.88 0.34
4 -4 5 7.55 1.44
4 -4 6 72.3 4.09
-4 4 -6 67.04 1.56
4 -4 6 69.37 4.42
-4 4 -6 67.14 1.47
4 -4 7 59.3 3.72
-4 4 -7 53.11 1.36
-4 4 -7 54.16 1.31
4 -4 7 53.36 3.88
4 -4 8 63.34 3.91
-4 4 -8 59.21 1.5
4 -4 8 63.69 4.13
4 -4 9 41.51 3.16
4 -4 9 45.48 3.29
-4 4 -9 43.43 1.24
4 -4 10 21.58 1.71
4 -4 10 21.76 2.26
4 -4 10 23.6 1.66
-4 4 -10 23.86 0.85
-4 4 -10 19.16 2.75
-4 4 -10 25.06 6.74
4 -4 11 24.46 1.93
4 -4 11 28.67 2.18
4 -4 11 24.42 1.84
-4 4 -11 25.25 3.1
-4 4 -11 25.4 0.89
-4 4 -11 24.31 6.9
4 -4 12 104.13 4.09
4 -4 12 108.47 4.6
-4 4 -12 97.82 2.21
4 -4 12 110.59 4.67
4 -4 13 51.13 3.16
4 -4 13 50.89 3.11
4 -4 13 46.75 2.71
-4 4 -13 46.65 1.23
4 -4 14 45.64 2.98
4 -4 14 46.3 2.95
4 -4 14 43.38 2.58
-4 4 -14 41.32 9.68
4 -4 15 14.04 1.6
4 -4 15 13.16 1.51
4 -4 15 14.34 1.39
-4 4 -15 11.11 5.4
4 -4 16 -0.19 0.4
-4 4 -16 -0.17 2.35
4 -4 16 0.68 0.51
4 -4 16 -0.05 0.28
4 -4 17 4.68 0.74
4 -4 17 3.76 0.6
4 -4 17 3.08 0.44
-4 4 -18 8.28 2.1
-4 3 17 3.51 1.02
-4 3 17 4.45 0.67
-4 3 17 3.62 0.65
-4 3 16 2.88 0.98
-4 3 16 1.47 0.66
-4 3 15 1.23 0.99
-4 3 15 -0.39 0.66
-4 3 14 26.79 3.01
-4 3 14 32.57 2.8
-4 3 13 1.93 0.84
-4 3 13 2.78 1.21
-4 3 12 86.54 5.25
-4 3 12 80.03 4.41
-4 3 12 76.05 4.04
-4 3 11 146.17 6.46
-4 3 11 132.19 5.61
-4 3 11 121.7 5.01
-4 3 11 128.8 7.6
4 -3 -11 128.26 7.12
-4 3 10 141.67 6.04
-4 3 10 132.44 5.25
-4 3 10 125.95 4.8
-4 3 10 141.34 7.96
4 -3 -10 140.28 7.42
4 -3 -9 -0.15 0.58
4 -3 -8 33.1 3.31
4 -3 -7 14.73 2.14
4 -3 -6 1.7 0.56
4 -3 -6 2.18 0.91
4 -3 -5 197.72 7.53
4 -3 -5 220.01 6.49
4 -3 -4 48.91 3.31
4 -3 -4 49.91 2.81
4 -3 -3 16.53 1.87
4 -3 -3 13.5 1.53
4 -3 -3 15.7 0.42
4 -3 -3 16.35 1.49
4 -3 -2 69.39 3.4
4 -3 -2 74.26 3.84
4 -3 -2 72.46 1.38
4 -3 -1 339.19 8.95
4 -3 -1 331.88 9.17
4 -3 -1 324.34 5.52
4 -3 0 7.16 1.25
4 -3 1 45.69 3.08
-4 3 -1 44.13 0.95
4 -3 2 0.98 0.64
-4 3 -2 0.97 0.31
-4 3 -2 0.78 0.13
-4 3 -3 29.88 0.75
4 -3 3 31.21 2.66
-4 3 -3 28.72 0.65
-4 3 -4 110.15 2.13
-4 3 -4 106.18 2.01
-4 3 -5 214.84 4.05
4 -3 5 230.96 8.41
-4 3 -5 226.69 3.95
-4 3 -6 15.56 0.59
-4 3 -6 15.94 0.54
4 -3 6 16.66 2.17
4 -3 7 434.27 11.67
-4 3 -7 417.83 7.42
4 -3 7 432.3 12.62
-4 3 -8 29.71 0.93
4 -3 8 27.61 2.69
4 -3 8 31.02 2.55
4 -3 9 43.98 3
-4 3 -9 42.64 1.2
4 -3 10 83.3 3.51
4 -3 10 96.5 3.7
-4 3 -10 92.01 5.98
-4 3 -10 92.73 2.11
-4 3 -10 86.86 12.31
4 -3 10 99.22 3.92
4 -3 11 137.78 4.93
4 -3 11 142.73 5.17
4 -3 11 141.09 4.75
-4 3 -11 127.42 7.09
-4 3 -11 118.82 2.66
-4 3 -11 122.51 15.1
4 -3 12 74.94 3.68
4 -3 12 71.73 3.75
4 -3 12 67.1 3.38
-4 3 -12 64.42 1.63
4 -3 13 41.67 2.81
-4 3 -13 40.56 1.15
4 -3 13 39.28 2.61
4 -3 14 0.88 0.55
4 -3 14 1.21 0.7
4 -3 14 -0.19 0.49
-4 3 -14 -0.74 4.23
4 -3 15 0.11 0.54
4 -3 15 0.66 0.45
4 -3 15 0.32 0.49
4 -3 16 83.52 3.55
4 -3 16 81 3.57
4 -3 16 75.72 3.15
-4 3 -16 86.73 12.09
4 -3 17 0.68 0.38
4 -3 17 0.87 0.44
4 -3 17 0.23 0.25
-4 3 -18 1.25 1.13
-4 2 18 5.34 0.56
-4 2 18 3.82 0.73
-4 2 17 0.65 0.64
-4 2 17 0.13 0.32
-4 2 17 0.37 0.35
-4 2 16 4.48 0.93
-4 2 16 4.39 0.9
-4 2 16 4.69 1.32
-4 2 15 0.51 0.72
-4 2 15 0.54 0.6
-4 2 14 25.46 2.84
-4 2 14 18.05 2.05
-4 2 13 96.06 5.56
-4 2 13 86.25 4.58
-4 2 12 68.26 4.44
-4 2 12 61.95 3.67
-4 2 12 59.46 3.52
-4 2 11 2.17 0.97
4 -2 -11 3.61 1.27
-4 2 11 0.96 0.64
-4 2 11 1.87 0.74
-4 2 11 3.83 1.37
-4 2 10 231.67 7.68
-4 2 10 209.57 6.54
-4 2 10 240.49 10.42
4 -2 -10 230.77 9.69
-4 2 9 66.02 5.24
4 -2 -9 59.64 4.54
4 -2 -8 217.94 8.8
4 -2 -7 160.71 7.06
4 -2 -6 24.47 2.45
4 -2 -6 24.91 1.63
4 -2 -5 23.39 2.26
4 -2 -5 24.5 1.74
4 -2 -4 304.35 8.98
4 -2 -4 297.61 7.85
4 -2 -4 305.15 7
4 -2 -3 40.45 2.22
4 -2 -3 41.26 2.7
4 -2 -2 74.45 3.55
4 -2 -2 69.17 3.28
4 -2 -2 69.46 1.35
4 -2 -1 8.25 1.2
4 -2 -1 7.49 0.28
4 -2 -1 7.28 1.14
4 -2 0 87.05 4.15
-4 2 0 93.75 3.59
-4 2 -1 102.05 3.3
-4 2 -1 98.19 1.69
4 -2 1 105.19 4.65
-4 2 -2 23.76 1.16
4 -2 2 22.4 2.22
-4 2 -2 21.06 0.56
-4 2 -2 20.78 0.46
-4 2 -3 224.87 3.94
4 -2 3 227.31 7.88
-4 2 -3 220.67 3.81
-4 2 -4 1.98 0.2
-4 2 -4 2.11 0.16
4 -2 5 117.65 5.68
-4 2 -5 111.56 2.23
4 -2 6 28.16 2.76
-4 2 -6 31.53 0.89
4 -2 7 206.79 6.95
-4 2 -7 212.68 3.98
4 -2 7 204.34 8.07
4 -2 8 17.16 1.79
-4 2 -8 17.53 0.67
4 -2 8 14.32 1.94
-4 2 -9 42.37 1.19
-4 2 -9 37.39 3.61
4 -2 10 47.15 2.51
-4 2 -10 43.78 8.88
4 -2 10 41.02 2.32
4 -2 10 46.4 2.5
-4 2 -10 44.04 1.26
-4 2 -10 43.46 3.92
4 -2 11 64.33 3.15
-4 2 -11 59.06 4.69
-4 2 -11 59.49 1.58
4 -2 11 66.02 3.43
4 -2 11 64.89 3.21
-4 2 -11 63.57 11.4
4 -2 12 64.65 3.33
4 -2 12 66.63 3.64
4 -2 12 64.32 3.38
-4 2 -12 61.4 1.58
4 -2 13 34.7 2.5
-4 2 -13 32.04 9.07
4 -2 13 36.97 2.76
4 -2 13 33.05 2.46
-4 2 -13 31.64 0.99
-4 2 -14 2.75 2.48
4 -2 14 2.85 0.74
4 -2 14 4.6 1.05
4 -2 14 3.73 0.85
-4 2 -14 2.92 0.26
4 -2 15 36.05 2.55
4 -2 15 36.34 2.39
4 -2 15 35.04 2.39
-4 2 -15 30.05 8.19
4 -2 16 0.36 0.42
-4 2 -16 -0.36 2.37
4 -2 16 0.23 0.51
4 -2 16 0.02 0.35
4 -2 17 4.94 0.67
4 -2 17 6.29 0.88
4 -2 17 5.09 0.66
-4 2 -17 5.17 2.57
-4 2 -18 19.15 3.24
-4 1 18 1.41 0.36
-4 1 18 0.93 0.52
-4 1 17 -0.1 0.41
-4 1 17 0.56 0.4
-4 1 16 22.2 2.38
-4 1 16 18.33 1.68
-4 1 16 20.46 1.8
-4 1 15 8.01 1.69
-4 1 15 8.38 1.3
-4 1 14 9.28 1.83
-4 1 14 12.02 1.6
-4 1 13 36.75 2.79
-4 1 13 44.04 3.6
-4 1 13 35.23 2.76
-4 1 12 0.68 0.64
-4 1 12 0.93 0.68
-4 1 12 1.14 0.83
4 -1 -12 0.76 0.62
-4 1 12 1.5 0.89
-4 1 11 14.53 1.87
4 -1 -11 14.48 2.31
-4 1 11 12.36 1.55
-4 1 11 13.83 1.58
-4 1 11 14.35 2.4
-4 1 11 17.06 1.48
-4 1 10 200.25 9.31
4 -1 -10 186.95 8.45
-4 1 9 62.94 5.03
4 -1 -9 63.76 4.56
-4 1 8 19.57 2.66
4 -1 -8 19.62 2.37
-4 1 7 7.73 1.7
4 -1 -7 5.58 1.24
-4 1 6 18.27 2.36
4 -1 -6 17.79 2.02
4 -1 -5 0.44 0.33
4 -1 -5 0.38 0.52
4 -1 -4 88.89 4
4 -1 -4 81.52 2.9
4 -1 -3 96.92 3.7
-4 1 3 110.28 4.91
4 -1 -3 102 4.15
4 -1 -2 3.79 0.86
-4 1 2 2.79 0.74
4 -1 -2 3.69 0.78
4 -1 -2 2.65 0.18
4 -1 -1 201.34 6.33
-4 1 1 200.12 6.09
4 -1 -1 205.42 5.86
4 -1 -1 194.91 3.44
4 -1 0 72.22 3.71
-4 1 0 68.15 3.02
4 -1 0 75.98 1.46
-4 1 -1 70.43 2.69
4 -1 1 71.72 3.84
4 -1 2 45.91 3.14
-4 1 -2 42.64 1.77
-4 1 -2 42.56 0.93
4 -1 3 2.07 0.92
-4 1 -3 1.71 0.29
-4 1 -3 1.55 0.17
4 -1 4 1038.93 22.28
-4 1 -4 976.85 16.38
4 -1 5 763.75 18.31
-4 1 -5 734.33 12.45
-4 1 -6 76.01 1.66
4 -1 6 70.32 4.53
4 -1 7 138.37 5.04
4 -1 7 133.81 6.4
-4 1 -7 141.7 2.81
4 -1 8 14.94 1.5
4 -1 8 14.6 2
-4 1 -8 13.21 1.99
-4 1 -8 16.09 0.64
-4 1 -9 13.54 2.09
-4 1 -9 14.17 0.63
4 -1 10 16.3 1.41
4 -1 10 17.75 1.6
-4 1 -10 13.76 2.2
4 -1 10 15.28 1.47
-4 1 -10 14.09 0.65
-4 1 -10 14.04 4.69
4 -1 11 33.9 2.24
-4 1 -11 32.33 3.39
4 -1 11 33.83 2.46
4 -1 11 34.45 2.39
-4 1 -11 29.97 1.02
-4 1 -11 31.89 2.31
4 -1 12 0.19 0.49
4 -1 12 -0.07 0.45
4 -1 12 0.96 0.59
4 -1 12 -0.8 0.63
-4 1 -12 0.06 0.16
-4 1 -12 -0.16 0.43
4 -1 13 -0.28 0.45
4 -1 13 0.99 0.52
4 -1 13 2.12 0.76
4 -1 13 0.57 0.47
-4 1 -13 1.02 2.75
-4 1 -13 0.84 0.2
-4 1 -13 0.1 0.45
4 -1 14 43.1 2.7
4 -1 14 38.49 2.37
4 -1 14 42.64 2.94
4 -1 14 42.44 2.78
-4 1 -14 40.38 1.08
4 -1 15 69.3 3.28
4 -1 15 76.27 3.78
4 -1 15 67.41 3.38
-4 1 -15 74.65 12.42
4 -1 16 1.3 0.53
4 -1 16 1.78 0.67
4 -1 16 1.33 0.54
-4 1 -17 38.31 6.48
4 -1 17 33.7 1.94
4 -1 17 34.53 1.75
-4 0 18 6.98 1.06
-4 0 18 9.49 0.8
-4 0 17 43.53 3.01
-4 0 17 47.23 2.39
-4 0 16 1.62 0.88
-4 0 16 0.69 0.53
-4 0 16 2.23 0.75
-4 0 15 37.24 3.29
-4 0 15 32.55 2.35
-4 0 15 40.9 2.79
-4 0 14 68.05 4.48
-4 0 14 74.12 3.28
-4 0 13 29.87 2.86
-4 0 13 25.47 2.21
-4 0 13 26.92 2.36
-4 0 13 30.48 2.15
-4 0 12 64.25 3.97
-4 0 12 64.72 3.18
-4 0 12 54.92 3.16
-4 0 12 57.26 4.6
-4 0 12 56.64 3.36
4 0 -12 57.98 4.52
-4 0 11 40.77 2.88
-4 0 11 35.35 2.33
-4 0 11 39.99 3.93
-4 0 11 35.76 2.45
4 0 -11 37.84 3.55
-4 0 11 41.52 2.43
-4 0 10 114.47 6.82
4 0 -10 120.97 6.43
4 0 -9 20.86 2.47
-4 0 9 20.65 2.81
-4 0 8 46.79 4.08
4 0 -8 45.4 3.46
-4 0 7 1.9 1.08
4 0 -7 1.43 0.71
-4 0 6 91.74 5.23
4 0 -6 97.74 4.58
-4 0 5 13.31 1.88
4 0 -5 16.37 1.91
4 0 -4 17.72 1.38
-4 0 4 15.62 1.92
4 0 -4 17.14 1.76
4 0 -3 0.44 0.57
-4 0 3 -0.34 0.8
4 0 -3 0.7 0.75
4 0 -2 10.11 1.27
4 0 -2 10.16 0.36
-4 0 2 11.88 1.5
4 0 -2 10.04 1.08
4 0 -1 814.86 17.58
-4 0 1 803.46 17.04
4 0 -1 824.34 13.7
4 0 0 48.16 1.02
-4 0 0 44.79 2.46
4 0 0 47.34 2.99
4 0 1 64.06 3.71
-4 0 -1 59.65 2.62
4 0 2 118.93 5.38
-4 0 -2 114.12 2.12
-4 0 -2 124.43 3.67
4 0 3 602.75 14.81
-4 0 -3 560.31 9.48
4 0 4 1.44 0.91
-4 0 -4 1.08 0.15
4 0 5 245.61 9.09
-4 0 -5 266.83 4.75
4 0 6 543.7 15.59
-4 0 -6 595.68 10.16
-4 0 -7 10.37 0.48
4 0 7 10 1.78
-4 0 -7 10.87 1.65
-4 0 -8 39.27 3.37
-4 0 -8 38.97 1.11
4 0 8 35.55 3.09
-4 0 -9 1.65 0.9
-4 0 -9 1.32 0.23
-4 0 -10 33.72 3.28
4 0 10 33.34 2.25
4 0 10 32.87 2.22
-4 0 -10 31.96 1.03
-4 0 -10 28.65 7.39
-4 0 -10 26.47 7.45
4 0 11 0.11 0.4
-4 0 -11 1.32 0.89
4 0 11 -0.32 0.46
4 0 11 0.17 0.48
-4 0 -11 0.12 0.18
-4 0 -11 0.06 0.46
-4 0 -12 0.12 0.16
4 0 12 -0.38 0.43
4 0 12 -0.07 0.42
4 0 12 0.49 0.61
4 0 12 0.32 0.59
-4 0 -12 0.72 0.63
4 0 13 47.83 2.73
4 0 13 44.53 2.9
-4 0 -13 49.8 3
4 0 13 51.36 3.25
4 0 13 48.46 3.07
-4 0 -13 47.7 10.87
-4 0 -13 45.43 1.27
4 0 14 53.92 2.9
4 0 14 52.7 3.05
4 0 14 54.81 3.19
4 0 14 55.09 3.36
-4 0 -14 58.27 11.82
-4 0 -14 60.77 3.11
-4 0 -14 54.53 1.33
4 0 15 1.19 0.55
4 0 15 2.1 0.61
4 0 15 0.4 0.57
4 0 15 1.21 0.55
-4 0 -15 1.4 1.93
4 0 16 11.44 1.32
4 0 16 11.7 1.23
-4 0 -16 12.54 4.4
4 0 17 23.51 1.55
4 0 17 23.79 1.41
-4 0 -17 24.53 5.07
-4 -1 18 1.78 0.57
-4 -1 18 2.27 0.42
-4 -1 17 41.33 2.25
-4 -1 17 36.28 2.74
-4 -1 16 25.2 2.03
-4 -1 16 25.07 2.55
-4 -1 16 28.93 1.78
-4 -1 15 145.02 6.65
-4 -1 15 152.92 5.76
-4 -1 15 161.65 5.32
-4 -1 14 50.08 3.72
-4 -1 14 55.31 3.04
-4 -1 13 2.99 1.14
-4 -1 13 5.26 1.01
-4 -1 12 15.26 1.69
-4 -1 12 16.53 2.48
4 1 -12 14.05 2.18
-4 -1 12 18.5 1.71
-4 -1 11 71.41 3.73
-4 -1 11 63.78 3.32
4 1 -11 67.83 4.67
-4 -1 11 69.24 5.04
-4 -1 11 77.53 3.48
-4 -1 10 1.75 0.97
4 1 -10 0.69 0.55
-4 -1 9 1.66 0.84
4 1 -9 1.2 0.72
-4 -1 8 12.18 2.21
4 1 -8 11.35 1.79
-4 -1 7 35.62 3.37
4 1 -7 33.88 2.74
-4 -1 6 348.68 11.17
4 1 -6 337.98 9.36
4 1 -5 543.73 10.99
-4 -1 5 572.24 14.67
4 1 -5 557.05 12.64
4 1 -4 483.93 10.66
-4 -1 4 486.9 12.78
4 1 -4 481.43 10.89
4 1 -3 2065.04 37.97
-4 -1 3 2118.7 39.56
4 1 -3 2104.37 37.03
-4 -1 2 219.31 7
4 1 -2 215.2 5.45
4 1 -2 214.09 6.66
-4 -1 1 883.96 18.39
4 1 -1 885.02 14.74
4 1 -1 890.48 18.91
-4 -1 0 2220.88 41.02
4 1 0 2293.55 37.6
4 1 0 2180.56 42.43
-4 -1 -1 72.43 3.12
4 1 1 72.34 4.02
-4 -1 -2 276.63 6.89
4 1 2 254.8 8.64
-4 -1 -2 257.87 4.47
4 1 3 152.71 6.56
-4 -1 -3 156.8 2.84
4 1 4 452.46 13.24
-4 -1 -4 465.81 7.96
4 1 5 77.93 4.85
-4 -1 -5 81.22 1.71
4 1 6 47.84 3.84
-4 -1 -6 48.05 1.19
-4 -1 -6 46.44 3.13
-4 -1 -7 161.5 6.59
4 1 7 149.85 7
-4 -1 -7 159.09 3.12
-4 -1 -8 0.75 0.63
4 1 8 -0.4 0.67
-4 -1 -8 0.68 0.2
-4 -1 -9 13.38 1.94
-4 -1 -9 13.41 0.63
-4 -1 -10 47.97 2.96
-4 -1 -10 44.92 9.68
-4 -1 -10 45.71 1.32
4 1 10 52.98 2.92
4 1 10 45.88 2.7
-4 -1 -10 46.72 3.82
-4 -1 -11 26.77 0.96
4 1 11 28.32 2.19
-4 -1 -11 24.77 2.76
-4 -1 -11 28.17 2.34
4 1 11 27.51 2.25
4 1 12 51.09 3.32
-4 -1 -12 57.82 12.08
-4 -1 -12 51.69 3.27
4 1 12 55.56 3.37
4 1 12 52.03 3.16
-4 -1 -12 50.27 1.41
4 1 13 7.8 1.33
4 1 13 7.02 1.25
4 1 13 6.97 1.17
-4 -1 -13 8.1 5.05
-4 -1 -13 7.32 0.44
-4 -1 -13 6.41 1.23
4 1 14 85.55 4.28
4 1 14 83.83 3.98
-4 -1 -14 94.09 14.4
-4 -1 -14 86.25 3.97
4 1 14 78.72 3.96
4 1 15 52.3 2.83
4 1 15 58.52 3.25
4 1 15 58.31 3.08
-4 -1 -15 61.33 10.75
-4 -1 -15 61.47 2.83
4 1 16 1.45 0.6
4 1 16 2.77 0.67
-4 -1 -16 1.88 1.65
4 1 17 3.51 0.6
4 1 17 3.64 0.53
-4 -2 18 18.27 1.62
-4 -2 18 22.35 1.21
-4 -2 17 9.44 0.88
-4 -2 17 9.49 1.08
-4 -2 17 9.83 1.57
-4 -2 16 1.66 0.85
-4 -2 16 1.03 0.58
-4 -2 16 0.59 0.44
-4 -2 15 28.83 2.84
-4 -2 15 29.9 2.34
-4 -2 15 29.46 2.23
-4 -2 14 66.78 4.3
-4 -2 14 75.1 3.94
-4 -2 14 72.24 3.71
-4 -2 13 50.45 3.52
-4 -2 13 45.05 3.03
-4 -2 13 54.67 3.19
-4 -2 12 6.84 1.29
4 2 -12 5.48 1.31
-4 -2 12 6.91 1.15
-4 -2 12 4.74 1.33
-4 -2 11 4.93 0.98
-4 -2 11 5.25 1.06
-4 -2 11 3.98 0.9
-4 -2 11 5.43 1.37
4 2 -11 4.1 1.15
-4 -2 10 43.93 4
4 2 -10 41.36 3.38
4 2 -9 8.11 1.54
-4 -2 9 8.07 1.66
-4 -2 8 229.59 9.32
4 2 -8 224.93 7.77
-4 -2 7 130.95 6.52
4 2 -7 125.77 5.18
-4 -2 6 571.63 15.39
4 2 -6 563.43 12.97
4 2 -5 290.26 7.12
-4 -2 5 283.22 9.52
4 2 -5 293.26 7.55
-4 -2 4 246.05 8.22
4 2 -4 240.47 6.14
4 2 -4 238.47 6.73
4 2 -3 0.16 0.25
-4 -2 3 0.19 0.5
4 2 -3 0.05 0.39
-4 -2 2 272.48 8.25
4 2 -2 271.89 5.8
4 2 -2 262.62 7.94
-4 -2 1 68.15 3.49
4 2 -1 65.82 3.65
4 2 -1 68.54 1.39
-4 -2 0 422.8 10.34
4 2 0 408.07 6.97
4 2 0 404.21 11.15
-4 -2 -1 3535.87 60.01
4 2 1 3234.38 61.77
-4 -2 -2 32.44 2.19
-4 -2 -2 29.7 0.7
4 2 2 28.98 2.81
-4 -2 -3 1948.64 32.18
4 2 3 1968.24 39.06
-4 -2 -4 13.76 1.31
4 2 4 14.79 2.07
-4 -2 -4 14.5 0.51
4 2 5 142.6 6.95
-4 -2 -5 142.44 5.23
-4 -2 -5 149.41 2.86
4 2 6 18.73 2.51
-4 -2 -6 19.5 1.88
-4 -2 -6 19.74 0.68
4 2 7 80.71 5.13
-4 -2 -7 84.74 4.33
-4 -2 -7 85.19 1.92
-4 -2 -8 46.74 1.29
4 2 8 47.15 3.64
-4 -2 -8 47.23 3.35
-4 -2 -9 5.01 3.67
4 2 9 3.68 0.74
-4 -2 -9 4.29 0.37
4 2 9 2.88 0.68
-4 -2 -9 4.47 1.18
-4 -2 -9 4 0.84
4 2 10 27.61 2.16
4 2 10 26.65 2.08
-4 -2 -10 25.57 2.28
-4 -2 -10 25.83 7
-4 -2 -10 25.71 0.93
-4 -2 -11 -0.01 0.18
4 2 11 0.65 0.56
4 2 11 -0.26 0.53
-4 -2 -11 -1.04 2.02
-4 -2 -11 0.65 0.63
4 2 12 36.55 2.72
4 2 12 34.66 2.88
4 2 12 37.41 2.65
-4 -2 -12 35.15 1.12
-4 -2 -12 36.8 2.84
-4 -2 -12 33.23 8.84
-4 -2 -13 74.89 1.74
4 2 13 68.99 3.96
4 2 13 72.92 3.96
4 2 13 74.15 3.82
-4 -2 -13 72.32 3.98
-4 -2 -13 66 12.26
4 2 14 0.96 0.54
4 2 14 1.41 0.71
4 2 14 1.06 0.59
-4 -2 -14 0.94 3.17
-4 -2 -14 0.75 0.67
4 2 15 35.32 2.35
4 2 15 38.22 2.53
4 2 15 37.35 2.31
-4 -2 -15 34.39 7.7
-4 -2 -15 37.89 2.28
-4 -2 -16 40.47 1.76
4 2 16 43.43 2.36
4 2 16 41.2 2.11
-4 -2 -16 40.3 7.17
4 2 17 14.9 1.01
4 2 17 15.78 0.95
-4 -2 -17 18.24 3.57
-4 -3 18 27.26 1.27
-4 -3 18 28.02 1.23
-4 -3 17 6.68 0.88
-4 -3 17 7.64 0.91
-4 -3 16 0.72 0.56
-4 -3 16 0.22 0.39
-4 -3 16 0.22 0.48
-4 -3 15 0.76 0.84
-4 -3 15 0.17 0.46
-4 -3 15 0.38 0.56
-4 -3 14 11.74 1.51
-4 -3 14 9.03 1.59
-4 -3 14 9.35 1.33
-4 -3 13 10.82 1.5
-4 -3 13 11.82 1.61
-4 -3 13 9.28 1.35
-4 -3 12 3.85 0.99
-4 -3 12 4.08 0.95
-4 -3 12 5.29 1.03
4 3 -12 2.76 1.08
-4 -3 11 0.57 0.56
-4 -3 11 1.21 0.59
4 3 -11 0.84 0.73
-4 -3 11 -0.45 0.61
-4 -3 11 0.11 0.37
-4 -3 11 0.7 0.72
-4 -3 10 143.33 7.37
4 3 -10 139.28 6.15
-4 -3 9 34.49 3.43
-4 -3 9 39.51 3.73
4 3 -9 37.55 2.88
-4 -3 8 9.75 1.85
-4 -3 8 10.79 1.94
4 3 -8 11.08 1.44
-4 -3 7 1.47 0.89
4 3 -7 0.87 0.44
-4 -3 7 0.82 0.65
-4 -3 6 162.24 7.18
4 3 -6 169.85 5.28
4 3 -6 161.06 2.83
4 3 -5 0.87 0.08
-4 -3 5 0.71 0.64
-4 -3 5 0.06 0.57
4 3 -5 0.12 0.35
4 3 -5 0.8 0.39
-4 -3 4 613.45 15.08
4 3 -4 622.65 11.46
4 3 -4 575.54 9.59
4 3 -4 585.74 13.27
-4 -3 3 26.26 2.42
4 3 -3 23.03 1.08
4 3 -3 22.97 2.07
4 3 -2 93.55 4.49
-4 -3 2 99.02 4.67
4 3 -1 0.86 0.14
4 3 -1 1.02 0.78
-4 -3 1 1.09 0.75
-4 -3 0 14.95 1.72
4 3 0 15.39 1.94
4 3 0 15.03 0.47
-4 -3 -1 33.55 2.5
-4 -3 -1 31.94 0.73
4 3 1 29.7 2.79
-4 -3 -2 64.76 3.46
-4 -3 -2 63.05 1.29
4 3 2 57.05 4.05
-4 -3 -3 1.56 0.19
-4 -3 -3 0.85 0.29
4 3 3 2.06 1.07
-4 -3 -4 26.38 0.76
4 3 4 24.72 2.83
-4 -3 -4 26.72 1.68
-4 -3 -5 1.07 0.18
4 3 5 1.37 0.82
-4 -3 -5 1.05 0.41
-4 -3 -6 7.49 1.1
-4 -3 -6 6.41 0.39
4 3 6 6.86 1.63
4 3 7 6.07 1.43
-4 -3 -7 7.2 0.44
-4 -3 -8 32.83 1.05
4 3 8 33.15 3.15
-4 -3 -9 26.35 7.83
4 3 9 20.45 1.75
4 3 9 21.65 1.78
-4 -3 -9 22.06 0.85
-4 -3 -9 20.33 1.97
4 3 10 14.57 1.58
4 3 10 13.61 1.49
-4 -3 -10 14.43 1.79
-4 -3 -10 12.61 0.65
4 3 11 47.19 3.34
4 3 11 48.56 3.06
4 3 11 49.2 2.97
-4 -3 -11 48.64 3.32
-4 -3 -11 46.76 10.21
-4 -3 -11 46.87 1.37
-4 -3 -12 1.61 3.03
4 3 12 0.33 0.62
4 3 12 0.43 0.6
4 3 12 0.82 0.67
-4 -3 -12 1.92 0.79
-4 -3 -12 0.57 0.2
-4 -3 -13 30.3 2.58
4 3 13 28.47 2.55
4 3 13 26.8 2.32
4 3 13 29.15 2.26
-4 -3 -13 20.94 7.05
-4 -3 -14 69.37 3.61
4 3 14 60.93 3.49
4 3 14 64.1 3.46
4 3 14 68.04 3.33
-4 -3 -14 64.56 11.42
4 3 15 40.68 2.46
4 3 15 43.26 2.35
-4 -3 -15 37.11 7.58
-4 -3 -15 45.36 2.46
4 3 15 44.08 2.57
-4 -3 -16 1.27 0.39
4 3 16 1.47 0.47
4 3 16 1.5 0.4
-4 -4 18 29.27 1.77
-4 -4 18 34.26 1.3
-4 -4 17 42.56 2.05
-4 -4 17 46.91 2.34
-4 -4 16 2.24 0.68
-4 -4 16 2.18 0.68
-4 -4 16 3.79 0.87
-4 -4 15 -0.07 0.59
-4 -4 15 -0.06 0.49
-4 -4 15 0.14 0.62
-4 -4 14 92.55 4.66
-4 -4 14 93.99 4.36
-4 -4 14 100.13 4.63
-4 -4 13 1.58 0.72
-4 -4 13 1.38 0.7
-4 -4 13 0.74 0.5
-4 -4 13 1.13 0.57
-4 -4 12 1.21 0.56
-4 -4 12 1.62 0.65
-4 -4 12 2.64 0.78
-4 -4 12 0.46 0.41
-4 -4 12 1.33 0.73
-4 -4 11 5.4 0.95
-4 -4 11 4.97 0.87
-4 -4 11 3.83 0.79
-4 -4 11 5.76 1.03
-4 -4 11 6.82 1.69
-4 -4 11 4.44 0.78
-4 -4 10 35.69 2.31
-4 -4 10 34.12 3.43
-4 -4 10 35.56 3.62
-4 -4 9 82.11 5.35
-4 -4 9 81.24 5.45
4 4 -8 230.67 4.06
-4 -4 8 217.71 9.18
-4 -4 8 206.74 8.93
-4 -4 7 442.86 13.84
-4 -4 7 427.72 13.39
4 4 -7 454.47 7.68
-4 -4 6 131.37 6.46
-4 -4 6 120.13 6.06
4 4 -6 126.47 2.28
-4 -4 5 49.45 3.74
-4 -4 5 58.4 4.06
4 4 -5 56.86 1.11
4 4 -5 56.01 3.07
-4 -4 4 177.53 7.22
4 4 -4 165.47 6.05
-4 -4 4 161.92 6.79
-4 -4 3 38.52 3.1
4 4 -3 36.48 2.74
-4 -4 2 17.07 1.99
4 4 -2 16.63 1.91
4 4 -2 17.12 0.53
-4 -4 1 118.57 5.31
4 4 -1 109.53 5.36
4 4 -1 114.15 2.17
-4 -4 0 51.46 3.85
-4 -4 0 59.25 1.15
-4 -4 0 59.45 3.64
4 4 0 57.52 1.23
4 4 0 51.68 3.67
-4 -4 -1 346.8 10.29
4 4 1 343.55 10.96
-4 -4 -1 352.43 6
-4 -4 -2 8.67 1.72
-4 -4 -2 8.82 0.36
4 4 2 8.81 1.73
-4 -4 -3 98.81 1.98
4 4 3 87.53 5.42
-4 -4 -4 17.28 0.61
4 4 4 19.08 2.6
-4 -4 -5 88.21 1.91
4 4 5 75.75 5.33
-4 -4 -6 0.22 0.16
4 4 6 -0.05 0.62
4 4 7 0.68 0.85
-4 -4 -7 0.05 0.15
4 4 8 4.17 0.78
4 4 8 3.28 0.7
-4 -4 -8 2.41 2.83
-4 -4 -8 3.93 0.36
-4 -4 -8 4.02 0.9
-4 -4 -9 17.91 1.94
4 4 9 20.15 1.77
-4 -4 -9 19.74 0.82
4 4 9 19.67 1.71
-4 -4 -9 16.61 6.45
-4 -4 -10 2.46 3.06
4 4 10 4.12 0.84
4 4 10 1.89 0.65
-4 -4 -10 1.55 0.29
-4 -4 -10 1.29 0.75
4 4 11 19.85 2.21
-4 -4 -11 19.66 2.17
4 4 11 21.77 2.04
4 4 11 19.32 1.85
-4 -4 -11 27.59 8.47
4 4 12 13.75 1.64
4 4 12 14.61 1.6
-4 -4 -12 14.2 1.82
-4 -4 -12 12.91 5.81
4 4 12 15.6 1.91
4 4 13 13.78 1.72
4 4 13 15.07 1.69
4 4 13 15.31 1.6
-4 -4 -13 13.58 1.75
-4 -4 -13 14.54 5.92
4 4 14 41.11 2.74
4 4 14 41.98 2.62
4 4 14 42.41 2.44
-4 -4 -14 46.72 9.08
-4 -4 -14 43.7 2.78
-4 -4 -15 42.76 2.31
-4 -4 -15 45.81 7.94
4 4 15 42.47 2.41
4 4 15 42 2.28
4 4 15 44.5 2.16
4 4 16 4.41 0.62
4 4 16 4.67 0.54
-4 -4 -16 3.54 1.92
-4 -5 18 1.96 0.4
-4 -5 17 0.36 0.45
-4 -5 17 0.57 0.32
-4 -5 17 0.34 0.46
-4 -5 16 13.38 1.52
-4 -5 16 14.97 1.35
-4 -5 16 16.86 1.64
-4 -5 15 1.83 0.62
-4 -5 15 1.09 0.71
-4 -5 15 0.35 0.6
-4 -5 14 0.75 0.72
-4 -5 14 0.66 0.46
-4 -5 14 1.13 0.59
-4 -5 14 1.98 0.56
-4 -5 13 85.3 4.04
-4 -5 13 78.44 3.92
-4 -5 13 88.32 3.82
-4 -5 13 93.13 4.48
-4 -5 13 88.77 3.76
-4 -5 12 1.19 0.52
-4 -5 12 2.36 0.69
-4 -5 12 2.09 0.7
-4 -5 12 2.22 0.71
-4 -5 12 1.26 0.75
-4 -5 11 64.49 2.95
-4 -5 11 74.17 3.69
-4 -5 11 69.81 4.76
-4 -5 11 65.48 3.3
-4 -5 11 74.67 3.39
-4 -5 11 63.46 4.9
-4 -5 11 73.37 3.43
-4 -5 10 108.92 3.81
-4 -5 10 108.4 6.16
-4 -5 10 109.26 4.3
-4 -5 10 100.21 4.07
-4 -5 10 108.49 4.19
-4 -5 10 118.34 4.23
-4 -5 10 101.56 6.38
-4 -5 10 111.33 4.27
-4 -5 9 93.43 5.77
-4 -5 9 88.35 5.81
-4 -5 8 178.72 8.35
-4 -5 8 186.34 8.45
4 5 -8 197.14 3.54
-4 -5 7 12.28 1.97
-4 -5 7 13.44 2.05
4 5 -7 12.7 0.42
4 5 -6 20.39 1.79
-4 -5 6 18.44 2.41
-4 -5 6 16.85 2.33
4 5 -6 17.44 0.49
-4 -5 5 16.2 2.2
4 5 -5 17.07 1.82
-4 -5 5 17.35 2.24
-4 -5 4 6.75 1.39
4 5 -4 8.96 1.38
-4 -5 4 9.67 1.69
4 5 -3 0.52 0.6
-4 -5 3 0.71 0.64
4 5 -2 115.91 2.22
-4 -5 2 106.25 5.54
4 5 -2 109.31 5.48
-4 -5 1 289.86 10.36
-4 -5 1 343.96 10.59
4 5 -1 306.42 10.36
4 5 -1 326.54 5.64
-4 -5 0 26.08 2.93
-4 -5 0 31.62 2.83
4 5 0 26.98 2.86
4 5 0 28.74 0.74
-4 -5 -1 152.23 7.55
4 5 1 154.78 7.33
4 5 2 4.48 1.26
-4 -5 -2 3.11 1.22
-4 -5 -2 4.72 0.27
4 5 3 12.7 2.13
-4 -5 -3 11.94 2.23
-4 -5 -3 15.27 0.56
4 5 4 4.17 1.37
-4 -5 -4 4.53 0.32
-4 -5 -5 36.28 1.05
4 5 5 31.37 3.46
4 5 6 11.93 0.47
-4 -5 -6 12.97 0.6
4 5 7 23 2.84
-4 -5 -7 21.54 1.94
-4 -5 -7 22.1 0.83
-4 -5 -8 159.59 6.09
-4 -5 -8 162.25 3.34
4 5 8 159.57 5.12
4 5 8 160.21 5.13
-4 -5 -8 161.68 16.62
-4 -5 -9 25.53 0.96
-4 -5 -9 24.03 2.34
4 5 9 25.03 1.97
4 5 9 24.89 1.89
-4 -5 -9 19.43 6.5
4 5 10 148.74 5.45
4 5 10 154.11 5.33
-4 -5 -10 134.49 17.18
-4 -5 -10 147.12 6.22
4 5 11 102.35 5.1
4 5 11 110.29 4.67
4 5 11 104.24 4.35
-4 -5 -11 109.33 5.28
-4 -5 -12 30.96 2.68
4 5 12 29.28 2.65
4 5 12 30.56 2.36
4 5 12 32.13 2.26
-4 -5 -12 32.43 8.68
4 5 13 88.38 4.35
4 5 13 91.7 4.05
4 5 13 90.92 3.75
-4 -5 -13 96.56 4.53
4 5 14 13.26 1.21
4 5 14 12.8 1.46
4 5 14 13.63 1.37
-4 -5 -14 11.1 3.88
-4 -5 -14 12.67 1.42
4 5 15 3.21 0.61
4 5 15 2.94 0.49
-4 -5 -15 4.88 2.42
4 5 15 3.32 0.7
-4 -5 -15 2.07 0.48
-4 -6 18 7.73 0.75
-4 -6 17 1.14 0.54
-4 -6 16 13.87 1.4
-4 -6 16 18.12 1.66
-4 -6 16 17.17 1.28
-4 -6 15 0.95 0.51
-4 -6 15 2.11 0.61
-4 -6 15 2.31 0.61
-4 -6 14 2.21 0.66
-4 -6 14 2.97 0.76
-4 -6 14 3.89 1.06
-4 -6 14 2.8 0.71
-4 -6 13 12.05 1.48
-4 -6 13 9.45 1.29
-4 -6 13 13.49 1.73
-4 -6 13 10.88 1.38
-4 -6 12 25.4 2.01
-4 -6 12 28.49 2.41
-4 -6 12 26.28 2.29
-4 -6 12 25.83 2.09
-4 -6 12 29.49 2.24
-4 -6 12 26.9 2.15
-4 -6 11 1.43 0.67
-4 -6 11 -0.51 0.66
-4 -6 11 0.78 0.49
-4 -6 11 0.7 0.63
-4 -6 11 0.3 0.42
-4 -6 11 1.14 0.6
-4 -6 11 0.01 0.5
-4 -6 10 53.89 2.82
-4 -6 10 53.42 2.64
-4 -6 10 56.2 3.03
-4 -6 10 53.39 4.25
-4 -6 10 49.69 2.75
-4 -6 10 53.4 2.91
-4 -6 10 47.67 4.4
-4 -6 10 55.89 3.02
-4 -6 9 4.57 0.84
-4 -6 9 5.77 0.97
-4 -6 9 4.59 1.4
-4 -6 9 3.36 1.16
-4 -6 8 43.75 3.95
-4 -6 8 41.86 4
4 6 -8 46.19 1.06
4 6 -7 69.45 1.44
-4 -6 7 69.8 4.92
4 6 -6 15.06 1.76
-4 -6 6 18.56 2.5
-4 -6 6 13.96 2.2
-4 -6 5 150.46 7.16
-4 -6 5 130.98 6.58
4 6 -5 143.83 6.08
4 6 -4 84.97 4.79
-4 -6 4 79.33 4.78
-4 -6 3 17.57 2.22
-4 -6 3 16.27 2.25
4 6 -3 19.18 2.3
4 6 -2 0.6 0.62
-4 -6 2 0.17 0.67
-4 -6 2 0.16 0.63
4 6 -2 0.51 0.12
4 6 -1 33.72 3.28
4 6 -1 34.95 0.85
-4 -6 1 37.25 3.28
-4 -6 1 32.02 3.29
-4 -6 0 19.69 2.4
-4 -6 0 14.72 2.35
4 6 0 15.04 2.32
4 6 1 132.35 6.9
-4 -6 -1 124.97 7.03
-4 -6 -2 28.34 3.34
4 6 2 27.34 3.16
4 6 3 93.96 6.06
-4 -6 -3 84.81 6.02
-4 -6 -4 93.65 6.54
-4 -6 -4 105.86 2.23
4 6 4 90.69 6.16
-4 -6 -5 22.51 0.81
4 6 5 20.61 2.87
4 6 6 57.52 4.76
4 6 6 60.07 1.38
4 6 7 17.66 1.39
-4 -6 -7 16.06 5.29
-4 -6 -7 14.01 1.67
4 6 7 14.95 2.41
4 6 8 6.54 0.95
-4 -6 -8 6.3 1.22
4 6 9 15.96 1.6
4 6 9 19.49 1.59
-4 -6 -9 13.92 6.11
-4 -6 -9 16.66 2.09
4 6 10 41.48 3.17
4 6 10 41.2 2.58
4 6 10 42.88 2.48
-4 -6 -10 37.97 8.99
-4 -6 -10 41.98 3.22
4 6 11 5.76 1.25
4 6 11 3.41 0.85
4 6 11 4.22 0.83
-4 -6 -11 3.85 2.59
-4 -6 -11 3.89 1.14
4 6 12 5.4 1.11
4 6 12 5.61 1.04
4 6 12 3.98 0.76
-4 -6 -12 4.19 3.38
-4 -6 -12 5.33 1.21
4 6 13 12.68 1.55
4 6 13 10.72 1.22
4 6 13 13.37 1.2
-4 -6 -13 8.73 3.86
-4 -6 -13 13.9 1.67
4 6 14 1.65 1.97
-4 -6 -14 5.88 0.95
4 6 14 6.32 0.98
4 6 14 4.21 0.68
4 6 14 6.46 0.72
-4 -6 -14 6.17 2.98
-4 -6 -15 1.09 1.11
-4 -6 -15 1.75 0.48
-4 -7 18 6.23 0.63
-4 -7 17 9.79 1.04
-4 -7 16 31.09 1.58
-4 -7 16 36.72 1.85
-4 -7 16 35.06 2.28
-4 -7 15 28.22 2.28
-4 -7 15 27.62 1.96
-4 -7 15 25 1.69
-4 -7 15 25.94 1.77
-4 -7 14 -0.04 0.58
-4 -7 14 0.63 0.57
-4 -7 14 0.42 0.49
-4 -7 14 -0.19 0.55
-4 -7 13 25.29 2.02
-4 -7 13 24.06 2.1
-4 -7 13 25.75 2.32
-4 -7 13 25.1 2.19
-4 -7 12 5.47 1.12
-4 -7 12 5.97 1.09
-4 -7 12 6.26 1.2
-4 -7 12 6.01 0.96
-4 -7 12 6.56 1.19
-4 -7 12 7.6 1.29
-4 -7 11 11.36 1.31
-4 -7 11 11.59 1.37
-4 -7 11 12.66 1.54
-4 -7 11 13.4 1.51
-4 -7 11 13.94 1.62
-4 -7 11 13.08 1.59
-4 -7 11 13.06 1.6
-4 -7 10 0.79 0.47
-4 -7 10 1.13 0.62
-4 -7 10 -0.07 0.63
-4 -7 10 0.81 0.58
-4 -7 10 0.67 0.5
-4 -7 10 1.26 0.64
-4 -7 10 -0.51 0.84
-4 -7 10 1.17 0.98
-4 -7 10 -0.08 0.62
-4 -7 9 -0.3 0.68
-4 -7 9 1 0.49
-4 -7 9 0.45 0.41
-4 -7 9 1.09 0.52
-4 -7 9 -0.32 0.47
-4 -7 9 0.5 0.57
-4 -7 9 0.6 0.46
-4 -7 9 0.58 0.53
-4 -7 8 28.32 3.34
-4 -7 8 29.42 3.22
4 7 -8 27.79 0.77
-4 -7 7 14.66 2.29
-4 -7 7 11.17 2.04
4 7 -7 12.88 0.47
-4 -7 6 0 0.62
4 7 -6 0.25 0.46
-4 -7 6 -0.13 0.6
4 7 -5 4.9 1.22
-4 -7 5 3.73 1.14
-4 -7 5 4.17 1.18
-4 -7 4 4.99 1.27
4 7 -4 9.04 1.7
-4 -7 4 7.55 1.63
4 7 -3 7.87 1.63
-4 -7 3 8.2 1.73
-4 -7 3 8.66 1.72
4 7 -3 8.32 0.37
-4 -7 2 139.32 7.22
4 7 -2 151.63 7.41
-4 -7 2 162.33 7.6
4 7 -2 153.39 2.84
-4 -7 1 25.01 3.06
-4 -7 1 34.87 3.36
4 7 -1 32.16 3.37
4 7 -1 31.73 0.78
-4 -7 0 66.37 5.19
4 7 0 77.59 5.42
-4 -7 -1 83.59 5.97
4 7 1 95.2 6.09
4 7 2 12.73 2.35
-4 -7 -2 11.87 2.37
4 7 3 2.84 1.25
-4 -7 -3 1.5 0.9
4 7 4 4.13 1.56
-4 -7 -4 4.09 1.76
4 7 5 30.91 3.62
4 7 5 34.31 1
-4 -7 -6 104.46 12.15
-4 -7 -6 108.23 4.65
4 7 6 107.4 6.67
4 7 6 115.77 2.37
-4 -7 -7 30.94 7.1
-4 -7 -7 33.15 2.67
-4 -7 -8 44.98 8.97
-4 -7 -8 65.24 3.99
4 7 9 61.82 3.84
-4 -7 -9 58.44 10.63
-4 -7 -9 63.33 3.94
4 7 10 2.59 0.94
-4 -7 -10 1.92 0.73
4 7 10 2.95 0.67
-4 -7 -10 3.13 0.98
4 7 11 92.16 4.57
4 7 11 86.86 3.62
4 7 11 91.5 3.4
-4 -7 -11 94.72 4.74
4 7 12 45.05 2.33
4 7 12 52.04 2.26
4 7 12 49.41 3.08
-4 -7 -12 44.83 8.58
-4 -7 -12 51.78 3.25
4 7 13 90.27 3.82
4 7 13 75.84 2.89
4 7 13 86.18 2.7
-4 -7 -13 71.95 9.73
-4 -7 -13 90.52 3.94
4 7 14 18.42 1.4
4 7 14 13.79 3.26
-4 -7 -14 16.05 3.73
-4 -7 -14 19.6 1.49
-4 -8 18 5.69 0.53
-4 -8 17 20.42 1
-4 -8 17 22.33 1.48
-4 -8 16 0.2 0.25
-4 -8 16 0.56 0.36
-4 -8 15 0.11 0.47
-4 -8 15 0.99 0.55
-4 -8 15 0.79 0.64
-4 -8 14 53.65 3.05
-4 -8 14 46.53 2.37
-4 -8 14 49.85 3.14
-4 -8 14 51.84 2.95
-4 -8 13 11.41 1.57
-4 -8 13 12.26 1.56
-4 -8 13 10.16 1.18
-4 -8 13 11.38 1.5
-4 -8 13 11.27 1.49
-4 -8 12 1.85 0.83
-4 -8 12 1.81 0.7
-4 -8 12 1.6 0.59
-4 -8 12 2.12 0.79
-4 -8 12 0.72 0.52
-4 -8 12 2.43 0.85
-4 -8 11 5.49 1.04
-4 -8 11 4.89 1.07
-4 -8 11 4.48 1.02
-4 -8 11 5.76 1.1
-4 -8 11 6.47 1.06
-4 -8 11 6.69 1.26
-4 -8 11 4.27 1.06
-4 -8 10 4.11 0.9
-4 -8 10 4.13 0.86
-4 -8 10 4.59 1.06
-4 -8 10 2.73 0.96
-4 -8 10 3.93 0.91
-4 -8 10 5.79 1.01
-4 -8 10 4.76 0.99
-4 -8 10 3.78 1.37
-4 -8 10 3.5 0.81
-4 -8 9 3.04 0.84
-4 -8 9 2.44 1.16
-4 -8 9 3.9 0.94
-4 -8 9 3.76 0.86
-4 -8 9 3.44 0.77
-4 -8 9 4.37 1.29
-4 -8 9 4.46 0.9
-4 -8 9 3.65 0.81
-4 -8 9 3.03 0.94
-4 -8 9 4.29 0.9
-4 -8 8 27.45 1.97
-4 -8 8 25.53 1.87
-4 -8 8 23.81 1.81
-4 -8 8 27.25 2.11
-4 -8 8 27.56 2
-4 -8 8 27.99 2
-4 -8 8 26.66 1.82
-4 -8 8 24.12 1.96
-4 -8 8 22.52 2.96
-4 -8 8 25.49 1.83
-4 -8 8 26.94 3.15
-4 -8 7 2.8 0.79
-4 -8 7 2.54 0.66
-4 -8 7 1.85 1.18
-4 -8 7 2.09 0.64
-4 -8 7 3.36 1.22
4 8 -7 2.66 0.22
-4 -8 6 124.01 7.01
4 8 -6 112.79 5.65
-4 -8 5 2.55 1.04
4 8 -5 4.09 1.21
-4 -8 5 4.35 1.41
-4 -8 4 48.24 3.71
-4 -8 4 56.29 4.56
4 8 -4 50.41 4.16
4 8 -4 54.6 1.24
-4 -8 4 43.16 3.61
4 8 -3 1.55 0.15
4 8 -3 1.17 0.84
-4 -8 3 1.23 0.87
-4 -8 3 1.67 0.78
-4 -8 2 36.18 3.73
4 8 -2 40.37 3.9
4 8 -1 13.71 2.35
-4 -8 1 13.47 2.38
4 8 0 7.84 1.87
-4 -8 0 7.21 1.84
-4 -8 -1 24.23 3.37
4 8 1 25.86 3.36
4 8 2 11.07 2.21
-4 -8 -2 9.59 2.33
4 8 3 10.25 2.15
-4 -8 -3 11.61 2.62
-4 -8 -4 116.38 7.86
-4 -8 -4 132.34 4.64
4 8 4 120.11 7.36
4 8 4 125.61 2.67
4 8 5 22.81 3.06
-4 -8 -5 24.84 2.09
4 8 5 24.73 0.85
4 8 6 390.31 6.91
-4 -8 -6 360.12 10.22
-4 -8 -6 362.52 23.82
-4 -8 -7 7.81 4.02
-4 -8 -7 7.42 1.38
4 8 8 10.41 1.51
-4 -8 -8 10.5 1.59
-4 -8 -8 5.39 2.89
-4 -8 -8 10.64 1.63
4 8 9 10.64 1.56
-4 -8 -9 15.78 5.96
-4 -8 -9 9.97 1.33
-4 -8 -9 11.61 1.73
4 8 10 1.68 0.72
-4 -8 -10 0.95 0.69
-4 -8 -10 0.52 0.39
4 8 11 14.58 1.69
-4 -8 -11 13.94 4.74
-4 -8 -11 15.47 1.86
4 8 12 58.4 3.08
-4 -8 -12 51.67 8.38
-4 -8 -12 59.86 3.27
4 8 13 84.18 3.27
4 8 13 61.16 8.36
-4 -8 -13 64.03 7.71
-4 -8 -13 82.88 3.41
-4 -8 -14 6.12 0.67
-4 -9 17 65.88 2.42
-4 -9 16 10.16 1.1
-4 -9 16 10.11 1.02
-4 -9 16 8.71 0.8
-4 -9 15 0.29 0.34
-4 -9 15 0.27 0.45
-4 -9 15 -0.37 0.51
-4 -9 14 7.91 1.19
-4 -9 14 9.36 1.32
-4 -9 14 9.17 1.29
-4 -9 13 49.1 3.04
-4 -9 13 45.17 2.32
-4 -9 13 49.66 3.07
-4 -9 13 48.12 3.03
-4 -9 13 44.88 2.96
-4 -9 12 155.05 5.93
-4 -9 12 164.66 5.85
-4 -9 12 154.28 5.95
-4 -9 12 146.04 4.88
-4 -9 12 155.72 5.85
-4 -9 12 151.93 5.94
-4 -9 11 18.99 1.91
-4 -9 11 15.25 1.77
-4 -9 11 17.25 1.91
-4 -9 11 16.83 1.79
-4 -9 11 15.3 1.47
-4 -9 11 16.59 1.87
-4 -9 11 14.98 2.51
-4 -9 11 13.76 1.58
-4 -9 10 23 2.06
-4 -9 10 22.85 2.2
-4 -9 10 21.9 1.78
-4 -9 10 23.55 2.12
-4 -9 10 22.45 2.11
-4 -9 10 23.25 2.27
-4 -9 10 22.99 2.11
-4 -9 10 22.32 1.92
-4 -9 9 150.09 5.44
-4 -9 9 141.27 5.51
-4 -9 9 135.22 6.94
-4 -9 9 137.53 4.91
-4 -9 9 136.91 5.03
-4 -9 9 151.91 5.56
-4 -9 9 141.1 5.54
-4 -9 9 134.08 4.78
-4 -9 9 142.87 4.91
-4 -9 9 118.64 7.13
-4 -9 8 116.61 4.56
-4 -9 8 116.17 4.39
-4 -9 8 115.82 6.68
-4 -9 8 118.11 4.66
-4 -9 8 106.95 4.16
-4 -9 8 113.73 4.77
-4 -9 8 112.62 4.39
-4 -9 8 116.35 4.32
-4 -9 8 99.54 6.27
-4 -9 8 109.27 4.04
-4 -9 8 115.29 4.72
-4 -9 7 57.38 2.96
-4 -9 7 50.29 4.29
-4 -9 7 52.22 2.81
-4 -9 7 49.84 2.69
-4 -9 7 50.47 2.92
-4 -9 7 51.49 2.74
-4 -9 7 53.28 2.93
-4 -9 7 52.66 2.77
-4 -9 7 42.77 3.92
-4 -9 7 50.8 2.64
-4 -9 6 98.66 3.69
-4 -9 6 102.19 6.36
-4 -9 6 102.23 3.95
-4 -9 6 94.1 3.86
-4 -9 6 93 3.76
-4 -9 6 98.22 4
-4 -9 6 103.65 3.95
4 9 -6 97.77 5.63
-4 -9 6 84.5 5.5
-4 -9 6 103.14 4.05
-4 -9 5 32.84 3.57
-4 -9 5 34.09 2.11
4 9 -5 29.51 3.17
-4 -9 5 26.54 2.92
4 9 -4 10.37 2
-4 -9 4 12.94 2.27
-4 -9 4 11.73 1.97
4 9 -3 0.13 0.65
-4 -9 3 0.2 0.65
4 9 -2 -0.2 0.75
-4 -9 2 0.3 0.78
4 9 -1 13.25 2.53
-4 -9 1 10.87 2.23
-4 -9 0 25.19 3.5
4 9 0 28.99 3.71
-4 -9 -1 26.94 2.08
-4 -9 -1 25.99 3.58
-4 -9 -1 30 2.47
-4 -9 -1 28 2.12
-4 -9 -1 26.48 2.1
4 9 1 25.88 3.46
-4 -9 -1 27 1.89
4 9 2 71.64 5.76
-4 -9 -2 72.14 3.21
-4 -9 -2 66.28 5.88
-4 -9 -2 78.73 3.14
-4 -9 -2 77.26 3.74
-4 -9 -3 13.92 1.33
4 9 3 17.17 2.86
-4 -9 -3 14.78 1.31
-4 -9 -3 13.64 2.66
4 9 3 14.12 0.66
4 9 4 56.83 1.5
-4 -9 -4 54 5.25
-4 -9 -4 58.29 3.04
4 9 4 59.63 5.2
-4 -9 -5 12.03 1.47
4 9 5 12.43 0.61
-4 -9 -6 144.71 5.76
4 9 6 153.43 3.31
-4 -9 -7 124.95 6.08
-4 -9 -7 112.04 4.82
4 9 7 109.3 4.8
-4 -9 -7 109.24 5.11
4 9 8 6.25 1.21
-4 -9 -8 7.66 1.55
-4 -9 -8 1.99 1.88
-4 -9 -8 4.98 1
-4 -9 -8 5.99 1.31
4 9 9 1.24 0.71
-4 -9 -9 0.75 0.65
-4 -9 -9 1.43 0.57
-4 -9 -9 0.65 0.59
4 9 10 42.61 2.76
-4 -9 -10 40.44 2.13
-4 -9 -10 43.19 2.98
4 9 11 1.59 0.58
-4 -9 -11 2 0.7
-4 -9 -11 3.6 2.36
-4 -9 -12 1.81 0.61
4 9 12 2.66 0.62
4 9 12 0.67 1.78
-4 -9 -12 0.12 2.08
4 9 13 18.72 3.8
-4 -9 -13 27.12 1.55
-4 -10 17 6.17 2.03
-4 -10 16 3.89 0.54
-4 -10 16 4.78 0.66
-4 -10 16 3.87 0.65
-4 -10 15 12.14 1.26
-4 -10 15 13.96 1.32
-4 -10 15 12.52 1.22
-4 -10 14 3.35 0.79
-4 -10 14 3.2 0.82
-4 -10 14 2.47 0.75
-4 -10 13 0.41 0.46
-4 -10 13 0.34 0.56
-4 -10 13 0.16 0.51
-4 -10 13 -0.29 0.56
-4 -10 12 29.81 2.45
-4 -10 12 33.81 2.5
-4 -10 12 35.65 2.53
-4 -10 12 30.89 2.47
-4 -10 12 30.96 2.3
-4 -10 11 37.25 2.7
-4 -10 11 36.5 2.14
-4 -10 11 36.98 2.78
-4 -10 11 38.37 3.47
-4 -10 11 36.59 2.47
-4 -10 11 38.85 2.7
-4 -10 11 30.65 9.1
-4 -10 11 37.73 2.79
-4 -10 10 0.48 1.01
-4 -10 10 0.48 0.48
-4 -10 10 -0.28 0.5
-4 -10 10 -0.15 0.7
-4 -10 10 -0.12 0.54
-4 -10 10 -0.02 0.38
-4 -10 10 2.28 2.26
-4 -10 10 0.02 0.46
-4 -10 9 8.31 1.24
-4 -10 9 8.87 1.32
-4 -10 9 10.28 1.46
-4 -10 9 7.14 1
-4 -10 9 8.88 1.41
-4 -10 9 10.93 1.73
-4 -10 9 8.57 1.14
-4 -10 9 10.35 1.38
-4 -10 8 1.72 0.67
-4 -10 8 2.99 0.84
-4 -10 8 3.55 0.85
-4 -10 8 2.9 0.72
-4 -10 8 1.26 0.61
-4 -10 8 2.63 0.81
-4 -10 8 1.64 0.87
-4 -10 8 4.09 0.92
-4 -10 7 134 5.12
-4 -10 7 140.81 5.16
-4 -10 7 128.77 4.67
-4 -10 7 127.55 5.06
-4 -10 7 134.85 4.76
-4 -10 7 135.14 4.94
-4 -10 7 119.79 4.45
-4 -10 7 128.09 4.95
-4 -10 6 65.09 3.36
-4 -10 6 64.28 3.02
-4 -10 6 59.33 3.06
-4 -10 6 59.35 3
-4 -10 6 64.16 3.23
-4 -10 6 61.88 2.9
-4 -10 6 67.37 3.31
-4 -10 6 62.26 3.24
-4 -10 6 51.46 4.17
-4 -10 5 0.73 3.35
-4 -10 5 1.32 0.64
-4 -10 5 1.53 0.6
-4 -10 5 1.92 0.65
4 10 -5 2.17 1
-4 -10 5 1.92 0.61
-4 -10 5 1.93 0.68
-4 -10 5 1.99 0.56
-4 -10 5 1.96 0.73
-4 -10 5 1.67 0.5
-4 -10 5 2.45 0.65
-4 -10 4 15.43 1.59
-4 -10 4 15.5 1.26
-4 -10 4 11.78 1.16
4 10 -4 12.45 2.29
-4 -10 4 15.05 1.67
-4 -10 4 16.77 1.53
-4 -10 4 13.59 1.38
-4 -10 4 13.72 1.4
-4 -10 4 16.8 1.58
-4 -10 4 14.31 1.46
-4 -10 3 0.63 1.87
-4 -10 3 0.55 0.4
-4 -10 3 1.56 0.64
4 10 -3 1.62 1.13
-4 -10 3 1.3 0.61
-4 -10 3 0.65 0.34
-4 -10 3 1.06 0.54
-4 -10 3 -0.02 0.65
-4 -10 3 1.57 0.6
-4 -10 3 0.72 0.51
-4 -10 3 0.88 0.5
-4 -10 2 14.69 1.64
-4 -10 2 14.95 1.37
4 10 -2 12.22 2.43
-4 -10 2 14.45 1.46
-4 -10 2 16.2 1.56
-4 -10 2 11.43 2.27
-4 -10 2 13.79 1.51
-4 -10 2 17.69 1.6
-4 -10 2 15.65 1.55
-4 -10 2 14.33 1.51
-4 -10 1 -0.12 0.5
-4 -10 1 0.33 0.47
4 10 -1 -1.45 1.15
-4 -10 1 -0.53 0.57
-4 -10 1 0.38 0.62
-4 -10 1 0.16 0.45
-4 -10 1 -1.61 3.12
-4 -10 1 0.9 0.76
-4 -10 1 -0.62 0.41
-4 -10 1 -0.7 0.61
-4 -10 1 0.44 0.44
-4 -10 1 0.48 5.68
-4 -10 0 42.1 2.7
-4 -10 0 37.1 4.28
-4 -10 0 38.48 2.46
-4 -10 0 42.1 2.92
-4 -10 0 34.21 8
-4 -10 0 42.73 2.72
-4 -10 0 45.04 2.44
-4 -10 0 40.01 2.76
4 10 0 37.93 4.32
4 10 0 44.45 1.31
-4 -10 -1 8.48 1.29
-4 -10 -1 11.39 1.44
-4 -10 -1 10.44 1.29
4 10 1 13.21 2.58
-4 -10 -1 7.65 1.94
-4 -10 -1 10.51 1.18
-4 -10 -1 8.67 1.37
-4 -10 -1 12.73 9.74
4 10 1 11.33 0.6
-4 -10 -2 48.97 5.02
-4 -10 -2 50.24 3.17
-4 -10 -2 52.22 2.62
4 10 2 49.29 4.8
-4 -10 -2 50.47 3.26
4 10 2 51.85 1.45
4 10 3 11.89 2.47
-4 -10 -3 12.02 2.44
-4 -10 -3 13.57 1.75
4 10 3 13.84 0.67
-4 -10 -4 219.08 7.55
4 10 4 237.25 4.6
-4 -10 -5 12.06 1.4
4 10 5 13.06 0.7
-4 -10 -5 11.34 1.58
4 10 6 2.04 0.62
-4 -10 -6 2.52 0.98
-4 -10 -6 2.6 1.14
4 10 7 70.69 3.48
-4 -10 -7 69.85 4.72
-4 -10 -7 67.7 3.6
-4 -10 -7 62.39 9.64
-4 -10 -7 63.24 3.7
-4 -10 -8 2.83 2.54
4 10 8 1.04 0.47
-4 -10 -8 0.87 0.77
-4 -10 -8 0.17 0.49
-4 -10 -8 2.18 0.85
4 10 9 5.28 0.97
-4 -10 -9 3.15 0.75
-4 -10 -9 6.03 1.19
-4 -10 -9 5.24 1.12
-4 -10 -9 2.57 2.22
-4 -10 -10 2.36 0.77
4 10 10 1.7 0.59
-4 -10 -10 1.41 1.25
-4 -10 -10 2.37 0.52
4 10 11 17.39 1.31
-4 -10 -11 10.63 3.13
-4 -10 -11 17.14 1.52
4 10 11 13.38 4.41
-4 -10 -12 9.32 0.8
-4 -10 -12 13.1 1.09
4 10 12 9.79 3.14
-4 -11 16 3.16 1.65
-4 -11 16 2.8 0.44
-4 -11 16 4.02 0.56
-4 -11 15 42.3 1.98
-4 -11 15 44.38 2.22
-4 -11 15 44.33 2.12
-4 -11 14 3.72 0.75
-4 -11 14 4.55 0.94
-4 -11 14 5.22 0.78
-4 -11 13 22.47 1.86
-4 -11 13 21.46 1.91
-4 -11 13 19.48 1.57
-4 -11 13 19.15 1.8
-4 -11 12 4.98 0.94
-4 -11 12 4.89 1.12
-4 -11 12 3.91 0.94
-4 -11 12 5.9 1.11
-4 -11 12 4.33 0.78
-4 -11 12 3.02 0.66
-4 -11 11 23.59 2.07
-4 -11 11 20.67 2.09
-4 -11 11 19.9 1.93
-4 -11 11 19.26 1.6
-4 -11 11 20.38 1.87
-4 -11 11 20.85 2.05
-4 -11 11 22.47 3.21
-4 -11 11 14.8 8.76
-4 -11 10 29.21 2.33
-4 -11 10 30.73 2.43
-4 -11 10 27.96 2.4
-4 -11 10 33.56 3.55
-4 -11 10 27.61 2.36
-4 -11 9 20 1.95
-4 -11 9 19.18 1.89
-4 -11 9 18.33 1.51
-4 -11 9 19.78 2.01
-4 -11 9 18.42 1.91
-4 -11 9 20.31 2.36
-4 -11 9 17.69 6.73
-4 -11 8 70.76 3.73
-4 -11 8 67.6 3.43
-4 -11 8 73.74 3.78
-4 -11 8 70.35 3.9
-4 -11 8 67.48 3.1
-4 -11 8 66.46 3.71
-4 -11 8 68.81 3.52
-4 -11 8 66.65 3.53
-4 -11 8 74.23 13.86
-4 -11 8 68.55 3.67
-4 -11 7 130.88 5.22
-4 -11 7 119.32 4.54
-4 -11 7 114.61 4.86
-4 -11 7 127.13 5.11
-4 -11 7 117.65 5.19
-4 -11 7 120.53 4.37
-4 -11 7 119.12 4.97
-4 -11 7 122.58 4.63
-4 -11 7 126.4 4.98
-4 -11 6 130.61 5.28
-4 -11 6 102.19 14.64
-4 -11 6 121.27 4.94
-4 -11 6 116.46 4.36
-4 -11 6 116.17 5.25
-4 -11 6 118.91 4.46
-4 -11 6 114.19 4.75
-4 -11 6 125.74 4.53
-4 -11 6 132.39 5.14
4 11 -6 139.76 2.67
-4 -11 6 113.34 4.67
-4 -11 5 16.81 5.69
-4 -11 5 14.86 1.68
-4 -11 5 13.79 1.42
-4 -11 5 13.9 1.75
4 11 -5 11.52 2.1
-4 -11 5 11.31 1.3
-4 -11 5 13.46 1.46
-4 -11 5 14.71 1.35
-4 -11 5 15 1.64
-4 -11 5 15.28 1.52
-4 -11 5 13.95 1.34
-4 -11 5 15.79 1.64
4 11 -5 15.7 0.63
-4 -11 4 5.3 3.66
-4 -11 4 7.24 1.24
-4 -11 4 7.07 1.26
4 11 -4 7.85 2.01
-4 -11 4 8.33 1.04
-4 -11 4 7.79 1.07
-4 -11 4 7.37 1.06
-4 -11 4 6.4 0.99
4 11 -4 8.21 0.48
-4 -11 4 7.35 1.1
-4 -11 4 7.34 1.15
-4 -11 4 5.01 4.9
-4 -11 3 11.31 1.48
4 11 -3 9.93 2.24
-4 -11 3 10.03 1.27
-4 -11 3 9.25 1.18
-4 -11 3 8.73 2
-4 -11 3 10.99 1.4
-4 -11 3 10.53 1.56
-4 -11 3 12.91 5.23
-4 -11 3 9.43 1.37
-4 -11 3 9.81 1.24
4 11 -3 10.75 0.57
-4 -11 2 45.32 3.01
-4 -11 2 37.92 4.12
-4 -11 2 49.33 3.22
-4 -11 2 45.79 2.59
4 11 -2 50.54 1.4
-4 -11 2 46.84 2.76
-4 -11 2 45.29 2.93
4 11 -2 44.66 4.47
-4 -11 2 49.39 2.84
-4 -11 2 58.92 11.99
-4 -11 2 44.88 2.73
-4 -11 2 42.39 8.82
-4 -11 1 35.59 2.69
-4 -11 1 29.78 3.8
-4 -11 1 34.33 2.23
-4 -11 1 37.81 2.72
-4 -11 1 35.21 2.38
-4 -11 1 34.76 2.66
-4 -11 1 40 3.23
4 11 -1 30.09 3.8
-4 -11 1 41.1 2.73
4 11 -1 40.8 1.23
-4 -11 1 44.98 12.4
-4 -11 0 0.36 0.43
-4 -11 0 -0.81 2.43
4 11 0 -0.27 0.82
4 11 0 0.04 0.17
-4 -11 0 0.97 0.52
-4 -11 0 -0.1 1.04
-4 -11 0 -0.81 0.55
-4 -11 0 1.27 0.9
-4 -11 0 0.31 0.6
-4 -11 -1 35.38 2.72
-4 -11 -1 36.73 2.78
-4 -11 -1 33.5 2.15
4 11 1 37.21 1.19
-4 -11 -2 92.36 4.59
-4 -11 -2 102.82 4.78
-4 -11 -2 93.46 3.68
4 11 2 105.73 2.4
-4 -11 -2 101.02 17.85
-4 -11 -3 5.82 1.2
4 11 3 6.05 0.46
-4 -11 -3 6.43 1.25
-4 -11 -4 18.8 2.04
-4 -11 -4 18.9 2.04
4 11 4 23.53 1.02
-4 -11 -5 5.2 0.95
-4 -11 -5 4.34 1.04
-4 -11 -6 4.62 3.35
-4 -11 -6 4.44 1.11
-4 -11 -6 6.31 1.39
-4 -11 -7 16.47 2.8
-4 -11 -7 14.59 1.62
-4 -11 -7 12.17 1.54
4 11 8 224.58 5.91
-4 -11 -8 223.14 7.71
-4 -11 -8 194.12 14.62
-4 -11 -8 209.9 6.36
-4 -11 -8 194.1 6.54
-4 -11 -9 19.06 1.7
4 11 9 20.14 1.38
-4 -11 -9 19.25 1.41
-4 -11 -9 17.6 1.65
-4 -11 -10 17.31 1.4
4 11 10 22.57 1.28
-4 -11 -10 16.4 3.48
4 11 10 22.03 5.62
-4 -11 -10 19.72 1.55
-4 -11 -11 29.33 1.47
4 11 11 33.53 5.44
-4 -11 -11 33.98 1.65
-4 -12 15 12.26 3.38
-4 -12 15 12.26 1.01
-4 -12 15 12.28 0.95
-4 -12 14 7.87 3.37
-4 -12 14 8.63 1.04
-4 -12 14 8.44 0.79
-4 -12 14 10.42 1.08
-4 -12 13 5.94 0.74
-4 -12 13 7.52 1.01
-4 -12 13 6.67 1.05
-4 -12 13 8.79 1.19
-4 -12 12 17.73 1.59
-4 -12 12 15.9 1.58
-4 -12 12 13.61 1.2
-4 -12 12 15.97 1.64
-4 -12 12 15.68 1.65
-4 -12 11 50.77 2.91
-4 -12 11 51.62 3.01
-4 -12 11 46.82 2.66
-4 -12 11 48.64 3.03
-4 -12 11 42.68 3.81
-4 -12 11 48.3 3.04
-4 -12 10 7.38 1.24
-4 -12 10 9.04 1.34
-4 -12 10 8.16 1.22
-4 -12 10 9.16 1.3
-4 -12 10 7.75 1.27
-4 -12 10 10.09 3.21
-4 -12 10 15.08 10.3
-4 -12 9 33.48 2.49
-4 -12 9 32.18 2.44
-4 -12 9 31.66 2.48
-4 -12 9 29.91 2.43
-4 -12 9 36.29 3.41
-4 -12 9 29.48 11.32
-4 -12 9 33.02 2.57
-4 -12 8 2.31 0.82
-4 -12 8 1.82 0.74
-4 -12 8 0.96 2.19
-4 -12 8 2.42 0.84
-4 -12 8 2.4 0.63
-4 -12 8 2.8 0.83
-4 -12 8 2.05 0.75
-4 -12 8 1.59 0.65
-4 -12 8 1.49 1.57
-4 -12 8 7.08 7.34
-4 -12 7 4.58 3.07
-4 -12 7 7.24 1.24
-4 -12 7 7.19 1.18
-4 -12 7 6.63 1.2
-4 -12 7 7.35 0.99
-4 -12 7 7.61 1.19
-4 -12 7 7.15 6.8
-4 -12 7 7.65 1.26
-4 -12 7 7.56 1.07
-4 -12 7 8.56 1.56
-4 -12 6 1.55 2.92
-4 -12 6 0.68 0.51
-4 -12 6 1.19 0.67
-4 -12 6 0.95 0.58
-4 -12 6 1.04 0.48
-4 -12 6 1.35 0.58
-4 -12 6 1.77 0.71
-4 -12 6 2.18 0.59
-4 -12 6 1.93 0.88
4 12 -6 0.7 0.19
-4 -12 6 0.36 6.19
-4 -12 5 47.11 9.71
-4 -12 5 48.32 3.12
-4 -12 5 44.54 2.58
-4 -12 5 39.32 2.47
-4 -12 5 45.37 2.9
-4 -12 5 50.7 3.43
-4 -12 5 41.68 12.68
-4 -12 5 44.27 2.58
-4 -12 5 48.51 2.56
-4 -12 5 44.31 2.88
-4 -12 5 46.85 2.71
4 12 -5 54.65 1.35
-4 -12 4 8.57 1.39
-4 -12 4 9.86 1.35
-4 -12 4 8.54 1.41
-4 -12 4 8.83 1.25
-4 -12 4 7.96 1.23
-4 -12 4 8.12 1.29
-4 -12 4 8 1.1
4 12 -4 9.65 0.51
-4 -12 4 4.35 7.77
-4 -12 4 5.09 3.37
-4 -12 3 93.46 4.54
-4 -12 3 94.69 4.83
-4 -12 3 89.23 4.02
-4 -12 3 84.95 3.96
-4 -12 3 91.32 4.18
-4 -12 3 78.2 11.68
-4 -12 3 91.62 4.05
4 12 -3 104.21 2.27
-4 -12 3 89.67 17.55
-4 -12 2 22.74 2.81
-4 -12 2 22.96 1.91
-4 -12 2 23.19 2
-4 -12 2 23.41 2.07
-4 -12 2 22.67 14.56
-4 -12 2 21.69 2.14
4 12 -2 25.16 0.92
-4 -12 1 43.85 2.59
-4 -12 1 43.28 3.06
-4 -12 1 49.6 22.56
-4 -12 1 44.04 2.73
-4 -12 1 45.49 3.01
4 12 -1 49.64 1.42
-4 -12 0 114.55 5.19
4 12 0 133.07 2.81
-4 -12 0 116.49 22.35
-4 -12 0 117.71 4.54
-4 -12 0 126.52 5.32
-4 -12 0 114.91 4.36
-4 -12 -1 65.95 3.87
-4 -12 -1 66.03 3.09
-4 -12 -1 69.56 3.15
-4 -12 -1 72.11 4.01
4 12 1 82.6 1.98
-4 -12 -1 61.02 17.17
-4 -12 -2 5.34 1.17
-4 -12 -2 5.22 0.84
4 12 2 7.43 0.54
-4 -12 -2 5.9 1.25
-4 -12 -3 0.18 0.49
-4 -12 -3 0.72 0.73
-4 -12 -4 55.04 3.54
-4 -12 -4 61.87 3.62
-4 -12 -5 0.85 0.63
-4 -12 -5 4.49 3.96
-4 -12 -5 2.07 0.82
-4 -12 -6 15.76 1.72
-4 -12 -6 17.8 3.53
-4 -12 -6 18.82 1.83
-4 -12 -7 12.59 1.48
-4 -12 -7 14.23 2.16
-4 -12 -7 14.07 1.45
-4 -12 -7 12.62 1.28
-4 -12 -8 6.29 0.96
-4 -12 -8 7.93 1.24
4 12 8 4.93 3.66
-4 -12 -8 5.59 0.85
-4 -12 -8 6.44 0.88
-4 -12 -9 0.05 0.34
-4 -12 -9 0.55 0.36
4 12 9 0.63 1.49
-4 -12 -9 0.68 0.31
-4 -12 -10 0.75 0.29
-4 -12 -10 0.23 0.3
4 12 10 0.32 1.05
-4 -13 15 -0.04 0.18
-4 -13 14 10.78 0.97
-4 -13 14 11.43 3.35
-4 -13 14 11.48 1.01
-4 -13 13 54.81 8.09
-4 -13 13 61.17 2.73
-4 -13 13 63.5 2.81
-4 -13 12 -0.55 2.24
-4 -13 12 0.56 0.42
-4 -13 12 -0.17 0.44
-4 -13 12 0.19 0.37
-4 -13 12 0.61 0.51
-4 -13 11 0.38 0.44
-4 -13 11 0.44 0.45
-4 -13 11 1.25 0.68
-4 -13 11 3.51 2.99
-4 -13 11 0.69 0.44
-4 -13 11 7.39 12.1
-4 -13 11 0.34 0.46
-4 -13 10 -1.2 2.44
-4 -13 10 0.83 0.79
-4 -13 10 1.59 0.72
-4 -13 10 0.71 0.62
-4 -13 10 -0.23 0.46
-4 -13 10 0 0.53
-4 -13 9 22.7 1.95
-4 -13 9 21.25 1.94
-4 -13 9 22.39 1.99
-4 -13 9 20.25 1.93
-4 -13 9 16.64 5.85
-4 -13 9 10.72 16.07
-4 -13 9 19.31 1.87
-4 -13 9 27.58 3.75
-4 -13 8 8.57 4.58
-4 -13 8 11.27 1.4
-4 -13 8 10.95 1.53
-4 -13 8 11.74 15.32
-4 -13 8 10.46 1.37
-4 -13 8 10.23 1.25
-4 -13 8 12.3 1.5
-4 -13 8 15.27 2.72
-4 -13 8 10.64 1.42
-4 -13 7 8.2 4.77
-4 -13 7 2.01 0.7
-4 -13 7 1.03 0.66
-4 -13 7 1.46 1.1
-4 -13 7 1.81 0.66
-4 -13 7 2.11 0.81
-4 -13 7 0.77 0.47
-4 -13 7 1.5 1.51
-4 -13 7 -5.55 13.98
-4 -13 6 72.2 3.78
-4 -13 6 68.26 3.59
-4 -13 6 67.89 3.98
-4 -13 6 64.79 2.93
-4 -13 6 62.28 3.06
-4 -13 6 69.1 3.1
-4 -13 6 71.33 3.68
-4 -13 6 62.91 3.16
-4 -13 5 -0.6 0.74
-4 -13 5 4.99 16.87
-4 -13 5 -1.47 1.28
-4 -13 5 0.42 0.88
-4 -13 5 0.13 0.46
-4 -13 5 -0.21 0.38
-4 -13 5 0.04 0.97
-4 -13 5 -2.02 3.26
-4 -13 4 7.09 1.23
-4 -13 4 -2.64 4.15
-4 -13 4 4.49 1.89
-4 -13 4 5.21 0.99
-4 -13 4 3.81 1.02
-4 -13 4 5.13 0.9
-4 -13 4 9.14 18.49
-4 -13 3 96.41 25.07
-4 -13 3 98.32 5.81
-4 -13 3 99.53 4.32
-4 -13 3 108.11 4.86
-4 -13 3 96.12 4.3
-4 -13 3 96.61 4.28
-4 -13 2 6.8 1.23
-4 -13 2 6.61 1.08
-4 -13 2 5.69 1.12
-4 -13 2 5.74 20.75
-4 -13 2 5.74 1.09
-4 -13 1 33.81 2.29
-4 -13 1 33.57 2.32
-4 -13 1 35.88 2.69
-4 -13 1 38.17 20.01
-4 -13 1 37.47 2.81
-4 -13 0 25.86 1.9
-4 -13 0 26.37 1.94
-4 -13 0 28.69 2.44
-4 -13 0 28.1 2.44
-4 -13 -1 24.28 2.28
-4 -13 -1 21.53 1.6
-4 -13 -1 22.86 1.65
-4 -13 -1 20.63 2.08
-4 -13 -2 1.43 0.73
-4 -13 -2 1.75 0.85
-4 -13 -3 12.6 1.62
-4 -13 -3 14.4 1.7
-4 -13 -4 2.26 0.83
-4 -13 -4 2.68 4.04
-4 -13 -4 2.26 0.82
-4 -13 -5 12.07 1.45
4 13 5 18.4 5.12
-4 -13 -5 13.88 3.57
-4 -13 -5 13.85 1.54
-4 -13 -6 15.23 1.52
-4 -13 -6 17.86 2.51
4 13 6 17.66 4.68
-4 -13 -6 19.91 1.69
-4 -13 -7 28.08 1.87
-4 -13 -7 25.63 1.96
-4 -13 -7 29.83 2.38
4 13 7 27.76 5.66
-4 -13 -7 28.71 1.8
-4 -13 -8 8.43 0.92
-4 -13 -8 9.29 1.06
4 13 8 9.88 3.35
-4 -13 -8 7.95 0.77
-4 -13 -9 1.99 0.35
-4 -13 -9 2.25 0.44
4 13 9 2.51 1.22
-4 -14 13 0.64 0.3
-4 -14 13 1.06 0.35
-4 -14 13 -0.44 1.59
-4 -14 12 0.64 0.34
-4 -14 12 0.95 0.4
-4 -14 12 0.25 0.35
-4 -14 12 2.08 2.12
-4 -14 11 23.55 5.13
-4 -14 11 27.91 1.79
-4 -14 11 27.58 1.81
-4 -14 11 22.38 1.65
-4 -14 11 27.23 1.87
-4 -14 10 2.16 0.61
-4 -14 10 4.12 0.78
-4 -14 10 3.39 1.44
-4 -14 10 4.86 0.84
-4 -14 10 4.59 0.84
-4 -14 9 5.39 0.93
-4 -14 9 5.31 1.61
-4 -14 9 5.53 0.98
-4 -14 9 5.73 0.93
-4 -14 9 5.42 0.91
-4 -14 9 7.96 3.33
-4 -14 9 2.15 15.2
-4 -14 9 6.43 3.07
-4 -14 8 2.44 0.67
-4 -14 8 4.66 1.65
-4 -14 8 2.36 0.66
-4 -14 8 3.45 0.73
-4 -14 8 2.92 3.01
-4 -14 8 3.27 0.8
-4 -14 8 -5.9 18.8
-4 -14 8 -0.26 2.14
-4 -14 7 0.48 0.41
-4 -14 7 0.85 0.54
-4 -14 7 0.96 1.75
-4 -14 7 0.8 0.61
-4 -14 7 -0.17 0.36
-4 -14 7 -0.11 0.36
-4 -14 7 3.22 2.84
-4 -14 7 -1.87 2.44
-4 -14 6 50.58 3.03
-4 -14 6 48.64 2.87
-4 -14 6 51.37 3.67
-4 -14 6 48.62 2.35
-4 -14 6 50.34 3.49
-4 -14 6 42.31 2.26
-4 -14 6 51.42 8.48
-4 -14 5 0.3 0.45
-4 -14 5 1.13 0.6
-4 -14 5 -0.27 1.4
-4 -14 5 -0.83 21.03
-4 -14 4 9.76 1.37
-4 -14 4 8.82 1.25
-4 -14 4 11.3 1.75
-4 -14 4 8.29 1.07
-4 -14 3 5.22 1.04
-4 -14 3 4.48 0.89
-4 -14 3 6.39 1.44
-4 -14 3 5.86 0.98
-4 -14 3 2.55 17.13
-4 -14 2 3.21 0.91
-4 -14 2 2.43 0.7
-4 -14 2 3.47 1.14
-4 -14 2 2.09 0.68
-4 -14 1 29.35 2.41
-4 -14 1 27.64 1.98
-4 -14 1 30.24 2.06
-4 -14 1 29.98 2.37
-4 -14 0 30.97 2.46
-4 -14 0 27.71 1.87
-4 -14 0 28.43 1.91
-4 -14 0 32.48 2.49
-4 -14 -1 1.25 0.61
-4 -14 -1 1.11 0.37
-4 -14 -1 2.91 0.82
-4 -14 -1 1.48 0.7
-4 -14 -2 24.01 2.08
-4 -14 -2 26.2 2.2
-4 -14 -2 29.37 5.08
-4 -14 -3 45.55 2.79
-4 -14 -3 47.14 2.87
-4 -14 -4 0.84 0.45
-4 -14 -4 0.4 0.36
-4 -14 -4 -0.44 2.42
-4 -14 -4 0 0.42
-4 -14 -5 0.46 0.35
-4 -14 -5 -0.37 0.43
-4 -14 -5 0.59 0.4
-4 -14 -6 7.19 0.9
-4 -14 -6 8.54 1.27
-4 -14 -6 7.37 0.87
4 14 6 7.07 2.38
-4 -14 -6 7.46 0.92
-4 -14 -7 8.85 0.84
-4 -14 -7 7.62 0.79
-4 -14 -7 9.72 0.82
-4 -15 12 3.35 0.53
-4 -15 11 0.55 0.29
-4 -15 11 -0.26 0.27
-4 -15 11 -0.25 0.32
-4 -15 11 0.01 0.26
-4 -15 10 0.12 0.33
-4 -15 10 0.93 0.36
-4 -15 10 0.32 0.34
-4 -15 10 0.56 0.33
-4 -15 9 6.86 0.94
-4 -15 9 5.41 0.77
-4 -15 9 6.13 0.87
-4 -15 9 4.53 0.66
-4 -15 9 7.71 2.62
-4 -15 8 13.2 1.33
-4 -15 8 15.7 1.4
-4 -15 8 11.9 1.09
-4 -15 7 71.5 3.26
-4 -15 7 70.51 3.15
-4 -15 7 67.75 4.34
-4 -15 7 60.44 2.49
-4 -15 6 19.53 1.7
-4 -15 6 19.88 1.66
-4 -15 6 16.92 3.13
-4 -15 5 35.28 2.35
-4 -15 5 35.15 2.22
-4 -15 5 33.04 3.2
-4 -15 4 48.27 2.8
-4 -15 4 44.06 2.51
-4 -15 4 45.72 3.11
-4 -15 4 45.94 2.33
-4 -15 4 49.49 3.99
-4 -15 3 35.68 2.42
-4 -15 3 32.82 2.09
-4 -15 3 32.95 2.63
-4 -15 3 41.11 4.02
-4 -15 3 32.54 2.13
-4 -15 2 2.78 0.66
-4 -15 2 3.01 1.44
-4 -15 2 2.77 3.4
-4 -15 2 3.18 0.79
-4 -15 2 3.06 0.74
-4 -15 1 92.14 6.22
-4 -15 1 82.38 3.22
-4 -15 1 79.05 3.28
-4 -15 1 87.32 3.87
-4 -15 1 94.83 4.04
-4 -15 0 85.69 3.78
-4 -15 0 73.09 2.82
-4 -15 0 72.78 2.86
-4 -15 0 91.69 5.93
-4 -15 0 84.89 3.79
-4 -15 -1 2.94 0.79
-4 -15 -1 3.93 3.59
-4 -15 -1 2.11 0.7
-4 -15 -2 2.73 0.67
-4 -15 -2 0.98 2.48
-4 -15 -2 2.81 0.75
-4 -15 -3 5.22 0.83
-4 -15 -3 5.22 1.71
-4 -15 -3 4.87 0.84
-4 -15 -4 12.74 1.16
-4 -15 -4 14.37 1.28
-4 -15 -4 14.1 1.79
-4 -15 -5 2.04 0.46
-4 -15 -5 1.56 0.66
-4 -15 -5 1.98 0.45
-4 -15 -6 21.69 1.1
-4 -15 -6 19.64 1.03
-4 -16 10 2.74 0.44
-4 -16 10 2.12 0.4
-4 -16 9 0.5 0.29
-4 -16 9 0.64 0.33
-4 -16 8 -0.08 0.29
-4 -16 8 -0.77 0.41
-4 -16 7 15.28 1.26
-4 -16 7 13.07 1.12
-4 -16 6 79.16 3.14
-4 -16 6 70.96 3.6
-4 -16 6 76.15 2.93
-4 -16 5 82.21 3.31
-4 -16 5 76.39 2.96
-4 -16 5 75.32 3.68
-4 -16 4 0.31 0.45
-4 -16 4 0.05 0.28
-4 -16 4 -1.76 2.21
-4 -16 3 112.65 4.04
-4 -16 3 112.34 3.57
-4 -16 3 113.91 3.97
-4 -16 3 117.9 4.53
-4 -16 3 105.05 3.55
-4 -16 2 0.3 0.4
-4 -16 2 0.83 0.36
-4 -16 2 -1.66 1.7
-4 -16 2 0.36 1.91
-4 -16 2 0.26 0.38
-4 -16 1 3.13 0.68
-4 -16 1 3.84 0.53
-4 -16 1 2.13 1.19
-4 -16 1 4.36 2.19
-4 -16 1 3.2 0.69
-4 -16 0 0.78 0.43
-4 -16 0 0.35 1.53
-4 -16 0 0.49 0.43
-4 -16 -1 3.59 0.65
-4 -16 -1 3.33 1.18
-4 -16 -1 3.77 0.69
-4 -16 -2 3.98 0.61
-4 -16 -2 3.31 0.93
-4 -16 -2 5.19 0.78
-4 -16 -3 0.93 0.32
-4 -16 -3 0.58 0.51
-4 -16 -3 1.2 0.41
-4 -16 -4 1.22 0.28
-4 -16 -4 0.33 0.22
-4 -17 8 0.36 0.19
-4 -17 7 0.33 0.21
-4 -17 7 0.54 0.24
-4 -17 6 29.24 1.46
-4 -17 6 29.01 1.28
-4 -17 5 0.05 0.24
-4 -17 5 0.4 0.2
-4 -17 4 26.14 1.44
-4 -17 4 25.03 1.18
-4 -17 3 0.14 0.25
-4 -17 3 0.41 0.21
-4 -17 2 0.3 0.32
-4 -17 2 -0.08 0.2
-4 -17 1 1.07 0.34
-4 -17 1 1.41 0.45
-4 -17 1 0.88 0.31
-4 -17 0 12.69 0.88
-4 -17 0 12.21 1.09
-4 -17 0 12.19 0.9
-4 -17 -1 2.99 0.41
5 -18 1 15.7 0.87
5 -18 1 16.6 1.13
5 -18 2 27.44 1.19
5 -18 2 26.5 1.54
5 -18 3 6.03 0.54
5 -18 3 5.09 0.7
5 -18 4 4.07 0.42
5 -18 4 3.71 0.6
5 -17 -3 8.94 1.02
5 -17 -2 0.14 0.39
5 -17 -2 0.14 0.17
5 -17 -2 -0.36 0.33
5 -17 -1 17.59 0.98
5 -17 -1 21.77 1.81
5 -17 -1 19.91 1.5
5 -17 0 31.05 1.34
5 -17 0 35.37 2.34
5 -17 0 35.63 2.2
5 -17 1 4.03 0.86
5 -17 1 5.25 0.98
5 -17 1 3.57 0.44
5 -17 2 0.68 0.46
5 -17 2 0.1 0.41
5 -17 3 -0.62 0.5
5 -17 3 0.06 0.47
5 -17 4 13.75 1.09
5 -17 4 13.39 1.43
5 -17 5 -0.03 0.18
5 -17 5 -0.18 0.29
5 -17 5 -0.38 0.41
5 -17 6 18.85 0.98
5 -17 6 19.5 1.1
5 -17 6 16.3 1.44
5 -17 7 19.64 0.99
5 -17 7 18.75 0.95
5 -17 7 17.5 1.27
5 -17 8 0.79 0.22
5 -16 -6 36.44 1.89
5 -16 -5 13.74 1.38
5 -16 -5 10.93 0.82
5 -16 -4 4.58 0.96
5 -16 -4 4.23 0.56
5 -16 -4 4.07 0.55
5 -16 -3 20.95 1.48
5 -16 -3 21.89 2.07
5 -16 -3 18.07 1.24
5 -16 -2 2.57 0.84
5 -16 -2 1.14 0.39
5 -16 -2 1.71 0.59
5 -16 -1 0.58 0.77
5 -16 -1 -0.33 0.33
5 -16 -1 1.22 0.6
5 -16 0 -0.28 0.58
5 -16 0 0.06 0.27
5 -16 0 0.28 0.55
5 -16 1 0.06 0.54
5 -16 1 -0.82 0.78
5 -16 1 0.1 0.26
5 -16 2 1.33 0.76
5 -16 2 2.06 0.44
5 -16 2 1.67 0.41
5 -16 2 1.23 0.69
5 -16 3 -0.36 0.29
5 -16 3 0.03 0.55
5 -16 3 -0.53 0.65
5 -16 4 16.78 1.13
5 -16 4 15.7 1.15
5 -16 4 15.68 1.82
5 -16 4 15.95 1.74
5 -16 5 2.99 0.52
5 -16 5 2.88 0.55
5 -16 5 3.41 0.66
5 -16 5 4.23 1.03
5 -16 6 16.57 1.23
5 -16 6 16.45 1.21
5 -16 6 15.51 1.25
5 -16 6 14.55 1.65
5 -16 7 0.27 0.45
5 -16 7 0.46 0.35
5 -16 7 0.52 0.34
5 -16 7 0.34 0.27
5 -16 8 1.44 0.41
5 -16 8 1.12 0.3
5 -16 8 0.76 0.34
5 -16 8 0.72 0.34
5 -16 9 17.94 1.17
5 -16 10 9.13 0.75
5 -15 -7 13.28 1.3
5 -15 -7 9.73 0.84
5 -15 -7 10.24 0.86
-5 15 7 14.91 3.29
5 -15 -6 -0.02 0.28
5 -15 -6 0.94 0.62
5 -15 -6 0.36 0.32
-5 15 6 -1.26 2.34
5 -15 -5 0.11 0.57
5 -15 -5 0.4 0.4
-5 15 5 -0.6 1.5
5 -15 -5 0.08 0.35
-5 15 4 3.91 2.3
5 -15 -4 5.65 1.22
5 -15 -4 4.71 0.78
5 -15 -4 5.67 0.84
5 -15 -4 7.97 0.99
5 -15 -3 1.25 0.58
5 -15 -3 2.97 1.08
5 -15 -3 1.56 0.53
-5 15 3 1.08 1.56
5 -15 -3 1.5 0.53
5 -15 -2 37.13 3.19
5 -15 -2 33.09 2.1
5 -15 -2 36.16 2.62
5 -15 -1 26.02 2.76
5 -15 -1 25.08 1.81
5 -15 -1 29.65 2.47
-5 15 1 27.85 0.92
5 -15 0 17.21 1.19
5 -15 0 18.51 2.01
5 -15 0 18.58 2.33
5 -15 0 17.94 1.53
-5 15 0 19.19 0.75
5 -15 1 10.64 1.02
-5 15 -1 11.83 0.58
5 -15 1 9.82 1.1
5 -15 1 11.33 1.83
5 -15 1 13.1 1.78
5 -15 2 4.8 0.76
5 -15 2 6.2 1.49
5 -15 2 5.13 0.77
5 -15 2 4.62 1.11
-5 15 -2 5.61 0.41
-5 15 -3 4.14 0.36
5 -15 3 4.84 0.71
5 -15 3 4.43 0.75
5 -15 3 4.52 1.21
5 -15 3 3.23 1.14
5 -15 4 5.92 0.86
-5 15 -4 5.79 0.4
5 -15 4 5.15 0.79
5 -15 4 4.83 1.2
5 -15 4 6.26 1.37
5 -15 5 0.64 0.36
5 -15 5 0.94 0.44
5 -15 5 0.72 0.68
5 -15 5 1.37 0.78
-5 15 -5 0.6 0.18
5 -15 6 4.49 1.1
5 -15 6 4.48 0.79
5 -15 6 4.26 0.8
5 -15 7 23.39 1.71
5 -15 7 22.28 1.63
5 -15 7 21.74 1.55
5 -15 7 18.98 2
5 -15 8 1.07 0.45
5 -15 8 1.17 0.48
5 -15 8 1.22 0.38
5 -15 8 0.72 0.51
5 -15 9 0.28 0.27
5 -15 9 0.43 0.38
5 -15 9 0.19 0.34
5 -15 9 -0.51 0.29
5 -15 9 -0.14 0.45
5 -15 10 0.85 0.31
5 -15 10 1.48 0.44
5 -15 11 25.76 1.41
5 -15 11 22.46 1.04
5 -15 12 27.99 1.2
5 -14 -9 3.31 0.58
5 -14 -9 1.63 0.37
5 -14 -9 2.21 0.44
-5 14 9 1.26 1.22
-5 14 8 -0.01 1.71
5 -14 -8 0.16 0.36
5 -14 -8 1.07 0.64
5 -14 -7 -0.81 0.65
-5 14 7 0.3 2.13
5 -14 -7 0.54 0.41
-5 14 6 26.53 6.67
5 -14 -6 21.78 2.24
5 -14 -6 20.36 1.83
5 -14 -5 1.81 0.98
5 -14 -5 1.76 0.82
5 -14 -4 7.41 1.57
-5 14 4 4.33 2.85
5 -14 -4 7.9 1.12
5 -14 -4 6.4 1.16
5 -14 -3 29.04 2.96
5 -14 -3 28.67 2.35
5 -14 -3 23.47 2.07
5 -14 -3 25.45 2.01
5 -14 -2 1.14 0.97
5 -14 -2 -0.12 0.44
5 -14 -2 -0.85 0.52
-5 14 2 -1.03 2.72
5 -14 -2 -0.02 0.52
5 -14 -1 0.81 0.41
5 -14 -1 0.04 0.79
5 -14 -1 0.49 0.44
5 -14 -1 0.94 0.73
5 -14 -1 0.15 0.57
5 -14 0 47.37 3.96
5 -14 0 43.63 2.6
5 -14 0 44.19 2.29
5 -14 0 50.57 3.51
5 -14 1 40.93 2.26
5 -14 1 39.52 3.67
5 -14 1 36.4 2.24
5 -14 1 40.97 3.22
-5 14 -1 41.85 1.33
5 -14 2 0.23 0.37
5 -14 2 0.71 0.4
5 -14 2 0.63 0.4
5 -14 2 -0.05 0.75
-5 14 -2 0.02 0.19
5 -14 2 0.02 0.72
5 -14 3 0.43 0.52
5 -14 3 0.51 0.5
5 -14 3 0.9 1
5 -14 3 1.04 0.9
-5 14 -3 -0.02 0.19
5 -14 4 11.33 1.31
-5 14 -4 11.98 0.64
5 -14 4 11.69 1.29
5 -14 4 10.92 1.97
5 -14 4 10.56 1.73
5 -14 5 40.26 2.5
5 -14 5 41.6 2.48
-5 14 -5 40.05 1.22
5 -14 5 37.47 3.2
5 -14 6 18.77 1.68
5 -14 6 18.72 1.65
5 -14 6 16.02 2.03
5 -14 6 16.33 2.05
-5 14 -6 19.23 0.75
5 -14 7 11.59 1.29
5 -14 7 12.2 1.8
5 -14 7 10.46 1.17
-5 14 -7 11.66 0.54
5 -14 7 11.88 1.35
5 -14 8 2.07 0.6
5 -14 8 1.8 0.65
5 -14 8 0.39 0.65
5 -14 8 2.22 0.54
-5 14 -8 1.51 0.22
5 -14 9 -0.29 0.47
5 -14 9 0.88 0.5
5 -14 9 -0.04 0.26
5 -14 9 0.67 0.46
5 -14 10 15.87 1.38
5 -14 10 14.77 1.28
5 -14 10 16.53 1.36
5 -14 11 0.45 0.32
5 -14 11 0.97 0.45
5 -14 12 3.28 0.5
5 -14 12 3.38 0.53
5 -14 13 2.19 0.3
5 -13 -10 0.26 0.26
5 -13 -10 -0.12 0.3
-5 13 10 0.85 1.42
5 -13 -9 6.76 1
5 -13 -9 7.03 1
-5 13 9 6.3 0.82
-5 13 9 6.01 2.87
5 -13 -8 38.99 2.71
-5 13 8 35.38 2.16
-5 13 8 34.59 7.58
5 -13 -8 32.63 2.36
-5 13 7 79.79 12.47
5 -13 -7 82.45 4.42
-5 13 7 73.59 3.58
5 -13 -7 71.19 3.8
-5 13 6 1.48 0.67
5 -13 -6 1.81 0.78
-5 13 6 0.1 3.07
5 -13 -6 1.47 0.69
5 -13 -5 6.45 1.55
-5 13 5 6.43 1.19
5 -13 -5 6.42 1.3
5 -13 -4 5.47 1.24
5 -13 -4 7.37 1.56
-5 13 4 5.61 1.13
-5 13 4 7.17 3.69
5 -13 -4 5.32 1.01
5 -13 -3 3.39 1.24
5 -13 -3 2.23 0.84
-5 13 3 0.67 2.37
5 -13 -3 3.04 0.97
5 -13 -2 16.16 1.35
5 -13 -2 19.2 2.04
5 -13 -2 21.23 2.65
5 -13 -2 16.04 1.81
-5 13 2 11.92 4.88
5 -13 -1 2.01 1.11
5 -13 -1 2.72 0.7
5 -13 -1 1.7 0.64
-5 13 1 1.05 2.53
5 -13 -1 1.31 0.79
5 -13 -1 2.21 0.79
5 -13 0 38.71 2.26
5 -13 0 37.12 3.49
5 -13 0 35.15 2.29
5 -13 0 32.15 2.34
5 -13 0 36.67 3.03
5 -13 1 23.23 1.83
5 -13 1 24.59 2.92
5 -13 1 24.7 1.8
5 -13 1 25.11 2.53
5 -13 2 11.77 1.29
5 -13 2 10.19 1.13
5 -13 2 12.01 2
5 -13 2 13 1.87
-5 13 -2 13.3 0.72
5 -13 3 258.1 7.31
5 -13 3 254.64 9.95
5 -13 3 239.55 8.88
-5 13 -3 254.14 5.05
5 -13 4 78.44 3.62
5 -13 4 66.44 4.74
5 -13 4 77.86 4.7
-5 13 -4 77.92 2.02
5 -13 5 9.33 1.63
5 -13 5 11.39 1.32
5 -13 5 11.73 1.44
5 -13 5 7.97 1.6
-5 13 -5 10.92 0.62
5 -13 6 40.42 2.61
5 -13 6 36.2 2.38
5 -13 6 29.3 2.92
5 -13 6 30.4 2.91
-5 13 -6 34.85 1.16
5 -13 7 20.37 1.87
5 -13 7 18.87 2.29
5 -13 7 22.56 1.87
5 -13 7 16.79 2.08
-5 13 -7 19.84 0.79
5 -13 7 16.6 1.5
5 -13 8 4.62 0.9
5 -13 8 5.38 0.94
5 -13 8 4.82 0.77
5 -13 8 4.13 0.97
-5 13 -8 5.12 0.37
5 -13 9 0.3 0.47
5 -13 9 0.13 0.51
5 -13 9 0.39 0.35
5 -13 9 0.2 0.64
-5 13 -9 0.4 0.17
5 -13 10 0.3 0.53
5 -13 10 0.52 0.48
5 -13 11 18.29 1.49
5 -13 11 19.2 1.56
5 -13 11 17.08 1.39
5 -13 12 40.07 2.01
5 -13 12 42.22 2.16
5 -13 13 21.3 1.19
5 -13 13 22.55 1.34
5 -13 14 0.19 0.2
-5 12 11 21.92 1.39
-5 12 11 25.45 5.32
5 -12 -11 24.76 1.64
5 -12 -10 -0.04 0.47
5 -12 -10 0.7 0.45
-5 12 10 0.15 0.42
5 -12 -9 4.44 1
-5 12 9 3.89 0.9
-5 12 9 4.26 3.1
5 -12 -9 3.71 2.24
5 -12 -9 3.58 0.9
5 -12 -8 41.6 3.02
-5 12 8 37.38 2.74
-5 12 8 41.1 9.66
5 -12 -8 37.53 7.45
5 -12 -8 38.29 2.86
5 -12 -7 0.61 0.7
-5 12 7 0.49 0.64
5 -12 -7 -3.29 3.07
-5 12 7 0.32 2.93
5 -12 -7 0.2 0.67
5 -12 -6 3.91 2.63
5 -12 -6 1.55 0.92
-5 12 6 2.29 0.99
5 -12 -6 1.21 0.71
-5 12 6 2.84 3.65
5 -12 -5 32.71 3.2
5 -12 -5 28.56 7.67
-5 12 5 29.36 8.45
5 -12 -5 28.24 2.64
-5 12 5 28.57 2.6
5 -12 -4 52.24 3.05
-5 12 4 48.01 10.61
-5 12 4 53.04 3.5
5 -12 -4 56.33 4.2
5 -12 -4 46.61 3.44
5 -12 -4 43.39 9.18
5 -12 -3 22.65 1.61
5 -12 -3 25.59 2.83
-5 12 3 23.46 2.26
5 -12 -3 26.32 2.26
-5 12 3 21.2 6.71
5 -12 -3 20.8 2.18
5 -12 -2 -0.69 0.78
-5 12 2 1.36 0.8
-5 12 2 0.83 2.12
5 -12 -2 -0.01 0.39
5 -12 -2 -0.11 0.58
5 -12 -2 -0.1 0.52
5 -12 -1 96.02 3.76
-5 12 1 101 13.43
5 -12 -1 103.57 5.8
5 -12 -1 85.86 4.31
5 -12 -1 102.12 4.98
5 -12 0 1 0.55
5 -12 0 1.96 1.09
5 -12 0 0.91 0.5
5 -12 0 1.31 0.59
5 -12 0 1.26 0.76
5 -12 1 3.46 0.85
5 -12 1 3.39 1.22
5 -12 1 3.34 0.72
5 -12 1 3.8 0.98
5 -12 2 11.79 1.97
5 -12 2 13.77 1.42
5 -12 2 10.79 1.63
5 -12 3 3.31 0.81
5 -12 3 3.73 1.18
5 -12 3 3.75 1.11
-5 12 -3 4.43 0.43
5 -12 4 75.69 3.57
5 -12 4 73.74 5.02
5 -12 4 75.41 4.61
-5 12 -4 78.05 2.03
5 -12 5 21.91 1.87
-5 12 -5 23.02 0.94
5 -12 5 18.71 2.51
5 -12 5 19.94 2.35
5 -12 6 17.81 1.69
-5 12 -6 18.28 0.81
5 -12 6 13.43 2.04
-5 12 -6 15.52 0.65
5 -12 6 16.51 2.19
5 -12 7 55.95 3.13
5 -12 7 50.98 2.87
5 -12 7 49.15 2.34
5 -12 7 43.45 3.5
-5 12 -7 49.03 1.42
-5 12 -7 45.91 1.22
5 -12 7 43.31 3.48
5 -12 8 11.78 1.46
5 -12 8 6.74 1.36
5 -12 8 10.17 1.06
-5 12 -8 9.47 0.54
5 -12 8 9.31 1.21
5 -12 8 10.14 1.1
5 -12 9 13.21 1.43
5 -12 9 15.32 1.61
5 -12 9 11.72 1.63
5 -12 9 13.14 1.21
-5 12 -9 14.18 0.62
5 -12 10 28.03 2.08
5 -12 10 25.12 1.89
-5 12 -10 24.64 0.81
5 -12 11 9.24 1.14
5 -12 11 8.26 1.14
5 -12 11 8.19 1.08
5 -12 12 0.38 0.36
5 -12 12 0.2 0.39
5 -12 13 27.95 1.5
5 -12 13 27.41 1.76
5 -12 14 14.25 0.78
5 -12 14 14.57 1.09
5 -11 -12 5.31 0.75
-5 11 12 4.93 0.78
-5 11 12 3.67 2.18
-5 11 11 24.32 1.94
5 -11 -11 21.72 4.28
-5 11 11 25.49 6.36
5 -11 -11 24.32 1.95
5 -11 -10 1.78 0.64
-5 11 10 2.32 0.87
5 -11 -10 4.95 2.89
5 -11 -10 2.14 0.84
5 -11 -9 58.29 3.51
5 -11 -9 51.57 9
-5 11 9 49.4 3.59
-5 11 9 52.16 10.77
5 -11 -9 49.14 3.36
5 -11 -8 5.42 3.51
5 -11 -8 3.38 1.03
-5 11 8 4.43 1.21
-5 11 8 2.2 4.02
5 -11 -8 3.78 1.08
5 -11 -7 30.17 2.88
-5 11 7 27.44 2.68
-5 11 7 19.63 7.78
5 -11 -7 25.92 7.24
5 -11 -7 25.75 2.6
5 -11 -6 25.59 2.75
-5 11 6 23.68 2.49
5 -11 -6 28.18 7.63
-5 11 6 15.74 6.68
5 -11 -6 23.96 2.47
5 -11 -5 147.38 16.99
5 -11 -5 148.15 4.53
5 -11 -5 147.46 6.87
-5 11 5 139.74 6.19
5 -11 -5 133.05 6.16
-5 11 5 143.42 18.76
5 -11 -4 99.47 3.67
5 -11 -4 108.7 5.82
-5 11 4 98.2 4.96
-5 11 4 94.14 14.91
5 -11 -4 108.07 4.5
5 -11 -4 94.94 13.72
5 -11 -4 93.46 4.95
5 -11 -3 30.25 1.91
5 -11 -3 31.93 3.08
-5 11 3 29.64 2.6
5 -11 -3 30.38 2.33
-5 11 3 28.57 8.44
5 -11 -3 26.36 2.46
5 -11 -3 35.55 8.37
5 -11 -2 85.47 4.13
5 -11 -2 85.95 3.48
5 -11 -2 83.86 5.09
-5 11 2 82.78 4.65
-5 11 2 66.04 11.48
5 -11 -2 76.66 4.27
5 -11 -2 82.92 5.63
5 -11 -1 96.35 3.73
-5 11 1 94.66 13.38
5 -11 -1 97.21 5.45
-5 11 1 98.04 4.69
5 -11 -1 89.53 4.46
5 -11 -1 83.99 4.22
5 -11 -1 103.78 6.26
5 -11 0 77.81 3.3
5 -11 0 80.49 4.9
5 -11 0 74.71 4.09
-5 11 0 83.08 11.62
5 -11 0 66.01 3.61
5 -11 0 80.1 5.53
5 -11 1 60.57 2.92
5 -11 1 58.08 4.66
5 -11 1 62.92 3.74
5 -11 1 53.06 3.03
5 -11 1 55.03 4.03
5 -11 2 33.38 2.16
5 -11 2 29.39 2.95
5 -11 2 27.6 2.66
5 -11 2 31.82 2.67
5 -11 2 33.12 3.45
5 -11 3 17.12 1.55
5 -11 3 13.76 2.06
5 -11 3 15.15 2.23
-5 11 -3 15.67 0.77
5 -11 3 15.43 1.93
5 -11 3 17.71 2.71
5 -11 4 60.87 4.36
5 -11 4 75.48 3.39
5 -11 4 64.75 4.5
5 -11 4 74.9 4.42
-5 11 -4 70.24 1.9
5 -11 4 65.71 4.78
5 -11 5 17.09 2.37
5 -11 5 20.36 1.74
5 -11 5 14.91 2.15
5 -11 5 16.06 2.32
5 -11 5 16.52 2.07
5 -11 5 18.65 1.46
-5 11 -5 19.54 0.85
5 -11 6 2.99 0.59
5 -11 6 3.42 0.86
5 -11 6 2.55 1.08
5 -11 6 2.71 0.93
-5 11 -6 3.29 0.37
-5 11 -6 2.92 0.29
5 -11 7 82.1 3.72
5 -11 7 81.71 3.34
5 -11 7 65.24 4.44
-5 11 -7 83.91 2.04
5 -11 7 69.37 4.51
-5 11 -7 74.15 1.8
5 -11 8 3.65 1.08
5 -11 8 4.48 0.9
5 -11 8 4.9 0.81
5 -11 8 4.34 0.88
-5 11 -8 4.61 0.41
-5 11 -8 4.03 0.32
5 -11 9 29.42 2.22
5 -11 9 27.54 2.14
5 -11 9 26.01 1.87
5 -11 9 22.92 2.45
-5 11 -9 26.09 0.94
5 -11 10 39.09 2.51
5 -11 10 36.57 2.38
-5 11 -10 36.93 1.09
5 -11 10 35.56 2.22
-5 11 -11 2.36 0.24
5 -11 11 3.02 0.76
5 -11 11 2.19 0.68
5 -11 12 24.45 1.95
5 -11 12 23.47 1.68
5 -11 13 7.09 0.99
5 -11 13 6.53 0.78
5 -11 14 11.62 1.11
5 -11 15 1.03 0.34
-5 11 -15 1.77 1.97
-5 10 13 0.35 0.41
5 -10 -13 -0.57 0.37
5 -10 -12 0.48 0.48
-5 10 12 0.06 1.71
5 -10 -12 -2.34 1.75
-5 10 12 0.04 0.51
-5 10 11 1.55 0.83
-5 10 11 0.84 2.71
5 -10 -11 1.33 0.77
5 -10 -11 2.04 2.69
5 -10 -10 10.72 1.38
-5 10 10 11.29 1.71
-5 10 10 6.92 5.41
5 -10 -10 12.58 4.2
5 -10 -10 12.12 1.68
5 -10 -9 23.37 6.3
5 -10 -9 26.67 2.5
-5 10 9 19.36 2.33
-5 10 9 27.15 8.44
5 -10 -9 24.63 2.59
5 -10 -8 3.04 1.08
-5 10 8 2.99 0.99
5 -10 -8 3.68 4.1
-5 10 8 4.18 4.18
5 -10 -8 1.94 0.73
5 -10 -7 0.53 0.69
-5 10 7 1.08 0.81
5 -10 -7 1.27 0.86
-5 10 7 2.12 2.85
5 -10 -7 2.22 3.22
5 -10 -6 129.53 4.27
-5 10 6 118.29 17.41
5 -10 -6 139.31 6.38
-5 10 6 130.78 6.07
5 -10 -6 127.28 15.26
5 -10 -6 119.73 5.8
5 -10 -5 17.69 1.47
5 -10 -5 17.7 2.27
-5 10 5 19.67 2.26
-5 10 5 15.67 5.92
5 -10 -5 13.17 5.2
5 -10 -5 17.13 2.08
5 -10 -4 144.66 16.09
5 -10 -4 154.44 4.94
5 -10 -4 167.27 6.93
-5 10 4 152.75 6.29
-5 10 4 151.57 18.64
5 -10 -4 165.21 5.45
5 -10 -4 135.91 6.04
5 -10 -4 167.37 7.94
5 -10 -3 1.12 0.45
5 -10 -3 1.34 0.76
5 -10 -3 1.77 0.94
-5 10 3 2.21 0.82
-5 10 3 -0.84 4
5 -10 -3 1.5 1.91
5 -10 -3 2.58 0.96
5 -10 -3 0.36 0.44
5 -10 -2 37.35 2.17
5 -10 -2 36.84 3.09
-5 10 2 33.57 2.71
5 -10 -2 25.6 6.6
5 -10 -2 36.23 2.54
-5 10 2 33.66 8.03
5 -10 -2 31.56 2.52
5 -10 -2 37.79 3.67
5 -10 -1 0.64 0.44
5 -10 -1 1.37 0.86
5 -10 -1 -0.34 0.59
-5 10 1 0.3 0.62
5 -10 -1 1.26 0.71
5 -10 -1 1.21 0.5
5 -10 0 99.89 3.68
5 -10 0 105.22 6.32
5 -10 0 103.05 5.21
-5 10 0 96.26 4.4
-5 10 0 83.76 10.78
5 -10 0 98.74 4.46
5 -10 0 87.79 4.1
5 -10 1 23.96 2.5
5 -10 1 32.33 3.49
5 -10 1 30.59 2.43
5 -10 1 31.13 1.96
5 -10 1 31.52 2.85
5 -10 1 27.33 2.05
5 -10 2 9.34 1.66
5 -10 2 7.21 0.95
5 -10 2 7.37 1.74
5 -10 2 6.92 1.35
5 -10 2 8.15 1.33
5 -10 3 8.37 1.57
5 -10 3 9.13 0.99
5 -10 3 12.43 2.15
5 -10 3 10.49 1.77
5 -10 3 9.49 1.12
-5 10 -3 10.57 0.61
5 -10 3 12.41 1.66
5 -10 4 37.37 3.38
5 -10 4 36.76 2.89
5 -10 4 37.56 2.26
5 -10 4 35.95 2.04
-5 10 -4 38.29 1.25
5 -10 4 33.83 3.03
5 -10 4 40.15 3.66
5 -10 5 188.66 8.21
5 -10 5 198.73 5.97
5 -10 5 192.15 5.65
5 -10 5 176.12 7.62
-5 10 -5 199.83 4.02
5 -10 5 180.74 7.12
5 -10 5 192.99 8.21
5 -10 6 38.59 3.51
5 -10 6 35.78 2.31
5 -10 6 35.7 3.18
5 -10 6 34.07 2.95
5 -10 6 32.47 3.12
5 -10 6 35.31 2.1
-5 10 -6 34.64 1.03
-5 10 -6 37.29 1.23
5 -10 7 5.33 1.42
5 -10 7 4.97 0.87
5 -10 7 5.14 0.91
5 -10 7 6.13 1.47
5 -10 7 4.26 1.16
-5 10 -7 5.25 0.44
-5 10 -7 4.79 0.34
5 -10 8 154.3 5.28
5 -10 8 153.79 5.1
-5 10 -8 148.1 3.18
-5 10 -8 143.43 2.99
5 -10 9 17.47 1.69
5 -10 9 15.15 1.51
5 -10 9 14.33 1.47
-5 10 -9 14.68 0.7
-5 10 -9 13.61 0.6
5 -10 10 247.55 7.24
5 -10 10 245.6 7.21
-5 10 -10 241.85 4.72
5 -10 11 34.9 2.26
-5 10 -11 33.53 0.99
5 -10 11 29.52 2.09
5 -10 11 31.58 2.19
5 -10 12 34.75 2.48
5 -10 12 34.19 2.07
5 -10 13 5.16 0.93
5 -10 13 4.74 0.67
5 -10 14 0.02 0.42
5 -10 15 4.92 0.73
-5 10 -15 6.79 3.04
5 -10 16 6.67 0.67
-5 10 -16 4.16 1.52
-5 9 14 2.29 0.55
5 -9 -14 1.59 0.33
-5 9 13 0.21 0.48
-5 9 13 1.07 1.66
5 -9 -13 0.18 0.35
-5 9 12 10.13 1.48
5 -9 -12 10.17 3.33
5 -9 -12 9.08 1.27
-5 9 12 9.56 4.18
-5 9 11 -0.1 0.67
5 -9 -11 -0.32 0.61
-5 9 11 -2.12 3.29
5 -9 -11 2.53 1.23
-5 9 10 115.84 16.49
5 -9 -10 130.83 5.12
-5 9 10 115.71 5.69
5 -9 -10 118.18 13.4
5 -9 -10 121.94 5.61
5 -9 -9 -0.47 0.86
5 -9 -9 -0.66 0.78
-5 9 9 -0.18 0.61
-5 9 9 -2.47 3.82
5 -9 -9 -1.02 2.07
5 -9 -8 51.23 3.47
-5 9 8 42.55 3.44
-5 9 8 38.96 10.38
5 -9 -8 39.19 8.28
5 -9 -8 44.64 3.41
5 -9 -7 18.91 1.54
5 -9 -7 19.9 2.24
-5 9 7 18.94 2.33
-5 9 7 13.64 6.3
5 -9 -7 17.49 6.13
5 -9 -7 21.02 2.32
5 -9 -6 2.14 0.89
5 -9 -6 0.72 0.5
5 -9 -6 1.14 0.8
-5 9 6 1.85 0.88
5 -9 -6 0.74 0.84
-5 9 6 2.96 3.72
5 -9 -6 0.29 0.69
5 -9 -6 2.66 1.83
5 -9 -5 1.38 0.83
5 -9 -5 0.3 0.44
5 -9 -5 -1.97 2.29
5 -9 -5 -0.1 0.62
5 -9 -5 -0.36 0.64
-5 9 5 -0.49 0.6
-5 9 5 -0.95 3.98
5 -9 -5 0.79 1.08
5 -9 -4 0.58 0.36
5 -9 -4 1.84 1.06
5 -9 -4 2.13 0.75
-5 9 4 1.11 0.65
5 -9 -4 0.38 0.66
5 -9 -4 0.79 1.86
-5 9 4 -1.48 2.58
5 -9 -3 15.96 2.32
5 -9 -3 14.96 1.34
5 -9 -3 15.65 1.84
-5 9 3 14.84 1.82
-5 9 3 16.5 5.23
5 -9 -3 7.68 3.02
5 -9 -3 13.39 1.63
5 -9 -2 30.47 2.58
5 -9 -2 30.67 3.24
5 -9 -1 2.06 0.86
5 -9 0 83.69 5.57
5 -9 1 24.28 2.96
5 -9 2 8.27 1.62
5 -9 2 8.89 1.82
5 -9 3 0.66 0.68
5 -9 3 0.44 0.75
-5 9 -3 -0.01 0.19
5 -9 4 97.59 5.58
5 -9 4 99.02 5.76
-5 9 -4 95.06 2.25
5 -9 5 0.87 0.52
5 -9 5 1.54 0.8
5 -9 5 1.26 0.42
5 -9 5 0.97 0.39
5 -9 5 1.88 0.86
5 -9 5 0.21 0.65
-5 9 -5 1.69 0.28
5 -9 6 5.86 1.33
5 -9 6 6.37 1.5
5 -9 6 7.13 0.94
5 -9 6 8.25 1.03
5 -9 6 6.09 1.41
-5 9 -6 6.6 0.39
-5 9 -6 7.17 0.49
5 -9 6 8.62 1.43
5 -9 7 18.12 2.47
-5 9 -7 16.96 0.77
5 -9 7 17.58 1.52
5 -9 7 18.57 1.55
5 -9 7 17.18 2.31
-5 9 -7 15.88 0.64
5 -9 7 17.14 2.12
5 -9 8 3.93 1.16
5 -9 8 4.8 0.9
5 -9 8 4.35 0.87
5 -9 8 2.89 0.85
-5 9 -8 4.45 0.4
-5 9 -8 4.07 0.32
5 -9 9 5.04 1.12
-5 9 -9 5.13 0.37
5 -9 9 6.44 1.07
5 -9 9 5.27 0.92
-5 9 -9 4.9 0.42
5 -9 10 177.21 5.65
5 -9 10 162.27 5.43
5 -9 10 162.62 5.62
-5 9 -10 163.55 3.39
-5 9 -10 160.1 3.25
5 -9 11 15.47 1.47
5 -9 11 13.25 1.42
5 -9 11 16.01 1.6
-5 9 -11 15.43 0.66
5 -9 12 35.78 2.58
5 -9 12 33.65 1.99
-5 9 -12 34.63 0.98
5 -9 12 36.49 2.12
5 -9 13 0.33 0.58
5 -9 13 0.13 0.28
5 -9 13 0.58 0.37
5 -9 14 1.58 0.64
-5 9 -15 4.66 2.81
5 -9 15 4.35 0.76
5 -9 16 7.99 0.82
-5 9 -16 10.15 3.01
-5 8 15 11.74 0.98
5 -8 -14 7.59 0.82
-5 8 14 6.15 1.03
-5 8 13 0.9 0.79
-5 8 13 0.02 1.53
5 -8 -13 0.32 0.61
-5 8 12 1.07 0.94
-5 8 12 1.09 1.01
-5 8 12 -1.45 2.2
5 -8 -12 0.3 0.62
-5 8 11 71.98 5.27
-5 8 11 103.3 5.22
-5 8 11 91.28 14.37
5 -8 -11 94.4 11.26
5 -8 -11 100 4.85
-5 8 10 28.3 3.29
-5 8 10 33.4 3.02
-5 8 10 33.42 8.83
5 -8 -10 29.81 6.5
5 -8 -10 34.42 2.87
-5 8 9 22 3.03
5 -8 -9 28.37 1.86
5 -8 -9 35.98 2.63
-5 8 9 29.59 2.91
-5 8 9 30.13 9.17
5 -8 -9 29.26 6.81
5 -8 -9 29.78 2.79
-5 8 8 36.56 3.87
5 -8 -8 52.47 2.6
5 -8 -8 55.21 3.41
-5 8 8 48.48 3.62
-5 8 8 54.14 11.47
5 -8 -8 64.31 10.11
5 -8 -8 50.72 3.56
5 -8 -7 0.37 0.57
5 -8 -7 0.64 0.42
-5 8 7 -0.03 1.03
5 -8 -7 -0.06 0.56
-5 8 7 -0.61 0.74
-5 8 7 -3.54 3.35
5 -8 -7 -1.52 1.03
5 -8 -7 -1.43 2.5
-5 8 6 1.17 1.01
5 -8 -6 -0.28 0.71
5 -8 -6 0.25 0.38
5 -8 -6 1.95 0.92
-5 8 6 0.34 0.73
5 -8 -6 0.4 0.51
-5 8 6 3.87 2.33
5 -8 -6 1.36 0.78
5 -8 -6 3.36 2.79
-5 8 5 25.85 2.81
5 -8 -5 36.52 3.22
5 -8 -5 33.21 2.05
5 -8 -5 35.44 2.71
-5 8 5 30.18 2.55
5 -8 -5 35.12 3.77
-5 8 5 30.18 7.59
5 -8 -5 34.65 6.99
5 -8 -5 30.91 2.49
5 -8 -4 40.55 4.01
5 -8 -4 44.52 3.72
5 -8 -3 -0.41 0.69
5 -8 -2 154.96 7.46
5 -8 -1 10.61 1.92
5 -8 0 5.42 1.48
5 -8 1 3.51 1.15
5 -8 2 2.79 1.16
5 -8 3 187.28 8.05
-5 8 -3 186.49 3.73
5 -8 4 228.35 9.16
-5 8 -4 237.95 4.6
5 -8 4 240.18 9.32
5 -8 5 81.75 5.13
-5 8 -5 78.41 1.93
5 -8 5 77.91 4.89
5 -8 6 9.91 1.05
5 -8 6 10.63 1.85
5 -8 6 8.24 1.53
-5 8 -6 8.83 0.44
-5 8 -6 10.01 0.56
5 -8 7 2.04 0.84
5 -8 7 3.12 1.09
5 -8 7 2.46 0.6
5 -8 7 3.45 0.61
5 -8 7 4.02 1.22
-5 8 -7 3.15 0.34
-5 8 -7 2.69 0.25
5 -8 8 117.09 6.4
5 -8 8 121.49 4.25
5 -8 8 126.06 4.51
5 -8 8 107.79 5.26
-5 8 -8 122.32 2.72
-5 8 -8 117.07 2.5
5 -8 9 92.83 5.49
5 -8 9 85.06 3.53
5 -8 9 89.19 3.86
-5 8 -9 82.56 1.92
-5 8 -9 84.55 2.08
-5 8 -10 8.51 0.52
5 -8 10 9.29 1.1
5 -8 10 9.14 1.08
5 -8 10 8.61 1.21
5 -8 11 1.68 0.5
5 -8 11 2.4 0.71
5 -8 11 2.72 0.73
-5 8 -11 2.49 0.3
5 -8 12 27.94 2.27
5 -8 12 25.65 1.6
-5 8 -12 24.52 0.81
5 -8 12 26.13 1.98
5 -8 13 32.95 2.43
5 -8 13 31.29 2.04
5 -8 14 8.04 1.15
5 -8 14 7.72 0.92
5 -8 15 28.32 1.95
5 -8 15 24.57 1.39
-5 8 -15 25.26 6.23
5 -8 16 45.87 2.18
-5 8 -16 46.99 7.02
-5 7 15 3.89 0.78
-5 7 15 3.82 0.52
-5 7 14 1.57 0.94
-5 7 14 1.44 0.73
5 -7 -14 1.43 0.48
-5 7 14 4.01 2.26
-5 7 13 18.27 2.49
-5 7 13 28.92 2.6
-5 7 13 31.18 6.84
5 -7 -13 28.7 2.16
-5 7 12 6.38 1.75
-5 7 12 8.7 1.59
-5 7 12 9.39 4.65
5 -7 -12 8.22 1.32
-5 7 11 -0.98 1.27
-5 7 11 -0.07 0.81
-5 7 11 -1 3.74
5 -7 -11 1.08 2.04
5 -7 -11 0.54 0.61
-5 7 10 2.52 1.26
5 -7 -10 3.46 0.64
-5 7 10 3.75 1.23
-5 7 10 3.91 4.48
5 -7 -10 1.06 2.04
5 -7 -10 4.43 1.14
5 -7 -9 203.91 5.87
-5 7 9 213.05 22.67
-5 7 9 198.63 7.75
-5 7 9 163.05 8.24
5 -7 -9 208.79 17.44
5 -7 -9 202.08 7.42
-5 7 8 4.78 1.48
5 -7 -8 5.97 1.25
5 -7 -8 5.02 0.9
5 -7 -8 7.62 1.23
-5 7 8 5.21 1.31
-5 7 8 2.58 3.93
5 -7 -8 4.23 1.46
5 -7 -8 2.61 2.19
-5 7 7 4.14 1.36
5 -7 -7 4.57 0.86
5 -7 -7 4.41 1.03
-5 7 7 3.91 1
-5 7 7 6.88 3.8
5 -7 -7 4.43 1.33
5 -7 -7 6.48 3.48
5 -7 -7 4.69 1.11
-5 7 6 6.31 1.5
5 -7 -6 6.55 0.95
5 -7 -6 7.52 1.4
-5 7 6 5.14 1.01
-5 7 6 8.61 3.98
5 -7 -6 7.37 1.79
5 -7 -6 7.62 1.25
5 -7 -5 6.47 1.36
5 -7 -5 5.63 1.58
5 -7 -4 109.83 5.69
5 -7 -4 101.52 6.24
5 -7 -3 4.71 1.24
5 -7 -3 2.55 1.01
5 -7 -2 16.1 2.27
5 -7 -1 147.49 6.97
5 -7 0 3.67 1.18
5 -7 1 25.98 2.79
-5 7 -2 4.54 0.34
5 -7 2 4.15 1.23
5 -7 3 1.99 0.81
-5 7 -3 2.76 0.35
5 -7 4 0.25 0.6
-5 7 -4 0.35 0.17
5 -7 5 201.12 8.28
5 -7 5 201.6 8.07
-5 7 -5 203.63 3.93
-5 7 -5 195.13 3.69
5 -7 6 148.26 7.05
5 -7 6 141.68 6.44
-5 7 -6 148.1 3.04
-5 7 -6 139.33 2.8
5 -7 7 5.52 1.35
5 -7 7 5.29 1.19
-5 7 -7 5.43 0.43
-5 7 -7 5.27 0.34
5 -7 8 50.87 3.97
5 -7 8 44.44 2.31
5 -7 8 47.08 2.56
-5 7 -8 45.13 1.22
-5 7 -8 45.6 1.36
5 -7 9 117.45 6.1
5 -7 9 117.86 4.06
5 -7 9 123.51 4.58
-5 7 -9 126.04 13.99
-5 7 -9 117.3 2.67
-5 7 -9 116.8 2.49
5 -7 10 41.44 2.29
5 -7 10 37.54 2.15
5 -7 10 40.91 2.61
-5 7 -10 41.32 1.26
5 -7 11 0.89 0.36
5 -7 11 0.99 0.59
5 -7 11 0.27 0.35
-5 7 -11 0.69 0.21
5 -7 12 14.54 1.61
5 -7 12 13.59 1.49
-5 7 -12 14.09 0.61
5 -7 13 94.74 4.28
5 -7 13 86.86 3.82
-5 7 -13 84.97 1.85
5 -7 14 39.43 2.57
5 -7 14 37.35 2.41
5 -7 15 0.02 0.44
-5 7 -15 -1.85 3.28
5 -7 15 -0.08 0.34
5 -7 16 6.3 0.83
5 -7 16 6.55 0.67
-5 7 -16 5.27 2.81
5 -7 17 3.35 0.48
-5 7 -17 0.65 0.91
-5 6 16 9.82 0.72
-5 6 16 8.47 0.89
-5 6 15 0.35 0.69
-5 6 15 1.97 0.66
-5 6 15 1.48 0.45
-5 6 14 4.09 1.32
-5 6 14 5.69 1.21
5 -6 -14 5.06 0.81
-5 6 13 27.51 2.6
-5 6 13 27.63 3.13
-5 6 13 26.66 6.11
5 -6 -13 30.71 2.24
-5 6 12 -0.35 0.98
-5 6 12 -0.36 0.84
-5 6 12 0.89 2.64
5 -6 -12 0.5 0.35
5 -6 -12 0.91 0.65
-5 6 11 19.27 2.73
5 -6 -11 21.25 1.67
-5 6 11 25.41 2.68
-5 6 11 24.06 7.37
5 -6 -11 26.09 2.37
5 -6 -10 6.35 1
-5 6 10 5.21 1.24
-5 6 10 5.03 3.97
5 -6 -10 7.1 1.31
-5 6 10 7.1 1.87
-5 6 9 6.25 1.59
5 -6 -9 6.71 0.98
-5 6 9 6.89 1.41
-5 6 9 8.96 5.02
5 -6 -9 5.71 1.55
5 -6 -9 8.43 1.36
-5 6 8 117.34 5.39
5 -6 -8 133.31 7.36
-5 6 8 108.07 6.05
-5 6 8 130.58 16.21
5 -6 -8 121.51 5.14
-5 6 7 2.29 0.93
-5 6 7 3.49 0.9
-5 6 7 1.63 2.88
5 -6 -7 4.8 0.93
5 -6 -7 3.02 1.14
5 -6 -6 3.35 0.92
5 -6 -6 2.41 1.17
5 -6 -5 7.4 1.35
5 -6 -5 6.96 1.72
5 -6 -4 19.72 2.59
5 -6 -4 17.84 2.19
5 -6 -3 0.09 0.58
5 -6 -3 -0.66 0.74
5 -6 -2 8.88 1.54
5 -6 -2 8.54 1.7
5 -6 -1 164.02 6.94
5 -6 0 95.38 5.17
5 -6 0 91.89 5.06
5 -6 1 6.22 1.36
5 -6 1 7.26 1.4
5 -6 2 24.67 2.74
-5 6 -2 22.73 0.76
-5 6 -3 85.62 1.91
5 -6 3 91.17 5.38
-5 6 -4 112.97 2.4
5 -6 4 121.04 6.4
-5 6 -5 256.51 4.8
-5 6 -5 253.08 4.57
5 -6 6 80.56 4.86
-5 6 -6 77.85 1.84
-5 6 -6 73.44 1.63
5 -6 6 77.83 5.18
5 -6 7 100.19 5.91
-5 6 -7 96.03 2.23
5 -6 7 98.32 5.56
-5 6 -7 95.34 2.04
5 -6 8 65.37 4.45
5 -6 8 68.3 4.69
5 -6 8 67.56 3.01
-5 6 -8 65.34 1.71
-5 6 -8 64.52 1.56
5 -6 9 6.48 1.39
5 -6 9 4.17 0.77
-5 6 -9 4.73 0.41
5 -6 9 5.04 0.71
5 -6 10 91.4 5.24
5 -6 10 86.05 3.36
-5 6 -10 84.9 12.18
-5 6 -10 95.46 2.22
5 -6 10 90.45 3.98
5 -6 11 17.85 1.39
5 -6 11 18.89 1.78
-5 6 -11 19.65 0.79
-5 6 -11 21.97 6.7
5 -6 12 44.47 2.93
-5 6 -12 43.68 8.23
5 -6 12 47.29 2.91
-5 6 -12 42.63 1.22
5 -6 13 9 1.32
-5 6 -13 7.68 0.42
5 -6 13 9.07 1.29
5 -6 14 24.22 2.04
5 -6 14 23.55 1.86
5 -6 15 106.18 4.18
5 -6 15 102.65 3.86
-5 6 -15 106.38 13.83
5 -6 16 16.16 1.34
5 -6 16 14.14 1.12
-5 6 -16 13.02 4.22
5 -6 17 4.72 0.58
-5 6 -17 5.01 2.06
-5 5 16 4.16 0.96
-5 5 16 4.64 0.76
-5 5 16 5.39 0.69
-5 5 15 1.95 0.99
-5 5 15 2.28 0.71
-5 5 14 3.24 1.14
-5 5 14 2.67 0.86
-5 5 13 84.3 5.48
5 -5 -13 74.27 3.1
-5 5 13 97.58 4.98
5 -5 -13 105.87 4.11
-5 5 12 46.51 4.12
-5 5 12 50.88 3.69
-5 5 12 45.55 8.86
5 -5 -12 50.38 3.09
-5 5 11 51.08 4.37
-5 5 11 51.5 3.74
-5 5 11 52.11 9.96
5 -5 -11 57.5 3.38
-5 5 10 117.99 6.45
-5 5 10 121.35 5.69
-5 5 10 120.67 15.81
5 -5 -10 129.43 5.28
-5 5 9 42.8 3.64
-5 5 9 43.75 3.19
5 -5 -9 43.12 4.07
-5 5 9 42.1 9.5
5 -5 -9 44.6 2.93
-5 5 8 4 0.96
5 -5 -8 4.47 1
-5 5 8 3.1 0.84
-5 5 8 6.37 2.69
5 -5 -8 4.09 1.32
5 -5 -7 0.69 0.76
5 -5 -6 112.65 6.5
5 -5 -6 133.15 5.34
5 -5 -5 0.15 0.54
5 -5 -5 0 0.73
5 -5 -4 2.73 0.93
5 -5 -4 3.33 1.22
5 -5 -3 4.53 1.18
5 -5 -3 5.2 1.23
5 -5 -2 5.2 1.17
5 -5 -2 4.42 1.08
5 -5 -1 28.25 2.62
5 -5 -1 30.13 2.72
5 -5 0 130.41 5.96
-5 5 -1 608.1 10.46
5 -5 1 679.8 16.45
-5 5 -2 165.86 3.18
5 -5 2 177.44 7.4
-5 5 -3 20.68 0.7
5 -5 3 22.33 2.56
5 -5 4 2.01 0.97
-5 5 -4 1.26 0.21
-5 5 -4 1.03 0.13
-5 5 -5 46.07 1.22
5 -5 5 46.96 3.93
-5 5 -5 45.22 1.06
-5 5 -6 32.36 1.02
-5 5 -6 32.63 0.88
5 -5 7 87.3 4.97
-5 5 -7 84.55 2.03
-5 5 -7 88.5 1.87
5 -5 7 84.6 5.37
5 -5 8 1.06 0.52
5 -5 8 0.8 0.55
-5 5 -8 1 0.22
5 -5 9 23.32 2.47
5 -5 9 17.82 2.28
-5 5 -9 21.96 0.85
5 -5 9 21.69 1.69
-5 5 -9 21.13 6.58
5 -5 10 114.48 5.66
5 -5 10 114.86 4.48
5 -5 10 118.56 4.09
-5 5 -10 119.7 2.63
5 -5 11 16.15 1.74
5 -5 11 17.24 1.72
5 -5 11 16.93 1.45
-5 5 -11 18.73 0.77
-5 5 -11 18.23 6.01
5 -5 12 57.01 3.3
5 -5 12 56.99 3.27
5 -5 12 55.43 2.73
-5 5 -12 51.56 1.43
-5 5 -12 64.07 11.12
5 -5 13 1.2 0.77
5 -5 13 1.54 0.73
5 -5 13 0.82 0.44
-5 5 -13 0.57 0.18
5 -5 14 40.54 2.68
-5 5 -14 41.6 10.24
5 -5 14 43.27 2.71
5 -5 14 39.3 2.16
5 -5 15 0.07 0.43
5 -5 15 0.04 0.43
5 -5 15 -0.1 0.27
-5 5 -15 -1.54 3.17
5 -5 16 22.49 1.58
5 -5 16 20.41 1.47
5 -5 17 1.12 0.37
5 -5 17 0.96 0.3
-5 4 17 0.17 0.42
-5 4 17 0.83 0.28
-5 4 16 1.03 0.79
-5 4 16 2.49 0.71
-5 4 16 1.92 0.5
-5 4 15 6.37 1.14
-5 4 15 6.14 1.38
-5 4 14 2.15 1.04
5 -4 -14 1.84 0.46
-5 4 14 1.9 0.79
-5 4 13 36.08 3.5
-5 4 13 41.13 3.16
-5 4 12 24.95 3.11
-5 4 12 26.99 2.63
-5 4 11 7.64 1.7
-5 4 11 8.06 1.5
-5 4 11 8.08 3.77
5 -4 -11 9.58 1.33
-5 4 10 83.6 5.13
-5 4 10 79.21 4.38
-5 4 10 87.52 6.28
5 -4 -10 93.03 5.98
-5 4 10 72.85 11.48
5 -4 -10 83.58 3.97
-5 4 9 163.26 7.11
-5 4 9 170.42 6.27
5 -4 -9 185.83 8.68
-5 4 9 181.26 17.51
5 -4 -9 168.04 5.82
5 -4 -8 265.49 10.54
5 -4 -7 82.36 5.42
5 -4 -6 -0.05 0.36
5 -4 -6 -0.1 0.62
5 -4 -5 0.35 0.55
5 -4 -5 -0.05 0.52
5 -4 -5 0.05 0.09
5 -4 -4 150.05 6.76
5 -4 -4 158.11 6.1
5 -4 -4 148.85 2.68
5 -4 -3 0.11 0.46
5 -4 -3 0.44 0.48
5 -4 -3 -0.71 0.62
5 -4 -3 0.34 0.1
5 -4 -2 3.75 1.03
5 -4 -2 4.18 1.15
5 -4 -1 65.13 3.87
5 -4 0 195.34 7.16
-5 4 0 172.21 3.18
-5 4 -1 4.86 0.78
5 -4 1 5.26 1.23
-5 4 -1 4.91 0.29
5 -4 2 145.8 6.55
-5 4 -2 132.96 2.65
-5 4 -2 139.93 2.44
-5 4 -3 0.47 0.16
-5 4 -3 0.23 0.08
-5 4 -4 6.31 0.36
5 -4 4 6.47 1.44
-5 4 -4 5.73 0.26
5 -4 5 25.89 2.84
-5 4 -5 25.06 0.83
-5 4 -5 26.09 0.69
-5 4 -6 90.99 2.08
5 -4 6 93.23 5.59
-5 4 -6 94.86 1.9
5 -4 7 1.24 0.8
-5 4 -7 1.33 0.23
5 -4 7 1.44 1.05
5 -4 8 3.12 0.92
-5 4 -8 3.83 0.38
5 -4 9 65 4.04
-5 4 -9 71.8 1.8
5 -4 9 67.67 3.06
5 -4 9 75.17 3.08
5 -4 9 68.64 4.5
-5 4 -10 0.04 2.2
5 -4 10 0.18 0.44
5 -4 10 -0.42 0.47
-5 4 -10 -0.06 0.18
5 -4 11 21.78 1.93
5 -4 11 19.89 1.69
-5 4 -11 20.33 0.83
5 -4 11 20.04 1.78
-5 4 -11 24.28 7.44
5 -4 12 4.61 0.93
5 -4 12 4.63 1.11
5 -4 12 4.31 0.91
-5 4 -12 3.7 0.34
-5 4 -12 4.04 2.74
5 -4 13 3.98 0.89
5 -4 13 4.29 1.01
5 -4 13 4.82 0.9
-5 4 -13 3.1 0.3
5 -4 14 -0.02 0.46
5 -4 14 -0.13 0.58
5 -4 14 0.05 0.34
-5 4 -14 0.27 2.68
-5 4 -14 -0.04 0.12
5 -4 15 23.27 1.82
5 -4 15 23.08 1.86
5 -4 15 20.56 1.52
-5 4 -15 16.81 5.57
5 -4 16 -0.19 0.34
5 -4 16 0.26 0.44
5 -4 16 -0.61 0.27
5 -4 17 9.26 0.74
5 -4 17 9.68 0.82
-5 4 -17 7.62 2.69
-5 3 17 6.78 1.1
-5 3 17 10.95 0.95
-5 3 16 0.26 0.59
-5 3 16 0.23 0.36
-5 3 16 0.46 0.37
-5 3 15 13.75 2.01
-5 3 15 14.93 1.73
-5 3 14 2.51 1.27
-5 3 14 2.49 0.82
-5 3 13 2.69 1.1
-5 3 13 1.79 0.78
-5 3 12 47.43 4.05
-5 3 12 40.47 3.12
-5 3 11 243.54 9.3
-5 3 11 237.07 8.02
-5 3 10 127.43 6.17
-5 3 10 116.28 5.07
-5 3 10 130.94 7.75
5 -3 -10 121.69 6.85
-5 3 9 0.53 0.75
-5 3 9 0.69 0.61
-5 3 9 1.03 0.78
5 -3 -9 2.85 1.09
-5 3 8 273.84 11.54
5 -3 -8 258.83 10.17
5 -3 -7 0.84 0.83
5 -3 -6 12.96 1.97
5 -3 -6 12.51 1.38
5 -3 -5 24.89 2.59
5 -3 -5 24.96 2.05
5 -3 -5 24.83 0.66
5 -3 -4 3.94 0.88
5 -3 -4 5.03 1.23
5 -3 -4 4.09 0.23
5 -3 -4 5.78 0.89
5 -3 -3 10.22 1.57
5 -3 -3 10.73 1.36
5 -3 -3 10.47 0.37
5 -3 -2 164.95 6.4
5 -3 -2 162.94 5.99
5 -3 -2 160.73 2.91
5 -3 -1 0.09 0.51
-5 3 1 0.43 0.43
-5 3 1 0.7 0.12
-5 3 0 16.46 1.61
5 -3 0 15.47 1.94
-5 3 0 15.22 0.47
5 -3 1 0.95 0.84
-5 3 -1 0.86 0.42
-5 3 -1 0.82 0.14
5 -3 2 11.37 1.76
-5 3 -2 10.1 0.41
5 -3 3 5.17 1.36
-5 3 -3 4.37 0.29
-5 3 -3 4.64 0.2
5 -3 4 14.71 2.2
-5 3 -4 13.62 0.4
-5 3 -4 13.06 0.52
5 -3 5 11.79 2.01
-5 3 -5 10.65 0.5
5 -3 6 2.31 1.05
-5 3 -6 1.73 0.23
5 -3 7 25.76 2.48
-5 3 -7 25.1 0.86
5 -3 7 25.18 2.87
5 -3 8 260.53 8.56
-5 3 -8 260.39 4.91
5 -3 9 123.77 5.37
-5 3 -9 119.73 2.62
5 -3 9 114.63 4.12
-5 3 -9 98.5 13.46
5 -3 9 104.27 5.69
5 -3 9 125.15 4.31
5 -3 10 35.32 2.24
5 -3 10 28.69 2
-5 3 -10 34.04 8.53
-5 3 -10 33.77 1.1
5 -3 10 32.36 2.11
-5 3 -10 29.25 3.25
5 -3 11 137.13 4.96
5 -3 11 125.23 4.75
-5 3 -11 125.88 16.76
5 -3 11 139.04 4.99
-5 3 -11 127.46 2.82
5 -3 12 3.5 0.95
5 -3 12 2.31 0.73
5 -3 12 2.61 0.68
-5 3 -12 2.36 0.29
5 -3 13 -0.16 0.65
5 -3 13 0.45 0.44
5 -3 13 -0.08 0.57
-5 3 -13 0.1 0.14
5 -3 14 32.53 2.27
-5 3 -14 30.93 0.89
5 -3 14 37.97 2.6
5 -3 14 30.56 2.21
-5 3 -14 38.92 9.43
5 -3 15 16.17 1.48
5 -3 15 16.76 1.67
5 -3 15 14.65 1.37
-5 3 -15 16.85 5.53
5 -3 16 23.61 1.51
5 -3 16 25.02 1.79
5 -3 16 22.56 1.45
-5 3 -16 24.1 5.98
5 -3 17 5.52 0.7
5 -3 17 4.57 0.48
-5 3 -17 5.65 2.59
-5 2 17 -0.21 0.55
-5 2 17 -0.09 0.32
-5 2 16 1.39 0.95
-5 2 16 0.68 0.42
-5 2 16 0.71 0.48
-5 2 15 45.16 3.63
-5 2 15 42.91 2.79
-5 2 14 14.64 2.23
-5 2 14 17.14 1.94
-5 2 13 7.86 1.81
-5 2 13 6.75 1.37
-5 2 12 53.32 4.05
-5 2 12 47.67 3.23
-5 2 11 41.95 3.47
-5 2 11 39.47 2.85
-5 2 11 44.47 4.44
5 -2 -11 39.03 3.76
-5 2 10 71.76 4.34
-5 2 10 67.78 3.63
-5 2 10 83.42 6.06
5 -2 -10 71.82 5.07
-5 2 9 4.54 1.61
5 -2 -9 7.57 1.65
-5 2 8 18.41 2.82
5 -2 -8 14.16 2.11
-5 2 7 30.5 3.46
5 -2 -7 30.89 3.01
-5 2 6 29.44 3.23
5 -2 -6 29.68 2.84
-5 2 5 128.68 6.55
5 -2 -5 121.97 5.69
5 -2 -5 127.98 4.62
5 -2 -4 154.93 4.86
-5 2 4 166.58 7.14
5 -2 -4 159.53 6.29
5 -2 -4 148.36 2.76
-5 2 3 129.37 5.89
5 -2 -3 129.78 5.38
5 -2 -3 124.08 4.73
5 -2 -3 121.32 2.3
-5 2 2 17.56 1.99
5 -2 -2 17.67 1.86
5 -2 -2 17.64 1.84
5 -2 -2 17.03 0.51
5 -2 -1 0.71 0.13
-5 2 1 0.32 0.53
5 -2 -1 0.27 0.51
-5 2 0 86.76 3.66
5 -2 0 86.21 4.51
-5 2 0 77.76 1.54
-5 2 -1 214.41 5.76
5 -2 1 213.54 7.79
-5 2 -1 204.32 3.64
-5 2 -2 73.06 2.53
5 -2 2 74.71 4.47
-5 2 -2 69.56 1.46
5 -2 3 542.98 14.64
-5 2 -3 506.54 8.72
5 -2 4 -0.61 0.84
-5 2 -4 -0.01 0.15
5 -2 5 118.94 6.34
-5 2 -5 119.07 2.43
-5 2 -6 2.29 0.26
5 -2 6 3.65 1.24
5 -2 7 0.46 0.78
5 -2 7 0.08 0.52
-5 2 -7 0.24 0.16
5 -2 8 7.68 1.2
5 -2 8 8.02 1.68
-5 2 -8 7.84 0.47
5 -2 9 0.59 0.42
-5 2 -9 -0.72 3.15
5 -2 9 -0.5 0.88
5 -2 9 0.98 0.53
-5 2 -9 -0.4 0.75
-5 2 -9 0.3 0.17
5 -2 10 41.57 2.37
-5 2 -10 31.27 3.34
5 -2 10 36.33 2.2
-5 2 -10 40.97 9.66
5 -2 10 41.67 2.48
-5 2 -10 35.65 1.17
5 -2 11 0.47 0.63
5 -2 11 0.08 0.42
5 -2 11 0.48 0.43
-5 2 -11 0.23 0.21
-5 2 -11 -1.13 3.38
5 -2 12 16.63 1.59
-5 2 -12 17.06 1.7
5 -2 12 17.48 1.83
5 -2 12 18.17 1.82
-5 2 -12 13.75 5.88
-5 2 -12 15.55 0.71
5 -2 13 13.09 1.43
-5 2 -13 13.31 1.45
5 -2 13 15.2 1.77
5 -2 13 13.17 1.53
-5 2 -13 12.32 0.58
5 -2 14 69.06 3.25
5 -2 14 72 3.73
5 -2 14 65.72 3.36
-5 2 -14 78.59 13.21
-5 2 -14 66.8 1.53
5 -2 15 44.19 2.34
5 -2 15 47.56 2.83
5 -2 15 48.9 2.61
-5 2 -15 40.42 8.75
5 -2 16 1.55 0.46
5 -2 16 1.19 0.48
5 -2 16 0.77 0.35
-5 2 -16 0.08 1.82
5 -2 17 1 0.39
5 -2 17 0.45 0.2
-5 2 -17 0.28 1.34
-5 1 18 1.28 0.44
-5 1 18 2.62 0.37
5 -1 -17 1.4 0.31
-5 1 17 0.88 0.39
-5 1 17 0.61 0.59
-5 1 16 2.64 0.91
-5 1 16 2.52 0.58
-5 1 16 3.97 0.82
-5 1 15 28.69 2.9
-5 1 15 24.28 1.96
-5 1 15 32.36 2.41
-5 1 14 17.53 2.44
-5 1 14 14.75 1.67
-5 1 13 98.87 5.7
-5 1 13 88.37 4.38
-5 1 12 4.18 1.3
-5 1 12 3.93 0.82
-5 1 12 2.89 0.84
-5 1 11 146.62 6.41
-5 1 11 154.16 5.17
-5 1 11 127.65 5.22
-5 1 11 152.18 8.19
5 -1 -11 150.41 7.4
-5 1 10 113.89 5.2
-5 1 10 122.95 4.34
-5 1 10 128.29 7.51
5 -1 -10 115.81 6.38
-5 1 9 17.17 2.7
5 -1 -9 14.79 2.16
-5 1 8 17.84 2.7
5 -1 -8 14.22 2.07
-5 1 7 44.08 4.08
5 -1 -7 45.56 3.49
-5 1 6 1.98 0.93
5 -1 -6 1.37 0.59
-5 1 5 40.26 3.53
5 -1 -5 40.12 2.96
-5 1 4 498.04 13.74
5 -1 -4 471.11 12.2
5 -1 -4 480.3 10.82
5 -1 -3 37.65 2.58
-5 1 3 40.01 3.14
5 -1 -3 39.87 2.71
5 -1 -3 39.43 0.94
5 -1 -2 19.54 1.92
-5 1 2 18.93 2.1
5 -1 -2 20.56 1.84
5 -1 -2 19.69 0.59
5 -1 -1 25.98 0.7
5 -1 -1 25.04 2.33
-5 1 1 27.65 2.23
5 -1 0 161.75 6.55
-5 1 0 166.68 5.51
5 -1 1 272.79 9.01
-5 1 -1 283.15 7.05
-5 1 -1 258.53 4.54
5 -1 2 49.98 3.68
-5 1 -2 52.33 2.2
-5 1 -2 46.88 1.07
-5 1 -3 1000.35 16.77
5 -1 3 1031.72 23.42
5 -1 4 437.65 13.23
-5 1 -4 424.93 7.41
-5 1 -5 139.69 2.75
5 -1 5 127.98 6.75
5 -1 6 17.21 2.4
-5 1 -6 20 0.71
5 -1 7 52.84 3.14
5 -1 7 49.82 4.11
-5 1 -7 55.12 1.41
-5 1 -8 15.98 0.69
-5 1 -8 15.71 2.16
5 -1 8 15.5 2.26
5 -1 9 66.17 2.78
-5 1 -9 67.96 4.68
5 -1 9 72.64 3.24
-5 1 -9 66.48 1.72
-5 1 -9 61.66 10.55
5 -1 10 37.68 2.19
-5 1 -10 36.1 3.52
-5 1 -10 36.1 1.17
-5 1 -10 32.26 8.44
5 -1 10 42.03 2.66
5 -1 10 39.37 2.52
5 -1 11 2.39 0.7
5 -1 11 2.22 0.86
5 -1 11 1.29 0.6
-5 1 -11 3.29 3.81
-5 1 -11 1.55 0.26
-5 1 -11 0.4 2.59
5 -1 12 15.41 1.46
5 -1 12 12.89 1.48
5 -1 12 13.7 1.71
5 -1 12 14.75 1.7
-5 1 -12 17.96 6.48
-5 1 -12 13.76 0.67
-5 1 -12 12.38 1.56
5 -1 13 72.47 3.29
5 -1 13 71.97 3.43
-5 1 -13 69.07 1.69
5 -1 13 78.34 3.99
5 -1 13 71.92 3.71
-5 1 -13 61.8 12.21
-5 1 -13 74.35 3.62
5 -1 14 1.58 0.58
5 -1 14 0.76 0.42
5 -1 14 0.91 0.61
5 -1 14 0.93 0.54
-5 1 -14 -0.88 2.3
-5 1 -14 1.02 0.19
-5 1 -14 0.63 0.49
5 -1 15 61.61 2.58
-5 1 -15 53.91 9.94
5 -1 15 64.18 3.27
5 -1 15 61.43 3.01
5 -1 16 5.08 0.85
5 -1 16 5.02 0.73
-5 1 -16 6.05 3.16
5 -1 17 97.35 3
5 -1 17 92.62 2.68
-5 1 -17 99 8.81
-5 0 18 18.58 1.03
-5 0 18 12.34 1.19
-5 0 17 69.3 2.79
-5 0 17 51.96 3.18
-5 0 16 16.37 2.01
-5 0 16 20.53 1.74
-5 0 15 5.03 1.33
-5 0 15 4.25 0.97
-5 0 15 3.77 0.73
-5 0 14 0.88 0.9
-5 0 14 0.74 0.42
-5 0 14 0.37 0.58
-5 0 13 13.8 2.1
-5 0 13 15.8 1.61
-5 0 12 425.97 12.65
-5 0 12 462.3 11.09
-5 0 11 3.86 1.07
-5 0 11 5.1 1.56
-5 0 11 3.36 0.82
5 0 -11 2.97 1.16
-5 0 10 86.56 4.31
-5 0 10 91.88 6.26
5 0 -10 86.91 5.23
-5 0 10 96.15 3.95
-5 0 9 5.79 1.75
5 0 -9 2.41 1
-5 0 8 15.47 2.47
5 0 -8 13.11 1.93
-5 0 7 13.73 2.33
5 0 -7 14.24 1.87
-5 0 6 6.8 1.75
5 0 -6 6.72 1.41
-5 0 5 -0.17 0.55
5 0 -5 0.54 0.41
5 0 -4 123.17 4.41
-5 0 4 123.57 5.95
5 0 -4 123.41 4.82
5 0 -3 135.7 5.2
-5 0 3 143.77 6.11
5 0 -3 136.52 4.92
5 0 -3 136.75 2.58
5 0 -2 93.11 4.43
-5 0 2 94.07 4.57
5 0 -2 92.97 3.72
5 0 -2 86.4 1.76
5 0 -1 66.89 3.94
-5 0 1 65.38 3.55
5 0 -1 67.42 1.41
5 0 0 704.22 17.49
-5 0 0 710.92 15.82
5 0 0 742.22 12.41
5 0 1 136.04 6.15
-5 0 -1 144.02 4.78
-5 0 -1 128.8 2.38
5 0 2 309.44 10.2
-5 0 -2 325.04 7.49
5 0 3 397.68 12.62
-5 0 -3 414.54 7.24
5 0 4 69.5 4.79
-5 0 -4 75.24 1.62
5 0 5 43.58 3.87
-5 0 -5 48.43 1.21
5 0 6 132.45 7.05
-5 0 -6 148.5 2.94
-5 0 -7 10.46 0.53
5 0 7 9.03 1.77
-5 0 -7 9.56 1.57
5 0 8 120.45 6.34
-5 0 -8 122.4 6.08
-5 0 -8 125.7 2.7
-5 0 -9 103.07 5.69
-5 0 -9 108.79 2.45
5 0 9 113.65 4.32
5 0 10 22.64 1.98
5 0 10 21.37 1.86
-5 0 -10 20.54 2.47
-5 0 -10 16.16 5.9
-5 0 -10 20.79 0.85
-5 0 -10 15.27 6.42
5 0 11 4.94 1.05
5 0 11 5.54 1.13
-5 0 -11 4.45 3.24
-5 0 -11 4.39 0.4
-5 0 -11 4.34 1.01
5 0 12 -0.48 0.48
5 0 12 -0.48 0.67
5 0 12 0.26 0.45
-5 0 -12 0.13 0.18
-5 0 -12 -0.48 0.66
-5 0 -12 0.14 2.13
5 0 13 16.72 1.73
5 0 13 18.28 1.94
5 0 13 17.8 1.79
-5 0 -13 13.45 5.93
-5 0 -13 18.08 0.71
-5 0 -13 18.04 1.87
5 0 14 36.8 2.61
5 0 14 38.76 2.56
-5 0 -14 41.12 2.53
-5 0 -14 45.78 9.75
-5 0 -14 36.08 0.99
5 0 14 36.44 2.35
5 0 15 0.92 0.55
5 0 15 -0.38 0.53
5 0 15 0.28 0.33
-5 0 -15 -1.43 2.36
-5 0 -15 -0.01 0.37
5 0 16 10.93 1.15
-5 0 -16 8.27 3.22
5 0 16 11.15 1.07
5 0 17 43.03 1.75
5 0 17 43.72 1.61
-5 0 -17 45.88 5.49
-5 -1 18 4.68 0.78
-5 -1 18 7.33 0.66
-5 -1 17 5.23 1.11
-5 -1 17 6.67 0.86
-5 -1 16 3.13 1.02
-5 -1 16 3.87 0.74
-5 -1 16 3.89 0.9
-5 -1 15 6.68 1.53
-5 -1 15 8.77 1.32
-5 -1 15 8.45 1.15
-5 -1 14 41.3 3.45
-5 -1 14 47.47 3.14
-5 -1 14 46.96 2.86
-5 -1 13 2.73 1.15
-5 -1 13 3.55 0.99
-5 -1 13 3.84 0.95
-5 -1 12 51.09 3.53
-5 -1 12 52.87 3.29
-5 -1 12 58.07 3.2
-5 -1 11 45.24 3.12
-5 -1 11 49.46 4.47
5 1 -11 47.09 3.82
-5 -1 11 47.45 2.81
-5 -1 10 5.43 0.97
-5 -1 10 4.7 0.89
-5 -1 10 5.58 1.62
5 1 -10 4.53 1.19
-5 -1 9 21.03 2.96
5 1 -9 22.04 2.44
-5 -1 8 -1.11 0.95
5 1 -8 0.18 0.48
-5 -1 7 215.37 9.24
5 1 -7 207.24 7.28
-5 -1 6 166.01 7.68
5 1 -6 165.58 6.03
-5 -1 5 9.49 1.75
5 1 -5 7.91 1.15
5 1 -4 35.52 2.4
-5 -1 4 36.62 3.2
5 1 -4 36.94 2.26
-5 -1 3 75.03 4.33
5 1 -3 75.86 3.12
5 1 -3 71.86 1.54
5 1 -2 12.32 1.64
-5 -1 2 14.58 1.8
5 1 -2 12.69 0.46
5 1 -1 502.96 13.21
-5 -1 1 505.9 12.45
5 1 -1 483.11 8.29
5 1 0 144.22 6.35
-5 -1 0 143.15 5.36
5 1 0 141.96 2.67
5 1 1 161.51 7.09
-5 -1 -1 169.76 5.69
-5 -1 -1 169.27 3.02
5 1 2 99.47 5.49
-5 -1 -2 103.99 4.05
-5 -1 -2 98.84 1.91
5 1 3 375.91 12.32
-5 -1 -3 383.23 6.63
5 1 4 12.85 2.19
-5 -1 -4 11.09 0.46
5 1 5 11.29 2.05
-5 -1 -5 12.9 0.53
5 1 6 220.45 9.44
-5 -1 -6 231.07 4.33
-5 -1 -6 226.03 7.62
-5 -1 -7 16.27 0.69
5 1 7 16.22 2.4
-5 -1 -7 17.28 1.97
-5 -1 -8 9.52 1.54
-5 -1 -8 8.77 0.51
5 1 8 8.58 1.69
-5 -1 -9 26.36 7.92
5 1 9 27.31 1.99
5 1 9 26.76 2.01
-5 -1 -9 23.27 2.48
-5 -1 -9 25.46 0.94
-5 -1 -9 22.79 6.22
5 1 10 13.04 1.49
5 1 10 14.3 1.55
-5 -1 -10 11.13 0.63
-5 -1 -10 11.56 4.66
-5 -1 -10 9.69 1.43
5 1 11 0.79 0.53
5 1 11 0.48 0.5
-5 -1 -11 0.64 2.01
-5 -1 -11 0.24 0.21
-5 -1 -11 1.22 0.84
5 1 12 15.46 1.83
-5 -1 -12 16.67 0.73
5 1 12 17.04 1.86
5 1 12 17.56 1.84
-5 -1 -12 17.23 1.99
-5 -1 -12 16.36 6.4
5 1 13 26.43 2.28
-5 -1 -13 26.44 0.87
5 1 13 27.75 2.32
5 1 13 27.44 2.23
-5 -1 -13 26.38 2.35
-5 -1 -13 24.73 7.64
5 1 14 31.44 2.25
5 1 14 26.94 2.21
5 1 14 24.77 2
-5 -1 -14 24.34 2.04
5 1 15 68.35 2.97
5 1 15 77.58 3.47
5 1 15 80.63 3.36
-5 -1 -15 71.48 10.72
-5 -1 -15 80.63 3.14
5 1 16 2.31 0.58
5 1 16 3.05 0.56
-5 -1 -16 4.95 2.49
-5 -2 18 15.99 1.25
-5 -2 18 25.14 1.19
-5 -2 17 20.57 1.24
-5 -2 17 20.46 1.47
-5 -2 16 3.08 0.76
-5 -2 16 2.13 0.79
-5 -2 16 1.92 0.6
-5 -2 15 55.23 3.84
-5 -2 15 63.13 3.43
-5 -2 15 63.81 3.29
-5 -2 14 8.79 1.55
-5 -2 14 10.33 1.49
-5 -2 14 11.88 1.51
-5 -2 13 26.88 2.61
-5 -2 13 29.42 2.49
-5 -2 13 32.32 2.49
-5 -2 12 7.86 1.34
-5 -2 12 8.49 1.34
-5 -2 12 9.51 1.3
-5 -2 11 139.93 5.57
-5 -2 11 142.47 7.76
-5 -2 11 138.34 5.4
-5 -2 11 147.46 5.42
-5 -2 11 155.85 4.96
-5 -2 10 0.72 0.43
-5 -2 10 0.63 0.48
-5 -2 10 0.6 0.76
5 2 -10 1.3 0.78
-5 -2 10 -0.23 0.46
-5 -2 9 38.62 3.98
5 2 -9 33.88 2.82
-5 -2 8 14.29 2.36
5 2 -8 10.47 1.48
-5 -2 7 8.22 1.74
5 2 -7 5.68 1.01
-5 -2 6 244.58 9.66
5 2 -6 257.29 7.34
5 2 -5 49.38 2.66
-5 -2 5 50.73 3.92
5 2 -5 51.24 2.59
5 2 -4 473.14 12
-5 -2 4 493.03 13.93
5 2 -4 505.56 10.61
-5 -2 3 1387.42 29.4
5 2 -3 1425.11 25.29
5 2 -3 1371.1 28.17
-5 -2 2 102.88 5.03
5 2 -2 98.94 1.98
5 2 -2 101.54 4.98
-5 -2 1 186.37 6.84
5 2 -1 178.79 7.19
5 2 -1 182.23 3.34
-5 -2 0 169.8 6.18
5 2 0 163.76 3.04
5 2 0 161.39 7.02
-5 -2 -1 88.85 4.13
5 2 1 80.59 4.97
-5 -2 -1 83.96 1.63
-5 -2 -2 314 5.49
5 2 2 317.09 10.97
-5 -2 -3 0.5 0.14
5 2 3 0.5 0.85
5 2 4 177.23 8.32
-5 -2 -4 187.11 3.5
5 2 5 58.78 4.66
-5 -2 -5 59.82 1.44
5 2 6 5.9 1.48
-5 -2 -6 7.45 0.44
5 2 7 26.9 3.11
-5 -2 -7 30.33 1
5 2 8 67.99 4.77
5 2 8 82.62 3.45
5 2 8 84.37 3.49
-5 -2 -8 79.37 1.93
-5 -2 -8 78.98 12.22
5 2 9 77.83 3.53
5 2 9 74.94 3.53
-5 -2 -9 72.28 11.65
-5 -2 -9 73.93 1.87
5 2 10 3.94 0.92
5 2 10 5.84 1.11
-5 -2 -10 5.25 2.66
-5 -2 -10 4.13 0.41
-5 -2 -10 2.44 0.86
-5 -2 -11 577.43 14.29
5 2 11 582.42 13.66
5 2 11 588.52 13.48
-5 -2 -11 538.59 35.7
-5 -2 -11 543.72 9.86
5 2 12 0.56 0.59
5 2 12 0.87 0.55
5 2 12 0.11 0.52
-5 -2 -12 0.55 0.19
-5 -2 -12 0.47 0.68
5 2 13 23.03 2.17
5 2 13 21.86 2.07
5 2 13 25.56 2.11
-5 -2 -13 20.71 6.92
-5 -2 -13 21.7 0.76
-5 -2 -13 22.45 2.2
5 2 14 6.76 1.07
5 2 14 7.28 1.16
5 2 14 7.17 1.09
-5 -2 -14 9.66 4.4
-5 -2 -14 6.86 1.12
5 2 15 1.3 0.49
5 2 15 1.63 0.62
5 2 15 1.87 0.58
-5 -2 -15 1.61 1.78
-5 -2 -15 1.26 0.45
5 2 16 1.06 0.43
5 2 16 0.26 0.27
-5 -2 -16 1.24 1.08
-5 -3 18 92.48 2.56
-5 -3 17 17.72 1.34
-5 -3 17 17.95 1.29
-5 -3 16 12.88 1.62
-5 -3 16 15.59 1.51
-5 -3 16 17.42 1.55
-5 -3 15 1.67 0.82
-5 -3 15 2.13 0.7
-5 -3 15 1.16 0.66
-5 -3 14 8.64 1.47
-5 -3 14 13.98 1.71
-5 -3 14 11.75 1.53
-5 -3 13 10.29 1.57
-5 -3 13 12.84 1.64
-5 -3 13 13.03 1.7
-5 -3 12 4.56 1.1
-5 -3 12 5.78 1
-5 -3 12 4.97 1.04
-5 -3 12 5.58 1.16
-5 -3 11 7.48 1.19
-5 -3 11 8.46 1.19
-5 -3 11 8.71 1.28
-5 -3 11 6.54 1.71
-5 -3 11 8.33 1.32
-5 -3 10 11.54 1.36
-5 -3 10 9.8 0.99
-5 -3 10 12.16 1.39
-5 -3 10 11.66 2.19
-5 -3 10 10.09 1.24
-5 -3 9 0.82 0.84
-5 -3 8 98.2 6.25
-5 -3 7 208.47 9.12
-5 -3 6 290.2 10.8
-5 -3 5 1574.34 33
5 3 -5 1512.83 29.35
-5 -3 4 211.68 8.3
5 3 -4 200.88 6.98
-5 -3 3 627.73 16.05
5 3 -3 618.81 10.53
5 3 -3 603.43 15.25
5 3 -2 337.75 5.94
-5 -3 2 361.03 10.77
5 3 -2 344.61 10.62
-5 -3 1 11.34 1.67
5 3 -1 11.17 1.86
5 3 -1 12.36 0.47
-5 -3 0 32.05 2.69
-5 -3 0 32.21 0.71
5 3 0 29.49 0.82
5 3 0 28.05 2.9
-5 -3 -1 3.57 0.94
-5 -3 -1 3.24 0.2
5 3 1 2.58 1.15
-5 -3 -2 294.72 8.78
-5 -3 -2 278.87 4.91
5 3 2 269.4 10.36
5 3 3 0.97 0.85
-5 -3 -3 1.47 0.18
-5 -3 -4 56.93 1.37
5 3 4 57.45 4.66
-5 -3 -5 8.9 0.46
5 3 5 6.91 1.69
5 3 6 26.58 3.26
-5 -3 -6 24.14 0.84
5 3 7 18.18 2.56
-5 -3 -7 22.14 0.84
-5 -3 -8 22.1 0.88
-5 -3 -8 16.23 4.62
5 3 8 15.98 2.3
5 3 8 23.21 1.74
5 3 8 22.95 1.79
-5 -3 -9 129.88 2.88
5 3 9 138.85 4.89
5 3 9 137.59 4.97
-5 -3 -9 127.99 15.16
-5 -3 -9 136.93 5.68
5 3 10 9.4 1.34
5 3 10 7.78 1.21
-5 -3 -10 8.48 4.88
-5 -3 -10 7.55 0.51
-5 -3 -10 6.95 1.27
5 3 11 115.66 4.87
5 3 11 123.26 4.92
-5 -3 -11 111.26 15.72
-5 -3 -11 113.99 2.57
-5 -3 -11 118.81 5.5
5 3 12 36.18 2.87
-5 -3 -12 37.88 2.94
5 3 12 38.57 2.7
5 3 12 40.88 2.66
-5 -3 -12 39.55 9.7
-5 -3 -12 37.7 1.15
5 3 13 -0.25 0.53
5 3 13 0.94 0.55
5 3 13 -0.19 0.48
-5 -3 -13 0.51 0.56
5 3 14 1.08 0.59
5 3 14 1.44 0.64
5 3 14 1.3 0.52
-5 -3 -14 1.93 2.71
-5 -3 -14 1.67 0.68
5 3 15 14.88 1.3
5 3 15 15.66 1.32
5 3 15 16.54 1.29
-5 -3 -15 12.86 4.16
-5 -3 -15 16.51 1.31
5 3 16 22.1 1.16
5 3 16 23.91 1.15
-5 -3 -16 22.4 3.76
-5 -4 18 0.36 0.22
-5 -4 17 -0.4 0.42
-5 -4 17 -0.02 0.27
-5 -4 17 0.18 0.37
-5 -4 16 10.27 1.17
-5 -4 16 7.75 1.15
-5 -4 16 11.93 1.32
-5 -4 15 5.27 1.07
-5 -4 15 6.96 1.1
-5 -4 15 9.23 1.33
-5 -4 14 2.46 0.84
-5 -4 14 1.39 0.68
-5 -4 14 1.69 0.65
-5 -4 13 63.39 3.59
-5 -4 13 69 3.78
-5 -4 13 72.09 3.17
-5 -4 13 69.47 3.86
-5 -4 13 69.48 3.28
-5 -4 12 72.07 3.85
-5 -4 12 83.68 3.53
-5 -4 12 80.74 3.18
-5 -4 12 81.53 4.17
-5 -4 12 76.6 3.57
-5 -4 11 0.2 0.53
-5 -4 11 1.21 0.74
-5 -4 11 -0.06 0.4
-5 -4 11 0.6 0.53
-5 -4 11 0.3 0.46
-5 -4 11 2.08 1.08
-5 -4 10 46.23 2.38
-5 -4 10 49.69 2.81
-5 -4 10 46.19 4.21
-5 -4 10 45.7 2.77
-5 -4 10 48.96 2.65
-5 -4 10 47.55 2.87
-5 -4 10 49.2 2.8
-5 -4 9 11.41 2.16
-5 -4 8 9.43 1.94
-5 -4 7 2.09 1.05
-5 -4 6 900.27 22.71
-5 -4 5 509.63 15.22
5 4 -5 502.65 12.62
-5 -4 4 629.77 16.95
5 4 -4 607.6 15.24
-5 -4 3 4.49 1.16
5 4 -3 4.88 1.14
5 4 -3 5.6 0.33
-5 -4 2 389.66 11.79
5 4 -2 360.51 11.55
5 4 -2 380.01 6.62
5 4 -1 10.23 0.42
-5 -4 1 10.91 1.75
5 4 -1 8.64 1.68
-5 -4 0 128.54 5.96
-5 -4 0 129.4 2.34
5 4 0 126.1 2.47
-5 -4 -1 26.11 2.53
-5 -4 -1 27.35 0.7
5 4 1 24.17 2.86
-5 -4 -2 33.46 0.86
5 4 2 29.55 3.26
-5 -4 -3 39.09 1.02
5 4 3 33.58 3.54
5 4 4 62.49 5.09
-5 -4 -4 69.74 1.61
5 4 5 227.24 10.24
-5 -4 -5 254.44 4.72
5 4 6 40.96 4.1
-5 -4 -6 43.21 1.23
-5 -4 -7 78.26 1.9
5 4 7 77.97 3.34
5 4 8 7.69 1.04
5 4 8 8.28 1.09
-5 -4 -8 7.56 0.51
-5 -4 -8 8.3 1.35
5 4 9 485.79 11.35
5 4 9 481.82 11.55
-5 -4 -9 479.45 8.67
-5 -4 -9 443.71 29.48
-5 -4 -9 481.52 12.81
5 4 10 3.08 0.72
5 4 10 3.59 0.85
-5 -4 -10 2.78 0.33
-5 -4 -10 3.94 1.12
5 4 11 14.7 1.92
5 4 11 16.75 1.72
5 4 11 15.89 1.7
-5 -4 -11 18.94 6.58
-5 -4 -11 14.48 1.88
5 4 12 54.59 3.5
5 4 12 52.53 3.06
5 4 12 49.97 2.91
-5 -4 -12 54.93 10.54
-5 -4 -12 53.9 3.53
5 4 13 1.88 0.75
5 4 13 1.03 0.6
5 4 13 2.12 0.61
-5 -4 -13 2.58 2.98
-5 -4 -13 1.01 0.7
5 4 14 61.94 3.13
5 4 14 61.62 2.83
5 4 14 64.14 2.79
-5 -4 -14 64.16 9.41
-5 -4 -14 64.94 3.18
5 4 15 2.64 0.53
5 4 15 2.87 0.54
5 4 15 2.44 0.46
-5 -4 -15 3.4 1.86
-5 -4 -15 3.52 0.64
-5 -5 18 1.1 0.28
-5 -5 17 7.49 0.76
-5 -5 17 7.98 0.96
-5 -5 16 14.29 1.3
-5 -5 16 14.69 1.48
-5 -5 15 4.53 1.03
-5 -5 15 5.1 0.95
-5 -5 14 1.01 0.61
-5 -5 14 0.23 0.45
-5 -5 14 -0.43 0.44
-5 -5 14 0.63 0.66
-5 -5 13 3.91 0.87
-5 -5 13 3.81 0.98
-5 -5 13 5.65 1.09
-5 -5 13 6.4 1.07
-5 -5 13 5.86 1.23
-5 -5 12 100.07 3.79
-5 -5 12 94.19 4.45
-5 -5 12 103.07 4.24
-5 -5 12 102.94 4.78
-5 -5 12 102.42 4.45
-5 -5 11 18.15 1.52
-5 -5 11 21.2 2.01
-5 -5 11 23.57 1.93
-5 -5 11 21.32 2.06
-5 -5 11 20.89 1.96
-5 -5 10 1.8 0.73
-5 -5 10 2.14 0.6
-5 -5 10 2.57 0.77
-5 -5 10 1.72 0.55
-5 -5 10 3.07 0.81
-5 -5 10 1.87 0.69
-5 -5 10 1.06 0.45
-5 -5 10 1.89 0.91
-5 -5 9 32.18 1.98
-5 -5 9 33.21 2.16
-5 -5 9 35.49 3.77
-5 -5 9 30.73 2.14
-5 -5 9 29.78 2.11
-5 -5 9 31.25 2.17
-5 -5 9 32.64 2.28
-5 -5 8 181.11 8.81
-5 -5 7 19.14 2.74
-5 -5 6 42.71 3.94
-5 -5 5 19.91 2.65
5 5 -5 21.47 2.17
-5 -5 4 2.31 1.03
5 5 -4 2.5 0.94
-5 -5 3 17.54 2.36
5 5 -3 14.23 2.03
5 5 -3 14.53 0.55
-5 -5 2 213.3 8.48
5 5 -2 205.37 3.78
-5 -5 1 10.42 1.8
5 5 -1 8.67 1.77
5 5 -1 9.97 0.43
-5 -5 0 1.01 0.79
5 5 0 0 0.68
-5 -5 -1 6.05 0.3
-5 -5 -1 5.94 1.39
5 5 1 3.41 1.31
5 5 2 -0.86 1.04
-5 -5 -2 0.56 0.13
-5 -5 -3 44.91 1.15
5 5 3 38.36 3.95
-5 -5 -4 7.93 0.44
5 5 4 7.54 1.93
-5 -5 -5 83.98 1.94
5 5 5 72.97 5.72
5 5 6 121.09 7.28
-5 -5 -6 139.49 2.9
-5 -5 -6 126.99 5.03
5 5 7 119.26 7.06
-5 -5 -7 134.03 2.87
5 5 7 133.04 4.53
-5 -5 -7 127.71 5.32
5 5 8 293.43 7.51
-5 -5 -8 267.41 5.24
-5 -5 -8 285.96 21.96
-5 -5 -8 273.61 8.79
5 5 9 4.35 0.86
5 5 9 3.93 0.84
-5 -5 -9 5.36 0.45
-5 -5 -9 5.55 1.22
5 5 10 0.29 0.46
5 5 10 0.39 0.44
-5 -5 -10 1.16 0.77
5 5 11 3.76 1.04
5 5 11 3.32 0.83
5 5 11 3.96 0.92
-5 -5 -11 4.4 1.21
5 5 12 8.79 1.49
-5 -5 -12 11.34 1.64
5 5 12 7.47 1.11
5 5 12 10.04 1.2
5 5 13 18.78 1.84
5 5 13 17.53 1.49
5 5 13 18.69 1.48
-5 -5 -13 16.36 4.97
-5 -5 -13 19.79 1.94
5 5 14 3.16 0.67
5 5 14 3.93 0.63
5 5 14 2.92 0.53
-5 -5 -14 4.1 0.81
5 5 15 3.62 0.54
5 5 15 3.53 0.39
-5 -5 -15 3.65 0.53
-5 -6 18 8.48 0.65
-5 -6 17 22.88 1.18
-5 -6 17 26.17 1.66
-5 -6 16 2.47 0.58
-5 -6 16 3.94 0.75
-5 -6 15 13.09 1.56
-5 -6 15 14.09 1.43
-5 -6 15 15.17 1.31
-5 -6 15 13.06 1.18
-5 -6 14 8.57 1.2
-5 -6 14 8.8 1.14
-5 -6 14 8.07 1.19
-5 -6 14 8.68 1.39
-5 -6 13 12.12 1.49
-5 -6 13 13.43 1.51
-5 -6 13 13.16 1.72
-5 -6 13 13.61 1.59
-5 -6 12 125.29 4.63
-5 -6 12 124.04 5.12
-5 -6 12 131.03 5.11
-5 -6 12 124 5.38
-5 -6 12 128.66 5.24
-5 -6 11 23.95 1.88
-5 -6 11 27.15 2.27
-5 -6 11 22.27 2.04
-5 -6 11 26.07 2.15
-5 -6 11 24.73 2.24
-5 -6 11 22.92 2.1
-5 -6 10 2.59 0.86
-5 -6 10 1.41 0.59
-5 -6 10 2.53 0.81
-5 -6 10 1.3 0.63
-5 -6 10 2.3 0.79
-5 -6 10 1.49 0.54
-5 -6 10 1.97 0.75
-5 -6 10 0.99 0.99
-5 -6 9 89.12 3.52
-5 -6 9 79.65 3.61
-5 -6 9 83.2 5.7
-5 -6 9 80.17 3.4
-5 -6 9 73.29 3.51
-5 -6 9 76.98 3.61
-5 -6 9 81.4 3.8
-5 -6 9 73.15 3.55
-5 -6 8 23.76 1.71
-5 -6 8 22.97 3.05
-5 -6 8 22.82 1.83
-5 -6 8 23.25 1.85
-5 -6 8 24.69 1.99
-5 -6 7 71.33 5.31
-5 -6 6 55.95 4.65
5 6 -5 8.85 1.56
-5 -6 5 8.45 1.9
5 6 -4 4.36 0.31
5 6 -4 4.54 1.18
-5 -6 4 4.62 1.42
-5 -6 3 113.4 6.32
5 6 -3 104.56 2.14
5 6 -2 123.79 6.71
5 6 -2 127.19 2.5
-5 -6 1 75.04 5
5 6 -1 71.93 1.55
5 6 0 73.35 5.33
-5 -6 0 78.7 5.11
5 6 1 54 4.65
5 6 2 106.59 6.81
-5 -6 -3 135.4 2.73
5 6 3 118.5 7.4
-5 -6 -4 19.37 0.73
5 6 4 17.27 2.82
-5 -6 -5 24.19 2.04
-5 -6 -5 26.92 0.92
5 6 5 23.25 3.18
5 6 6 10.53 2.13
-5 -6 -6 14.11 0.67
-5 -6 -6 12.89 1.59
5 6 6 12.66 0.52
5 6 7 14.05 2.46
5 6 7 17.66 1.46
-5 -6 -7 14.96 1.81
5 6 8 1.27 0.49
-5 -6 -8 1.87 2
-5 -6 -8 2.09 0.9
5 6 9 25.7 1.87
-5 -6 -9 23.29 2.41
5 6 10 37.87 2.99
5 6 10 39.01 2.37
-5 -6 -10 40.06 3.2
-5 -6 -11 12.97 1.78
5 6 11 12.62 1.7
-5 -6 -11 11.75 1.18
5 6 11 11.64 1.23
5 6 11 13.23 1.33
-5 -6 -11 14.76 5.14
5 6 12 32.37 2.48
5 6 12 31.99 1.89
5 6 12 33.13 1.96
-5 -6 -12 32.92 7.08
-5 -6 -12 34.59 2.62
5 6 13 12.4 1.36
5 6 13 9.85 0.95
5 6 13 12.42 1.01
-5 -6 -13 14.89 4.37
-5 -6 -13 13 1.44
5 6 14 12.56 1.16
5 6 14 11.07 0.73
-5 -6 -14 13.92 1.22
-5 -7 17 1.64 0.46
-5 -7 16 0.42 0.3
-5 -7 16 0.09 0.28
-5 -7 16 0.47 0.54
-5 -7 15 13.25 1.28
-5 -7 15 15.27 1.33
-5 -7 15 14.39 1.58
-5 -7 15 13.15 1.24
-5 -7 14 43.15 2.6
-5 -7 14 47.46 2.74
-5 -7 14 48.66 3.11
-5 -7 14 43.08 2.69
-5 -7 13 8.1 1.24
-5 -7 13 7.34 1.14
-5 -7 13 9.47 1.29
-5 -7 13 8.28 1.34
-5 -7 12 65.22 3.27
-5 -7 12 67.13 3.66
-5 -7 12 59.76 3.38
-5 -7 12 67.12 3.6
-5 -7 12 62.04 3.7
-5 -7 12 62.69 3.63
-5 -7 11 36.6 2.65
-5 -7 11 35.27 2.4
-5 -7 11 32.05 2.42
-5 -7 11 34.49 2.58
-5 -7 11 32.15 2.61
-5 -7 11 35.7 2.39
-5 -7 11 31.83 2.55
-5 -7 10 167.17 5.5
-5 -7 10 166.28 5.95
-5 -7 10 168.48 8.09
-5 -7 10 152.99 5.67
-5 -7 10 166.52 6.03
-5 -7 10 159.87 5.9
-5 -7 10 166.4 5.61
-5 -7 10 162.86 6.06
-5 -7 9 146.05 4.93
-5 -7 9 146.23 5.48
-5 -7 9 149.49 5.25
-5 -7 9 137.92 5.15
-5 -7 9 153.78 7.92
-5 -7 9 139.45 5.36
-5 -7 9 150.51 5.13
-5 -7 9 138.02 5.13
-5 -7 8 141.31 4.73
-5 -7 8 147.58 4.87
-5 -7 8 145.04 4.94
-5 -7 8 146.34 7.77
-5 -7 8 135.23 4.92
-5 -7 8 139.58 5.19
-5 -7 8 146.24 4.47
-5 -7 8 132.45 4.87
-5 -7 8 138.64 5.19
-5 -7 7 38.83 3.94
-5 -7 7 33.52 2.2
-5 -7 7 36.13 2.34
-5 -7 7 34.46 2.26
-5 -7 7 35.2 2.09
-5 -7 6 184.78 8.92
5 7 -5 7.66 1.59
-5 -7 5 8.23 1.9
-5 -7 4 21.37 2.93
5 7 -4 20.56 0.7
5 7 -4 18.93 2.46
5 7 -3 0.96 0.78
-5 -7 3 0.66 0.76
5 7 -3 0.8 0.15
-5 -7 2 39.8 3.82
5 7 -2 34.38 3.61
5 7 -2 38.09 0.97
-5 -7 1 18.44 2.64
5 7 -1 15.74 2.55
5 7 0 -0.07 0.92
5 7 1 84.62 6.1
5 7 2 16.41 2.81
5 7 3 21.85 3.2
-5 -7 -4 249.76 6.58
-5 -7 -4 236.23 7.2
-5 -7 -4 260.76 7.18
5 7 4 248.84 11.29
-5 -7 -5 17.8 1.46
-5 -7 -5 18.54 1.8
5 7 5 21.3 3.08
5 7 5 17.26 0.67
-5 -7 -6 20.47 2.02
5 7 6 13.52 2.39
-5 -7 -7 257.26 8.39
-5 -7 -8 -2.57 2.49
-5 -7 -8 0.46 0.56
5 7 9 19.68 2.13
5 7 9 19.57 1.48
-5 -7 -9 17 2.07
5 7 10 1.94 0.8
5 7 10 1.25 0.48
-5 -7 -10 0.93 2.25
-5 -7 -10 1.04 0.66
-5 -7 -10 0.15 0.39
5 7 11 2.77 0.96
-5 -7 -11 1.66 0.45
5 7 11 2.23 0.53
-5 -7 -11 4.47 3.63
-5 -7 -11 2.35 0.77
5 7 12 45.76 2.74
5 7 12 46.64 1.91
-5 -7 -12 38.21 6.66
-5 -7 -12 46.25 2.85
5 7 13 16.12 1.39
-5 -7 -13 15.15 1.41
5 7 14 43.84 1.8
-5 -7 -14 43.73 1.86
-5 -8 17 0.21 0.3
-5 -8 16 1.94 0.44
-5 -8 16 3.27 0.72
-5 -8 15 0.22 0.45
-5 -8 15 0.42 0.35
-5 -8 15 0.03 0.28
-5 -8 15 0.69 0.48
-5 -8 14 41.5 2.35
-5 -8 14 44.22 2.66
-5 -8 14 41.79 2.64
-5 -8 14 42.91 2.76
-5 -8 13 8.67 1.36
-5 -8 13 8.36 1.16
-5 -8 13 7.9 1.27
-5 -8 13 8.8 1.32
-5 -8 12 22.17 2.13
-5 -8 12 21.7 1.92
-5 -8 12 23.1 2.12
-5 -8 12 21.81 2.06
-5 -8 12 22.66 2.17
-5 -8 12 22.23 2.18
-5 -8 11 7.2 1.17
-5 -8 11 6.68 1.32
-5 -8 11 6.45 1.11
-5 -8 11 6.43 1.17
-5 -8 11 6.52 1.16
-5 -8 11 5.88 1.25
-5 -8 11 5.01 1.08
-5 -8 10 76.16 3.6
-5 -8 10 76.35 3.67
-5 -8 10 72.3 3.75
-5 -8 10 64.19 3.44
-5 -8 10 67.79 3.6
-5 -8 10 71.69 3.86
-5 -8 10 72.03 3.87
-5 -8 9 104.91 4.2
-5 -8 9 104.27 4.43
-5 -8 9 102.68 6.42
-5 -8 9 96.01 4.23
-5 -8 9 101.59 4.58
-5 -8 9 100.06 3.81
-5 -8 9 106.79 4.3
-5 -8 9 91.94 4.06
-5 -8 9 99.92 4.57
-5 -8 8 45.38 2.55
-5 -8 8 43.69 2.56
-5 -8 8 43.39 2.85
-5 -8 8 44.85 2.64
-5 -8 8 50.36 4.48
-5 -8 8 43.18 2.64
-5 -8 8 41.77 2.82
-5 -8 8 40.69 2.35
-5 -8 8 39.75 2.46
-5 -8 7 15.87 1.48
-5 -8 7 16.74 1.51
-5 -8 7 15.23 1.55
-5 -8 7 21.21 2.95
-5 -8 7 17.59 1.58
-5 -8 7 16.12 1.54
-5 -8 7 14.77 1.59
-5 -8 7 16.51 1.5
-5 -8 6 20.89 1.62
-5 -8 6 20.15 1.58
-5 -8 6 20.94 2.95
-5 -8 6 19.01 1.53
-5 -8 6 18.6 1.67
-5 -8 6 20.88 1.7
-5 -8 6 17.69 1.67
-5 -8 6 21.74 1.68
-5 -8 6 18.42 1.55
-5 -8 5 42.96 4.22
-5 -8 5 40.51 2.37
5 8 -5 39.99 3.56
5 8 -5 42.29 1.11
5 8 -4 5.66 1.4
-5 -8 4 7.75 1.85
5 8 -4 7.35 0.37
-5 -8 3 17.66 2.66
5 8 -3 13.13 2.31
5 8 -3 18.3 0.59
-5 -8 2 100.35 6.35
5 8 -2 91.48 6.25
5 8 -2 102.37 2.02
5 8 -1 51.79 4.74
5 8 0 51.99 4.88
-5 -8 -1 139.99 4.81
-5 -8 -1 136.73 4.88
-5 -8 -1 138.74 5.1
5 8 1 148.19 8.46
-5 -8 -2 28.73 1.96
-5 -8 -2 29.98 2.45
-5 -8 -2 31.92 2.03
-5 -8 -2 26.87 2.17
5 8 2 28.11 3.63
-5 -8 -3 1.54 0.55
5 8 3 1.29 1.17
-5 -8 -3 1.04 0.45
-5 -8 -3 1.2 0.54
-5 -8 -4 88.65 3.44
-5 -8 -4 95.68 3.64
-5 -8 -4 87.48 4.1
-5 -8 -4 100.19 4.12
5 8 4 90.35 6.5
5 8 4 87.89 2.05
5 8 5 34.87 4.03
-5 -8 -5 36.7 2.57
5 8 5 34.2 1.03
-5 -8 -6 13.87 1.71
-5 -8 -7 3.04 0.96
-5 -8 -8 2.26 2.02
-5 -8 -8 0.67 0.65
5 8 9 0.9 0.6
-5 -8 -9 -1.34 2.32
-5 -8 -9 -0.25 0.58
-5 -8 -9 0.15 0.46
5 8 10 -0.32 0.6
-5 -8 -10 -1.19 1.77
-5 -8 -10 -0.72 0.71
-5 -8 -10 0.19 0.34
-5 -8 -11 10.33 3.14
-5 -8 -11 18.87 1.87
5 8 12 16.34 1.42
-5 -8 -12 12.44 2.94
-5 -8 -12 17.85 1.62
5 8 13 1.29 0.38
-5 -8 -13 0.12 0.29
-5 -9 17 4.11 1.34
-5 -9 17 3.29 0.44
-5 -9 16 6.76 0.69
-5 -9 16 6.55 0.84
-5 -9 15 2.67 0.64
-5 -9 15 2.56 0.68
-5 -9 15 2.8 0.7
-5 -9 14 16.98 1.29
-5 -9 14 15.92 1.59
-5 -9 14 15.55 1.57
-5 -9 14 15.17 1.54
-5 -9 13 9.4 1.14
-5 -9 13 10.72 1.46
-5 -9 13 10.54 1.41
-5 -9 13 9.94 1.32
-5 -9 12 1 0.61
-5 -9 12 0.98 0.62
-5 -9 12 0.54 0.41
-5 -9 12 0 0.6
-5 -9 12 0.52 0.68
-5 -9 11 58.16 3.2
-5 -9 11 61.61 3.27
-5 -9 11 57.29 3.37
-5 -9 11 52.4 2.99
-5 -9 11 56.67 3.44
-5 -9 11 49.51 3.07
-5 -9 11 55.38 3.41
-5 -9 10 72.79 3.61
-5 -9 10 72.32 3.56
-5 -9 10 72.7 3.77
-5 -9 10 65.57 3.42
-5 -9 10 69.18 3.82
-5 -9 10 66.92 3.21
-5 -9 10 62.43 3.35
-5 -9 10 66.42 3.79
-5 -9 9 25.8 2.08
-5 -9 9 28.59 2.21
-5 -9 9 23.71 2.07
-5 -9 9 22.47 1.95
-5 -9 9 26.87 2.34
-5 -9 9 22.89 1.85
-5 -9 9 20.8 1.77
-5 -9 9 24.12 2.23
-5 -9 8 107.11 4.3
-5 -9 8 99.77 4.16
-5 -9 8 96.52 6.31
-5 -9 8 99.53 4.29
-5 -9 8 90.87 4.09
-5 -9 8 100.24 4.6
-5 -9 8 102.11 4.11
-5 -9 8 88.93 3.74
-5 -9 8 96.54 4.51
-5 -9 7 17.45 1.64
-5 -9 7 16.84 1.57
-5 -9 7 17.62 1.62
-5 -9 7 15.17 1.55
-5 -9 7 18.78 1.91
-5 -9 7 16.85 2.65
-5 -9 7 16.36 1.57
5 9 -7 17.16 0.63
-5 -9 7 15.86 1.73
-5 -9 6 1.03 0.5
-5 -9 6 0.37 0.54
-5 -9 6 0.93 0.56
-5 -9 6 0.16 0.44
-5 -9 6 0.11 0.44
-5 -9 6 0.72 0.76
-5 -9 6 1.03 0.71
-5 -9 6 -0.1 0.56
5 9 -6 0.16 0.13
-5 -9 6 0.27 0.46
-5 -9 5 14.69 1.47
-5 -9 5 11.47 1.35
-5 -9 5 13.47 1.25
-5 -9 5 11.04 1.33
-5 -9 5 13.32 1.3
-5 -9 5 13.71 5.07
-5 -9 5 11.51 1.31
5 9 -5 11.78 2.03
-5 -9 5 13.36 2.4
-5 -9 5 11.63 1.36
-5 -9 5 12.9 1.41
5 9 -5 13.48 0.52
-5 -9 5 12.23 1.36
-5 -9 4 0.23 2.85
-5 -9 4 3.33 0.7
-5 -9 4 2.34 0.58
-5 -9 4 2.95 0.62
-5 -9 4 2.95 0.77
-5 -9 4 2.15 0.63
-5 -9 4 4.69 0.83
5 9 -4 3.51 1.29
-5 -9 4 4.92 1.6
-5 -9 4 4.63 0.94
-5 -9 4 2.94 0.83
-5 -9 4 3.63 0.83
-5 -9 3 6.28 4.01
-5 -9 3 6.38 0.99
-5 -9 3 6.97 0.82
-5 -9 3 6.83 1.08
-5 -9 3 7.6 1.19
-5 -9 3 6.91 1.19
-5 -9 3 7.31 1.06
5 9 -3 5.84 1.63
-5 -9 3 6.81 1.02
-5 -9 3 7.31 1.08
-5 -9 2 249.3 7.19
-5 -9 2 257.69 7.33
-5 -9 2 259.78 7.63
-5 -9 2 253.74 7.29
-5 -9 2 242.43 6.73
-5 -9 2 262.7 7.24
-5 -9 2 248.16 7.47
5 9 -2 249.29 10.98
-5 -9 2 273.5 7.15
-5 -9 2 256.87 21.71
-5 -9 1 94.19 3.98
-5 -9 1 92.51 4
-5 -9 1 99.09 4.25
-5 -9 1 99.17 4.07
-5 -9 1 99.99 3.99
-5 -9 1 93.36 4.2
5 9 -1 95.81 6.67
-5 -9 1 94.68 13.24
-5 -9 0 3.61 0.8
-5 -9 0 3.28 0.93
-5 -9 0 4.12 0.97
5 9 0 4.09 1.79
-5 -9 0 3.48 0.81
-5 -9 0 5.41 1.06
-5 -9 0 2.89 0.8
-5 -9 -1 1.26 0.53
-5 -9 -1 1.11 0.58
-5 -9 -1 0.99 1.25
5 9 1 2.05 1.46
-5 -9 -1 0.53 0.53
-5 -9 -1 1.12 0.8
-5 -9 -1 1.6 1.18
-5 -9 -2 52.7 2.99
-5 -9 -2 53.34 2.79
-5 -9 -2 52.8 2.75
-5 -9 -2 47.75 3.12
5 9 2 44.9 4.67
-5 -9 -3 1.33 0.62
-5 -9 -3 0.92 0.52
5 9 3 -0.26 0.88
-5 -9 -3 1.31 0.77
5 9 3 1.38 0.24
-5 -9 -4 38.88 2.25
-5 -9 -4 37.1 2.2
5 9 4 36.84 1.12
-5 -9 -5 14.5 1.6
5 9 5 13.38 0.61
-5 -9 -6 274.85 8.41
5 9 7 19.2 1.95
-5 -9 -7 21.21 2.11
-5 -9 -7 21.17 2.02
5 9 8 8.41 1.31
-5 -9 -8 8.96 1.44
-5 -9 -8 7.46 1.3
-5 -9 -8 8.32 1.26
5 9 9 11.72 1.44
-5 -9 -9 12.09 1.34
-5 -9 -9 11.27 1.51
5 9 10 -0.46 0.48
-5 -9 -10 0.63 1.4
-5 -9 -10 -0.48 0.48
-5 -9 -10 0.22 0.33
5 9 11 11.64 1.19
-5 -9 -11 11.17 1.23
-5 -9 -11 9.06 2.66
5 9 12 30.05 1.52
5 9 12 23.77 4.81
-5 -9 -12 28.15 1.66
-5 -10 16 5.6 2.42
-5 -10 16 6.14 0.63
-5 -10 16 5.92 0.65
-5 -10 15 10.01 1.06
-5 -10 15 9.73 1.01
-5 -10 15 8.97 0.95
-5 -10 14 0.26 0.39
-5 -10 14 -0.03 0.31
-5 -10 14 -0.43 0.53
-5 -10 14 0.2 0.49
-5 -10 13 2.34 0.68
-5 -10 13 2.1 0.53
-5 -10 13 1.87 0.67
-5 -10 13 1.22 0.61
-5 -10 12 -0.61 0.49
-5 -10 12 0.05 0.5
-5 -10 12 -0.3 0.53
-5 -10 12 0.07 0.36
-5 -10 12 0.76 0.66
-5 -10 12 0 0.43
-5 -10 11 3.08 0.81
-5 -10 11 3.15 0.95
-5 -10 11 3.04 0.87
-5 -10 11 3.51 0.8
-5 -10 11 3.76 1.05
-5 -10 11 0.26 2.45
-5 -10 11 1.15 0.49
-5 -10 10 3.84 0.86
-5 -10 10 3.4 0.96
-5 -10 10 3.95 0.85
-5 -10 10 4.2 0.93
-5 -10 10 3.11 0.92
-5 -10 10 2.04 1.8
-5 -10 10 5.25 1.14
-5 -10 10 4.2 0.97
-5 -10 9 49.98 3
-5 -10 9 49.09 2.86
-5 -10 9 47.71 3.01
-5 -10 9 44.95 2.78
-5 -10 9 47.31 3.17
-5 -10 9 50.43 2.92
-5 -10 9 47.06 3.13
-5 -10 8 154.34 5.62
-5 -10 8 152.86 5.45
-5 -10 8 157.35 5.71
-5 -10 8 152.41 5.48
-5 -10 8 146.87 5.95
-5 -10 8 155.16 5.53
-5 -10 8 151.41 5.86
-5 -10 7 127.58 4.95
-5 -10 7 122.43 4.64
-5 -10 7 126.23 4.87
-5 -10 7 114.53 4.67
-5 -10 7 120.98 5.15
-5 -10 7 125.69 4.9
-5 -10 7 118.46 4.98
-5 -10 6 1.64 0.57
-5 -10 6 2.62 0.8
-5 -10 6 2.68 0.73
-5 -10 6 1.88 0.65
-5 -10 6 1.38 0.5
-5 -10 6 1.73 0.69
-5 -10 6 2.27 0.78
-5 -10 6 3.98 0.91
-5 -10 5 31.96 8.58
-5 -10 5 34.39 2.4
-5 -10 5 34.56 2.09
-5 -10 5 32 2.13
-5 -10 5 36 2.43
-5 -10 5 32.09 2.36
-5 -10 5 35.67 2.48
-5 -10 5 32.34 2.3
5 10 -5 28.85 3.32
-5 -10 5 32.62 2.27
-5 -10 4 144.69 4.53
-5 -10 4 135.07 5.25
-5 -10 4 137.03 4.74
-5 -10 4 142.11 5.7
-5 -10 4 138.86 5.15
-5 -10 4 147.9 5.23
-5 -10 4 136.36 4.99
-5 -10 4 148.84 5.33
-5 -10 4 140.45 5.28
5 10 -4 118.67 7.27
-5 -10 4 134.28 16.91
-5 -10 4 129.68 4.69
-5 -10 3 70.15 3.45
-5 -10 3 65.85 3.56
-5 -10 3 67.71 3.06
-5 -10 3 69.56 3.85
-5 -10 3 66.55 3.43
-5 -10 3 62.35 3.15
-5 -10 3 72.45 3.52
-5 -10 3 63.85 3.52
5 10 -3 64.03 5.28
-5 -10 3 73.6 3.24
-5 -10 3 61.25 10.9
-5 -10 2 82.41 3.79
-5 -10 2 85.07 3.77
-5 -10 2 70.1 3.71
-5 -10 2 78.37 4.05
-5 -10 2 79.2 3.79
-5 -10 2 84.53 3.8
-5 -10 2 76.35 3.93
5 10 -2 69.28 5.64
-5 -10 2 73.9 11.92
-5 -10 1 55.26 3.17
-5 -10 1 55.36 3.39
-5 -10 1 54.22 3.16
-5 -10 1 59.64 3.12
-5 -10 1 53.11 3.3
5 10 -1 59.27 5.22
-5 -10 1 58.89 3.18
-5 -10 1 60.82 12
-5 -10 1 53.51 3.09
-5 -10 0 0.43 0.5
-5 -10 0 -0.01 0.44
-5 -10 0 1.52 1.63
-5 -10 0 -0.75 1.19
5 10 0 -0.38 0.8
-5 -10 0 0.17 0.64
-5 -10 0 0.1 0.45
-5 -10 0 0.97 0.69
-5 -10 0 -1.2 4.71
-5 -10 -1 1.94 0.61
-5 -10 -1 0.89 0.64
-5 -10 -1 1.7 0.66
-5 -10 -1 0.82 0.51
-5 -10 -1 0.53 0.58
5 10 1 1.3 0.24
-5 -10 -2 65.03 3.61
-5 -10 -2 63.48 3.27
-5 -10 -2 67.22 3.18
-5 -10 -2 62.12 3.82
-5 -10 -2 73.12 3.97
5 10 2 68.89 1.75
-5 -10 -3 17.03 1.89
-5 -10 -3 18.09 1.61
-5 -10 -3 17.79 1.96
5 10 3 18.45 0.76
-5 -10 -4 7.63 1.35
-5 -10 -4 8.09 0.99
5 10 4 8.09 0.5
-5 -10 -4 7.54 1.36
-5 -10 -5 1.68 0.66
-5 -10 -5 2.66 1.04
5 10 6 273.85 7.63
-5 -10 -6 263.66 8.31
-5 -10 -6 255.73 7.83
5 10 7 24.87 2
-5 -10 -7 30.42 3.35
-5 -10 -7 25.3 2.18
-5 -10 -7 23.51 2.1
5 10 8 26 1.98
-5 -10 -8 28.84 2.41
-5 -10 -8 27.33 2.07
-5 -10 -8 23.85 2.05
5 10 9 8.58 1.07
-5 -10 -9 6.73 1.11
-5 -10 -9 7.84 0.98
-5 -10 -10 44.66 2.23
5 10 10 54.94 2.41
-5 -10 -10 48.6 1.98
-5 -10 -10 51.74 2.65
-5 -10 -11 20.08 1.16
5 10 11 27.35 1.35
5 10 11 16.69 4.26
-5 -10 -11 24.02 1.49
-5 -11 15 17.9 4.32
-5 -11 15 18.82 1.3
-5 -11 15 15.93 1.03
-5 -11 15 16.84 1.16
-5 -11 14 5.83 2.62
-5 -11 14 9.32 1.13
-5 -11 14 8.54 0.88
-5 -11 14 8.66 1.06
-5 -11 13 1.85 0.65
-5 -11 13 1 0.48
-5 -11 13 1.4 0.62
-5 -11 13 0.56 0.38
-5 -11 12 -0.1 0.47
-5 -11 12 3.06 6.97
-5 -11 12 -0.15 0.46
-5 -11 12 -0.51 0.49
-5 -11 12 0 0.41
-5 -11 12 0.03 0.28
-5 -11 12 -0.13 0.54
-5 -11 12 0.61 0.42
-5 -11 11 2.77 0.82
-5 -11 11 3.37 0.81
-5 -11 11 3.07 0.72
-5 -11 11 3.71 0.79
-5 -11 11 2.79 0.62
-5 -11 11 3.59 0.96
-5 -11 11 -0.09 2.69
-5 -11 11 3.09 0.6
-5 -11 10 107.95 4.47
-5 -11 10 109.26 4.59
-5 -11 10 101.38 3.95
-5 -11 10 101.17 4.73
-5 -11 10 104.19 4.61
-5 -11 10 107.1 4.8
-5 -11 9 143.46 5.35
-5 -11 9 134.51 5.09
-5 -11 9 137.93 5.31
-5 -11 9 130.06 4.8
-5 -11 9 128.62 5.44
-5 -11 9 127.63 5.09
-5 -11 9 126.44 5.37
-5 -11 8 152.28 5.61
-5 -11 8 142.97 5.17
-5 -11 8 146.55 5.51
-5 -11 8 135.97 5.78
-5 -11 8 137.39 5.05
-5 -11 8 134.83 5.55
-5 -11 8 140.96 5.34
-5 -11 8 137.55 5.56
-5 -11 8 139.25 18.39
-5 -11 7 -0.07 0.43
-5 -11 7 -0.25 0.62
-5 -11 7 0.54 0.79
-5 -11 7 0.87 0.59
-5 -11 7 0.46 0.61
-5 -11 7 -0.1 0.53
-5 -11 7 0.39 0.66
-5 -11 7 1.06 0.78
-5 -11 6 27.48 2.29
-5 -11 6 30.01 2.06
-5 -11 6 26.93 2.15
-5 -11 6 28.4 2.17
-5 -11 6 27.31 2.5
-5 -11 6 26.8 2.13
-5 -11 6 26.36 2.24
-5 -11 6 30.11 2.38
-5 -11 6 28.26 8.77
-5 -11 6 26.41 2.01
5 11 -6 28.32 0.86
-5 -11 5 1.08 2.4
-5 -11 5 0.14 0.46
-5 -11 5 0.21 0.39
-5 -11 5 0.98 0.46
-5 -11 5 1.01 0.47
-5 -11 5 -0.07 0.61
-5 -11 5 0.23 0.43
-5 -11 5 1.16 0.58
-5 -11 5 0.66 0.5
-5 -11 5 0.21 0.75
5 11 -5 0.97 0.21
-5 -11 4 249.42 7.66
-5 -11 4 248.7 6.41
-5 -11 4 234.01 6.86
-5 -11 4 251.69 8.26
-5 -11 4 235.96 7.38
-5 -11 4 228.74 6.95
-5 -11 4 247.97 7.63
-5 -11 4 225.59 7.43
5 11 -4 247.6 4.63
-5 -11 4 247.61 23.28
-5 -11 3 22.87 1.78
-5 -11 3 22.38 2.25
-5 -11 3 20.69 1.91
-5 -11 3 18.92 1.7
-5 -11 3 20.89 1.96
-5 -11 3 22.85 2.06
-5 -11 3 21.04 2.05
-5 -11 3 23.04 7.09
-5 -11 3 21.18 1.81
5 11 -3 22.65 0.84
-5 -11 3 11.64 6.41
-5 -11 2 90.69 4.29
-5 -11 2 98.97 4.78
-5 -11 2 92.92 3.68
-5 -11 2 90.62 4.28
-5 -11 2 94.71 4.24
-5 -11 2 89.92 4.49
5 11 -2 93.3 2.19
-5 -11 2 92.72 4.08
-5 -11 2 83.55 14.71
-5 -11 2 95.79 14.03
-5 -11 1 31.97 2.49
-5 -11 1 31.62 2.89
-5 -11 1 30.43 2.73
-5 -11 1 33.28 2.38
-5 -11 1 30.99 2.63
-5 -11 1 30.22 2.41
5 11 -1 32.18 1.08
-5 -11 0 98.24 4.62
-5 -11 0 110.04 4.87
-5 -11 0 90.3 17.28
-5 -11 0 102.09 4.38
-5 -11 0 95.13 4.82
5 11 0 107.4 2.43
-5 -11 -1 5.35 1.11
-5 -11 -1 7.54 1.34
-5 -11 -1 6.7 1.18
5 11 1 7 0.47
-5 -11 -2 2.62 0.89
-5 -11 -2 2.57 0.74
-5 -11 -2 2.61 0.87
5 11 2 2.75 0.31
-5 -11 -3 0.59 0.59
-5 -11 -3 0.58 0.49
-5 -11 -3 -0.54 0.53
-5 -11 -4 147.96 5.87
-5 -11 -4 175.26 6.48
-5 -11 -5 2.06 0.7
-5 -11 -5 1.43 0.72
-5 -11 -6 94.03 4.34
-5 -11 -6 108.64 4.68
-5 -11 -6 104.66 4.01
-5 -11 -6 118.69 6.78
-5 -11 -7 20.98 1.84
-5 -11 -7 29.08 3.16
-5 -11 -7 26.44 2.09
-5 -11 -7 21.35 1.75
-5 -11 -8 0.22 0.37
5 11 8 0.36 0.37
-5 -11 -8 0.8 0.63
-5 -11 -8 -0.56 0.4
-5 -11 -9 16.97 1.33
5 11 9 21.65 1.24
-5 -11 -9 19.81 1.32
-5 -11 -9 19.8 1.44
-5 -11 -10 0.49 0.23
5 11 10 -0.09 1.62
-5 -11 -10 0.71 0.35
-5 -12 15 26.03 4
-5 -12 15 31.3 1.37
-5 -12 14 12.69 3.69
-5 -12 14 17.1 1.31
-5 -12 14 16.83 1.28
-5 -12 13 11.43 4.38
-5 -12 13 14.19 1.06
-5 -12 13 14.93 1.41
-5 -12 13 13.79 1.34
-5 -12 12 65.47 3.03
-5 -12 12 56.52 2.66
-5 -12 12 61.02 3.12
-5 -12 12 59.34 12.66
-5 -12 12 60.48 3.08
-5 -12 12 59.12 10.1
-5 -12 11 3.67 3.19
-5 -12 11 0.88 0.53
-5 -12 11 0.48 0.54
-5 -12 11 0.13 0.41
-5 -12 11 0.46 0.55
-5 -12 11 0.1 0.55
-5 -12 11 4.48 2.59
-5 -12 11 3.1 10.9
-5 -12 10 0.51 0.56
-5 -12 10 -0.26 0.54
-5 -12 10 0.07 0.41
-5 -12 10 0.79 0.41
-5 -12 10 0.07 0.61
-5 -12 10 -1.48 2.68
-5 -12 10 -0.17 0.51
-5 -12 10 -2.05 7.84
-5 -12 10 -1.95 3.51
-5 -12 9 0.16 1.88
-5 -12 9 -0.46 0.5
-5 -12 9 0.5 0.57
-5 -12 9 -0.01 0.56
-5 -12 9 0.22 0.45
-5 -12 9 0.04 0.4
-5 -12 9 -0.36 0.63
-5 -12 9 -1.11 2.15
-5 -12 8 11.96 5.86
-5 -12 8 11.91 1.44
-5 -12 8 8.57 1.34
-5 -12 8 13.36 1.59
-5 -12 8 10.44 1.55
-5 -12 8 8.77 1.12
-5 -12 8 10.16 1.44
-5 -12 8 10.4 1.71
-5 -12 8 8.79 7.02
-5 -12 7 37.5 2.61
-5 -12 7 38.41 2.46
-5 -12 7 34.02 2.4
-5 -12 7 33.81 2.76
-5 -12 7 33.41 2.27
-5 -12 7 31.66 2.47
-5 -12 7 38.02 2.69
-5 -12 7 29.48 8.44
-5 -12 7 30.63 10.44
-5 -12 7 30.89 2.43
-5 -12 6 5.8 5.3
-5 -12 6 4.95 1.03
-5 -12 6 3.54 0.89
-5 -12 6 4.19 0.98
-5 -12 6 4.41 1.12
-5 -12 6 3.91 0.84
-5 -12 6 4 0.85
-5 -12 6 4.17 0.88
-5 -12 6 3.92 1.09
-5 -12 6 4.26 0.88
-5 -12 6 9.52 8.1
-5 -12 5 22.32 2.05
-5 -12 5 20.6 1.58
-5 -12 5 20.5 1.8
-5 -12 5 19.92 2.12
-5 -12 5 22.21 1.92
-5 -12 5 18.89 1.72
-5 -12 5 23.68 2.1
-5 -12 5 21.01 1.9
-5 -12 5 16.34 8.77
-5 -12 5 19.3 1.66
-5 -12 5 16.56 5.94
-5 -12 4 0.12 0.49
-5 -12 4 0.31 0.78
-5 -12 4 -0.39 0.6
-5 -12 4 0.29 0.39
-5 -12 4 0.22 0.51
-5 -12 4 1.45 0.78
-5 -12 4 0.49 0.7
5 12 -4 0.31 0.16
-5 -12 4 -0.25 6.53
-5 -12 4 -0.09 2.39
-5 -12 3 12.81 1.61
-5 -12 3 13.13 1.39
-5 -12 3 14.7 2.08
-5 -12 3 11.95 1.67
-5 -12 3 13.82 1.66
-5 -12 3 10.96 1.6
-5 -12 3 13.19 1.41
5 12 -3 14.85 0.65
-5 -12 2 14.63 1.72
-5 -12 2 16.89 1.47
-5 -12 2 11.72 2.57
-5 -12 2 16.62 1.76
-5 -12 2 15.06 1.93
-5 -12 2 15.01 1.63
5 12 -2 16.12 0.69
-5 -12 2 15.6 12.82
-5 -12 1 2.43 0.77
-5 -12 1 2.19 0.82
-5 -12 1 1.51 0.67
5 12 -1 2.42 0.3
-5 -12 1 3.62 17.9
-5 -12 0 6.44 1.16
-5 -12 0 7.36 1.16
-5 -12 0 7.34 1.28
-5 -12 0 0.28 17.66
-5 -12 -1 5.46 1.1
-5 -12 -1 9.26 13.08
-5 -12 -1 6.95 1.07
-5 -12 -1 7.18 1.28
-5 -12 -2 348.6 9.97
-5 -12 -2 357.87 8.66
-5 -12 -2 375.11 10.35
-5 -12 -3 20.02 1.97
-5 -12 -3 19.51 2.09
-5 -12 -4 1.51 0.71
-5 -12 -4 3.13 0.91
-5 -12 -5 21.44 1.92
-5 -12 -5 24.84 2.07
-5 -12 -6 1.15 0.54
-5 -12 -6 1.34 0.58
-5 -12 -7 5.35 0.86
-5 -12 -7 7.42 1.56
-5 -12 -7 6.57 0.95
-5 -12 -8 35.57 1.89
-5 -12 -8 42.33 2.21
5 12 8 39.79 6.63
-5 -12 -8 40.83 1.96
-5 -12 -9 2.17 0.51
5 12 9 2.09 1.32
-5 -12 -9 1.72 0.35
-5 -12 -9 2.03 0.33
-5 -13 14 11.7 0.85
-5 -13 14 11.32 0.84
-5 -13 14 9.23 2.47
-5 -13 13 2.61 1.64
-5 -13 13 4.76 0.7
-5 -13 13 4.82 0.76
-5 -13 12 19.6 1.44
-5 -13 12 17.36 1.27
-5 -13 12 18.35 1.48
-5 -13 12 17.59 1.48
-5 -13 11 12.23 4.29
-5 -13 11 18.54 1.5
-5 -13 11 17.71 1.47
-5 -13 11 20.31 12.09
-5 -13 11 16.99 1.46
-5 -13 11 15.51 1.46
-5 -13 11 16.06 1.49
-5 -13 10 0.37 0.36
-5 -13 10 1.06 0.75
-5 -13 10 -4.94 13.94
-5 -13 10 0.25 0.39
-5 -13 10 -0.09 0.42
-5 -13 10 -1.5 2.77
-5 -13 10 1.72 2.72
-5 -13 10 0.21 0.43
-5 -13 9 111.13 4.29
-5 -13 9 107.32 4.21
-5 -13 9 105.1 4.49
-5 -13 9 103.62 3.4
-5 -13 9 92.9 4.12
-5 -13 9 99.81 4.71
-5 -13 9 104.02 20.39
-5 -13 9 103.19 4.27
-5 -13 9 94.57 13.19
-5 -13 8 3.7 3.63
-5 -13 8 1.54 0.59
-5 -13 8 2.26 0.92
-5 -13 8 2.96 0.62
-5 -13 8 2.07 0.59
-5 -13 8 2.1 0.7
-5 -13 8 2.01 2.01
-5 -13 8 1.94 0.69
-5 -13 8 0.13 13.41
-5 -13 7 40.34 2.61
-5 -13 7 37.92 2.48
-5 -13 7 40.07 2.91
-5 -13 7 35 16.13
-5 -13 7 37.81 2.2
-5 -13 7 34.78 2.36
-5 -13 7 37.54 2.82
-5 -13 7 35.35 2.44
-5 -13 7 36.45 8.47
-5 -13 6 22.25 14.65
-5 -13 6 27.58 2.06
-5 -13 6 27.64 2.55
-5 -13 6 28.52 2.01
-5 -13 6 24.82 1.94
-5 -13 6 31.91 2.37
-5 -13 6 25.55 2.26
-5 -13 6 22.91 1.76
-5 -13 6 30.06 7.76
-5 -13 5 47.23 2.97
-5 -13 5 45.5 2.67
-5 -13 5 49.02 3.45
-5 -13 5 47.72 2.81
-5 -13 5 42.63 2.36
-5 -13 5 51.03 3.09
-5 -13 5 40.87 9.03
-5 -13 4 38 2.66
-5 -13 4 34.04 2.25
-5 -13 4 36.68 3.27
-5 -13 4 40.61 2.7
-5 -13 4 32.15 20.5
-5 -13 3 1.5 0.76
-5 -13 3 -2.64 22.09
-5 -13 3 -2.69 3.17
-5 -13 3 0.31 0.32
-5 -13 3 1.21 0.8
-5 -13 3 1.21 0.51
-5 -13 2 3.92 0.93
-5 -13 2 3.95 0.72
-5 -13 2 5.9 20.11
-5 -13 2 4.83 1.04
-5 -13 2 2.86 0.76
-5 -13 1 102.89 4.6
-5 -13 1 99.77 4.1
-5 -13 1 99.2 4.48
-5 -13 1 86.15 21.88
-5 -13 0 50.67 3.14
-5 -13 0 47.98 2.67
-5 -13 0 52.34 3.2
-5 -13 -1 9.14 1.35
-5 -13 -1 7.75 1.05
-5 -13 -1 9.21 1.37
-5 -13 -2 167.45 5.94
-5 -13 -2 164.93 4.72
-5 -13 -2 180.54 6.29
-5 -13 -3 12.44 1.46
-5 -13 -3 17.7 1.79
-5 -13 -4 -0.3 0.38
-5 -13 -4 2.73 4
-5 -13 -4 0.35 0.53
-5 -13 -5 28.37 1.97
-5 -13 -5 29.8 1.92
-5 -13 -5 36.31 3.75
5 13 5 32.06 5.8
-5 -13 -5 33.02 2.2
-5 -13 -6 52.77 2.5
-5 -13 -6 63.5 3.58
-5 -13 -6 48.62 2.39
5 13 6 53.63 7.15
-5 -13 -6 61.53 2.81
-5 -13 -7 2.02 0.49
-5 -13 -7 2.69 0.55
5 13 7 1.22 1.68
-5 -13 -7 3.1 0.7
-5 -13 -7 2.82 0.56
-5 -13 -8 3.27 0.41
-5 -14 13 4.82 0.51
-5 -14 12 1.7 0.43
-5 -14 12 1.47 0.37
-5 -14 11 0.45 0.36
-5 -14 11 0.25 0.3
-5 -14 11 0.23 0.3
-5 -14 11 0.66 0.36
-5 -14 11 -0.77 1.43
-5 -14 10 0.36 0.38
-5 -14 10 0.23 0.39
-5 -14 10 -0.98 1.35
-5 -14 10 0.64 0.44
-5 -14 10 0.58 0.39
-5 -14 10 1.98 2.37
-5 -14 10 -0.63 2.27
-5 -14 9 1 0.53
-5 -14 9 0.47 0.42
-5 -14 9 0.38 1.34
-5 -14 9 0.91 0.48
-5 -14 9 0.44 0.39
-5 -14 9 0.91 2.83
-5 -14 9 6.51 15.11
-5 -14 9 2.53 2.42
-5 -14 8 0.41 0.47
-5 -14 8 0.36 0.36
-5 -14 8 1.13 1.67
-5 -14 8 -0.48 0.43
-5 -14 8 -0.01 0.31
-5 -14 8 -1.56 2.87
-5 -14 8 -2.78 2.07
-5 -14 7 13.43 1.4
-5 -14 7 13.5 1.33
-5 -14 7 13.56 2.23
-5 -14 7 10.04 1.05
-5 -14 7 13.66 2.73
-5 -14 7 10.16 1.05
-5 -14 7 7.24 19.58
-5 -14 7 7.53 3.38
-5 -14 6 68.61 3.34
-5 -14 6 66.25 3.07
-5 -14 6 62.78 3.99
-5 -14 6 65.48 3.53
-5 -14 6 69.33 23.39
-5 -14 5 127.53 4.87
-5 -14 5 124.17 4.4
-5 -14 5 129.29 4.85
-5 -14 4 61.38 3.26
-5 -14 4 62.16 2.87
-5 -14 4 62.47 3.26
-5 -14 3 4.01 0.9
-5 -14 3 4.74 0.76
-5 -14 3 4.4 1.16
-5 -14 3 3.11 0.66
-5 -14 2 44.65 2.18
-5 -14 2 46.95 2.84
-5 -14 2 49.24 2.69
-5 -14 2 44.97 2.65
-5 -14 1 83.45 3.85
-5 -14 1 84.75 3.47
-5 -14 1 78.43 3.7
-5 -14 0 32.16 2.3
-5 -14 0 31.69 1.94
-5 -14 0 31.63 2.31
-5 -14 -1 0.09 0.4
-5 -14 -1 -0.48 0.52
-5 -14 -2 12.41 1.37
-5 -14 -2 13.18 1.46
-5 -14 -3 8.06 1.06
-5 -14 -3 9.1 3.38
-5 -14 -3 7.97 1.12
-5 -14 -4 13.64 1.25
-5 -14 -4 16.82 2.77
-5 -14 -4 14.04 1.34
-5 -14 -5 -0.14 0.3
-5 -14 -5 -0.97 0.99
-5 -14 -5 -0.07 0.31
-5 -14 -6 6.4 0.67
-5 -14 -6 7.56 0.96
-5 -14 -6 6.79 0.74
-5 -15 10 8.31 0.78
-5 -15 10 9.26 0.8
-5 -15 10 7.23 0.71
-5 -15 9 1.99 0.44
-5 -15 9 1.72 0.45
-5 -15 9 0.82 0.29
-5 -15 9 2.34 2.14
-5 -15 8 3.82 0.56
-5 -15 8 5.56 0.77
-5 -15 8 5.66 0.74
-5 -15 7 24.8 1.67
-5 -15 7 22.74 1.5
-5 -15 6 5.29 0.84
-5 -15 6 5.5 0.75
-5 -15 5 30 2
-5 -15 5 27.76 1.66
-5 -15 5 30.86 2.82
-5 -15 4 15.73 1.45
-5 -15 4 15.25 1.19
-5 -15 4 15.47 2.07
-5 -15 3 2.36 0.69
-5 -15 3 3.83 0.59
-5 -15 3 3.2 1.5
-5 -15 3 1.79 0.47
-5 -15 2 84.34 3.51
-5 -15 2 78.22 2.63
-5 -15 2 79.91 3.3
-5 -15 2 76.56 3.15
-5 -15 1 1.87 0.55
-5 -15 1 0.68 1.15
-5 -15 1 1.81 3.4
-5 -15 1 1.85 0.54
-5 -15 0 74.79 3.15
-5 -15 0 63.11 2.52
-5 -15 0 69.84 5.11
-5 -15 0 72.23 3.19
-5 -15 -1 3.47 0.66
-5 -15 -1 3.63 2.93
-5 -15 -1 3.69 0.74
-5 -15 -2 18.81 1.4
-5 -15 -2 22.46 2.89
-5 -15 -2 20.79 1.57
-5 -15 -3 6.43 0.76
-5 -15 -3 6.32 1.58
-5 -15 -3 7.2 0.89
-5 -15 -4 1.16 0.33
-5 -15 -4 0.82 0.6
-5 -15 -4 0.51 0.32
-5 -15 -5 1.26 0.43
-5 -15 -5 2.15 0.38
-5 -16 9 -0.47 0.22
-5 -16 8 28.47 1.38
-5 -16 8 29.31 1.26
-5 -16 7 13.38 1.02
-5 -16 7 12.78 0.85
-5 -16 7 14.59 2.04
-5 -16 6 49.09 2.12
-5 -16 6 47.77 1.78
-5 -16 6 51.29 2.81
-5 -16 5 1.07 0.42
-5 -16 5 0.12 0.2
-5 -16 5 -0.27 1.87
-5 -16 4 0.19 0.33
-5 -16 4 -0.25 0.24
-5 -16 4 -0.37 1.91
-5 -16 3 1.39 0.43
-5 -16 3 -2.15 1.73
-5 -16 3 -0.57 1.5
-5 -16 2 3.87 0.63
-5 -16 2 0.43 1.32
-5 -16 2 2.45 1.64
-5 -16 2 3.73 0.56
-5 -16 1 3.43 0.56
-5 -16 1 3.65 1.52
-5 -16 1 2.53 0.5
-5 -16 0 28.02 1.51
-5 -16 0 28.09 2.28
-5 -16 0 27.48 1.51
-5 -16 -1 3.16 0.49
-5 -16 -1 3.1 0.94
-5 -16 -1 2.98 0.51
-5 -16 -2 13.91 0.86
-5 -16 -2 14.89 1.34
-5 -16 -2 13.87 0.95
-5 -17 4 0.6 0.22
-5 -17 3 1.35 0.27
6 -17 -2 27.27 1.71
6 -17 -1 -0.33 0.41
6 -17 -1 0.18 0.27
6 -17 0 2.05 0.58
6 -17 0 2.14 0.54
6 -17 1 61.86 2.92
6 -17 1 62.2 2.81
6 -17 2 32.94 2.04
6 -17 2 35.55 2.17
6 -17 3 25.73 1.83
6 -17 3 26.55 1.26
6 -17 4 1.65 0.54
6 -17 4 1.97 0.34
6 -17 5 -0.05 0.18
6 -17 5 -0.18 0.19
6 -17 5 0.31 0.39
6 -17 6 1.41 0.41
6 -16 -5 4.85 0.74
6 -16 -4 1.02 0.52
6 -16 -4 0.69 0.2
6 -16 -3 6.91 1.18
6 -16 -3 4.69 0.49
6 -16 -3 7.51 0.75
6 -16 -2 8.77 1.35
6 -16 -2 5.81 0.56
6 -16 -2 7.92 0.95
6 -16 -1 31.19 2.07
6 -16 -1 35.72 2.74
6 -16 0 18.96 2.04
6 -16 0 17.86 1.71
6 -16 1 3.94 0.51
6 -16 1 5.57 1.25
6 -16 1 5.49 1.08
6 -16 2 -0.01 0.23
6 -16 2 0.34 0.61
6 -16 2 0.63 0.55
6 -16 3 51.49 2.08
6 -16 3 46.74 3.11
6 -16 3 48.88 3.07
6 -16 4 2.54 0.45
6 -16 4 2.99 0.54
6 -16 4 2.95 0.79
6 -16 4 1.5 0.68
6 -16 5 1.58 0.38
6 -16 5 1.37 0.41
6 -16 5 1.68 0.4
6 -16 5 2.2 0.7
6 -16 6 45.26 1.94
6 -16 6 45.28 1.95
6 -16 6 41.15 1.63
6 -16 6 40.12 2.57
6 -16 7 3.89 0.79
6 -16 7 4.85 0.62
6 -16 7 4.24 0.58
6 -16 8 1.55 0.37
6 -16 8 0.84 0.29
6 -16 9 24.18 1.17
6 -15 -7 0.27 0.27
6 -15 -6 46.17 2.5
-6 15 6 40.07 5.39
6 -15 -6 40.24 1.75
6 -15 -5 10.68 1.4
6 -15 -5 7.61 0.72
-6 15 5 6.99 2.67
6 -15 -5 8.94 0.92
6 -15 -4 9.04 0.86
6 -15 -4 11.08 1.55
-6 15 4 12.64 3.31
6 -15 -4 10.57 1.05
6 -15 -3 24.52 1.75
6 -15 -3 22.43 1.54
6 -15 -3 27.19 2.54
6 -15 -3 21.44 1.39
-6 15 3 28.03 5.16
6 -15 -2 7.57 1.52
6 -15 -2 5.57 0.71
6 -15 -2 7.59 0.9
6 -15 -2 6.33 1.06
6 -15 -1 2.26 0.85
6 -15 -1 3.3 0.52
6 -15 -1 3.54 1.15
6 -15 -1 2.27 0.46
6 -15 0 2.5 0.53
6 -15 0 3.75 1.16
6 -15 0 3.63 0.94
6 -15 1 16.38 1.31
6 -15 1 16.58 1.9
6 -15 1 16.02 2.15
-6 15 -1 17.24 0.68
6 -15 2 3.76 0.58
6 -15 2 5.32 0.8
6 -15 2 5.58 1.31
-6 15 -2 4.59 0.35
6 -15 2 5.27 1.2
6 -15 3 0.32 0.69
6 -15 3 0.37 0.29
6 -15 3 -0.16 0.35
6 -15 3 -0.25 0.65
-6 15 -3 0.39 0.18
6 -15 4 9.4 1.04
6 -15 4 10.7 1.11
6 -15 4 8.93 1.66
6 -15 4 9.04 1.52
6 -15 5 36.49 2.05
6 -15 5 28.95 2.6
6 -15 5 35.56 2.04
6 -15 5 27.52 2.51
6 -15 6 6.39 0.9
6 -15 6 6.04 0.86
6 -15 6 5.43 0.68
6 -15 6 5.61 1.18
6 -15 7 6.68 0.87
6 -15 7 6.96 0.89
6 -15 7 5.34 0.6
6 -15 8 -0.23 0.4
6 -15 8 0.03 0.35
6 -15 8 -0.23 0.54
6 -15 9 6.31 0.78
6 -15 9 5.69 0.66
6 -15 9 5.46 0.68
6 -15 10 0.16 0.2
6 -15 10 0.49 0.28
6 -15 11 12.86 0.79
6 -14 -8 4.32 0.65
6 -14 -8 4.63 0.68
6 -14 -8 2.52 0.43
-6 14 8 5.32 2.75
6 -14 -7 1.26 0.58
6 -14 -7 1.03 0.36
6 -14 -7 1.83 0.53
-6 14 7 3.42 2.42
6 -14 -6 9.12 1.34
6 -14 -6 8.13 1.08
6 -14 -6 6.02 0.76
-6 14 6 7.46 2.82
6 -14 -5 9.25 1.52
6 -14 -5 7 0.91
6 -14 -5 8.9 1.19
6 -14 -4 8.81 1.21
6 -14 -4 11.79 1.79
6 -14 -4 7.81 1.02
-6 14 4 7.56 3.59
6 -14 -4 10.52 1.16
6 -14 -3 9.86 1.31
6 -14 -3 8.28 1
6 -14 -3 9.02 1.79
-6 14 3 8.71 0.47
6 -14 -3 7.5 1.17
6 -14 -2 9.22 0.95
-6 14 2 9.48 0.51
6 -14 -2 8.04 1.04
6 -14 -2 9.86 1.74
6 -14 -2 9.26 1.26
-6 14 2 12.09 4
6 -14 -2 10.49 1.46
6 -14 -1 -0.33 0.31
6 -14 -1 0.95 0.8
6 -14 -1 0.57 0.29
6 -14 -1 -0.65 0.6
-6 14 1 0.49 0.22
6 -14 -1 0.59 0.62
6 -14 0 0.46 0.44
6 -14 0 1.68 0.96
6 -14 0 0.7 0.45
6 -14 0 0.76 0.99
-6 14 0 1.16 0.23
6 -14 1 3.13 0.59
6 -14 1 2.93 0.66
6 -14 1 3.6 1.24
6 -14 1 4.29 1.11
-6 14 -1 3.4 0.35
6 -14 2 16.97 1.45
6 -14 2 14.96 2.33
6 -14 2 19.17 2.25
-6 14 -2 18.3 0.77
6 -14 2 16.73 1.52
6 -14 3 37.82 2.32
6 -14 3 38.67 2.37
-6 14 -3 39.38 1.21
6 -14 3 36.59 3.47
6 -14 3 34.65 3.07
6 -14 4 30.42 2.07
6 -14 4 27.25 2.75
6 -14 4 27.15 1.99
6 -14 4 24.38 2.83
-6 14 -4 28.76 0.99
6 -14 5 -0.02 0.43
6 -14 5 0.56 0.81
6 -14 5 0.12 0.37
-6 14 -5 0.44 0.21
6 -14 5 1.46 0.97
6 -14 6 10.75 1.28
6 -14 6 10.54 1.21
6 -14 6 7.4 1.48
6 -14 6 9.91 1.01
-6 14 -6 11.74 0.55
6 -14 6 10.57 1.74
6 -14 7 4.76 0.9
6 -14 7 5.01 0.88
6 -14 7 3.81 0.56
6 -14 7 4.9 1.15
-6 14 -7 4.65 0.34
6 -14 8 0.35 0.43
6 -14 8 1.67 0.56
6 -14 8 1.06 0.59
6 -14 9 1.73 0.53
6 -14 9 1.39 0.51
6 -14 10 24.09 1.56
6 -14 10 26.18 1.62
6 -14 10 22.55 1.45
6 -14 11 1.6 0.42
6 -14 11 0.48 0.28
6 -14 12 9.39 0.66
6 -14 12 9.5 0.7
6 -13 -10 4.79 0.48
6 -13 -10 9.15 0.8
-6 13 10 8.2 2.49
6 -13 -9 19.82 1.39
-6 13 9 23.12 5.05
6 -13 -9 17.24 1.41
-6 13 8 25.18 6.26
6 -13 -8 29.87 2.15
6 -13 -8 28.43 2.04
6 -13 -7 2.9 0.82
-6 13 7 0.49 2.05
6 -13 -7 2.88 0.83
6 -13 -6 13.12 1.83
-6 13 6 9.66 4.5
6 -13 -6 9.91 1.37
6 -13 -5 1.05 0.72
6 -13 -5 0.81 0.62
-6 13 5 3.67 3.65
6 -13 -4 10.6 1
6 -13 -4 12.69 1.38
6 -13 -4 13.19 2.03
-6 13 4 16.24 6.18
6 -13 -4 12.72 1.65
6 -13 -3 8.27 0.99
6 -13 -3 9.71 1.77
-6 13 3 5.46 3.18
6 -13 -3 9.1 1.45
6 -13 -3 10.88 1.44
6 -13 -2 12.66 1.24
6 -13 -2 10.27 1.85
6 -13 -2 7.99 1.07
-6 13 2 7.02 3.59
6 -13 -2 6.93 1.25
6 -13 -2 9.23 1.41
6 -13 -1 8.82 1.11
6 -13 -1 9.12 1.93
6 -13 -1 7.56 1.03
6 -13 -1 11.09 1.81
6 -13 -1 9.38 1.48
-6 13 1 9.85 0.58
-6 13 1 10.85 4.83
6 -13 0 18.44 1.63
6 -13 0 16.28 2.39
6 -13 0 20.06 2.25
6 -13 0 18.22 1.8
-6 13 0 18.71 0.84
6 -13 1 5.87 0.97
6 -13 1 7.82 1.81
6 -13 1 6.69 1.02
-6 13 -1 7.16 0.56
6 -13 1 8.24 1.58
6 -13 2 2.49 0.72
6 -13 2 2.45 1.18
6 -13 2 1.68 0.92
-6 13 -2 2.51 0.34
6 -13 3 0.52 0.46
6 -13 3 -0.07 0.86
-6 13 -3 0.96 0.24
6 -13 3 0.29 0.79
6 -13 4 125.96 7.01
-6 13 -4 142.79 3.12
6 -13 4 126.58 6.34
6 -13 5 87.95 3.83
6 -13 5 74.75 4.77
6 -13 5 70.6 5.05
-6 13 -5 84.67 2.07
6 -13 6 0.17 0.53
6 -13 6 0.51 0.61
6 -13 6 1.48 1.1
-6 13 -6 0.43 0.2
6 -13 7 18.85 1.78
6 -13 7 15.57 2.04
6 -13 7 20.95 1.75
-6 13 -7 18.47 0.75
6 -13 7 20.31 1.34
6 -13 8 9.5 1.25
6 -13 8 7.9 0.82
6 -13 8 9.27 1.15
-6 13 -8 8.7 0.47
6 -13 8 6.07 1.3
6 -13 9 4.32 0.86
6 -13 9 4.85 0.86
6 -13 9 4.17 1.01
6 -13 10 32.13 1.94
6 -13 10 32.14 1.99
6 -13 11 6.57 0.83
6 -13 11 6.46 0.84
6 -13 12 12.85 0.97
6 -13 12 14.91 1.13
6 -13 13 8.63 0.73
-6 12 11 1.14 1.34
6 -12 -11 1.8 0.43
-6 12 10 26.89 1.79
-6 12 10 28.85 6.1
6 -12 -10 27.17 1.84
-6 12 9 56.14 9.51
6 -12 -9 52.16 2.72
-6 12 9 50.7 2.84
6 -12 -9 50.42 2.89
6 -12 -8 -0.13 0.54
6 -12 -8 0.72 0.65
-6 12 8 0.64 0.62
-6 12 8 0.59 2.4
6 -12 -7 0.08 0.68
-6 12 7 0.29 0.58
-6 12 7 0.3 2.72
6 -12 -7 0.85 0.67
6 -12 -6 2.07 1.03
-6 12 6 2.76 1
-6 12 6 1.4 3.79
6 -12 -6 2.24 0.85
6 -12 -5 9.43 1.01
6 -12 -5 10.71 1.82
-6 12 5 10.76 1.62
-6 12 5 12.91 4.96
6 -12 -5 7.65 1.42
6 -12 -4 4.42 0.78
6 -12 -4 5.07 1.45
-6 12 4 5.17 1.4
-6 12 4 5.69 4.53
6 -12 -4 3.08 0.94
6 -12 -4 4.23 0.88
6 -12 -3 4.92 1.28
6 -12 -3 4.23 0.81
6 -12 -3 2.9 0.81
6 -12 -3 4.03 1
-6 12 3 5.25 1.31
-6 12 3 6.06 4.27
6 -12 -2 0.04 0.39
6 -12 -2 -0.55 0.88
-6 12 2 -1.27 2.58
6 -12 -2 0.31 0.57
6 -12 -2 0.28 0.61
-6 12 1 129.11 15.57
6 -12 -1 139.82 4.95
6 -12 -1 145.69 7.23
6 -12 -1 134.81 5.94
6 -12 -1 129.03 5.6
6 -12 0 46.32 2.67
6 -12 0 47.83 4.05
6 -12 0 43.12 3.39
6 -12 0 42.58 2.96
-6 12 0 50.57 1.51
-6 12 0 48.27 9.07
6 -12 1 16.84 1.69
6 -12 1 14.66 1.76
6 -12 1 17 2.48
6 -12 1 14.93 2.05
-6 12 -1 16.76 0.86
6 -12 2 -0.23 0.8
6 -12 2 0.79 0.57
6 -12 2 -0.64 1.15
6 -12 2 0.24 0.49
-6 12 -2 0.22 0.22
6 -12 3 0.39 0.5
6 -12 3 -0.19 0.92
6 -12 3 -0.17 0.64
-6 12 -3 0.01 0.21
6 -12 4 111.89 4.4
6 -12 4 102.26 3.68
6 -12 4 96.47 6.02
-6 12 -4 102.43 2.47
6 -12 4 97.8 5.52
6 -12 5 74.93 3.56
6 -12 5 71.37 2.98
6 -12 5 60.57 4.72
6 -12 5 60.75 4.32
-6 12 -5 72.76 1.91
6 -12 6 8.36 1.02
-6 12 -6 9.52 0.58
6 -12 6 9.66 1.24
6 -12 6 6.34 1.63
6 -12 6 9.91 1.82
6 -12 7 18.36 1.67
6 -12 7 19.33 1.52
-6 12 -7 19.28 0.81
6 -12 8 11.56 1.44
6 -12 8 10.96 1.31
6 -12 8 11.01 1.15
6 -12 8 9.72 1.76
-6 12 -8 10.98 0.58
6 -12 9 5.92 1.08
6 -12 9 4.42 0.75
6 -12 9 5.96 0.95
6 -12 9 5.05 1.21
-6 12 -9 5.4 0.38
6 -12 10 21.64 1.68
6 -12 10 21.2 1.51
6 -12 10 23.92 1.79
-6 12 -10 20.88 0.71
6 -12 11 1.05 0.5
6 -12 11 1.45 0.51
6 -12 11 1.56 0.49
6 -12 12 1.36 0.49
6 -12 12 1.25 0.42
6 -12 13 1.38 0.45
6 -12 13 -0.16 0.22
6 -12 14 8.74 0.72
-6 11 12 1.34 0.43
6 -11 -12 1.16 0.34
-6 11 12 0.59 0.9
-6 11 11 16.05 1.47
-6 11 11 20.8 5.24
6 -11 -11 15.29 1.38
6 -11 -10 22.89 1.64
-6 11 10 22.33 1.98
6 -11 -10 23.67 1.98
6 -11 -9 1.18 0.67
-6 11 9 -0.32 0.61
-6 11 9 0.11 1.87
6 -11 -9 0.24 0.57
6 -11 -8 7.83 1.31
-6 11 8 6.21 1.32
-6 11 8 6.19 3.08
6 -11 -8 9.14 4.18
6 -11 -8 6.57 1.23
6 -11 -7 4.21 0.68
6 -11 -7 4.4 1.2
-6 11 7 5.15 1.38
-6 11 7 4.49 4.64
6 -11 -7 7.46 3.5
6 -11 -7 5.34 1.26
6 -11 -6 1.53 0.8
6 -11 -6 1.38 0.97
-6 11 6 2.19 0.87
6 -11 -6 0.57 3.16
6 -11 -6 1.5 0.77
6 -11 -5 0.41 0.45
6 -11 -5 1.41 1.07
-6 11 5 -0.72 0.86
-6 11 5 -0.45 2.78
6 -11 -5 -0.37 0.7
6 -11 -4 3.51 0.76
6 -11 -4 2.84 0.97
-6 11 4 2.23 0.82
-6 11 4 4.4 3.65
6 -11 -4 2.45 0.9
6 -11 -3 0.34 0.42
6 -11 -3 -0.11 0.86
-6 11 3 -0.18 0.73
-6 11 3 1.35 2.71
6 -11 -3 -0.48 0.76
6 -11 -3 -0.61 0.57
6 -11 -2 22.69 1.89
6 -11 -2 23.48 2.73
-6 11 2 24.56 2.48
6 -11 -2 23.48 2.25
-6 11 2 24.35 7.26
6 -11 -2 21.66 2.27
6 -11 -1 50.31 2.76
6 -11 -1 46.32 3.87
6 -11 -1 45.27 3.24
-6 11 1 55.87 10.58
6 -11 -1 44.02 3.12
6 -11 0 701.92 14.57
6 -11 0 658.45 13.7
6 -11 0 688.95 18.19
-6 11 0 633.81 35.17
6 -11 0 637.4 16.06
6 -11 0 594.85 15.07
6 -11 1 257.99 8.87
6 -11 1 262.15 7.3
6 -11 1 248.56 6.64
6 -11 1 248.08 9.78
-6 11 -1 249.7 4.97
6 -11 2 7.39 0.95
6 -11 2 9.19 1.19
6 -11 2 10.51 1.85
6 -11 2 10.28 1.35
6 -11 2 10.42 1.67
-6 11 -2 9.54 0.61
6 -11 3 169.26 7.25
6 -11 3 192.55 6.02
6 -11 3 174.99 5.34
6 -11 3 183.37 8.39
-6 11 -3 179.43 3.8
-6 11 -4 0.73 0.26
6 -11 4 0.27 0.37
6 -11 4 -0.21 0.66
6 -11 4 0.5 0.52
6 -11 4 -1.09 1.1
6 -11 5 4.95 0.81
6 -11 5 4.72 0.92
6 -11 5 3.38 1.33
6 -11 5 4.83 1.28
-6 11 -5 5.17 0.45
6 -11 6 22.15 1.86
6 -11 6 18.76 1.63
6 -11 6 15.79 2.43
6 -11 6 16.12 2.25
-6 11 -6 19.34 0.85
6 -11 7 23.02 1.89
6 -11 7 21.25 1.73
6 -11 7 18.78 2.43
-6 11 -7 21.33 0.89
6 -11 8 0.61 0.45
6 -11 8 0.24 0.5
6 -11 8 0.81 0.71
-6 11 -8 0.09 0.19
6 -11 9 0.03 0.46
6 -11 9 1.42 0.56
6 -11 9 0.81 0.48
6 -11 9 1.01 0.82
-6 11 -9 0.95 0.22
6 -11 10 12.58 1.39
6 -11 10 11.52 1.32
6 -11 10 10.97 1.19
-6 11 -10 9.67 0.5
6 -11 11 86.29 3.43
6 -11 11 79.64 3.32
6 -11 12 35.78 1.9
6 -11 12 41.41 2.41
6 -11 13 0.15 0.36
6 -11 13 0.13 0.25
6 -11 14 55.48 2.29
6 -11 15 125.31 3.11
-6 10 13 67.11 2.51
6 -10 -12 2.57 0.57
-6 10 12 1.98 0.67
-6 10 11 0.96 0.63
6 -10 -11 0.51 0.57
-6 10 10 35.68 2.83
-6 10 10 24.5 7.2
6 -10 -10 31.98 5.54
6 -10 -10 34.26 2.64
6 -10 -9 10.25 1.42
-6 10 9 9.13 1.59
-6 10 9 3.29 3.52
6 -10 -9 4.77 2.16
6 -10 -9 8.99 1.53
6 -10 -8 18.71 5.41
6 -10 -8 13.25 1.15
6 -10 -8 14.71 1.88
-6 10 8 13.02 1.88
-6 10 8 13.45 5.69
6 -10 -8 14.21 1.94
6 -10 -7 11.41 1.2
6 -10 -7 14.6 1.99
-6 10 7 11.59 1.81
-6 10 7 16.07 7.1
6 -10 -7 10.97 4.62
6 -10 -7 12.36 1.87
6 -10 -6 43.19 2.39
6 -10 -6 43.49 2.42
6 -10 -6 47.99 3.63
6 -10 -6 37.11 7.87
-6 10 6 45.63 3.57
-6 10 6 39.75 10.8
6 -10 -6 43.41 3.37
6 -10 -5 67.13 3.08
6 -10 -5 69.43 3.21
-6 10 5 69.84 13.52
6 -10 -5 75.12 4.63
-6 10 5 64.56 4.27
6 -10 -5 75.06 11.14
6 -10 -5 67.96 4.24
6 -10 -4 156.62 5.09
6 -10 -4 161.39 5.33
6 -10 -4 168.33 7.3
-6 10 4 155.84 6.75
-6 10 4 160.19 19.88
6 -10 -4 149.38 15.94
6 -10 -4 149.79 6.47
6 -10 -3 784.42 16.66
6 -10 -3 844.97 17.16
6 -10 -3 833.49 18
6 -10 -3 894.19 20.53
-6 10 3 815 19.32
-6 10 3 835.88 45.26
6 -10 -3 755.77 18.79
6 -10 -3 912.87 22.04
6 -10 -2 2.44 0.64
6 -10 -2 3.64 0.74
6 -10 -2 3.33 0.94
6 -10 -2 4.21 1.29
6 -10 -2 3.03 1.06
-6 10 2 3.48 1.12
6 -10 -2 3.51 0.9
6 -10 -1 5.6 0.89
6 -10 -1 6.73 1.05
6 -10 -1 8.59 1.83
6 -10 -1 7.98 1.63
-6 10 1 7.49 1.33
-6 10 1 4.83 3.36
6 -10 -1 4.86 1.01
6 -10 -1 5.92 1.09
6 -10 0 46.47 2.5
6 -10 0 51.57 2.72
6 -10 0 51.31 3.94
-6 10 0 48.18 9.41
6 -10 0 43.41 2.92
6 -10 0 52.53 4.42
6 -10 0 48.38 3.26
6 -10 1 73.49 4.66
6 -10 1 85.95 3.58
6 -10 1 95.19 3.83
6 -10 1 94.97 5.51
6 -10 1 90.39 4.7
-6 10 -1 90.49 12.07
6 -10 1 82.49 4.05
6 -10 1 94 6
-6 10 -1 94.09 2.24
6 -10 2 28.06 2.89
6 -10 2 33.82 2.21
6 -10 2 29.78 2
6 -10 2 32.93 3.18
6 -10 2 31.27 2.72
6 -10 2 31.07 2.37
6 -10 2 34.08 3.56
-6 10 -2 31.98 1.14
6 -10 3 45.54 3.81
6 -10 3 51.23 2.82
6 -10 3 52.39 2.64
6 -10 3 53.8 4.19
6 -10 3 48.39 3.49
6 -10 3 47.27 2.83
6 -10 3 55.13 4.48
-6 10 -3 52.94 1.54
6 -10 4 7.74 1.65
6 -10 4 6.74 0.96
6 -10 4 6.92 1.1
6 -10 4 6.67 1.4
6 -10 4 7.14 1.59
6 -10 4 7.1 1.42
-6 10 -4 7.78 0.54
6 -10 5 -0.13 0.64
6 -10 5 0.14 0.45
6 -10 5 -0.13 0.49
6 -10 5 -0.55 0.78
6 -10 5 -1.22 0.9
6 -10 5 0.85 0.88
-6 10 -5 -0.27 0.24
6 -10 6 6.32 1.02
6 -10 6 6.28 0.98
6 -10 6 5.43 1.41
6 -10 6 7.28 1.62
-6 10 -6 7.66 0.55
-6 10 -7 26.73 1.03
6 -10 7 28.46 2.06
6 -10 7 28.05 2.08
6 -10 8 57.08 3.01
6 -10 8 57.49 3.04
6 -10 8 53.33 3.95
-6 10 -8 55.3 1.6
6 -10 9 10.66 1.28
6 -10 9 10.8 1.3
-6 10 -9 10.07 0.58
6 -10 9 7.74 1.48
6 -10 10 0.37 0.47
6 -10 10 0.21 0.44
6 -10 10 -0.06 0.53
-6 10 -10 0.43 0.19
6 -10 11 190.65 5.71
6 -10 11 170.53 5.47
6 -10 11 177.91 5.79
-6 10 -11 193.58 3.65
6 -10 12 26.55 2
6 -10 12 24.32 1.55
6 -10 12 23.33 1.48
6 -10 13 1.6 0.55
6 -10 13 1.84 0.41
6 -10 14 13.43 1.21
6 -10 15 76.57 2.56
-6 10 -15 72.1 7.72
-6 9 14 1.76 0.41
-6 9 13 1.49 0.62
-6 9 13 -0.5 2.03
6 -9 -13 0.64 0.31
6 -9 -12 0.67 0.54
-6 9 12 1.24 0.64
-6 9 12 2.02 2.29
6 -9 -11 0.67 0.29
-6 9 11 1.62 0.78
-6 9 11 1.94 1.91
6 -9 -11 1.74 0.8
6 -9 -10 8.52 0.97
-6 9 10 12.34 1.92
-6 9 10 4.75 3.67
6 -9 -10 5.65 2.96
6 -9 -10 10.11 1.57
6 -9 -9 9.38 1.03
6 -9 -9 8.46 1.08
6 -9 -9 7.61 1.21
-6 9 9 9.39 1.59
-6 9 9 7.67 4.2
6 -9 -9 9.14 1.57
6 -9 -9 7.7 3.54
6 -9 -8 156.76 5.33
6 -9 -8 165.93 5.26
6 -9 -8 184.13 6.72
-6 9 8 168.21 7.18
-6 9 8 170.99 21.28
6 -9 -8 160.74 14.97
6 -9 -8 169.84 6.94
6 -9 -7 89.98 3.82
6 -9 -7 96.44 3.83
-6 9 7 91.75 15.69
6 -9 -7 100.97 5.02
-6 9 7 89.11 5.11
6 -9 -7 95.78 11.65
6 -9 -7 94.33 5.07
6 -9 -6 88.19 3.76
6 -9 -6 91.3 3.84
6 -9 -6 102.42 5.11
-6 9 6 87.39 5.04
-6 9 6 95.67 15.53
6 -9 -6 87.81 11.34
6 -9 -6 92.93 4.96
6 -9 -5 35.29 2.29
6 -9 -5 37.74 2.37
6 -9 -5 41.57 3.26
-6 9 5 38.63 3.23
-6 9 5 32.59 9.54
6 -9 -5 40.68 7.67
6 -9 -5 36.21 2.99
6 -9 -5 42.9 3.53
6 -9 -4 60.8 3.06
6 -9 -4 65.88 3.13
6 -9 -4 68.54 4.18
-6 9 4 63.63 4.06
-6 9 4 52.21 10.92
6 -9 -4 70.59 10.14
6 -9 -4 64.06 3.96
6 -9 -4 72.17 4.91
6 -9 -3 0.45 0.41
6 -9 -3 0.75 0.49
6 -9 -3 0.28 0.64
6 -9 -3 0.39 0.72
-6 9 3 0.41 0.59
-6 9 3 1.16 2.52
6 -9 -3 3.36 3.01
6 -9 -3 0.38 0.63
6 -9 -3 4.63 0.92
6 -9 -2 11.51 1.28
6 -9 -2 11.94 1.31
6 -9 -2 11.3 2.14
6 -9 -2 15.43 2.02
-6 9 2 11 1.59
-6 9 2 11.5 5.08
6 -9 -2 12.02 1.59
6 -9 -2 11.96 1.41
6 -9 -1 3.89 0.76
6 -9 -1 3.74 0.78
6 -9 -1 3.19 1.11
6 -9 -1 5.52 1.26
-6 9 1 4.59 1.01
6 -9 -1 3.03 0.87
6 -9 -1 5.35 1.06
6 -9 0 5.38 0.87
6 -9 0 5.24 0.86
6 -9 0 5.32 1.42
6 -9 0 5.18 1.21
-6 9 0 4.9 2.39
6 -9 0 4.58 0.97
6 -9 0 6.67 1.26
6 -9 1 8.68 1.1
6 -9 1 9.16 1.89
6 -9 1 8.86 1.53
6 -9 1 7.41 0.98
6 -9 1 7.8 1.23
6 -9 1 9.15 1.36
-6 9 -1 9.23 0.55
6 -9 2 -0.24 0.41
6 -9 2 0.19 0.63
6 -9 2 0.51 0.46
6 -9 2 -0.54 0.69
6 -9 2 0.45 0.6
-6 9 -2 0.05 0.18
6 -9 2 0.19 0.54
6 -9 3 22.19 2.65
6 -9 3 23.14 1.73
6 -9 3 24.72 2.72
6 -9 3 23.69 2.34
6 -9 3 20.97 1.82
6 -9 3 24.99 2.94
-6 9 -3 22.53 0.91
6 -9 3 21.51 1.63
6 -9 4 0.49 0.56
6 -9 4 0.56 0.37
6 -9 4 1.53 0.9
6 -9 4 0.07 0.35
6 -9 4 0.03 0.69
6 -9 4 -0.16 0.98
-6 9 -4 0.37 0.22
6 -9 5 109.88 6.18
6 -9 5 121.85 4.37
6 -9 5 122.95 4.39
6 -9 5 105.93 6.05
6 -9 5 119.64 6.36
-6 9 -5 119.5 2.72
6 -9 5 114.3 5.72
6 -9 6 2.95 1.02
6 -9 6 4.94 0.88
6 -9 6 4.7 0.9
6 -9 6 5.7 1.4
6 -9 6 3.74 1.33
6 -9 6 4.22 1.29
-6 9 -6 5.09 0.45
6 -9 7 2.51 0.71
6 -9 7 3.25 0.76
6 -9 7 3.17 1.1
-6 9 -7 3.26 0.4
6 -9 8 16.69 1.54
6 -9 8 15.79 1.6
-6 9 -8 16.03 0.79
6 -9 8 13.88 2.08
-6 9 -9 92.31 2.27
6 -9 9 91.99 3.79
6 -9 9 96.14 4.13
6 -9 10 11.41 1.35
-6 9 -10 11.6 0.61
6 -9 10 10.94 1.24
6 -9 10 11.68 1.39
6 -9 11 28.06 1.89
6 -9 11 28.23 1.88
-6 9 -11 29.29 0.93
6 -9 11 29.39 2.13
6 -9 12 4.74 0.94
6 -9 12 5.35 0.72
6 -9 12 3.8 0.73
-6 9 -12 4.69 0.32
6 -9 13 0.23 0.44
6 -9 13 -0.24 0.33
6 -9 14 2.02 0.59
6 -9 14 1.42 0.41
6 -9 15 3.39 0.59
-6 9 -15 2.33 1.72
-6 8 14 22.97 1.63
6 -8 -13 0.64 0.29
-6 8 13 1.07 0.66
-6 8 13 1.08 0.3
6 -8 -13 0.65 0.34
6 -8 -12 1.23 0.39
-6 8 12 1.85 0.89
-6 8 12 0.4 1.62
6 -8 -12 0.78 0.52
6 -8 -11 8.72 0.88
-6 8 11 10.72 1.66
-6 8 11 10.83 5.29
6 -8 -11 12.24 1.66
-6 8 10 1.09 1.24
6 -8 -10 0.76 0.44
-6 8 10 -0.16 0.76
-6 8 10 -0.99 2.52
6 -8 -10 0.97 0.76
-6 8 9 12.27 2.45
6 -8 -9 15.83 1.48
-6 8 9 15.75 2.18
-6 8 9 12.96 5.77
6 -8 -9 17.6 2.1
-6 8 8 21.62 3.02
6 -8 -8 27.35 2.02
6 -8 -8 32.02 2.52
-6 8 8 26.45 2.87
-6 8 8 29.2 8.86
6 -8 -8 28.99 2.7
6 -8 -7 26.95 2.03
6 -8 -7 30.28 2.56
-6 8 7 29 2.83
-6 8 7 28.06 8.73
6 -8 -7 22.74 5.9
6 -8 -7 26.13 2.56
6 -8 -6 79.07 10.36
6 -8 -6 84.34 3.63
-6 8 6 83.87 14.29
6 -8 -6 90.13 4.56
-6 8 6 77 4.62
6 -8 -6 89.2 5.97
6 -8 -6 75.85 4.41
6 -8 -5 101.51 4.12
6 -8 -5 109.94 4.2
6 -8 -5 114.39 5.26
-6 8 5 101.92 5.14
6 -8 -5 108.87 6.7
-6 8 5 98.71 14.96
6 -8 -5 113.55 12.2
6 -8 -5 98.87 4.94
6 -8 -5 116.83 5.96
6 -8 -4 0.24 0.5
6 -8 -4 0.55 0.48
6 -8 -4 -0.44 0.79
6 -8 -4 0.38 0.71
-6 8 4 0.14 0.61
-6 8 4 -1.43 3.43
6 -8 -4 0.99 0.84
6 -8 -3 -0.23 0.43
6 -8 -3 1.56 0.57
6 -8 -3 0.48 0.57
6 -8 -3 2.05 0.75
-6 8 3 0.98 0.74
-6 8 3 0.2 2.92
6 -8 -3 2.19 0.7
6 -8 -2 9.83 1.9
6 -8 -1 14.29 2.27
6 -8 0 8.06 1.78
6 -8 1 -0.54 0.6
-6 8 -1 0.38 0.21
6 -8 2 1.51 0.91
-6 8 -2 2.05 0.29
6 -8 3 2.86 1.03
-6 8 -3 2.39 0.3
6 -8 4 55.17 2.6
6 -8 4 51.97 2.66
6 -8 4 53.24 3.53
6 -8 4 52.31 3.92
-6 8 -4 54.26 1.52
6 -8 4 49.39 4.07
6 -8 5 10.64 1.11
6 -8 5 11.67 1.24
6 -8 5 10.13 1.89
6 -8 5 9.62 1.87
6 -8 5 7.88 1.67
6 -8 5 8.98 1.48
-6 8 -5 11.58 0.62
6 -8 6 119.35 6.56
6 -8 6 112.58 5.64
6 -8 6 127.62 4.29
6 -8 6 123.73 4.5
6 -8 6 116.61 6.29
6 -8 6 114.59 6.05
-6 8 -6 128.99 2.84
6 -8 7 24.09 2.79
6 -8 7 23.7 1.73
6 -8 7 24.68 1.92
-6 8 -7 24.79 0.98
6 -8 7 21.02 2.44
6 -8 8 0.05 0.41
6 -8 8 0.41 0.4
-6 8 -8 0.07 0.2
6 -8 9 0.95 0.64
6 -8 9 1.14 0.54
-6 8 -9 1.07 0.27
6 -8 10 64.54 3.05
6 -8 10 59.38 2.85
6 -8 10 65.36 3.42
-6 8 -10 68.49 1.76
-6 8 -10 64.19 10.36
6 -8 11 38.36 2.12
6 -8 11 33.72 2.01
6 -8 11 36.32 2.48
-6 8 -11 38.43 1.15
6 -8 12 11.49 1.43
6 -8 12 11.22 1.31
-6 8 -12 10.48 0.51
6 -8 13 11.4 1.34
6 -8 13 10.75 1.16
6 -8 14 13.35 1.37
6 -8 14 12.33 1.12
6 -8 15 18.21 1.33
6 -8 15 15.26 1.01
-6 8 -15 16.06 4.57
6 -8 16 -0.26 0.25
-6 8 -16 -1.28 1.18
-6 7 15 1.49 0.45
-6 7 14 4.59 0.87
-6 7 14 4.52 0.59
-6 7 13 0.45 0.83
-6 7 13 0.96 1.4
-6 7 13 0.3 0.61
6 -7 -13 -0.27 0.44
-6 7 12 5.89 1.58
6 -7 -12 6.36 0.74
-6 7 12 6.81 1.37
-6 7 12 9.65 4.59
6 -7 -12 7.83 1.22
-6 7 11 0.89 1.04
6 -7 -11 1.11 0.46
-6 7 11 1.05 0.87
-6 7 11 1.36 2.53
6 -7 -11 0.96 0.58
-6 7 10 1.21 0.91
6 -7 -10 2.89 0.68
-6 7 10 1.93 1.03
-6 7 10 1.32 2.67
6 -7 -10 2.57 0.82
-6 7 9 11.07 2.16
6 -7 -9 13.26 1.45
-6 7 9 19.12 7.16
-6 7 9 13.73 2.14
6 -7 -9 15.09 1.97
-6 7 8 25.06 3.17
6 -7 -8 34.96 2.31
-6 7 8 31.08 2.95
-6 7 8 29.97 8.76
6 -7 -8 32.96 2.78
-6 7 7 110.85 6.61
6 -7 -7 146.57 5.05
6 -7 -7 159.53 5.72
-6 7 7 128.14 6.09
6 -7 -7 133.94 7.48
-6 7 7 142.6 18.5
6 -7 -7 138.66 5.91
-6 7 6 3.3 1.22
6 -7 -6 3.54 1.04
6 -7 -6 3.76 0.81
6 -7 -6 4.69 1.04
-6 7 6 3.84 1.02
-6 7 6 0.91 3.56
6 -7 -6 4.35 1.36
6 -7 -5 58.22 2.86
6 -7 -5 64.96 3.55
-6 7 5 59.08 3.63
6 -7 -5 63.64 5.06
6 -7 -5 64.63 4.21
-6 7 5 49.53 10.25
6 -7 -5 57.42 3.41
6 -7 -4 14.12 2.36
6 -7 -4 15.82 2.15
6 -7 -3 0.06 0.59
6 -7 -2 18.49 2.49
6 -7 -1 30.96 3.25
6 -7 0 35.5 3.43
-6 7 0 32.05 1
6 -7 1 2.41 0.75
-6 7 -1 2.48 0.28
6 -7 2 6.42 1.51
6 -7 2 8.28 1.77
-6 7 -2 7.76 0.49
6 -7 3 25.06 2.9
6 -7 3 22.8 2.85
-6 7 -3 24.5 0.89
6 -7 4 220.88 9.6
6 -7 4 205.13 8.77
-6 7 -4 210.43 4.17
6 -7 5 11.27 1.94
6 -7 5 13.23 2.24
-6 7 -5 12.49 0.64
6 -7 6 62.41 4.69
6 -7 6 69.52 5.14
6 -7 6 60.58 2.71
6 -7 6 67.35 3.05
6 -7 6 56.58 4.2
6 -7 6 58.15 4.24
6 -7 6 61.13 3.9
-6 7 -6 64.68 1.72
-6 7 -6 65.86 10.79
6 -7 7 15.29 1.27
6 -7 7 13.54 1.41
6 -7 7 14.34 2.16
6 -7 7 13.25 1.94
-6 7 -7 14.47 0.72
6 -7 7 14.34 2.01
6 -7 8 -0.13 0.64
6 -7 8 1.21 0.63
6 -7 8 0.07 0.34
6 -7 8 -0.89 0.79
-6 7 -8 0.08 0.2
6 -7 9 46.8 2.36
6 -7 9 50.04 2.9
-6 7 -9 45.25 1.42
6 -7 10 44.62 2.31
6 -7 10 48.22 2.9
-6 7 -10 51.51 1.47
-6 7 -10 55.94 9.93
6 -7 11 43.3 2.15
6 -7 11 46.62 2.84
-6 7 -11 46.17 1.33
6 -7 12 12.56 1.47
-6 7 -12 11.12 0.53
6 -7 12 11.95 1.49
6 -7 13 86.21 3.84
-6 7 -13 78.73 1.73
6 -7 13 82.26 3.61
6 -7 14 2.41 0.67
6 -7 14 2.69 0.61
6 -7 15 91.76 3.33
6 -7 15 85.48 3.01
-6 7 -15 95.01 11.5
6 -7 16 18.4 1.11
-6 7 -16 19.31 4.17
6 -6 -15 0.08 0.2
-6 6 15 -0.19 0.44
-6 6 15 0.12 0.25
-6 6 14 5.5 1.37
-6 6 14 9.15 0.97
-6 6 14 8.43 1.25
-6 6 13 17.29 2.42
6 -6 -13 17.33 1.23
-6 6 13 24.87 2.28
-6 6 13 23.11 5.46
6 -6 -13 28.42 1.87
-6 6 12 13.69 2.36
6 -6 -12 14.63 1.38
-6 6 12 19.82 2.28
-6 6 12 21.25 6.03
6 -6 -12 19.75 1.86
-6 6 11 1.52 1.23
6 -6 -11 0.63 0.37
-6 6 11 -0.77 0.88
-6 6 11 1.34 2.26
6 -6 -11 -0.5 0.68
-6 6 10 6.13 1.76
6 -6 -10 8.32 1.17
-6 6 10 8.3 1.59
-6 6 10 6.04 3.52
6 -6 -10 7.96 1.37
-6 6 9 44.25 4.16
6 -6 -9 56.69 3.11
-6 6 9 59.09 3.97
-6 6 9 52.98 11.15
6 -6 -9 60.49 3.68
-6 6 8 184.13 8.73
6 -6 -8 221.71 6.59
-6 6 8 199.39 7.78
6 -6 -8 224.16 9.65
-6 6 8 208.07 21.6
6 -6 -8 211.08 7.36
-6 6 7 12.4 2.18
6 -6 -7 12.29 1.35
-6 6 7 15.75 1.95
-6 6 7 14.85 5.72
6 -6 -7 14.11 2.44
6 -6 -7 13.55 1.7
-6 6 6 44.66 3.74
6 -6 -6 59.15 2.89
-6 6 6 57.63 3.51
6 -6 -6 59.51 4.76
-6 6 6 60.52 10.6
6 -6 -6 56.25 3.3
6 -6 -5 4.43 1.13
6 -6 -5 6.45 1.61
6 -6 -4 0.13 0.58
6 -6 -4 -0.71 0.94
6 -6 -3 14.21 2.03
6 -6 -2 37.37 3.34
6 -6 -1 12.24 1.95
6 -6 0 342.65 11.2
6 -6 0 327.62 10.98
-6 6 0 317.42 5.79
6 -6 1 3.12 1.09
-6 6 -1 1.46 0.22
6 -6 2 1.53 0.91
-6 6 -2 0.59 0.19
-6 6 -3 4.65 0.37
6 -6 3 4.38 1.35
6 -6 4 2.06 1.09
-6 6 -4 1.08 0.24
-6 6 -5 68.66 1.75
6 -6 5 66.84 5.02
6 -6 6 30.34 3.15
6 -6 6 33.85 3.56
-6 6 -6 32.59 1.09
6 -6 7 3.38 1.09
6 -6 7 5.45 0.88
6 -6 7 4.59 0.67
6 -6 7 4.65 1.33
6 -6 7 4.19 1.13
-6 6 -7 5.1 0.44
6 -6 8 2.35 0.85
6 -6 8 3.36 0.74
6 -6 8 3.49 0.59
6 -6 8 4.49 1.37
-6 6 -8 2.99 0.35
6 -6 9 16.4 1.27
6 -6 9 14.77 1.53
6 -6 9 17.7 2.26
-6 6 -9 16.43 0.78
6 -6 10 16.18 1.7
-6 6 -10 17.94 0.79
-6 6 -10 17.88 6.6
6 -6 11 3.51 0.9
6 -6 11 3.09 0.81
-6 6 -11 5.09 3.57
-6 6 -11 4.21 0.39
6 -6 12 107.1 4.55
-6 6 -12 98.07 13.2
6 -6 12 103.57 4.48
-6 6 -12 102.13 2.27
6 -6 13 112.86 4.48
6 -6 13 115.54 4.54
-6 6 -13 106.82 2.25
6 -6 14 8.26 1.12
6 -6 14 9.95 1.22
-6 6 -14 7.23 3.8
6 -6 15 22.26 1.57
6 -6 15 21.52 1.54
-6 6 -15 21.57 5.67
6 -6 16 24.56 1.31
6 -6 16 22.92 1.23
-6 6 -16 25.33 5.1
6 -5 -16 1.05 0.27
-6 5 16 1.3 0.36
-6 5 16 2.15 0.37
-6 5 15 4.78 1.15
-6 5 15 8.45 0.91
-6 5 15 6.48 1.01
-6 5 14 5.64 1.46
6 -5 -14 3.94 0.59
-6 5 14 6.62 1.21
-6 5 14 7.06 1
-6 5 13 25.82 2.99
6 -5 -13 19.89 1.6
-6 5 13 25.64 2.44
-6 5 12 13.45 2.35
6 -5 -12 12.78 1.38
-6 5 12 18.12 5.76
-6 5 12 13.68 1.9
6 -5 -12 17.23 1.65
-6 5 11 24.15 3.19
-6 5 11 29.7 2.79
-6 5 11 23.9 6.66
6 -5 -11 33.53 2.5
-6 5 10 0.33 0.89
-6 5 10 -0.16 0.68
-6 5 10 -0.57 2.95
6 -5 -10 0.37 0.62
-6 5 9 198.45 8.89
-6 5 9 220.14 8.04
6 -5 -9 231.64 9.92
-6 5 9 222 21.55
6 -5 -9 223.93 7.32
-6 5 8 12.88 2.16
-6 5 8 10.75 1.58
-6 5 8 9.59 2.18
-6 5 8 8.98 4.27
6 -5 -8 8.31 1.84
6 -5 -8 11.19 1.47
-6 5 7 71.96 4.72
-6 5 7 78.97 4.12
6 -5 -7 93.57 5.97
-6 5 7 81.47 12.36
6 -5 -7 86.86 4.09
6 -5 -6 137.95 7.33
6 -5 -5 260.07 10.41
6 -5 -5 290.45 9.15
6 -5 -4 1.25 0.78
6 -5 -4 0.71 0.71
6 -5 -3 86.17 4.85
6 -5 -3 82.01 5.29
6 -5 -2 104.83 5.51
6 -5 -2 104.26 5.23
6 -5 -1 3.57 1.1
-6 5 1 2.14 0.23
-6 5 0 217.32 6.9
-6 5 0 201.19 3.79
6 -5 0 223.01 8.45
-6 5 -1 351.24 6.28
6 -5 1 381.43 12.07
6 -5 2 8.09 1.7
-6 5 -2 6.98 0.41
6 -5 3 102.75 5.98
-6 5 -3 95.6 2.11
6 -5 4 1.99 1.06
-6 5 -4 1.23 0.22
-6 5 -5 54.38 1.46
6 -5 5 57.94 4.63
-6 5 -6 29.94 1.04
6 -5 6 35.49 3.62
6 -5 7 15.11 1.37
6 -5 7 12.07 2.04
6 -5 7 13.86 2.24
-6 5 -7 14.22 0.7
6 -5 8 0.49 0.64
6 -5 8 -0.1 0.5
6 -5 8 0.04 0.35
6 -5 8 0.56 0.41
-6 5 -8 0.02 0.19
6 -5 9 161.46 7.04
6 -5 9 164.21 7.55
-6 5 -9 170.69 3.6
6 -5 9 170.66 5.7
6 -5 9 184.78 5.39
-6 5 -9 158.47 17.94
6 -5 10 40.66 2.62
6 -5 10 45.56 2.44
-6 5 -10 42.98 1.33
6 -5 11 124.08 4.89
6 -5 11 117.55 4.73
6 -5 11 117.8 4.26
-6 5 -11 117.57 2.65
-6 5 -11 122.6 16.5
6 -5 12 60.01 3.24
6 -5 12 57.57 3.3
6 -5 12 53.02 2.69
-6 5 -12 53.05 1.44
-6 5 -12 51.5 10.63
6 -5 13 19.93 1.79
-6 5 -13 16.65 0.64
6 -5 13 20.55 1.86
6 -5 13 15.98 1.39
6 -5 14 67.55 3.15
6 -5 14 68.78 3.32
6 -5 14 61.34 2.57
-6 5 -14 73.59 11.99
6 -5 15 42.61 2.16
6 -5 15 39.02 2.19
6 -5 15 35.7 1.63
-6 5 -15 35.48 7.58
6 -5 16 3.74 0.54
6 -5 16 3.6 0.59
-6 4 16 4.27 0.58
-6 4 16 5.13 0.65
-6 4 16 3 0.88
-6 4 15 19.42 2.2
-6 4 15 20.23 1.7
-6 4 14 9.21 1.79
6 -4 -14 6.33 0.89
-6 4 14 10.52 1.29
-6 4 14 8.48 1.35
-6 4 13 36.22 3.56
-6 4 13 37.58 2.99
-6 4 12 0.37 0.99
-6 4 12 0.52 0.72
-6 4 11 7.83 1.92
-6 4 11 11.52 1.73
-6 4 11 6.96 2.67
-6 4 10 8.37 1.91
-6 4 10 9.86 1.6
-6 4 10 14.8 6.22
6 -4 -10 11.19 1.4
-6 4 9 32.1 3.33
-6 4 9 37.01 2.94
-6 4 9 51.56 4.84
6 -4 -9 45.76 4.08
-6 4 9 43.88 9.15
6 -4 -9 43.86 2.82
-6 4 8 16.25 2.31
-6 4 8 17.91 1.86
-6 4 8 23.5 3.33
6 -4 -8 21.36 2.79
-6 4 8 14.24 5.34
6 -4 -8 19.5 1.83
-6 4 7 18.81 2.87
6 -4 -7 16.87 2.5
6 -4 -6 33.19 3.34
6 -4 -5 71.94 4.91
6 -4 -5 81.25 4.25
6 -4 -4 11.25 1.65
6 -4 -4 13.1 2
6 -4 -4 11.51 0.4
6 -4 -3 -0.06 0.65
6 -4 -3 0.64 0.45
6 -4 -3 0.82 0.61
6 -4 -2 4.18 1.04
-6 4 2 6.22 1.33
-6 4 2 4.84 0.27
6 -4 -1 0.72 0.68
-6 4 1 0.98 0.66
-6 4 1 0.51 0.15
-6 4 0 46.15 2.83
6 -4 0 48.27 3.69
-6 4 0 44.22 1.07
6 -4 1 68.23 4.58
-6 4 -1 64.4 1.45
-6 4 -2 228.76 4.24
6 -4 2 238.52 9.22
6 -4 3 3.89 1.33
-6 4 -3 3.34 0.29
6 -4 4 3.48 1.32
-6 4 -4 3.13 0.3
-6 4 -5 17.06 0.71
6 -4 5 17.33 2.56
6 -4 6 20 2.76
-6 4 -6 16.51 0.72
6 -4 7 11.95 1.89
-6 4 -7 12.09 0.62
6 -4 7 12.56 2.16
6 -4 8 127.34 5.91
6 -4 8 134.72 4.59
6 -4 8 136.03 4.57
-6 4 -8 139.39 2.99
6 -4 8 131.6 6.87
6 -4 9 66.13 4.06
-6 4 -9 64.57 11.74
6 -4 9 70.39 3.29
6 -4 9 72.44 3.21
-6 4 -9 74.18 1.88
6 -4 9 64.08 4.53
6 -4 10 147.34 5.27
6 -4 10 162.97 5.29
-6 4 -10 156.6 3.32
-6 4 -10 154.02 18.72
6 -4 11 44.51 2.71
6 -4 11 41.09 2.62
6 -4 11 45.13 2.64
-6 4 -11 44.66 1.33
6 -4 12 0.37 0.44
6 -4 12 0.6 0.68
6 -4 12 -0.24 0.42
-6 4 -12 1.04 0.22
6 -4 13 8.85 1.19
6 -4 13 9.38 1.35
6 -4 13 9.2 1.14
-6 4 -13 8.82 0.46
6 -4 14 2.21 0.62
6 -4 14 1.84 0.71
6 -4 14 1.28 0.44
6 -4 15 0.34 0.36
6 -4 15 0.03 0.42
6 -4 15 0.28 0.32
-6 4 -15 1.2 1.64
6 -4 16 58.7 2
6 -4 16 64.28 2.53
6 -4 16 52.9 1.79
-6 4 -16 68.52 8.58
-6 3 17 5.1 0.53
-6 3 16 40.33 2.78
-6 3 16 39.27 1.81
-6 3 15 24.8 2.55
6 -3 -15 17.71 1.36
-6 3 15 24.33 1.89
-6 3 14 4.71 1.43
-6 3 14 4.85 1.03
-6 3 14 6.16 1.06
-6 3 13 10.91 2.1
-6 3 13 10.13 1.56
-6 3 12 24.37 3.05
-6 3 12 25.64 2.46
-6 3 11 0.07 0.77
-6 3 11 0.95 0.9
-6 3 10 0.44 0.98
-6 3 10 0.36 0.58
-6 3 10 -0.75 0.75
6 -3 -10 -0.25 0.73
-6 3 9 24.42 2.65
-6 3 9 23.57 2.23
-6 3 9 28.83 3.61
6 -3 -9 23.44 2.86
-6 3 9 30.09 7.44
-6 3 8 78.66 4.53
-6 3 8 74.92 3.85
6 -3 -8 88.54 5.57
-6 3 7 86.18 6.13
6 -3 -7 78.23 5.15
6 -3 -7 75.92 1.58
6 -3 -6 13.99 2.15
-6 3 6 13.71 2.29
6 -3 -6 14.47 0.5
-6 3 5 55.22 4.5
6 -3 -5 48.74 3.82
6 -3 -5 55.32 3.24
6 -3 -5 50.07 1.15
6 -3 -4 4.85 0.9
6 -3 -4 4.68 1.06
-6 3 4 4.46 1.31
6 -3 -4 5.36 1.31
6 -3 -4 5.75 0.3
6 -3 -3 -0.29 0.51
-6 3 3 -0.28 0.6
6 -3 -3 0.16 0.55
6 -3 -3 0.26 0.12
-6 3 2 123.23 5.73
6 -3 -2 112.69 5.34
-6 3 2 110.82 2.09
-6 3 1 34.32 2.7
6 -3 -1 32.45 2.95
-6 3 1 32.58 0.8
-6 3 0 32.46 2.34
6 -3 0 35.99 3.17
-6 3 0 33.37 0.85
6 -3 1 49.67 3.87
-6 3 -1 46.54 1.11
6 -3 2 68.79 4.7
-6 3 -2 71.3 1.58
-6 3 -3 243.57 4.5
6 -3 3 265.1 9.99
6 -3 4 19.03 2.59
-6 3 -4 17.5 0.67
6 -3 5 171.33 8.22
-6 3 -5 166.18 3.33
6 -3 6 14.49 2.3
-6 3 -6 13.78 0.64
6 -3 7 44.59 3.37
6 -3 7 42.89 3.99
-6 3 -7 50.29 1.41
6 -3 8 5.24 1.14
6 -3 8 4.2 0.77
6 -3 8 5.33 0.89
-6 3 -8 4.48 0.41
6 -3 8 3.44 1.14
-6 3 -9 82.69 2.03
6 -3 9 75.74 3.34
6 -3 9 82.76 3.56
6 -3 9 79.08 5.02
-6 3 -9 82.95 13.45
6 -3 10 3.96 0.81
6 -3 10 3.02 0.77
-6 3 -10 3.13 0.37
6 -3 10 3.86 0.88
-6 3 -10 4.61 4.82
6 -3 11 4.57 0.82
-6 3 -11 5.08 0.41
6 -3 11 5.79 1.02
6 -3 11 5.42 0.97
-6 3 -11 6.24 6.02
6 -3 12 9.49 1.43
6 -3 12 7.94 1.19
-6 3 -12 8.74 1.21
6 -3 12 7.14 1.04
-6 3 -12 7 0.47
6 -3 13 47.14 2.61
-6 3 -13 45.04 2.48
-6 3 -13 43.51 1.19
6 -3 13 47.44 2.97
6 -3 13 45.53 2.69
-6 3 -13 41.58 9.69
6 -3 14 7.03 0.96
6 -3 14 7.38 1.15
6 -3 14 7.86 1.02
6 -3 15 1.03 0.41
6 -3 15 1.59 0.63
6 -3 15 0.41 0.3
-6 3 -15 3.11 2.92
6 -3 16 5.41 0.75
6 -3 16 4.78 0.56
-6 3 -16 3.7 2.31
-6 2 17 1.81 0.64
-6 2 17 3.65 0.53
-6 2 16 36.66 2.72
6 -2 -16 19.35 1.17
-6 2 15 21.77 2.46
-6 2 15 22.32 1.71
-6 2 14 25.87 2.92
-6 2 14 22.11 2
-6 2 13 1.25 1
-6 2 13 -0.02 0.65
-6 2 13 0.45 0.51
-6 2 12 24.82 3.01
-6 2 12 25.14 2.34
-6 2 11 -0.82 1.07
-6 2 11 -0.27 0.54
-6 2 11 0.51 0.47
-6 2 10 15.17 2.18
-6 2 10 14.78 1.69
-6 2 10 14.47 2.52
6 -2 -10 16.15 2.35
-6 2 10 19.13 1.73
-6 2 9 18.21 2.5
-6 2 9 14.07 1.64
-6 2 9 17.09 2.93
6 -2 -9 13.55 2.14
-6 2 9 15.72 1.49
-6 2 8 11.97 2.39
6 -2 -8 14.15 2.22
-6 2 7 3.21 1.23
6 -2 -7 2.89 1.02
-6 2 6 19.34 2.81
6 -2 -6 15.73 2.15
6 -2 -6 16.96 0.59
6 -2 -5 1.5 0.62
-6 2 5 0.92 0.58
6 -2 -5 1.79 0.19
6 -2 -5 1.71 0.67
-6 2 4 13.04 2.12
6 -2 -4 14.23 1.84
6 -2 -4 14.36 1.49
6 -2 -4 13.64 0.5
-6 2 3 96.98 5.37
6 -2 -3 94.39 4.8
6 -2 -3 96.8 4.54
6 -2 -3 89.57 1.85
6 -2 -2 299.95 5.31
-6 2 2 310.27 9.8
6 -2 -2 295.33 9.44
-6 2 1 0.43 0.63
-6 2 1 0.19 0.1
6 -2 -1 -0.63 0.62
-6 2 0 26.51 2.13
6 -2 0 26.73 2.74
-6 2 0 25.88 0.69
-6 2 -1 20.36 1.62
6 -2 1 18.13 2.47
-6 2 -1 17.49 0.57
6 -2 2 171.23 7.66
-6 2 -2 155.81 2.98
6 -2 3 21.38 2.7
-6 2 -3 20.97 0.7
-6 2 -4 3.87 0.31
6 -2 4 5.52 1.63
-6 2 -5 0.13 0.17
6 -2 5 0.23 0.8
6 -2 6 125.71 7.14
-6 2 -6 140.15 2.92
6 -2 7 7.35 1.25
6 -2 7 7.04 1.67
-6 2 -7 8.39 0.51
6 -2 8 27.96 1.79
-6 2 -8 27.55 7.32
6 -2 8 26.67 1.91
6 -2 8 28.84 3.12
-6 2 -8 28.39 0.99
6 -2 9 24.39 1.68
6 -2 9 23.25 1.7
6 -2 9 23.45 1.91
-6 2 -9 22.89 0.9
-6 2 -9 18.57 2.53
6 -2 9 17.73 2.38
-6 2 -9 19.09 6.7
6 -2 10 42.76 2.35
6 -2 10 38.62 2.31
-6 2 -10 36.32 9.52
6 -2 10 41.2 2.66
-6 2 -10 36.65 3.4
-6 2 -10 37.93 1.25
6 -2 11 38.81 2.26
6 -2 11 40.7 2.78
6 -2 11 38.79 2.6
-6 2 -11 32.98 9.15
-6 2 -11 35.45 1.17
6 -2 12 70.88 3.12
6 -2 12 71.77 3.79
6 -2 12 67.66 3.53
-6 2 -12 64.31 1.69
-6 2 -12 63.56 12.32
-6 2 -12 64.82 3.56
6 -2 13 41.72 2.27
6 -2 13 42.71 2.85
6 -2 13 42.96 2.68
-6 2 -13 41.41 1.15
-6 2 -13 41.23 9.5
-6 2 -13 38.94 2.52
6 -2 14 7.53 0.87
6 -2 14 5.36 0.98
6 -2 14 7.24 1.07
-6 2 -14 8.86 4.59
-6 2 -14 7.36 0.95
6 -2 15 10.88 1.24
6 -2 15 9.68 1.07
-6 2 -15 8.87 3.69
6 -2 16 0.52 0.34
6 -2 16 0.12 0.25
-6 2 -16 1.83 1.8
-6 1 17 1.22 0.6
6 -1 -17 0.48 0.34
-6 1 16 6.97 1.32
-6 1 16 11.28 1.2
-6 1 15 0.34 0.71
-6 1 15 0.38 0.52
-6 1 14 42.7 3.7
-6 1 14 55.38 3.2
-6 1 14 42.07 2.55
-6 1 14 53.51 2.58
-6 1 13 -0.2 0.71
-6 1 13 0.38 0.56
-6 1 13 0.17 0.61
-6 1 13 -0.24 0.47
-6 1 12 5.1 1.44
-6 1 12 5.45 1.05
-6 1 12 7.09 1.23
-6 1 12 7.75 1.24
-6 1 11 32.71 3.03
-6 1 11 31.43 2.39
-6 1 11 35.5 2.39
-6 1 10 204.69 7.7
-6 1 10 194.81 6.44
-6 1 10 240.26 10.7
6 -1 -10 214.46 8.9
-6 1 10 226.15 6.77
-6 1 9 1.16 0.58
-6 1 9 2.56 1.15
6 -1 -9 0.83 0.75
-6 1 9 2.08 0.71
-6 1 8 39.48 4.15
6 -1 -8 34.13 3.19
-6 1 7 2.14 1.08
6 -1 -7 2.58 0.97
-6 1 6 16.21 2.51
6 -1 -6 14.53 1.93
-6 1 5 33.14 3.37
6 -1 -5 32.18 2.73
6 -1 -5 30.98 0.87
6 -1 -4 9.44 1.21
-6 1 4 12.71 2.06
6 -1 -4 9.48 1.44
6 -1 -4 9.74 0.43
6 -1 -3 13.03 1.65
-6 1 3 10.96 1.75
6 -1 -3 11.78 0.48
6 -1 -3 11.12 1.54
6 -1 -2 16.27 1.98
6 -1 -2 17.47 0.61
6 -1 -1 314.1 10.22
-6 1 1 317.13 9.53
6 -1 -1 320.36 5.64
6 -1 0 0.65 0.67
-6 1 0 0.7 0.56
-6 1 0 0.25 0.11
6 -1 1 89.61 5.45
-6 1 -1 97.06 3.87
-6 1 -1 87.32 1.76
6 -1 2 5.1 1.41
-6 1 -2 4.56 0.29
6 -1 3 8.29 1.96
-6 1 -3 8.53 0.42
6 -1 4 170.6 8.18
-6 1 -4 173.7 3.36
-6 1 -5 57.25 1.43
6 -1 5 50.64 4.4
-6 1 -6 31.41 1
6 -1 6 30.4 3.48
-6 1 -7 26.04 0.93
6 -1 7 26.9 3.2
6 -1 8 4.85 1.28
6 -1 8 5.01 0.74
6 -1 8 6.19 0.97
-6 1 -8 5.81 0.44
-6 1 -8 5.22 1.25
6 -1 9 3.84 0.68
6 -1 9 3.26 0.82
-6 1 -9 3.86 0.39
-6 1 -9 3.75 1.09
6 -1 10 38.03 2.18
-6 1 -10 40.62 10.14
6 -1 10 43.46 2.78
6 -1 10 40.19 2.67
-6 1 -10 38.69 1.24
6 -1 11 41.01 2.83
6 -1 11 37.93 2.66
-6 1 -11 37.8 9.45
-6 1 -11 36.81 1.2
-6 1 -11 31.83 8.91
-6 1 -12 31.01 1.03
-6 1 -12 33.48 2.61
6 -1 12 28.34 2.14
6 -1 12 33.22 2.56
6 -1 12 34.89 2.51
-6 1 -12 26.48 7.89
6 -1 13 0.22 0.39
6 -1 13 0.44 0.66
6 -1 13 0.82 0.62
-6 1 -13 -0.97 2.42
-6 1 -13 -0.21 0.14
-6 1 -13 -0.39 0.45
6 -1 14 10.58 1.41
6 -1 14 9.12 1.16
-6 1 -14 10.88 1.21
-6 1 -14 6.08 4
6 -1 15 1.36 0.51
6 -1 15 0.48 0.38
-6 1 -15 -0.02 1.45
6 -1 16 0.5 0.39
6 -1 16 0.23 0.25
-6 1 -16 0.32 1.18
-6 0 17 1.87 0.47
-6 0 17 0.94 0.54
-6 0 16 17.07 1.97
-6 0 16 28.88 1.96
-6 0 15 0.29 0.72
-6 0 15 0.83 0.5
-6 0 15 0.47 0.43
-6 0 14 0.87 0.7
-6 0 14 1.85 0.7
-6 0 14 1.72 0.69
-6 0 13 17.9 1.93
-6 0 13 19.2 1.81
-6 0 12 15.82 2.15
-6 0 12 20.89 2.11
-6 0 12 21.19 1.95
-6 0 11 190.62 7.51
-6 0 11 208.38 6.97
-6 0 11 213.52 6.79
-6 0 10 0.12 0.61
-6 0 10 0.78 0.7
-6 0 10 0.04 0.7
6 0 -10 0.62 0.78
-6 0 10 0.57 0.63
-6 0 9 256.05 7.36
-6 0 9 288.46 11.85
6 0 -9 266.51 9.43
-6 0 9 269.74 7.64
6 0 -8 17.24 2.08
-6 0 8 16.19 2.69
-6 0 7 20.33 2.88
6 0 -7 17.23 2.04
-6 0 6 88.48 5.83
6 0 -6 85.44 4.42
-6 0 5 156.86 7.53
6 0 -5 151.24 5.8
6 0 -5 141.65 2.8
6 0 -4 19.25 1.86
-6 0 4 18.09 2.37
6 0 -4 21.98 1.96
6 0 -4 19.41 0.65
6 0 -3 13.67 1.7
-6 0 3 11.99 1.85
6 0 -3 12.39 1.43
6 0 -3 12.09 0.5
6 0 -2 521.87 13.76
-6 0 2 541.4 14.05
6 0 -2 511.6 8.83
6 0 -1 3.57 1.16
-6 0 1 3.27 0.94
6 0 -1 4.16 0.28
6 0 0 1.99 1.05
-6 0 0 1.33 0.53
-6 0 0 1.66 0.15
6 0 1 452.45 14
-6 0 -1 480.96 11.39
-6 0 -1 470.53 8.02
6 0 2 2.66 1.07
-6 0 -2 2.57 0.61
-6 0 -2 3.77 0.26
6 0 3 1378.72 31.54
-6 0 -3 1411.1 23.51
-6 0 -4 1021.14 17.2
6 0 4 983 24.96
6 0 5 117.23 6.92
-6 0 -5 128.54 2.64
6 0 6 0.73 0.68
-6 0 -6 -0.08 0.15
-6 0 -7 27.95 0.97
6 0 7 25.09 3.08
-6 0 -7 28.76 2.65
6 0 8 1.46 0.56
-6 0 -8 1.63 0.27
6 0 8 0.59 0.69
-6 0 -8 0.22 2.31
-6 0 -9 155.11 16.61
-6 0 -9 150.2 18.53
6 0 9 166.44 5.7
-6 0 -9 152.45 3.28
-6 0 -10 119.19 2.72
6 0 10 135.07 5.2
6 0 10 126 5.03
-6 0 -10 122.89 16.07
-6 0 -10 114.64 17.15
-6 0 -11 13.88 5.22
6 0 11 15.18 1.67
6 0 11 13.38 1.62
-6 0 -11 13.49 0.68
-6 0 -11 12.5 1.65
6 0 12 0.71 0.62
6 0 12 0.8 0.61
6 0 12 0.13 0.53
-6 0 -12 0.66 0.19
-6 0 -12 0.3 0.6
6 0 13 3.3 0.86
6 0 13 3.43 0.89
6 0 13 2.57 0.81
-6 0 -13 1.01 2.58
-6 0 -13 3.08 0.28
-6 0 -13 2.88 0.84
6 0 14 13.4 1.26
6 0 14 17.4 1.65
6 0 14 14.51 1.49
-6 0 -14 16.74 1.53
6 0 15 1.59 0.54
6 0 15 1.93 0.55
-6 0 -15 1.55 1.7
-6 0 -15 2.75 0.54
6 0 16 7.55 0.8
6 0 16 7.48 0.73
-6 0 -16 8.64 2.9
-6 -1 17 2.76 0.71
-6 -1 17 4.5 0.68
-6 -1 16 15.35 1.44
-6 -1 16 17.21 1.27
-6 -1 15 3.14 1.08
-6 -1 15 4.05 0.81
-6 -1 15 3.91 0.89
-6 -1 14 7.45 1.27
-6 -1 14 6.12 1.07
-6 -1 13 79.16 4.1
-6 -1 13 82.48 3.99
-6 -1 12 0.71 0.73
-6 -1 12 -0.18 0.52
-6 -1 12 0.12 0.57
-6 -1 11 83.06 4.41
-6 -1 11 93.77 6.49
-6 -1 11 94.67 4.44
-6 -1 11 99.61 4.47
-6 -1 10 41.44 2.91
-6 -1 10 49.82 2.97
-6 -1 10 49.12 4.65
-6 -1 10 45.99 2.87
-6 -1 9 46.63 2.66
-6 -1 9 43.65 4.36
6 1 -9 40.92 3.22
-6 -1 9 43.35 2.66
-6 -1 9 47.82 2.62
-6 -1 8 62.84 5.15
6 1 -8 58.64 3.7
-6 -1 7 122.16 7.15
6 1 -7 120.38 5.15
-6 -1 6 97.69 6.1
6 1 -6 90.69 4.2
-6 -1 5 133.7 7
6 1 -5 132.85 4.94
6 1 -4 1.32 0.76
-6 -1 4 0.8 0.77
6 1 -4 0.4 0.3
6 1 -4 0.36 0.13
6 1 -3 37.35 2.92
-6 -1 3 42.38 3.52
6 1 -3 39.19 1.03
6 1 -2 14.98 1.96
-6 -1 2 16.3 2.13
6 1 -2 14.26 0.54
6 1 -1 7.57 1.56
-6 -1 1 6.98 1.33
6 1 -1 7.12 0.37
-6 -1 0 353.15 10.19
-6 -1 0 364.42 6.19
6 1 1 158.44 7.61
-6 -1 -1 162.76 5.92
-6 -1 -1 167.23 3.03
6 1 2 1052.36 26
-6 -1 -2 1099.18 18.39
6 1 3 1463.68 34.11
-6 -1 -3 1549.24 25.73
6 1 4 31.21 3.5
-6 -1 -4 34.39 0.98
6 1 5 147.83 7.92
-6 -1 -5 152.54 3.06
6 1 6 138.96 7.8
-6 -1 -6 158.68 3.21
-6 -1 -7 4.7 3.89
6 1 7 4.92 1.48
-6 -1 -7 5.6 0.43
6 1 7 5.29 0.89
6 1 8 29.56 3.29
6 1 8 34.79 2.33
-6 -1 -8 38.34 7.98
-6 -1 -8 31.68 1.08
-6 -1 -8 28.71 7.8
-6 -1 -9 -1.4 2.72
6 1 9 0.76 0.53
6 1 9 0.83 0.46
-6 -1 -9 -1.5 2.2
-6 -1 -9 0.99 0.23
6 1 10 1.72 0.71
6 1 10 1.67 0.74
-6 -1 -10 -0.55 2.97
-6 -1 -10 1.58 0.3
6 1 11 20.68 1.97
6 1 11 19.22 1.87
-6 -1 -11 17.57 2.02
-6 -1 -11 17.98 0.77
-6 -1 -11 17.02 6.23
6 1 12 1.56 0.81
6 1 12 2.48 0.86
6 1 12 2.2 0.73
-6 -1 -12 1.56 0.25
-6 -1 -12 1.62 0.68
6 1 13 7.77 1.19
6 1 13 8.68 1.24
6 1 13 8.34 1.19
-6 -1 -13 9.17 4.56
-6 -1 -13 8.08 0.43
-6 -1 -13 8.74 1.3
-6 -1 -14 65.86 10.19
6 1 14 65.06 3.07
6 1 14 78.04 3.49
6 1 14 77.59 3.35
-6 -1 -14 79.17 3.46
6 1 15 5.91 0.69
6 1 15 7.67 0.99
6 1 15 6.72 0.86
-6 -1 -15 6.13 2.54
-6 -1 -15 7.68 0.82
6 1 16 8.02 0.71
6 1 16 9.59 0.74
-6 -2 17 6.57 0.8
-6 -2 17 6.62 0.68
-6 -2 16 28.41 1.97
-6 -2 16 31.43 1.92
-6 -2 15 0.31 0.53
-6 -2 15 0.9 0.61
-6 -2 15 -0.39 0.57
-6 -2 14 2.64 0.9
-6 -2 14 2.34 0.79
-6 -2 14 3.39 0.86
-6 -2 13 18.48 2.22
-6 -2 13 21.73 2.14
-6 -2 13 22.42 2.1
-6 -2 12 15.54 1.93
-6 -2 12 19.57 2.02
-6 -2 12 20.11 2.03
-6 -2 11 66.95 3.83
-6 -2 11 79.68 5.91
-6 -2 11 81.17 4.05
-6 -2 11 76.04 3.96
-6 -2 11 80.67 3.75
-6 -2 10 9.66 1.02
-6 -2 10 8 1.18
-6 -2 10 8.29 1.26
-6 -2 10 9.12 2.07
-6 -2 10 10.06 1.42
-6 -2 9 35.54 3.99
-6 -2 9 35.63 2.34
-6 -2 9 33.02 2.34
-6 -2 9 34.64 2.35
-6 -2 8 3.28 1.26
-6 -2 7 33.27 3.67
-6 -2 6 20.5 2.82
-6 -2 5 20.85 2.73
6 2 -4 485.48 12.58
-6 -2 4 498.57 14.63
6 2 -4 471.82 8.26
6 2 -3 66.07 4.12
-6 -2 3 69.36 4.57
6 2 -3 65.59 1.5
6 2 -2 5.33 1.38
-6 -2 2 3.49 1.02
6 2 -2 4.72 0.32
6 2 -1 502.53 14.77
-6 -2 1 530.86 14.03
6 2 -1 522.74 9.01
6 2 0 189.3 8.4
-6 -2 0 205.85 7.36
6 2 1 72.54 5.14
-6 -2 -1 78.55 4.11
-6 -2 -1 74.86 1.52
6 2 2 55.03 4.5
-6 -2 -2 57.05 3.28
-6 -2 -2 57.24 1.28
6 2 3 123.58 7.13
-6 -2 -3 123.71 2.46
6 2 4 346.04 13.02
-6 -2 -4 351.16 6.29
-6 -2 -5 2.74 0.29
6 2 5 2.53 1.34
6 2 6 4.82 1.55
-6 -2 -6 3.46 0.32
6 2 7 51.49 4.5
6 2 7 61 3
-6 -2 -7 59.71 1.59
-6 -2 -7 57.48 10.24
-6 -2 -8 52.76 1.5
6 2 8 42.59 4
6 2 8 57.79 2.91
6 2 8 53.13 2.96
-6 -2 -8 48.23 8.73
-6 -2 -8 55.59 11.17
6 2 9 3.27 0.8
6 2 9 1.73 0.69
-6 -2 -9 2.37 0.31
6 2 10 -0.08 0.47
6 2 10 0.3 0.41
-6 -2 -10 -0.15 0.2
-6 -2 -10 0.68 0.68
6 2 11 0.65 0.56
6 2 11 0.12 0.47
-6 -2 -11 -1.66 2.96
-6 -2 -11 0.44 0.22
-6 -2 -11 0.53 0.6
-6 -2 -12 28.73 2.49
6 2 12 25.58 2.3
6 2 12 27.39 2.18
6 2 12 29.83 2.25
-6 -2 -12 27.73 7.4
-6 -2 -12 25.97 0.9
6 2 13 60.32 3.33
6 2 13 64.53 3.26
6 2 13 66.37 3.21
-6 -2 -13 60.75 10.16
-6 -2 -13 67.8 3.61
6 2 14 10.18 1.15
6 2 14 10.82 1.2
6 2 14 13 1.3
-6 -2 -14 12.5 4.27
-6 -2 -14 13.27 1.39
6 2 15 3.88 0.58
6 2 15 3.54 0.61
6 2 15 4.01 0.62
-6 -2 -15 3.44 0.56
-6 -3 17 35.93 1.78
-6 -3 17 34.16 1.66
-6 -3 16 7.53 1.01
-6 -3 16 7.85 1
-6 -3 15 9.19 1.27
-6 -3 15 10.32 1.3
-6 -3 14 8.77 1.4
-6 -3 14 12.55 1.57
-6 -3 14 13 1.58
-6 -3 13 -0.12 0.58
-6 -3 13 0.94 0.71
-6 -3 13 0.29 0.59
-6 -3 12 20.89 2.11
-6 -3 12 21.61 2.16
-6 -3 12 20.72 1.88
-6 -3 11 196.43 5.53
-6 -3 11 184.26 6.64
-6 -3 11 198.05 5.83
-6 -3 11 187.71 6.71
-6 -3 11 195.03 6.41
-6 -3 10 -0.1 0.42
-6 -3 10 -0.01 0.55
-6 -3 10 -0.43 0.43
-6 -3 10 0.75 0.66
-6 -3 10 0.49 0.55
-6 -3 10 0.33 0.62
-6 -3 9 9.21 1.26
-6 -3 9 9.31 1.17
-6 -3 9 8.28 1.18
-6 -3 9 9.98 1.13
-6 -3 9 8.16 1.91
-6 -3 9 8.1 1.19
-6 -3 8 7.66 1.94
-6 -3 7 485.46 15.86
-6 -3 6 196.47 9.03
-6 -3 5 11.94 2.13
6 3 -4 206.28 7.67
-6 -3 4 220.16 9.09
6 3 -4 208.13 3.93
-6 -3 3 12.71 2.03
6 3 -3 11.19 0.49
6 3 -3 11.09 1.83
-6 -3 2 116.48 6.01
6 3 -2 112.57 2.3
6 3 -2 105.17 5.86
-6 -3 1 76.23 4.58
6 3 -1 73.28 1.64
6 3 -1 73.23 5
-6 -3 0 538 14.19
6 3 0 495.63 15.44
-6 -3 -1 20.96 2.2
-6 -3 -1 21.37 0.6
6 3 1 21.37 2.9
-6 -3 -2 59.76 3.64
-6 -3 -2 56.18 1.27
6 3 3 207.7 9.81
-6 -3 -3 227.23 4.19
6 3 4 89.53 6.27
-6 -3 -4 97.79 2.12
-6 -3 -5 11.39 0.56
6 3 5 11.84 2.3
6 3 6 233.32 6.6
-6 -3 -6 236.86 4.54
6 3 7 220.42 5.91
6 3 7 205.11 6.19
-6 -3 -7 203.84 4.08
-6 -3 -7 194.4 19.29
-6 -3 -8 22.21 5.62
6 3 8 30.24 2.05
6 3 8 21.59 2.79
6 3 8 26.54 2.11
-6 -3 -8 26.83 0.99
-6 -3 -9 128.14 2.85
6 3 9 133.41 4.81
6 3 9 132.95 5.07
-6 -3 -9 127.86 15.02
-6 -3 -9 124.89 5.68
6 3 10 2.93 0.81
6 3 10 1.75 0.66
-6 -3 -10 1.44 2.57
-6 -3 -10 2.43 0.33
-6 -3 -10 1.41 0.83
6 3 11 3.82 0.94
6 3 11 3.41 0.88
-6 -3 -11 3.1 0.34
-6 -3 -11 4.17 1.16
6 3 12 0.19 0.59
6 3 12 1.43 0.64
6 3 12 1.02 0.54
-6 -3 -12 0.45 0.65
6 3 13 15.17 1.66
6 3 13 16.23 1.54
6 3 13 15.83 1.5
-6 -3 -13 13.39 4.77
-6 -3 -13 15.59 1.66
6 3 14 8.4 1.03
6 3 14 8.58 0.96
6 3 14 8.64 0.99
-6 -3 -14 10.35 3.7
-6 -3 -14 7.93 1.08
6 3 15 1.04 0.32
6 3 15 1.37 0.36
6 3 15 1.26 0.37
-6 -3 -15 1.55 0.39
-6 -4 17 8.08 0.79
-6 -4 17 6.89 0.79
-6 -4 16 0.2 0.35
-6 -4 16 -0.49 0.45
-6 -4 15 0.43 0.45
-6 -4 15 -0.43 0.5
-6 -4 14 14.88 1.71
-6 -4 14 15.47 1.74
-6 -4 13 49.83 3.23
-6 -4 13 51.11 3.28
-6 -4 13 48.86 2.86
-6 -4 12 7.84 1.26
-6 -4 12 6.65 0.93
-6 -4 12 5.57 1.05
-6 -4 12 6.94 1.03
-6 -4 12 6.68 1.37
-6 -4 11 50.96 2.59
-6 -4 11 49.15 3.19
-6 -4 11 49.52 2.74
-6 -4 11 48.29 3.18
-6 -4 11 49.91 3.07
-6 -4 10 10.7 1.44
-6 -4 10 9.2 1.14
-6 -4 10 9.02 1.34
-6 -4 10 11.22 1.33
-6 -4 10 10.4 2.15
-6 -4 10 8.98 1.36
-6 -4 9 0.99 0.66
-6 -4 9 1.28 0.57
-6 -4 9 1.85 0.65
-6 -4 9 0.96 0.58
-6 -4 9 1.21 0.55
-6 -4 9 0.96 0.68
-6 -4 9 1.47 0.85
-6 -4 8 5.89 0.92
-6 -4 8 6.82 1.08
-6 -4 8 6.29 0.99
-6 -4 8 7.33 1.09
-6 -4 8 6.61 1.77
-6 -4 8 6.37 1.03
-6 -4 7 6.25 1.74
-6 -4 6 249.39 10.65
-6 -4 5 233.64 9.92
6 4 -5 232.55 4.37
6 4 -5 235.7 7.98
-6 -4 4 11.08 2.02
6 4 -4 8.21 1.59
6 4 -4 10.49 0.5
-6 -4 3 16.89 2.38
6 4 -3 16.52 2.28
6 4 -3 16.06 0.62
-6 -4 2 8.67 1.66
6 4 -2 8.85 1.73
6 4 -2 9.41 0.45
-6 -4 1 8.84 1.65
6 4 -1 10.03 1.89
6 4 -1 9.03 0.44
6 4 0 8.23 1.89
-6 -4 0 10.44 1.74
-6 -4 -1 18.2 2.2
-6 -4 -1 19.19 0.57
6 4 1 19.85 2.85
-6 -4 -2 42.3 1.05
6 4 2 38.33 4.06
-6 -4 -3 45.45 1.17
6 4 3 40.4 4.25
-6 -4 -4 2.51 0.27
6 4 4 2.07 1.19
6 4 5 63.01 5.4
-6 -4 -5 75.55 1.8
6 4 6 35.33 3.92
6 4 6 36.3 2.28
-6 -4 -6 37.79 1.17
-6 -4 -6 39.49 8.25
6 4 7 84.69 3.59
-6 -4 -7 82.07 2.01
6 4 8 1.4 0.57
-6 -4 -8 2.2 0.31
-6 -4 -8 2.02 0.9
6 4 9 145.01 4.91
6 4 9 137.15 5.15
-6 -4 -9 138.14 15.17
-6 -4 -9 135.14 2.96
-6 -4 -9 128.38 5.88
6 4 10 15.24 1.52
6 4 10 16.26 1.65
-6 -4 -10 12.39 4.57
-6 -4 -10 14.23 0.71
-6 -4 -10 13.29 1.87
6 4 11 4.53 1.05
6 4 11 3.73 0.81
6 4 11 4.63 0.9
-6 -4 -11 4.64 2.47
-6 -4 -11 4 1.07
6 4 12 44.89 3
6 4 12 43.16 2.48
6 4 12 47.37 2.63
-6 -4 -12 44.64 8.48
-6 -4 -12 44.48 3.04
6 4 13 1.47 0.55
6 4 13 3.36 0.61
6 4 13 1.94 0.52
-6 -4 -13 1.84 0.75
6 4 14 2.9 0.61
6 4 14 2.72 0.49
6 4 14 2.09 0.47
-6 -4 -14 3.66 2.05
-6 -4 -14 3.41 0.71
-6 -5 17 1.63 0.46
-6 -5 17 1.28 0.33
-6 -5 16 13.76 1.23
-6 -5 16 13.89 1.35
-6 -5 15 4.42 0.87
-6 -5 15 5.52 1.02
-6 -5 14 38.77 2.62
-6 -5 14 41.8 2.16
-6 -5 14 37.77 2.7
-6 -5 13 23.71 1.72
-6 -5 13 21.29 2.03
-6 -5 13 21.96 1.79
-6 -5 13 23.37 2.2
-6 -5 13 18.24 1.84
-6 -5 12 2.02 0.91
-6 -5 12 1.6 0.66
-6 -5 12 2.42 0.76
-6 -5 12 1.87 0.61
-6 -5 12 2.08 0.77
-6 -5 11 17.69 1.69
-6 -5 11 14.78 1.72
-6 -5 11 16.1 1.67
-6 -5 11 17.12 1.97
-6 -5 11 16.14 1.85
-6 -5 10 17.34 1.63
-6 -5 10 16.37 1.77
-6 -5 10 17.24 1.72
-6 -5 10 19.16 2.83
-6 -5 10 17.38 1.89
-6 -5 10 16.58 1.83
-6 -5 9 102.3 3.93
-6 -5 9 94.88 3.92
-6 -5 9 94.54 4.26
-6 -5 9 100.68 6.57
-6 -5 9 89.83 4.23
-6 -5 9 96.83 4.13
-6 -5 9 95.76 4.37
-6 -5 8 26.44 1.87
-6 -5 8 28.4 1.94
-6 -5 8 27.9 3.44
-6 -5 8 27.66 2.1
-6 -5 8 26.29 2.03
-6 -5 8 25.29 1.98
-6 -5 8 26.36 2.08
-6 -5 7 10.51 1.29
-6 -5 7 11.55 2.22
-6 -5 6 0.96 0.86
-6 -5 5 194.95 9.03
6 5 -5 177.38 7.16
6 5 -5 183.73 3.58
-6 -5 4 2.52 1.11
6 5 -4 4.56 1.29
6 5 -4 2.84 0.28
-6 -5 3 -0.13 0.59
6 5 -3 0.77 0.72
6 5 -3 0.8 0.18
-6 -5 2 269.44 10.25
6 5 -2 249.77 4.61
6 5 -2 249.92 10.08
6 5 -1 193.49 3.66
6 5 -1 181.18 8.82
-6 -5 0 20.96 2.56
6 5 0 18.53 2.86
-6 -5 -1 15.26 0.52
6 5 1 13.31 2.44
6 5 2 0.71 0.9
-6 -5 -2 0.23 0.14
-6 -5 -3 67.05 1.56
6 5 3 57.54 5.2
-6 -5 -4 8.71 0.48
6 5 4 7.44 1.97
6 5 5 49.94 2.45
-6 -5 -5 49.6 1.37
6 5 6 31.04 2.03
-6 -5 -6 29.37 1.02
-6 -5 -6 32.38 2.62
6 5 7 35.39 2.22
-6 -5 -7 30.01 1.06
-6 -5 -7 29.98 2.63
6 5 8 0.02 0.37
-6 -5 -8 0.04 0.18
6 5 9 4.82 0.91
-6 -5 -9 3.81 2.43
-6 -5 -9 5 1.28
6 5 10 5.91 0.89
6 5 10 4.9 0.93
-6 -5 -10 5.46 1.21
6 5 11 3.32 1
6 5 11 2.88 0.67
6 5 11 3.01 0.71
-6 -5 -11 2.06 1.44
-6 -5 -11 3.68 0.98
6 5 12 221.09 7.12
-6 -5 -12 201.95 16.37
6 5 12 216.69 5.8
6 5 12 227.49 6.19
-6 -5 -12 240.28 7.42
6 5 13 22.45 1.77
6 5 13 19.45 1.26
6 5 13 22.08 1.4
-6 -5 -13 19.88 4.48
-6 -5 -13 21.51 1.78
6 5 14 2.46 0.54
6 5 14 2.35 0.37
-6 -5 -14 2.11 0.53
-6 -6 17 0.16 0.22
-6 -6 17 -0.07 0.29
-6 -6 16 12.46 1.09
-6 -6 16 11.55 1.23
-6 -6 15 8.47 1.09
-6 -6 15 10.08 0.94
-6 -6 15 9.2 1.25
-6 -6 14 0.14 0.41
-6 -6 14 0.01 0.48
-6 -6 14 -0.32 0.52
-6 -6 14 0.98 0.81
-6 -6 13 2.2 0.75
-6 -6 13 1.45 0.71
-6 -6 13 2.57 0.68
-6 -6 13 2.68 0.82
-6 -6 12 15.04 1.56
-6 -6 12 14.16 1.8
-6 -6 12 13.87 1.53
-6 -6 12 16.07 1.88
-6 -6 12 14.92 1.79
-6 -6 11 0.6 0.58
-6 -6 11 0.64 0.65
-6 -6 11 0.21 0.57
-6 -6 11 1.32 0.72
-6 -6 11 0.07 0.68
-6 -6 10 0.67 0.44
-6 -6 10 0.65 0.59
-6 -6 10 0.21 0.55
-6 -6 10 0.08 0.43
-6 -6 10 0.13 0.59
-6 -6 10 0.27 0.53
-6 -6 10 0.28 0.62
-6 -6 9 5.68 1.1
-6 -6 9 4.81 0.88
-6 -6 9 5.67 0.93
-6 -6 9 5.08 1.05
-6 -6 9 4.33 0.94
-6 -6 9 5.03 1.44
-6 -6 9 4.11 1.01
-6 -6 8 81.06 3.53
-6 -6 8 81.56 3.51
-6 -6 8 79.12 5.81
-6 -6 8 79.58 3.79
-6 -6 8 81.85 3.89
-6 -6 8 78.36 3.43
-6 -6 8 75 3.62
-6 -6 8 78.92 3.89
-6 -6 7 3.57 0.85
-6 -6 7 2.68 0.75
-6 -6 7 3.09 0.8
-6 -6 7 3.58 0.79
-6 -6 7 2.66 0.63
-6 -6 7 2.42 0.72
-6 -6 7 4.73 0.89
-6 -6 7 2.25 1.08
-6 -6 6 11.23 1.26
-6 -6 6 10.9 1.16
-6 -6 6 11.21 1.29
-6 -6 6 13.16 1.41
-6 -6 6 11.3 2.21
6 6 -6 11.16 0.55
-6 -6 5 2.46 1.11
6 6 -5 2.09 0.87
6 6 -5 2.68 0.28
-6 -6 4 10.84 2.11
6 6 -4 7.39 1.59
6 6 -4 8.86 0.46
6 6 -3 64.31 4.84
6 6 -3 71.15 1.65
-6 -6 2 76.54 5.43
6 6 -2 71.93 5.33
6 6 -2 76.52 1.71
-6 -6 1 -0.62 0.65
6 6 -1 0.94 0.7
6 6 0 4.82 1.58
-6 -6 0 4.43 1.25
6 6 1 130.28 7.85
6 6 2 2.39 1.31
-6 -6 -3 23.14 1.87
6 6 3 17.98 3.04
-6 -6 -4 0 0.62
-6 -6 -4 1.59 0.56
6 6 4 0.63 1.1
-6 -6 -4 1.5 0.68
-6 -6 -5 11.16 1.29
-6 -6 -5 10.59 1.41
6 6 5 10.02 2.23
6 6 6 19.89 2.93
6 6 6 26.86 1.8
-6 -6 -6 23.79 2.26
6 6 7 79.13 3.31
-6 -6 -7 68.78 4
6 6 8 0.6 0.5
-6 -6 -8 0.13 0.74
6 6 9 4.36 0.84
-6 -6 -9 3.82 1.03
6 6 10 1.12 0.7
6 6 10 1.02 0.53
-6 -6 -10 -1.11 1.95
-6 -6 -10 1.2 0.74
6 6 11 -0.49 0.67
6 6 11 0.62 0.41
-6 -6 -11 2.66 1.89
-6 -6 -11 1.43 0.82
-6 -6 -11 0.87 0.41
6 6 12 15.82 1.59
6 6 12 16.19 1.16
-6 -6 -12 13.23 3.6
-6 -6 -12 15.86 1.61
6 6 13 16.61 1.38
6 6 13 18.37 1
-6 -6 -13 18.32 1.5
6 6 14 45.37 1.75
-6 -6 -14 47.58 1.82
-6 -7 17 1.47 0.36
-6 -7 16 0.56 0.29
-6 -7 16 -0.15 0.41
-6 -7 15 9.24 1.03
-6 -7 15 10.02 1
-6 -7 15 10.87 1.35
-6 -7 14 0.12 0.44
-6 -7 14 0.11 0.48
-6 -7 14 0.26 0.46
-6 -7 14 0.7 0.58
-6 -7 13 19.22 1.83
-6 -7 13 19.55 1.79
-6 -7 13 15.44 1.79
-6 -7 13 16.16 1.78
-6 -7 12 8.71 1.4
-6 -7 12 9.25 1.27
-6 -7 12 10.54 1.53
-6 -7 12 7.2 1.25
-6 -7 12 8.22 1.29
-6 -7 11 0.03 0.51
-6 -7 11 -0.91 0.59
-6 -7 11 0.1 0.44
-6 -7 11 -0.08 0.51
-6 -7 11 0.27 0.51
-6 -7 11 0.45 0.52
-6 -7 10 2.08 0.59
-6 -7 10 1.95 0.73
-6 -7 10 1.71 0.66
-6 -7 10 2.32 0.76
-6 -7 10 2.01 0.91
-6 -7 10 2.23 0.83
-6 -7 10 2.2 0.82
-6 -7 9 73.09 3.2
-6 -7 9 70.23 3.48
-6 -7 9 65.58 3.63
-6 -7 9 72.33 3.9
-6 -7 9 77.49 3.6
-6 -7 9 70.72 3.84
-6 -7 8 2.09 0.64
-6 -7 8 1.65 0.82
-6 -7 8 2.07 0.83
-6 -7 8 1.44 0.65
-6 -7 8 1.58 0.56
-6 -7 8 1.2 0.6
-6 -7 8 1.19 0.62
-6 -7 8 0.35 0.71
-6 -7 8 1.23 0.5
-6 -7 8 1.85 0.59
-6 -7 7 7.07 0.91
-6 -7 7 6.91 1.15
-6 -7 7 7.07 1.04
-6 -7 7 7.52 1.02
-6 -7 7 7.51 1.2
-6 -7 7 6.28 1.11
-6 -7 7 8.37 2.01
-6 -7 7 7.15 0.97
6 7 -7 6.54 0.43
-6 -7 7 7.94 1.11
-6 -7 7 6.15 0.96
-6 -7 6 3.64 0.78
-6 -7 6 4.47 0.81
-6 -7 6 5.75 0.89
-6 -7 6 5.72 0.84
-6 -7 6 4.85 0.9
-6 -7 6 5.16 1.02
-6 -7 6 6.51 1.72
-6 -7 6 5.22 0.86
6 7 -6 4.83 0.36
-6 -7 6 5.11 0.99
-6 -7 5 223.02 6.38
-6 -7 5 244.19 6.77
-6 -7 5 243.53 10.73
-6 -7 5 230.49 6.87
-6 -7 5 236.93 7.08
-6 -7 5 265.27 6.91
-6 -7 5 228.41 6.98
6 7 -5 228.82 9.13
6 7 -5 243.68 4.5
-6 -7 5 212.18 6.77
-6 -7 5 256.84 21.94
-6 -7 4 19.73 6.15
-6 -7 4 22.91 3.08
-6 -7 4 20.59 1.75
-6 -7 4 21.5 1.81
6 7 -4 20.29 2.66
6 7 -4 20.22 0.73
-6 -7 3 6.36 1.7
6 7 -3 2.9 1.17
6 7 -3 5.12 0.34
-6 -7 2 10.69 2.09
6 7 -2 9.24 1.92
6 7 -2 9.35 0.45
-6 -7 1 82.45 5.64
6 7 -1 66 5.42
-6 -7 0 13.8 1.46
-6 -7 0 14.74 1.48
-6 -7 0 16.83 1.59
-6 -7 0 13.8 1.52
6 7 0 13.11 2.53
-6 -7 -1 -0.61 0.5
-6 -7 -1 0.47 0.5
-6 -7 -1 0.31 0.62
-6 -7 -1 0.55 0.44
6 7 1 0.13 0.97
-6 -7 -2 103.74 4.08
-6 -7 -2 101.2 4.28
-6 -7 -2 92 3.95
-6 -7 -2 100 4.26
6 7 2 94.04 6.87
-6 -7 -3 67.15 3.23
-6 -7 -3 66.67 3.18
-6 -7 -3 68.41 3.49
6 7 3 62.46 5.6
-6 -7 -4 0.69 0.52
-6 -7 -4 1.16 0.56
-6 -7 -4 0.54 0.45
6 7 4 -0.9 1.13
-6 -7 -4 -0.15 0.47
-6 -7 -5 191.5 6.53
-6 -7 -5 189.66 5.77
-6 -7 -5 183.6 6.13
-6 -7 -6 193.61 5.81
-6 -7 -6 210.52 7.12
-6 -7 -7 107.78 5.06
-6 -7 -8 7.49 1.35
6 7 9 9.46 0.99
-6 -7 -9 10.34 1.62
6 7 10 9.88 1.42
6 7 10 9.5 0.92
-6 -7 -10 9.38 1.48
-6 -7 -10 7.26 1.04
6 7 11 15.99 1.63
6 7 11 17.91 1.12
-6 -7 -11 15.21 1.15
-6 -7 -11 17.5 1.78
6 7 12 2.32 0.65
-6 -7 -12 3.85 0.79
6 7 13 4.43 0.61
6 7 13 2.62 1.38
-6 -7 -13 4.32 0.67
-6 -8 16 0.78 0.24
-6 -8 16 0.25 0.22
-6 -8 16 0.85 1.21
-6 -8 16 0.29 0.32
-6 -8 15 0.6 0.34
-6 -8 15 0.24 0.36
-6 -8 15 1.07 0.61
-6 -8 14 2.03 0.61
-6 -8 14 3.67 0.76
-6 -8 14 2.53 0.68
-6 -8 14 2.78 0.8
-6 -8 13 8.85 1.31
-6 -8 13 7.72 1.13
-6 -8 13 9.25 1.26
-6 -8 13 7.98 1.28
-6 -8 12 0.43 0.6
-6 -8 12 0.05 0.79
-6 -8 12 0.05 0.48
-6 -8 12 1.12 0.66
-6 -8 12 1.65 0.77
-6 -8 11 28.81 2.04
-6 -8 11 33.08 2.35
-6 -8 11 29.91 2.39
-6 -8 11 28.83 2.32
-6 -8 11 26.49 2.28
-6 -8 11 27.71 2.42
-6 -8 11 28.14 2.49
-6 -8 10 80.03 3.51
-6 -8 10 79.53 3.76
-6 -8 10 77.03 3.83
-6 -8 10 73.67 3.86
-6 -8 10 72.8 3.99
-6 -8 10 71.16 3.76
-6 -8 10 78.23 4.16
-6 -8 9 92.05 3.76
-6 -8 9 97.65 4.18
-6 -8 9 92.22 4.11
-6 -8 9 88.06 4.26
-6 -8 9 88.5 4.4
-6 -8 9 95.94 3.66
-6 -8 9 86.23 4.02
-6 -8 9 93.12 4.55
-6 -8 8 141.15 4.73
-6 -8 8 140.51 5.14
-6 -8 8 139.37 5
-6 -8 8 135.99 5.38
-6 -8 8 135.43 5.52
-6 -8 8 134.03 4.66
-6 -8 8 127.44 4.79
-6 -8 8 138.15 4.83
6 8 -8 135.21 2.81
-6 -8 8 135.89 5.56
-6 -8 7 49.18 2.58
-6 -8 7 47.7 2.75
-6 -8 7 47.42 2.6
-6 -8 7 46.81 2.56
-6 -8 7 49.93 4.61
-6 -8 7 45.26 2.91
-6 -8 7 46.15 3.01
-6 -8 7 47.44 2.64
-6 -8 7 48.89 2.8
6 8 -7 47.73 1.27
-6 -8 7 41.73 2.43
-6 -8 7 50.74 3.2
-6 -8 6 41.06 9.39
-6 -8 6 35.34 2.14
-6 -8 6 33.98 2.23
-6 -8 6 33.44 2.23
-6 -8 6 34.69 3.9
-6 -8 6 37.3 2.19
-6 -8 6 32.83 2.4
-6 -8 6 32.99 2.49
-6 -8 6 35.82 2.32
-6 -8 6 31.24 2.27
6 8 -6 37.18 1.05
-6 -8 6 31.68 2.38
-6 -8 5 31.52 8.87
-6 -8 5 26.61 1.81
-6 -8 5 27.05 1.95
-6 -8 5 28.02 3.51
-6 -8 5 24.16 1.92
-6 -8 5 25.21 2.09
-6 -8 5 24.57 2.11
-6 -8 5 28.6 2.04
-6 -8 5 23 1.97
6 8 -5 27.55 0.85
-6 -8 5 23 1.9
-6 -8 4 18.19 5.93
-6 -8 4 18.78 1.49
-6 -8 4 20.53 1.6
-6 -8 4 21.38 1.82
-6 -8 4 19.15 1.77
-6 -8 4 17.86 1.7
-6 -8 4 19.79 2.89
-6 -8 4 20.41 1.89
6 8 -4 16.47 2.52
-6 -8 4 20.68 1.88
6 8 -4 19.18 0.67
-6 -8 4 17.79 1.61
-6 -8 3 -0.57 2.8
-6 -8 3 1.02 0.48
-6 -8 3 1.66 0.68
-6 -8 3 1.33 0.64
-6 -8 3 1.21 0.57
-6 -8 3 1.25 1.05
-6 -8 3 2.03 0.76
6 8 -3 1.7 0.81
-6 -8 3 0.42 0.59
6 8 -3 1.71 0.2
-6 -8 2 52.86 2.93
-6 -8 2 47.43 2.87
-6 -8 2 49.56 2.84
6 8 -2 43.98 4.35
-6 -8 2 47.24 2.74
-6 -8 2 54.59 2.92
-6 -8 2 50.72 3.02
-6 -8 2 58.31 10.56
-6 -8 1 11.7 1.41
-6 -8 1 11.57 1.43
-6 -8 1 12.2 1.4
6 8 -1 10.11 2.25
-6 -8 1 11.02 1.33
-6 -8 1 10.63 1.43
-6 -8 1 6.45 3.68
-6 -8 0 17.31 1.5
-6 -8 0 19.35 1.84
-6 -8 0 19.54 1.79
-6 -8 0 19.52 1.82
-6 -8 0 20.26 1.79
6 8 0 17.62 3
-6 -8 0 18.21 1.83
-6 -8 -1 0.18 0.35
-6 -8 -1 -0.48 0.53
-6 -8 -1 0.86 0.86
-6 -8 -1 -0.63 0.81
-6 -8 -1 0.18 0.47
-6 -8 -1 -0.03 0.49
6 8 1 -0.44 0.96
-6 -8 -2 37.55 2.38
-6 -8 -2 38.89 2.46
-6 -8 -2 36.92 2.52
-6 -8 -2 39.56 2.75
6 8 2 33.74 4.07
-6 -8 -3 1.28 0.55
-6 -8 -3 -0.09 0.48
-6 -8 -3 0.82 0.64
-6 -8 -3 0.73 0.71
6 8 3 1.1 0.88
-6 -8 -4 49.82 2.66
-6 -8 -4 51.99 2.94
-6 -8 -4 51.11 2.78
-6 -8 -4 49.86 3.22
-6 -8 -5 10.46 1.24
-6 -8 -5 11.14 1.41
6 8 5 8.82 0.47
-6 -8 -6 32.53 2.56
-6 -8 -7 9.55 1.45
-6 -8 -8 33.9 2.65
6 8 9 34.6 2.54
-6 -8 -9 34.34 2.31
-6 -8 -9 34.18 2.58
6 8 10 9.64 1.3
-6 -8 -10 8.17 0.99
-6 -8 -10 9.44 1.34
6 8 11 29.96 1.92
-6 -8 -11 25.4 1.3
-6 -8 -11 30.08 2.05
6 8 12 15.09 1.13
-6 -8 -12 15.73 1.24
-6 -9 16 3.42 1.51
-6 -9 16 2.45 0.45
-6 -9 15 -0.19 1.66
-6 -9 15 -0.11 0.31
-6 -9 15 -0.04 0.23
-6 -9 15 0.47 0.4
-6 -9 15 0.32 0.39
-6 -9 14 12.5 1.09
-6 -9 14 13.66 1.36
-6 -9 14 14.3 1.42
-6 -9 14 12.01 1.31
-6 -9 13 0.51 0.58
-6 -9 13 0.2 0.42
-6 -9 13 -0.37 0.48
-6 -9 13 0.04 0.54
-6 -9 12 16.61 1.8
-6 -9 12 16.78 1.6
-6 -9 12 16.23 1.74
-6 -9 12 15.59 1.62
-6 -9 12 15.24 1.83
-6 -9 11 17.82 1.81
-6 -9 11 19.81 1.88
-6 -9 11 17.28 1.73
-6 -9 11 19.33 1.69
-6 -9 11 18.21 1.92
-6 -9 11 18.37 1.78
-6 -9 11 17.74 1.99
-6 -9 10 39.2 2.47
-6 -9 10 39.25 2.62
-6 -9 10 36.97 2.57
-6 -9 10 38.29 2.65
-6 -9 10 36.56 2.83
-6 -9 10 39.37 2.4
-6 -9 10 33.52 2.39
-6 -9 10 38.54 2.85
-6 -9 9 0.4 0.59
-6 -9 9 0.88 0.7
-6 -9 9 0.09 0.5
-6 -9 9 0.61 0.54
-6 -9 9 0.78 0.56
-6 -9 9 1.12 0.75
-6 -9 9 0.26 0.4
6 9 -9 0.43 0.17
-6 -9 9 -0.44 0.52
-6 -9 8 5.4 0.91
-6 -9 8 4.11 0.92
-6 -9 8 5.52 1.02
-6 -9 8 5.86 0.98
-6 -9 8 5.35 1.13
-6 -9 8 5.35 1.18
-6 -9 8 5.22 1.01
6 9 -8 4.87 0.34
-6 -9 7 1.2 3.29
-6 -9 7 0.63 0.5
-6 -9 7 1.06 0.74
-6 -9 7 0.31 0.69
-6 -9 7 0.78 0.6
-6 -9 7 0.45 0.44
-6 -9 7 0.04 0.47
-6 -9 7 0.27 0.51
-6 -9 7 1.09 0.74
6 9 -7 0.36 0.15
-6 -9 6 38.95 2.34
-6 -9 6 37.86 2.42
-6 -9 6 38.99 2.55
-6 -9 6 39.69 2.31
-6 -9 6 38.72 2.69
-6 -9 6 35.65 2.68
-6 -9 6 42.57 2.62
-6 -9 6 39.66 2.6
6 9 -6 38.5 1.06
-6 -9 6 36.01 2.6
-6 -9 5 14.68 5.08
-6 -9 5 16.6 1.53
-6 -9 5 17.92 1.57
-6 -9 5 16.47 1.73
-6 -9 5 18.44 1.49
-6 -9 5 18.33 1.85
-6 -9 5 16.41 1.83
-6 -9 5 17.6 2.75
-6 -9 5 18.69 1.84
-6 -9 5 16.92 1.82
-6 -9 5 16.42 1.7
-6 -9 4 81.8 3.54
-6 -9 4 81.31 3.32
-6 -9 4 89.74 6.11
-6 -9 4 85.25 3.98
-6 -9 4 86.66 4.06
-6 -9 4 78.83 3.85
-6 -9 4 88.04 3.97
-6 -9 4 81.18 4.03
6 9 -4 62.93 5.06
-6 -9 4 74.22 3.56
-6 -9 4 84.63 13.86
-6 -9 3 22.92 1.84
-6 -9 3 26.48 1.77
-6 -9 3 23.6 2.09
-6 -9 3 25.3 2.25
-6 -9 3 27.24 2.2
-6 -9 3 25.52 2.06
-6 -9 3 26.38 2.14
6 9 -3 21.51 3.21
-6 -9 3 24.21 2.17
-6 -9 3 22.18 7.45
-6 -9 2 7.6 1.08
-6 -9 2 7.82 1.31
-6 -9 2 7.97 1.25
-6 -9 2 7.58 1.23
-6 -9 2 9.35 1.33
-6 -9 2 7.02 1.06
6 9 -2 8.5 2
-6 -9 2 10.56 1.35
-6 -9 2 7.42 1.12
-6 -9 2 5.16 4.43
-6 -9 1 129.67 4.81
-6 -9 1 141.99 5.33
-6 -9 1 145.2 5.53
-6 -9 1 136.91 5.38
-6 -9 1 142.53 5.25
-6 -9 1 137.26 5.62
6 9 -1 121.8 7.61
-6 -9 0 4.14 0.85
-6 -9 0 4.11 1.01
-6 -9 0 4.47 1.1
-6 -9 0 3.81 1.12
-6 -9 0 3.58 0.9
6 9 0 3.54 1.61
-6 -9 0 4.69 1.1
-6 -9 -1 5.28 1.19
-6 -9 -1 2.62 0.84
-6 -9 -1 4.87 0.94
-6 -9 -1 2.15 1.68
-6 -9 -1 3.91 0.98
-6 -9 -2 29.28 2.2
-6 -9 -2 28.49 2.19
-6 -9 -2 29.56 2.24
-6 -9 -2 30.08 2.53
-6 -9 -3 170.44 5.89
-6 -9 -3 175.61 5.74
-6 -9 -3 182.36 5.82
-6 -9 -3 177.96 6.66
6 9 3 170.06 3.46
-6 -9 -4 -0.16 0.38
-6 -9 -4 0.85 0.61
-6 -9 -4 -0.08 0.44
6 9 4 0.44 0.16
-6 -9 -5 186.88 5.38
-6 -9 -5 190.68 6.1
-6 -9 -6 15.59 1.72
-6 -9 -7 2.34 1.59
-6 -9 -7 3.95 0.96
-6 -9 -7 2.55 0.74
6 9 8 58.09 3.2
-6 -9 -8 58.33 3.15
-6 -9 -8 59.47 3.28
-6 -9 -9 0.23 0.39
6 9 9 0.01 0.4
-6 -9 -9 -0.13 0.45
-6 -9 -9 -0.01 0.42
-6 -9 -10 6.87 0.74
6 9 10 9.79 1.07
-6 -9 -10 7.35 0.8
-6 -9 -10 9.15 1.13
6 9 11 0.17 0.26
-6 -9 -11 0.3 0.33
-6 -10 15 1.96 1.68
-6 -10 15 3.92 0.55
-6 -10 15 3.74 0.55
-6 -10 14 0.61 0.37
-6 -10 14 0.43 0.35
-6 -10 14 0.22 0.22
-6 -10 14 0.4 0.37
-6 -10 14 0.73 0.45
-6 -10 13 8.97 3.77
-6 -10 13 12.93 1.13
-6 -10 13 12.9 1.47
-6 -10 13 12.6 1.26
-6 -10 13 15.06 1.52
-6 -10 12 0.35 0.52
-6 -10 12 1.62 0.68
-6 -10 12 0.82 0.58
-6 -10 12 2.73 4.08
-6 -10 12 0.19 0.41
-6 -10 11 28.87 2.01
-6 -10 11 29.8 2.34
-6 -10 11 29.9 2.22
-6 -10 11 28.51 2.1
-6 -10 11 31.28 2.45
-6 -10 11 25.69 2.52
-6 -10 11 24.77 1.87
-6 -10 11 27.36 2.37
-6 -10 10 119.06 4.46
-6 -10 10 118.72 4.65
-6 -10 10 115.94 4.68
-6 -10 10 104.85 4.43
-6 -10 10 111.96 4.99
-6 -10 10 105.44 4.2
-6 -10 10 108.22 16.23
-6 -10 10 97.54 3.93
-6 -10 10 113.61 4.98
-6 -10 9 0.1 2.11
-6 -10 9 1.53 0.67
-6 -10 9 0.45 0.6
-6 -10 9 0.16 0.62
-6 -10 9 0.41 0.51
-6 -10 9 0.68 0.45
-6 -10 9 0.4 0.61
-6 -10 9 0.89 0.91
-6 -10 8 28.7 2.15
-6 -10 8 28.42 2.16
-6 -10 8 28.36 2.13
-6 -10 8 24.94 2.17
-6 -10 8 25.52 2.33
-6 -10 8 27.02 2.21
-6 -10 8 34.23 9.08
-6 -10 8 25.55 2.32
-6 -10 7 30.68 8.66
-6 -10 7 33.52 2.29
-6 -10 7 29.87 2.13
-6 -10 7 27.91 2.27
-6 -10 7 32.92 2.3
-6 -10 7 29.61 2.5
-6 -10 7 29.8 2.3
-6 -10 7 25.82 1.98
-6 -10 7 25.81 2.31
-6 -10 6 115.05 4.46
-6 -10 6 116.63 4.43
-6 -10 6 115.88 4.29
-6 -10 6 111.13 4.8
-6 -10 6 108.04 4.89
-6 -10 6 115.63 4.82
-6 -10 6 107.07 4.57
-6 -10 6 102.82 4.64
-6 -10 6 105.3 16.25
-6 -10 5 28.46 2.18
-6 -10 5 27.52 1.94
-6 -10 5 27.13 1.88
-6 -10 5 27.26 2.51
-6 -10 5 27.3 2.27
-6 -10 5 25.56 2.27
-6 -10 5 28.65 2.33
-6 -10 5 28.04 2.32
-6 -10 5 22.61 2
-6 -10 4 1.15 0.5
-6 -10 4 1.33 0.65
-6 -10 4 1.88 0.62
-6 -10 4 2.12 0.78
-6 -10 4 1.8 0.77
-6 -10 4 1.6 0.82
-6 -10 4 1.77 0.73
-6 -10 4 2.44 0.79
-6 -10 4 1.61 0.73
-6 -10 4 2.91 2.36
-6 -10 3 63.3 3.27
-6 -10 3 65.59 3.71
-6 -10 3 69.9 3.94
-6 -10 3 65.39 3.62
-6 -10 3 62.85 3.3
-6 -10 3 70.65 3.67
-6 -10 3 64.49 3.75
-6 -10 3 63.42 2.78
-6 -10 3 62.21 12.16
-6 -10 2 -0.22 0.46
-6 -10 2 0.02 0.57
-6 -10 2 0.52 0.69
-6 -10 2 -1.08 0.53
-6 -10 2 -0.01 0.64
-6 -10 2 1.01 0.68
-6 -10 2 -0.27 0.48
-6 -10 2 2.26 3.84
-6 -10 1 17.61 1.71
-6 -10 1 19.25 1.99
-6 -10 1 19.48 2.06
-6 -10 1 19.91 2.1
-6 -10 1 18.78 1.93
-6 -10 1 19.6 2.14
-6 -10 1 20.08 1.92
-6 -10 1 14.46 6.31
-6 -10 0 23.29 1.99
-6 -10 0 25.7 2.21
-6 -10 0 25.41 2.86
-6 -10 0 23.65 2.06
-6 -10 0 24.07 2.33
-6 -10 0 22.82 2.16
-6 -10 0 18.62 8.17
-6 -10 -1 5.24 1.01
-6 -10 -1 5.88 9.99
-6 -10 -1 4.97 1.04
-6 -10 -1 5.17 1.04
-6 -10 -1 4.56 1.21
-6 -10 -1 5 1.15
-6 -10 -2 0.05 0.47
-6 -10 -2 -0.04 0.52
-6 -10 -2 0.45 0.6
-6 -10 -2 0.78 1.02
6 10 2 0.78 0.2
-6 -10 -2 0.82 0.66
-6 -10 -3 25.56 2.15
-6 -10 -3 24.71 1.96
-6 -10 -3 25.8 1.94
-6 -10 -3 28.83 2.54
6 10 3 25.22 0.89
-6 -10 -4 9.17 1.31
-6 -10 -4 8.59 1.09
-6 -10 -4 8.46 1.43
-6 -10 -5 10.92 1.45
-6 -10 -5 13.98 1.73
-6 -10 -6 0.42 0.53
6 10 6 1.15 0.65
-6 -10 -6 0.59 0.43
-6 -10 -6 0.36 0.5
-6 -10 -7 1.9 0.56
6 10 7 2.11 0.65
-6 -10 -7 1.56 0.62
-6 -10 -7 2.9 0.81
-6 -10 -8 7.01 0.9
-6 -10 -8 7.47 1.03
6 10 8 8.28 0.99
-6 -10 -8 7.37 1.06
6 10 9 106.15 3.41
-6 -10 -9 98.77 3.35
-6 -10 -9 96.38 3.54
-6 -10 -10 36.84 1.44
6 10 10 54.52 1.92
-6 -10 -10 43.65 1.59
-6 -10 -10 50.09 2.04
-6 -11 15 5.43 1.8
-6 -11 15 7.35 0.64
-6 -11 14 -0.29 0.3
-6 -11 14 0.17 0.32
-6 -11 14 0.47 0.32
-6 -11 13 -0.27 1.48
-6 -11 13 0.54 0.42
-6 -11 13 0.78 0.39
-6 -11 13 1.3 0.35
-6 -11 13 0.77 0.52
-6 -11 13 1.18 0.36
-6 -11 12 1.51 1.55
-6 -11 12 1.09 0.56
-6 -11 12 1.54 0.64
-6 -11 12 1.87 0.48
-6 -11 12 1.78 0.64
-6 -11 12 0.49 0.35
-6 -11 11 1.67 3.04
-6 -11 11 1.28 0.47
-6 -11 11 0.55 0.45
-6 -11 11 1.01 0.6
-6 -11 11 0.58 0.37
-6 -11 11 -0.05 0.35
-6 -11 11 0.84 0.62
-6 -11 11 4.22 2.24
-6 -11 11 1.45 3.74
-6 -11 10 -2.3 3.36
-6 -11 10 0.66 0.49
-6 -11 10 0.33 0.57
-6 -11 10 -0.22 0.53
-6 -11 10 0.35 0.5
-6 -11 10 0.51 0.44
-6 -11 10 0.14 0.49
-6 -11 10 -1.68 2.05
-6 -11 10 -2.89 5.52
-6 -11 9 4.05 4.61
-6 -11 9 4.74 0.91
-6 -11 9 4.01 1.01
-6 -11 9 6.41 1.22
-6 -11 9 6 1.2
-6 -11 9 5.26 0.98
-6 -11 9 5.17 0.95
-6 -11 9 4.84 1.11
-6 -11 9 5.35 1.39
-6 -11 8 49.23 11.37
-6 -11 8 44.38 2.64
-6 -11 8 47.06 2.7
-6 -11 8 41.5 2.56
-6 -11 8 42.17 3.09
-6 -11 8 43.39 2.76
-6 -11 8 40.07 2.87
-6 -11 8 42.92 2.75
-6 -11 8 38.34 2.85
-6 -11 7 26.67 8.37
-6 -11 7 26.5 2.07
-6 -11 7 31.81 2.17
-6 -11 7 27.86 2.04
-6 -11 7 26.2 2.5
-6 -11 7 28.3 2.25
-6 -11 7 26.53 2.37
-6 -11 7 26.29 2.2
-6 -11 7 28.24 2.02
-6 -11 7 25.85 2.28
-6 -11 6 24.58 8.17
-6 -11 6 26.15 2.07
-6 -11 6 27.36 2.02
-6 -11 6 23.6 1.83
-6 -11 6 29.54 2.65
-6 -11 6 24.79 2.14
-6 -11 6 25.54 2.25
-6 -11 6 29.27 2.36
-6 -11 6 23.53 2.01
-6 -11 6 24.02 2.09
-6 -11 5 1.85 0.63
-6 -11 5 3.35 0.84
-6 -11 5 4.36 0.86
-6 -11 5 3.4 1.07
-6 -11 5 3.62 0.87
-6 -11 5 3.1 0.68
-6 -11 5 2.92 0.74
-6 -11 5 3.41 0.88
-6 -11 5 3.63 0.96
-6 -11 5 3.77 3.74
-6 -11 4 14.55 1.3
-6 -11 4 14.16 1.28
-6 -11 4 13.92 1.84
-6 -11 4 15.79 1.77
-6 -11 4 13.04 1.52
-6 -11 4 19.4 1.93
-6 -11 4 15.7 1.82
-6 -11 4 13.95 1.53
-6 -11 4 19.02 7.41
-6 -11 3 18.61 1.81
-6 -11 3 18.76 2.12
-6 -11 3 16.46 1.79
-6 -11 3 18.97 1.91
-6 -11 3 17.52 1.99
-6 -11 3 14.83 9
-6 -11 3 21.38 7.68
-6 -11 2 1.66 0.66
-6 -11 2 1.5 1.05
-6 -11 2 1.14 0.94
-6 -11 2 0.83 0.66
-6 -11 2 1.47 0.76
-6 -11 2 1.93 0.67
6 11 -2 1.51 0.24
-6 -11 2 2.38 5.78
-6 -11 1 6.41 1.12
-6 -11 1 6.51 2.54
-6 -11 1 5.86 1.15
-6 -11 1 4.92 1.23
6 11 -1 5.47 0.41
-6 -11 1 6.44 1.21
-6 -11 1 4.79 7.56
-6 -11 0 0.52 0.43
-6 -11 0 -0.45 0.64
-6 -11 0 -0.46 0.71
6 11 0 0.66 0.19
-6 -11 0 1.21 0.75
-6 -11 0 0.51 13.07
-6 -11 -1 35.38 2.52
-6 -11 -1 34.66 2.42
-6 -11 -1 32.69 2.64
-6 -11 -1 33.56 16.39
-6 -11 -2 50.22 3.06
-6 -11 -2 52.1 2.88
-6 -11 -2 58.53 3.49
-6 -11 -3 3.4 0.87
-6 -11 -3 2.72 0.71
-6 -11 -3 3.45 0.9
-6 -11 -4 1.63 0.75
-6 -11 -4 0.73 0.42
-6 -11 -4 1.6 0.7
-6 -11 -5 12.65 1.42
-6 -11 -5 16.38 1.77
-6 -11 -6 9.41 1.14
-6 -11 -6 12.85 3.42
-6 -11 -6 10.74 1.34
-6 -11 -7 20.43 1.5
-6 -11 -7 21.4 1.74
-6 -11 -8 6.1 0.72
-6 -11 -8 6.99 0.75
-6 -11 -8 7.92 0.91
-6 -11 -9 11.87 0.75
-6 -11 -9 13.57 0.89
-6 -12 14 1.83 0.42
-6 -12 14 5.58 2.31
-6 -12 13 8.77 3.09
-6 -12 13 9.93 0.82
-6 -12 13 8.59 0.98
-6 -12 13 7.55 0.89
-6 -12 12 4.4 2.73
-6 -12 12 4.08 0.79
-6 -12 12 5.61 9.98
-6 -12 12 4.68 0.74
-6 -12 12 5.33 0.88
-6 -12 11 19.13 5.77
-6 -12 11 18.72 1.43
-6 -12 11 17.73 1.46
-6 -12 11 17.76 1.6
-6 -12 11 17.32 1.22
-6 -12 11 19.77 1.71
-6 -12 11 18.67 2.27
-6 -12 11 11.3 9.92
-6 -12 11 18.99 1.68
-6 -12 10 24.67 6.99
-6 -12 10 22.05 1.67
-6 -12 10 21.05 1.65
-6 -12 10 21.43 1.93
-6 -12 10 22.89 1.58
-6 -12 10 19.48 1.83
-6 -12 10 26.02 2.86
-6 -12 10 21.16 1.86
-6 -12 9 4.74 3.22
-6 -12 9 2.17 0.63
-6 -12 9 1.71 0.72
-6 -12 9 2.44 0.74
-6 -12 9 5.03 0.87
-6 -12 9 2.69 0.69
-6 -12 9 2.39 0.76
-6 -12 9 0.01 1.81
-6 -12 9 0.87 5.91
-6 -12 8 -1.45 3.14
-6 -12 8 1.89 0.68
-6 -12 8 1.58 0.66
-6 -12 8 1.17 0.73
-6 -12 8 1.13 0.51
-6 -12 8 1.24 0.52
-6 -12 8 1.36 0.7
-6 -12 8 -0.7 1.27
-6 -12 8 1.32 4.38
-6 -12 7 -0.22 0.48
-6 -12 7 -0.23 0.39
-6 -12 7 -0.2 0.8
-6 -12 7 0.62 0.55
-6 -12 7 0.39 0.39
-6 -12 7 -0.11 0.54
-6 -12 7 0.12 0.53
-6 -12 7 0.92 0.89
-6 -12 7 -0.72 0.62
-6 -12 7 1.61 5.55
-6 -12 7 -0.87 1.93
-6 -12 6 29.28 2.18
-6 -12 6 27.68 1.91
-6 -12 6 26.88 1.91
-6 -12 6 29.09 2.54
-6 -12 6 27.05 2.15
-6 -12 6 27.21 2.19
-6 -12 6 29.29 2.32
-6 -12 6 24.32 1.96
-6 -12 6 23.43 9.97
-6 -12 6 22.87 1.88
-6 -12 6 22.39 7.32
-6 -12 5 -0.37 0.48
-6 -12 5 -0.6 0.54
-6 -12 5 -0.27 0.77
-6 -12 5 0.18 0.59
-6 -12 5 0.25 0.4
-6 -12 5 0.34 0.43
-6 -12 5 -0.41 0.63
-6 -12 5 0.33 0.57
-6 -12 5 -1.52 6.61
-6 -12 5 -0.5 1.81
-6 -12 4 0.65 0.54
-6 -12 4 0.21 1
-6 -12 4 0.19 0.7
-6 -12 4 0.45 0.35
-6 -12 4 1.07 0.67
-6 -12 4 -0.67 0.68
-6 -12 3 -0.61 0.58
-6 -12 3 1.52 1.61
-6 -12 3 -0.87 1.18
-6 -12 3 0.48 0.79
-6 -12 3 0.65 0.75
-6 -12 3 0.13 0.35
-6 -12 3 3.41 8.91
-6 -12 2 33.12 3.55
-6 -12 2 29.82 2.36
-6 -12 2 27.86 2.56
-6 -12 2 27.66 2.14
-6 -12 2 29.06 2.27
-6 -12 2 20.57 13.43
-6 -12 1 25.77 2.13
-6 -12 1 27.83 2.2
-6 -12 1 28.07 2.24
-6 -12 1 24.12 18.61
-6 -12 0 2.06 0.67
-6 -12 0 1.97 0.73
-6 -12 0 2.45 0.83
-6 -12 0 12.89 16.44
-6 -12 -1 3.42 0.93
-6 -12 -1 4.24 0.85
-6 -12 -1 4.22 0.99
-6 -12 -2 12.8 1.49
-6 -12 -2 12.65 1.28
-6 -12 -2 15.64 1.74
-6 -12 -3 29.31 2.14
-6 -12 -3 30.58 1.73
-6 -12 -3 30.24 2.39
-6 -12 -4 24.95 1.9
-6 -12 -4 28.14 2.2
-6 -12 -5 83.4 5.54
-6 -12 -5 76.04 3.5
-6 -12 -6 2.42 0.54
-6 -12 -6 3.01 1.62
-6 -12 -6 1.98 0.61
-6 -12 -7 7.31 0.73
-6 -12 -7 10.8 1.17
-6 -12 -7 9.64 1.01
6 12 8 37.12 4.86
-6 -12 -8 40.53 1.64
-6 -13 13 10.34 0.82
-6 -13 13 10.04 2.63
-6 -13 12 27.99 1.49
-6 -13 12 26.22 1.55
-6 -13 12 24.93 1.55
-6 -13 12 23.61 4.93
-6 -13 11 13.52 1.2
-6 -13 11 12.48 1.19
-6 -13 11 6.1 10.53
-6 -13 11 11.74 1.18
-6 -13 11 10.46 3.8
-6 -13 10 0.1 0.4
-6 -13 10 -0.83 0.46
-6 -13 10 -0.25 0.53
-6 -13 10 -0.03 0.34
-6 -13 10 0.53 0.39
-6 -13 10 -0.33 0.43
-6 -13 10 3.4 2.18
-6 -13 10 -1.78 12.11
-6 -13 10 1.32 1.45
-6 -13 9 2.8 0.64
-6 -13 9 1.59 0.6
-6 -13 9 3.1 0.87
-6 -13 9 2.52 0.6
-6 -13 9 2.46 0.55
-6 -13 9 2.51 0.72
-6 -13 9 3.09 2.6
-6 -13 9 2.51 2.51
-6 -13 8 25.09 1.78
-6 -13 8 22.94 1.65
-6 -13 8 25.62 2.19
-6 -13 8 22.98 1.65
-6 -13 8 22.37 1.81
-6 -13 8 23.69 2.51
-6 -13 8 19.34 13.1
-6 -13 8 19.65 1.67
-6 -13 8 19.32 6.21
-6 -13 7 0.02 0.45
-6 -13 7 0.43 0.41
-6 -13 7 0.08 0.89
-6 -13 7 0.1 0.3
-6 -13 7 -0.24 0.63
-6 -13 7 -0.43 0.48
-6 -13 7 1.64 1.34
-6 -13 6 81.09 3.57
-6 -13 6 83.91 3.27
-6 -13 6 88.99 4.36
-6 -13 6 84.34 3.6
-6 -13 6 71.37 3.26
-6 -13 6 86.33 3.88
-6 -13 6 65.49 18.11
-6 -13 6 71.21 2.99
-6 -13 6 71.66 11.64
-6 -13 5 96.92 4.01
-6 -13 5 93.88 3.42
-6 -13 5 98.53 4.78
-6 -13 5 96.92 4.19
-6 -13 5 87.34 21.5
-6 -13 4 22.1 1.86
-6 -13 4 20.76 1.44
-6 -13 4 20.95 3.06
-6 -13 4 21.2 1.89
-6 -13 4 19.38 17.75
-6 -13 3 9.11 1.23
-6 -13 3 8.65 1.24
-6 -13 3 9.75 1.08
-6 -13 3 19.02 18.71
-6 -13 2 2.57 0.69
-6 -13 2 3 0.91
-6 -13 2 1.59 0.63
-6 -13 2 11.62 18.98
-6 -13 1 5.12 0.92
-6 -13 1 6.99 1.08
-6 -13 1 5.46 1
-6 -13 0 1.96 0.65
-6 -13 0 2.5 0.74
-6 -13 0 2 0.68
-6 -13 -1 -0.06 0.42
-6 -13 -1 -0.11 0.4
-6 -13 -1 0.19 0.42
-6 -13 -2 0.29 0.44
-6 -13 -2 -0.34 0.37
-6 -13 -2 -0.47 0.45
-6 -13 -3 40.34 2.26
-6 -13 -3 43.09 2.59
-6 -13 -4 51.25 4.4
-6 -13 -4 44.74 2.51
-6 -13 -5 15.7 1.16
-6 -13 -5 18.51 2.34
-6 -13 -5 17.36 1.44
-6 -13 -6 5.64 0.59
-6 -13 -6 8.69 1.1
-6 -13 -6 7.5 0.85
-6 -13 -7 1.2 0.32
-6 -14 10 0.28 0.25
-6 -14 10 -4 9.05
-6 -14 10 0.25 0.29
-6 -14 9 0.39 0.29
-6 -14 9 0.29 0.28
-6 -14 9 2.62 1.54
-6 -14 9 0.52 0.3
-6 -14 9 1.25 2.22
-6 -14 8 1.4 0.38
-6 -14 8 1.73 0.45
-6 -14 8 2.06 1.61
-6 -14 8 2.55 0.51
-6 -14 8 3.08 2.39
-6 -14 8 6.98 14.86
-6 -14 7 0.52 0.38
-6 -14 7 2.36 2.18
-6 -14 7 0.77 0.36
-6 -14 7 -0.5 1.95
-6 -14 6 0.68 0.44
-6 -14 6 0.17 0.27
-6 -14 6 1.1 1.58
-6 -14 6 -4.08 17.27
-6 -14 5 28.36 1.89
-6 -14 5 24.52 1.41
-6 -14 5 25.74 2.17
-6 -14 5 25.27 18.19
-6 -14 4 105.07 3.94
-6 -14 4 101.73 4.05
-6 -14 3 0.32 0.45
-6 -14 3 -0.25 0.78
-6 -14 3 7.48 14.07
-6 -14 2 6.45 0.96
-6 -14 2 7.05 1.12
-6 -14 2 5.6 0.83
-6 -14 1 -0.21 0.42
-6 -14 1 -0.75 0.64
-6 -14 1 0 0.34
-6 -14 0 117.07 4.14
-6 -14 0 125.88 3.9
-6 -14 0 125.64 4.41
-6 -14 -1 62.81 2.77
-6 -14 -1 64.32 2.43
-6 -14 -1 69.32 3.11
-6 -14 -2 -0.05 0.32
-6 -14 -2 1.77 3.39
-6 -14 -2 -0.26 0.41
-6 -14 -3 27 1.53
-6 -14 -3 28.15 1.78
-6 -14 -4 0.06 0.22
-6 -14 -4 0.45 1.3
-6 -14 -4 0.29 0.3
-6 -14 -5 3.05 0.66
-6 -14 -5 2.61 0.49
-6 -15 9 69.59 2.12
-6 -15 8 9.02 0.77
-6 -15 8 8.62 0.64
-6 -15 7 4.35 0.6
-6 -15 7 3.83 0.46
-6 -15 6 32.52 1.69
-6 -15 6 29.92 1.28
-6 -15 6 35.11 2.77
-6 -15 5 13.91 1.12
-6 -15 5 14.08 2.03
-6 -15 4 1.36 0.41
-6 -15 4 1.75 1.47
-6 -15 3 4.54 0.68
-6 -15 3 4.78 1.42
-6 -15 2 0.39 0.31
-6 -15 2 -1.39 1.21
-6 -15 2 1.05 2.7
-6 -15 2 0 0.27
-6 -15 1 -0.35 0.33
-6 -15 1 0.42 0.32
-6 -15 0 16.73 1.17
-6 -15 0 17.25 1.29
-6 -15 0 19.74 3.03
-6 -15 0 18.79 1.28
-6 -15 -1 2.26 0.45
-6 -15 -1 3.22 2.03
-6 -15 -1 2.86 0.56
-6 -15 -2 21.29 1.1
-6 -15 -2 27.13 2.15
-6 -15 -2 24.94 1.4
-6 -15 -3 2.53 0.74
-6 -15 -3 0.51 0.28
-6 -16 6 54.9 2.24
-6 -16 5 2.69 0.39
-6 -16 5 5.96 1.54
-6 -16 4 6.32 0.58
-6 -16 4 3.75 1.42
-6 -16 3 27.28 1.22
-6 -16 3 26.54 1.63
-6 -16 2 -0.01 0.18
-6 -16 2 -1.47 0.96
-6 -16 1 18.44 1.47
7 -17 1 22.8 1.3
7 -17 2 5.17 0.67
7 -17 3 0.77 0.37
7 -17 4 21.35 1.34
7 -16 -4 4.84 0.69
7 -16 -3 6.03 0.91
7 -16 -2 39.38 2.52
7 -16 -1 9.13 0.93
7 -16 -1 9.82 1.36
7 -16 0 5.75 0.51
7 -16 0 6.94 1.18
7 -16 0 7.59 0.99
7 -16 1 1.06 0.28
7 -16 1 2.26 0.8
7 -16 1 1.6 0.59
7 -16 2 22.46 1.19
7 -16 2 20.45 1.96
7 -16 2 23.43 1.87
7 -16 3 0.67 0.29
7 -16 3 -0.62 0.47
7 -16 3 -0.48 0.25
7 -16 3 -0.05 0.45
7 -16 4 3.39 0.44
7 -16 4 2.96 0.47
7 -16 4 3.45 0.82
7 -16 5 6.93 0.62
7 -16 5 7.33 0.71
7 -16 5 6.61 0.98
7 -16 6 1.42 0.32
7 -16 6 1.38 0.31
7 -16 6 0.84 0.45
7 -16 7 1.94 0.33
7 -16 7 1.71 0.36
7 -16 8 10.48 0.66
7 -15 -6 8.8 0.91
-7 15 5 0.53 1.17
7 -15 -5 2.01 0.62
7 -15 -5 1.79 0.38
7 -15 -4 31.71 2.36
-7 15 4 24.79 4.19
7 -15 -4 26.88 1.47
7 -15 -3 0.5 0.55
7 -15 -3 0.25 0.31
7 -15 -3 0.53 0.33
-7 15 3 0.24 1.72
7 -15 -2 1.4 0.42
7 -15 -2 1.16 0.33
7 -15 -2 1.52 0.8
7 -15 -2 0.97 0.48
7 -15 -1 1.99 0.4
7 -15 -1 3.49 1.12
7 -15 -1 2.19 0.65
7 -15 -1 2.28 0.5
7 -15 0 -0.49 0.61
7 -15 0 0.26 0.28
7 -15 0 1.11 0.72
7 -15 1 6.31 0.79
7 -15 1 5.7 1.38
7 -15 1 6.18 1.23
7 -15 2 6.29 0.68
7 -15 2 7.01 0.84
7 -15 2 5.89 1.3
7 -15 2 6.07 1.24
7 -15 3 0.49 0.3
7 -15 3 0.04 0.36
7 -15 3 -0.11 0.61
7 -15 3 -0.06 0.54
7 -15 4 3.48 0.6
7 -15 4 4.34 0.72
7 -15 4 3.3 1.02
7 -15 4 2.71 0.87
7 -15 5 21.56 1.44
7 -15 5 21.83 1.49
7 -15 5 20.99 2.04
7 -15 6 5.13 0.72
7 -15 6 5.6 0.74
7 -15 6 3.83 0.86
7 -15 7 4.98 0.7
7 -15 7 4.6 0.67
7 -15 7 5.59 0.97
7 -15 8 -0.06 0.29
7 -15 8 0.49 0.27
7 -15 9 23.79 1.23
7 -15 9 22.27 1.13
7 -15 9 21.2 1.14
7 -15 10 3.2 0.37
-7 14 8 2.39 1.16
7 -14 -8 5.65 0.58
7 -14 -7 2.77 0.6
7 -14 -7 1.32 0.3
-7 14 7 2.89 1.85
7 -14 -7 2.13 0.46
7 -14 -6 0.34 0.43
7 -14 -6 0.15 0.2
-7 14 6 0.58 1.08
7 -14 -6 0.98 0.46
7 -14 -5 0.44 0.54
7 -14 -5 0.91 0.32
7 -14 -5 1.21 0.48
7 -14 -4 -0.23 0.23
7 -14 -4 0.25 0.6
7 -14 -4 0.3 0.25
-7 14 4 1.32 1.58
7 -14 -4 -0.11 0.5
7 -14 -3 15.28 1.08
7 -14 -3 19.01 2.28
-7 14 3 14.74 4.18
7 -14 -3 15.27 1.49
7 -14 -3 17.68 1.51
-7 14 2 21.02 4.95
7 -14 -2 23.8 1.98
7 -14 -2 22.96 1.49
7 -14 -2 25.52 2.65
7 -14 -2 22.5 1.82
7 -14 -1 1.18 0.72
7 -14 -1 0.82 0.43
7 -14 -1 1.22 0.89
7 -14 -1 0.07 0.37
7 -14 0 -0.49 0.42
7 -14 0 0.76 0.68
7 -14 0 0.42 0.85
-7 14 0 0.21 0.16
7 -14 0 0.11 0.44
7 -14 1 0.43 0.32
7 -14 1 0.19 0.37
7 -14 1 -0.55 0.86
-7 14 -1 -0.19 0.17
7 -14 1 0.41 0.67
7 -14 2 1.89 0.6
7 -14 2 3.21 0.7
7 -14 2 1.65 1.04
7 -14 2 2.37 0.92
-7 14 -2 1.89 0.25
7 -14 3 10.01 1.11
7 -14 3 10.11 1.19
7 -14 3 10.74 1.93
-7 14 -3 10.17 0.51
7 -14 3 8.64 1.6
7 -14 4 87.06 3.5
7 -14 4 73.4 4.39
7 -14 4 86.59 3.51
7 -14 4 73.82 4.84
-7 14 -4 83.37 1.9
7 -14 5 0.85 0.46
7 -14 5 0.99 0.42
7 -14 5 0.81 0.87
7 -14 5 0.33 0.64
7 -14 6 0.6 0.42
7 -14 6 0.68 0.63
7 -14 7 8 1.01
7 -14 7 8.01 0.97
7 -14 7 6.64 1.18
7 -14 8 12.05 1.15
7 -14 8 10.59 1.01
7 -14 9 -0.1 0.32
7 -14 9 -0.15 0.35
7 -14 10 24.61 1.36
7 -14 10 25.16 1.41
7 -14 11 41.19 1.5
7 -14 11 45.24 1.64
-7 13 9 1.47 1.47
7 -13 -9 2.16 0.48
7 -13 -8 15.74 1.27
-7 13 8 13.99 3.92
7 -13 -8 16.62 1.39
7 -13 -7 2.19 0.68
-7 13 7 1.77 1.94
7 -13 -7 2.13 0.62
7 -13 -6 0.35 0.53
-7 13 6 0.76 2.52
7 -13 -6 0.71 0.69
7 -13 -5 -0.04 0.24
7 -13 -5 0.24 0.73
7 -13 -5 -0.18 0.53
7 -13 -4 7.42 0.89
7 -13 -4 8.25 1.56
7 -13 -4 4.75 0.72
-7 13 4 5.06 3.85
7 -13 -4 6.01 1.11
7 -13 -3 5.02 0.8
7 -13 -3 7.44 1.57
7 -13 -3 4.94 1.01
-7 13 3 5.33 0.39
7 -13 -3 4.82 0.97
7 -13 -2 29.4 1.94
7 -13 -2 28.89 3.03
-7 13 2 27.27 7.15
7 -13 -2 29.54 2.44
-7 13 2 29.49 0.94
7 -13 -2 27.28 2.33
7 -13 -1 11.6 1.28
7 -13 -1 11.27 1.99
-7 13 1 9.92 4.62
7 -13 -1 12.69 1.58
7 -13 -1 10.86 1.64
-7 13 1 12.93 0.6
7 -13 0 46.74 2.6
7 -13 0 47.98 4.11
7 -13 0 43.37 3.3
7 -13 0 43.03 2.79
-7 13 0 43.95 1.29
7 -13 1 9.85 1.2
7 -13 1 12.16 2.24
7 -13 1 9.78 1.27
7 -13 1 8.48 1.58
-7 13 -1 9.63 0.56
7 -13 2 31.22 2.91
7 -13 2 34.49 2.28
7 -13 2 32.56 3.47
7 -13 2 30.37 2.05
-7 13 -2 31.3 1.09
7 -13 3 18.93 1.73
7 -13 3 18.71 2.79
7 -13 3 17.14 2.18
-7 13 -3 18.81 0.8
7 -13 4 0.79 0.41
7 -13 4 0.67 0.48
7 -13 4 0.19 0.77
7 -13 4 0.37 0.8
-7 13 -4 0.91 0.22
7 -13 5 2.67 0.54
7 -13 5 2.21 0.65
7 -13 5 2.91 1.22
7 -13 5 0.85 0.77
-7 13 -5 2.67 0.3
7 -13 6 43.02 2.62
7 -13 6 42.01 2.38
7 -13 6 38.76 1.95
7 -13 6 35.75 3.17
-7 13 -6 38.3 1.15
-7 13 -7 8.76 0.47
7 -13 7 9.47 0.94
7 -13 7 8.25 1.12
7 -13 7 8.42 1.09
7 -13 7 7.1 1.32
7 -13 8 17.5 1.52
7 -13 8 15.98 1.38
7 -13 8 14.08 1.11
7 -13 9 1.94 0.64
7 -13 9 1.15 0.34
7 -13 9 0.95 0.46
7 -13 10 18.63 1.35
7 -13 10 17.27 1.25
7 -13 11 1.93 0.5
7 -13 11 1.19 0.38
7 -13 12 0.15 0.23
7 -13 12 0.04 0.16
-7 12 10 3.21 1.81
7 -12 -10 3.61 0.59
-7 12 9 49.9 8.15
7 -12 -9 45.92 2.48
7 -12 -8 22.09 1.79
-7 12 8 21.82 1.91
-7 12 8 18.2 5.62
7 -12 -8 18.4 1.76
7 -12 -7 8.62 1.44
-7 12 7 7.75 1.29
-7 12 7 8.95 4.09
7 -12 -7 6.85 1.14
7 -12 -6 9.2 0.91
7 -12 -6 9.56 1.57
-7 12 6 9.06 1.51
-7 12 6 5.06 3.02
7 -12 -6 9.35 1.46
7 -12 -5 6.83 0.87
7 -12 -5 7.74 1.48
7 -12 -5 7.96 1.43
7 -12 -4 29.9 1.92
7 -12 -4 30.83 3.06
-7 12 4 31.56 8.78
7 -12 -4 30.2 2.62
-7 12 4 27.85 0.87
7 -12 -3 35.46 2.55
7 -12 -3 39.03 2.32
-7 12 3 39.15 9.18
7 -12 -3 35.52 3.39
7 -12 -3 32.58 2.77
-7 12 3 32.42 1.01
7 -12 -2 64.66 3.1
7 -12 -2 65.51 4.71
-7 12 2 56.33 11.14
7 -12 -2 59.51 3.74
-7 12 2 57.26 1.54
7 -12 -2 58.7 3.59
7 -12 -1 59.1 3.81
7 -12 -1 66.51 3.23
7 -12 -1 61.6 2.67
7 -12 -1 63.34 4.78
7 -12 -1 59.9 3.69
-7 12 1 61.55 1.64
7 -12 0 1.37 0.56
7 -12 0 0.93 0.61
7 -12 0 0.83 0.85
-7 12 0 2.1 2
7 -12 0 0.36 0.56
7 -12 0 0.43 0.72
-7 12 0 1.27 0.26
7 -12 1 32.52 2.26
7 -12 1 30.38 1.89
7 -12 1 29.11 2.85
7 -12 1 33.04 3.48
7 -12 1 26.08 2.26
-7 12 -1 28.95 1.07
7 -12 2 1.29 0.51
7 -12 2 1.17 0.57
7 -12 2 1.39 0.94
7 -12 2 1.6 0.66
-7 12 -2 1.88 0.32
7 -12 2 1.12 0.84
7 -12 3 23.07 1.95
7 -12 3 20.78 1.62
7 -12 3 20.73 2.86
7 -12 3 19.46 2.41
7 -12 3 21.08 1.78
-7 12 -3 22.66 0.93
7 -12 4 154.14 5.26
7 -12 4 142.94 4.7
7 -12 4 126.35 7.23
7 -12 4 129.33 6.58
-7 12 -4 140.71 3.1
7 -12 5 270.33 7.51
7 -12 5 259.76 6.93
7 -12 5 223.1 9.92
7 -12 5 219.92 9.07
-7 12 -5 257.65 5
7 -12 6 4.9 0.85
7 -12 6 5.18 0.88
7 -12 6 5.08 1.63
7 -12 6 5.15 1.48
-7 12 -6 5.18 0.43
7 -12 7 14.31 1.47
7 -12 7 12.53 1.25
7 -12 7 11.43 1.81
-7 12 -7 12.85 0.63
7 -12 8 15.29 1.56
-7 12 -8 13.69 0.61
7 -12 8 14.43 1.4
7 -12 8 13.56 1.27
7 -12 8 10.18 1.68
7 -12 9 3.06 0.78
7 -12 9 4.48 0.77
7 -12 9 4.26 0.75
7 -12 10 30.14 1.87
7 -12 10 29.89 1.76
7 -12 10 28.4 1.68
7 -12 11 4.56 0.76
7 -12 11 3.51 0.58
7 -12 12 0.04 0.32
7 -12 12 -0.33 0.24
7 -12 13 3.96 0.5
-7 11 11 16.41 1.3
7 -11 -11 17.09 1.24
-7 11 10 23.22 1.89
-7 11 10 19.22 5.13
7 -11 -10 23.51 1.77
7 -11 -9 6.91 0.97
-7 11 9 5.64 1.16
-7 11 9 3.7 2.04
7 -11 -9 6.39 1.1
7 -11 -8 0.53 0.33
7 -11 -8 1.04 0.64
-7 11 8 0.32 0.61
-7 11 8 0.54 2.11
7 -11 -8 0.64 0.55
7 -11 -7 0.32 0.39
7 -11 -7 0.16 0.59
-7 11 7 0.19 0.64
-7 11 7 -0.42 3.08
7 -11 -7 -0.44 0.63
7 -11 -6 0.41 0.65
7 -11 -6 -0.56 0.42
7 -11 -6 -0.13 0.36
7 -11 -6 0.66 0.76
-7 11 6 -0.06 0.73
7 -11 -5 3.88 0.72
7 -11 -5 5.08 0.87
7 -11 -5 5.47 1.46
-7 11 5 5.66 1.41
-7 11 5 5.27 3.91
7 -11 -5 4.95 1.22
7 -11 -4 5.56 0.82
7 -11 -4 6.18 1.02
7 -11 -4 6.2 1.43
-7 11 4 7.14 1.5
-7 11 4 2.49 2.13
7 -11 -4 5.45 1.28
-7 11 4 5.55 0.39
7 -11 -3 2.59 0.67
7 -11 -3 3.49 0.79
7 -11 -3 5.1 1.37
-7 11 3 5.17 2.72
7 -11 -3 2.87 0.79
7 -11 -3 4.21 1.15
-7 11 3 2.98 0.32
7 -11 -2 55.61 3.49
7 -11 -2 55.54 2.76
7 -11 -2 57.75 3.05
7 -11 -2 59.78 4.54
-7 11 2 43.73 10.07
7 -11 -2 49.53 3.53
-7 11 2 50.49 1.46
7 -11 -1 68.41 4.12
7 -11 -1 69.95 3.18
7 -11 -1 76.22 3.58
7 -11 -1 76 5.17
-7 11 1 63.1 11.67
7 -11 -1 64.82 3.98
-7 11 1 71.03 1.84
-7 11 0 187.4 19.12
7 -11 0 181.36 7.37
7 -11 0 199.06 6.2
7 -11 0 180.62 5.67
7 -11 0 204.75 8.87
7 -11 0 175.18 6.8
-7 11 0 186.75 3.86
7 -11 1 43.8 3.43
7 -11 1 44.09 2.67
7 -11 1 42.29 2.45
-7 11 -1 37.39 7.72
7 -11 1 44.99 4.06
7 -11 1 41.2 2.92
-7 11 -1 41.94 1.35
7 -11 2 0.73 0.41
7 -11 2 0.53 0.68
7 -11 2 0.52 0.61
7 -11 2 0.62 0.94
-7 11 -2 0.79 0.25
7 -11 2 0.89 0.66
7 -11 3 0.66 0.73
7 -11 3 1.21 0.58
7 -11 3 1.52 0.63
7 -11 3 1.1 0.89
7 -11 3 1.97 0.58
-7 11 -3 0.99 0.25
7 -11 4 2.46 0.72
7 -11 4 2.02 0.74
7 -11 4 2.09 1.25
7 -11 4 0.52 0.55
7 -11 4 2.83 1.13
-7 11 -4 1.5 0.29
7 -11 5 1.17 0.57
7 -11 5 1.65 0.65
7 -11 5 1.31 1.08
7 -11 5 1.13 0.99
-7 11 -5 1.76 0.3
7 -11 6 0.2 0.41
7 -11 6 0.6 0.56
7 -11 6 0.11 0.81
7 -11 6 -0.29 0.77
-7 11 -6 0.71 0.25
7 -11 7 3.87 0.86
7 -11 7 5.41 0.98
7 -11 7 3 1.01
-7 11 -7 4.04 0.38
7 -11 8 69.27 3.18
7 -11 8 65.96 3.17
-7 11 -8 62.16 1.66
7 -11 9 19.4 1.7
7 -11 9 17.34 1.51
7 -11 9 17.77 1.54
-7 11 -9 18.34 0.73
7 -11 10 33.38 2.05
7 -11 10 32.01 1.92
7 -11 10 32.21 2
-7 11 -10 33.24 0.97
7 -11 11 1.04 0.46
7 -11 11 1.23 0.42
7 -11 11 0.97 0.45
7 -11 11 1.32 0.47
7 -11 12 7.2 0.9
7 -11 12 6.19 0.65
7 -11 13 223.25 5.56
7 -11 14 2.05 0.35
-7 11 -14 1.9 1.18
-7 10 12 8.06 0.94
-7 10 12 9.71 2.89
7 -10 -12 7.74 0.76
-7 10 11 0.73 0.63
-7 10 11 0.39 1.22
7 -10 -11 -0.34 0.43
-7 10 10 8.56 1.38
-7 10 10 6.2 3.09
7 -10 -10 10.11 1.3
7 -10 -9 1.16 0.39
7 -10 -9 0.62 0.34
-7 10 9 1.23 0.72
7 -10 -9 1.26 0.83
7 -10 -8 3.98 0.7
7 -10 -8 5 0.78
7 -10 -8 4.32 1.01
-7 10 8 3.5 1.05
-7 10 8 5.21 4.12
7 -10 -8 5.61 1.24
7 -10 -7 67.35 3.08
7 -10 -7 74.71 3.22
-7 10 7 72.97 13.5
7 -10 -7 76.91 4.31
-7 10 7 75.25 4.58
7 -10 -7 73.67 4.35
7 -10 -6 3.47 0.73
7 -10 -6 4.27 0.86
7 -10 -6 3.83 1.16
-7 10 6 5.67 1.44
-7 10 6 5.79 3.92
7 -10 -6 4.91 1.23
7 -10 -5 -0.16 0.45
7 -10 -5 -0.6 0.43
7 -10 -5 0.78 0.67
-7 10 5 0 0.71
7 -10 -5 0.61 0.76
7 -10 -4 4.16 0.79
7 -10 -4 5.02 0.96
7 -10 -4 5.1 1.37
-7 10 4 7.07 1.64
-7 10 4 4.76 3.33
7 -10 -4 5.33 1.33
-7 10 4 4.76 0.36
7 -10 -3 0.2 0.4
7 -10 -3 0.45 0.51
7 -10 -3 0.97 0.96
-7 10 3 0.42 0.75
7 -10 -3 0.01 0.52
7 -10 -3 -0.03 0.67
-7 10 3 0.31 0.19
7 -10 -2 33.99 2.26
7 -10 -2 34.63 2.32
7 -10 -2 33.36 3.3
-7 10 2 34.31 3.03
7 -10 -2 34.04 2.66
-7 10 2 30.68 8.55
7 -10 -2 32.92 2.87
-7 10 2 30.75 1.06
-7 10 1 221.98 21.97
7 -10 -1 221.32 6.58
7 -10 -1 239.79 6.99
7 -10 -1 237.99 9.34
7 -10 -1 222.59 7.85
7 -10 -1 210.52 7.71
-7 10 1 216.93 4.39
7 -10 0 4.77 0.93
7 -10 0 6.76 1.11
7 -10 0 8.4 1.8
-7 10 0 4.18 2.47
7 -10 0 7.08 1.31
-7 10 0 6.4 0.48
7 -10 0 6.31 1.36
7 -10 1 4.91 1.15
7 -10 1 3.73 0.82
7 -10 1 5.41 1
7 -10 1 5.35 1.42
7 -10 1 4.42 1.04
-7 10 -1 4.82 0.42
7 -10 2 2.17 0.59
7 -10 2 1.67 0.7
7 -10 2 1.4 0.91
7 -10 2 2 0.95
-7 10 -2 2.88 0.36
7 -10 2 1.97 0.58
7 -10 3 3.06 0.76
7 -10 3 2.44 0.7
7 -10 3 1.71 0.97
-7 10 -3 1.69 0.28
7 -10 3 2.44 0.96
7 -10 3 1.62 0.71
7 -10 4 10.99 1.92
7 -10 4 12.26 1.4
7 -10 4 13.07 1.44
7 -10 4 12.06 2.16
7 -10 4 12.8 1.44
-7 10 -4 13.05 0.7
7 -10 5 6.61 1.01
7 -10 5 7.01 1.1
7 -10 5 7.12 1.73
-7 10 -5 6.38 0.5
7 -10 5 6.95 1.6
7 -10 6 15.18 1.55
7 -10 6 15.11 1.54
7 -10 6 11.85 2.26
-7 10 -6 14.94 0.76
7 -10 6 14.15 2.2
7 -10 7 0.95 0.54
7 -10 7 1.66 0.69
7 -10 7 1.02 0.91
-7 10 -7 1.55 0.3
7 -10 8 22.56 1.8
7 -10 8 22.91 1.91
7 -10 8 19.71 2.43
-7 10 -8 22.25 0.89
7 -10 9 6.61 1.02
7 -10 9 5.9 0.88
-7 10 -9 4.46 0.38
7 -10 10 27.06 1.87
7 -10 10 24.35 1.71
7 -10 10 25.66 1.95
-7 10 -10 26.22 0.87
7 -10 11 4.23 0.71
7 -10 11 3.41 0.67
7 -10 11 3.53 0.6
7 -10 12 4.59 0.82
7 -10 12 4.32 0.57
7 -10 12 4.09 0.66
7 -10 13 98.75 3.44
7 -10 13 88.48 2.63
7 -10 14 0.31 0.33
-7 10 -14 -0.21 1.52
-7 9 13 18.09 1.32
-7 9 12 12.81 3.87
-7 9 12 10.38 1.32
7 -9 -12 11.53 1.08
7 -9 -11 6.97 0.77
-7 9 11 8.12 1.33
-7 9 11 10.39 4.06
7 -9 -11 10.77 1.28
7 -9 -10 4.57 0.77
7 -9 -10 4.73 0.67
-7 9 10 5.65 1.33
7 -9 -10 6.6 1.19
7 -9 -9 37.13 2.27
7 -9 -9 41.85 2.24
-7 9 9 42.19 3.31
-7 9 9 41.51 10.18
7 -9 -9 43.67 3.1
7 -9 -8 105.91 4.31
7 -9 -8 114.5 4.24
7 -9 -8 122.91 5.04
-7 9 8 115.64 5.78
-7 9 8 119.47 17.48
7 -9 -8 113.15 5.43
7 -9 -7 138.61 5.14
7 -9 -7 154.96 5.24
7 -9 -7 163.41 6.39
-7 9 7 142.37 6.68
-7 9 7 147.44 19.87
7 -9 -7 140.86 6.28
7 -9 -6 19.41 1.81
7 -9 -6 18.7 1.75
7 -9 -6 20.06 2.26
-7 9 6 22.23 2.57
-7 9 6 22.36 7.88
7 -9 -6 17.83 2.2
7 -9 -5 14.9 1.57
7 -9 -5 13.75 1.53
7 -9 -5 14.16 1.99
-7 9 5 12 2.17
-7 9 5 13.41 6.47
7 -9 -5 10.77 1.68
7 -9 -4 19.42 1.79
7 -9 -4 17.72 1.71
7 -9 -4 20.21 2.43
-7 9 4 17.7 2.36
-7 9 4 15.1 6.38
7 -9 -4 16.62 2.11
7 -9 -3 46.93 2.81
7 -9 -3 55.45 3.02
7 -9 -3 52.8 3.88
-7 9 3 52.65 3.92
-7 9 3 52.47 11.41
7 -9 -3 51.09 3.53
7 -9 -3 58.13 4.47
-7 9 3 48.72 1.35
7 -9 -2 223.24 7.45
-7 9 2 228.57 22.94
7 -9 -2 215.83 6.58
7 -9 -2 229.81 6.8
-7 9 2 252.69 22.58
7 -9 -2 232.28 8.81
-7 9 2 213.38 8.05
7 -9 -2 211.53 7.72
7 -9 -2 250.66 9.89
-7 9 2 214.18 4.28
7 -9 -1 73.16 4.01
7 -9 -1 69.73 3.38
7 -9 -1 78.03 3.56
7 -9 -1 79.14 4.92
-7 9 1 80.29 13.12
7 -9 -1 71.87 4.09
7 -9 -1 86.55 5.69
-7 9 1 70.58 1.85
-7 9 1 76.95 12.57
7 -9 0 26.53 2.5
7 -9 0 25.29 1.96
7 -9 0 24.95 2
7 -9 0 30.54 3.04
-7 9 0 29.2 8.09
7 -9 0 26.91 2.39
7 -9 0 28.72 3.26
-7 9 0 28.21 1.01
7 -9 1 13.7 1.45
7 -9 1 14.45 1.56
7 -9 1 14.26 2.38
7 -9 1 15.01 2.26
-7 9 -1 15.22 4.71
7 -9 1 14.37 1.69
-7 9 -1 13.97 0.7
7 -9 1 13.66 1.94
7 -9 2 2.5 0.98
7 -9 2 2.88 0.71
7 -9 2 4.32 1.33
7 -9 2 3.35 0.83
7 -9 2 2.42 1.07
-7 9 -2 6.13 4.72
7 -9 2 3.44 0.91
-7 9 -2 3.75 0.39
7 -9 3 1.48 0.57
7 -9 3 1.57 0.76
7 -9 3 1.06 0.5
7 -9 3 1.43 0.85
7 -9 3 1.85 0.8
7 -9 3 1.62 0.94
-7 9 -3 1.69 0.28
7 -9 4 140.38 7.15
7 -9 4 165.93 5.33
7 -9 4 160.83 5.5
7 -9 4 148.04 7.72
7 -9 4 138.54 6.78
7 -9 4 147.29 5.55
7 -9 4 162.79 7.82
-7 9 -4 158.83 3.38
7 -9 5 1.98 0.67
7 -9 5 2.13 0.71
7 -9 5 2.68 1.12
7 -9 5 1.18 1.04
-7 9 -5 2.31 0.34
7 -9 6 37.18 2.35
7 -9 6 41.33 2.58
7 -9 6 37.4 3.9
7 -9 6 33.4 3.29
-7 9 -6 37.96 1.29
7 -9 7 78.08 3.46
7 -9 7 79.36 3.71
7 -9 7 69.03 4.78
-7 9 -7 74.45 2
7 -9 8 49.68 2.65
7 -9 8 50.89 2.97
-7 9 -8 50.22 1.5
7 -9 9 79.11 3.35
7 -9 9 82.8 3.77
-7 9 -9 78.33 1.98
-7 9 -9 83.22 11.82
7 -9 10 15.88 1.49
7 -9 10 18.56 1.44
7 -9 10 16.47 1.63
-7 9 -10 14.11 5.05
-7 9 -10 17.23 0.71
7 -9 11 0.59 0.41
7 -9 11 1.16 0.56
7 -9 11 1.19 0.45
-7 9 -11 0.4 0.16
7 -9 12 12.98 1.38
7 -9 12 12.31 1.18
7 -9 13 193.84 5.51
7 -9 13 181.14 4.89
7 -9 14 0.97 0.43
7 -9 14 1.2 0.32
7 -9 15 1.14 0.28
-7 9 -15 2.51 1.39
-7 8 14 0 0.29
7 -8 -13 0.44 0.24
-7 8 13 1.17 0.57
-7 8 13 1.93 1.36
7 -8 -13 0.58 0.31
7 -8 -12 19.09 1.33
-7 8 12 24.2 2.12
-7 8 12 30.54 6.33
7 -8 -12 29.06 1.86
7 -8 -11 0.58 0.38
7 -8 -11 0.35 0.33
-7 8 11 0.42 0.68
-7 8 11 -1.25 3.11
7 -8 -11 -0.18 0.5
7 -8 -10 1.21 0.56
7 -8 -10 1.95 0.55
-7 8 10 2.17 1.03
-7 8 10 3.24 3.98
7 -8 -10 2.5 0.84
7 -8 -9 26.75 2.14
7 -8 -9 29.81 2.08
-7 8 9 28.14 2.79
-7 8 9 29.09 8.48
7 -8 -9 27.07 2.53
7 -8 -8 16.16 1.73
7 -8 -8 17.44 1.69
-7 8 8 17.32 2.27
-7 8 8 19.56 7.36
7 -8 -8 16.74 2.07
7 -8 -7 15.64 1.77
7 -8 -7 18.26 1.75
7 -8 -7 18.71 1.99
-7 8 7 17.87 2.32
-7 8 7 15.65 6.78
7 -8 -7 15.98 2
7 -8 -6 0.02 0.43
7 -8 -6 0.04 0.5
7 -8 -6 1.4 0.83
-7 8 6 0.44 0.67
7 -8 -6 -0.41 0.79
7 -8 -5 72.14 3.63
7 -8 -5 75.71 3.61
7 -8 -5 78.27 4.39
-7 8 5 71.83 4.49
-7 8 5 68.75 13.41
7 -8 -5 70.68 4.23
7 -8 -4 5.55 1.05
7 -8 -4 7.02 1.07
7 -8 -4 6.07 1.4
7 -8 -4 5.08 1.18
-7 8 4 4.21 1.22
-7 8 4 5.46 3.78
7 -8 -4 7.06 1.3
7 -8 -3 0.36 0.5
7 -8 -3 0.12 0.4
7 -8 -3 1.31 0.91
7 -8 -3 0.98 0.71
-7 8 3 1.71 0.9
-7 8 3 0.08 2.18
7 -8 -3 0.79 0.7
-7 8 3 0.82 0.19
7 -8 -2 14.59 1.5
7 -8 -2 15.04 1.53
7 -8 -2 15.7 2.28
7 -8 -2 16.31 2.08
-7 8 2 15.68 1.96
7 -8 -2 15.52 1.68
7 -8 -2 12.45 1.6
-7 8 2 13.73 0.63
-7 8 1 268.6 22.86
7 -8 -1 290.37 7.87
7 -8 -1 289.06 7.77
7 -8 -1 302.45 9.92
-7 8 1 286.58 9.18
7 -8 -1 270.6 8.6
7 -8 -1 325.15 11.56
-7 8 1 279.74 5.35
7 -8 -1 280.94 8.62
-7 8 1 294.07 24.58
7 -8 0 14.82 1.46
7 -8 0 15.08 1.44
7 -8 0 16.65 2.19
7 -8 0 15 1.85
-7 8 0 17.04 6.06
7 -8 0 17.6 2.56
7 -8 0 17.3 1.83
-7 8 0 16.92 0.73
-7 8 0 16.89 5.56
7 -8 1 22.88 2.11
7 -8 1 21.08 2.16
7 -8 1 21.03 1.77
7 -8 1 23.69 1.82
7 -8 1 26.96 2.78
-7 8 -1 23.43 6.6
7 -8 1 25.97 3.07
-7 8 -1 24.81 0.91
-7 8 -1 26.8 7.5
7 -8 2 77.21 3.5
7 -8 2 82.67 3.42
7 -8 2 79.82 5.04
-7 8 -2 65.73 10.29
7 -8 2 84.3 5.62
7 -8 2 72.61 3.77
-7 8 -2 83.31 2.03
7 -8 2 80.7 4.5
-7 8 -2 78.91 12.89
7 -8 3 47.27 2.52
7 -8 3 49.56 2.74
-7 8 -3 42.25 8.17
7 -8 3 48.87 4.08
7 -8 3 43.26 3.41
7 -8 3 49.08 4.22
7 -8 3 47 2.94
-7 8 -3 49.12 1.44
-7 8 -3 46.18 8.89
7 -8 4 39 3.39
7 -8 4 43.41 2.42
7 -8 4 41.55 2.57
7 -8 4 40.98 3.86
7 -8 4 42.92 3.86
7 -8 4 43.87 2.79
-7 8 -4 44.84 1.37
-7 8 -4 42.01 8.1
7 -8 5 2.61 0.94
7 -8 5 1.37 0.63
7 -8 5 0.51 0.65
7 -8 5 1.32 0.54
7 -8 5 2.37 1.28
7 -8 5 1.11 0.78
-7 8 -5 1.79 0.31
7 -8 6 43.26 3.91
7 -8 6 50.57 2.57
7 -8 6 49.18 2.87
7 -8 6 38.26 3.47
7 -8 6 41.57 3.65
-7 8 -6 49.39 1.49
7 -8 7 53.49 2.67
7 -8 7 54.84 3.08
-7 8 -7 50.18 1.54
7 -8 8 45.83 2.41
7 -8 8 45.74 2.78
-7 8 -8 43.1 1.38
7 -8 9 90.62 3.48
7 -8 9 98.03 4.18
-7 8 -9 86.68 2.19
-7 8 -9 101.5 14.47
7 -8 10 -0.71 0.58
7 -8 10 -0.54 0.47
7 -8 10 -0.19 0.37
-7 8 -10 0 0.19
7 -8 11 105.03 3.44
7 -8 11 95.34 3.24
7 -8 11 106.71 4.28
-7 8 -11 107.7 2.31
7 -8 12 0.08 0.43
7 -8 12 0.22 0.42
7 -8 13 69.38 3.07
7 -8 13 72.02 3.01
7 -8 14 38.43 1.92
7 -8 14 36.59 1.75
-7 8 -14 37.34 7.04
7 -8 15 9.27 0.73
-7 8 -15 9.04 2.83
7 -7 -14 3.33 0.44
-7 7 14 5.89 0.84
7 -7 -13 0.25 0.27
7 -7 -13 -0.07 0.2
-7 7 13 0.02 0.47
-7 7 13 0.62 0.32
-7 7 13 0.47 1.53
7 -7 -13 0.3 0.33
7 -7 -12 2.4 0.56
-7 7 12 2.67 0.88
-7 7 12 3.96 0.61
-7 7 12 2.77 2.76
7 -7 -12 3.91 0.85
7 -7 -11 7.28 0.95
-7 7 11 7.17 1.42
-7 7 11 8.21 0.92
-7 7 11 8.13 4.24
7 -7 -11 9.03 1.32
7 -7 -10 21.46 1.8
-7 7 10 24.13 2.58
-7 7 10 22.71 6.85
7 -7 -10 26.89 2.39
-7 7 9 3.79 1.51
7 -7 -9 8.01 1.19
-7 7 9 6.37 1.44
-7 7 9 4.59 4.67
7 -7 -9 6.43 1.27
7 -7 -8 9.91 1.4
-7 7 8 8.94 1.67
-7 7 8 6.86 4.89
7 -7 -8 10.38 1.61
7 -7 -7 145.58 5.35
-7 7 7 132.74 6.43
-7 7 7 134.12 18.56
7 -7 -7 149.89 6.25
7 -7 -6 14.8 1.57
7 -7 -6 14.14 1.76
-7 7 6 13.58 2.2
-7 7 6 10.11 2.13
-7 7 6 14.4 6.37
7 -7 -6 14.81 2.46
7 -7 -6 11.04 1.64
7 -7 -5 74.93 3.72
7 -7 -5 83.34 3.73
7 -7 -5 88.35 4.42
-7 7 5 78.27 4.56
-7 7 5 88.88 14.57
7 -7 -5 73.6 4.2
7 -7 -5 92.02 5.11
7 -7 -4 5.37 0.93
7 -7 -4 8.04 1.6
7 -7 -4 5.57 0.97
7 -7 -4 6.85 1.31
-7 7 4 6.39 1.46
-7 7 4 4.16 4.12
7 -7 -4 6.13 1.2
7 -7 -3 13.93 1.46
7 -7 -3 15.65 1.48
7 -7 -3 16.45 1.94
-7 7 3 15.25 1.88
-7 7 3 14.11 5.68
7 -7 -3 13.61 1.69
7 -7 -3 16.23 2.34
-7 7 3 13.98 0.57
7 -7 -2 1.19 0.51
7 -7 -2 0.72 0.78
7 -7 -2 0.95 0.33
7 -7 -2 0.03 0.6
-7 7 2 1.5 0.61
-7 7 2 0.48 2.76
7 -7 -2 1.43 0.76
-7 7 2 1.46 0.22
7 -7 -1 17.26 1.57
7 -7 -1 16.31 1.43
7 -7 -1 17.99 2.17
-7 7 1 18.03 1.97
-7 7 1 15.78 5.54
7 -7 -1 18.62 2.52
7 -7 -1 16.54 1.79
-7 7 1 18.64 0.71
7 -7 0 32.62 3.49
-7 7 0 31.96 1.03
7 -7 1 0.66 1.09
-7 7 -1 0.58 0.21
7 -7 2 2.06 0.97
7 -7 2 3.25 1.03
7 -7 2 3.31 0.73
7 -7 2 2.99 0.66
7 -7 2 3.35 1.13
7 -7 2 2.79 0.69
-7 7 -2 3.01 0.32
7 -7 2 3.95 1.25
7 -7 3 124.15 7.1
7 -7 3 97.72 5.08
7 -7 3 116.32 4.3
7 -7 3 122.91 4.1
7 -7 3 107.99 5.89
7 -7 3 113.92 6.57
7 -7 3 115.18 4.75
-7 7 -3 118.46 2.62
-7 7 -3 105.96 14.4
7 -7 4 27.46 3.28
7 -7 4 26.31 1.76
7 -7 4 23.26 1.84
7 -7 4 24.35 2.86
7 -7 4 22.02 2.86
7 -7 4 23.66 2.56
7 -7 4 26.53 2.14
-7 7 -4 26.02 0.97
-7 7 -4 17.56 6.12
7 -7 5 18.78 2.79
7 -7 5 17.75 1.43
7 -7 5 18.75 1.68
7 -7 5 17.33 2.37
7 -7 5 17.09 2.55
7 -7 5 16.76 2.18
-7 7 -5 18.59 0.82
-7 7 -5 12.38 6.25
7 -7 6 1.33 0.74
7 -7 6 2.09 0.66
7 -7 6 2.33 0.92
7 -7 6 1.57 0.51
-7 7 -6 4.19 4.39
7 -7 6 1.77 0.98
7 -7 6 1.69 0.7
-7 7 -6 1.47 0.29
7 -7 7 419.52 9.39
7 -7 7 422.89 10.44
-7 7 -7 408.7 7.61
7 -7 8 30.34 1.82
7 -7 8 33.07 2.34
-7 7 -8 29.38 1.11
7 -7 9 0.65 0.52
7 -7 9 -0.17 0.31
-7 7 -9 0.09 0.23
-7 7 -9 1.47 2.79
7 -7 10 1.97 0.71
-7 7 -10 1.67 0.28
7 -7 11 22.91 1.95
7 -7 11 21.93 1.88
-7 7 -11 18.83 6.01
-7 7 -11 21.93 0.82
7 -7 12 -0.91 0.59
7 -7 12 0.4 0.47
-7 7 -12 0 0.14
-7 7 -12 0.22 3
7 -7 13 76.11 3.29
7 -7 13 80.67 3.4
7 -7 14 2.29 0.59
7 -7 14 1.56 0.48
-7 7 -14 0.01 1.92
7 -7 15 -0.03 0.24
7 -7 15 0.45 0.25
-7 7 -15 1.21 1.24
-7 6 15 0.09 0.23
7 -6 -14 5.52 0.72
-7 6 14 6.81 0.69
-7 6 14 5.51 0.9
7 -6 -13 0.66 0.37
-7 6 13 1.79 0.73
-7 6 13 2.17 0.52
-7 6 12 3.95 1.31
7 -6 -12 5.2 0.8
-7 6 12 5.65 1.26
-7 6 12 4.97 0.81
-7 6 12 8.59 3.75
7 -6 -12 6.93 0.98
-7 6 11 3.94 1.5
7 -6 -11 5.3 0.92
-7 6 11 4.23 1.18
-7 6 11 5.49 0.87
-7 6 11 4.33 3.53
7 -6 -11 5.43 1.13
-7 6 10 36.26 3.81
7 -6 -10 47.96 2.88
-7 6 10 46.25 3.62
-7 6 10 55.73 11.23
7 -6 -10 52.07 3.31
-7 6 9 22.76 3.06
7 -6 -9 29.42 2.33
-7 6 9 34.64 3.06
-7 6 9 36.06 9.68
7 -6 -9 30.86 2.6
7 -6 -8 121.1 4.74
-7 6 8 106.66 5.58
-7 6 8 108.57 16.42
7 -6 -8 114.42 5.21
-7 6 7 12.52 2.39
7 -6 -7 17.3 1.71
-7 6 7 16.55 2.13
-7 6 7 20.41 2.96
-7 6 7 11.94 5.49
7 -6 -7 17.94 2.64
7 -6 -7 19.78 2.03
-7 6 6 0.26 0.83
7 -6 -6 1.72 0.62
-7 6 6 1.73 0.95
-7 6 6 2.66 1.2
-7 6 6 1.41 4.29
7 -6 -6 1.84 0.75
7 -6 -6 2.06 0.89
7 -6 -5 8.37 1.55
7 -6 -5 6.93 1.05
-7 6 5 7.86 1.47
-7 6 5 5.62 1.48
-7 6 5 6.95 3.58
7 -6 -5 6.76 1.64
7 -6 -5 6.64 1.18
7 -6 -4 11.89 1.3
7 -6 -4 11.95 1.91
-7 6 4 10.46 1.54
-7 6 4 14.27 2.3
-7 6 4 7.01 3.56
7 -6 -4 12.51 1.53
-7 6 3 25.43 2.82
7 -6 -3 23.62 2.73
7 -6 -2 11.5 1.95
-7 6 2 13.31 1.95
-7 6 2 12.21 0.53
7 -6 -1 3.62 1.08
7 -6 -1 5.92 1.5
-7 6 1 5.17 0.35
7 -6 0 1.16 0.72
-7 6 0 1.45 0.22
7 -6 0 1.87 0.92
7 -6 1 15.37 2.31
-7 6 -1 16.15 0.68
7 -6 2 3.03 1.18
-7 6 -2 6.75 0.43
7 -6 3 -0.41 0.77
-7 6 -3 0.16 0.17
7 -6 4 55.25 2.73
7 -6 4 53.09 4.05
7 -6 4 49.15 3.54
-7 6 -4 56.01 1.54
7 -6 4 56.31 4.71
7 -6 5 36.73 1.93
7 -6 5 37.16 2.25
7 -6 5 31.86 3.25
7 -6 5 33.42 3.01
-7 6 -5 37.89 1.22
7 -6 5 37.15 3.84
-7 6 -5 36.73 8.04
7 -6 6 59.48 2.53
7 -6 6 60.74 3.01
-7 6 -6 59.34 11.37
7 -6 6 51.59 3.87
-7 6 -6 58.83 1.67
7 -6 6 63.36 4.99
7 -6 7 1.93 0.91
7 -6 7 2.42 0.65
7 -6 7 4.11 0.66
7 -6 7 4.62 1.29
-7 6 -7 3.27 0.38
7 -6 8 95.35 4.05
-7 6 -8 89.48 2.24
7 -6 9 87.66 3.98
-7 6 -9 89.19 2.21
-7 6 -9 88.01 14.21
7 -6 10 40.28 2.6
-7 6 -10 40.22 1.26
-7 6 -10 32.42 8.87
7 -6 11 72.17 3.53
7 -6 11 72.73 3.48
-7 6 -11 70.19 1.77
-7 6 -11 75.34 12.53
7 -6 12 1.55 0.63
7 -6 12 1.91 0.75
-7 6 -12 1.11 0.22
-7 6 -12 3.95 3.5
7 -6 13 4.34 0.77
7 -6 13 5.03 0.96
7 -6 14 1.83 0.46
7 -6 14 2.05 0.57
7 -6 15 38.47 1.6
7 -6 15 39.96 1.84
-7 6 -15 38.41 6.27
-7 5 15 4.03 0.62
-7 5 15 5.2 0.58
-7 5 14 0.16 0.64
7 -5 -14 0.37 0.3
-7 5 14 -0.68 0.53
-7 5 14 -0.14 0.29
-7 5 13 1.02 0.85
7 -5 -13 0.12 0.35
-7 5 13 1.69 0.85
-7 5 13 1.54 0.53
7 -5 -12 6.43 0.96
-7 5 12 5.06 1.55
-7 5 12 5.93 1.35
-7 5 12 5.94 0.96
-7 5 12 6.26 3.04
-7 5 11 11.3 2.25
7 -5 -11 14.16 1.57
-7 5 11 15.02 1.51
-7 5 11 12.67 1.89
-7 5 11 14.44 5.18
7 -5 -11 16.97 1.66
-7 5 10 11.2 2.32
7 -5 -10 14.9 1.62
-7 5 10 10.93 1.77
-7 5 10 9.12 4.43
7 -5 -10 14.28 1.6
-7 5 9 2.3 1.19
7 -5 -9 3.87 0.94
-7 5 9 2.68 0.96
-7 5 9 3.11 4.29
7 -5 -9 3.39 0.88
-7 5 8 0.67 0.99
7 -5 -8 -0.11 0.44
-7 5 8 0.44 0.58
-7 5 8 0.6 3.25
7 -5 -8 0.33 0.76
-7 5 7 25.33 3.05
7 -5 -7 32.85 2.34
-7 5 7 29.8 2.66
-7 5 7 36.66 3.96
7 -5 -7 28.72 3.27
-7 5 7 20.19 7.5
7 -5 -7 31.14 2.48
-7 5 6 25.92 2.91
7 -5 -6 30.32 2.15
-7 5 6 32.29 2.62
-7 5 6 32.08 3.69
7 -5 -6 36.71 3.65
-7 5 6 36.7 8.64
7 -5 -6 32.12 2.48
-7 5 5 13.97 2
7 -5 -5 20.28 1.67
-7 5 5 17.3 1.93
7 -5 -5 21.83 2.85
-7 5 5 19.07 2.72
-7 5 5 21.04 6.26
7 -5 -5 24.34 2.43
7 -5 -5 18.56 1.85
7 -5 -4 4.49 1.11
-7 5 4 4.32 1.44
7 -5 -3 9.09 1.64
-7 5 3 7.96 1.63
7 -5 -2 167.21 6.99
-7 5 2 170.82 7.06
7 -5 -2 166.21 7.47
-7 5 2 159.91 3.04
-7 5 1 12.47 1.73
-7 5 1 12.32 0.51
7 -5 -1 11 1.86
7 -5 0 1.43 0.85
-7 5 0 1.79 0.22
-7 5 -1 114.46 2.43
7 -5 1 121.26 6.65
7 -5 2 -1.11 1.03
-7 5 -2 0.07 0.15
7 -5 3 39.64 3.88
-7 5 -3 37.91 1.15
-7 5 -4 114.86 2.57
7 -5 4 123.55 7.17
7 -5 5 127.01 4.33
7 -5 5 104.78 5.47
-7 5 -5 119.18 2.68
7 -5 5 122.08 7.15
-7 5 -5 106.63 15.57
7 -5 6 219.42 6.22
7 -5 6 204.3 5.72
-7 5 -6 205.45 4.21
7 -5 6 219.18 9.78
-7 5 -6 205.85 21.72
7 -5 7 38.71 3.37
7 -5 7 44.87 2.56
-7 5 -7 41.25 1.31
7 -5 7 42.82 2.33
7 -5 7 43.34 4.05
7 -5 8 45.23 2.65
7 -5 8 42.72 2.4
-7 5 -8 44.21 1.37
7 -5 8 39.51 3.78
7 -5 9 -0.27 0.54
7 -5 9 -0.07 0.4
-7 5 -9 0.02 0.2
-7 5 -9 -1.88 3.7
7 -5 10 2.81 0.72
7 -5 10 2.65 0.66
-7 5 -10 3.24 0.36
-7 5 -10 5 4.46
7 -5 11 51.26 2.83
7 -5 11 50.02 2.84
7 -5 11 48.07 2.56
-7 5 -11 49.16 1.4
-7 5 -11 44.17 10.07
7 -5 12 23.86 1.85
7 -5 12 27.34 2.18
7 -5 12 21.98 1.63
-7 5 -12 22.8 0.81
-7 5 -12 30.05 7.83
7 -5 13 18.87 1.54
7 -5 13 21.78 1.8
7 -5 13 18.72 1.36
-7 5 -13 19.16 6.22
7 -5 14 23.86 1.48
7 -5 14 24.89 1.76
7 -5 14 20.12 1.21
-7 5 -14 26.07 6.45
7 -5 15 0.12 0.25
7 -5 15 0.06 0.3
-7 5 -16 4.32 1.75
7 -4 -16 15.29 0.94
-7 4 16 33.76 1.23
-7 4 15 23.24 2.16
-7 4 15 25.47 1.53
-7 4 14 1 0.96
7 -4 -14 1.47 0.49
-7 4 14 2.06 0.64
-7 4 14 2.25 0.61
-7 4 13 73.73 5.02
7 -4 -13 81.39 3.51
-7 4 12 0.31 0.91
-7 4 12 0.48 0.73
-7 4 12 0.36 0.52
-7 4 11 -0.12 0.81
-7 4 11 -0.01 0.62
-7 4 11 -0.45 0.46
-7 4 10 13.25 2.33
-7 4 10 16.13 2.05
-7 4 10 17.74 5.7
7 -4 -10 19.18 1.79
-7 4 9 117.25 6.72
-7 4 9 147.08 17.01
-7 4 9 128.76 5.84
7 -4 -9 147.74 5.44
-7 4 8 83.07 5.34
-7 4 8 98.4 13.64
-7 4 8 93.49 4.75
-7 4 8 115.85 7.21
7 -4 -8 109.58 6.32
7 -4 -8 104.57 4.53
-7 4 7 162.93 7.59
-7 4 7 194.34 7.06
-7 4 7 239.24 10.49
7 -4 -7 223.35 9.27
-7 4 7 191.84 19.15
7 -4 -7 211.04 6.89
-7 4 7 248.05 6.63
-7 4 6 8.66 1.66
-7 4 6 15.56 1.83
7 -4 -6 17.33 2.48
-7 4 6 15.55 2.54
-7 4 6 18.08 6.07
7 -4 -6 15 1.6
-7 4 5 62.83 4.98
7 -4 -5 62.49 4.61
7 -4 -5 63.06 3.86
7 -4 -4 -0.08 0.45
-7 4 4 1.49 0.97
7 -4 -4 0.2 0.66
7 -4 -3 130.48 5.51
-7 4 3 127.92 6.44
7 -4 -3 114.97 5.94
-7 4 2 96.84 5.29
7 -4 -2 111.74 5.52
7 -4 -1 1.15 0.68
-7 4 1 1.56 0.77
-7 4 1 1.44 0.17
-7 4 0 5.57 0.33
7 -4 0 5.09 1.42
7 -4 1 26.35 3.02
-7 4 -1 26.34 0.82
7 -4 2 58.97 4.64
-7 4 -2 59.24 1.48
7 -4 3 3.76 1.25
-7 4 -3 3.3 0.31
7 -4 4 25.89 3.22
-7 4 -4 24.41 0.89
7 -4 5 12.13 2.23
-7 4 -5 10.99 0.59
7 -4 6 28.23 1.88
7 -4 6 24.57 1.76
7 -4 6 26.03 3.25
-7 4 -6 26.13 0.97
-7 4 -6 28.64 7.49
7 -4 7 41 3.39
-7 4 -7 46.57 1.4
7 -4 7 44.6 2.45
7 -4 7 44.4 2.5
7 -4 7 42.26 3.99
7 -4 8 1.2 0.9
7 -4 8 2.33 0.68
7 -4 8 1.54 0.94
7 -4 8 2.21 0.63
-7 4 -8 2.95 0.36
7 -4 9 52.75 2.9
7 -4 9 55.13 2.92
-7 4 -9 55.93 1.59
-7 4 -9 65.37 12.62
7 -4 10 55.52 2.85
-7 4 -10 51.27 1.48
7 -4 10 47.12 2.77
7 -4 10 50.61 2.84
-7 4 -10 47.48 10.94
7 -4 11 35.79 2.22
7 -4 11 27.26 2.08
7 -4 11 32.48 2.21
-7 4 -11 29.72 1.05
-7 4 -11 32.68 9.45
7 -4 12 32.76 2.07
7 -4 12 35.19 2.49
7 -4 12 31.21 2.12
-7 4 -12 30.95 2.13
-7 4 -12 29.95 0.98
-7 4 -12 26.81 8.04
7 -4 13 12.93 1.2
7 -4 13 13.82 1.51
7 -4 13 10.83 1.18
-7 4 -13 9.56 4.56
-7 4 -13 12.2 0.53
7 -4 14 26.23 1.47
7 -4 14 27.71 1.91
7 -4 14 24.06 1.51
-7 4 -14 24.95 6.27
7 -4 15 47.63 2.22
7 -4 15 41.95 1.66
-7 4 -15 53.11 7.71
7 -4 16 1.2 0.31
-7 4 -16 1.42 0.76
-7 3 16 29.61 1.44
-7 3 15 1.32 0.78
7 -3 -15 1.3 0.38
-7 3 15 0.98 0.33
-7 3 15 1.36 0.44
-7 3 14 1.13 0.9
7 -3 -14 1.5 0.49
-7 3 14 1.81 0.61
-7 3 14 3.09 0.76
-7 3 13 46.09 3.97
-7 3 13 57.13 3.29
-7 3 12 1.54 0.7
-7 3 12 2.81 0.76
-7 3 11 3.38 1.32
-7 3 11 3.48 1.01
-7 3 11 2.95 0.79
-7 3 10 0.4 0.78
-7 3 10 -0.83 0.71
-7 3 10 0 0.4
-7 3 10 1.24 0.63
-7 3 9 67.42 4.74
-7 3 9 91.47 12.84
-7 3 9 73.58 4.06
-7 3 9 85.82 3.68
-7 3 9 90.54 6.37
7 -3 -9 78.33 5.22
-7 3 9 95.32 3.94
-7 3 8 0.6 0.79
-7 3 8 -0.11 0.54
-7 3 8 0.12 0.38
-7 3 8 0.51 0.68
-7 3 8 -1.21 2.86
7 -3 -8 0.56 0.73
-7 3 8 -0.1 0.48
-7 3 7 15.46 2.13
-7 3 7 22.28 2.09
-7 3 7 24.68 3.31
7 -3 -7 22.04 2.66
-7 3 7 25.3 6.13
-7 3 7 25.87 1.98
-7 3 6 20.85 2.96
7 -3 -6 20.88 2.58
7 -3 -6 21.47 0.66
7 -3 -5 0.75 0.54
-7 3 5 -0.25 0.72
7 -3 -5 0.37 0.47
7 -3 -5 0.67 0.15
-7 3 4 0.51 0.71
7 -3 -4 0.64 0.78
7 -3 -4 0.18 0.12
-7 3 3 231.61 9.13
7 -3 -3 241.67 8.02
-7 3 2 4.5 1.19
7 -3 -2 5.99 1.28
-7 3 1 72.46 4.02
7 -3 -1 67.09 4.57
-7 3 1 70.31 1.49
7 -3 0 29.51 3.08
-7 3 0 28.64 0.8
-7 3 -1 23 0.73
7 -3 1 22.3 2.84
7 -3 2 0.85 0.77
-7 3 -2 1.27 0.21
7 -3 3 6.15 1.65
-7 3 -3 5.28 0.38
7 -3 4 -0.55 0.87
-7 3 -4 0.39 0.22
-7 3 -5 19.65 0.79
7 -3 5 22.17 3
7 -3 6 28.49 1.83
7 -3 6 25.09 1.85
7 -3 6 31.11 3.61
-7 3 -6 31.16 1.05
-7 3 -6 30.48 8.48
7 -3 7 52.76 3.77
7 -3 7 61.48 2.84
7 -3 7 59.93 2.99
7 -3 7 58.2 4.83
-7 3 -7 66.11 1.72
7 -3 8 10.41 1.17
7 -3 8 9.24 1.2
-7 3 -8 9.91 0.59
7 -3 8 10.84 2.04
7 -3 9 0.24 0.4
7 -3 9 0.79 0.58
-7 3 -9 0.73 0.24
-7 3 -9 -0.67 2.6
7 -3 10 5.01 0.89
-7 3 -10 3.5 0.38
7 -3 10 4.27 0.85
7 -3 10 5.21 0.99
7 -3 11 11.22 1.19
7 -3 11 11.08 1.46
7 -3 11 10.6 1.33
-7 3 -11 10.04 0.57
-7 3 -11 8.79 4.38
7 -3 12 85 3.26
7 -3 12 86.57 4.06
7 -3 12 79.23 3.62
-7 3 -12 85.03 13.41
-7 3 -12 79.57 1.9
-7 3 -12 81.58 3.84
7 -3 13 -0.46 0.59
7 -3 13 0.05 0.4
-7 3 -13 0.53 2.59
-7 3 -13 0.04 0.14
-7 3 -13 0.19 0.37
7 -3 14 11.22 1.24
7 -3 14 10.15 1.05
7 -3 15 0.65 0.45
7 -3 15 0.79 0.31
-7 3 -15 -0.29 1.26
7 -3 16 16.12 0.96
-7 2 16 -0.25 0.53
7 -2 -16 -0.27 0.23
-7 2 16 -0.21 0.27
-7 2 15 5.97 1.27
7 -2 -15 4.84 0.73
-7 2 14 7.93 1.56
-7 2 14 11.11 1.32
-7 2 13 -0.66 0.82
-7 2 13 -1.11 0.63
-7 2 13 -0.59 0.53
-7 2 13 -0.33 0.43
-7 2 12 5.72 1.53
-7 2 12 10.01 1.4
-7 2 12 8.92 1.28
-7 2 12 9.97 1.24
-7 2 11 40.95 3.84
-7 2 11 42.49 2.92
-7 2 11 48.48 3.02
-7 2 10 2.56 0.98
-7 2 10 1.92 0.79
-7 2 10 3.1 0.86
-7 2 10 2.75 0.78
-7 2 9 11.79 1.91
-7 2 9 15.49 1.54
-7 2 9 13.1 1.66
-7 2 9 14.97 2.6
7 -2 -9 13.5 2.13
-7 2 9 15.05 1.61
-7 2 8 3.8 1.29
-7 2 8 5.4 1.11
-7 2 8 4.59 0.83
-7 2 8 5.01 1.44
-7 2 8 3.83 2.9
7 -2 -8 4.05 1.18
7 -2 -8 5.98 0.34
-7 2 8 4.68 0.98
7 -2 -7 5.09 0.32
-7 2 7 7.26 1.89
7 -2 -7 4.84 1.25
-7 2 7 5.25 0.99
-7 2 6 4.77 1.35
7 -2 -6 5.78 1.43
7 -2 -6 5.71 0.34
7 -2 -5 7.03 1.23
-7 2 5 8.29 1.89
7 -2 -5 8.67 1.52
7 -2 -5 8.7 0.42
-7 2 4 27.44 3.14
7 -2 -4 31.02 2.8
7 -2 -4 26.78 0.81
-7 2 3 16.04 2.24
7 -2 -3 13.37 1.84
7 -2 -3 16.05 0.59
-7 2 2 20.31 2.34
7 -2 -2 22.26 2.41
7 -2 -1 0.96 0.78
-7 2 1 1.03 0.59
-7 2 0 272.94 7.86
7 -2 0 256.3 9.82
-7 2 0 250.38 4.48
-7 2 -1 106.51 2.15
7 -2 1 110.14 6.31
7 -2 2 25.59 3.1
-7 2 -2 23.95 0.77
7 -2 3 80.64 5.65
-7 2 -3 77.46 1.79
7 -2 4 150.62 8.08
-7 2 -4 155.89 3.14
7 -2 5 31.68 3.62
-7 2 -5 35.5 1.11
7 -2 6 161.13 8.4
7 -2 6 154.3 5.23
-7 2 -6 174.43 3.49
7 -2 7 119.17 4.05
7 -2 7 115.84 4.41
7 -2 7 108.67 6.63
-7 2 -7 118.13 2.64
7 -2 8 56.48 2.72
7 -2 8 55.91 3.05
7 -2 8 53 4.49
-7 2 -8 58.43 1.62
-7 2 -8 63.04 12.2
7 -2 9 1.34 0.51
7 -2 9 0.46 0.5
-7 2 -9 1.75 0.33
-7 2 -9 1.06 2
7 -2 10 9.41 1.12
7 -2 10 8.71 1.28
-7 2 -10 7.81 0.53
-7 2 -10 6.16 4.1
-7 2 -11 63.92 13.19
7 -2 11 69.8 3.69
7 -2 11 61.17 3.32
-7 2 -11 54.83 10.95
-7 2 -11 60.65 1.63
7 -2 12 1.02 0.6
7 -2 12 1.73 0.74
-7 2 -12 0.45 2.39
-7 2 -12 1.12 0.23
-7 2 -12 1.6 0.73
7 -2 13 9.14 1.23
7 -2 13 9 1.16
-7 2 -13 7.62 0.42
-7 2 -13 8.95 1.18
7 -2 14 6.74 1.03
7 -2 14 7.43 0.94
-7 2 -14 7.02 3.19
-7 2 -14 6.45 0.8
7 -2 15 18.68 1.37
7 -2 15 16.77 1.15
-7 2 -15 19.3 4.37
7 -2 16 28.59 1.26
-7 1 17 43.49 1.58
-7 1 16 3.38 0.83
7 -1 -16 2.71 0.46
-7 1 15 0.73 0.66
-7 1 15 0.44 0.46
-7 1 14 23.61 1.95
-7 1 14 25.69 1.7
-7 1 13 6.02 1.58
-7 1 13 9.46 1.35
-7 1 13 8.67 1.16
-7 1 12 44.59 2.95
-7 1 12 47.38 2.85
-7 1 11 73.76 3.81
-7 1 11 77.91 3.83
-7 1 10 19.67 1.87
7 -1 -10 20.5 0.7
-7 1 10 20.73 1.93
-7 1 9 46.4 3.49
-7 1 9 56.26 3.02
-7 1 9 66.92 5.42
7 -1 -9 55.56 4.06
7 -1 -9 55.07 1.36
-7 1 9 59.34 3.22
-7 1 8 0.36 0.81
-7 1 8 -0.22 0.38
-7 1 8 -0.3 0.74
7 -1 -8 -0.29 0.73
7 -1 -8 0.16 0.13
-7 1 8 0.01 0.45
-7 1 7 0.82 0.96
7 -1 -7 0.93 0.62
7 -1 -7 1.3 0.19
-7 1 6 10.65 2.23
7 -1 -6 8.3 1.48
7 -1 -6 10.32 0.49
7 -1 -5 0.97 0.18
-7 1 5 0.8 0.89
7 -1 -5 1.76 0.69
-7 1 4 11.04 1.94
7 -1 -4 11.62 1.55
7 -1 -4 10 0.47
-7 1 3 37.6 3.42
7 -1 -3 38.42 3.02
7 -1 -3 37.08 1.02
-7 1 2 20.37 2.34
7 -1 -2 19.26 2.36
7 -1 -2 17.32 0.64
-7 1 1 67.7 4.05
7 -1 -1 60.13 4.48
-7 1 0 127.79 5.21
7 -1 0 126.29 6.65
-7 1 0 121.05 2.32
-7 1 -1 62.59 1.39
7 -1 1 61.36 4.76
7 -1 2 113.24 6.64
-7 1 -2 112.95 2.29
7 -1 3 27.66 3.32
-7 1 -3 28.24 0.87
7 -1 4 278.59 11.44
-7 1 -4 277.53 5.14
-7 1 -5 7.6 0.47
7 -1 5 8.91 2
7 -1 6 2.42 0.7
-7 1 -6 3.48 0.36
7 -1 6 3.39 1.33
7 -1 7 0.11 0.91
7 -1 7 0.74 0.39
7 -1 7 1.42 0.71
-7 1 -7 0.84 0.22
7 -1 8 96.49 3.52
7 -1 8 99.83 4.28
7 -1 8 85.53 5.82
-7 1 -8 97.64 2.32
-7 1 -8 83.47 14.21
7 -1 9 4.16 0.75
-7 1 -9 5.01 0.44
7 -1 9 5.13 0.98
-7 1 -9 7.31 5.16
-7 1 -10 44.15 10.94
7 -1 10 58.68 3.31
7 -1 10 55.35 3.2
-7 1 -10 56.65 11.01
-7 1 -10 50.12 1.49
7 -1 11 163.03 5.85
7 -1 11 150.3 5.52
-7 1 -11 142.1 17.1
-7 1 -11 143.41 3.1
7 -1 12 0.03 0.45
7 -1 12 -0.47 0.58
7 -1 12 0.26 0.49
-7 1 -12 1.57 2.44
-7 1 -12 -0.16 0.16
-7 1 -12 -0.12 0.53
7 -1 13 18.98 1.42
7 -1 13 21.6 1.83
7 -1 13 21.96 1.76
-7 1 -13 17.91 5.52
-7 1 -13 22.48 1.86
7 -1 14 15 1.44
7 -1 14 16.2 1.37
-7 1 -14 13.14 1.17
7 -1 15 0.81 0.38
7 -1 15 0.6 0.32
-7 1 -15 1.71 1.59
-7 0 17 23.92 1.21
-7 0 16 1.55 0.67
-7 0 16 2.52 0.57
-7 0 15 29.83 2.04
-7 0 15 30.67 1.78
-7 0 14 36.11 2.52
-7 0 14 38.52 2.34
-7 0 13 7.82 1.53
-7 0 13 11.68 1.54
-7 0 13 13.19 1.57
-7 0 12 -0.67 0.91
-7 0 12 -0.37 0.54
-7 0 12 0.46 0.61
-7 0 11 26.37 2.26
7 0 -11 26.58 0.85
-7 0 11 29.24 2.38
-7 0 10 75.14 3.8
7 0 -10 75 1.73
-7 0 9 184.38 5.93
-7 0 9 195.11 9.58
7 0 -9 172.03 3.4
-7 0 9 189.76 6.32
-7 0 8 3.65 0.78
-7 0 8 5.1 1.54
7 0 -8 5.18 0.36
-7 0 8 5.6 1.05
-7 0 7 26.95 3.39
7 0 -7 23.58 0.81
-7 0 6 114.1 6.89
7 0 -6 104.26 2.25
-7 0 5 6.9 1.71
7 0 -5 5.66 0.36
-7 0 4 12.97 2.1
7 0 -4 10.76 1.51
7 0 -4 11.62 0.52
7 0 -3 76.63 4.43
-7 0 3 86.63 5.27
7 0 -3 83.42 1.84
7 0 -2 101.18 5.52
-7 0 2 104.64 5.56
7 0 -2 101.19 2.15
7 0 -1 249.09 9.68
-7 0 1 267.85 9.02
7 0 0 33.88 3.43
-7 0 0 43.05 2.97
7 0 1 22.55 2.91
-7 0 -1 25.93 0.71
7 0 2 0.04 0.72
-7 0 -2 0.13 0.13
7 0 3 1.6 1.15
-7 0 -3 1.58 0.21
7 0 4 105.33 6.79
-7 0 -4 114.04 2.42
-7 0 -5 93.26 2.12
7 0 5 82.05 6.03
7 0 6 5.38 0.94
7 0 6 4.7 1.51
-7 0 -6 5.54 0.42
-7 0 -6 3.18 2.54
7 0 7 -0.04 0.46
7 0 7 0.69 1
-7 0 -7 0.32 0.2
7 0 8 5.19 1.05
-7 0 -8 2.65 2.39
-7 0 -8 5.02 0.43
7 0 8 4.84 1.57
-7 0 -8 4.6 3.36
7 0 9 2.06 0.72
-7 0 -9 3.14 1.69
-7 0 -9 1.58 0.29
-7 0 -9 2.85 3.65
7 0 10 0.21 0.57
7 0 10 0.47 0.55
-7 0 -10 0.09 0.19
-7 0 -10 -0.9 1.91
7 0 11 0.55 0.5
7 0 11 -0.19 0.61
-7 0 -11 -1.34 2.93
-7 0 -11 0.34 0.19
-7 0 -11 0.02 0.53
7 0 12 9.56 1.26
7 0 12 11.79 1.48
7 0 12 13.21 1.5
-7 0 -12 14.91 5.42
-7 0 -12 11.98 0.57
-7 0 -12 11.62 1.58
7 0 13 0.58 0.38
7 0 13 1.22 0.66
7 0 13 0.16 0.41
-7 0 -13 0.11 0.44
7 0 14 4.48 0.61
7 0 14 6.06 0.88
7 0 14 4.79 0.76
-7 0 -14 5.46 3.01
-7 0 -14 6.36 0.88
7 0 15 1.23 0.4
7 0 15 0.62 0.32
7 1 -17 4.68 0.49
-7 -1 17 18.01 1.06
-7 -1 16 0.81 0.51
-7 -1 16 0.35 0.41
-7 -1 16 0.25 0.32
-7 -1 15 20.05 1.69
-7 -1 15 19.84 1.55
-7 -1 14 0.76 0.68
-7 -1 14 1.83 0.7
-7 -1 14 1.89 0.75
-7 -1 13 148.91 5.57
-7 -1 13 149.33 5.49
-7 -1 12 55.37 3.43
-7 -1 12 54.45 3.31
-7 -1 11 61.52 3.55
-7 -1 11 58.5 3.55
-7 -1 10 45.1 2.91
-7 -1 10 48.33 3.14
-7 -1 9 44.78 2.29
-7 -1 9 40.98 2.64
-7 -1 9 44.54 4.48
-7 -1 9 41.18 2.84
-7 -1 8 38.13 2.14
-7 -1 8 33.79 2.24
-7 -1 8 38.01 4.09
-7 -1 8 32.56 2.41
-7 -1 7 7.84 1.8
7 1 -7 7.82 0.45
-7 -1 7 6.02 1.02
-7 -1 6 0.96 0.91
7 1 -6 0.74 0.19
-7 -1 5 2.33 1.11
7 1 -5 2.47 0.27
7 1 -4 54.26 3.45
-7 -1 4 58.29 4.54
7 1 -4 56.09 1.4
7 1 -3 0.32 0.48
-7 -1 3 -0.49 0.86
7 1 -3 0.44 0.16
7 1 -2 79.08 4.96
-7 -1 2 84.48 5.05
7 1 -2 81.37 1.82
7 1 -1 0.19 0.71
-7 -1 1 -0.07 0.5
7 1 0 195.27 8.93
-7 -1 0 217.72 7.59
7 1 1 2.06 1.05
-7 -1 -1 1.37 0.61
-7 -1 -1 1.47 0.16
7 1 2 467.07 15.65
-7 -1 -2 495.12 8.52
7 1 3 332.93 12.91
-7 -1 -3 351.57 6.26
7 1 4 15.26 2.64
-7 -1 -4 14.89 0.62
7 1 5 8.04 1.96
-7 -1 -5 10.84 0.55
7 1 6 97.31 6.55
7 1 6 96.61 4.04
-7 -1 -6 101.76 2.31
-7 -1 -6 95.3 13.06
7 1 7 56.57 4.82
7 1 7 63.11 3.33
-7 -1 -7 63.93 1.69
-7 -1 -7 53.18 10.28
7 1 8 15.7 1.68
-7 -1 -8 14.99 0.73
7 1 8 11.72 2.19
-7 -1 -8 13.96 5.44
7 1 9 0.4 0.51
7 1 9 0.53 0.54
-7 -1 -9 0.35 1.72
-7 -1 -9 0.17 0.19
-7 -1 -9 1.03 2.67
7 1 10 19.93 1.86
7 1 10 18.63 1.85
-7 -1 -10 18.15 5.87
-7 -1 -10 17.2 0.79
7 1 11 18.58 1.79
7 1 11 17.32 1.74
-7 -1 -11 19.71 6.32
-7 -1 -11 14.64 0.68
-7 -1 -11 14.92 1.87
-7 -1 -12 49.61 3.19
7 1 12 39.28 2.67
7 1 12 51.37 2.88
7 1 12 53.02 2.93
-7 -1 -12 53.51 9.52
-7 -1 -12 45.94 1.24
7 1 13 -0.27 0.36
7 1 13 0.69 0.51
7 1 13 -0.4 0.43
-7 -1 -13 0.99 1.37
-7 -1 -13 0.03 0.48
7 1 14 0.77 0.35
7 1 14 0.77 0.45
7 1 14 0.4 0.37
-7 -1 -14 1.24 0.45
7 1 15 0.45 0.31
7 1 15 -0.26 0.28
-7 -2 17 0.54 0.29
-7 -2 16 1.21 0.37
-7 -2 16 0.96 0.41
-7 -2 15 21.55 1.79
-7 -2 15 22.14 1.72
-7 -2 14 14.94 1.57
-7 -2 14 15.52 1.6
-7 -2 13 37.29 2.69
-7 -2 13 40.58 2.82
-7 -2 12 20.73 2.06
-7 -2 12 20.3 2.13
-7 -2 11 0.26 0.56
-7 -2 11 1.18 0.86
-7 -2 10 34.04 2.07
-7 -2 10 32.36 2.54
-7 -2 10 31.54 2.56
-7 -2 9 3.11 0.78
-7 -2 9 3.3 0.85
-7 -2 9 3.73 0.8
-7 -2 9 1.98 1.19
-7 -2 9 2.68 0.92
-7 -2 8 29.55 1.94
-7 -2 8 26.28 3.45
-7 -2 8 28.81 2.13
-7 -2 8 30.6 1.97
-7 -2 8 29.09 2.26
-7 -2 7 0.39 0.54
-7 -2 7 0.73 0.45
-7 -2 7 0.87 0.92
7 2 -7 1.04 0.22
-7 -2 7 0.97 0.55
-7 -2 6 145.12 8.01
7 2 -6 144.7 2.97
-7 -2 5 319.9 11.98
7 2 -5 297.66 5.5
-7 -2 4 179.35 8.4
7 2 -4 170.5 3.36
7 2 -3 348.02 11.36
-7 -2 3 366.82 12.29
7 2 -3 353.37 6.35
7 2 -2 11.06 1.99
-7 -2 2 11.03 1.82
7 2 -2 12.48 0.55
7 2 -1 0.22 0.67
-7 -2 1 0.68 0.59
7 2 0 2.65 1.06
-7 -2 0 4.69 1.09
-7 -2 -1 483.16 12.46
-7 -2 -1 458.8 7.86
7 2 2 282 11.83
-7 -2 -2 310.95 5.5
7 2 3 1.01 0.94
-7 -2 -3 1.79 0.22
7 2 4 5.98 1.68
-7 -2 -4 7.35 0.43
7 2 5 -0.25 0.74
7 2 5 0.32 0.37
-7 -2 -5 0.29 0.19
7 2 6 1.28 1.06
7 2 6 1.62 0.68
-7 -2 -6 0.72 0.21
-7 -2 -6 2.14 3.52
7 2 7 1.15 0.6
7 2 7 0.16 1
7 2 7 0.14 0.42
-7 -2 -7 0.71 0.24
-7 -2 -7 -1.29 2.17
7 2 8 8.11 1.08
7 2 8 6.74 1.13
-7 -2 -8 6.9 0.5
-7 -2 -8 7.92 4.72
7 2 9 40.05 2.48
7 2 9 34.67 2.51
-7 -2 -9 31.95 7.18
-7 -2 -9 33.76 1.14
-7 -2 -10 7.44 0.49
7 2 10 8.08 1.16
7 2 10 7.4 1.18
-7 -2 -10 10.53 4.57
-7 -2 -10 8.08 1.45
7 2 11 9.59 1.25
7 2 11 9.01 1.25
-7 -2 -11 9.06 0.51
-7 -2 -11 10.54 1.6
7 2 12 3.86 0.91
7 2 12 4.03 0.8
7 2 12 3.62 0.83
-7 -2 -12 2.76 1.9
-7 -2 -12 3.4 0.3
-7 -2 -12 3.25 0.95
7 2 13 9.87 1.2
7 2 13 9.21 1.06
7 2 13 10.49 1.15
-7 -2 -13 9.88 1.28
7 2 14 56.76 2.36
7 2 14 62 2.4
7 2 14 66.52 2.57
-7 -2 -14 54.33 6.45
-7 -2 -14 68.54 2.74
7 2 15 0.77 0.26
-7 -3 17 4.85 0.55
-7 -3 17 4.79 0.51
-7 -3 16 10.43 1.06
-7 -3 16 10.49 1.07
-7 -3 15 10.72 1.26
-7 -3 15 12.56 1.35
-7 -3 14 15.06 1.61
-7 -3 14 17.99 1.77
-7 -3 13 0.7 0.6
-7 -3 13 0.62 0.68
-7 -3 12 20.85 1.52
-7 -3 12 21.34 2.08
-7 -3 12 18.88 2.04
-7 -3 11 61.6 2.85
-7 -3 11 58.59 3.57
-7 -3 11 63.87 3.01
-7 -3 11 58.81 3.64
-7 -3 10 2.71 0.84
-7 -3 10 4.48 0.86
-7 -3 10 4.35 0.99
-7 -3 10 5.83 1.02
-7 -3 10 2.66 0.84
-7 -3 9 262.54 7
-7 -3 9 263.47 11.24
-7 -3 9 238.96 7.51
-7 -3 9 244.25 7.09
-7 -3 9 238.66 7.75
-7 -3 9 238.71 7.8
-7 -3 8 3.35 1.01
-7 -3 8 1.43 0.64
-7 -3 8 1.7 0.66
-7 -3 8 1.85 0.66
-7 -3 8 2.14 0.99
-7 -3 8 1.94 0.65
-7 -3 7 116.48 4.14
-7 -3 7 115.09 7.16
-7 -3 7 111.97 4.31
-7 -3 7 113.86 4.36
7 3 -7 110.36 2.44
-7 -3 7 105.91 4.4
-7 -3 7 106.89 4.6
-7 -3 6 509.48 16.32
7 3 -6 481.37 8.57
-7 -3 5 366.4 13.09
7 3 -5 338.65 6.2
7 3 -4 453.23 12.77
-7 -3 4 452.72 14.7
7 3 -4 442.94 7.88
7 3 -3 1.47 0.94
7 3 -3 1.45 0.23
-7 -3 3 0.89 0.83
7 3 -2 118.07 6.6
-7 -3 2 130.84 6.69
7 3 -2 127.67 2.64
7 3 -1 5.23 1.5
-7 -3 1 5.45 1.43
7 3 0 2.28 1.1
-7 -3 0 2.97 0.99
7 3 1 179.22 9.07
-7 -3 -1 199.29 7.42
7 3 2 32.3 3.86
-7 -3 -2 39.77 1.01
7 3 3 111.08 7.41
-7 -3 -3 130.91 2.64
7 3 4 30.09 3.75
7 3 4 26.78 1.91
-7 -3 -4 31.1 0.97
7 3 5 5.08 1.61
7 3 5 7.8 1.08
-7 -3 -5 7.27 0.46
-7 -3 -5 9.4 3.96
7 3 6 8.59 2
7 3 6 10.26 1.3
-7 -3 -6 9.66 0.56
-7 -3 -6 9.71 4.49
7 3 7 127.84 4.99
-7 -3 -7 130.25 2.85
-7 -3 -7 119.05 15.81
7 3 8 103.29 4.46
-7 -3 -8 97.66 2.35
7 3 9 4.4 0.82
7 3 9 2.72 0.79
-7 -3 -9 3.17 0.36
-7 -3 -9 2.91 0.98
7 3 10 152.29 5.08
7 3 10 150.4 5.36
-7 -3 -10 135.03 14.08
-7 -3 -10 137.65 2.98
-7 -3 -10 141.59 6.1
7 3 11 7.07 1.01
7 3 11 6.55 1.08
-7 -3 -11 5.04 2.94
-7 -3 -11 6.52 0.41
-7 -3 -11 6.75 1.25
7 3 12 5.66 1.01
7 3 12 5.68 0.85
7 3 12 6.76 0.99
-7 -3 -12 3.53 2.22
-7 -3 -12 6.41 1.16
7 3 13 2.1 0.64
7 3 13 2.64 0.55
7 3 13 2.15 0.56
-7 -3 -13 1.76 1.38
-7 -3 -13 2.55 0.72
7 3 14 10.74 0.92
7 3 14 9.81 0.74
7 3 14 10.57 0.88
-7 -3 -14 11.31 1.02
-7 -4 17 18.81 1.02
-7 -4 17 19.33 1.04
-7 -4 16 6.58 0.83
-7 -4 16 7.18 0.9
-7 -4 15 1.84 0.61
-7 -4 15 2.54 0.7
-7 -4 14 20.05 1.84
-7 -4 14 19.48 1.86
-7 -4 13 0.5 0.52
-7 -4 13 -0.4 0.56
-7 -4 13 1.51 0.77
-7 -4 12 6.42 0.97
-7 -4 12 5.02 1.06
-7 -4 12 5.26 0.9
-7 -4 12 5.77 1.2
-7 -4 11 5.72 1.2
-7 -4 11 5.97 0.98
-7 -4 11 5.56 1.15
-7 -4 11 5.2 0.95
-7 -4 11 6.07 1.31
-7 -4 10 2.54 0.97
-7 -4 10 3.03 0.86
-7 -4 10 2.85 1.05
-7 -4 10 2.19 0.7
-7 -4 10 1.93 0.83
-7 -4 9 46.78 2.68
-7 -4 9 41.7 4.3
-7 -4 9 43.26 2.87
-7 -4 9 43.17 2.66
-7 -4 9 38.85 2.82
-7 -4 9 36.01 2.76
-7 -4 8 1.8 0.69
-7 -4 8 2.64 0.72
-7 -4 8 1.91 0.68
-7 -4 8 2.26 0.75
-7 -4 8 2.65 1.27
7 4 -8 2.47 0.3
-7 -4 8 1.51 0.79
-7 -4 7 5.18 1.04
-7 -4 7 5.62 0.89
-7 -4 7 5.1 0.96
-7 -4 7 4.83 0.88
-7 -4 7 4.23 1.37
7 4 -7 5.12 0.4
-7 -4 7 4.12 0.93
-7 -4 6 408.91 9.43
-7 -4 6 411.01 14.43
-7 -4 6 390.25 9.59
-7 -4 6 396.92 9.87
7 4 -6 387.37 7.03
-7 -4 6 368.7 9.68
-7 -4 6 374.58 9.87
-7 -4 5 6.16 1.74
7 4 -5 6.66 0.43
7 4 -4 154.51 6.93
-7 -4 4 157.85 8.1
7 4 -4 158.73 3.18
-7 -4 3 1.37 0.76
7 4 -3 2.04 0.25
7 4 -3 2.11 1.05
-7 -4 2 3.39 1.2
7 4 -2 3.58 0.31
7 4 -2 3.31 1.21
7 4 -1 75.07 5.57
-7 -4 1 79.84 5.14
7 4 0 45.2 4.4
-7 -4 0 49.92 3.87
7 4 1 279.42 11.94
-7 -4 -1 311.9 10.18
7 4 2 76.94 6.12
-7 -4 -2 92.04 1.91
7 4 3 70.89 5.91
-7 -4 -3 79.92 1.79
7 4 4 15.63 2.82
7 4 4 14.65 1.41
-7 -4 -4 16.15 0.65
7 4 5 33.87 3.97
7 4 5 38.68 2.32
-7 -4 -5 37.99 1.16
-7 -4 -5 36.85 7.04
7 4 6 8.19 2.12
7 4 6 10.96 1.34
-7 -4 -6 10.35 0.58
7 4 7 17.93 1.7
-7 -4 -7 15.51 0.72
7 4 8 79.27 3.7
-7 -4 -8 70.32 1.83
-7 -4 -8 74.05 4.31
7 4 9 4.61 0.94
-7 -4 -9 4.3 0.39
-7 -4 -9 3.64 1.25
7 4 10 42.82 2.28
7 4 10 40.73 2.58
-7 -4 -10 42.67 3.14
7 4 11 18.13 1.9
7 4 11 18.12 1.41
7 4 11 18.9 1.65
-7 -4 -11 14.53 3.69
-7 -4 -11 18.68 1.99
7 4 12 28.13 2.14
7 4 12 25.17 1.52
7 4 12 28.7 1.82
-7 -4 -12 26.74 5.07
-7 -4 -12 29.57 2.24
7 4 13 0.28 0.4
7 4 13 -0.09 0.26
-7 -4 -13 -0.13 0.38
7 4 14 6.4 0.62
7 4 14 6.16 0.53
-7 -4 -14 6.81 0.69
-7 -5 17 0.28 0.21
-7 -5 16 0.86 0.4
-7 -5 16 0.97 0.49
-7 -5 15 0.11 0.35
-7 -5 15 -0.19 0.43
-7 -5 14 3.15 0.77
-7 -5 14 2.15 0.78
-7 -5 13 128.66 4.26
-7 -5 13 135.17 5.3
-7 -5 13 137.34 4.58
-7 -5 13 128.42 5.35
-7 -5 12 3.41 0.96
-7 -5 12 3.87 0.81
-7 -5 12 3.78 0.96
-7 -5 12 4.15 0.95
-7 -5 12 3.36 0.92
-7 -5 11 0.68 0.57
-7 -5 11 0.59 0.51
-7 -5 11 0.48 0.55
-7 -5 11 -0.6 0.7
-7 -5 11 -0.31 0.66
-7 -5 10 5 1.1
-7 -5 10 6.28 1.01
-7 -5 10 7.09 1.23
-7 -5 10 5.77 1.13
-7 -5 10 6.45 1.28
-7 -5 9 88.26 3.84
-7 -5 9 82.11 4.09
-7 -5 9 79.54 3.92
7 5 -9 80.22 1.97
-7 -5 9 84.68 4.21
-7 -5 9 85.89 4.3
-7 -5 8 297.44 7.93
-7 -5 8 273.96 7.41
-7 -5 8 296.05 11.89
-7 -5 8 275.94 8.25
-7 -5 8 264.18 8.03
7 5 -8 277.53 5.24
-7 -5 8 268.2 8.17
-7 -5 8 269.05 8.41
-7 -5 7 101.37 4.08
-7 -5 7 97.86 6.65
-7 -5 7 96.54 4.24
-7 -5 7 101.22 4.36
7 5 -7 97.67 2.23
-7 -5 7 90.56 4.08
-7 -5 7 95.74 4.4
-7 -5 6 509.03 11.6
-7 -5 6 529.86 16.8
-7 -5 6 502.25 11.84
-7 -5 6 512.66 12.05
7 5 -6 502.38 8.91
-7 -5 6 477.11 11.69
-7 -5 6 499.89 12.09
-7 -5 5 74.07 11.25
-7 -5 5 77.63 3.32
-7 -5 5 80.38 5.78
-7 -5 5 79.42 3.53
-7 -5 5 81.67 3.69
7 5 -5 79.44 1.88
-7 -5 5 75.96 3.59
-7 -5 4 9.84 1.99
7 5 -4 10.1 0.52
7 5 -4 9.03 1.86
-7 -5 3 65.81 4.99
7 5 -3 64.49 1.59
7 5 -3 58.39 4.63
-7 -5 2 0.48 0.67
7 5 -2 0.54 0.18
7 5 -2 0.45 0.84
-7 -5 1 23.61 2.86
7 5 -1 24.23 3.29
-7 -5 0 23.26 2.76
7 5 0 21.65 3.1
7 5 1 14.14 2.7
7 5 2 27.47 3.68
-7 -5 -2 27.23 1.95
-7 -5 -2 26.89 2.04
-7 -5 -2 28.79 0.82
-7 -5 -3 5.27 0.97
7 5 3 4.33 0.76
-7 -5 -3 4.96 0.35
7 5 3 5.46 1.69
7 5 4 194.14 9.95
7 5 4 193.38 5.8
-7 -5 -4 191.14 6.04
-7 -5 -4 199.54 3.86
7 5 5 79.57 3.41
-7 -5 -5 78.07 1.89
7 5 6 61.28 3.01
-7 -5 -6 57.87 1.57
-7 -5 -6 57.78 3.59
7 5 7 117.63 4.49
-7 -5 -7 111.51 2.52
-7 -5 -7 108.85 5.28
7 5 8 165.86 5.49
-7 -5 -8 151.25 6.4
7 5 9 -0.14 0.4
-7 -5 -9 0.12 0.59
7 5 10 34.06 2.16
-7 -5 -10 35.14 2.76
7 5 11 2.29 0.74
7 5 11 3.64 0.67
-7 -5 -11 3.51 0.88
7 5 12 2.79 0.68
7 5 12 2.82 0.51
-7 -5 -12 3.24 0.77
7 5 13 5.06 0.73
7 5 13 4.26 0.49
-7 -5 -13 4.82 0.75
-7 -6 16 0.36 0.3
-7 -6 16 0.86 0.42
-7 -6 15 10.18 3.73
-7 -6 15 10.92 1.13
-7 -6 15 10.23 1.19
-7 -6 14 1.14 0.55
-7 -6 14 1.56 0.55
-7 -6 14 0.78 0.58
-7 -6 13 37.75 2.29
-7 -6 13 40.86 2.67
-7 -6 13 40.18 2.41
-7 -6 13 38.39 2.76
-7 -6 12 1.37 0.87
-7 -6 12 2.1 0.77
-7 -6 12 3.02 0.9
-7 -6 12 1.54 0.64
-7 -6 12 2.98 0.92
-7 -6 11 32.18 2.29
-7 -6 11 28.63 2.42
-7 -6 11 31.99 2.48
-7 -6 11 30.15 2.55
-7 -6 11 30.81 2.6
-7 -6 10 29.68 2.22
-7 -6 10 26.9 2.35
-7 -6 10 25.74 2.25
7 6 -10 24.35 0.87
-7 -6 10 22.84 2.24
-7 -6 10 24.1 2.37
-7 -6 9 265.21 7.53
-7 -6 9 246.71 7.07
-7 -6 9 246.63 7.89
-7 -6 9 251.18 7.86
-7 -6 9 240.14 7.1
7 6 -9 237.51 4.65
-7 -6 9 238.27 7.74
-7 -6 9 248.13 8.05
-7 -6 8 70.46 3.42
-7 -6 8 64.59 3.03
-7 -6 8 64.26 3.58
-7 -6 8 58.8 3.35
-7 -6 8 62.86 3.56
-7 -6 8 59.27 3.25
7 6 -8 62.7 1.62
-7 -6 8 60.73 3.59
-7 -6 7 225.28 6.64
-7 -6 7 213.79 9.97
-7 -6 7 213.17 6.95
-7 -6 7 215.78 7.08
-7 -6 7 215.07 5.89
-7 -6 7 193.11 6.59
7 6 -7 213.36 4.12
-7 -6 7 197.5 6.47
-7 -6 7 190.54 6.82
-7 -6 6 6.79 4.48
-7 -6 6 7.66 1.21
-7 -6 6 7.13 1.11
-7 -6 6 5.25 0.89
-7 -6 6 7.28 1.16
-7 -6 6 7.59 1.25
-7 -6 6 6.37 1.81
-7 -6 6 6.77 0.94
-7 -6 6 6.87 1.13
7 6 -6 6.19 0.42
-7 -6 6 5 0.99
-7 -6 5 96.32 3.83
-7 -6 5 92.36 3.82
-7 -6 5 88.05 6.2
-7 -6 5 86.97 3.92
-7 -6 5 90.84 4.14
-7 -6 5 95.58 3.77
-7 -6 5 86.9 4.1
7 6 -5 92.74 2.08
-7 -6 5 82.83 3.54
-7 -6 5 84.57 4.01
-7 -6 5 87.81 13.15
-7 -6 4 36.66 8.12
-7 -6 4 33.2 2.09
-7 -6 4 30.69 2.16
-7 -6 4 34.32 3.84
-7 -6 4 30.62 2.19
-7 -6 4 32.66 2.35
-7 -6 4 31.66 2.1
-7 -6 4 29.61 2.28
7 6 -4 31.7 0.98
-7 -6 4 26.06 2.15
7 6 -4 26.54 3.1
-7 -6 3 30.34 7.6
-7 -6 3 37.25 2.24
-7 -6 3 41.18 4.14
-7 -6 3 41.03 2.48
-7 -6 3 40.74 2.63
-7 -6 3 40.72 2.4
-7 -6 3 39.36 2.64
7 6 -3 39.71 1.13
-7 -6 3 33.33 2.28
7 6 -3 37.41 3.71
-7 -6 2 6.98 1
-7 -6 2 5.42 0.99
-7 -6 2 6.24 0.95
-7 -6 2 7.04 1.81
-7 -6 2 6.04 1.08
-7 -6 2 5.55 0.92
7 6 -2 3.58 1.27
-7 -6 1 95.07 3.47
-7 -6 1 106.56 6.27
-7 -6 1 102.54 4.07
-7 -6 1 102.79 4.17
-7 -6 1 106.36 4.43
7 6 -1 94.18 6.57
-7 -6 1 100.71 13.96
-7 -6 0 11.4 1.31
-7 -6 0 11.55 1.36
-7 -6 0 14.42 2.36
7 6 0 11.73 2.45
-7 -6 -1 65.49 3.2
-7 -6 -1 62.82 3.35
7 6 1 63.97 5.59
-7 -6 -2 60.89 3.19
-7 -6 -2 54.87 3.13
7 6 2 53.94 5.18
-7 -6 -3 20.4 1.9
7 6 3 21.52 3.34
7 6 4 64.42 5.59
-7 -6 -4 67.41 3.3
7 6 4 80.31 3.17
-7 -6 -4 69.2 3.47
-7 -6 -4 72.2 3.66
-7 -6 -5 45.41 2.54
7 6 5 52.4 2.6
-7 -6 -5 48.02 3.13
-7 -6 -5 46.26 2.74
7 6 6 0.08 0.36
-7 -6 -6 -0.19 0.59
7 6 7 40.09 2.29
-7 -6 -7 33.57 2.15
-7 -6 -7 35.6 2.89
7 6 8 0.63 0.42
-7 -6 -8 0.42 0.7
7 6 9 9.69 1.08
-7 -6 -9 8.41 1.37
7 6 10 1.69 0.74
7 6 10 1.05 0.49
-7 -6 -10 2.05 0.83
7 6 11 1.78 0.58
7 6 11 2.36 0.48
-7 -6 -11 2.75 0.77
-7 -6 -11 1.35 0.4
7 6 12 8.29 1
7 6 12 7.25 0.61
-7 -6 -12 7.74 1
7 6 13 43.63 1.77
-7 -6 -13 45.99 1.86
-7 -7 16 6.1 2.12
-7 -7 16 5.11 0.55
-7 -7 16 5.81 0.73
-7 -7 15 3.68 1.61
-7 -7 15 5.94 0.77
-7 -7 15 5.12 0.63
-7 -7 15 5.91 0.9
-7 -7 14 8.79 4.26
-7 -7 14 5.09 0.82
-7 -7 14 6.55 0.86
-7 -7 14 6.31 1.05
-7 -7 13 29.17 2.07
-7 -7 13 31.65 2.24
-7 -7 13 28.62 2.08
-7 -7 13 27.59 2.23
-7 -7 12 2.87 0.98
-7 -7 12 4.23 0.95
-7 -7 12 3.47 0.84
-7 -7 12 2.72 0.84
-7 -7 12 2.4 0.82
-7 -7 11 4.12 0.98
-7 -7 11 4.12 0.95
-7 -7 11 3.4 0.99
-7 -7 11 4.16 1.06
-7 -7 11 4.1 1.02
-7 -7 10 -0.42 0.65
-7 -7 10 0.54 0.65
-7 -7 10 0.09 0.53
-7 -7 10 0.23 0.57
-7 -7 10 -0.61 0.59
-7 -7 9 160.14 5.59
-7 -7 9 147.17 5.12
-7 -7 9 144.75 5.75
-7 -7 9 144.26 5.82
-7 -7 9 152.25 5.18
7 7 -9 144.68 2.99
-7 -7 9 134.24 5.44
-7 -7 9 147.99 5.96
-7 -7 8 3.3 0.97
-7 -7 8 5.27 1.08
-7 -7 8 3.06 0.84
-7 -7 8 3.51 0.69
-7 -7 8 4.56 1.06
-7 -7 8 3.78 1.06
-7 -7 8 3.46 0.75
7 7 -8 2.94 0.3
-7 -7 8 3.96 0.96
-7 -7 7 5.99 5.36
-7 -7 7 3.35 0.9
-7 -7 7 4.83 0.98
-7 -7 7 4.71 1.08
-7 -7 7 5.52 0.97
-7 -7 7 4.46 0.79
-7 -7 7 4.03 0.93
-7 -7 7 3.47 1
-7 -7 7 4.21 0.8
7 7 -7 4.6 0.37
-7 -7 7 3.02 0.83
-7 -7 6 -1.42 3.32
-7 -7 6 -0.24 0.49
-7 -7 6 -0.47 0.51
-7 -7 6 0.34 0.55
-7 -7 6 -0.03 0.55
-7 -7 6 0.4 0.45
-7 -7 6 0.67 0.68
-7 -7 6 -0.48 0.95
-7 -7 6 -0.01 0.48
7 7 -6 0.11 0.16
-7 -7 6 0.01 0.45
-7 -7 5 4.46 4.05
-7 -7 5 6.56 1.11
-7 -7 5 8.96 1.23
-7 -7 5 10.13 1.34
-7 -7 5 10.4 1.38
-7 -7 5 8.66 1.29
-7 -7 5 8.35 1.87
-7 -7 5 9.7 1.27
7 7 -5 9.33 0.49
-7 -7 5 10.08 1.44
-7 -7 4 -0.81 2.64
-7 -7 4 0.7 0.45
-7 -7 4 1.1 0.66
-7 -7 4 0.75 0.52
-7 -7 4 1.48 0.72
-7 -7 4 0.96 0.94
-7 -7 4 1.4 0.76
-7 -7 4 0.9 0.61
7 7 -4 1.46 1.13
7 7 -4 0.74 0.18
-7 -7 4 0.43 0.62
-7 -7 3 2.92 0.66
-7 -7 3 4.69 0.86
-7 -7 3 4.84 0.97
-7 -7 3 4.46 0.9
-7 -7 3 3.78 1.44
-7 -7 3 5.87 1.14
-7 -7 3 4.11 0.86
7 7 -3 5.65 1.64
7 7 -3 4.43 0.34
-7 -7 3 3.62 1.04
-7 -7 2 68.61 3.01
-7 -7 2 79.79 5.57
-7 -7 2 75.38 3.7
-7 -7 2 76.09 3.66
-7 -7 2 72.62 3.64
-7 -7 2 79.39 3.64
-7 -7 2 72.04 3.82
7 7 -2 62.16 5.21
-7 -7 2 68.4 11.91
-7 -7 1 20.2 1.48
-7 -7 1 21 1.98
-7 -7 1 21.02 1.85
-7 -7 1 19.03 1.8
-7 -7 1 21.78 1.91
-7 -7 1 18.52 1.92
7 7 -1 18.81 2.91
-7 -7 1 18.89 6.33
-7 -7 0 51.27 3.05
-7 -7 0 51.55 2.73
-7 -7 0 50.59 2.95
-7 -7 0 47.73 2.88
-7 -7 0 46.85 3.06
7 7 0 43.36 4.59
-7 -7 -1 120.38 4.8
-7 -7 -1 120.06 4.81
-7 -7 -1 117.24 4.76
-7 -7 -1 116.95 4.99
7 7 1 110.34 7.43
-7 -7 -2 15.62 2.05
-7 -7 -2 10.48 1.41
-7 -7 -2 10.9 1.55
7 7 2 10 2.27
-7 -7 -3 0.98 0.65
-7 -7 -3 0.79 0.73
-7 -7 -3 1.38 0.82
-7 -7 -4 7.12 1.07
-7 -7 -4 8.17 1.23
-7 -7 -4 7.38 1.25
-7 -7 -4 6.75 1.08
-7 -7 -5 37.19 2.22
-7 -7 -5 37.86 2.5
-7 -7 -5 40.98 2.76
-7 -7 -6 1.05 0.58
-7 -7 -6 2.46 0.87
-7 -7 -7 2.1 0.58
-7 -7 -7 2.07 0.74
-7 -7 -8 1.36 0.68
7 7 9 16.35 1.77
-7 -7 -9 16.96 1.82
7 7 10 4.76 0.91
-7 -7 -10 4.05 0.92
7 7 11 0.69 0.51
-7 -7 -11 0.15 0.41
-7 -7 -11 0.29 0.26
7 7 12 4.51 0.63
-7 -7 -12 4.77 0.67
-7 -8 16 40.17 1.59
-7 -8 15 1.35 0.36
-7 -8 15 1.25 0.38
-7 -8 15 1.19 0.49
-7 -8 14 0.38 0.35
-7 -8 14 0.1 0.36
-7 -8 14 0.77 0.52
-7 -8 13 4.46 3.72
-7 -8 13 1.19 0.61
-7 -8 13 2.15 0.67
-7 -8 13 1.96 0.69
-7 -8 12 1.54 0.7
-7 -8 12 2.74 0.9
-7 -8 12 2.67 0.84
-7 -8 12 2.81 0.85
-7 -8 12 3.96 0.9
-7 -8 11 4.95 0.98
-7 -8 11 3.57 0.87
-7 -8 11 3 0.79
-7 -8 11 2.96 0.95
-7 -8 11 3.05 0.94
-7 -8 10 6.32 1.19
-7 -8 10 5.33 1.04
-7 -8 10 7.19 1.13
-7 -8 10 6.88 1.2
-7 -8 10 7.03 1.39
-7 -8 10 5.45 1.1
-7 -8 9 171.92 5.92
-7 -8 9 168.43 5.54
-7 -8 9 165.52 6.18
-7 -8 9 164.14 6.28
-7 -8 9 170.64 5.06
-7 -8 9 166.69 5.38
-7 -8 9 145.49 5.55
-7 -8 9 156.07 6.29
-7 -8 9 158.11 19.92
-7 -8 8 106.62 4.4
-7 -8 8 98.74 3.86
-7 -8 8 97.65 4.59
-7 -8 8 96.55 4.68
-7 -8 8 98.45 3.84
-7 -8 8 91.58 4.06
7 8 -8 93.89 2.1
-7 -8 8 86.6 3.9
-7 -8 8 87.08 4.52
-7 -8 8 104.24 16.21
-7 -8 7 24.8 8
-7 -8 7 21.55 1.95
-7 -8 7 16.87 1.61
-7 -8 7 19.02 1.56
-7 -8 7 19.29 1.73
-7 -8 7 18.41 1.93
-7 -8 7 20.43 2.11
-7 -8 7 19.28 1.74
-7 -8 7 18.91 1.88
7 8 -7 19.68 0.72
-7 -8 7 17.54 1.93
-7 -8 6 2.87 0.89
-7 -8 6 2.84 0.88
-7 -8 6 3.04 0.85
-7 -8 6 3.21 0.82
-7 -8 6 2.62 0.75
-7 -8 6 2.52 0.83
-7 -8 6 2.97 0.75
7 8 -6 2.89 0.27
-7 -8 5 89.34 3.81
-7 -8 5 87.53 4.03
-7 -8 5 87.36 4.22
-7 -8 5 86.33 4.3
-7 -8 5 88.14 3.94
-7 -8 5 83.89 4.21
7 8 -5 83.74 1.87
-7 -8 5 75.64 3.92
-7 -8 5 84.61 14.31
-7 -8 4 14.86 6.8
-7 -8 4 8.04 1.22
-7 -8 4 9.01 1.15
-7 -8 4 9.49 1.32
-7 -8 4 9.56 1.35
-7 -8 4 7.85 1.78
-7 -8 4 9.15 1.42
-7 -8 4 8.31 1.27
-7 -8 4 9.73 1.46
7 8 -4 6.94 1.86
7 8 -4 8.84 0.44
-7 -8 3 42.02 2.32
-7 -8 3 47.33 4.34
-7 -8 3 47.46 2.99
-7 -8 3 42.23 2.79
-7 -8 3 42.64 2.85
-7 -8 3 48.66 2.96
-7 -8 3 39.98 2.93
7 8 -3 36.78 3.9
-7 -8 3 37.1 2.41
-7 -8 3 49.66 10.86
-7 -8 2 0.3 0.54
-7 -8 2 0.04 0.66
-7 -8 2 -0.17 0.53
-7 -8 2 0.19 0.57
-7 -8 2 1.12 0.68
-7 -8 2 0.02 0.54
7 8 -2 0.37 0.95
-7 -8 2 -1.41 3.19
-7 -8 1 2.9 0.84
-7 -8 1 3.31 0.87
-7 -8 1 3.22 0.96
-7 -8 1 2.61 0.84
-7 -8 1 2.45 0.8
7 8 -1 3.77 1.38
-7 -8 0 93.18 4.35
-7 -8 0 95.6 4.11
-7 -8 0 87.26 4.25
-7 -8 0 92.69 4.27
-7 -8 0 87.89 4.46
-7 -8 -1 53.77 3.25
-7 -8 -1 56.21 3.16
-7 -8 -1 53.56 3.43
-7 -8 -1 54.23 3.22
-7 -8 -1 56.88 3.55
-7 -8 -2 88.66 4.14
-7 -8 -2 82.95 3.97
-7 -8 -2 83.49 4.32
-7 -8 -3 44.7 2.75
-7 -8 -3 40.26 2.75
-7 -8 -3 42.26 2.96
-7 -8 -4 1.59 0.64
-7 -8 -4 1.19 0.7
-7 -8 -4 1.63 0.56
-7 -8 -5 17.97 1.51
-7 -8 -5 17.89 1.71
-7 -8 -5 19.03 1.78
-7 -8 -6 33.59 2.04
-7 -8 -6 36.08 2.59
-7 -8 -7 22.68 2.07
-7 -8 -8 1.35 0.78
7 8 9 3.2 0.82
-7 -8 -9 3.4 0.92
-7 -8 -9 2.76 0.69
7 8 10 9.8 1.1
-7 -8 -10 9.36 1.11
-7 -8 -10 7.54 0.79
7 8 11 39.78 1.84
-7 -8 -11 35.65 1.8
-7 -9 15 1.34 0.32
-7 -9 15 1.95 0.33
-7 -9 15 1.72 0.41
-7 -9 14 5.95 2.92
-7 -9 14 5.47 0.68
-7 -9 14 5.73 0.84
-7 -9 14 5.92 0.82
-7 -9 13 6.3 3.34
-7 -9 13 8.61 1.02
-7 -9 13 7.64 1.08
-7 -9 13 3.93 2.6
-7 -9 13 5.68 0.89
-7 -9 12 2.37 3.33
-7 -9 12 0.7 0.58
-7 -9 12 1.99 1.09
-7 -9 12 0.74 0.48
-7 -9 12 0.26 0.53
-7 -9 12 -0.13 0.45
-7 -9 11 1.03 0.75
-7 -9 11 1.92 0.87
-7 -9 11 1.26 0.62
-7 -9 11 1.33 0.73
-7 -9 11 0.79 0.46
-7 -9 11 2.37 2.91
-7 -9 10 11.84 5.43
-7 -9 10 10.24 1.05
-7 -9 10 8.93 1.47
-7 -9 10 11.13 1.4
-7 -9 10 10.87 1.29
-7 -9 10 8.32 1.26
-7 -9 10 8.91 1.44
-7 -9 10 8.59 1.15
-7 -9 9 38.17 9.74
-7 -9 9 44.59 2.27
-7 -9 9 47.29 2.84
-7 -9 9 39.77 2.43
-7 -9 9 40.38 2.79
-7 -9 9 39.52 2.94
-7 -9 9 41.42 2.37
-7 -9 9 39.45 2.41
-7 -9 9 40.17 2.98
-7 -9 8 1.71 2.53
-7 -9 8 5.09 0.78
-7 -9 8 4.94 1.13
-7 -9 8 5.01 0.93
-7 -9 8 5.22 0.86
-7 -9 8 4.84 1.05
-7 -9 8 4.68 1.1
-7 -9 8 4.32 0.82
-7 -9 8 5.1 0.93
-7 -9 7 11.39 6.05
-7 -9 7 9.59 1.07
-7 -9 7 6.9 1.23
-7 -9 7 10.88 1.41
-7 -9 7 7.09 0.94
-7 -9 7 9.6 1.44
-7 -9 7 10.1 1.55
-7 -9 7 9.47 1.29
-7 -9 7 10.59 1.43
-7 -9 6 2.84 2.26
-7 -9 6 4.76 1.05
-7 -9 6 4.8 1.03
-7 -9 6 5.64 1.06
-7 -9 6 6.71 1.15
-7 -9 6 4.78 0.98
-7 -9 6 5.2 1.16
-7 -9 6 6.3 1.16
-7 -9 5 20.14 7.15
-7 -9 5 23.47 1.9
-7 -9 5 23.21 2.12
-7 -9 5 23.37 2.17
-7 -9 5 21.39 2.12
-7 -9 5 24.52 2.13
-7 -9 5 25.37 2.32
-7 -9 5 20.41 1.95
-7 -9 4 3.45 0.86
-7 -9 4 3.5 0.8
-7 -9 4 5.28 1.15
-7 -9 4 5.14 1.1
-7 -9 4 5.73 1.12
-7 -9 4 3.51 0.91
-7 -9 4 5.38 1.12
-7 -9 4 5.01 1.13
-7 -9 4 3.88 2.65
-7 -9 3 18.99 1.52
-7 -9 3 19.75 1.98
-7 -9 3 16.74 1.87
-7 -9 3 18.48 1.92
-7 -9 3 15.05 1.73
-7 -9 3 19.39 1.94
-7 -9 3 18.54 2.04
-7 -9 3 16.19 6.57
-7 -9 2 51.92 3.29
-7 -9 2 55.17 3.37
-7 -9 2 56.7 3.4
-7 -9 2 61.77 3.41
-7 -9 2 54.63 3.57
-7 -9 2 57.12 3
-7 -9 1 14.02 1.76
-7 -9 1 15.65 1.79
-7 -9 1 14.5 1.78
-7 -9 1 16.52 1.82
-7 -9 1 14.42 1.87
-7 -9 0 75.53 3.92
-7 -9 0 81.11 4.05
-7 -9 0 75.18 4.13
-7 -9 0 80.35 4
-7 -9 0 74.89 4.17
-7 -9 -1 2.29 0.9
-7 -9 -1 2.84 1.21
-7 -9 -1 3.33 0.96
-7 -9 -2 20.54 1.92
-7 -9 -2 20.27 1.89
-7 -9 -2 20.24 2.14
-7 -9 -3 1.24 0.49
-7 -9 -3 0.88 0.52
-7 -9 -3 1.33 0.68
-7 -9 -3 1.63 0.89
-7 -9 -4 1.71 0.6
-7 -9 -4 3.15 0.83
-7 -9 -4 1.56 0.68
-7 -9 -5 8.32 1.04
-7 -9 -5 10.75 1.2
-7 -9 -5 11.26 1.26
-7 -9 -6 3.09 0.64
-7 -9 -6 3.41 0.62
-7 -9 -6 2.25 0.68
7 9 7 15.43 1.55
-7 -9 -7 13.75 2.05
-7 -9 -7 14.13 1.58
-7 -9 -7 13.2 1.39
-7 -9 -8 14.48 1.4
7 9 8 16.45 1.48
-7 -9 -8 15.23 1.5
7 9 9 11.79 1.13
-7 -9 -9 10.64 1.04
-7 -9 -9 11.6 1.14
7 9 10 -0.47 0.36
-7 -9 -10 0.08 0.29
-7 -9 -10 0.01 0.21
-7 -10 15 8.89 2.2
-7 -10 14 3.46 0.54
-7 -10 14 2.79 0.4
-7 -10 14 3.3 0.56
-7 -10 14 2.19 0.42
-7 -10 13 16.16 4.76
-7 -10 13 14.64 1.31
-7 -10 13 16.8 1.21
-7 -10 13 14.92 1.38
-7 -10 13 13.22 1.06
-7 -10 12 60.27 2.73
-7 -10 12 56.69 3
-7 -10 12 52.59 2.38
-7 -10 12 59.82 3.12
-7 -10 12 54.26 9.71
-7 -10 11 2.71 1.97
-7 -10 11 4.57 1
-7 -10 11 4.23 1.15
-7 -10 11 5.59 0.95
-7 -10 11 4.71 0.99
-7 -10 11 3.48 0.68
-7 -10 10 3.43 2.51
-7 -10 10 3.07 0.62
-7 -10 10 2.35 0.84
-7 -10 10 2.94 0.87
-7 -10 10 1.29 0.47
-7 -10 10 2.06 0.68
-7 -10 10 1.77 0.9
-7 -10 10 1.14 1.52
-7 -10 9 3.78 3.32
-7 -10 9 8.46 1.01
-7 -10 9 8.67 1.37
-7 -10 9 9.32 1.28
-7 -10 9 8.16 1.08
-7 -10 9 9.49 1.31
-7 -10 9 8.1 1.35
-7 -10 9 10.05 1.38
-7 -10 8 0.67 2.53
-7 -10 8 0.67 0.41
-7 -10 8 -0.11 0.55
-7 -10 8 1.18 0.69
-7 -10 8 0.65 0.45
-7 -10 8 0.79 0.67
-7 -10 8 0.81 0.62
-7 -10 8 0.18 0.65
-7 -10 8 -0.43 0.45
-7 -10 7 45.67 10.62
-7 -10 7 33.65 2.07
-7 -10 7 38.33 2.45
-7 -10 7 37.26 2.13
-7 -10 7 36.01 2.66
-7 -10 7 32.84 2.68
-7 -10 7 35.64 2.49
-7 -10 7 36.05 2.46
-7 -10 7 27.79 2.41
-7 -10 6 50.65 11.51
-7 -10 6 50.95 2.57
-7 -10 6 55.72 2.95
-7 -10 6 49.24 3.35
-7 -10 6 52.25 3.24
-7 -10 6 50 3.25
-7 -10 6 53.8 3.13
-7 -10 6 47.95 3.06
-7 -10 6 42.99 2.93
-7 -10 5 124.95 4.32
-7 -10 5 126.07 4.52
-7 -10 5 123.58 5.11
-7 -10 5 124.16 5.53
-7 -10 5 127.53 5.25
-7 -10 5 117.31 5.12
-7 -10 5 132.17 5.2
-7 -10 5 123.11 5.28
-7 -10 5 109.71 4.66
-7 -10 5 120.67 17.56
-7 -10 4 85.1 3.47
-7 -10 4 83.02 3.42
-7 -10 4 83.77 4.19
-7 -10 4 86.95 4.53
-7 -10 4 87.24 4.28
-7 -10 4 78.74 4.03
-7 -10 4 91.06 4.22
-7 -10 4 80.22 4.3
-7 -10 4 82.45 14.32
-7 -10 3 40.26 2.31
-7 -10 3 45.23 2.26
-7 -10 3 42.45 2.94
-7 -10 3 45.27 3.15
-7 -10 3 43.63 2.98
-7 -10 3 45.86 2.95
-7 -10 3 39.54 3.02
-7 -10 3 38.29 10.19
-7 -10 2 22.11 1.72
-7 -10 2 23.3 2.18
-7 -10 2 23.86 2.3
-7 -10 2 21.86 2.19
-7 -10 2 25.4 2.18
-7 -10 2 22.14 2.3
-7 -10 2 21.62 1.81
-7 -10 1 6.96 0.99
-7 -10 1 7.78 1.34
-7 -10 1 9.61 1.83
-7 -10 1 7.95 1.66
-7 -10 1 8.19 1.28
-7 -10 1 7.99 1.4
-7 -10 1 7.08 1.13
-7 -10 0 59.21 2.92
-7 -10 0 63.58 3.57
-7 -10 0 63.73 3.55
-7 -10 0 62.41 3.8
-7 -10 0 63.71 3.62
-7 -10 -1 0.3 0.33
-7 -10 -1 0.85 0.68
-7 -10 -1 0.12 0.51
-7 -10 -1 0.47 0.5
-7 -10 -2 47.92 2.59
-7 -10 -2 48.28 2.93
-7 -10 -2 51.8 2.96
-7 -10 -2 47.99 3.3
-7 -10 -2 54.08 3.39
-7 -10 -3 2.94 0.71
-7 -10 -3 2.6 0.81
-7 -10 -3 2.13 0.66
-7 -10 -3 3.99 0.96
-7 -10 -4 0.31 0.3
-7 -10 -4 0.17 0.48
-7 -10 -4 0.99 0.71
-7 -10 -5 26.7 1.71
-7 -10 -5 27.68 1.62
-7 -10 -5 31.73 2.43
7 10 6 71.69 2.99
-7 -10 -6 81.61 4.87
-7 -10 -6 73.08 3.54
-7 -10 -7 0.19 0.23
7 10 7 -0.5 0.42
-7 -10 -7 -0.94 1.31
-7 -10 -7 0.01 0.37
-7 -10 -7 0.11 0.4
-7 -10 -8 52.76 2.47
-7 -10 -8 50.37 2.13
7 10 9 2.15 0.36
-7 -10 -9 1.32 0.36
-7 -11 14 2.76 1.51
-7 -11 13 1.15 0.46
-7 -11 13 0.44 0.28
-7 -11 13 0.52 0.37
-7 -11 12 5.72 3.36
-7 -11 12 10.76 1.16
-7 -11 12 10.99 0.96
-7 -11 12 9.39 1.14
-7 -11 12 4.09 6.06
-7 -11 11 58.56 3.05
-7 -11 11 56.46 2.58
-7 -11 11 57.43 3
-7 -11 11 57.35 11.49
-7 -11 11 57.37 2.98
-7 -11 11 57.52 9.73
-7 -11 10 -3.12 3.19
-7 -11 10 -0.04 0.29
-7 -11 10 -0.04 0.45
-7 -11 10 0.05 0.58
-7 -11 10 0.22 0.29
-7 -11 10 -0.05 0.35
-7 -11 10 0.3 0.56
-7 -11 10 3.56 1.98
-7 -11 10 2.28 3.61
-7 -11 9 5.13 3.45
-7 -11 9 3.29 0.63
-7 -11 9 2.98 0.86
-7 -11 9 4.06 0.99
-7 -11 9 3.63 0.97
-7 -11 9 3.52 0.68
-7 -11 9 3.86 0.82
-7 -11 9 3.83 1
-7 -11 9 2.56 1.19
-7 -11 8 6.46 3.7
-7 -11 8 8.4 0.98
-7 -11 8 5.84 1.06
-7 -11 8 7.4 1.08
-7 -11 8 7.84 1.34
-7 -11 8 7.78 0.99
-7 -11 8 7.09 1.1
-7 -11 8 6.99 1.23
-7 -11 8 8.47 1.31
-7 -11 8 7.92 0.98
-7 -11 7 6.65 1.15
-7 -11 7 6.63 0.9
-7 -11 7 8.92 1.17
-7 -11 7 7.17 1.33
-7 -11 7 6.69 0.85
-7 -11 7 6.4 1.1
-7 -11 7 6.82 1.22
-7 -11 7 6.6 1.17
-7 -11 7 6.8 1.02
-7 -11 6 10.21 1.21
-7 -11 6 6.58 1.13
-7 -11 6 9.25 1.28
-7 -11 6 9.66 1.2
-7 -11 6 11.4 1.64
-7 -11 6 8.58 1.28
-7 -11 6 8.14 1.31
-7 -11 6 9.74 1.35
-7 -11 6 7.28 4.32
-7 -11 5 88.63 3.58
-7 -11 5 91.86 3.52
-7 -11 5 92.07 4.61
-7 -11 5 92.53 4.28
-7 -11 5 85.14 4.1
-7 -11 5 94.83 4.23
-7 -11 5 85.32 4.22
-7 -11 5 76.84 3.47
-7 -11 5 93.82 15.37
-7 -11 4 39.18 2.29
-7 -11 4 37.34 2.03
-7 -11 4 40.17 2.98
-7 -11 4 38.26 2.74
-7 -11 4 41.9 2.79
-7 -11 4 36.89 2.8
-7 -11 3 0.31 0.4
-7 -11 3 1.88 0.79
-7 -11 3 0.5 0.84
-7 -11 3 -0.23 0.67
-7 -11 3 0.58 0.6
-7 -11 3 3.99 6.3
-7 -11 2 14.14 1.39
-7 -11 2 17.91 2.31
-7 -11 2 13.26 2.05
-7 -11 2 15.57 1.7
-7 -11 2 12.89 1.73
-7 -11 2 15 1.5
-7 -11 2 11.01 7.88
-7 -11 1 26.34 1.89
-7 -11 1 26.47 2.2
-7 -11 1 26.32 2.43
-7 -11 1 28.05 2.16
-7 -11 1 20.63 10.94
-7 -11 0 116.63 4.33
-7 -11 0 131.24 4.92
-7 -11 0 116.5 5.37
-7 -11 0 125.57 4.98
-7 -11 0 104.62 18.94
-7 -11 -1 3.44 0.77
-7 -11 -1 4.71 0.96
-7 -11 -1 3.28 0.93
-7 -11 -2 10.73 1.18
-7 -11 -2 13.04 1.38
-7 -11 -2 11.82 1.51
-7 -11 -3 144.59 4.61
-7 -11 -3 153.15 5.58
-7 -11 -4 92.7 3.12
-7 -11 -4 101.48 4.33
-7 -11 -5 1.32 0.43
-7 -11 -5 0.34 0.44
-7 -11 -6 1.58 0.39
-7 -11 -6 1 0.54
-7 -11 -7 12.89 1.18
-7 -11 -8 1.91 0.39
-7 -12 13 24.73 4.04
-7 -12 12 18.92 1.26
-7 -12 12 14.89 0.83
-7 -12 12 15.88 1.26
-7 -12 12 21.14 4.83
-7 -12 11 155.84 4.75
-7 -12 11 144.92 3.92
-7 -12 11 149.28 4.71
-7 -12 11 142.53 13.98
-7 -12 10 1.13 0.54
-7 -12 10 1.84 0.6
-7 -12 10 1.85 0.51
-7 -12 10 1.68 0.59
-7 -12 10 3.13 1.79
-7 -12 10 0.66 6.1
-7 -12 10 0.67 2.79
-7 -12 9 0.49 0.32
-7 -12 9 0.44 0.49
-7 -12 9 1.24 0.65
-7 -12 9 0.99 0.39
-7 -12 9 1.19 0.45
-7 -12 9 1.54 0.7
-7 -12 9 0.38 1.73
-7 -12 9 0.74 1.89
-7 -12 8 0.79 0.45
-7 -12 8 1.14 0.44
-7 -12 8 0.73 0.69
-7 -12 8 0.92 0.39
-7 -12 8 0.64 0.44
-7 -12 8 0.45 0.62
-7 -12 8 -0.92 1.23
-7 -12 8 2.48 2.09
-7 -12 7 23.12 1.59
-7 -12 7 22.47 1.76
-7 -12 7 21.73 1.39
-7 -12 7 23.04 2.1
-7 -12 7 23.75 1.88
-7 -12 7 20.37 1.85
-7 -12 7 24.6 1.97
-7 -12 7 20.47 1.57
-7 -12 7 20.11 8.14
-7 -12 7 18.2 1.65
-7 -12 7 24.62 7.37
-7 -12 6 0.36 0.41
-7 -12 6 -0.04 0.66
-7 -12 6 -0.23 0.66
-7 -12 6 -0.07 0.51
-7 -12 6 0.68 0.72
-7 -12 6 0.56 0.55
-7 -12 6 -1.93 5.09
-7 -12 6 1.46 2.93
-7 -12 5 87.19 3.48
-7 -12 5 86.45 3.19
-7 -12 5 97.44 4.63
-7 -12 5 95.25 4.12
-7 -12 5 95.35 4.17
-7 -12 5 86.29 4
-7 -12 5 84.58 16.99
-7 -12 4 24.26 1.77
-7 -12 4 27.93 2.55
-7 -12 4 26.63 2.29
-7 -12 4 26.85 2.16
-7 -12 4 22.44 2.07
-7 -12 4 21.36 10.13
-7 -12 3 0.14 0.33
-7 -12 3 -1.03 2.04
-7 -12 3 0.58 0.56
-7 -12 3 0.58 0.73
-7 -12 2 19.11 1.57
-7 -12 2 25.41 2.04
-7 -12 2 21.24 2.14
-7 -12 2 19.8 1.6
-7 -12 2 24.64 14.88
-7 -12 1 8.12 1.04
-7 -12 1 6.74 1.08
-7 -12 1 7.27 1.13
-7 -12 1 4.4 15.95
-7 -12 0 7.83 1.01
-7 -12 0 8.6 1.2
-7 -12 0 8.04 1.17
-7 -12 -1 21.95 1.6
-7 -12 -1 24.47 1.81
-7 -12 -1 22.68 1.92
-7 -12 -2 1.09 0.41
-7 -12 -2 1.19 0.51
-7 -12 -2 1.73 0.65
-7 -12 -3 278.1 6.4
-7 -12 -3 295.79 7.92
-7 -12 -4 5.14 0.66
-7 -12 -4 4.19 0.85
-7 -12 -5 10.76 0.81
-7 -12 -5 14.3 2.57
-7 -12 -5 12.8 1.25
-7 -12 -6 16.22 1.39
-7 -12 -6 16.06 1.27
-7 -12 -7 35.99 1.55
-7 -13 11 10.55 1.12
-7 -13 11 2.6 7.01
-7 -13 11 8.53 2.8
-7 -13 10 45.79 2.29
-7 -13 10 36.44 2.15
-7 -13 10 36.11 12.83
-7 -13 10 42.23 6.93
-7 -13 9 0.53 0.29
-7 -13 9 0.63 0.8
-7 -13 9 1.03 0.59
-7 -13 9 0.78 1.93
-7 -13 9 2.97 11.74
-7 -13 9 -0.51 1.47
-7 -13 8 1.63 0.41
-7 -13 8 3.17 1.05
-7 -13 8 1.76 0.4
-7 -13 8 0.75 0.62
-7 -13 8 1.41 1.62
-7 -13 8 1.17 12.27
-7 -13 7 2.59 0.5
-7 -13 7 5.04 1.36
-7 -13 7 4.55 1.06
-7 -13 7 4.61 1.41
-7 -13 7 10.24 13.06
-7 -13 6 6.58 0.8
-7 -13 6 7.07 1.8
-7 -13 6 7.86 1.32
-7 -13 6 16.9 13.69
-7 -13 5 0.02 0.32
-7 -13 5 1.02 2.1
-7 -13 5 -0.52 0.71
-7 -13 5 4.94 14.39
-7 -13 4 3.36 0.64
-7 -13 4 4.35 1.05
-7 -13 4 -2.46 15.37
-7 -13 3 0.02 0.38
-7 -13 3 0.89 0.64
-7 -13 3 -7.23 15.59
-7 -13 2 14.31 1.24
-7 -13 2 17.58 1.56
-7 -13 2 14.83 1.22
-7 -13 2 14.82 13.39
-7 -13 1 29.81 1.79
-7 -13 1 32.95 2.07
-7 -13 1 29.57 1.88
-7 -13 0 109.71 3.62
-7 -13 0 110.53 3.86
-7 -13 0 110.78 4.03
-7 -13 -1 1.05 0.39
-7 -13 -1 0.56 0.44
-7 -13 -2 1.23 0.37
-7 -13 -2 1.64 0.46
-7 -13 -2 1.94 0.58
-7 -13 -3 16.78 1.06
-7 -13 -3 24.42 3.71
-7 -13 -3 21.46 1.57
-7 -13 -4 52.75 3.25
-7 -13 -4 45 2.13
-7 -13 -5 6.18 1.1
-7 -13 -5 4.65 0.62
-7 -14 9 4.74 1.57
-7 -14 9 -1.92 8.33
-7 -14 8 3.25 0.43
-7 -14 8 7.53 1.97
-7 -14 8 -1.36 10.9
-7 -14 7 0.48 0.28
-7 -14 7 1.04 1.74
-7 -14 7 -8.83 12.38
-7 -14 6 0.28 0.26
-7 -14 6 0.93 1.32
-7 -14 6 -1.25 12.5
-7 -14 5 4.04 0.57
-7 -14 5 4.45 1.26
-7 -14 5 6.59 12.71
-7 -14 4 28.17 1.48
-7 -14 4 31.98 2.04
-7 -14 4 22.66 13.09
-7 -14 3 21.27 1.29
-7 -14 3 21.77 1.67
-7 -14 2 55.38 2.17
-7 -14 2 58.92 2.57
-7 -14 1 9.15 0.81
-7 -14 1 10.2 1.07
-7 -14 1 8.55 0.84
-7 -14 0 0.41 0.27
-7 -14 0 1.03 0.58
-7 -14 0 0.17 0.27
-7 -14 -1 40.25 1.6
-7 -14 -1 41.79 1.63
-7 -14 -1 44.91 2
-7 -14 -2 2.24 2.17
-7 -14 -2 -0.24 0.32
-7 -14 -3 1.74 1.15
-7 -14 -3 0.83 0.28
-7 -15 7 8.01 1.48
-7 -15 6 12.12 1.77
-7 -15 5 50.65 2.47
-7 -15 4 1.2 1.39
-7 -15 4 0.67 1.56
-7 -15 3 1.83 1.15
-7 -15 3 -2.09 1.87
-7 -15 2 10.76 1.26
-7 -15 2 10.84 2.19
-7 -15 1 4.88 0.98
-7 -15 1 2.59 1.81
-7 -15 0 11.37 1.73
-7 -15 -1 -0.23 0.75
8 -16 -2 -0.16 0.33
8 -16 -1 31.49 1.94
8 -16 0 4.94 0.83
8 -16 1 0.27 0.17
8 -16 1 1.34 0.54
8 -16 1 1.38 0.42
8 -16 2 1.6 0.31
8 -16 2 2.91 0.62
8 -16 3 1.59 0.31
8 -16 3 2.44 0.56
8 -16 4 2.31 0.35
8 -16 5 2.53 0.34
8 -15 -4 5.83 0.82
8 -15 -3 0.08 0.44
8 -15 -3 0.37 0.28
8 -15 -2 -0.05 0.17
8 -15 -2 0.38 0.28
8 -15 -1 0.53 0.28
8 -15 -1 0.52 0.68
8 -15 -1 0.53 0.41
8 -15 0 3.4 0.53
8 -15 0 4.72 1.08
8 -15 0 4.25 0.75
8 -15 1 0.54 0.31
8 -15 1 -0.27 0.64
8 -15 1 0.47 0.49
8 -15 2 0.47 0.23
8 -15 2 0.37 0.29
8 -15 2 0.5 0.75
8 -15 2 0.89 0.58
8 -15 3 -0.41 0.23
8 -15 3 0 0.29
8 -15 3 -0.03 0.59
8 -15 3 0.74 0.52
8 -15 4 4.44 0.61
8 -15 4 5.72 0.7
8 -15 4 5.9 1.02
8 -15 5 9.78 0.84
8 -15 5 10.21 0.91
8 -15 5 9.1 1.21
8 -15 6 3 0.48
8 -15 6 2.64 0.47
8 -15 7 33.34 1.48
8 -15 7 34.91 1.49
8 -15 8 2.09 0.34
8 -15 8 1.67 0.3
8 -15 8 1.9 0.32
-8 14 6 49.63 5.99
8 -14 -6 47.63 2.18
8 -14 -6 51.36 2.05
8 -14 -5 -0.51 0.42
-8 14 5 0.83 1.79
8 -14 -5 -0.39 0.37
-8 14 4 4.1 2.05
8 -14 -4 3.39 0.43
8 -14 -4 4.87 1.03
8 -14 -4 4.61 0.75
8 -14 -3 6.05 0.65
-8 14 3 6.92 2.37
8 -14 -3 8.46 1.41
8 -14 -3 7.19 0.96
-8 14 2 0.5 2.11
8 -14 -2 0.39 0.25
8 -14 -2 0.08 0.59
8 -14 -2 0.59 0.42
8 -14 -2 0.79 0.5
8 -14 -1 11.82 1.07
8 -14 -1 12.77 1.94
8 -14 -1 11.5 1.19
8 -14 -1 10.21 1.3
8 -14 0 9 0.97
8 -14 0 7.85 1.56
8 -14 0 6.7 0.87
8 -14 0 8.61 1.33
8 -14 1 0.69 0.3
8 -14 1 0.95 0.44
8 -14 1 -0.31 0.89
8 -14 1 0.89 0.69
8 -14 2 3.76 0.69
8 -14 2 5.76 0.83
8 -14 2 3.95 1.26
8 -14 2 4.47 1.08
8 -14 3 0.41 0.34
8 -14 3 0.83 0.45
8 -14 3 -0.02 0.72
8 -14 3 -0.48 0.73
8 -14 4 48.27 2.39
8 -14 4 51.77 2.42
8 -14 4 44.83 3.43
8 -14 4 40.66 3.04
8 -14 5 0.7 0.41
8 -14 5 0.61 0.4
8 -14 5 0.48 0.73
8 -14 6 0.09 0.32
8 -14 6 1.26 0.42
8 -14 7 41.91 2.03
8 -14 7 43.97 1.99
8 -14 8 16.2 1.12
8 -14 8 15.58 1.05
8 -14 9 7.26 0.73
8 -14 9 6.59 0.64
8 -14 9 7.4 0.63
8 -14 10 14.43 0.76
8 -14 10 15.79 0.86
-8 13 8 20.18 4.13
8 -13 -8 20.34 1.24
8 -13 -7 1.08 0.42
8 -13 -7 0.64 0.44
8 -13 -6 -0.11 0.19
8 -13 -6 -0.08 0.42
-8 13 6 0.26 1.36
8 -13 -6 -0.17 0.36
8 -13 -5 0.55 0.3
8 -13 -5 0.24 0.51
-8 13 5 0.97 1.9
8 -13 -5 0.55 0.49
-8 13 4 0.69 1.85
8 -13 -4 0.46 0.28
8 -13 -4 0.79 0.87
8 -13 -4 0.49 0.57
8 -13 -3 2.56 0.58
8 -13 -3 3.44 1.25
-8 13 3 4.24 2.42
8 -13 -3 2.84 0.75
-8 13 2 1.3 2.58
8 -13 -2 -0.33 0.42
8 -13 -2 1.13 0.91
8 -13 -2 -0.01 0.5
8 -13 -2 -0.34 0.46
8 -13 -1 7.35 0.97
8 -13 -1 7.47 1.68
-8 13 1 11.03 3.93
8 -13 -1 5.77 1.16
8 -13 -1 7.19 1.16
8 -13 0 1.23 0.37
8 -13 0 2.39 0.65
8 -13 0 2.94 1.21
8 -13 0 1.75 0.89
8 -13 0 1.84 0.62
-8 13 0 2.27 0.26
8 -13 1 21.43 1.68
8 -13 1 20.38 1.33
8 -13 1 22.1 2.74
8 -13 1 21.77 1.8
-8 13 -1 21.23 0.76
8 -13 1 21.27 2.29
8 -13 2 1.64 0.42
8 -13 2 0.8 0.47
8 -13 2 -0.11 0.79
8 -13 2 1.67 0.59
8 -13 2 1.67 0.93
-8 13 -2 1.07 0.2
8 -13 3 0.63 0.37
8 -13 3 1.12 0.52
8 -13 3 1.04 0.93
8 -13 3 0.58 0.85
-8 13 -3 0.94 0.22
8 -13 4 3.83 0.64
8 -13 4 3.44 0.74
8 -13 4 4.48 1.41
8 -13 4 3.7 1.16
-8 13 -4 4.04 0.34
8 -13 5 26.14 1.81
8 -13 5 23.23 1.48
8 -13 5 22.19 2.39
8 -13 6 24.8 1.82
8 -13 6 28.19 1.81
8 -13 6 25.11 1.5
8 -13 6 21.95 2.29
8 -13 7 9.1 1.06
8 -13 7 9.64 1.03
8 -13 7 8.58 0.85
8 -13 8 24.45 1.61
8 -13 8 26.64 1.57
8 -13 8 23.44 1.31
8 -13 9 5.18 0.7
8 -13 9 4.7 0.63
8 -13 10 7.6 0.8
8 -13 10 7.29 0.69
8 -13 11 12.87 0.84
-8 12 9 5.59 2.36
8 -12 -9 3.48 0.59
8 -12 -8 7.9 1.02
-8 12 8 7.57 3.07
8 -12 -7 0.49 0.26
8 -12 -7 0.65 0.43
8 -12 -7 0.13 0.41
8 -12 -6 5.2 0.69
8 -12 -6 7.02 1.25
-8 12 6 7.86 3.71
8 -12 -6 5.59 1.04
8 -12 -5 3.23 0.69
8 -12 -5 2.58 1.02
8 -12 -5 1.94 0.73
8 -12 -4 5.42 0.7
8 -12 -4 6.28 0.92
8 -12 -4 5.47 1.28
-8 12 4 5.76 3.29
8 -12 -4 6.14 1.11
8 -12 -3 0.6 0.39
8 -12 -3 0.57 0.44
8 -12 -3 0.74 0.78
8 -12 -3 0.6 0.65
-8 12 2 1.29 2.66
8 -12 -2 1.09 0.46
8 -12 -2 1.57 0.6
8 -12 -2 0.24 0.83
8 -12 -2 0.58 0.68
-8 12 2 -0.13 0.14
8 -12 -2 -0.11 0.52
-8 12 1 1.17 2.49
8 -12 -1 4.28 0.79
8 -12 -1 4.19 0.83
8 -12 -1 2.72 1.18
8 -12 -1 3.5 1.05
8 -12 -1 3.91 0.93
-8 12 1 3.73 0.33
8 -12 0 0.15 0.38
-8 12 0 -0.16 2.27
8 -12 0 0.06 0.47
8 -12 0 -0.1 0.72
8 -12 0 -0.67 0.9
8 -12 0 0.17 0.52
-8 12 0 0.01 0.15
8 -12 1 76.45 3.47
-8 12 -1 62.95 9.33
8 -12 1 69.65 3.07
8 -12 1 73.53 5.26
8 -12 1 63.46 4.18
8 -12 1 68.38 3.69
-8 12 -1 70.36 1.75
8 -12 2 116.06 4.4
8 -12 2 108.3 4.01
8 -12 2 107.59 6.54
8 -12 2 107.85 4.56
8 -12 2 99.91 5.52
-8 12 -2 109.75 2.45
8 -12 3 59.53 4.19
8 -12 3 71.74 3.33
8 -12 3 66.68 3.05
8 -12 3 61.69 4.82
-8 12 -3 68.01 1.73
8 -12 4 5.84 0.92
8 -12 4 6.26 0.98
8 -12 4 4.92 1.5
8 -12 4 4.67 1.43
-8 12 -4 5.54 0.41
8 -12 5 12.61 1.33
8 -12 5 12.5 1.28
8 -12 5 7.38 1.64
8 -12 5 9.02 1.78
-8 12 -5 11.31 0.58
8 -12 6 0.15 0.4
8 -12 6 0.41 0.5
8 -12 6 0.15 0.73
-8 12 -6 0.58 0.23
8 -12 7 10.43 1.14
8 -12 7 10.45 1.1
-8 12 -7 9.39 0.48
8 -12 8 2.27 0.64
8 -12 8 1.78 0.51
8 -12 8 1.8 0.52
8 -12 9 52.9 2.46
8 -12 9 53.23 2.31
8 -12 9 53.27 2.31
8 -12 10 0.61 0.3
8 -12 10 0.22 0.22
8 -12 11 14.53 0.88
8 -12 11 18.02 1.22
8 -12 12 24.36 1.17
-8 11 10 20.91 4.48
8 -11 -10 30.53 1.67
-8 11 9 10.19 4.14
8 -11 -9 8.34 1.06
-8 11 8 1.07 1.39
8 -11 -8 0.16 0.25
8 -11 -8 0.08 0.46
8 -11 -7 1.22 0.35
8 -11 -7 1.29 0.46
8 -11 -7 1.38 0.64
-8 11 7 2.06 0.89
-8 11 7 0.56 1.65
8 -11 -7 0.54 0.56
8 -11 -6 35.67 1.94
8 -11 -6 43.18 2.25
8 -11 -6 42.9 3.1
-8 11 6 39.41 9.66
8 -11 -6 41.77 2.98
8 -11 -5 1.14 0.41
8 -11 -5 1.57 0.58
8 -11 -5 1.38 0.9
-8 11 5 2.24 2.85
8 -11 -5 1.54 0.69
8 -11 -4 3.61 0.76
8 -11 -4 3.29 0.78
8 -11 -4 3.92 1.25
-8 11 4 4.56 3.96
8 -11 -4 4.15 1.16
8 -11 -3 2.14 0.64
8 -11 -3 3.19 0.82
8 -11 -3 3.92 1.25
-8 11 3 0.7 2.53
8 -11 -3 3.52 1
8 -11 -2 194.18 5.94
8 -11 -2 216.53 6.39
8 -11 -2 220.06 9.03
-8 11 2 200.58 21.4
8 -11 -2 180.91 6.74
8 -11 -2 198.83 7.36
-8 11 2 186.07 3.69
8 -11 -1 63.84 3.22
8 -11 -1 57.44 2.96
8 -11 -1 61.4 4.75
-8 11 1 48.45 10.11
8 -11 -1 57.78 3.72
-8 11 1 54.85 1.47
8 -11 -1 58.92 3.78
8 -11 0 55.15 3.03
8 -11 0 49.22 2.76
8 -11 0 57.54 4.61
-8 11 0 60.46 11.12
8 -11 0 46.22 3.23
-8 11 0 51.66 1.43
8 -11 0 50.43 3.73
8 -11 1 24.89 1.99
8 -11 1 21.65 1.82
8 -11 1 22.96 3
8 -11 1 19.23 2.36
8 -11 1 19.96 2.07
-8 11 -1 21.32 0.84
-8 11 -1 24.09 6.77
8 -11 2 32.42 2.25
8 -11 2 30.38 2.17
8 -11 2 30.43 3.46
8 -11 2 30.18 2.99
8 -11 2 29.19 2.42
-8 11 -2 31.07 1.08
8 -11 3 0.19 0.37
8 -11 3 0.52 0.53
8 -11 3 1.11 1.07
8 -11 3 0.1 0.88
8 -11 3 -0.17 0.63
-8 11 -3 0.2 0.18
8 -11 4 128.3 4.69
8 -11 4 121.34 4.58
8 -11 4 113.55 6.88
8 -11 4 111.73 6.06
-8 11 -4 122.76 2.75
8 -11 5 9.69 1.24
8 -11 5 10.5 1.24
8 -11 5 7.55 1.78
8 -11 5 9.3 1.79
-8 11 -5 8.67 0.54
8 -11 6 0.79 0.45
8 -11 6 0.13 0.41
-8 11 -6 0.5 0.18
8 -11 7 3.99 0.82
8 -11 7 4.55 0.82
-8 11 -7 4.22 0.38
8 -11 8 1.44 0.43
8 -11 8 1.77 0.55
-8 11 -8 1.48 0.23
8 -11 9 3.24 0.7
8 -11 9 2.35 0.6
8 -11 9 2.81 0.54
8 -11 10 7.3 0.89
8 -11 10 7.38 0.78
8 -11 10 7.67 0.89
8 -11 11 8.39 0.92
8 -11 11 7.1 0.69
8 -11 11 8.01 0.72
8 -11 12 4.59 0.62
8 -11 13 27.71 1.15
-8 11 -13 26.95 3.92
-8 10 11 3.35 2.16
8 -10 -11 3.33 0.55
8 -10 -10 1.36 0.32
8 -10 -10 1.99 0.36
-8 10 10 2.43 0.71
-8 10 10 -2.06 2.39
8 -10 -10 2.63 0.64
-8 10 10 -1.33 1.74
8 -10 -9 2.77 0.51
8 -10 -9 2.5 0.5
-8 10 9 2.86 0.92
-8 10 9 3.04 2.19
8 -10 -9 2.83 0.77
8 -10 -8 13.51 1.23
8 -10 -8 15.65 1.29
-8 10 8 16.25 1.92
-8 10 8 15.01 5.83
8 -10 -8 15.08 1.7
8 -10 -7 0.58 0.43
8 -10 -7 0.02 0.39
8 -10 -7 0.44 0.49
-8 10 7 0.5 0.75
-8 10 7 -1.3 1.96
8 -10 -7 0.06 0.59
8 -10 -6 1.73 0.58
8 -10 -6 0.75 0.49
8 -10 -6 1.26 0.72
-8 10 6 1.48 0.98
-8 10 6 2.38 2.5
8 -10 -6 1.71 0.81
-8 10 6 1.66 3.38
8 -10 -5 3.25 0.74
8 -10 -5 3.29 0.77
8 -10 -5 3.75 1.26
-8 10 5 3.89 1.29
-8 10 5 4.14 4.17
8 -10 -5 3.35 0.98
-8 10 5 -1.78 4.35
8 -10 -4 24.64 1.97
8 -10 -4 30.4 2.2
8 -10 -4 29.66 3.07
-8 10 4 26.74 2.79
-8 10 4 27.84 8.5
8 -10 -4 25.24 2.52
-8 10 4 17.01 6.03
8 -10 -3 8.54 1.23
8 -10 -3 7.51 1.16
8 -10 -3 7.29 1.69
-8 10 3 5.73 3.7
8 -10 -3 6.92 1.32
-8 10 3 2.94 2.83
8 -10 -2 10.31 1.36
8 -10 -2 10.66 1.33
8 -10 -2 12.8 2.16
-8 10 2 5.91 3.97
8 -10 -2 10.91 1.55
8 -10 -2 11.29 1.77
-8 10 2 10.09 0.52
-8 10 2 10.75 4.93
8 -10 -1 51.08 3.55
8 -10 -1 45.24 2.85
8 -10 -1 53.21 3.03
8 -10 -1 50.01 4.22
-8 10 1 47.24 10.61
8 -10 -1 47.87 3.43
-8 10 1 47.92 1.34
-8 10 1 53.98 10.23
-8 10 0 109.52 15.44
8 -10 0 104.1 5.42
8 -10 0 104.45 4.42
8 -10 0 111.2 4.5
8 -10 0 105.73 6.32
8 -10 0 102.09 5.07
-8 10 0 108.21 2.45
8 -10 1 -0.08 0.44
8 -10 1 0.51 0.59
8 -10 1 0.79 0.96
8 -10 1 0.73 0.85
8 -10 1 0.39 0.56
-8 10 -1 0.04 0.17
-8 10 -2 7.35 4.52
8 -10 2 4.62 0.98
8 -10 2 5.61 1.01
8 -10 2 5.31 1.54
8 -10 2 4.32 1.21
8 -10 2 5.82 1.16
-8 10 -2 6.1 0.47
8 -10 3 40.51 2.55
8 -10 3 35.81 2.47
8 -10 3 36.82 3.88
8 -10 3 33.82 3.29
8 -10 3 38.86 2.81
-8 10 -3 39.56 1.28
8 -10 4 20.35 1.79
8 -10 4 19.49 1.83
8 -10 4 19.78 2.86
8 -10 4 21.21 2.6
-8 10 -4 21.45 0.89
8 -10 5 65.23 3.18
8 -10 5 62.31 3.24
8 -10 5 54.26 4.7
8 -10 5 53.56 4.26
-8 10 -5 59.21 1.69
8 -10 6 49.01 2.69
8 -10 6 49.18 2.84
8 -10 6 45.02 3.83
-8 10 -6 47.12 1.43
8 -10 7 52.57 2.68
8 -10 7 51.8 2.91
-8 10 -7 47.45 1.42
8 -10 8 3.76 0.8
8 -10 8 2.87 0.58
-8 10 -8 3.75 0.34
8 -10 9 2.95 0.75
8 -10 9 3.99 0.83
8 -10 9 3.37 0.64
-8 10 -9 3.27 0.3
8 -10 10 5.3 0.76
8 -10 10 5.6 0.86
8 -10 10 6.03 0.72
8 -10 11 24.76 1.73
8 -10 11 23.35 1.51
8 -10 12 10.21 0.99
8 -10 12 10.07 0.81
8 -10 13 0.73 0.33
-8 10 -13 -0.08 1.21
-8 9 12 9.19 1
-8 9 12 9.83 2.64
8 -9 -12 9.05 0.69
-8 9 12 9.93 2.84
8 -9 -11 7.65 0.63
8 -9 -11 7.63 0.71
-8 9 11 11.34 1.37
-8 9 11 9.35 3.45
8 -9 -10 0.66 0.34
8 -9 -10 0.3 0.27
-8 9 10 0.09 0.6
-8 9 10 -1.24 2.15
8 -9 -10 0.41 0.5
8 -9 -9 0.86 0.46
8 -9 -9 1.12 0.51
-8 9 9 1.16 0.79
-8 9 9 -0.53 1.73
8 -9 -9 0.59 0.47
8 -9 -8 7.35 1.11
8 -9 -8 6.64 0.97
-8 9 8 4.72 1.33
8 -9 -8 7.97 1.35
8 -9 -7 10.84 1.33
8 -9 -7 10.97 1.3
8 -9 -7 14.94 1.72
-8 9 7 12.18 1.86
-8 9 7 9.13 4.26
8 -9 -7 11.09 1.66
-8 9 6 168.12 20.83
8 -9 -6 155.85 5.67
8 -9 -6 170.56 5.72
8 -9 -6 180.41 6.89
-8 9 6 165.5 7.12
8 -9 -6 157.32 6.65
8 -9 -5 2.7 0.79
8 -9 -5 3.21 0.79
8 -9 -5 1.78 0.9
-8 9 5 1.6 0.96
-8 9 5 0.76 3.78
8 -9 -5 1.9 0.9
8 -9 -4 13.85 1.66
8 -9 -4 17.81 1.78
8 -9 -4 19.62 2.39
-8 9 4 15.75 2.22
-8 9 4 13.14 6.18
8 -9 -4 16.19 2.03
8 -9 -3 0.38 0.49
8 -9 -3 -0.39 0.44
8 -9 -3 0.86 0.91
-8 9 3 0.28 0.7
-8 9 3 0.29 2.96
8 -9 -3 0.74 0.7
8 -9 -2 85.35 4.42
8 -9 -2 91.39 4.18
8 -9 -2 99.93 4.26
8 -9 -2 100.89 5.86
-8 9 2 99.03 15.7
8 -9 -2 91.14 4.91
-8 9 2 93.33 2.08
-8 9 2 112.88 16.26
8 -9 -1 1.28 0.58
8 -9 -1 0.47 0.64
8 -9 -1 0.44 0.73
8 -9 -1 1.02 0.79
-8 9 1 3.7 4.67
8 -9 -1 0.81 0.91
-8 9 1 0.26 0.16
-8 9 1 -0.54 2.78
8 -9 0 26.08 2.13
8 -9 0 24.11 2.06
-8 9 0 21.65 7.48
8 -9 0 26.8 3.14
8 -9 0 26.67 2.61
8 -9 0 27.51 2.55
-8 9 0 25.07 0.93
-8 9 0 32.27 8.74
8 -9 1 193.07 6.37
8 -9 1 200.7 6.22
8 -9 1 181.93 8.66
-8 9 -1 174.86 18.89
8 -9 1 177.92 7.53
8 -9 1 184.8 7.05
-8 9 -1 190.19 3.88
-8 9 -1 195.98 20.43
8 -9 2 5.43 0.99
8 -9 2 5.55 0.99
8 -9 2 5.55 1.74
-8 9 -2 4.77 3.33
8 -9 2 5.12 1.39
8 -9 2 5.97 1.18
-8 9 -2 5.7 0.45
-8 9 -2 8.98 5.51
8 -9 3 1.79 0.69
8 -9 3 2.19 0.68
8 -9 3 1.1 1.01
-8 9 -3 6.01 2.32
8 -9 3 1.12 0.87
8 -9 3 1.46 0.62
-8 9 -3 1.81 0.3
-8 9 -3 3.55 3.91
8 -9 4 6.81 1.14
8 -9 4 6.73 1.05
8 -9 4 8.16 2.04
8 -9 4 7.35 1.63
-8 9 -4 7.15 0.51
-8 9 -4 11.02 6.82
8 -9 5 40.7 2.45
8 -9 5 43.01 2.71
8 -9 5 37.51 3.89
8 -9 5 35.59 3.43
-8 9 -5 40.44 1.33
8 -9 6 2.09 0.67
8 -9 6 2.22 0.7
8 -9 6 2.82 1.09
-8 9 -6 2.65 0.34
8 -9 7 3.59 0.76
8 -9 7 4.67 0.8
-8 9 -7 4.14 0.4
8 -9 8 12.56 1.26
8 -9 8 13.67 1.51
-8 9 -8 12.07 0.64
8 -9 9 1.06 0.57
8 -9 9 0.48 0.32
-8 9 -9 1.18 0.24
-8 9 -9 -1.3 3.5
8 -9 10 0.05 0.33
8 -9 10 0.09 0.42
8 -9 10 -0.07 0.32
-8 9 -10 0.18 0.14
-8 9 -10 0.16 3.54
8 -9 11 40.89 2.36
8 -9 11 37.58 1.68
8 -9 11 39.89 2.21
-8 9 -11 42.55 6.64
8 -9 12 3 0.62
8 -9 12 2.68 0.55
8 -9 13 -0.08 0.26
8 -9 13 0.07 0.24
-8 9 -13 -1.37 1.92
-8 9 -14 24.24 3.72
-8 8 13 13.58 1.1
8 -8 -12 0.1 0.26
-8 8 12 0.26 1.1
8 -8 -12 0.33 0.19
-8 8 12 0.58 0.45
8 -8 -12 0.49 0.27
8 -8 -11 0.02 0.31
8 -8 -11 0.24 0.27
-8 8 11 -1.08 0.7
-8 8 11 0.79 1.56
8 -8 -11 -0.05 0.37
8 -8 -10 6.25 1
8 -8 -10 7.08 0.92
-8 8 10 5.08 1.21
-8 8 10 7.8 4.1
8 -8 -10 7 1.15
8 -8 -9 144.04 5.36
8 -8 -9 175.79 5.38
-8 8 9 163.3 6.81
-8 8 9 158.93 18.89
8 -8 -9 169.91 6.28
8 -8 -8 34.94 2.48
8 -8 -8 39.9 2.49
-8 8 8 35.25 3.13
-8 8 8 34.14 9.24
8 -8 -8 37.68 2.96
8 -8 -7 0.58 0.59
8 -8 -7 0.15 0.47
-8 8 7 0.11 0.83
-8 8 7 -1.28 3.19
8 -8 -7 -0.2 0.8
8 -8 -6 7.78 1.25
8 -8 -6 8.26 1.23
8 -8 -6 7.07 1.31
-8 8 6 6.83 1.6
-8 8 6 8.66 6.11
8 -8 -6 8.14 1.52
8 -8 -5 20.49 1.99
8 -8 -5 22.19 1.97
8 -8 -5 24.22 2.42
-8 8 5 20.41 2.44
-8 8 5 22.53 7.46
8 -8 -5 24.09 2.49
8 -8 -4 3.48 0.86
8 -8 -4 3.8 0.89
8 -8 -4 3.57 1.2
-8 8 4 2.75 1.12
-8 8 4 2.07 1.91
8 -8 -4 4.41 1.16
8 -8 -3 0.79 0.56
8 -8 -3 0.79 0.63
8 -8 -3 0.46 0.89
-8 8 3 1.89 0.66
8 -8 -3 0.14 0.69
8 -8 -2 14.68 1.62
8 -8 -2 15.24 1.62
8 -8 -2 18.47 2.35
-8 8 2 10.89 5.54
8 -8 -2 14.44 1.88
8 -8 -2 14.32 1.75
-8 8 2 15.75 0.62
-8 8 2 16.85 6.59
8 -8 -1 92.36 4.7
8 -8 -1 94.94 4.25
8 -8 -1 93.6 4.17
8 -8 -1 104.53 5.88
-8 8 1 102.55 15.6
8 -8 -1 97.18 4.89
8 -8 -1 104.95 6.26
-8 8 1 95.41 2.17
-8 8 1 99.47 15.52
8 -8 0 61.26 3.34
8 -8 0 62.5 3.25
8 -8 0 67.06 4.8
8 -8 0 58.02 3.83
-8 8 0 57.92 11.55
8 -8 0 63.31 4.84
8 -8 0 65.57 3.91
-8 8 0 63.83 1.65
-8 8 0 72.84 12.97
-8 8 -1 3.93 2.89
8 -8 1 3.06 0.74
8 -8 1 2.99 1.14
8 -8 1 3.69 0.83
8 -8 1 3.32 1.23
8 -8 1 1.92 1
8 -8 1 2.94 0.89
-8 8 -1 4.27 0.42
-8 8 -1 4.65 3.8
8 -8 2 15.75 1.66
8 -8 2 16.82 1.56
8 -8 2 13.03 2.23
8 -8 2 16.74 2.49
-8 8 -2 12.47 3.13
8 -8 2 15.96 1.86
8 -8 2 15.87 2.17
-8 8 -2 17.13 0.77
-8 8 -2 22.83 8.53
8 -8 3 0.79 0.52
8 -8 3 0.99 0.52
8 -8 3 0.46 0.97
8 -8 3 0.48 0.69
8 -8 3 0.95 0.7
-8 8 -3 1.02 0.25
-8 8 -3 -3.4 3.93
-8 8 -3 -3.5 3.7
8 -8 4 21.27 1.68
8 -8 4 19.89 1.85
8 -8 4 19.77 2.88
-8 8 -4 24.76 6.48
8 -8 4 17.36 2.41
-8 8 -4 19.5 0.87
-8 8 -4 29.99 8.27
8 -8 5 112.66 4.09
8 -8 5 108.33 4.51
8 -8 5 95.22 5.75
-8 8 -5 107.48 2.55
-8 8 -5 101.1 15.5
8 -8 6 21.36 1.64
8 -8 6 22.6 2
-8 8 -6 21.22 0.91
8 -8 7 19.78 1.54
8 -8 7 22.23 1.94
-8 8 -7 20.1 0.87
8 -8 8 34.86 1.96
8 -8 8 38.87 2.55
-8 8 -8 35.11 1.19
8 -8 9 11.79 1.34
8 -8 9 9.21 0.95
-8 8 -9 9.77 0.57
-8 8 -9 8.95 4.65
8 -8 10 38.61 1.98
8 -8 10 37.29 2.35
-8 8 -10 38.3 1.12
-8 8 -10 42.6 8.87
8 -8 11 24.4 1.82
8 -8 11 22.45 1.71
-8 8 -11 22.57 6.17
8 -8 12 20.18 1.47
8 -8 12 19.76 1.52
8 -8 13 1.52 0.45
8 -8 13 0.97 0.39
-8 8 -13 0.38 1.54
8 -8 14 -0.08 0.21
8 -8 14 0.29 0.21
-8 8 -14 -0.74 1.57
8 -7 -13 6.19 0.66
-8 7 13 7.65 0.98
8 -7 -12 2.38 0.58
8 -7 -12 2.26 0.49
-8 7 12 2.71 0.82
-8 7 12 2.06 1.74
8 -7 -12 3.5 0.61
8 -7 -11 38.82 2.32
8 -7 -11 40.51 2.13
-8 7 11 39.85 2.9
-8 7 11 45.16 8.1
8 -7 -11 42.93 2.48
8 -7 -10 -0.01 0.44
8 -7 -10 -0.18 0.48
-8 7 10 -0.29 0.67
-8 7 10 -0.58 2.52
8 -7 -10 0.05 0.49
8 -7 -9 125.27 5.04
8 -7 -9 132.61 4.89
-8 7 9 121.62 5.92
-8 7 9 127 17.07
8 -7 -9 130.31 5.47
8 -7 -8 56.03 3.31
8 -7 -8 60.08 3.21
-8 7 8 52.52 3.9
-8 7 8 56.11 11.67
8 -7 -8 56.32 3.63
8 -7 -7 1.36 0.65
8 -7 -7 3.9 0.93
-8 7 7 2.26 1.16
-8 7 7 4.86 4.26
8 -7 -7 2.88 0.95
8 -7 -6 128.6 5.27
8 -7 -6 134.2 5.15
-8 7 6 127.73 6.21
-8 7 6 119.94 17.71
8 -7 -6 126.86 5.81
8 -7 -5 14.57 1.68
8 -7 -5 16.45 1.74
8 -7 -5 17.99 2.04
-8 7 5 17.48 2.26
-8 7 5 19.89 7.96
8 -7 -5 17.81 2.19
8 -7 -4 24.19 2.15
8 -7 -4 22.86 2.01
8 -7 -4 19.73 2.42
8 -7 -4 28.28 2.61
-8 7 4 22.46 2.47
-8 7 4 26.95 8.27
8 -7 -4 26.31 2.51
8 -7 -3 1.53 0.6
8 -7 -3 0.93 0.62
8 -7 -3 0.87 0.63
8 -7 -3 2.12 0.82
-8 7 3 1.03 0.94
-8 7 3 2.01 2.54
8 -7 -3 1.82 0.92
8 -7 -2 -0.18 0.61
8 -7 -2 0.39 0.68
8 -7 -2 0.1 0.37
8 -7 -2 -0.58 0.72
-8 7 2 -0.62 3.88
8 -7 -2 -0.21 0.52
-8 7 2 -0.34 0.16
-8 7 2 -1.12 3.46
8 -7 -1 4.95 0.98
8 -7 -1 5.28 1.41
8 -7 -1 5.89 0.99
8 -7 -1 5.64 1.36
8 -7 -1 5.85 1.26
8 -7 -1 4.36 1.02
-8 7 1 5.75 0.38
-8 7 1 4.7 2.97
8 -7 0 25.94 2.07
8 -7 0 22.11 1.81
8 -7 0 23.43 2.7
-8 7 0 18.69 6.45
8 -7 0 22 2.32
8 -7 0 25.73 3.12
8 -7 0 21.16 2.12
-8 7 0 22.68 0.83
-8 7 0 25.77 8.5
8 -7 1 1.5 0.6
8 -7 1 2.44 1.09
8 -7 1 1.29 0.59
8 -7 1 2.05 1.23
-8 7 -1 0.39 2.37
8 -7 1 0.09 0.59
8 -7 1 1.59 0.72
-8 7 -1 1.14 0.25
-8 7 -1 0.53 3.93
8 -7 2 28.56 3.28
-8 7 -2 16.96 6.02
8 -7 2 26.57 2.1
8 -7 2 27.74 1.9
8 -7 2 26.86 3.07
8 -7 2 25.02 2.62
8 -7 2 28.22 2.45
-8 7 -2 27.24 0.97
8 -7 2 25.99 3.12
-8 7 -2 32.47 9.14
8 -7 3 21.08 2.92
8 -7 3 20.21 2.72
8 -7 3 20.56 1.56
8 -7 3 20.2 1.85
8 -7 3 19.75 2.72
-8 7 -3 15.46 5.13
8 -7 3 21.72 2.46
8 -7 3 23.7 2.2
-8 7 -3 22.22 0.89
-8 7 -3 25.5 7.99
-8 7 -4 0.82 2.95
8 -7 4 1.25 0.92
8 -7 4 1.33 0.73
8 -7 4 0.74 0.91
8 -7 4 1.8 0.55
8 -7 4 1.42 0.98
8 -7 4 1.96 1.06
-8 7 -4 1.46 0.29
-8 7 -4 -1.01 4.61
8 -7 5 148.4 4.62
8 -7 5 147.98 5.32
-8 7 -5 123.24 14.43
8 -7 5 122.43 6.57
-8 7 -5 141.9 3.15
-8 7 -5 137.48 18.78
8 -7 6 3.46 0.82
8 -7 6 3.72 0.7
-8 7 -6 2.72 0.36
8 -7 7 3.01 0.84
8 -7 7 3.19 0.66
-8 7 -7 2.98 0.35
8 -7 8 41.75 2.05
8 -7 8 46.04 2.77
-8 7 -8 43.21 1.36
8 -7 9 1.48 0.6
-8 7 -9 1.64 0.27
-8 7 -9 3.1 7.59
8 -7 10 17.59 1.66
-8 7 -10 19.83 0.78
-8 7 -10 20.16 6.65
8 -7 11 14.42 1.4
8 -7 11 13.22 1.4
-8 7 -11 13.21 0.57
-8 7 -11 16.76 5.6
8 -7 12 1.54 0.49
8 -7 12 1.55 0.59
8 -7 13 11.41 0.97
8 -7 13 11.9 1.13
-8 7 -13 9.09 3.64
8 -7 14 13.28 0.83
8 -7 14 12.99 0.95
-8 7 -14 13.95 3.63
8 -6 -14 1.79 0.37
-8 6 14 1.53 0.43
8 -6 -13 2.47 0.56
8 -6 -13 2.35 0.45
8 -6 -12 3.39 0.75
8 -6 -12 2.23 0.55
-8 6 12 1.95 0.69
-8 6 12 1.64 0.4
-8 6 12 0.54 1.92
8 -6 -11 59.55 2.89
-8 6 11 57.87 3.66
8 -6 -11 63.74 3.02
8 -6 -10 20.09 1.86
-8 6 10 21.28 2.29
-8 6 10 18.15 6.14
8 -6 -10 24.79 2.12
8 -6 -9 9.96 1.34
-8 6 9 11.49 1.85
-8 6 9 8.43 4.61
8 -6 -9 12.99 1.67
8 -6 -8 263.1 7.68
-8 6 8 225.92 8.58
-8 6 8 265.21 25.43
8 -6 -8 242.73 8.18
8 -6 -7 103.43 4.42
-8 6 7 91.53 5.14
8 -6 -7 97.97 4.89
8 -6 -6 6.48 1.12
-8 6 6 7.33 1.61
-8 6 6 5.22 5.3
8 -6 -6 7.71 1.37
8 -6 -5 18.78 1.89
8 -6 -5 21.95 2.01
-8 6 5 21.85 2.46
-8 6 5 20.04 2.69
-8 6 5 20.72 7.45
8 -6 -5 21.07 2.17
8 -6 -4 12.28 1.5
8 -6 -4 9.84 1.39
8 -6 -4 12.98 2.03
-8 6 4 11.76 1.84
-8 6 4 10.36 1.83
-8 6 4 10.14 4.66
8 -6 -4 12.7 1.67
-8 6 4 14.63 1.47
8 -6 -3 -0.09 0.52
8 -6 -3 -0.15 0.57
8 -6 -3 -0.23 0.39
8 -6 -3 -0.59 0.75
-8 6 3 -0.32 0.61
-8 6 3 -1.55 2.81
8 -6 -3 -0.56 0.54
-8 6 3 0.04 0.49
8 -6 -2 32.92 2.32
8 -6 -2 30.76 2.12
8 -6 -2 33.57 2.95
-8 6 2 30.05 2.64
-8 6 2 33.68 8.87
8 -6 -2 28.17 3.07
8 -6 -2 30.96 2.56
8 -6 -1 102.46 6.06
8 -6 -1 112.93 5.97
8 -6 -1 104.13 4.25
8 -6 -1 103.92 3.94
8 -6 -1 108.08 5.63
8 -6 -1 84.93 4.32
-8 6 1 84.23 13.05
8 -6 -1 96.84 4.62
-8 6 1 102.69 2.17
-8 6 1 116.66 16.43
8 -6 0 283.61 10.35
8 -6 0 266.19 7.48
8 -6 0 263.85 6.99
8 -6 0 268.71 9.62
-8 6 0 228.6 21.76
8 -6 0 249.91 8.49
8 -6 0 267.02 10.49
8 -6 0 261.67 8.25
-8 6 0 263.58 4.92
-8 6 0 272.37 25.16
8 -6 1 29.46 3.29
8 -6 1 29.31 2.1
8 -6 1 26.27 1.8
8 -6 1 24.63 2.73
8 -6 1 23.11 2.97
8 -6 1 26.93 2.65
8 -6 1 25.58 2.23
-8 6 -1 27.97 0.93
-8 6 -1 18.61 6.46
-8 6 -1 20.14 6.88
8 -6 2 94.39 3.93
8 -6 2 92.69 3.55
8 -6 2 85.73 5.38
-8 6 -2 85.29 12.84
8 -6 2 85.29 4.85
8 -6 2 96.19 4.49
-8 6 -2 95.55 2.2
-8 6 -2 94.92 14.78
8 -6 2 98.76 6.24
-8 6 -3 309.28 24.87
8 -6 3 367.98 9.24
8 -6 3 366.96 8.48
8 -6 3 340.95 12.1
8 -6 3 328.36 10.95
8 -6 3 370.14 10.14
-8 6 -3 350.9 6.6
-8 6 -3 346.31 28.88
8 -6 3 370.05 13.16
8 -6 4 10.01 2.12
8 -6 4 9.57 1.05
8 -6 4 13.26 1.69
-8 6 -4 6.36 3.99
8 -6 4 8.97 1.69
-8 6 -4 10.08 0.61
-8 6 -4 5.03 3.8
8 -6 5 110.3 3.71
8 -6 5 111.69 4.47
-8 6 -5 100.4 13.48
-8 6 -5 109.44 2.56
-8 6 -5 90.5 15.88
8 -6 5 106.32 6.63
8 -6 6 18.33 1.3
8 -6 6 17.05 1.68
8 -6 6 15.82 1.4
-8 6 -6 16.34 0.79
8 -6 7 9.94 1.29
8 -6 7 9.04 1.08
-8 6 -7 9.97 0.63
8 -6 8 103.48 4.37
8 -6 8 108.23 3.86
-8 6 -8 108.36 2.53
8 -6 9 32.48 2.33
8 -6 9 30.05 1.83
-8 6 -9 30.49 1.08
-8 6 -9 29.89 8.7
8 -6 10 33.05 2.32
8 -6 10 35.48 1.95
-8 6 -10 34.71 1.13
-8 6 -10 28.49 8.63
8 -6 11 18.24 1.51
8 -6 11 15.04 1.44
8 -6 11 16.22 1.21
-8 6 -11 14.01 0.61
-8 6 -11 12.94 5.4
8 -6 12 104.43 3.68
8 -6 12 107.93 4.16
-8 6 -12 104.45 13.24
8 -6 13 2.01 0.45
8 -6 13 1.92 0.57
8 -6 14 27.45 1.18
8 -6 14 29.5 1.6
-8 6 -14 26.01 4.97
8 -5 -15 8.42 0.63
8 -5 -14 1.91 0.5
8 -5 -14 0.87 0.29
-8 5 14 2.12 0.49
-8 5 14 2.38 0.41
8 -5 -13 4.16 0.67
-8 5 13 4.2 0.88
-8 5 13 5.18 0.67
8 -5 -12 0.48 0.45
-8 5 12 0.86 0.42
8 -5 -11 3.91 0.85
-8 5 11 3.49 1.08
-8 5 11 3.83 0.68
-8 5 10 2.01 1.3
8 -5 -10 2 0.73
-8 5 10 4.55 1.37
-8 5 10 4.34 0.73
-8 5 10 1.12 3.77
8 -5 -10 5.06 0.98
-8 5 9 14.86 2.5
8 -5 -9 20.04 1.93
-8 5 9 21.57 2.35
-8 5 9 27.75 7.74
8 -5 -9 21.56 2.04
8 -5 -8 22.05 1.97
-8 5 8 18.99 2.23
-8 5 8 23.45 7.5
8 -5 -8 21.06 2.05
8 -5 -7 3.39 0.87
-8 5 7 3.85 1.07
-8 5 7 3.43 3.02
8 -5 -7 4.75 1.17
-8 5 7 4.38 0.94
8 -5 -6 0.92 0.54
-8 5 6 1.46 0.89
-8 5 6 1.47 0.92
-8 5 6 3.38 3.76
8 -5 -6 0.77 0.55
-8 5 6 0.3 0.48
8 -5 -5 26.07 2.12
-8 5 5 24.81 2.46
-8 5 5 27.16 3.28
-8 5 5 29.6 8.45
8 -5 -5 26.84 2.37
-8 5 5 31.68 2.28
8 -5 -4 72.9 3.63
8 -5 -4 78.78 3.52
-8 5 4 71.05 4.04
-8 5 4 75.93 5.17
-8 5 4 77.22 13.18
8 -5 -4 74.63 4.74
8 -5 -4 71.98 3.87
-8 5 4 83.81 3.82
-8 5 3 15.59 1.37
8 -5 -3 16.53 1.62
8 -5 -3 16.96 1.55
-8 5 3 15.28 1.75
-8 5 3 15.3 2.17
-8 5 3 13.05 4.59
8 -5 -3 18.6 1.91
-8 5 3 18.91 1.81
8 -5 -3 16.6 2.29
8 -5 -2 53.56 3.81
8 -5 -2 45.4 2.67
8 -5 -2 47.56 2.51
8 -5 -2 48.15 3.28
8 -5 -2 44.7 3.89
-8 5 2 43.36 9.25
8 -5 -2 46.05 3.01
-8 5 2 52.62 2.99
8 -5 -1 41.4 2.53
8 -5 -1 44.14 2.4
-8 5 1 37.81 8.68
8 -5 -1 42.85 2.83
-8 5 1 47.51 1.16
8 -5 -1 47.11 3.83
-8 5 1 45.65 9.92
8 -5 0 2.74 0.71
8 -5 0 3.26 0.64
8 -5 0 3.58 1.18
8 -5 0 3.59 1.32
-8 5 0 2.13 2.05
8 -5 0 4 0.9
-8 5 0 3.7 0.3
-8 5 0 3.58 3.33
8 -5 1 10.52 1.1
8 -5 1 9.19 1.15
8 -5 1 8.59 2
8 -5 1 9.96 1.71
-8 5 -1 7.95 4.34
8 -5 1 8.95 1.54
8 -5 1 9.87 1.39
-8 5 -1 11.8 0.55
-8 5 -1 4.57 4.33
-8 5 -2 1.4 2.85
8 -5 2 1.88 0.61
8 -5 2 0.71 0.78
8 -5 2 1.88 0.52
8 -5 2 1.77 0.93
8 -5 2 2.21 0.77
8 -5 2 1.81 0.78
-8 5 -2 2.07 0.28
-8 5 -2 3.64 3.15
8 -5 3 34.49 2.21
8 -5 3 36.82 1.85
8 -5 3 32.76 3.3
8 -5 3 30.79 2.88
8 -5 3 35.96 2.63
-8 5 -3 32.07 1.09
8 -5 3 37.95 3.93
-8 5 -3 27.38 8.38
-8 5 -3 21.29 6.64
8 -5 4 32.11 2.17
-8 5 -4 22.67 6.59
-8 5 -4 30.78 1.09
8 -5 4 31.41 3.56
-8 5 -4 26.74 7.47
8 -5 5 98.59 4.01
8 -5 5 88.47 3.67
-8 5 -5 80.56 12.6
-8 5 -5 94.35 2.27
8 -5 5 96.7 6.31
-8 5 -5 77.23 14.67
8 -5 6 56.32 3
8 -5 6 54.09 2.78
-8 5 -6 56.55 1.62
8 -5 6 60.99 4.95
-8 5 -6 55.86 12.99
8 -5 7 0.47 0.47
8 -5 7 -0.15 0.47
-8 5 -7 -0.25 0.2
8 -5 8 24.62 2.03
8 -5 8 27.98 1.97
-8 5 -8 27.3 1.02
8 -5 9 13.33 1.48
8 -5 9 14.3 1.43
-8 5 -9 14.13 0.71
-8 5 -9 10.71 5.15
8 -5 10 1.43 0.56
8 -5 10 1.02 0.57
8 -5 10 1.28 0.49
-8 5 -10 1.14 0.24
-8 5 -10 1.85 3.41
8 -5 11 9.54 1.06
8 -5 11 9.15 1.13
8 -5 11 8.25 1
-8 5 -11 8.25 0.47
8 -5 12 -0.22 0.36
8 -5 12 0.2 0.46
8 -5 12 0.11 0.29
-8 5 -12 -0.34 0.42
8 -5 13 0.62 0.52
8 -5 13 -0.27 0.26
-8 5 -13 0.8 1.64
8 -5 14 12.26 1.08
-8 5 -14 10.93 3.22
8 -5 15 87.59 2.48
8 -4 -15 0.63 0.28
8 -4 -15 0.66 0.22
8 -4 -14 35.52 1.88
-8 4 14 44.44 2.1
8 -4 -13 3.69 0.67
-8 4 13 3.25 0.81
-8 4 13 4.57 0.76
-8 4 12 0.96 0.84
8 -4 -12 1.01 0.54
-8 4 12 0.07 0.53
-8 4 12 0.98 0.51
-8 4 11 15.18 2.45
8 -4 -11 20.22 1.87
-8 4 11 24.13 1.8
-8 4 11 20.21 2.11
-8 4 11 20.53 5.62
-8 4 10 16.84 2.63
8 -4 -10 26.5 2.18
-8 4 10 26.99 1.9
-8 4 10 23.77 2.4
-8 4 10 27.85 7.09
-8 4 9 11.21 2.2
8 -4 -9 19.88 1.89
-8 4 9 18.36 1.53
-8 4 9 14.87 1.94
-8 4 9 13.56 4.79
8 -4 -9 18.47 1.79
-8 4 9 22.17 1.84
-8 4 8 22.24 2.98
8 -4 -8 31.44 2.39
-8 4 8 28.2 2.61
-8 4 8 32.7 8.8
8 -4 -8 32.15 2.37
-8 4 8 35.11 2.36
-8 4 7 2.94 1.27
8 -4 -7 6.14 1.11
-8 4 7 6.32 1.32
-8 4 7 10.25 2.19
-8 4 7 5.76 2.62
8 -4 -7 6.52 1.54
8 -4 -7 6.38 1.13
-8 4 7 7.28 1.18
8 -4 -6 13.32 1.54
-8 4 6 12 1.63
-8 4 6 11.88 2.13
-8 4 6 11.38 5.04
8 -4 -6 14.55 1.65
-8 4 6 17.21 1.72
8 -4 -5 4.39 0.89
-8 4 5 3.63 1.11
-8 4 5 5.52 1.55
-8 4 5 2.75 3.89
8 -4 -5 3.91 0.88
-8 4 5 4.18 0.94
-8 4 4 8.12 1.01
8 -4 -4 7.93 1.54
8 -4 -4 9.03 1.19
8 -4 -4 9.02 1.11
-8 4 4 7.21 1.61
-8 4 4 4.61 2.93
8 -4 -4 7.64 1.26
-8 4 4 10.99 1.35
8 -4 -3 18.83 1.68
8 -4 -3 16.48 1.45
-8 4 3 16.31 1.92
-8 4 3 20.62 2.5
8 -4 -3 17.71 2.3
-8 4 3 22.05 6.57
8 -4 -3 20.65 1.92
-8 4 3 21.78 1.89
8 -4 -2 3.57 0.95
-8 4 2 6.35 3.57
8 -4 -1 48.76 3.94
8 -4 0 46.19 3.98
-8 4 0 42.89 1.13
8 -4 1 16.58 2.52
-8 4 -1 16.16 0.65
-8 4 -2 18.72 6.08
8 -4 2 17.54 2.7
8 -4 2 19.86 1.87
-8 4 -2 18.21 0.71
-8 4 -2 15.04 5.57
-8 4 -3 -1.11 2.2
8 -4 3 2.4 0.68
8 -4 3 2.4 1.38
-8 4 -3 1.77 0.27
-8 4 -3 -0.87 4.94
8 -4 4 -0.33 0.38
-8 4 -4 -0.71 2.45
8 -4 4 0.56 0.68
-8 4 -4 -0.04 0.19
-8 4 -4 -0.94 3.94
8 -4 5 1.76 0.56
-8 4 -5 1.29 0.26
8 -4 5 2.05 1.09
-8 4 -5 0.32 4.42
8 -4 6 156.98 5.2
8 -4 6 149.44 5.19
8 -4 6 144.2 7.87
-8 4 -6 162.42 3.39
-8 4 -6 146.47 20.59
8 -4 7 74.02 3.44
8 -4 7 74.28 3.5
-8 4 -7 76.9 1.97
8 -4 8 33.56 2.25
8 -4 8 31.24 2.22
-8 4 -8 34.84 1.18
8 -4 9 50.79 2.81
8 -4 9 50.76 2.89
-8 4 -9 51.88 1.5
-8 4 -9 49.88 11.85
8 -4 10 3.77 0.71
8 -4 10 5.53 0.98
8 -4 10 2.95 0.73
-8 4 -10 2.86 0.32
-8 4 -10 3.16 3.4
8 -4 11 42.04 2.12
8 -4 11 44.14 2.76
8 -4 11 41.64 2.42
-8 4 -11 37.53 1.14
-8 4 -11 34.79 9.33
8 -4 12 1.61 0.64
8 -4 12 2.63 0.65
-8 4 -12 4.27 2.77
-8 4 -12 1.92 0.22
-8 4 -12 2.01 0.68
8 -4 13 33.14 2.06
8 -4 13 33.62 1.78
-8 4 -13 32 6.33
8 -4 14 39.13 1.96
8 -4 14 33.72 1.46
-8 4 -14 30.4 5.39
8 -4 15 1.66 0.34
8 -3 -15 13.01 0.92
-8 3 15 29.4 1.38
8 -3 -14 7.45 0.88
-8 3 14 9.78 0.98
-8 3 13 2.4 1.08
8 -3 -13 3.21 0.75
-8 3 13 3.31 0.76
-8 3 13 3.66 0.75
-8 3 12 3.83 1.34
-8 3 12 3.25 0.88
-8 3 12 5.09 0.91
-8 3 11 4.89 1.59
-8 3 11 5.06 1
-8 3 11 6.54 1.09
-8 3 11 6.57 1.03
-8 3 10 1.9 1.14
-8 3 10 2.92 0.99
-8 3 10 2.21 0.63
-8 3 10 3.17 0.86
-8 3 9 33.4 3.43
-8 3 9 50.58 2.68
-8 3 9 40.2 3.03
-8 3 9 42.93 8.99
-8 3 9 56.27 3.17
-8 3 8 267.9 6.84
-8 3 8 215.19 7.53
-8 3 8 231.98 21.28
-8 3 8 278.2 7.77
-8 3 7 3.19 1.04
-8 3 7 5.4 1.15
-8 3 7 4.87 1.62
-8 3 7 3.49 3.85
8 -3 -7 4.89 1.28
8 -3 -7 5.96 1.03
-8 3 7 5.6 1.11
-8 3 6 20.86 2.05
-8 3 6 27.29 3.25
8 -3 -6 22.01 2.63
-8 3 6 20.77 5.69
8 -3 -6 24.75 2.08
8 -3 -6 23.62 0.73
-8 3 6 23.51 2.01
-8 3 5 38.46 2.15
-8 3 5 30.42 2.45
-8 3 5 34.67 3.62
-8 3 5 31.02 7.81
8 -3 -5 40.66 2.6
8 -3 -5 40.82 1.04
-8 3 5 42.42 2.7
8 -3 -4 19.06 1.61
-8 3 4 21.06 2.69
8 -3 -4 18.45 2.25
-8 3 4 16.98 6.1
8 -3 -4 20.71 1.87
-8 3 4 23.01 2.07
-8 3 3 22.08 2.63
-8 3 2 37.54 3.16
8 -3 -2 36.93 3.22
8 -3 -1 35.73 3.4
8 -3 0 0.03 0.85
-8 3 0 0.13 0.13
8 -3 1 166.63 8.27
-8 3 -1 166.67 3.24
8 -3 2 1.18 1.13
-8 3 -2 -0.1 0.15
8 -3 3 3.6 1.46
-8 3 -3 6.23 2.98
-8 3 -3 4.18 0.35
8 -3 4 2.06 0.65
8 -3 4 2 1.26
-8 3 -4 0.97 0.25
-8 3 -5 30.3 1.04
8 -3 5 29.64 1.97
8 -3 5 28.23 3.48
8 -3 6 26.3 1.87
8 -3 6 25.93 2.07
8 -3 6 25.3 3.29
-8 3 -6 29.71 1.04
-8 3 -6 21.75 8.12
8 -3 7 4.33 0.83
8 -3 7 4.12 0.93
-8 3 -7 5.38 0.62
8 -3 8 10.92 1.26
8 -3 8 12.28 1.48
-8 3 -8 10.97 0.63
8 -3 9 1.26 0.52
8 -3 9 0.27 0.44
-8 3 -9 0.61 0.24
-8 3 -9 -0.2 4.15
8 -3 10 10.39 1.17
8 -3 10 11.24 1.38
-8 3 -10 10.2 0.58
-8 3 -10 7.7 4.91
8 -3 11 0.69 0.57
8 -3 11 -0.32 0.51
-8 3 -11 -1.94 3.51
-8 3 -11 -0.01 0.15
-8 3 -11 0.76 2.39
8 -3 12 25.58 2.01
8 -3 12 23.2 1.74
-8 3 -12 21.72 0.74
-8 3 -12 22.07 1.86
8 -3 13 1.5 0.56
8 -3 13 1.17 0.42
-8 3 -13 -0.74 2.13
-8 3 -13 0.9 0.43
8 -3 14 9.1 0.95
8 -3 14 7.74 0.75
8 -3 15 21.68 1.13
8 -2 -16 8.07 0.68
-8 2 16 18.89 0.91
8 -2 -15 1.66 0.43
-8 2 15 4.09 0.62
-8 2 14 0.17 0.64
8 -2 -14 -0.16 0.38
-8 2 14 0.61 0.4
-8 2 13 1.73 0.95
-8 2 13 1.72 0.58
-8 2 13 3.3 0.69
-8 2 12 11.11 1.34
-8 2 12 15.08 1.51
-8 2 11 44.35 2.73
-8 2 11 50.35 2.92
-8 2 10 7.18 1.59
-8 2 10 11.06 1.37
-8 2 10 7.53 1.2
-8 2 10 12.1 1.53
-8 2 9 34.63 3.27
-8 2 9 48.5 2.7
-8 2 9 38.95 2.8
-8 2 9 51.14 3.1
-8 2 8 261.23 7.04
-8 2 8 271.7 21.9
8 -2 -8 253.28 4.56
-8 2 8 277.72 8.02
-8 2 7 9.96 1.7
-8 2 7 13.85 1.32
-8 2 7 11.07 1.45
-8 2 7 12.67 2.33
8 -2 -7 13.78 0.54
-8 2 7 14.48 1.59
-8 2 6 1.69 0.83
-8 2 6 3.99 0.78
-8 2 6 3.77 0.93
-8 2 6 2.44 1.17
-8 2 6 4.68 3.06
8 -2 -6 4.33 1.21
8 -2 -6 3.76 0.29
-8 2 6 3.29 0.83
-8 2 5 40.83 2.29
-8 2 5 35.64 3.71
8 -2 -5 38.79 1.07
-8 2 5 44.31 2.75
-8 2 4 0.91 0.71
8 -2 -4 1.47 0.21
-8 2 3 1.6 0.76
8 -2 -3 2.01 0.86
8 -2 -2 5 1.31
-8 2 2 5.9 1.31
8 -2 -1 0.49 0.69
8 -2 0 35.69 3.59
8 -2 1 18.03 2.72
-8 2 -1 18.69 0.64
8 -2 2 4.82 1.52
-8 2 -2 5.18 0.34
-8 2 -3 28.08 7.99
8 -2 3 32.41 3.7
-8 2 -3 31.59 0.98
8 -2 4 179.93 5.16
8 -2 4 183.35 9.21
-8 2 -4 184.89 3.68
-8 2 -4 169.3 19.9
8 -2 5 4.86 1.64
8 -2 5 4.79 0.84
-8 2 -5 5.5 0.44
8 -2 6 115.06 4.14
8 -2 6 120.91 4.77
8 -2 6 108.35 6.84
-8 2 -6 127.04 2.76
8 -2 7 365.21 8.82
8 -2 7 362.47 9.82
-8 2 -7 379.17 6.95
8 -2 8 0.54 0.4
8 -2 8 0.35 0.42
-8 2 -8 0.4 0.22
-8 2 -8 0.85 2.96
8 -2 9 22.66 1.63
8 -2 9 22.81 2.02
-8 2 -9 20.2 0.86
-8 2 -9 27.23 8.69
8 -2 10 0.3 0.33
8 -2 10 -0.82 0.55
-8 2 -10 0.07 1.84
-8 2 -10 0.32 0.17
-8 2 -10 0.6 3.29
8 -2 11 19.33 1.85
8 -2 11 16.93 1.64
-8 2 -11 14.32 5.17
-8 2 -11 17.24 0.72
-8 2 -11 20.12 7.32
8 -2 12 9.1 1.26
8 -2 12 8.05 1.06
-8 2 -12 5.28 2.98
-8 2 -12 7.14 0.4
-8 2 -12 6.86 1.14
8 -2 13 0.85 0.57
8 -2 13 0.27 0.39
-8 2 -13 -0.26 1.37
-8 2 -13 0.82 0.5
8 -2 14 0.86 0.37
8 -2 14 0.33 0.26
-8 2 -14 0.09 1.4
-8 2 -14 0.83 0.36
8 -2 15 1.4 0.32
8 -1 -16 1.8 0.34
-8 1 16 8.73 0.73
8 -1 -15 -0.26 0.28
-8 1 15 0.29 0.32
-8 1 14 24.78 1.8
-8 1 14 22.62 1.51
-8 1 13 14.35 1.53
-8 1 13 14.28 1.43
-8 1 12 0.02 0.7
-8 1 12 2.08 0.8
-8 1 12 1.55 0.74
-8 1 11 14.81 1.65
-8 1 11 17.6 1.82
-8 1 10 37.04 2.54
-8 1 10 38.03 2.76
-8 1 9 0.54 0.65
-8 1 9 1.16 0.63
8 -1 -9 0.42 0.15
-8 1 9 -0.18 0.65
-8 1 8 -0.14 0.36
-8 1 8 -0.6 0.76
8 -1 -8 0.32 0.13
-8 1 8 0.63 0.64
-8 1 7 17.9 1.49
-8 1 7 16.78 1.52
-8 1 7 14.97 2.6
-8 1 7 15.3 5.34
8 -1 -7 16.21 0.64
-8 1 7 18.71 1.91
-8 1 6 28.52 1.93
-8 1 6 33.04 3.67
-8 1 6 22.55 6.42
8 -1 -6 25.85 0.86
-8 1 6 31.81 2.39
-8 1 5 0.43 0.51
-8 1 5 0.96 0.95
8 -1 -5 0.57 0.17
-8 1 5 0.68 0.56
-8 1 4 15.25 2.36
8 -1 -4 15.46 0.63
8 -1 -3 2.07 0.92
-8 1 3 1.85 0.72
8 -1 -3 1.28 0.21
-8 1 2 5.55 1.24
8 -1 -2 5.54 1.37
-8 1 1 7.35 1.35
8 -1 -1 8.22 1.65
8 -1 0 6.82 1.61
8 -1 1 65.57 5.22
-8 1 -1 80.93 1.7
8 -1 2 15.62 2.61
-8 1 -2 18.84 0.67
8 -1 3 22.07 3.27
-8 1 -3 25.03 0.84
8 -1 4 45.89 4.58
-8 1 -4 49.56 1.36
-8 1 -4 41.17 10.98
8 -1 5 73.98 5.77
-8 1 -5 76.73 1.88
-8 1 -5 68.69 13.43
8 -1 6 2.55 1.35
8 -1 6 0.92 0.53
-8 1 -6 1.94 0.3
8 -1 7 0.17 0.33
8 -1 7 0.21 0.51
-8 1 -7 0.14 0.2
-8 1 -7 0.84 2.37
8 -1 8 29.4 1.82
8 -1 8 29.31 2.32
-8 1 -8 27.35 1.02
8 -1 9 17.01 1.77
-8 1 -9 18.44 5.09
-8 1 -9 16.92 0.77
-8 1 -9 19.01 7.41
8 -1 10 50.03 3
8 -1 10 48.27 2.94
-8 1 -10 44.92 1.34
-8 1 -10 48.47 9.09
-8 1 -10 39.62 10.66
8 -1 11 131.46 4.93
8 -1 11 130.29 4.88
-8 1 -11 121.85 13.88
-8 1 -11 121.88 2.63
-8 1 -11 128.5 5.39
8 -1 12 10.47 1.06
8 -1 12 14.56 1.44
8 -1 12 13.89 1.38
-8 1 -12 8.59 3.69
-8 1 -12 14.02 1.56
8 -1 13 26.34 1.77
8 -1 13 24.44 1.69
-8 1 -13 29.36 1.92
8 -1 14 3.16 0.6
8 -1 14 3.18 0.52
-8 1 -14 4.22 0.58
8 0 -16 1.12 0.3
-8 0 16 2.66 0.46
-8 0 15 18.55 1.41
-8 0 15 15.65 1.12
-8 0 14 56.16 2.81
-8 0 14 54.14 2.59
-8 0 13 5.05 0.97
-8 0 13 7.75 1.17
-8 0 12 46.45 2.9
-8 0 12 49.88 3.06
-8 0 11 5.28 1.3
-8 0 11 9.99 1.43
-8 0 11 7.92 1.32
-8 0 10 93.42 4.26
8 0 -10 88.36 1.97
-8 0 9 75.71 3.69
8 0 -9 71.68 1.71
-8 0 9 77.09 4.07
-8 0 8 6.06 0.98
-8 0 8 4.85 0.88
-8 0 8 8 1.95
8 0 -8 5.88 0.39
-8 0 8 4.88 1.16
-8 0 7 40.49 2.32
-8 0 7 32.48 2.19
-8 0 7 33.45 3.77
8 0 -7 32.86 1.03
-8 0 7 38.41 2.74
-8 0 6 6.35 0.97
-8 0 6 5.38 0.87
-8 0 6 7.12 1.92
8 0 -6 6.05 0.4
-8 0 6 7.46 1.34
-8 0 5 54.2 2.76
-8 0 5 50.04 4.46
8 0 -5 49.88 1.34
-8 0 5 55.14 3.05
-8 0 4 3.78 1.11
8 0 -4 3.98 0.32
-8 0 3 17.99 2.46
8 0 -3 14.57 2
8 0 -3 16.79 0.67
-8 0 2 9.5 1.71
8 0 -2 11.3 1.93
-8 0 1 48.68 3.5
8 0 -1 48.65 4.2
8 0 0 20.3 2.84
8 0 1 0.06 0.79
8 0 2 113.31 7.16
-8 0 -2 126.01 2.51
8 0 3 367.78 14.09
-8 0 -3 404.21 7.17
8 0 4 601.2 19.56
-8 0 -4 577.01 36.35
8 0 5 58.61 5.14
8 0 5 56.81 3.11
-8 0 -5 59.09 1.56
8 0 6 10.86 1.42
-8 0 -6 11.36 0.61
8 0 6 9.63 2.06
-8 0 -6 11.5 5.49
8 0 7 2.31 0.74
-8 0 -7 2.57 0.32
-8 0 -7 1.14 2.24
8 0 8 8.57 1.32
-8 0 -8 8.35 0.54
-8 0 -8 5.46 4.14
8 0 9 47.2 2.81
8 0 9 41.02 2.78
-8 0 -9 39.76 1.25
-8 0 -9 35.21 9.82
8 0 10 4.9 0.96
8 0 10 3.4 0.91
-8 0 -10 3.11 2.55
-8 0 -10 3.48 0.34
8 0 11 6.75 1.05
8 0 11 5.53 1
-8 0 -11 7.75 2.99
-8 0 -11 6.01 0.4
-8 0 -11 6.54 1.19
8 0 12 18.52 1.55
8 0 12 21.64 1.7
8 0 12 20.9 1.7
-8 0 -12 22.46 1.97
8 0 13 4.97 0.66
8 0 13 5.73 0.8
8 0 13 5.14 0.76
-8 0 -13 5.07 2.47
-8 0 -13 6.28 0.92
8 0 14 24.87 1.34
8 0 14 23.91 1.36
-8 0 -14 25.38 1.33
8 1 -16 0.44 0.25
-8 -1 16 0.25 0.26
-8 -1 15 1.33 0.5
-8 -1 15 0.01 0.34
-8 -1 14 28.52 2.06
-8 -1 14 30.23 2.05
-8 -1 13 43.32 2.76
-8 -1 13 44.38 2.78
-8 -1 12 34.14 2.54
-8 -1 12 32.36 2.53
-8 -1 11 5.51 1.11
-8 -1 11 5.62 1.16
-8 -1 10 305.51 7.22
-8 -1 10 287.22 8.38
-8 -1 10 295.91 8.92
-8 -1 9 21.46 1.66
-8 -1 9 19.24 1.88
8 1 -9 19.87 0.76
-8 -1 9 23.18 2.23
-8 -1 8 0.8 0.49
-8 -1 8 0.59 0.56
-8 -1 8 1.92 1.1
8 1 -8 0.78 0.19
-8 -1 8 0.71 0.57
-8 -1 7 31.75 2.11
-8 -1 7 25.32 3.36
-8 -1 7 30.09 2.12
8 1 -7 29.44 0.96
-8 -1 7 30.6 2.45
-8 -1 6 99.28 3.9
-8 -1 6 91.79 6.28
-8 -1 6 88.88 3.67
8 1 -6 87.36 2.05
-8 -1 6 95.7 4.29
-8 -1 5 41.35 2.47
-8 -1 5 46.47 4.28
8 1 -5 44.66 1.25
-8 -1 5 41.87 2.69
-8 -1 4 21.96 2.94
8 1 -4 22.48 0.82
-8 -1 3 79.5 5.3
8 1 -3 74.27 4.7
8 1 -3 85.03 1.94
8 1 -2 2.19 0.94
-8 -1 2 1.26 0.94
8 1 -1 2.92 1.21
-8 -1 1 3.62 1
8 1 0 159.72 8.22
8 1 1 6.57 1.79
8 1 2 140.92 8.27
-8 -1 -2 168.14 3.19
-8 -1 -3 7.14 1
8 1 3 8.89 2.03
-8 -1 -3 7.98 0.43
-8 -1 -4 113.11 4.07
8 1 4 109.98 7.21
-8 -1 -4 125.53 2.62
-8 -1 -4 132.37 17.07
8 1 5 133.69 7.96
8 1 5 147.25 5.38
-8 -1 -5 150.51 3.12
-8 -1 -5 134.46 16.13
8 1 6 32.3 3.71
8 1 6 38.31 2.66
-8 -1 -6 36.49 1.18
-8 -1 -6 33.74 8.98
8 1 7 45.42 2.95
-8 -1 -7 43.53 1.32
-8 -1 -7 42.53 10.32
8 1 8 6.3 0.99
8 1 8 5.51 1.11
-8 -1 -8 5.33 0.43
-8 -1 -8 8.08 4.35
8 1 9 60.03 3.05
8 1 9 59.94 3.31
-8 -1 -9 51.86 1.48
8 1 10 -0.72 0.52
8 1 10 -0.03 0.43
-8 -1 -10 0.16 0.17
-8 -1 -10 -0.35 0.82
8 1 11 1.95 0.66
8 1 11 2.46 0.75
-8 -1 -11 1.52 0.23
-8 -1 -11 1.78 0.78
8 1 12 1.25 0.52
8 1 12 1.72 0.6
8 1 12 0.91 0.54
-8 -1 -12 0.89 1.15
-8 -1 -12 0.93 0.53
8 1 13 7.59 0.84
8 1 13 8.77 0.89
8 1 13 7.12 0.9
-8 -1 -13 7.07 2.31
-8 -1 -13 8.73 1.05
8 1 14 5.3 0.54
-8 -1 -14 5.54 0.62
-8 -2 16 15.7 1.1
-8 -2 16 14.09 0.94
-8 -2 15 37.33 2.12
-8 -2 15 35.62 2.03
-8 -2 14 13.54 1.45
-8 -2 14 16.29 1.56
-8 -2 13 9.87 1.31
-8 -2 13 10.88 1.41
-8 -2 12 -0.44 0.65
-8 -2 12 1.03 0.68
-8 -2 11 6.22 0.85
-8 -2 11 7.37 1.29
-8 -2 11 5.84 1.13
-8 -2 10 4.33 0.85
-8 -2 10 3.81 0.94
8 2 -10 2.75 0.28
-8 -2 10 3.91 0.98
-8 -2 9 31.91 2.14
-8 -2 9 28.71 2.31
-8 -2 9 30.01 2.05
8 2 -9 29.07 0.97
-8 -2 9 30.68 2.63
-8 -2 8 26.7 2.03
-8 -2 8 23.69 3.29
-8 -2 8 24.18 2.07
-8 -2 8 26.93 2.03
8 2 -8 23.42 0.86
-8 -2 8 25.86 2.35
-8 -2 7 10.43 1.33
-8 -2 7 10.34 1.29
-8 -2 7 11.08 1.34
-8 -2 7 11.15 2.22
8 2 -7 10.3 0.55
-8 -2 7 11.08 1.51
-8 -2 6 12.02 1.38
-8 -2 6 12.08 1.37
-8 -2 6 13.05 1.47
-8 -2 6 9.18 2.11
8 2 -6 11.59 0.59
-8 -2 6 10.46 1.45
-8 -2 5 8.68 1.21
-8 -2 5 7.77 1.01
-8 -2 5 8.36 1.21
-8 -2 5 8.61 1.93
8 2 -5 7.39 0.47
-8 -2 5 6.09 1.15
-8 -2 4 90.88 3.7
-8 -2 4 85.42 5.74
8 2 -4 88.53 2.04
-8 -2 4 86.41 3.95
8 2 -3 49.71 3.97
-8 -2 3 56.22 4.41
8 2 -3 56.79 1.47
8 2 -2 6.61 1.51
-8 -2 2 7.91 1.7
8 2 -1 -0.12 0.67
-8 -2 1 -0.12 0.7
8 2 0 79.76 5.87
-8 -2 0 99.18 5.12
8 2 1 4.95 1.55
-8 -2 -2 59.48 2.77
8 2 2 56.6 5.13
-8 -2 -2 65.14 1.46
-8 -2 -3 24.94 1.77
8 2 3 23.4 3.36
-8 -2 -3 26.6 0.84
-8 -2 -3 21.11 7.32
-8 -2 -3 20.06 5.52
8 2 4 15.63 2.71
-8 -2 -4 15.3 0.65
8 2 5 3.29 1.32
8 2 5 2.26 0.73
-8 -2 -5 3.08 0.32
8 2 6 4.49 0.95
-8 -2 -6 4.49 0.39
-8 -2 -6 7.2 5.11
8 2 7 14.77 1.37
8 2 7 13.38 1.57
-8 -2 -7 12.42 0.65
-8 -2 -7 16.43 5.74
8 2 8 13.4 1.29
8 2 8 11.04 1.48
-8 -2 -8 10.26 0.58
-8 -2 -8 8.87 5.73
8 2 9 30.95 2.02
8 2 9 30.38 2.35
-8 -2 -9 27.4 0.97
-8 -2 -9 28.98 2.65
8 2 10 2.09 0.64
8 2 10 1.57 0.61
-8 -2 -10 1.13 0.21
-8 -2 -10 1.01 0.83
8 2 11 2.53 0.64
8 2 11 2.78 0.72
-8 -2 -11 2.58 0.25
-8 -2 -11 3.49 1.01
8 2 12 7.28 1.04
8 2 12 6.89 0.81
8 2 12 7.79 0.98
-8 -2 -12 9.61 1.26
8 2 13 1.5 0.41
8 2 13 2.46 0.44
8 2 13 2.09 0.52
-8 -2 -13 1.8 0.55
8 2 14 3.42 0.42
-8 -3 16 4.61 0.61
-8 -3 16 4.51 0.6
-8 -3 15 0.35 0.37
-8 -3 15 -0.05 0.41
-8 -3 14 13.26 1.44
-8 -3 14 9.47 1.31
-8 -3 13 0.48 0.49
-8 -3 13 1.94 0.84
-8 -3 12 0.48 0.46
-8 -3 12 1.55 0.79
-8 -3 12 1.72 0.83
-8 -3 11 11 1.21
-8 -3 11 9.15 1.35
-8 -3 11 10.07 1.2
-8 -3 11 11.31 1.62
-8 -3 10 3.74 0.9
-8 -3 10 4.65 1.04
-8 -3 10 3.58 0.78
8 3 -10 3.72 0.32
-8 -3 10 4.72 1.19
-8 -3 9 7.67 4.22
-8 -3 9 8.3 1.22
-8 -3 9 6.98 1.2
-8 -3 9 6.04 1.09
8 3 -9 6.25 0.43
-8 -3 9 7.04 1.33
-8 -3 8 19.46 5.21
-8 -3 8 25.41 2.01
-8 -3 8 23.3 2.07
-8 -3 8 20.87 1.88
8 3 -8 23.91 0.88
-8 -3 8 23.43 2.26
-8 -3 7 9.23 4.15
-8 -3 7 9.62 1.32
-8 -3 7 8.35 1.21
-8 -3 7 9.63 1.36
-8 -3 7 9.17 2.07
8 3 -7 7.66 0.48
-8 -3 7 7.2 1.23
-8 -3 6 102.4 4.17
-8 -3 6 100.49 6.58
-8 -3 6 101.71 4.12
-8 -3 6 103.38 4.3
8 3 -6 100.1 2.28
-8 -3 6 98.08 4.41
-8 -3 6 117.16 13.52
-8 -3 5 23.69 5.81
-8 -3 5 23.91 1.92
-8 -3 5 21.06 2.98
-8 -3 5 22.84 1.84
-8 -3 5 21.58 1.89
8 3 -5 22.97 0.85
-8 -3 5 21.66 1.94
-8 -3 4 51.12 8.39
-8 -3 4 49.48 2.69
-8 -3 4 54.6 4.6
-8 -3 4 48.94 2.63
8 3 -4 49.42 1.36
-8 -3 4 49.71 2.88
-8 -3 3 64.87 3.14
8 3 -3 62.13 4.55
-8 -3 3 69.87 5.05
8 3 -3 73.99 1.77
-8 -3 2 58.7 2.92
8 3 -2 50.64 4.39
-8 -3 2 57.56 4.38
-8 -3 1 -0.14 0.64
8 3 -1 0.25 0.81
-8 -3 1 0.34 0.63
-8 -3 0 87.72 3.62
8 3 0 86.75 6.21
-8 -3 0 102.7 5.41
-8 -3 0 88.36 3.89
-8 -3 -1 0.96 0.55
-8 -3 -1 0.36 0.39
8 3 1 -0.58 1.04
-8 -3 -2 0.91 0.61
-8 -3 -2 -0.2 0.52
8 3 2 -0.54 1.09
8 3 3 72.88 5.87
-8 -3 -3 77.24 3.39
-8 -3 -3 84.51 1.85
8 3 4 -0.39 0.69
8 3 4 0.52 0.51
-8 -3 -4 0.19 0.15
8 3 5 31.2 2.29
-8 -3 -5 30.37 1
8 3 6 15.73 1.63
-8 -3 -6 13.97 0.67
-8 -3 -6 17.82 6.1
8 3 7 2.8 0.89
-8 -3 -7 2.71 0.31
-8 -3 -7 5.88 4.48
8 3 8 8.14 1.23
-8 -3 -8 8.39 0.51
-8 -3 -8 7.74 1.41
8 3 9 18.65 1.75
-8 -3 -9 15.09 0.68
-8 -3 -9 17.11 1.99
8 3 10 5.08 0.78
8 3 10 5.09 0.93
-8 -3 -10 5.38 0.37
-8 -3 -10 4.35 1.16
8 3 11 2.92 0.83
8 3 11 3.24 0.59
8 3 11 2.61 0.68
-8 -3 -11 2.17 0.78
8 3 12 33.82 2.1
8 3 12 33.03 1.56
8 3 12 37.73 1.96
-8 -3 -12 37.27 2.32
8 3 13 13.4 1.03
8 3 13 16.17 1.05
-8 -3 -13 15.9 1.25
-8 -4 16 2.51 0.44
-8 -4 16 2.4 0.5
-8 -4 15 0.35 0.36
-8 -4 15 0.28 0.48
-8 -4 14 10.31 1.21
-8 -4 14 10.42 1.33
-8 -4 13 0.1 0.41
-8 -4 13 1.18 0.63
-8 -4 13 1.4 0.64
-8 -4 12 6.51 0.94
-8 -4 12 7.04 1.19
-8 -4 12 6.59 0.91
-8 -4 12 5.75 1.24
-8 -4 11 11.15 4.48
-8 -4 11 8.08 1.16
-8 -4 11 9.57 1.53
-8 -4 11 8.8 1.19
-8 -4 11 7.98 1.48
-8 -4 10 1.17 2.62
-8 -4 10 1.04 0.54
-8 -4 10 1.32 0.7
-8 -4 10 0.78 0.56
8 4 -10 0.74 0.18
-8 -4 10 0.95 0.72
-8 -4 9 -0.62 2.94
-8 -4 9 -0.13 0.59
-8 -4 9 0.21 0.49
-8 -4 9 -0.13 0.52
8 4 -9 -0.05 0.15
-8 -4 9 -0.58 0.81
-8 -4 8 25.54 7.15
-8 -4 8 24.7 2.06
-8 -4 8 21.63 2.04
-8 -4 8 23.56 2.1
8 4 -8 21.14 0.82
-8 -4 8 21.8 2.17
-8 -4 7 189.87 6.15
-8 -4 7 190.39 9.21
-8 -4 7 176.73 6.2
-8 -4 7 186.27 6.35
8 4 -7 174.77 3.59
-8 -4 7 173.04 6.37
-8 -4 7 182.02 18.01
-8 -4 6 281.67 7.85
-8 -4 6 279.97 11.45
-8 -4 6 276.08 7.92
-8 -4 6 290.53 8.3
8 4 -6 267.44 5.15
-8 -4 6 263.24 8.02
-8 -4 6 290.91 22.85
-8 -4 5 6.19 4.18
-8 -4 5 9.93 1.23
-8 -4 5 9.67 1.27
-8 -4 5 10.35 1.39
-8 -4 5 11.81 2.26
8 4 -5 8.82 0.51
-8 -4 5 9.73 1.35
-8 -4 4 1.07 0.64
-8 -4 4 0.65 0.42
-8 -4 4 0.75 0.54
-8 -4 4 0.26 0.89
-8 -4 4 1.03 0.56
8 4 -4 0.56 0.19
-8 -4 4 0.39 0.54
-8 -4 3 59.47 2.97
8 4 -3 48.66 4.21
-8 -4 3 62.47 4.78
-8 -4 3 59.24 2.97
-8 -4 3 60.81 2.99
8 4 -3 60.59 1.54
-8 -4 3 54.44 2.9
8 4 -2 0.64 0.86
-8 -4 2 0.64 0.51
-8 -4 2 0.52 0.5
-8 -4 2 -0.7 0.81
-8 -4 2 0.26 0.59
-8 -4 2 -0.19 2.17
8 4 -1 16.29 2.64
-8 -4 1 17.92 1.64
-8 -4 1 21.35 2.63
-8 -4 1 21.03 1.66
-8 -4 1 20.26 1.88
8 4 0 -0.31 0.97
-8 -4 0 1.49 0.5
-8 -4 0 1.36 0.57
-8 -4 0 2.46 1.04
-8 -4 0 1.72 0.68
-8 -4 -1 98.97 3.72
8 4 1 96.9 6.81
-8 -4 -1 112.01 4.04
-8 -4 -1 104.57 4.36
8 4 2 34.71 4.13
-8 -4 -2 39.25 2.29
-8 -4 -2 39.08 2.54
8 4 3 0.14 0.39
-8 -4 -3 0.38 0.16
-8 -4 -3 0.16 0.48
8 4 4 5.62 1.01
-8 -4 -4 5.79 0.39
8 4 5 19.19 1.77
-8 -4 -5 18.22 0.73
-8 -4 -5 15.15 5.63
8 4 6 14.27 1.57
-8 -4 -6 12.74 0.62
-8 -4 -7 43.77 1.3
-8 -4 -7 41.73 3.18
8 4 8 116.66 4.48
-8 -4 -8 104.09 2.35
-8 -4 -8 107.64 5.18
8 4 9 11.81 1.36
-8 -4 -9 10.5 1.58
8 4 10 38.06 2.26
-8 -4 -10 39.22 2.8
8 4 11 5.55 0.96
8 4 11 7.52 0.93
-8 -4 -11 6.58 1.15
8 4 12 24.55 1.69
8 4 12 27.18 1.46
-8 -4 -12 27.4 1.84
8 4 13 5.49 0.58
8 4 13 5.01 0.48
-8 -4 -13 5.44 0.63
-8 -5 16 3.12 0.45
-8 -5 16 2.66 0.47
-8 -5 15 15.27 1.23
-8 -5 15 14.15 1.24
-8 -5 14 9.69 1.15
-8 -5 14 8.75 1.17
-8 -5 13 1.43 2.53
-8 -5 13 1.85 0.63
-8 -5 13 2.92 0.83
-8 -5 13 3.76 1.09
-8 -5 13 2.6 0.81
-8 -5 12 11.78 4.73
-8 -5 12 14.2 1.42
-8 -5 12 14.75 1.63
-8 -5 12 13.18 1.37
-8 -5 12 15.2 1.79
-8 -5 11 19.51 1.73
-8 -5 11 20.73 2.04
-8 -5 11 18.77 1.78
-8 -5 11 19.32 2.06
-8 -5 10 0.4 0.53
-8 -5 10 0.06 0.52
-8 -5 10 0.02 0.48
-8 -5 10 0.04 0.44
-8 -5 10 0.54 0.67
-8 -5 9 58.11 10.84
-8 -5 9 52.19 3.01
-8 -5 9 52.66 3.3
-8 -5 9 48.79 3.1
-8 -5 9 50.19 3.09
8 5 -9 49.46 1.36
-8 -5 9 48.75 3.24
-8 -5 8 413.91 10.1
-8 -5 8 376.37 10.23
-8 -5 8 366.27 10.2
8 5 -8 359.07 6.66
-8 -5 8 351.59 10.14
-8 -5 8 363.55 10.51
-8 -5 8 370.07 27.84
-8 -5 7 147.35 5.35
-8 -5 7 141.61 5.49
-8 -5 7 148.83 5.71
8 5 -7 134.59 2.91
-8 -5 7 140.46 5.49
-8 -5 7 130.04 5.64
-8 -5 7 147.34 17.2
-8 -5 6 194.54 6.18
-8 -5 6 183.38 5.68
-8 -5 6 176.55 8.97
-8 -5 6 179.64 6.23
-8 -5 6 180.31 6.47
8 5 -6 176.49 3.57
-8 -5 6 159.79 5.92
-8 -5 6 189.2 19.59
-8 -5 5 2.03 4.39
-8 -5 5 2.08 0.9
-8 -5 5 0.76 0.6
-8 -5 5 0.63 0.57
-8 -5 5 1.18 0.68
-8 -5 5 1.06 0.9
-8 -5 5 1.93 0.73
-8 -5 5 0.91 0.69
8 5 -5 0.71 0.21
-8 -5 5 1.39 0.65
-8 -5 4 263.58 7.4
-8 -5 4 252.21 10.56
-8 -5 4 261.63 7.49
-8 -5 4 266.7 8.04
-8 -5 4 257.31 7.1
-8 -5 4 243.28 8.03
8 5 -4 249.24 4.78
-8 -5 4 238.02 7.12
-8 -5 4 271.1 23.34
8 5 -3 9.08 1.9
-8 -5 3 8.85 1.19
-8 -5 3 9.56 1.26
-8 -5 3 9.32 2
-8 -5 3 10.64 1.33
-8 -5 3 10.42 1.48
8 5 -3 9.53 0.52
-8 -5 3 7.7 1.1
-8 -5 3 9.14 4.68
8 5 -2 50.35 4.57
-8 -5 2 53.14 2.78
-8 -5 2 52.72 4.42
-8 -5 2 59.21 3.01
-8 -5 2 57.52 3.1
-8 -5 2 55.46 3.33
-8 -5 2 59.67 10.9
8 5 -1 6.27 1.71
-8 -5 1 6.63 1.07
-8 -5 1 5.24 0.89
-8 -5 1 6.95 1.59
-8 -5 1 6.34 1.19
8 5 0 23.26 3.36
-8 -5 0 26.4 1.83
-8 -5 0 26.83 2.91
-8 -5 0 25.82 1.94
-8 -5 0 25.34 2.18
-8 -5 -1 80.23 3.57
-8 -5 -1 80.17 3.91
8 5 2 2.41 1.23
-8 -5 -2 3.49 1.24
-8 -5 -2 3.57 0.91
-8 -5 -3 2.22 0.77
8 5 3 2.07 0.65
8 5 4 36.7 2.28
-8 -5 -4 32.89 2.28
-8 -5 -4 35.15 1.02
8 5 5 1.76 0.59
-8 -5 -5 2.05 0.25
-8 -5 -6 135.27 4.58
8 5 6 148.2 5.07
-8 -5 -6 137.92 5.81
8 5 7 24.37 1.89
-8 -5 -7 23.01 2.32
8 5 8 122.64 4.46
-8 -5 -8 115.55 5.28
8 5 9 -0.46 0.46
-8 -5 -9 -0.32 0.47
-8 -5 -9 -0.49 0.72
8 5 10 54.6 2.47
-8 -5 -10 53.41 3.12
8 5 11 6.81 0.97
8 5 11 6.92 0.75
-8 -5 -11 7.13 1.02
8 5 12 19.6 1.34
8 5 12 18.43 0.95
-8 -5 -12 19.17 1.38
-8 -6 16 55.01 1.89
-8 -6 15 2.24 0.51
-8 -6 15 1.54 0.5
-8 -6 14 14.7 3.69
-8 -6 14 20.03 1.56
-8 -6 14 19.3 1.65
-8 -6 13 28.91 6.49
-8 -6 13 28.85 1.8
-8 -6 13 30.41 2.16
-8 -6 13 28.01 1.8
-8 -6 13 29.17 2.19
-8 -6 12 35.77 8.06
-8 -6 12 38.06 2.3
-8 -6 12 36.61 2.53
-8 -6 12 38.06 2.39
-8 -6 12 33.99 2.58
-8 -6 11 45.44 9.32
-8 -6 11 51.58 2.81
-8 -6 11 46.39 2.99
-8 -6 11 46.9 2.92
-8 -6 11 44.53 3
-8 -6 10 43.49 9.69
-8 -6 10 55.08 3.04
-8 -6 10 50.18 3.18
-8 -6 10 47.92 3.12
-8 -6 10 50.61 2.83
-8 -6 10 46.17 3.13
-8 -6 9 56.38 11.1
-8 -6 9 60.25 3.27
-8 -6 9 58.95 3.5
-8 -6 9 55.72 3.43
-8 -6 9 55.87 3.23
8 6 -9 55.21 1.44
-8 -6 9 47.39 3.21
-8 -6 9 58.11 3.64
-8 -6 8 46.82 10.37
-8 -6 8 49.14 2.93
-8 -6 8 43.08 3.01
-8 -6 8 43.2 3.05
-8 -6 8 44.76 2.99
8 6 -8 41.56 1.2
-8 -6 8 37.42 2.78
-8 -6 8 43.55 3.11
-8 -6 7 5.73 4.63
-8 -6 7 6.61 1.3
-8 -6 7 8.65 1.27
-8 -6 7 7.07 1.27
-8 -6 7 6.27 1.19
-8 -6 7 6.92 1.27
8 6 -7 6.54 0.43
-8 -6 7 6.19 1.18
-8 -6 6 464.1 11.17
-8 -6 6 466.19 10.73
-8 -6 6 450.59 11.51
-8 -6 6 432.24 11.68
-8 -6 6 471.28 10.46
-8 -6 6 437.47 11.76
8 6 -6 440.39 7.9
-8 -6 6 410.17 10.72
-8 -6 6 401.09 11.53
-8 -6 6 450.98 32.24
-8 -6 5 4.02 3.93
-8 -6 5 4.61 1.02
-8 -6 5 5.32 1.16
-8 -6 5 4.08 0.95
-8 -6 5 4.84 1.08
-8 -6 5 5.35 1.25
-8 -6 5 4.59 0.96
8 6 -5 4.42 0.37
-8 -6 5 3.55 0.85
-8 -6 4 63.28 3.22
-8 -6 4 65.81 3.43
-8 -6 4 63.58 5.21
-8 -6 4 59.77 3.31
-8 -6 4 58.14 3.51
-8 -6 4 64.98 3.24
-8 -6 4 61.21 3.65
8 6 -4 59.29 1.53
-8 -6 4 65.6 12.08
8 6 -3 2.82 1.3
-8 -6 3 1.42 0.58
-8 -6 3 1.82 0.63
-8 -6 3 3.3 1.04
-8 -6 3 1.24 0.85
-8 -6 3 1.33 0.64
-8 -6 3 2.18 0.85
-8 -6 3 -1.08 2.18
-8 -6 2 11.48 1.23
-8 -6 2 12.75 1.47
-8 -6 2 11.73 2.11
-8 -6 2 11.58 1.45
-8 -6 2 12.53 1.64
-8 -6 2 11.39 5.41
8 6 -2 8.91 2.03
-8 -6 1 2.12 0.67
-8 -6 1 2.24 0.8
-8 -6 1 2.78 1.11
-8 -6 1 1.71 0.81
-8 -6 1 1.05 0.59
8 6 -1 0.48 0.74
8 6 0 46.87 4.69
-8 -6 0 53.66 2.58
-8 -6 0 53.77 3.01
-8 -6 0 53.95 3.23
-8 -6 0 54.35 3.34
-8 -6 -1 1.39 0.78
-8 -6 -1 0.91 0.69
-8 -6 -1 0.58 0.71
-8 -6 -2 38.09 2.71
8 6 3 130.03 4.36
-8 -6 -3 118.14 4.92
-8 -6 -3 118.6 4.7
-8 -6 -4 139.59 5.17
8 6 4 149.25 4.74
-8 -6 -4 138.82 5.17
-8 -6 -4 136.46 5.28
-8 -6 -5 1.04 0.5
8 6 5 1.32 0.49
-8 -6 -5 1.5 0.56
-8 -6 -5 0.87 0.55
-8 -6 -6 3.67 0.89
8 6 6 4.17 0.81
-8 -6 -6 5.4 1.09
8 6 7 32.93 1.98
-8 -6 -7 26.76 1.94
-8 -6 -7 31.84 2.6
8 6 8 73.4 2.95
-8 -6 -8 63.46 2.68
-8 -6 -8 69.6 3.73
8 6 9 3.24 0.57
-8 -6 -9 2.46 0.76
8 6 10 16.96 1.59
8 6 10 15.24 1.03
-8 -6 -10 15.48 1.51
8 6 11 5.76 0.82
8 6 11 5.67 0.51
-8 -6 -11 6.64 0.86
-8 -6 -11 5.21 0.58
8 6 12 0.45 0.26
-8 -6 -12 0.23 0.23
-8 -7 15 26.8 1.36
-8 -7 15 23.42 1.43
-8 -7 14 0.43 0.35
-8 -7 14 -0.52 0.51
-8 -7 13 7.73 3.34
-8 -7 13 12.45 1.32
-8 -7 13 13.36 1.3
-8 -7 13 9.12 1.21
-8 -7 12 16.95 5.69
-8 -7 12 17.42 1.5
-8 -7 12 18.48 1.75
-8 -7 12 17.69 1.66
-8 -7 12 16.05 1.63
-8 -7 11 46.35 9.71
-8 -7 11 41.68 2.56
-8 -7 11 43.03 2.81
-8 -7 11 40.84 2.71
-8 -7 11 36.54 2.62
-8 -7 10 7.76 4.18
-8 -7 10 7.56 1.14
-8 -7 10 6.05 0.94
-8 -7 10 8.44 1.25
-8 -7 10 7.55 1.28
-8 -7 10 6.89 1.21
-8 -7 9 0.58 0.71
-8 -7 9 1.57 0.75
-8 -7 9 0.01 0.55
-8 -7 9 0.04 0.6
-8 -7 9 0.53 0.6
-8 -7 9 1.07 0.65
-8 -7 8 16.96 6.73
-8 -7 8 21.99 1.98
-8 -7 8 19.3 1.95
-8 -7 8 21.91 2.28
-8 -7 8 19.14 1.95
8 7 -8 19.89 0.74
-8 -7 8 17.58 1.8
-8 -7 8 17.91 2.05
-8 -7 7 5.87 3.51
-8 -7 7 8.76 1.51
-8 -7 7 12.41 1.56
-8 -7 7 11.77 1.32
-8 -7 7 11.68 1.58
-8 -7 7 9.88 1.49
-8 -7 7 11.99 1.29
8 7 -7 10.85 0.53
-8 -7 7 11.54 1.6
-8 -7 7 10.02 1.33
-8 -7 6 8.21 4.22
-8 -7 6 9.57 1.44
-8 -7 6 13.68 1.6
-8 -7 6 11.29 1.58
-8 -7 6 12.15 1.46
-8 -7 6 10.86 1.54
-8 -7 6 10.9 1.6
-8 -7 6 12.44 1.41
8 7 -6 10.55 0.52
-8 -7 6 9.98 1.21
-8 -7 5 47.19 2.88
-8 -7 5 50.34 3.02
-8 -7 5 48.17 3.09
-8 -7 5 47.88 3.27
-8 -7 5 52.08 2.95
-8 -7 5 50.71 3.37
8 7 -5 47.77 1.28
-8 -7 5 46.63 10.56
-8 -7 4 21.19 1.91
-8 -7 4 23.17 2.11
-8 -7 4 20.22 2.03
-8 -7 4 18.96 2.05
-8 -7 4 20.12 1.86
-8 -7 4 20.57 2.14
-8 -7 4 19.26 7.12
-8 -7 3 1.1 0.67
-8 -7 3 0.45 0.6
-8 -7 3 1.75 0.86
-8 -7 3 0.38 0.59
-8 -7 3 0.94 0.8
-8 -7 3 1.41 3.82
-8 -7 2 18.62 1.6
-8 -7 2 20.89 2.09
-8 -7 2 18.97 1.75
-8 -7 2 20.56 1.96
-8 -7 2 19.49 1.96
-8 -7 2 20.52 2.15
-8 -7 1 24.8 1.77
-8 -7 1 24.77 2.26
-8 -7 1 25.25 2.03
-8 -7 1 26.46 2.19
-8 -7 1 24.74 2.19
-8 -7 1 26.44 2.44
-8 -7 0 8.73 1.44
-8 -7 0 7.17 1.23
-8 -7 0 8.68 1.38
-8 -7 0 8.19 1.35
-8 -7 -1 0.25 0.59
-8 -7 -1 -0.58 1.2
-8 -7 -1 0.6 0.61
-8 -7 -1 0.55 0.53
-8 -7 -2 3.19 0.98
-8 -7 -2 3.29 1
-8 -7 -2 1.67 0.75
-8 -7 -3 51.2 3.03
-8 -7 -3 45.77 3.01
-8 -7 -3 48.08 3.11
-8 -7 -4 74.42 3.6
-8 -7 -4 73.53 3.78
-8 -7 -4 80.96 3.65
-8 -7 -5 0.67 0.53
-8 -7 -5 -0.04 0.52
-8 -7 -5 -1.07 0.66
-8 -7 -6 3.06 0.83
-8 -7 -6 1.92 0.74
-8 -7 -7 15.47 1.32
-8 -7 -7 17.77 1.75
-8 -7 -8 15.22 1.61
8 7 9 6.23 0.97
-8 -7 -9 5.59 0.93
8 7 10 10.22 1.09
-8 -7 -10 9.45 0.89
-8 -7 -10 11.32 1.14
8 7 11 0.04 0.25
-8 -7 -11 0.27 0.25
-8 -8 15 0.6 0.2
-8 -8 15 0.34 0.24
-8 -8 14 0.7 0.33
-8 -8 14 1.01 0.38
-8 -8 13 0.28 0.36
-8 -8 13 0.64 0.48
-8 -8 13 1.17 0.46
-8 -8 12 2.64 1.93
-8 -8 12 4.07 0.85
-8 -8 12 2.86 0.74
-8 -8 12 3.98 0.85
-8 -8 12 2.27 0.66
-8 -8 11 6.37 3.98
-8 -8 11 10.51 1.23
-8 -8 11 8.29 1.16
-8 -8 11 7.82 1.25
-8 -8 11 8.98 1.23
-8 -8 10 11.03 4.96
-8 -8 10 21.61 1.89
-8 -8 10 19.65 1.9
-8 -8 10 18.54 1.96
-8 -8 10 14.04 1.56
-8 -8 9 73.53 3.48
-8 -8 9 64.68 3.58
-8 -8 9 58.55 3.52
-8 -8 9 58.83 3.04
-8 -8 9 56.36 3.09
-8 -8 9 57.68 3.56
-8 -8 9 67.83 12.66
-8 -8 8 0.69 2.14
-8 -8 8 0.5 0.56
-8 -8 8 0.63 0.64
-8 -8 8 0.86 0.57
-8 -8 8 0.6 0.64
-8 -8 8 -0.24 0.46
-8 -8 8 -0.2 0.51
-8 -8 8 -0.22 0.46
-8 -8 7 24.48 8.12
-8 -8 7 28.3 2.22
-8 -8 7 27.9 2.02
-8 -8 7 27.63 2.38
-8 -8 7 27.18 2.48
-8 -8 7 28.89 2.13
-8 -8 7 28.56 2.4
-8 -8 7 22.4 2.24
-8 -8 6 41.54 2.64
-8 -8 6 42.79 2.73
-8 -8 6 41.47 2.9
-8 -8 6 40.24 3.02
-8 -8 6 41.35 2.61
-8 -8 6 38.88 2.89
8 8 -6 39.41 1.08
-8 -8 6 32.75 2.76
-8 -8 6 38.21 9.94
-8 -8 5 2.93 0.79
-8 -8 5 0.83 0.59
-8 -8 5 0.8 0.54
-8 -8 5 1.63 0.8
-8 -8 5 1.87 0.78
-8 -8 5 1.43 0.78
-8 -8 4 17.71 1.62
-8 -8 4 18.62 1.99
-8 -8 4 17.26 1.82
-8 -8 4 15.73 1.76
-8 -8 4 15.09 1.88
-8 -8 4 17.24 6.94
-8 -8 3 135.16 4.68
-8 -8 3 146.63 5.71
-8 -8 3 132.17 5.38
-8 -8 3 135.85 5.49
-8 -8 3 137.92 5.41
-8 -8 3 134.51 5.84
-8 -8 3 135.91 18.65
-8 -8 2 -0.2 0.42
-8 -8 2 -0.16 0.73
-8 -8 2 0.01 0.52
-8 -8 2 -0.03 0.55
-8 -8 2 0.16 0.63
-8 -8 2 -0.35 0.7
-8 -8 1 43.49 2.98
-8 -8 1 43.54 2.71
-8 -8 1 40.83 2.86
-8 -8 1 44.6 2.95
-8 -8 1 38.29 2.95
-8 -8 0 17.56 1.88
-8 -8 0 17 1.68
-8 -8 0 17.4 2.05
-8 -8 0 16.92 1.81
-8 -8 0 15.88 1.92
-8 -8 -1 25.26 2.3
-8 -8 -1 27.12 2.25
-8 -8 -1 24.75 2.33
-8 -8 -2 51.58 3.13
-8 -8 -2 47.75 3.08
-8 -8 -2 48.85 3.22
-8 -8 -3 35 2.45
-8 -8 -3 33.84 2.5
-8 -8 -3 34.04 2.64
-8 -8 -4 23.77 1.9
-8 -8 -4 24.65 2.03
-8 -8 -5 98.51 3.58
-8 -8 -5 98.87 3.95
-8 -8 -5 102.36 3.95
-8 -8 -6 8.79 1.03
-8 -8 -6 10.1 1.22
-8 -8 -7 -1.19 0.41
-8 -8 -7 -0.16 0.47
8 8 8 1.73 0.53
-8 -8 -8 1.82 0.55
-8 -8 -8 1.03 0.5
8 8 9 0.67 0.42
-8 -8 -9 0.58 0.42
-8 -8 -9 -0.32 0.32
8 8 10 4.66 0.59
-8 -8 -10 4.4 0.57
-8 -8 -10 2.9 0.4
-8 -9 14 8.04 0.77
-8 -9 14 8.47 0.69
-8 -9 14 7.45 0.69
-8 -9 14 6.98 2.51
-8 -9 13 -0.85 1.68
-8 -9 13 0.34 0.29
-8 -9 13 -0.91 3.21
-8 -9 13 -0.01 0.28
-8 -9 12 14.49 1.33
-8 -9 12 14.86 1.44
-8 -9 12 11.38 1.1
-8 -9 11 4.87 3.18
-8 -9 11 3.78 0.87
-8 -9 11 3.69 0.76
-8 -9 11 4.14 0.89
-8 -9 11 2.84 0.64
-8 -9 10 77.47 3.38
-8 -9 10 68.74 3.42
-8 -9 10 63.79 3.46
-8 -9 10 54.92 2.7
-8 -9 10 61.49 11.32
-8 -9 9 37.96 9.27
-8 -9 9 39.06 2.44
-8 -9 9 37.83 2.59
-8 -9 9 33.79 2.56
-8 -9 9 35.35 1.99
-8 -9 9 34.14 2.08
-8 -9 9 31.37 1.96
-8 -9 8 1.25 2.88
-8 -9 8 4.12 1.02
-8 -9 8 3.78 0.87
-8 -9 8 4.8 0.99
-8 -9 8 3.74 0.92
-8 -9 8 3.5 1.04
-8 -9 8 3.74 0.91
-8 -9 7 26.86 2.11
-8 -9 7 27.72 2.31
-8 -9 7 27.01 2.42
-8 -9 7 26.37 2.01
-8 -9 7 26.48 2.2
-8 -9 7 31.17 8.83
-8 -9 6 53.3 2.97
-8 -9 6 54.43 3.12
-8 -9 6 53.52 3.31
-8 -9 6 51.5 3.39
-8 -9 6 55.58 3.11
-8 -9 6 54.21 3.39
-8 -9 6 43.61 10.55
-8 -9 5 8.25 1.37
-8 -9 5 8.68 1.16
-8 -9 5 9.04 1.36
-8 -9 5 8.95 1.47
-8 -9 5 7.75 1.24
-8 -9 5 8.14 1.28
-8 -9 5 13 6.18
-8 -9 4 8.9 1.18
-8 -9 4 11.33 1.57
-8 -9 4 11.25 1.6
-8 -9 4 10.52 1.49
-8 -9 4 11 1.49
-8 -9 4 11.58 1.5
-8 -9 4 11.66 6.3
-8 -9 3 1.47 0.6
-8 -9 3 2.19 0.92
-8 -9 3 0.39 0.62
-8 -9 3 1.33 0.78
-8 -9 3 1.75 0.71
-8 -9 3 0.49 0.62
-8 -9 2 1.46 0.85
-8 -9 2 1.58 0.81
-8 -9 2 2.08 0.8
-8 -9 2 0.79 0.59
-8 -9 2 2.68 0.92
-8 -9 1 22.02 2.15
-8 -9 1 22.97 2.16
-8 -9 1 22.71 2.21
-8 -9 1 22.81 2.06
-8 -9 1 22.25 2.24
-8 -9 1 19.05 1.78
-8 -9 0 7.01 1.24
-8 -9 0 7.66 2.33
-8 -9 0 10.5 1.49
-8 -9 0 8.7 1.48
-8 -9 -1 0.76 0.77
-8 -9 -1 1.02 0.69
-8 -9 -1 0.31 0.56
-8 -9 -2 22.14 1.95
-8 -9 -2 20.25 1.93
-8 -9 -2 21.99 2.23
-8 -9 -3 0.33 0.6
-8 -9 -3 0.82 0.68
-8 -9 -4 36.09 2.19
-8 -9 -4 39.12 2.34
-8 -9 -5 41.64 2.2
-8 -9 -6 6.6 0.72
-8 -9 -6 8.06 1.18
8 9 7 29.67 1.87
-8 -9 -7 28.51 1.97
-8 -9 -7 26.36 1.58
8 9 8 0.11 0.32
-8 -9 -8 0.84 0.34
-8 -9 -8 -0.2 0.33
8 9 9 5.46 0.57
-8 -9 -9 4.06 0.51
-8 -10 13 2.77 0.56
-8 -10 13 2.94 0.46
-8 -10 13 4.54 2.22
-8 -10 12 2.27 0.64
-8 -10 12 1.84 0.5
-8 -10 12 1.68 0.47
-8 -10 12 1.44 2.83
-8 -10 12 -0.64 2.22
-8 -10 11 1.01 0.56
-8 -10 11 1.41 0.48
-8 -10 11 1.33 0.61
-8 -10 11 1.08 2.68
-8 -10 10 3.23 0.94
-8 -10 10 2.23 0.77
-8 -10 10 2.42 0.66
-8 -10 10 2.62 0.8
-8 -10 10 1.31 1.75
-8 -10 9 23.57 1.78
-8 -10 9 23.36 2.12
-8 -10 9 22.91 1.88
-8 -10 9 20.75 1.95
-8 -10 9 22.81 1.7
-8 -10 9 21.92 6.51
-8 -10 8 30.54 2.11
-8 -10 8 27.07 2.35
-8 -10 8 29.77 2.22
-8 -10 8 25.57 2.22
-8 -10 8 28.44 1.98
-8 -10 8 29.06 1.97
-8 -10 8 22.36 7.48
-8 -10 7 41 2.44
-8 -10 7 38.62 2.87
-8 -10 7 37.68 2.64
-8 -10 7 35.19 2.67
-8 -10 7 35.33 2.34
-8 -10 7 37.17 2.52
-8 -10 7 28.45 8.33
-8 -10 6 16.13 1.52
-8 -10 6 16.24 1.85
-8 -10 6 16.31 1.78
-8 -10 6 16.34 1.69
-8 -10 6 16.51 1.78
-8 -10 6 18.68 6.98
-8 -10 5 24.24 1.77
-8 -10 5 23.42 2.25
-8 -10 5 22.48 2.08
-8 -10 5 26.43 2.15
-8 -10 5 22.73 2.14
-8 -10 5 22.75 7.36
-8 -10 4 23.45 1.69
-8 -10 4 25.95 2.3
-8 -10 4 28.04 2.41
-8 -10 4 27.91 2.33
-8 -10 4 28.63 2.27
-8 -10 4 26.11 2.4
-8 -10 3 18.72 1.4
-8 -10 3 20.64 2.05
-8 -10 3 19.59 2.05
-8 -10 3 21.44 2.1
-8 -10 3 21.72 2.02
-8 -10 3 19.48 2.08
-8 -10 2 32.5 2.54
-8 -10 2 33.51 2.67
-8 -10 2 32.05 2.58
-8 -10 2 32.19 2.44
-8 -10 2 33.66 2.69
-8 -10 1 3.76 1.04
-8 -10 1 2.9 2.11
-8 -10 1 5.07 1.03
-8 -10 1 2.46 0.96
-8 -10 1 3.04 0.77
-8 -10 0 3.7 1
-8 -10 0 3.61 1.08
-8 -10 0 3.24 0.85
-8 -10 -1 -0.29 0.54
-8 -10 -1 1.94 0.77
-8 -10 -1 0.74 0.86
-8 -10 -1 0.33 0.47
-8 -10 -2 125.81 4.82
-8 -10 -2 141.04 4.94
-8 -10 -2 138.44 5.31
-8 -10 -3 40.84 2.35
-8 -10 -3 41.62 2.7
-8 -10 -4 2.4 0.62
-8 -10 -4 2.11 0.71
8 10 5 12.22 1.07
-8 -10 -5 11.02 0.93
-8 -10 -5 13.76 1.45
8 10 6 0.1 0.29
-8 -10 -6 -0.07 0.48
8 10 7 6.48 0.65
-8 -10 -7 6.46 0.83
-8 -10 -8 10.78 0.83
-8 -11 13 0.53 1.22
-8 -11 12 0.85 0.32
-8 -11 12 1.22 0.32
-8 -11 12 1.26 1.35
-8 -11 11 1.8 0.53
-8 -11 11 2.16 0.47
-8 -11 11 -1.12 4.92
-8 -11 11 -0.12 1.47
-8 -11 10 0.51 0.42
-8 -11 10 1.25 0.45
-8 -11 10 -1.71 3.77
-8 -11 10 -0.8 1.92
-8 -11 9 1.24 0.79
-8 -11 9 1.03 0.6
-8 -11 9 1.7 0.62
-8 -11 9 2.63 1.29
-8 -11 9 1.01 3.92
-8 -11 9 1.89 2.66
-8 -11 8 30.7 1.93
-8 -11 8 29.62 2.28
-8 -11 8 29.49 2.05
-8 -11 8 25.86 1.84
-8 -11 8 25.22 1.62
-8 -11 8 19.83 7.69
-8 -11 8 20.41 6.51
-8 -11 7 0.69 0.51
-8 -11 7 0.36 0.49
-8 -11 7 0.05 0.44
-8 -11 7 0.53 0.62
-8 -11 7 0.17 0.39
-8 -11 7 -0.47 3.54
-8 -11 6 12 1.18
-8 -11 6 14.47 1.71
-8 -11 6 14.23 1.6
-8 -11 6 14.11 1.45
-8 -11 6 12.8 1.46
-8 -11 5 21.62 1.51
-8 -11 5 22.56 2.11
-8 -11 5 20.82 1.93
-8 -11 5 23.05 1.9
-8 -11 5 19.93 1.9
-8 -11 5 15.73 7.02
-8 -11 4 3.55 0.65
-8 -11 4 4.42 1.02
-8 -11 4 5.05 1.3
-8 -11 4 4.11 1.13
-8 -11 4 3.52 0.89
-8 -11 3 0.23 1.34
-8 -11 3 0.16 1.28
-8 -11 3 -0.41 0.67
-8 -11 3 0.68 0.67
-8 -11 3 1.59 4.63
-8 -11 2 12.39 2.67
-8 -11 2 8.87 1.29
-8 -11 2 8.53 1.41
-8 -11 2 6.79 6.65
-8 -11 1 2.88 0.9
-8 -11 1 4.08 1.12
-8 -11 1 4.48 1.14
-8 -11 1 6.04 10.89
-8 -11 0 1.81 0.7
-8 -11 0 1.64 0.64
-8 -11 -1 3.57 0.79
-8 -11 -1 2.94 0.77
-8 -11 -2 31.1 1.95
-8 -11 -2 30.11 2.16
-8 -11 -3 4.7 0.75
-8 -11 -3 4.65 0.88
-8 -11 -4 8.47 0.79
-8 -11 -4 9.58 1.17
-8 -11 -5 9.7 2.27
-8 -11 -5 8.69 1.05
-8 -11 -6 34.33 1.8
-8 -11 -7 12.76 0.88
-8 -12 11 1.51 0.51
-8 -12 11 0.94 0.34
-8 -12 10 1.78 0.56
-8 -12 10 1.58 0.44
-8 -12 10 3.66 7.99
-8 -12 9 1.08 0.53
-8 -12 9 1.63 0.52
-8 -12 9 -1.19 1.5
-8 -12 9 3.6 6.59
-8 -12 8 34.96 2.26
-8 -12 8 37.44 2.09
-8 -12 8 35.95 2.18
-8 -12 7 39.81 2.55
-8 -12 7 40.06 2.3
-8 -12 7 37.77 2.23
-8 -12 6 114.95 4.54
-8 -12 6 106.96 4.11
-8 -12 6 110.32 4.03
-8 -12 5 31.81 2.52
-8 -12 5 29.73 2.28
-8 -12 5 30.66 2.08
-8 -12 5 26.56 2.03
-8 -12 4 85.28 4.27
-8 -12 4 84.17 3.61
-8 -12 4 75.07 3.66
-8 -12 4 74.46 14.77
-8 -12 3 117.42 4.4
-8 -12 3 93.68 18.3
-8 -12 2 121.33 4.43
-8 -12 2 75.82 16.96
-8 -12 1 9.94 1.17
-8 -12 1 8.83 0.96
-8 -12 0 0.6 0.54
-8 -12 0 0.09 0.38
-8 -12 -1 18.68 1.42
-8 -12 -1 20.17 1.55
-8 -12 -2 -0.25 0.37
-8 -12 -2 0.85 0.53
-8 -12 -3 13.08 0.89
-8 -12 -3 13.92 1.24
-8 -12 -4 9.64 2.23
-8 -12 -4 9.25 0.95
-8 -12 -5 18.65 1.16
-8 -13 10 8.64 7.5
-8 -13 9 19.54 1.69
-8 -13 9 14.65 1.42
-8 -13 9 12.37 9.68
-8 -13 8 21.41 1.94
-8 -13 8 16.14 1.8
-8 -13 7 71.18 3.29
-8 -13 7 62.78 2.68
-8 -13 6 26.97 1.85
-8 -13 6 22.46 14.15
-8 -13 5 -0.18 0.76
-8 -13 5 12.8 13.2
-8 -13 4 12.53 1.27
-8 -13 4 14.48 13.6
-8 -13 3 0.03 0.54
-8 -13 3 -3.83 11.03
-8 -13 2 8.83 1.07
-8 -13 1 1.59 0.57
-8 -13 1 1.26 0.37
-8 -13 0 4.26 0.65
-8 -13 0 3.44 0.53
-8 -13 -1 34.41 1.55
-8 -13 -1 31.77 1.61
-8 -13 -2 92.28 2.43
-8 -13 -2 94.27 2.95
-8 -13 -3 31.4 2.26
-8 -13 -3 23.75 1.24
-8 -14 7 14.23 1.57
-8 -14 6 -0.13 1.26
-8 -14 5 -1.65 1.12
-8 -14 4 2.71 0.96
-8 -14 3 4.43 0.87
-8 -14 2 1.27 0.7
-8 -14 1 1.27 0.58
-8 -14 0 12.18 2.18
-8 -14 -1 139.6 4.3
9 -15 -2 0.81 0.42
9 -15 -1 0.13 0.16
9 -15 -1 0 0.36
9 -15 0 7.05 0.58
9 -15 0 7.41 1.04
9 -15 1 2.93 0.41
9 -15 2 13.33 0.86
9 -15 3 2.09 0.38
9 -15 4 11.48 0.71
9 -15 4 16.42 0.92
9 -15 5 2.34 0.32
9 -15 5 3.34 0.4
9 -15 6 0.11 0.14
9 -14 -5 28.38 1.28
9 -14 -4 -0.15 0.37
9 -14 -4 0.57 0.31
9 -14 -3 11.6 0.77
9 -14 -3 15.45 1.51
-9 14 3 13.52 3.08
9 -14 -3 13.19 1.02
9 -14 -2 0.2 0.24
9 -14 -2 0.35 0.56
-9 14 2 0.78 1.46
9 -14 -2 -0.18 0.32
9 -14 -1 0.03 0.3
9 -14 -1 0.71 0.59
9 -14 0 36.8 1.77
9 -14 0 33.19 2.71
9 -14 0 31.08 1.97
9 -14 1 31.45 1.63
9 -14 1 27.36 2.48
9 -14 1 26.34 1.95
9 -14 2 0.11 0.27
9 -14 2 0.33 0.3
9 -14 2 -0.13 0.55
9 -14 2 0.04 0.51
9 -14 3 6.62 0.77
9 -14 3 4.09 0.6
9 -14 4 19.33 1.26
9 -14 4 21.01 1.32
9 -14 5 3.24 0.55
9 -14 5 3.37 0.54
9 -14 6 3.99 0.55
9 -14 6 4.29 0.54
9 -14 7 2.04 0.39
9 -14 7 1.58 0.33
9 -14 8 3.17 0.43
9 -14 8 2.95 0.36
9 -14 8 2.98 0.35
-9 13 7 5.37 1.74
9 -13 -7 2.52 0.41
-9 13 6 5.48 2.03
9 -13 -6 4.51 0.65
9 -13 -5 3.57 0.46
9 -13 -5 2.92 0.67
-9 13 5 5.77 2.44
9 -13 -5 4.7 0.73
9 -13 -4 3.59 0.54
9 -13 -4 4.68 0.98
-9 13 4 6.8 3.04
9 -13 -4 5.3 0.84
-9 13 3 4.47 2.37
9 -13 -3 3.3 0.58
9 -13 -3 4.41 1.05
9 -13 -3 4.31 0.82
-9 13 2 2.26 1.12
9 -13 -2 3.8 0.61
9 -13 -2 3.48 0.74
9 -13 -1 18.87 1.43
9 -13 -1 17.15 1.06
-9 13 1 21.29 4.9
9 -13 -1 17.73 2.19
9 -13 -1 15.46 1.52
9 -13 -1 18.48 1.6
9 -13 0 8.65 1.01
9 -13 0 6.66 0.69
9 -13 0 10.55 1.75
-9 13 0 8.09 2.63
9 -13 0 9.23 1.12
9 -13 0 6.6 1.11
9 -13 1 15.18 1.33
9 -13 1 12.58 1
9 -13 1 12.43 1.94
9 -13 1 13.52 1.63
9 -13 2 -0.12 0.27
9 -13 2 0.32 0.42
9 -13 2 -0.69 0.88
9 -13 3 28.2 1.78
9 -13 3 26.19 1.49
9 -13 3 22.59 2.25
9 -13 4 1.19 0.39
9 -13 4 2.23 0.56
9 -13 5 23.44 1.51
9 -13 5 21.17 1.28
9 -13 6 18.61 1.38
9 -13 6 20.92 1.34
9 -13 6 19.02 1.16
9 -13 7 106.62 3.33
9 -13 7 103.18 3.14
9 -13 7 99.11 2.86
9 -13 8 21.65 1.26
9 -13 8 22.75 1.15
9 -13 8 20.95 1.03
9 -13 9 11.27 0.85
9 -13 9 8.35 0.64
9 -12 -8 22.57 1.33
-9 12 8 18.12 3.9
9 -12 -7 1 0.27
-9 12 7 0.54 1.46
9 -12 -7 1.69 0.51
9 -12 -6 0.14 0.24
9 -12 -6 0.23 0.43
-9 12 6 0.91 2.37
9 -12 -6 0.49 0.47
9 -12 -5 35.2 1.77
9 -12 -5 29.25 1.4
9 -12 -5 35.21 2.49
-9 12 5 35.66 7.55
9 -12 -5 36.42 2.36
9 -12 -4 -0.27 0.26
9 -12 -4 -0.12 0.32
9 -12 -4 0.2 0.58
-9 12 4 -1.22 2
9 -12 -4 0.66 0.66
9 -12 -3 26.02 1.7
9 -12 -3 21.51 1.4
9 -12 -3 23.09 2.43
-9 12 3 19.62 5.53
9 -12 -3 23.71 2.04
-9 12 2 1.15 1.63
9 -12 -2 2.6 0.54
9 -12 -2 2.3 0.57
9 -12 -2 3.58 1.19
9 -12 -2 2.81 0.68
9 -12 -2 2.41 0.73
9 -12 -1 7.34 0.91
9 -12 -1 6.4 0.94
9 -12 -1 7.09 1.69
9 -12 -1 5.82 1.1
9 -12 -1 7.63 1.17
9 -12 0 38.56 2.89
9 -12 0 49.65 2.54
9 -12 0 43.55 2.26
9 -12 0 42.53 3.7
-9 12 0 41.19 8.02
9 -12 0 44.89 2.86
9 -12 1 11.4 1.24
9 -12 1 10.12 1.08
9 -12 1 8.83 1.89
9 -12 1 10.33 1.6
9 -12 1 10.28 1.31
-9 12 -1 10.32 0.49
-9 12 -1 10.27 3.79
9 -12 2 24.67 1.78
9 -12 2 21.07 1.62
9 -12 2 24.06 2.88
9 -12 2 19.98 2.24
-9 12 -2 20.54 0.74
9 -12 3 20.78 1.62
9 -12 3 20.33 1.54
9 -12 3 17.1 2.49
9 -12 3 18.23 2.2
-9 12 -3 19.92 0.73
9 -12 4 5.74 0.84
9 -12 4 5.48 0.84
9 -12 4 2.97 1.07
9 -12 5 5.57 0.81
9 -12 5 5.76 0.86
9 -12 6 1.76 0.51
9 -12 6 1.91 0.57
9 -12 7 1.02 0.5
9 -12 7 1.09 0.39
9 -12 7 1.87 0.48
9 -12 8 0.84 0.43
9 -12 8 0.5 0.32
9 -12 8 -0.15 0.28
9 -12 9 6.8 0.72
9 -12 9 6.5 0.59
9 -12 9 7.95 0.75
9 -12 10 8.88 0.76
9 -12 10 7.67 0.58
-9 11 9 10.72 3.16
9 -11 -9 12.13 0.99
9 -11 -8 5.19 0.53
9 -11 -8 4.82 0.47
-9 11 8 5.3 3.15
9 -11 -8 7.4 0.94
9 -11 -7 15.03 1.08
9 -11 -7 10.44 0.84
-9 11 7 17.45 5.41
9 -11 -7 16.03 1.56
9 -11 -6 0.65 0.33
9 -11 -6 1.05 0.43
9 -11 -6 0.56 0.57
9 -11 -6 0.26 0.59
9 -11 -5 0.68 0.42
9 -11 -5 -0.2 0.38
9 -11 -5 -0.48 0.53
-9 11 5 -0.94 2.36
9 -11 -5 0.7 0.55
9 -11 -4 0.66 0.4
9 -11 -4 0.04 0.41
9 -11 -4 0.71 0.73
-9 11 4 -0.9 3.51
9 -11 -4 -0.39 0.74
-9 11 3 0.78 2.94
9 -11 -3 2.17 0.6
9 -11 -3 2.09 0.66
9 -11 -3 2.21 0.87
9 -11 -3 2.77 0.91
9 -11 -2 7.16 1
9 -11 -2 7.55 1.11
9 -11 -2 8.27 1.74
-9 11 2 5.73 3.66
9 -11 -2 5.69 1.01
9 -11 -2 7.52 1.3
9 -11 -1 9.39 1.21
9 -11 -1 9 1.17
-9 11 1 10.77 5.58
9 -11 -1 7.24 1.64
9 -11 -1 6.65 1.26
9 -11 -1 9.41 1.52
-9 11 1 8.44 0.41
9 -11 0 12.66 1.4
9 -11 0 8.83 1.14
9 -11 0 9.28 1.89
9 -11 0 10.22 1.61
9 -11 0 9.49 1.46
-9 11 0 9.93 0.48
9 -11 1 9.99 1.25
9 -11 1 10.48 1.26
9 -11 1 10.32 2.03
9 -11 1 9.91 1.68
9 -11 1 10.77 1.52
-9 11 -1 9.62 0.5
-9 11 -1 15.17 5.44
-9 11 -2 47.12 8.38
9 -11 2 48.46 2.65
9 -11 2 45.97 2.64
9 -11 2 44.31 4.13
9 -11 2 39.07 3.38
9 -11 2 47.31 3.02
-9 11 -2 42.22 1.22
9 -11 3 1.2 0.57
9 -11 3 0.99 0.5
9 -11 3 0.77 0.97
9 -11 3 1.09 0.76
-9 11 -3 0.94 0.21
9 -11 4 62.31 2.9
9 -11 4 57.01 2.89
9 -11 4 51.98 3.85
-9 11 -4 55.08 1.46
9 -11 5 14.53 1.38
9 -11 5 14.14 1.38
-9 11 -5 14.68 0.63
9 -11 6 3.14 0.69
9 -11 6 2.06 0.57
-9 11 -6 2.39 0.28
9 -11 7 31.82 1.8
9 -11 7 33.52 2.01
9 -11 8 12.77 1.24
9 -11 8 16.5 1.25
9 -11 8 15.18 1.26
9 -11 9 1.45 0.45
9 -11 9 2.39 0.54
9 -11 9 2.08 0.4
9 -11 10 4.38 0.67
9 -11 10 3.45 0.49
9 -11 11 3.04 0.45
-9 10 10 6.95 2.59
9 -10 -10 10.99 0.9
9 -10 -9 0.54 0.28
9 -10 -9 0.52 0.26
-9 10 9 1.29 1.56
9 -10 -9 1.61 0.53
-9 10 9 2.77 1.79
9 -10 -8 0.45 0.27
9 -10 -8 0.01 0.27
-9 10 8 -0.59 1.65
9 -10 -8 0.32 0.46
9 -10 -7 22.63 1.59
9 -10 -7 25.67 1.66
-9 10 7 21.78 6.5
9 -10 -7 27.64 2.25
-9 10 7 26.85 6.33
9 -10 -6 14.05 1.36
9 -10 -6 14.79 1.38
9 -10 -6 16.61 1.72
-9 10 6 8.24 4.38
9 -10 -6 15.91 1.77
-9 10 6 18.44 5.86
9 -10 -5 -0.44 0.45
9 -10 -5 0.45 0.48
9 -10 -5 1.04 0.77
-9 10 5 -1.08 3.26
9 -10 -5 0.1 0.7
-9 10 5 -0.07 2.86
9 -10 -4 -0.06 0.44
9 -10 -4 0.04 0.43
9 -10 -4 0.6 0.72
-9 10 4 -1.83 4.13
9 -10 -4 -0.56 0.79
-9 10 4 -2.27 2.7
9 -10 -3 27.18 2.08
9 -10 -3 29.85 2.16
9 -10 -3 30.54 3.06
-9 10 3 27.05 8.09
9 -10 -3 27.7 2.55
-9 10 3 25.24 7.79
9 -10 -2 73.14 3.78
9 -10 -2 75.63 3.63
9 -10 -2 80.82 3.64
9 -10 -2 75.21 5
-9 10 2 70.91 12.89
9 -10 -2 70.25 4.21
-9 10 2 81.49 13
9 -10 -1 156.45 5.52
9 -10 -1 171.96 5.62
9 -10 -1 158.25 7.79
-9 10 1 151.36 18.54
9 -10 -1 145.46 6.15
9 -10 -1 162.76 6.52
-9 10 1 151.39 3.03
-9 10 1 155.57 17.83
9 -10 0 72.63 3.43
9 -10 0 67.14 3.4
9 -10 0 67.54 5.07
9 -10 0 56.42 3.92
-9 10 0 57.02 11.2
9 -10 0 65.34 3.97
-9 10 0 67.52 1.62
-9 10 0 62.61 11.33
-9 10 -1 77.2 12.63
9 -10 1 86.85 3.8
9 -10 1 78.55 3.7
9 -10 1 77.17 5.51
9 -10 1 73.51 4.62
9 -10 1 80.75 4.32
-9 10 -1 78 1.86
-9 10 -1 88.38 13.35
9 -10 2 50.44 2.8
9 -10 2 50.73 2.91
-9 10 -2 40.39 8.42
9 -10 2 47.86 4.42
9 -10 2 49.43 3.84
9 -10 2 51.2 3.37
-9 10 -2 47.64 1.36
-9 10 -2 46.45 9.94
-9 10 -3 -1.93 1.85
9 -10 3 1.14 0.63
9 -10 3 0.17 0.51
9 -10 3 -0.51 0.9
9 -10 3 1.22 0.82
-9 10 -3 0.37 0.18
-9 10 -3 1.96 2.78
9 -10 4 7.88 1.13
9 -10 4 6.62 0.98
9 -10 4 5.88 1.46
-9 10 -4 6.21 0.44
-9 10 -4 7.55 3.73
9 -10 5 10.83 1.18
9 -10 5 11.63 1.33
-9 10 -5 9.52 0.55
9 -10 6 5.41 0.93
9 -10 6 5.48 0.84
-9 10 -6 4.83 0.37
9 -10 7 1.55 0.5
-9 10 -7 1.74 0.24
9 -10 8 5.45 0.86
9 -10 8 5.31 0.73
-9 10 -8 5.81 2.77
9 -10 9 4.2 0.69
9 -10 9 3.24 0.63
9 -10 9 4.42 0.55
-9 10 -9 3.32 1.88
9 -10 10 6.14 0.67
9 -10 10 7.33 0.86
9 -10 10 7.04 0.83
-9 10 -10 6.25 2.27
9 -10 11 6.68 0.71
9 -10 11 5.45 0.61
9 -10 12 59.51 1.83
-9 10 -12 51.38 5.46
-9 9 11 10.64 2.67
9 -9 -11 7.01 0.55
9 -9 -11 13.67 0.84
-9 9 11 14.2 3.24
9 -9 -10 1.04 0.33
9 -9 -10 1.66 0.37
-9 9 10 0.57 1.19
9 -9 -10 1.33 0.45
-9 9 10 1.15 2.32
9 -9 -9 1.66 0.48
9 -9 -9 1.72 0.47
-9 9 9 2.6 2.55
9 -9 -9 1.94 0.67
-9 9 9 3.45 1.77
9 -9 -8 0.99 0.46
9 -9 -8 0.94 0.44
-9 9 8 1.86 0.93
-9 9 8 2.33 2.69
9 -9 -8 1.35 0.64
-9 9 8 -0.41 2.1
9 -9 -7 18.11 1.61
9 -9 -7 19.74 1.63
-9 9 7 21.6 2.29
-9 9 7 20.62 7.29
9 -9 -7 18.58 1.99
-9 9 7 22.73 7.35
9 -9 -6 0.45 0.43
9 -9 -6 0.04 0.41
-9 9 6 2.07 2.59
9 -9 -6 0.58 0.59
-9 9 6 -2.66 4.89
9 -9 -5 4 0.89
9 -9 -5 3.95 0.91
9 -9 -5 4.31 1.16
-9 9 5 3.14 3.86
9 -9 -5 3.45 1.01
-9 9 5 3.34 3.15
9 -9 -4 47.73 2.92
9 -9 -4 53.3 2.95
9 -9 -4 49.81 3.77
-9 9 4 46.72 11.36
9 -9 -4 49.96 3.55
-9 9 4 56.25 12.13
9 -9 -3 136.33 5.22
9 -9 -3 141.37 5.18
9 -9 -3 133.9 6.68
-9 9 3 125.61 18.04
9 -9 -3 137.17 6.08
-9 9 3 143.06 19.15
9 -9 -2 49.64 3.02
9 -9 -2 53.06 2.98
9 -9 -2 51.85 4.16
9 -9 -2 47.48 3.1
-9 9 2 47.49 10.77
9 -9 -2 52.95 3.65
-9 9 2 57.65 11.79
9 -9 -1 -0.6 0.51
9 -9 -1 -0.14 0.48
9 -9 -1 0.21 0.89
-9 9 1 4.87 5.14
9 -9 -1 0.15 0.58
9 -9 -1 0.65 0.75
-9 9 1 0.15 0.14
-9 9 1 5.28 4.71
9 -9 0 96.23 4.26
9 -9 0 94.62 4.1
9 -9 0 94.77 6.06
-9 9 0 98.41 15.57
9 -9 0 79.31 4.71
9 -9 0 94.77 4.88
-9 9 0 90.57 2.06
-9 9 0 87.34 14.29
9 -9 1 57.35 3.13
9 -9 1 62.33 3.36
-9 9 -1 61.79 12.14
9 -9 1 56.75 4.76
9 -9 1 52.01 3.92
9 -9 1 60.2 3.81
-9 9 -1 61.13 1.57
-9 9 -1 55.9 10.8
9 -9 2 8.82 1.23
9 -9 2 8.2 1.23
9 -9 2 8.72 2.08
-9 9 -2 9.55 5.19
9 -9 2 7.94 1.55
9 -9 2 9.98 1.58
-9 9 -2 7.82 0.51
-9 9 -2 6.38 4.58
9 -9 3 9.11 1.19
9 -9 3 9.86 1.35
9 -9 3 8.58 2
-9 9 -3 9.7 4.5
9 -9 3 8.58 1.64
-9 9 -3 8.86 0.53
-9 9 -3 15.97 6.89
9 -9 4 11.65 1.28
9 -9 4 13.61 1.52
-9 9 -4 8.54 3.54
9 -9 4 8.72 1.72
-9 9 -4 11.73 0.62
-9 9 -4 15.49 5.77
9 -9 5 9.31 1.28
9 -9 5 9.02 1.05
-9 9 -5 7.92 0.52
9 -9 6 0.73 0.61
9 -9 6 -0.26 0.4
-9 9 -6 0.17 0.19
9 -9 7 5.76 0.95
9 -9 7 5.34 0.76
-9 9 -7 5 0.4
9 -9 8 0 0.43
9 -9 8 -0.41 0.34
-9 9 -8 0.72 0.2
-9 9 -8 0.88 1.99
9 -9 9 21.58 1.49
9 -9 9 21.93 1.21
9 -9 9 23.33 1.73
9 -9 10 2.3 0.63
9 -9 10 1.8 0.41
9 -9 10 2.18 0.58
9 -9 11 14.83 1.11
9 -9 11 14.84 1.17
-9 9 -11 18.77 3.96
9 -9 12 25.11 1.19
9 -9 12 24.45 1.26
9 -8 -12 2.12 0.34
-9 8 12 4.98 2.34
9 -8 -11 7.96 0.8
9 -8 -11 8.49 0.73
-9 8 11 9.9 2.93
9 -8 -11 12.76 0.98
9 -8 -10 -0.46 0.42
9 -8 -10 -0.03 0.27
-9 8 10 0.53 0.57
9 -8 -10 0.91 0.48
9 -8 -9 82.25 3.58
9 -8 -9 92.97 3.51
-9 8 9 85.87 4.44
-9 8 9 80.14 12.03
9 -8 -9 101.78 4.2
9 -8 -8 1.77 0.62
9 -8 -8 2.24 0.64
-9 8 8 1.01 0.76
-9 8 8 2.06 2.02
9 -8 -8 2.96 0.88
9 -8 -7 -0.33 0.49
9 -8 -7 -0.2 0.44
-9 8 7 -0.36 0.78
9 -8 -7 0.74 0.64
9 -8 -6 30.51 2.37
9 -8 -6 30.12 2.25
-9 8 6 29.23 2.84
-9 8 6 31.93 9.18
9 -8 -6 31.81 2.74
9 -8 -5 75.3 3.87
9 -8 -5 84.24 3.85
9 -8 -5 81.38 4.42
-9 8 5 88.23 15.22
9 -8 -5 78.92 4.5
-9 8 5 78.03 14.72
9 -8 -4 21.99 2.05
9 -8 -4 24.14 2.01
9 -8 -4 24.9 2.54
-9 8 4 17.17 6.4
9 -8 -4 33.25 2.82
-9 8 4 16.62 7.15
9 -8 -3 186.46 6.53
9 -8 -3 205.59 6.48
9 -8 -3 191.04 8.01
-9 8 3 179.35 21.77
9 -8 -3 195.61 7.5
-9 8 3 198.67 23.31
9 -8 -2 76.81 3.88
9 -8 -2 79.03 3.74
9 -8 -2 78.1 5.14
-9 8 2 69.47 13.46
9 -8 -2 81.53 4.56
-9 8 2 78.43 14.71
9 -8 -1 5.85 1.1
9 -8 -1 6.53 1.09
9 -8 -1 5.49 1.53
-9 8 1 8.62 5.68
9 -8 -1 6.19 1.27
9 -8 -1 6.11 1.32
-9 8 1 2.1 3.28
9 -8 0 23.56 2.09
9 -8 0 21.6 1.85
9 -8 0 20.03 2.78
9 -8 0 19.81 2.27
-9 8 0 20.9 7.24
9 -8 0 23.07 2.39
-9 8 0 22.86 0.81
-9 8 0 24.41 8.32
9 -8 1 20.49 1.9
9 -8 1 22.25 1.87
9 -8 1 18.5 2.76
9 -8 1 18.06 2.36
-9 8 -1 21.46 7.26
9 -8 1 19.94 2.19
-9 8 -1 20.24 0.8
-9 8 -1 17.49 7.09
9 -8 2 30.08 2.15
9 -8 2 33.08 2.48
9 -8 2 28.44 3.37
9 -8 2 30.47 3.05
-9 8 -2 27.54 8.24
9 -8 2 31.97 2.76
-9 8 -2 30.74 1.04
-9 8 -2 33.16 10.01
9 -8 3 24.41 1.87
9 -8 3 22.09 1.99
9 -8 3 24.45 3.27
9 -8 3 22.32 2.75
-9 8 -3 20.66 0.86
-9 8 -3 24.67 9.06
-9 8 -3 17.13 5.74
9 -8 4 60.25 2.83
9 -8 4 56.02 3.16
-9 8 -4 48.08 9.4
-9 8 -4 52.51 1.53
-9 8 -4 51.91 11.74
9 -8 5 3.92 0.92
9 -8 5 1.8 0.54
-9 8 -5 2.01 0.29
-9 8 -5 2.61 2.97
9 -8 6 0.06 0.52
9 -8 6 0.81 0.47
-9 8 -6 0.66 0.21
9 -8 7 18.12 1.34
9 -8 7 20.14 1.78
-9 8 -7 19.13 0.79
9 -8 8 7.46 1.09
-9 8 -8 6 0.41
9 -8 9 7.89 1.11
-9 8 -9 8.8 0.47
-9 8 -9 7.84 3.6
9 -8 10 29.17 1.84
9 -8 10 22.57 1.26
9 -8 10 25.28 1.75
-9 8 -10 28.72 6.52
9 -8 11 9.46 0.92
9 -8 11 10.23 1.09
-9 8 -11 7.64 2.98
9 -8 12 72.8 2.32
9 -8 12 75.42 2.7
9 -8 13 0.16 0.2
-9 7 13 36.73 5.28
9 -7 -12 36.29 1.7
9 -7 -12 33.29 1.43
9 -7 -11 3.5 0.67
9 -7 -11 3.63 0.61
-9 7 11 3.37 0.81
-9 7 11 6.07 2.25
9 -7 -11 6.08 0.74
9 -7 -10 9.19 1.15
9 -7 -10 10.47 1.13
-9 7 10 8.76 1.4
9 -7 -10 11.61 1.22
9 -7 -9 4.88 0.91
9 -7 -9 3.77 0.82
-9 7 9 3.48 1.05
-9 7 9 6.29 3.48
9 -7 -9 6.4 1.14
9 -7 -8 2.39 0.77
9 -7 -8 3.54 0.84
-9 7 8 2.47 0.99
-9 7 8 3.01 2.95
9 -7 -8 3.03 0.88
9 -7 -7 16.01 1.81
9 -7 -7 19.14 1.81
-9 7 7 18.57 2.27
-9 7 7 16.92 7.03
9 -7 -7 16.03 1.94
9 -7 -6 44.75 2.97
9 -7 -6 43.94 2.77
-9 7 6 42.1 3.45
9 -7 -6 47.42 3.34
9 -7 -5 4.98 1.11
9 -7 -5 5.68 1.05
-9 7 5 5.73 1.4
-9 7 5 1.44 2.47
9 -7 -5 5.4 1.26
9 -7 -4 50.1 3.17
9 -7 -4 53.23 3.04
9 -7 -4 52 3.61
-9 7 4 41.56 10.81
9 -7 -4 53.32 3.6
9 -7 -3 5.6 1.18
9 -7 -3 6.41 1.05
9 -7 -3 7.62 1.58
-9 7 3 4.38 4.4
9 -7 -3 6.85 1.37
-9 7 3 10.1 6.47
-9 7 2 15.12 1.5
9 -7 -2 13.6 1.66
9 -7 -2 14.1 1.54
9 -7 -2 16.72 2.31
-9 7 2 15.15 6.86
9 -7 -2 13.41 1.94
-9 7 2 19.92 8.16
9 -7 -1 1.22 0.68
-9 7 1 2.51 3.68
9 -7 -1 1.21 0.52
9 -7 -1 1.78 0.95
9 -7 -1 1.42 0.63
9 -7 -1 1.97 0.88
-9 7 1 -1.09 2.35
9 -7 0 67.72 3.59
9 -7 0 67.14 3.27
-9 7 0 64.23 12.59
9 -7 0 66.1 4.89
9 -7 0 60.27 3.97
9 -7 0 73.67 4.25
-9 7 0 64.69 1.58
-9 7 0 73.87 14.08
9 -7 1 35.38 2.54
9 -7 1 36.75 2.32
-9 7 -1 40.73 9.95
9 -7 1 35.35 3.65
9 -7 1 33.42 3.11
9 -7 1 38.5 3.05
-9 7 -1 36.33 1.1
-9 7 -1 44.38 11.2
9 -7 2 0.06 0.47
9 -7 2 0.38 0.45
9 -7 2 0.54 1.1
-9 7 -2 0.59 2.18
9 -7 2 -0.3 0.76
9 -7 2 0.24 0.6
-9 7 -2 0.27 0.19
-9 7 -2 0.13 3.72
9 -7 3 0.08 0.4
9 -7 3 0.09 0.35
-9 7 -3 -0.25 0.2
-9 7 -3 1.45 1.94
9 -7 4 2.37 0.78
9 -7 4 1.51 0.52
-9 7 -4 -1.4 3.36
-9 7 -4 2.04 0.32
-9 7 -4 0.99 2.36
9 -7 5 25.66 1.68
9 -7 5 27.51 2.16
-9 7 -5 25.22 0.97
-9 7 -5 20.59 7.83
9 -7 6 48.91 2.23
-9 7 -6 45.55 1.4
9 -7 7 8.92 1.21
-9 7 -7 8.34 0.53
9 -7 8 17.43 1.61
-9 7 -8 18.13 0.75
9 -7 9 1.2 0.57
-9 7 -9 1.2 0.22
-9 7 -9 0.02 2.75
9 -7 10 0.13 0.36
9 -7 10 -0.18 0.43
-9 7 -10 1.07 1.84
9 -7 11 3.41 0.58
9 -7 11 2.39 0.62
-9 7 -11 3.3 2.55
9 -7 12 10.16 0.79
9 -7 12 9.72 0.97
9 -7 13 3.91 0.52
-9 7 -13 1.73 1.35
9 -6 -13 55.94 2.04
9 -6 -13 46.2 1.62
9 -6 -12 46.63 2.25
9 -6 -12 46.01 2.03
-9 6 12 44.29 2.39
9 -6 -11 34.09 2.16
9 -6 -11 36.02 2.04
-9 6 11 31.19 2.36
-9 6 11 33.98 6.22
9 -6 -10 86.02 3.88
9 -6 -10 94.29 3.76
-9 6 10 76.04 4.18
-9 6 10 83.52 11.85
9 -6 -10 99.41 3.78
9 -6 -9 12.69 1.54
9 -6 -9 11.51 1.39
-9 6 9 11.66 1.73
-9 6 9 10.42 4.99
9 -6 -9 14.19 1.55
9 -6 -8 24.79 2.24
9 -6 -8 30.26 2.29
-9 6 8 27.26 2.71
-9 6 8 32.63 8.92
9 -6 -8 31.65 2.5
9 -6 -7 13.79 1.69
9 -6 -7 12.5 1.53
-9 6 7 10.97 1.81
-9 6 7 12.92 6.12
9 -6 -7 13.59 1.74
9 -6 -6 1.25 0.67
9 -6 -6 2.29 0.69
-9 6 6 3.03 1.09
-9 6 6 2.88 3.02
9 -6 -6 2.41 0.97
-9 6 6 2.38 0.74
9 -6 -5 0.73 0.52
9 -6 -5 2.12 0.77
-9 6 5 0.51 0.71
-9 6 5 2.35 3.87
9 -6 -5 1.66 0.89
-9 6 5 3.53 0.99
9 -6 -4 69.12 3.73
9 -6 -4 69.91 3.51
-9 6 4 67.73 13.25
9 -6 -4 79.79 4.4
-9 6 3 13.79 1.34
9 -6 -3 12.49 1.62
9 -6 -3 15.37 1.58
9 -6 -3 11.76 1.76
-9 6 3 14.88 7.33
9 -6 -3 14.47 1.86
-9 6 3 15.62 6.51
-9 6 2 24.64 1.94
9 -6 -2 23.83 2.12
9 -6 -2 27.14 2.04
9 -6 -2 29.46 2.89
9 -6 -2 26.43 2.47
-9 6 2 29.17 9.57
9 -6 -1 1.76 0.78
9 -6 -1 -0.18 0.67
9 -6 -1 1.57 0.63
9 -6 -1 3.13 1.32
-9 6 1 4.15 4.91
9 -6 -1 1.34 0.9
-9 6 1 3.26 4.87
9 -6 0 -2.77 1.11
9 -6 0 -0.18 0.42
9 -6 0 -0.97 0.53
9 -6 0 1.05 0.87
-9 6 0 -0.66 1.99
9 -6 0 0.3 0.62
-9 6 0 -0.22 0.16
9 -6 0 -1.32 1.21
-9 6 0 2.62 4.65
9 -6 1 174.81 8.33
9 -6 1 172.61 6.02
9 -6 1 169.65 5.26
9 -6 1 169.27 8.04
-9 6 -1 175.48 20.45
9 -6 1 161.36 8.03
9 -6 1 180.42 6.85
-9 6 -1 171.25 3.42
-9 6 -1 180 23.09
9 -6 2 97.31 4.25
9 -6 2 94.78 3.58
9 -6 2 93.22 6.03
-9 6 -2 89.2 14.46
9 -6 2 100.12 4.92
-9 6 -2 95.6 2.21
-9 6 -2 92.95 16.01
-9 6 -3 131.2 16.99
9 -6 3 145.3 4.51
9 -6 3 153.39 5.41
-9 6 -3 136.93 3.01
-9 6 -3 141.87 20.04
9 -6 4 48.7 2.3
9 -6 4 51.01 2.96
-9 6 -4 47.51 10.29
-9 6 -4 43.81 1.36
-9 6 -4 47.35 11.76
9 -6 5 60.35 3.23
9 -6 5 53.34 2.67
-9 6 -5 54.75 1.56
-9 6 -5 52.13 12.59
9 -6 6 312.71 8.6
9 -6 6 297.84 7.77
-9 6 -6 316.16 5.92
9 -6 7 12.55 1.45
9 -6 7 12.72 1.24
-9 6 -7 13.66 0.69
9 -6 8 16.27 1.6
9 -6 8 17.34 1.4
-9 6 -8 17.2 0.75
-9 6 -8 14.99 6.98
9 -6 9 23.87 1.86
9 -6 9 22.51 1.5
-9 6 -9 24.46 0.87
-9 6 -9 20.97 7.42
9 -6 10 -0.11 0.37
9 -6 10 0.74 0.31
-9 6 -10 0.03 0.15
9 -6 11 4.07 0.6
9 -6 11 4.05 0.9
-9 6 -11 1.44 1.57
-9 6 -11 3.58 2.82
9 -6 12 1.22 0.51
-9 6 -12 0.71 1.74
9 -6 13 1.89 0.46
-9 6 -13 0.69 1.26
9 -5 -14 1.02 0.28
9 -5 -13 5.21 0.74
9 -5 -13 4.99 0.61
9 -5 -12 1.04 0.48
9 -5 -12 0.53 0.35
-9 5 12 0.61 0.44
9 -5 -11 8.32 1.09
9 -5 -11 6.86 1.04
-9 5 11 7.54 1.21
-9 5 11 11.6 4.02
9 -5 -10 18.67 1.83
9 -5 -10 20.17 1.82
-9 5 10 17.92 1.93
-9 5 10 18.36 5.72
9 -5 -10 22.56 1.68
9 -5 -9 31.07 2.46
9 -5 -9 32.81 2.44
-9 5 9 27.25 2.58
9 -5 -9 36.02 2.41
9 -5 -8 190.48 6.81
9 -5 -8 203.6 6.58
-9 5 8 198.04 21.26
9 -5 -8 205.95 6.85
-9 5 8 223.43 6.35
9 -5 -7 1.74 0.71
9 -5 -7 1.82 0.72
-9 5 7 1.19 0.78
-9 5 7 2.36 3.37
9 -5 -7 2.36 0.74
-9 5 7 2.39 0.77
9 -5 -6 7.4 1.26
9 -5 -6 8.31 1.28
-9 5 6 6.95 1.45
-9 5 6 8.16 4.99
9 -5 -6 8.59 1.36
-9 5 6 9.27 1.32
9 -5 -5 94.02 4.47
9 -5 -5 97.18 4.22
-9 5 5 88.41 4.87
-9 5 5 92.44 15.56
9 -5 -5 105.36 4.92
-9 5 5 109.12 4.63
-9 5 4 2.37 0.7
9 -5 -4 2.21 0.8
9 -5 -4 0.78 0.53
-9 5 4 0.2 2.61
9 -5 -4 0.87 0.73
-9 5 4 1.71 0.76
-9 5 3 2.25 0.72
9 -5 -3 2.52 0.87
9 -5 -3 1.85 0.82
9 -5 -3 2.74 0.72
-9 5 3 1.82 3.85
9 -5 -3 1.9 0.76
-9 5 3 2.06 0.9
-9 5 3 1.88 3.72
-9 5 2 0.59 3.76
-9 5 2 3.2 0.88
9 -5 -2 3.04 1.16
9 -5 -2 4.6 0.99
9 -5 -2 3.13 0.74
9 -5 -2 3.56 1.34
9 -5 -2 2.56 0.82
-9 5 2 2.48 5.34
9 -5 -1 119.29 6.24
9 -5 -1 130.65 4.99
9 -5 -1 125.13 4.41
9 -5 -1 124.14 6.22
-9 5 1 114.19 16.9
9 -5 -1 112.94 6.43
9 -5 -1 127.56 5.57
-9 5 1 124.69 19.19
9 -5 0 10.89 1.37
9 -5 0 10 1.11
9 -5 0 11.19 1.89
-9 5 0 7.75 4.14
9 -5 0 11.3 1.62
9 -5 0 12.96 2.19
-9 5 0 10.22 5.47
9 -5 1 22.29 1.94
9 -5 1 21.37 1.59
9 -5 1 21.72 2.76
9 -5 1 22.62 2.24
-9 5 -1 20.92 0.76
9 -5 1 21.6 2.86
-9 5 -1 17.22 6.19
-9 5 -1 14.89 7.11
9 -5 2 5.56 1.02
9 -5 2 7.1 0.92
9 -5 2 7.21 1.7
-9 5 -2 7.29 4.6
-9 5 -2 7.45 0.47
-9 5 -2 8.95 5.96
-9 5 -3 3.51 3.08
9 -5 3 9.17 1.24
9 -5 3 6.42 1.64
-9 5 -3 9.96 0.56
-9 5 -3 2.91 3.97
-9 5 -4 24.79 7.59
9 -5 4 35.3 2.36
-9 5 -4 30.74 1.07
-9 5 -4 31.73 11.02
9 -5 5 10.25 1.3
9 -5 5 9.23 1.3
-9 5 -5 10.16 0.59
-9 5 -5 15.05 6.81
9 -5 6 29.23 2.16
9 -5 6 27.46 2.02
-9 5 -6 28.38 1.03
9 -5 7 1.77 0.71
9 -5 7 1.66 0.62
-9 5 -7 0.84 0.23
9 -5 8 27.77 2.01
9 -5 8 27.65 1.96
-9 5 -8 27.44 0.98
-9 5 -8 23.05 8.19
9 -5 9 5.98 0.79
9 -5 9 5.7 0.91
9 -5 9 4.18 0.79
-9 5 -9 5.15 0.39
-9 5 -9 5.06 4.22
9 -5 10 8.19 1.04
9 -5 10 9.4 1.04
-9 5 -10 9.15 0.48
-9 5 -10 10.54 4.7
9 -5 11 -0.23 0.44
9 -5 11 0.52 0.39
-9 5 -11 -0.85 1.77
-9 5 -11 0.67 2.42
9 -5 12 6.27 0.88
9 -5 12 5.43 0.61
-9 5 -12 5.36 2.19
-9 5 -12 5.94 0.72
9 -5 13 2.6 0.52
-9 5 -13 1.36 1.05
9 -5 14 3.85 0.45
9 -4 -14 17.79 1.15
9 -4 -14 15.68 0.93
9 -4 -13 -0.51 0.41
9 -4 -13 0.59 0.41
-9 4 13 -0.05 0.23
9 -4 -12 4.07 0.82
-9 4 12 4.36 0.77
-9 4 12 5.75 0.69
9 -4 -11 0.03 0.47
-9 4 11 -0.13 0.54
-9 4 11 0.01 0.35
9 -4 -10 14.61 1.56
-9 4 10 11.96 1.57
-9 4 10 16.29 1.47
9 -4 -9 41.55 2.71
-9 4 9 31.98 2.72
-9 4 9 36.72 8.73
-9 4 9 43.12 2.6
9 -4 -8 10.45 1.38
-9 4 8 8.51 1.48
9 -4 -8 11.84 1.43
-9 4 8 10.33 1.39
9 -4 -7 2.96 0.79
-9 4 7 2.66 0.97
9 -4 -7 4.18 0.98
-9 4 7 3.5 1
9 -4 -6 10.81 1.48
9 -4 -6 12.25 1.48
-9 4 6 11.09 1.64
-9 4 6 10.5 5.39
9 -4 -6 12.9 1.6
-9 4 6 12.52 1.62
-9 4 5 6.98 1.02
9 -4 -5 4.68 0.97
-9 4 5 6.4 2.97
9 -4 -5 5.14 0.97
-9 4 5 4.95 1.19
9 -4 -5 6.48 1.18
-9 4 5 7.75 1.25
-9 4 4 1.92 0.62
9 -4 -4 2.41 0.81
9 -4 -4 1.06 0.53
9 -4 -4 3.2 0.77
-9 4 4 2.69 0.9
-9 4 3 0.27 0.53
9 -4 -3 0.61 0.65
9 -4 -3 0.11 0.47
9 -4 -3 0.85 0.45
-9 4 3 -2.46 4.58
9 -4 -3 -0.29 0.53
-9 4 3 0.2 0.62
-9 4 2 0.8 2.28
-9 4 2 0.47 0.66
9 -4 -2 0.11 0.41
9 -4 -2 -0.52 0.42
9 -4 -2 1.08 0.79
-9 4 2 0.19 0.67
-9 4 2 -2.98 5.42
9 -4 -1 77.81 3.63
9 -4 -1 79.95 3.25
9 -4 -1 77.43 4.56
-9 4 1 77.79 13.28
9 -4 -1 80.81 4.18
9 -4 -1 74.1 4.96
-9 4 1 82.3 15
9 -4 0 57.2 3.03
9 -4 0 58.87 2.64
-9 4 0 52.53 11.13
9 -4 0 60.62 3.58
9 -4 0 53.93 4.38
-9 4 0 53.57 12.47
-9 4 -1 27 7.94
9 -4 1 25.49 1.95
9 -4 1 27.41 1.65
9 -4 1 28.76 2.45
9 -4 1 23.41 2.94
-9 4 -1 27.2 0.85
-9 4 -1 25.32 8.27
9 -4 2 191.88 5.87
-9 4 -2 158.91 19.25
9 -4 2 189.69 8.86
-9 4 -2 180.23 3.58
-9 4 -2 188.03 22.64
-9 4 -3 30.42 8.46
9 -4 3 36.09 2.31
9 -4 3 35.52 3.74
-9 4 -3 35.27 1.1
-9 4 -3 20.76 7.79
9 -4 4 101.7 4.12
-9 4 -4 105.26 2.39
-9 4 -4 93.85 16.77
9 -4 5 212.37 6.43
9 -4 5 197.99 6.52
-9 4 -5 214.71 4.24
-9 4 -5 200.46 24.92
9 -4 6 79.9 3.59
9 -4 6 75.83 3.66
-9 4 -6 80.14 1.99
9 -4 7 13.46 1.42
9 -4 7 13.54 1.53
-9 4 -7 13.94 0.69
9 -4 8 54.14 2.85
9 -4 8 56.32 3.05
-9 4 -8 54.71 1.53
-9 4 -8 45.16 11.03
9 -4 9 19.68 1.61
9 -4 9 18.4 1.66
-9 4 -9 18.37 0.76
-9 4 -9 19.28 7.11
9 -4 10 6.25 0.9
9 -4 10 5.99 0.94
-9 4 -10 6.85 3.66
-9 4 -10 6.14 0.4
-9 4 -10 5.18 5.44
9 -4 11 0.29 0.47
9 -4 11 0.35 0.42
-9 4 -11 0.71 1.25
-9 4 -11 -1.98 2.55
9 -4 12 7.83 0.98
9 -4 12 7.33 0.79
-9 4 -12 4.69 2.17
-9 4 -12 7.55 0.87
9 -4 13 34.03 1.74
9 -4 13 30.46 1.33
-9 4 -13 31.85 4.5
9 -4 14 0.72 0.25
9 -3 -15 20.39 0.99
9 -3 -14 7.06 0.81
-9 3 14 9.31 0.71
9 -3 -13 0.13 0.35
-9 3 13 0.98 0.38
9 -3 -12 11.11 1.3
-9 3 12 12.24 1.11
-9 3 12 13.44 1.16
9 -3 -11 20.43 1.89
-9 3 11 21.29 1.57
-9 3 11 17.84 1.64
9 -3 -10 4.55 0.97
-9 3 10 3.22 0.86
-9 3 10 3.2 0.71
-9 3 10 3.51 0.83
9 -3 -9 7.02 1.23
-9 3 9 7.68 1.24
-9 3 9 8.84 1.06
-9 3 9 10.53 1.42
9 -3 -8 0.5 0.6
-9 3 8 0.84 0.56
-9 3 8 -0.1 0.64
9 -3 -7 25.2 2.11
-9 3 7 22.11 2.17
-9 3 7 21.38 7.17
9 -3 -7 30.49 2.24
-9 3 7 29.63 2.48
-9 3 6 98.72 3.71
9 -3 -6 87.97 4.01
-9 3 6 81.26 4.18
-9 3 6 73.97 12.69
9 -3 -6 98.64 4.31
-9 3 6 100.38 4.62
-9 3 5 7.57 1.06
9 -3 -5 7.8 1.25
9 -3 -5 7.83 1.15
-9 3 5 6.48 1.66
-9 3 5 3.12 2.75
9 -3 -5 9.02 1.33
-9 3 5 7.33 1.28
-9 3 4 95.72 3.94
9 -3 -4 84.49 3.97
9 -3 -4 91.15 3.76
-9 3 4 86.39 5.33
-9 3 4 84.67 13.84
9 -3 -4 97.01 4.38
-9 3 4 104.21 4.69
-9 3 3 13.19 1.48
9 -3 -3 12.45 1.39
9 -3 -3 13.31 1.34
-9 3 3 10.27 5.52
9 -3 -3 14.4 1.6
-9 3 3 14.93 1.8
-9 3 2 28.13 2.13
9 -3 -2 26.57 2.01
9 -3 -2 26.59 1.81
-9 3 2 28.87 8.52
9 -3 -2 28.23 2.29
9 -3 -2 25.27 2.75
-9 3 2 28.85 2.36
-9 3 2 21.55 6.89
-9 3 1 83.26 3.82
9 -3 -1 85.59 3.68
9 -3 -1 85.93 3.2
-9 3 1 78.58 13.58
9 -3 -1 74.71 5.09
9 -3 -1 88.88 4.24
-9 3 1 95.19 4.41
-9 3 1 88.76 15.75
9 -3 0 6.67 1.01
9 -3 0 6.83 2.16
9 -3 0 7.52 1.31
-9 3 0 3.4 3.77
-9 3 0 1.92 3.96
-9 3 -1 36.56 9.41
9 -3 1 40.24 2.39
9 -3 1 38.09 3.87
-9 3 -1 44.67 1.14
-9 3 -1 40.98 10.57
9 -3 2 1.82 0.6
9 -3 2 1.34 0.86
-9 3 -2 1.15 2.98
-9 3 -2 1.61 0.23
-9 3 -2 2.15 3.77
9 -3 3 65.99 3.04
-9 3 -3 70.06 13.22
9 -3 3 61.5 5.09
-9 3 -3 67.96 1.67
-9 3 -3 60.31 12.76
9 -3 4 78.21 3.33
-9 3 -4 78.43 1.9
9 -3 5 75.98 3.3
-9 3 -5 77.78 1.92
9 -3 5 69.85 3.6
-9 3 -5 77.04 15.2
9 -3 6 57.84 2.86
9 -3 6 53.08 3.13
-9 3 -6 56.13 1.55
9 -3 7 61.23 2.94
9 -3 7 59.43 3.26
-9 3 -7 60.06 1.63
9 -3 8 98.49 3.74
9 -3 8 97.93 4.23
-9 3 -8 91.39 2.2
-9 3 -8 85.76 15.09
9 -3 9 -0.04 0.36
9 -3 9 -0.09 0.43
-9 3 -9 0.52 0.25
-9 3 -9 1.06 3.32
9 -3 10 31.01 1.81
9 -3 10 34.36 2.33
9 -3 10 32.34 2.18
-9 3 -10 28.43 6.11
-9 3 -10 31.6 0.98
-9 3 -10 38.04 9.55
9 -3 11 16.28 1.49
9 -3 11 13.43 1.29
-9 3 -11 8.38 2.65
-9 3 -11 13.57 5.25
9 -3 12 0.9 0.51
9 -3 12 0.45 0.36
-9 3 -12 -0.02 0.41
9 -3 13 14.54 1.13
9 -3 13 14.12 0.97
-9 3 -13 14.97 0.99
9 -3 14 2.72 0.37
9 -2 -15 23.24 1.15
9 -2 -15 18.77 0.97
9 -2 -14 3.22 0.58
9 -2 -14 3.84 0.6
9 -2 -13 0.06 0.36
-9 2 13 0.09 0.31
-9 2 13 0.33 0.33
9 -2 -12 4.01 0.82
-9 2 12 7.26 0.98
-9 2 12 5.84 0.92
-9 2 11 -0.3 0.46
-9 2 11 -0.37 0.57
-9 2 10 0.56 0.38
-9 2 10 -0.3 0.63
-9 2 9 27.56 1.93
-9 2 9 29.68 2.42
-9 2 8 0.42 0.52
-9 2 8 0.57 1.64
-9 2 8 -0.17 0.56
-9 2 7 25.44 1.79
9 -2 -7 23.71 0.75
-9 2 7 26.65 2.38
-9 2 7 27.17 7.55
-9 2 6 2.37 0.88
9 -2 -6 1.37 0.6
-9 2 6 1.65 0.77
-9 2 5 22.71 1.87
9 -2 -5 19.22 1.83
9 -2 -5 21.29 1.73
-9 2 5 17.7 2.54
-9 2 5 16.16 5.46
9 -2 -5 24.69 2.02
-9 2 5 24.4 2.24
-9 2 4 25 1.97
-9 2 4 18.95 6.19
9 -2 -4 21.74 1.83
9 -2 -4 23.02 1.77
-9 2 4 21.37 2.7
9 -2 -4 26.33 2.1
-9 2 4 24.99 2.25
-9 2 3 2.95 0.85
9 -2 -3 1.83 0.64
9 -2 -3 1.71 0.54
-9 2 3 3.42 3.54
9 -2 -3 2.37 0.72
-9 2 3 1.54 0.66
-9 2 3 0.31 2.92
-9 2 2 75.25 3.57
9 -2 -2 66.59 3.21
9 -2 -2 74.94 2.92
9 -2 -2 69.74 4.7
-9 2 2 63.32 12.01
9 -2 -2 81.74 3.91
-9 2 2 79.23 3.99
-9 2 2 71.1 13.77
-9 2 1 66.17 3.37
9 -2 -1 60.08 2.94
9 -2 -1 61.13 4.64
-9 2 1 61.14 11.61
9 -2 -1 71.85 3.66
-9 2 1 67.42 3.66
-9 2 1 61.12 12.34
-9 2 0 7.71 1.25
9 -2 0 6.5 0.97
9 -2 0 8.73 1.89
-9 2 0 9.73 1.41
-9 2 0 6.05 3.93
-9 2 0 9.33 5.7
9 -2 1 18.81 1.56
9 -2 1 23.17 3.07
-9 2 -1 20.54 7.21
-9 2 -1 25.11 7.96
-9 2 -2 10.88 5.85
9 -2 2 17.63 1.5
9 -2 2 15.55 2.67
-9 2 -2 18.81 0.67
-9 2 -2 10.57 6.87
9 -2 3 0.71 0.43
9 -2 3 1.61 1.13
-9 2 -3 0.56 0.2
-9 2 -3 -1.06 3.02
9 -2 4 19.51 1.52
9 -2 4 16.81 2.76
-9 2 -4 18.73 0.75
9 -2 5 4.41 0.84
9 -2 5 4.25 1
-9 2 -5 5.57 0.42
-9 2 -5 3.51 3.43
9 -2 6 9.31 1.41
-9 2 -6 10.79 0.6
9 -2 7 56.48 2.6
9 -2 7 56.86 3.24
-9 2 -7 53.2 1.51
-9 2 -7 56.47 12.47
9 -2 8 3.08 0.61
9 -2 8 1.99 0.7
-9 2 -8 3.19 0.33
-9 2 -8 0.95 2.97
9 -2 9 3.41 0.62
9 -2 9 3.41 0.84
-9 2 -9 3.44 0.34
-9 2 -9 5.94 3.69
9 -2 10 4.92 0.9
9 -2 10 4.87 0.89
-9 2 -10 4.58 0.35
-9 2 -10 6.53 4.99
9 -2 11 0.69 0.48
9 -2 11 1.89 0.62
-9 2 -11 1.14 0.66
9 -2 12 35.97 2.02
9 -2 12 35.36 1.93
-9 2 -12 35.18 2.11
9 -2 13 14.12 1.07
9 -2 13 14.41 1.02
-9 2 -13 14.24 1.02
9 -1 -15 4.75 0.56
9 -1 -15 2.75 0.48
-9 1 14 29.28 1.6
-9 1 14 25.36 1.36
9 -1 -13 3.32 0.73
-9 1 13 6.17 0.86
-9 1 13 5.66 0.83
-9 1 12 0.3 0.38
-9 1 12 1.19 0.6
-9 1 11 5.43 0.93
-9 1 11 8.52 1.32
-9 1 10 9.47 1.2
-9 1 10 9.92 1.52
-9 1 9 7.18 1.07
-9 1 9 9.02 1.44
-9 1 8 52.29 2.56
-9 1 8 50.57 2.65
9 -1 -8 47.71 1.24
-9 1 8 54.66 3.41
-9 1 7 0.28 0.5
-9 1 7 0.26 0.36
9 -1 -7 0.1 0.13
-9 1 7 0.3 0.79
-9 1 6 12.11 1.39
-9 1 6 11.63 2.2
-9 1 6 11.96 4.99
9 -1 -6 9.84 0.5
-9 1 6 10.04 1.53
-9 1 5 4.07 0.92
9 -1 -5 3.62 0.77
9 -1 -5 3.21 0.75
-9 1 5 3.81 1.19
-9 1 5 2.39 3.25
-9 1 5 2.9 0.67
-9 1 4 218.72 6.66
9 -1 -4 195.67 6.16
9 -1 -4 204.23 5.88
-9 1 4 205.17 8.93
-9 1 4 226.38 21.03
-9 1 4 236.88 7.48
-9 1 3 8.37 1.19
9 -1 -3 6.34 0.94
-9 1 3 7.5 1.68
-9 1 3 1.35 2.97
9 -1 -3 7.54 1.13
-9 1 3 7.18 1.3
-9 1 3 2.75 3.22
-9 1 2 3.63 0.96
9 -1 -2 2.35 0.6
9 -1 -2 1.59 0.82
-9 1 2 3.11 3.75
9 -1 -2 3.5 0.87
-9 1 2 3.31 0.93
-9 1 2 2.96 2.71
-9 1 1 56.6 3.1
9 -1 -1 58.6 2.69
9 -1 -1 53.61 4.36
-9 1 1 57.7 11.42
-9 1 1 65.07 3.55
-9 1 1 50.41 10.51
-9 1 0 18.48 1.78
-9 1 0 12.81 5.89
9 -1 0 18.31 1.44
-9 1 0 18.07 1.87
-9 1 0 14.39 6.65
9 -1 0 15.08 2.43
-9 1 -1 225.18 22.5
-9 1 -1 252.56 7.45
9 -1 1 258.42 6.51
9 -1 1 241.24 10.53
-9 1 -1 241.67 23.98
-9 1 -2 103.33 4.42
9 -1 2 97.15 6.61
-9 1 -2 119.35 2.38
-9 1 -2 100.84 16.01
9 -1 3 34.11 3.89
-9 1 -3 41.87 1.15
-9 1 -3 37.85 10.21
9 -1 4 0.07 0.78
-9 1 -4 1.32 0.29
-9 1 -4 -1.94 3.74
9 -1 5 73.66 3.86
-9 1 -5 76.55 1.87
9 -1 6 21.94 2.06
-9 1 -6 20.21 0.83
-9 1 -6 20.72 7.33
-9 1 -7 17.63 1.51
9 -1 7 17.32 1.85
-9 1 -7 18.6 0.79
-9 1 -7 18.05 7.26
9 -1 8 5.21 1.04
-9 1 -8 4.53 0.38
-9 1 -8 7.67 5.38
9 -1 9 25.8 2
9 -1 9 26.14 2.09
-9 1 -9 21.49 0.82
9 -1 10 62.93 3.05
9 -1 10 61.22 3.13
-9 1 -10 55.17 1.42
-9 1 -10 53.82 11.11
9 -1 11 1.79 0.55
9 -1 11 1.87 0.59
9 -1 11 2.32 0.61
-9 1 -11 1.72 0.68
9 -1 12 0.68 0.41
9 -1 12 0.38 0.39
-9 1 -12 0.73 0.53
9 -1 13 8.41 0.78
9 -1 13 8.73 0.8
-9 1 -13 9.98 0.87
9 0 -15 -0.05 0.2
9 0 -15 0.78 0.36
-9 0 15 0.37 0.3
9 0 -14 3.76 0.64
-9 0 14 5.84 0.8
-9 0 14 6.08 0.81
-9 0 13 6.25 0.96
-9 0 13 7.79 1.08
-9 0 12 8.83 1.17
-9 0 12 8.88 1.26
-9 0 11 85.79 3.86
-9 0 11 88.05 4.22
-9 0 10 57.91 3.17
-9 0 10 59.65 3.6
-9 0 9 0.66 0.53
-9 0 9 -0.22 0.44
9 0 -9 0.15 0.13
-9 0 9 -0.28 0.59
-9 0 8 18.31 1.63
-9 0 8 18.54 1.69
9 0 -8 17.71 0.68
-9 0 8 19.04 2.11
-9 0 7 26.77 2.04
-9 0 7 25.94 1.86
9 0 -7 22.9 0.81
-9 0 7 23.66 2.29
-9 0 6 24.68 1.99
-9 0 6 23.42 1.73
-9 0 6 20.98 2.89
9 0 -6 22.41 0.81
-9 0 6 21.24 2.22
-9 0 5 6.02 1.1
-9 0 5 9.32 4.72
9 0 -5 6.05 0.97
-9 0 5 6.25 1.67
9 0 -5 6 0.41
-9 0 5 5.98 1.22
-9 0 4 17.93 1.72
9 0 -4 15.29 1.4
-9 0 4 17.24 2.53
-9 0 4 17.29 5.88
-9 0 4 15.81 1.82
-9 0 4 16.49 7.75
-9 0 3 8.68 1.28
-9 0 3 10.11 1.89
-9 0 3 5.32 4.04
-9 0 3 8.29 1.32
-9 0 3 9.6 6.01
-9 0 2 22.08 7.03
-9 0 2 25.16 2.04
9 0 -2 24.86 2.92
-9 0 2 25.62 2.26
-9 0 2 21.79 6.46
-9 0 1 2.71 0.84
-9 0 1 2.71 3.62
9 0 -1 2 1.16
-9 0 1 2.29 0.8
-9 0 1 -2.82 4.77
-9 0 0 -0.74 0.72
-9 0 0 -0.96 3.29
9 0 0 -0.06 0.92
-9 0 0 0.77 0.76
-9 0 0 -2.49 4.32
-9 0 -1 28.9 2.14
9 0 1 25.86 3.31
-9 0 -1 21 7.09
-9 0 -2 74.18 3.5
9 0 2 75.21 5.77
-9 0 -2 74.61 13.47
-9 0 -3 206.85 6.56
9 0 3 193.98 9.73
-9 0 -3 231.35 4.26
-9 0 -3 195.68 22.12
-9 0 -4 183.42 5.95
-9 0 -4 202.42 3.89
-9 0 -4 183.51 22.13
-9 0 -5 151.65 5.1
9 0 5 155.82 5.83
-9 0 -5 163.39 3.3
-9 0 -5 143.58 18.05
-9 0 -6 135.23 4.54
9 0 6 145.14 5.54
-9 0 -6 135.94 2.92
-9 0 -6 134.34 18.15
9 0 7 58.5 3.37
-9 0 -7 54.94 1.5
-9 0 -7 58.98 12.36
9 0 8 52.88 2.84
9 0 8 53.73 3.16
-9 0 -8 47.09 1.35
-9 0 -8 43.58 10.36
9 0 9 33.37 2.17
9 0 9 34.8 2.43
-9 0 -9 30.86 1
9 0 10 6.73 0.95
9 0 10 6.2 0.98
-9 0 -10 4.9 0.35
-9 0 -10 4.66 1.09
9 0 11 1.57 0.49
9 0 11 2.04 0.62
-9 0 -11 1.6 0.68
9 0 12 7.15 0.74
9 0 12 8.97 0.85
9 0 12 9.38 1
-9 0 -12 9.28 1.11
9 0 13 5.06 0.55
9 0 13 5.14 0.62
-9 0 -13 5.39 0.66
9 1 -15 -0.81 0.3
9 1 -15 -0.44 0.3
-9 -1 15 0.39 0.28
-9 -1 15 -0.45 0.31
-9 -1 14 0.09 0.32
-9 -1 14 0.31 0.36
-9 -1 13 30.44 2.04
-9 -1 13 32.24 2.19
-9 -1 12 2.88 0.76
-9 -1 12 3.31 0.94
-9 -1 11 58.81 3.19
-9 -1 11 56.5 3.41
-9 -1 10 214.24 5.84
-9 -1 10 203.73 6.66
-9 -1 10 201.65 7.26
-9 -1 9 90.9 4.11
9 1 -9 81.87 1.91
-9 -1 9 87.59 4.52
-9 -1 8 0.29 0.52
-9 -1 8 0.16 0.4
9 1 -8 0.19 0.15
-9 -1 8 0.94 0.88
-9 -1 7 8.22 1.25
-9 -1 7 6.03 1.02
9 1 -7 7.94 0.47
-9 -1 7 8.6 1.43
-9 -1 6 15.61 1.64
-9 -1 6 14.83 1.42
-9 -1 6 14.44 2.52
9 1 -6 15.51 0.67
-9 -1 6 16.69 1.96
-9 -1 5 18.1 1.78
-9 -1 5 23.93 1.93
-9 -1 5 14.04 2.38
-9 -1 5 16.56 5.83
9 1 -5 16.32 0.71
-9 -1 5 16.76 1.91
-9 -1 4 90.58 4.02
-9 -1 4 82.82 5.56
-9 -1 4 73.28 11.57
9 1 -4 86.11 2.03
-9 -1 4 88.49 4.32
-9 -1 4 67.97 12.31
-9 -1 3 42.31 9.03
-9 -1 3 45.91 2.8
-9 -1 3 48.1 3.99
-9 -1 3 48.04 3.08
-9 -1 3 37.69 8.74
-9 -1 2 4.58 1.05
-9 -1 2 3.82 1.19
-9 -1 2 2.95 3.26
9 1 -2 4.72 1.43
-9 -1 2 4.79 1.03
-9 -1 2 4.81 5.27
-9 -1 1 83.14 3.82
9 1 -1 74.93 5.4
-9 -1 1 73.48 12.33
-9 -1 1 82.69 3.97
-9 -1 1 73.04 11.98
-9 -1 0 -0.64 0.72
9 1 0 1.09 0.84
-9 -1 0 0.67 0.49
-9 -1 -1 78.48 3.6
9 1 1 69.75 5.52
-9 -1 -1 73.48 3.44
-9 -1 -1 63.95 12.55
-9 -1 -2 0.15 0.54
9 1 2 -1.35 1.22
-9 -1 -2 -0.69 3.5
-9 -1 -3 437.22 10.92
9 1 3 418.04 15.38
-9 -1 -3 396.39 30.76
-9 -1 -4 417.25 10.22
-9 -1 -4 446.35 7.85
-9 -1 -4 410.26 28.79
9 1 5 96.92 4.43
-9 -1 -5 98.79 2.21
-9 -1 -5 89.19 13.76
9 1 6 96.39 4.41
-9 -1 -6 95.26 2.19
-9 -1 -6 95.13 14.76
9 1 7 15.18 1.34
9 1 7 10.72 1.47
-9 -1 -7 11.25 0.59
-9 -1 -7 10.22 5.93
9 1 8 6.52 0.94
9 1 8 5.03 1
-9 -1 -8 4.97 0.38
-9 -1 -8 4.58 4.25
9 1 9 26.25 1.76
9 1 9 25.34 2.03
-9 -1 -9 21.76 0.79
9 1 10 1.39 0.49
9 1 10 1.1 0.51
-9 -1 -10 1.48 0.21
-9 -1 -10 2.32 0.87
9 1 11 -0.23 0.4
9 1 11 -0.57 0.36
9 1 11 -0.2 0.36
-9 -1 -11 -0.12 0.49
9 1 12 0.56 0.31
9 1 12 0.71 0.34
9 1 12 0.77 0.38
-9 -1 -12 1.02 0.51
9 1 13 0.02 0.2
-9 -1 -13 0.02 0.26
-9 -2 15 14.14 1.03
-9 -2 15 12.93 1
-9 -2 14 0.16 0.43
-9 -2 14 0.86 0.54
-9 -2 13 13.27 1.37
-9 -2 13 14.95 1.56
-9 -2 12 4.32 0.93
-9 -2 12 4.53 1.01
-9 -2 11 42.17 2.14
-9 -2 11 38.29 2.62
-9 -2 11 36.09 2.78
-9 -2 10 -0.6 0.6
-9 -2 10 -0.1 0.47
-9 -2 10 -1.03 0.82
-9 -2 9 8.78 1.23
-9 -2 9 8.13 1.24
9 2 -9 7.95 0.46
-9 -2 9 7.71 1.36
-9 -2 8 0.36 0.53
-9 -2 8 0.63 0.54
9 2 -8 0.85 0.21
-9 -2 8 1.39 0.7
-9 -2 7 7.1 1.18
-9 -2 7 4.51 0.97
9 2 -7 6.78 0.45
-9 -2 7 6.02 1.24
-9 -2 6 12.97 1.52
-9 -2 6 13.11 1.44
9 2 -6 11.6 0.59
-9 -2 6 9.22 1.42
-9 -2 5 18.7 1.85
-9 -2 5 14.68 1.49
-9 -2 5 15.64 2.53
9 2 -5 16.11 0.7
-9 -2 5 15.69 1.9
-9 -2 4 61.92 3.29
-9 -2 4 55.41 4.56
-9 -2 4 57.81 2.85
-9 -2 4 59.28 10.15
9 2 -4 57.44 1.52
-9 -2 4 56.3 3.37
-9 -2 3 2.28 0.74
-9 -2 3 2.34 0.62
-9 -2 3 2.06 1.05
-9 -2 3 2.03 0.79
-9 -2 2 5.86 1.06
-9 -2 2 5.41 1.44
9 2 -2 7.89 1.78
-9 -2 2 6.26 1.19
-9 -2 1 81.2 3.68
9 2 -1 60.88 5.02
-9 -2 1 72.64 3.65
-9 -2 1 54.91 9.54
-9 -2 0 222.87 6.65
9 2 0 198.67 9.5
-9 -2 0 220.75 6.81
-9 -2 0 215.11 6.72
-9 -2 -1 11.89 1.38
9 2 1 8.41 1.99
-9 -2 -1 13.45 1.52
-9 -2 -1 8.36 3.2
-9 -2 -2 40.45 2.46
9 2 2 38.48 4.09
-9 -2 -2 42.32 2.54
-9 -2 -2 34 7.23
-9 -2 -3 110.72 4.14
-9 -2 -3 108.53 13.59
9 2 4 29.09 2.33
-9 -2 -4 30.69 0.93
-9 -2 -4 35.04 8.52
9 2 5 0.88 0.61
-9 -2 -5 0.14 0.16
-9 -2 -5 0.52 2.25
9 2 6 0.21 0.51
-9 -2 -6 0.05 0.15
9 2 7 -0.28 0.56
-9 -2 -7 -0.04 0.16
-9 -2 -7 1.3 2.68
9 2 8 1.04 0.5
-9 -2 -8 1.38 0.22
9 2 9 2.49 0.59
9 2 9 2.73 0.77
-9 -2 -9 2.48 0.25
-9 -2 -9 3 0.9
9 2 10 18.49 1.25
9 2 10 19.32 1.64
-9 -2 -10 19.78 1.89
9 2 11 5.54 0.86
9 2 11 6.37 0.85
-9 -2 -11 6.11 0.99
9 2 12 0.45 0.29
9 2 12 1.04 0.38
-9 -2 -12 0.95 0.46
9 2 13 10.17 0.66
-9 -3 15 10.22 0.88
-9 -3 15 9.2 0.88
-9 -3 14 11.91 1.15
-9 -3 14 10.98 1.22
-9 -3 13 0.2 0.35
-9 -3 13 0.24 0.56
-9 -3 12 0.73 0.4
-9 -3 12 0.89 0.62
-9 -3 12 0.7 0.41
-9 -3 11 6.66 0.96
-9 -3 11 4.94 1
-9 -3 11 6.65 1.23
-9 -3 10 3.21 0.82
-9 -3 10 3.35 0.89
-9 -3 10 4.09 0.96
-9 -3 9 3.35 0.82
-9 -3 9 2.42 0.8
-9 -3 9 3.34 1.06
-9 -3 8 43.6 2.76
-9 -3 8 41.13 2.76
9 3 -8 39.41 1.16
-9 -3 8 41.45 3.04
-9 -3 7 0.87 0.66
-9 -3 7 0.58 0.56
9 3 -7 0.49 0.19
-9 -3 7 0.47 0.65
-9 -3 7 1.74 3.44
-9 -3 6 15.66 1.72
-9 -3 6 15.09 1.62
9 3 -6 13.93 0.65
-9 -3 6 13.16 1.69
-9 -3 6 15.25 5.52
-9 -3 5 0.51 0.58
-9 -3 5 0.85 0.68
9 3 -5 0.58 0.19
-9 -3 5 1.76 0.89
-9 -3 4 69.47 3.54
-9 -3 4 61.81 4.88
-9 -3 4 66.39 3.17
-9 -3 4 69.3 3.03
9 3 -4 67 1.7
-9 -3 4 65.66 3.59
-9 -3 4 66.3 10.68
-9 -3 3 38.23 2.57
-9 -3 3 34.69 3.5
-9 -3 3 40.54 2.38
-9 -3 3 37.96 2.31
-9 -3 3 34.64 2.47
-9 -3 2 4.24 0.96
-9 -3 2 3.33 0.66
9 3 -2 3.29 1.29
-9 -3 2 3.14 1.16
-9 -3 2 3.84 1.02
-9 -3 1 1.58 0.74
-9 -3 1 0.8 0.47
9 3 -1 1.5 1
-9 -3 1 0.83 0.51
-9 -3 1 1.44 0.68
-9 -3 0 126.73 4.65
9 3 0 109.88 7.01
-9 -3 0 132.62 5.12
-9 -3 0 118.29 4.59
-9 -3 -1 17 1.57
9 3 1 17.07 2.86
-9 -3 -1 16.72 1.78
-9 -3 -2 0.21 0.52
-9 -3 -2 0.54 0.57
-9 -3 -3 -0.39 0.57
-9 -3 -3 0 0.42
9 3 4 31.14 2.38
-9 -3 -4 34.49 0.98
9 3 5 -0.11 0.48
-9 -3 -5 -0.08 0.13
9 3 6 3.05 0.97
-9 -3 -6 2.38 0.26
-9 -3 -6 1.92 1.98
9 3 7 0.59 0.53
-9 -3 -7 0.2 0.16
9 3 8 -0.54 0.52
-9 -3 -8 0.23 0.14
-9 -3 -8 0.71 0.66
9 3 9 0.62 0.49
-9 -3 -9 0.54 0.62
9 3 10 1.46 0.49
-9 -3 -10 1.05 0.6
9 3 11 0.8 0.43
9 3 11 1.11 0.41
-9 -3 -11 -0.09 0.46
9 3 12 19.8 1.19
9 3 12 21.68 1.14
-9 -3 -12 21.27 1.39
-9 -4 15 14.53 1
-9 -4 15 13.48 1.02
-9 -4 14 36 1.99
-9 -4 14 35.89 2.07
-9 -4 13 0.29 0.38
-9 -4 13 0.44 0.45
-9 -4 13 1.3 0.61
-9 -4 12 1.71 0.56
-9 -4 12 1.28 0.61
-9 -4 12 1.11 0.74
-9 -4 11 -0.15 0.51
-9 -4 11 0.02 0.47
-9 -4 11 0.08 0.43
-9 -4 11 -0.47 0.75
-9 -4 10 19.37 5.28
-9 -4 10 23.96 1.91
-9 -4 10 20.18 2.01
-9 -4 10 22.61 2.02
-9 -4 10 20.81 2.1
-9 -4 9 1.09 1.75
-9 -4 9 -0.16 0.55
-9 -4 9 -0.18 0.54
-9 -4 9 -0.21 0.57
-9 -4 8 49.18 9.03
-9 -4 8 57.26 3.19
-9 -4 8 47.72 3.09
9 4 -8 47.43 1.3
-9 -4 8 44.19 3.19
-9 -4 7 159.55 5.65
-9 -4 7 144.85 5.6
9 4 -7 146.18 3.03
-9 -4 7 138.44 5.77
-9 -4 7 136.49 15.73
-9 -4 6 2.87 0.99
-9 -4 6 3.43 0.73
-9 -4 6 1.85 0.61
9 4 -6 2.68 0.3
-9 -4 6 1.69 0.73
-9 -4 6 3.66 2.14
-9 -4 5 31.62 2.37
-9 -4 5 33.44 2.36
9 4 -5 29.09 0.99
-9 -4 5 29.87 2.44
-9 -4 5 33.48 8.38
-9 -4 4 12.68 1.57
-9 -4 4 10.17 1.27
-9 -4 4 10.73 1.27
-9 -4 4 9.11 1.3
-9 -4 3 41.33 2.68
-9 -4 3 43.43 3.93
-9 -4 3 42.68 2.54
-9 -4 3 43.39 2.61
-9 -4 3 37.94 2.9
-9 -4 3 38.53 2.54
-9 -4 2 7.8 1.32
-9 -4 2 6.68 1.14
9 4 -2 3.05 1.19
-9 -4 2 7.04 1.1
-9 -4 2 6.68 1.61
-9 -4 2 7.63 1.25
-9 -4 2 6.16 1.1
-9 -4 1 16.45 1.61
9 4 -1 14.41 2.37
-9 -4 1 17.61 1.56
-9 -4 1 16.22 1.89
-9 -4 0 167.85 5.53
-9 -4 0 180.1 5.6
-9 -4 0 172.67 6.26
-9 -4 -1 14.94 1.45
-9 -4 -1 18.67 1.64
-9 -4 -1 16.17 1.81
-9 -4 -2 34.05 2.07
-9 -4 -2 34.21 2.48
9 4 3 30.62 2.25
-9 -4 -3 31.12 2.2
9 4 4 0.54 0.5
9 4 5 22.33 1.93
-9 -4 -5 21.17 0.74
9 4 6 0.52 0.41
-9 -4 -6 1.02 0.19
9 4 7 1.81 0.64
-9 -4 -7 0.78 0.76
9 4 8 20.65 1.7
-9 -4 -8 22.23 2.09
9 4 9 3.14 0.67
-9 -4 -9 2.32 0.58
-9 -4 -9 2.54 0.81
9 4 10 -0.14 0.29
-9 -4 -10 0.53 0.55
9 4 11 0.48 0.36
9 4 11 -0.14 0.23
-9 -4 -11 0.12 0.35
9 4 12 17.82 0.99
-9 -4 -12 19.14 1.11
-9 -5 15 1.2 0.31
-9 -5 15 2.48 0.48
-9 -5 14 1.35 0.45
-9 -5 14 1.4 0.46
-9 -5 13 6.32 0.8
-9 -5 13 7.44 0.99
-9 -5 13 7.05 1.1
-9 -5 12 7.52 2.97
-9 -5 12 10.96 1.12
-9 -5 12 12.62 1.42
-9 -5 12 10.57 1.41
-9 -5 11 -0.42 2.07
-9 -5 11 0.18 0.44
-9 -5 11 -0.02 0.47
-9 -5 11 0.87 0.44
-9 -5 11 0.23 0.59
-9 -5 10 11.27 4.73
-9 -5 10 17.48 1.67
-9 -5 10 16.6 1.78
-9 -5 10 16.2 1.64
-9 -5 10 15.68 1.83
-9 -5 9 13.63 5.43
-9 -5 9 13.09 1.56
-9 -5 9 12.8 1.58
-9 -5 9 11.34 1.51
-9 -5 9 12.8 1.64
-9 -5 8 1.34 0.7
-9 -5 8 1.1 0.58
-9 -5 8 0.86 0.56
-9 -5 8 0.73 0.66
-9 -5 7 40.12 2.7
-9 -5 7 35.52 2.63
-9 -5 7 37.55 2.92
9 5 -7 37.15 1.1
-9 -5 7 34.22 2.68
-9 -5 6 111.05 4.61
-9 -5 6 108.63 4.18
-9 -5 6 103.62 4.64
-9 -5 6 104 5.06
9 5 -6 101.44 2.28
-9 -5 6 97.22 4.55
-9 -5 6 111.62 15.41
-9 -5 5 0.64 0.66
-9 -5 5 0.15 0.57
-9 -5 5 1.49 0.8
-9 -5 5 0.11 0.45
9 5 -5 0.24 0.17
-9 -5 5 0.4 0.59
-9 -5 5 0.45 0.68
-9 -5 4 6.09 1.14
-9 -5 4 5.34 1.29
-9 -5 4 6.73 1.15
-9 -5 4 5.18 1
-9 -5 4 4.71 0.95
-9 -5 4 6.98 4.23
-9 -5 3 4.88 1.04
-9 -5 3 3.79 0.88
-9 -5 3 4.09 0.95
-9 -5 3 4.1 1.11
-9 -5 3 4.3 0.91
-9 -5 2 204.49 6.46
-9 -5 2 202.95 6.47
-9 -5 2 204.04 6.68
-9 -5 2 194.53 7.21
-9 -5 1 63.81 3.16
-9 -5 1 65.49 3.26
-9 -5 1 64.02 3.54
-9 -5 1 61.82 3.7
-9 -5 0 0.77 0.47
-9 -5 0 1.66 0.73
-9 -5 0 1 0.65
-9 -5 0 1.92 0.87
-9 -5 -1 2.57 0.71
-9 -5 -1 1.63 0.86
-9 -5 -1 2.01 0.87
-9 -5 -2 0.42 0.5
9 5 2 0.2 0.41
9 5 3 0.55 0.48
-9 -5 -3 0.83 0.53
9 5 4 22.09 1.82
-9 -5 -4 20.91 1.72
-9 -5 -5 1.08 0.66
9 5 5 -0.23 0.4
-9 -5 -5 0.19 0.56
-9 -5 -6 7.48 1
9 5 6 9.23 1.18
-9 -5 -6 9.32 1.44
9 5 7 4.95 0.88
-9 -5 -7 3.67 0.82
-9 -5 -7 3.65 0.94
9 5 8 2.65 0.6
-9 -5 -8 1.91 0.5
-9 -5 -8 2.12 0.75
9 5 9 4.69 0.67
-9 -5 -9 4.26 0.56
-9 -5 -9 5.58 0.95
9 5 10 4.8 0.78
9 5 10 4.89 0.57
-9 -5 -10 4.76 0.83
9 5 11 26.44 1.46
-9 -5 -11 26.89 1.49
-9 -6 15 12.19 0.76
-9 -6 15 12.05 0.81
-9 -6 14 0.38 0.35
-9 -6 14 -0.16 0.35
-9 -6 13 18.44 1.45
-9 -6 13 16.53 1.46
-9 -6 13 18.02 4.01
-9 -6 12 2.4 0.61
-9 -6 12 2.91 0.71
-9 -6 12 2.88 0.77
-9 -6 11 24.67 1.82
-9 -6 11 22.55 1.92
-9 -6 11 19.91 1.45
-9 -6 11 19.91 1.89
-9 -6 10 47.02 9.12
-9 -6 10 54.08 2.87
-9 -6 10 49.6 3.04
-9 -6 10 45.68 2.61
-9 -6 10 44.56 2.91
-9 -6 9 206.6 6.4
-9 -6 9 196.98 6.64
-9 -6 9 191.96 6.5
-9 -6 9 179.94 6.46
-9 -6 9 186.95 19.12
-9 -6 8 20.21 6.97
-9 -6 8 26.21 2.17
-9 -6 8 26.53 2.26
-9 -6 8 24.99 2.31
-9 -6 8 24.72 2.22
-9 -6 7 79.69 3.8
-9 -6 7 74 3.19
-9 -6 7 73.27 3.84
-9 -6 7 72.11 4.09
-9 -6 7 63.53 3.52
-9 -6 7 68.87 12.74
-9 -6 6 10.33 1.56
-9 -6 6 11.28 1.52
-9 -6 6 11.06 1.35
-9 -6 6 10.53 1.51
-9 -6 6 12.16 1.31
9 6 -6 10.41 0.53
-9 -6 6 10.6 1.44
-9 -6 6 10.41 4.85
-9 -6 5 20.96 2
-9 -6 5 23.81 2.05
-9 -6 5 21.15 2.02
-9 -6 5 22.03 1.83
-9 -6 5 21.57 2.28
-9 -6 5 18.64 1.75
-9 -6 5 17.13 6.12
-9 -6 4 89.03 4.05
-9 -6 4 88.44 4.23
-9 -6 4 88.37 4.19
-9 -6 4 87.77 3.98
-9 -6 4 89.17 4.7
-9 -6 4 86.18 14.42
-9 -6 3 12.41 1.5
-9 -6 3 13.61 1.69
-9 -6 3 13.22 1.58
-9 -6 3 13.02 1.54
-9 -6 3 12.1 1.78
-9 -6 2 78.09 3.52
-9 -6 2 76.63 4.13
-9 -6 2 75.88 3.76
-9 -6 2 76.27 3.88
-9 -6 2 77.87 4.3
-9 -6 1 14.11 1.39
-9 -6 1 16.6 1.71
-9 -6 1 15.65 1.81
-9 -6 1 15.71 1.93
-9 -6 0 0.01 0.44
-9 -6 0 0.4 0.66
-9 -6 0 -1.18 0.81
-9 -6 0 -0.35 0.68
9 6 1 53.9 2.66
-9 -6 -1 56.6 3.41
-9 -6 -1 52.33 3.34
-9 -6 -2 4.67 1.1
-9 -6 -2 4.77 1.02
9 6 2 4.24 0.74
-9 -6 -2 4.5 1.04
-9 -6 -3 2.66 0.91
-9 -6 -3 1.57 0.78
9 6 3 1.83 0.55
-9 -6 -3 1.17 0.6
-9 -6 -4 73.89 3.63
9 6 4 83.32 3.29
-9 -6 -4 73.43 3.77
-9 -6 -4 76.92 3.51
-9 -6 -4 77.82 3.66
-9 -6 -5 123.73 4.5
9 6 5 137.24 4.34
-9 -6 -5 124.24 4.83
-9 -6 -5 128.11 5.03
-9 -6 -6 6.55 0.87
-9 -6 -6 4.54 0.86
9 6 6 6.31 0.83
-9 -6 -6 6.02 1.03
9 6 7 0.72 0.35
-9 -6 -7 1.04 0.5
9 6 8 0.54 0.28
-9 -6 -8 0.46 0.36
-9 -6 -8 0.41 0.52
9 6 9 13.73 1.32
9 6 9 14.35 0.89
-9 -6 -9 13.71 1.29
9 6 10 5.57 0.72
-9 -6 -10 5.91 0.73
-9 -6 -10 4.68 0.58
-9 -7 14 0 0.23
-9 -7 14 0.08 0.29
-9 -7 13 5.74 0.82
-9 -7 13 3.6 0.68
-9 -7 13 3.57 2.26
-9 -7 12 1.24 0.56
-9 -7 12 1.47 0.58
-9 -7 12 0.48 0.4
-9 -7 12 1.44 1.94
-9 -7 11 43.57 2.36
-9 -7 11 43.81 2.56
-9 -7 11 35.06 2.36
-9 -7 11 38.41 7.4
-9 -7 10 2.51 0.75
-9 -7 10 3.16 0.78
-9 -7 10 2.46 0.58
-9 -7 10 2.38 0.76
-9 -7 10 3.7 3.35
-9 -7 9 36.64 2.37
-9 -7 9 35.32 2.55
-9 -7 9 36.87 2.44
-9 -7 9 30.46 2.27
-9 -7 9 28.8 7.68
-9 -7 8 39.87 2.58
-9 -7 8 35.64 2.59
-9 -7 8 36.65 2.65
-9 -7 8 33.22 2.39
-9 -7 8 33.41 8.56
-9 -7 7 66.8 3.45
-9 -7 7 61.95 2.94
-9 -7 7 60.24 3.48
-9 -7 7 65.71 2.89
-9 -7 7 63.53 3.69
-9 -7 7 57.81 3.08
-9 -7 7 64.3 12.24
-9 -7 6 35.87 2.5
-9 -7 6 33.29 2.34
-9 -7 6 36.26 2.66
-9 -7 6 34.52 2.23
-9 -7 6 37.11 2.86
-9 -7 6 30.2 2.09
-9 -7 6 37.23 9.31
-9 -7 5 66.3 3.4
-9 -7 5 67.52 3.56
-9 -7 5 65.84 3.66
-9 -7 5 66.94 3.35
-9 -7 5 65.46 3.9
-9 -7 5 56.09 11.95
-9 -7 4 -0.09 0.57
-9 -7 4 0.67 0.72
-9 -7 4 0.45 0.51
-9 -7 4 0.04 0.51
-9 -7 4 0.99 0.79
-9 -7 3 1.8 0.77
-9 -7 3 0.97 0.73
-9 -7 3 0.72 0.6
-9 -7 3 0.2 0.5
-9 -7 3 0.99 0.64
-9 -7 3 0.31 0.71
-9 -7 2 61.45 2.98
-9 -7 2 65.71 3.73
-9 -7 2 65.62 3.17
-9 -7 2 62.27 3.52
-9 -7 2 62.81 3.54
-9 -7 2 60.97 3.81
-9 -7 1 8.69 1.04
-9 -7 1 11.02 1.59
-9 -7 1 10.4 1.41
-9 -7 1 10.6 1.53
-9 -7 1 9.88 1.58
-9 -7 0 10.02 1.5
-9 -7 0 12.16 1.62
-9 -7 0 12.19 1.74
-9 -7 0 11.76 1.59
-9 -7 -1 203.16 7.03
-9 -7 -1 209.3 6.96
-9 -7 -1 201.58 7.17
-9 -7 -2 21.54 2.08
-9 -7 -2 21.78 2.04
-9 -7 -2 21.26 2.03
-9 -7 -3 14.63 1.64
-9 -7 -3 16.49 1.74
-9 -7 -3 16.4 1.74
-9 -7 -4 134.65 4.8
-9 -7 -4 128.73 4.91
-9 -7 -5 3.97 0.76
-9 -7 -5 4.94 0.97
-9 -7 -5 4.46 0.83
-9 -7 -6 22.12 1.66
-9 -7 -6 20.53 1.65
-9 -7 -7 0.03 0.35
-9 -7 -7 0.75 0.53
-9 -7 -8 9.34 1
9 7 9 23.6 1.49
-9 -7 -9 21.95 1.34
-9 -7 -9 21.43 1.29
9 7 10 17.34 0.97
-9 -8 14 4.3 0.5
-9 -8 14 4.16 0.44
-9 -8 13 1.55 0.4
-9 -8 13 1.82 0.42
-9 -8 12 1.65 0.68
-9 -8 12 0.51 0.4
-9 -8 12 -0.47 0.42
-9 -8 12 -0.11 1.62
-9 -8 11 76.99 3.07
-9 -8 11 74.62 3.25
-9 -8 11 64.09 2.84
-9 -8 11 71.62 9.85
-9 -8 10 14.28 1.44
-9 -8 10 14.24 1.46
-9 -8 10 12.68 1.12
-9 -8 10 11.45 1.19
-9 -8 10 17.58 5.3
-9 -8 9 151.34 5.03
-9 -8 9 150.99 5.31
-9 -8 9 136.64 4.77
-9 -8 9 124.09 4.42
-9 -8 9 140.59 16.35
-9 -8 8 75.49 3.44
-9 -8 8 71.62 3.61
-9 -8 8 64.14 2.62
-9 -8 8 65.17 3.39
-9 -8 8 55.76 2.74
-9 -8 8 67.39 11.86
-9 -8 7 11.77 1.42
-9 -8 7 8.67 1.09
-9 -8 7 8.85 1.34
-9 -8 7 9.25 1.11
-9 -8 7 10.7 1.46
-9 -8 7 10.27 5.6
-9 -8 6 1.71 0.74
-9 -8 6 1.81 0.74
-9 -8 6 2.15 0.73
-9 -8 6 0.98 0.64
-9 -8 6 1.49 0.8
-9 -8 6 0.69 3.99
-9 -8 5 20.63 1.83
-9 -8 5 19.13 1.88
-9 -8 5 20.39 2.02
-9 -8 5 21.91 2.05
-9 -8 5 20.03 1.86
-9 -8 5 19.67 2.07
-9 -8 5 23.16 7.94
-9 -8 4 0.26 0.54
-9 -8 4 0.02 0.57
-9 -8 4 0.74 0.56
-9 -8 4 0.77 0.6
-9 -8 4 1.1 0.63
-9 -8 4 1.68 0.81
-9 -8 3 24.56 1.84
-9 -8 3 24.96 2.26
-9 -8 3 24.26 2.07
-9 -8 3 25.53 2.2
-9 -8 3 24.42 2.17
-9 -8 3 23.13 2.33
-9 -8 2 109.36 3.94
-9 -8 2 118.73 5.15
-9 -8 2 125.3 4.65
-9 -8 2 119.66 5
-9 -8 2 122.21 4.97
-9 -8 2 112.58 5.25
-9 -8 1 -0.74 0.78
-9 -8 1 0.32 1.01
-9 -8 1 -0.27 1
-9 -8 1 -0.21 0.6
-9 -8 1 0.29 0.77
-9 -8 0 9.36 1.47
-9 -8 0 9.19 1.36
-9 -8 0 11.96 1.66
-9 -8 -1 28.74 2.35
-9 -8 -1 31.38 2.39
-9 -8 -1 29.4 2.51
-9 -8 -2 11.22 1.48
-9 -8 -2 12.56 1.55
-9 -8 -2 11.35 1.51
-9 -8 -3 51.62 2.85
-9 -8 -3 57.02 3.08
-9 -8 -3 51.19 3
-9 -8 -4 10.79 1.16
-9 -8 -4 13.1 1.4
-9 -8 -5 30.64 1.69
-9 -8 -5 34.68 2.03
-9 -8 -6 6.83 0.8
-9 -8 -6 7.95 0.85
-9 -8 -7 33.34 1.37
-9 -8 -7 32.21 1.62
-9 -8 -7 34.14 2.04
9 8 8 2.34 0.51
-9 -8 -8 1.57 0.33
-9 -8 -8 1.91 0.49
-9 -9 13 35.98 1.61
-9 -9 13 33.22 1.4
-9 -9 12 6.63 0.86
-9 -9 12 7.74 0.81
-9 -9 12 4.15 3.31
-9 -9 12 5.12 0.55
-9 -9 12 7.16 2.85
-9 -9 11 28.37 1.69
-9 -9 11 25.25 1.82
-9 -9 11 27.74 1.76
-9 -9 11 21.38 1.28
-9 -9 11 24.45 5.53
-9 -9 10 0.31 0.49
-9 -9 10 1.07 0.55
-9 -9 10 2.19 1.78
-9 -9 9 12.76 1.27
-9 -9 9 12.41 1.4
-9 -9 9 11.68 1.13
-9 -9 9 10.77 4.59
-9 -9 8 0.52 0.51
-9 -9 8 1.83 0.65
-9 -9 8 1.09 0.56
-9 -9 8 1.4 0.66
-9 -9 8 1.42 0.61
-9 -9 8 0.16 1.96
-9 -9 7 0.79 0.57
-9 -9 7 0.08 0.6
-9 -9 7 0.05 0.54
-9 -9 7 0.45 0.51
-9 -9 7 0.51 0.47
-9 -9 7 1.85 2.78
-9 -9 6 20.08 1.69
-9 -9 6 18.84 1.92
-9 -9 6 22.58 1.98
-9 -9 6 20.08 1.73
-9 -9 6 18.78 1.91
-9 -9 5 1.58 0.6
-9 -9 5 1.79 0.72
-9 -9 5 1.06 0.58
-9 -9 5 1.66 0.79
-9 -9 5 1.57 0.69
-9 -9 5 2.25 0.82
-9 -9 4 -0.38 0.58
-9 -9 4 -0.48 0.61
-9 -9 4 0.72 0.63
-9 -9 4 0.43 0.56
-9 -9 4 -0.07 0.52
-9 -9 4 0.37 0.54
-9 -9 3 106.9 3.75
-9 -9 3 108.74 4.74
-9 -9 3 109.88 4.53
-9 -9 3 113.59 4.75
-9 -9 3 109.42 4.58
-9 -9 3 109.92 5.03
-9 -9 2 14.44 1.74
-9 -9 2 16.89 1.77
-9 -9 2 17.22 1.99
-9 -9 2 16.94 1.75
-9 -9 2 15.12 1.81
-9 -9 1 2.16 0.83
-9 -9 1 4.01 1.01
-9 -9 1 3.5 1.02
-9 -9 1 2.41 0.62
-9 -9 1 -0.02 4.76
-9 -9 0 3.23 0.84
-9 -9 0 2.91 0.86
-9 -9 0 3.44 0.95
-9 -9 0 2.83 0.77
-9 -9 -1 16.03 1.64
-9 -9 -1 15.07 1.63
-9 -9 -1 13.39 1.6
-9 -9 -1 14.46 1.56
-9 -9 -2 9.03 1.26
-9 -9 -2 10.08 1.3
-9 -9 -2 8.3 1.35
-9 -9 -2 9.37 1.31
-9 -9 -3 1.32 0.59
-9 -9 -3 0.73 0.53
-9 -9 -3 0.71 0.46
-9 -9 -4 0.29 0.7
-9 -9 -4 -0.29 0.51
-9 -9 -5 53.54 2.23
-9 -9 -5 58.67 2.89
9 9 6 1.76 0.46
-9 -9 -6 1.42 0.35
-9 -9 -6 1.94 0.58
9 9 7 13.16 0.91
-9 -9 -7 12.18 1.06
-9 -9 -8 -0.13 0.22
-9 -10 12 4.52 0.6
-9 -10 12 3.97 0.49
-9 -10 11 0.78 0.4
-9 -10 11 0.49 0.31
-9 -10 11 1.18 2.55
-9 -10 10 2.87 0.8
-9 -10 10 3.91 0.78
-9 -10 10 4.39 0.71
-9 -10 10 4.45 3.01
-9 -10 9 14.97 1.3
-9 -10 9 11.77 1.34
-9 -10 9 12.94 1.29
-9 -10 9 10.37 0.92
-9 -10 9 10.82 4.09
-9 -10 8 5.03 0.83
-9 -10 8 6.24 1.02
-9 -10 8 5.14 0.89
-9 -10 8 5.21 0.87
-9 -10 8 3.9 0.73
-9 -10 7 0.36 0.46
-9 -10 7 0.21 0.47
-9 -10 7 0.08 0.48
-9 -10 7 -0.61 0.58
-9 -10 7 0.34 0.42
-9 -10 6 6.89 0.93
-9 -10 6 6.73 1.08
-9 -10 6 7.39 1.16
-9 -10 6 6.57 0.99
-9 -10 6 5.88 1.07
-9 -10 5 5.19 0.83
-9 -10 5 5.31 1.02
-9 -10 5 5.6 1.1
-9 -10 5 4.74 0.93
-9 -10 5 4.1 0.98
-9 -10 4 -0.39 0.48
-9 -10 4 0.83 0.86
-9 -10 4 -0.06 0.69
-9 -10 4 0.28 0.57
-9 -10 4 -0.1 0.54
-9 -10 3 46.06 2.83
-9 -10 3 44.57 2.81
-9 -10 3 46.9 2.92
-9 -10 3 46.88 2.76
-9 -10 3 42.9 2.89
-9 -10 2 7.36 1.2
-9 -10 2 8.73 1.26
-9 -10 2 5.58 1.1
-9 -10 2 3.65 4.82
-9 -10 1 1.15 0.78
-9 -10 1 1.63 0.67
-9 -10 1 1.11 0.67
-9 -10 1 0.78 0.42
-9 -10 1 -1.65 7.61
-9 -10 0 0.94 0.58
-9 -10 0 0.5 0.61
-9 -10 0 0.61 0.68
-9 -10 0 -0.35 0.41
-9 -10 -1 15.09 1.57
-9 -10 -1 19.59 1.67
-9 -10 -1 18.17 1.54
-9 -10 -2 85.63 3.43
-9 -10 -2 79.99 3.48
-9 -10 -3 4.3 0.72
-9 -10 -3 4.96 0.86
-9 -10 -4 1.22 0.41
-9 -10 -4 1.13 0.5
-9 -10 -5 12.86 0.8
-9 -10 -5 12.29 1.75
-9 -10 -5 14.17 1.21
-9 -10 -6 1.39 0.37
-9 -11 11 -0.08 0.29
-9 -11 11 0.32 0.25
-9 -11 10 19.82 1.36
-9 -11 10 18.74 1.2
-9 -11 9 0.65 0.47
-9 -11 9 0.41 0.4
-9 -11 9 -0.7 3.52
-9 -11 8 0.07 0.58
-9 -11 8 1.9 0.63
-9 -11 8 0.41 0.39
-9 -11 8 0.44 0.88
-9 -11 8 0.91 0.45
-9 -11 7 8.19 0.89
-9 -11 7 9.89 1.22
-9 -11 7 7.03 0.96
-9 -11 7 7.2 1.01
-9 -11 7 6.51 0.86
-9 -11 7 6.35 5.17
-9 -11 6 10.04 0.97
-9 -11 6 10.95 1.24
-9 -11 6 10.73 1.27
-9 -11 6 12.19 1.22
-9 -11 6 9.89 1.16
-9 -11 5 8.33 0.86
-9 -11 5 8.26 1.33
-9 -11 5 10.21 1.42
-9 -11 5 8.9 1.1
-9 -11 5 7.99 1.15
-9 -11 5 7.16 5.48
-9 -11 4 19.51 2.1
-9 -11 4 19.49 1.59
-9 -11 4 17.52 1.67
-9 -11 3 6.21 0.98
-9 -11 3 5.81 1.11
-9 -11 3 5.03 6.42
-9 -11 2 7.22 1.05
-9 -11 2 6.15 1.15
-9 -11 2 -0.14 9.65
-9 -11 1 0.82 0.55
-9 -11 0 1.39 0.57
-9 -11 0 1.07 0.42
-9 -11 -1 8 0.94
-9 -11 -1 7.31 0.9
-9 -11 -2 37.76 1.87
-9 -11 -2 35.6 1.93
-9 -11 -3 32.66 1.48
-9 -11 -3 31.88 1.78
-9 -11 -4 2.61 0.34
-9 -11 -4 3.25 0.54
-9 -11 -5 18.05 1.05
-9 -12 10 7.09 0.89
-9 -12 9 20.31 1.42
-9 -12 9 7.77 7.84
-9 -12 8 12.03 1.35
-9 -12 8 10.37 1.29
-9 -12 8 6.39 7.66
-9 -12 7 1.09 1.13
-9 -12 7 2.73 0.95
-9 -12 7 1.14 7.68
-9 -12 6 1.74 1.59
-9 -12 6 2.12 0.78
-9 -12 6 -1.15 7.83
-9 -12 5 -0.14 0.55
-9 -12 5 5.4 9.78
-9 -12 4 11.86 1.15
-9 -12 4 -5.39 10.51
-9 -12 3 16.07 1.32
-9 -12 3 10.11 9.83
-9 -12 2 0.73 0.4
-9 -12 2 -10.2 8.14
-9 -12 1 33.53 1.82
-9 -12 0 73.01 2.6
-9 -12 0 57.96 1.99
-9 -12 -1 53.36 1.99
-9 -12 -1 42.84 1.75
-9 -12 -2 11.57 0.76
-9 -12 -2 10.6 0.8
-9 -12 -3 14.8 0.89
-9 -13 7 24.31 8.26
-9 -13 6 10.29 1.17
-9 -13 6 2.49 7.09
-9 -13 5 0.39 0.74
-9 -13 5 4.09 6.98
-9 -13 4 2.65 0.71
-9 -13 3 22.8 1.34
-9 -13 2 3.61 0.62
-9 -13 1 20.51 1.12
-9 -13 0 3.66 0.51
10 -14 -2 3.75 0.38
10 -14 -1 12.18 0.74
10 -14 0 2.62 0.39
10 -14 1 38.73 1.51
10 -14 2 9.83 0.73
10 -14 3 25.4 1.14
10 -14 3 44.77 1.53
10 -14 4 5.21 0.48
10 -14 4 7.62 0.59
10 -14 5 0.04 0.14
10 -14 5 0.32 0.18
10 -13 -5 0.8 0.25
10 -13 -4 13.48 0.77
-10 13 4 14.32 3.09
10 -13 -4 16.77 1.11
10 -13 -3 1.93 0.36
10 -13 -3 2.24 0.6
-10 13 3 1.82 1.32
10 -13 -3 1.94 0.48
10 -13 -2 2.03 0.41
10 -13 -2 1.17 0.63
10 -13 -1 7.07 0.75
10 -13 -1 6.24 0.54
10 -13 -1 8.1 1.27
-10 13 1 5.89 2.31
10 -13 0 39.04 1.79
10 -13 0 32.72 1.38
10 -13 1 2.96 0.42
10 -13 1 3.29 0.54
10 -13 2 -0.26 0.22
10 -13 2 0.25 0.33
10 -13 3 2.56 0.43
10 -13 3 2.95 0.51
-10 13 -4 16.8 0.97
10 -13 4 20.1 1.19
10 -13 4 18.35 1
10 -13 5 26.98 1.43
-10 13 -5 29.43 1.33
10 -13 5 31.61 1.42
10 -13 5 29.62 1.24
10 -13 6 12.77 0.89
-10 13 -6 13.33 0.86
10 -13 6 13.96 0.82
10 -13 6 13.11 0.76
10 -13 7 4.26 0.46
-10 13 -7 4.48 0.48
-10 12 7 5.66 1.9
10 -12 -7 6.62 0.6
10 -12 -6 0.82 0.24
10 -12 -6 0.9 0.35
10 -12 -5 1.38 0.27
10 -12 -5 1.87 0.39
-10 12 5 2.91 2.08
10 -12 -5 2.32 0.55
10 -12 -4 0.13 0.21
10 -12 -4 0.04 0.24
10 -12 -4 -0.06 0.39
10 -12 -4 0.07 0.4
-10 12 3 -0.3 1.55
10 -12 -3 0.07 0.21
10 -12 -3 0.03 0.27
10 -12 -3 -0.37 0.57
10 -12 -3 1.36 0.49
10 -12 -2 1.47 0.39
10 -12 -2 1.8 0.49
10 -12 -2 2.51 0.93
10 -12 -2 1.52 0.5
10 -12 -1 4.42 0.67
10 -12 -1 5.21 0.73
10 -12 -1 3.77 1.03
10 -12 -1 3.97 0.86
-10 12 1 7.1 2.89
10 -12 0 37.6 1.96
10 -12 0 31.06 1.74
10 -12 0 30.45 2.74
-10 12 0 32.75 6
10 -12 1 6.43 0.88
10 -12 1 6.48 0.8
-10 12 -1 8.8 3.06
-10 12 -2 5.72 0.7
10 -12 2 5.62 0.78
10 -12 2 5.34 0.75
-10 12 -3 22.81 1.42
10 -12 3 26.53 1.61
10 -12 3 25.49 1.56
10 -12 4 27.48 1.59
10 -12 4 28.2 1.61
10 -12 5 9.35 0.87
10 -12 5 9.11 0.88
10 -12 6 22.12 1.4
10 -12 6 24.58 1.29
10 -12 6 25.4 1.38
-10 12 -6 24.58 4.67
10 -12 7 11.7 0.95
10 -12 7 14.57 0.85
10 -12 7 14.38 0.94
10 -12 8 2.42 0.4
10 -12 8 3.51 0.42
-10 11 8 1.04 1.43
10 -11 -8 1.3 0.33
10 -11 -7 0.19 0.17
10 -11 -7 0.35 0.23
10 -11 -7 0.84 0.45
-10 11 6 1.34 1.83
10 -11 -6 -0.09 0.2
10 -11 -6 0.62 0.25
10 -11 -6 -0.09 0.38
10 -11 -5 4.7 0.65
10 -11 -5 6.12 0.73
10 -11 -5 6.9 0.97
-10 11 5 4.89 3.09
10 -11 -5 6.54 1
10 -11 -4 10.77 1.06
10 -11 -4 9.77 0.98
10 -11 -4 9.25 1.33
-10 11 4 10.75 4.55
10 -11 -4 12.97 1.48
10 -11 -3 2.33 0.55
10 -11 -3 3.52 0.72
10 -11 -3 3.15 0.96
-10 11 3 4.47 3.28
10 -11 -3 3.29 0.83
-10 11 3 2.92 2.99
10 -11 -2 3.84 0.71
10 -11 -2 4.66 0.77
10 -11 -2 4.61 1.22
-10 11 2 5.43 3.06
10 -11 -2 5.02 0.98
-10 11 1 0.21 1.94
10 -11 -1 0.52 0.38
10 -11 -1 1.08 0.49
10 -11 -1 1.25 0.81
10 -11 -1 1.37 0.68
10 -11 0 16.97 1.44
10 -11 0 15.35 1.35
10 -11 0 16.84 2.31
10 -11 0 16.51 1.73
-10 11 -1 58.79 2.46
10 -11 1 67.7 2.91
10 -11 1 65.71 2.93
10 -11 1 64.94 4.52
-10 11 -1 56.9 8.78
10 -11 2 21.75 1.6
10 -11 2 21.74 1.64
10 -11 3 7.39 0.96
10 -11 3 6.88 0.91
10 -11 4 129.14 4.02
10 -11 4 123.88 4.19
10 -11 5 95.16 3.21
10 -11 5 95.95 3.48
10 -11 6 15.35 1.1
10 -11 6 15.59 1.24
10 -11 7 -0.13 0.33
10 -11 7 0.07 0.23
-10 11 -7 -0.69 1.79
10 -11 8 11.34 0.9
10 -11 8 12.21 0.71
10 -11 8 13.35 1
-10 11 -8 9.78 2.75
10 -11 9 4.83 0.53
10 -11 9 4.17 0.52
10 -10 -9 0.55 0.2
-10 10 9 -0.53 1.13
10 -10 -8 5.72 0.58
10 -10 -8 6.67 0.65
-10 10 8 5.01 2.24
10 -10 -8 9.63 0.95
-10 10 8 10.38 3.11
10 -10 -7 2.25 0.49
10 -10 -7 2.47 0.49
-10 10 7 2.7 2.85
10 -10 -7 2.73 0.63
-10 10 7 0.54 1.86
-10 10 6 2.74 2.4
10 -10 -6 2.41 0.59
10 -10 -6 3.15 0.62
10 -10 -6 2.63 0.75
-10 10 6 3.09 1.93
10 -10 -5 12.43 1.21
10 -10 -5 14.75 1.28
10 -10 -5 12.93 1.44
-10 10 5 17.32 5.65
10 -10 -5 13.11 1.54
-10 10 5 19.15 5.67
10 -10 -4 16.93 1.48
10 -10 -4 18.48 1.51
10 -10 -4 16.27 1.82
-10 10 4 16.25 6.04
10 -10 -4 16.61 1.74
-10 10 4 16.88 5.13
10 -10 -3 15.65 1.45
10 -10 -3 18.35 1.56
10 -10 -3 25.21 2.69
-10 10 3 17.01 5.89
10 -10 -3 16.16 1.79
-10 10 3 11.39 4.25
-10 10 2 88.85 13.53
10 -10 -2 88.89 3.8
10 -10 -2 100.94 3.82
10 -10 -2 84.21 4.97
10 -10 -2 100.78 4.63
-10 10 2 92.85 13.19
10 -10 -1 3.32 0.75
10 -10 -1 4.65 0.88
10 -10 -1 7.18 1.66
-10 10 1 6.72 4.02
10 -10 -1 4.76 1.09
-10 10 1 3.12 3.3
-10 10 0 22.94 1.56
10 -10 0 23.62 1.8
10 -10 0 20.57 1.8
10 -10 0 18.71 2.54
10 -10 0 22.29 2.13
-10 10 0 18.11 6.29
-10 10 0 21.48 6.31
-10 10 -1 16.24 1.48
10 -10 1 14.65 1.43
10 -10 1 13.96 1.46
10 -10 1 12.68 2.1
-10 10 -1 7.42 3.21
-10 10 -1 13.66 5.49
10 -10 2 12.68 1.27
10 -10 2 11.77 1.31
-10 10 -2 12.42 4.61
-10 10 -2 9.83 0.46
10 -10 3 42.6 2.31
10 -10 3 44.27 2.51
-10 10 -3 33.37 6.83
-10 10 -3 39.1 1.09
-10 10 -3 41.42 8.57
10 -10 4 -0.34 0.4
10 -10 4 -0.63 0.36
-10 10 -4 0.59 0.18
10 -10 5 0.77 0.53
10 -10 5 0.36 0.35
10 -10 6 1.19 0.49
10 -10 6 2.66 0.5
10 -10 7 1.63 0.51
10 -10 7 2.03 0.43
-10 10 -7 2.61 1.63
10 -10 8 12.38 1.02
10 -10 8 13.64 0.81
10 -10 8 15.11 1.18
-10 10 -8 11.82 3.6
10 -10 9 5.65 0.64
10 -10 9 6.33 0.7
10 -10 9 3.85 0.47
-10 10 -9 4.89 2.61
10 -10 10 14.71 0.84
10 -10 10 14.26 0.89
10 -9 -10 1.82 0.29
10 -9 -10 2.74 0.34
-10 9 9 -0.29 1.46
10 -9 -9 0.22 0.21
10 -9 -9 0.31 0.3
10 -9 -9 0.21 0.31
-10 9 9 -0.43 1.95
10 -9 -8 0.61 0.37
10 -9 -8 -0.17 0.33
-10 9 8 2.94 2.5
10 -9 -8 0.25 0.44
-10 9 8 0.22 1.87
-10 9 7 0.24 1.49
10 -9 -7 0 0.35
10 -9 -7 -0.5 0.41
10 -9 -7 1.03 0.59
-10 9 7 2.17 2.42
10 -9 -6 -0.16 0.42
10 -9 -6 0.06 0.37
-10 9 6 0.37 1.88
10 -9 -6 0.35 0.48
-10 9 6 2.66 2.78
10 -9 -5 0.92 0.48
10 -9 -5 0.36 0.4
10 -9 -5 0.19 0.59
10 -9 -4 -0.24 0.43
10 -9 -4 -0.32 0.41
10 -9 -4 -0.57 0.59
-10 9 4 0.57 3.34
10 -9 -4 0.07 0.62
-10 9 4 -0.41 2.53
10 -9 -3 -0.34 0.51
10 -9 -3 0.27 0.46
10 -9 -3 0.12 0.64
-10 9 3 1.7 3.66
10 -9 -3 -0.4 0.67
-10 9 3 -1.47 3.67
10 -9 -2 36.83 2.45
10 -9 -2 38.35 2.41
10 -9 -2 33.24 3.14
-10 9 2 34.83 9.08
10 -9 -2 41.4 3.06
-10 9 2 35.82 9.89
-10 9 1 0.02 0.42
10 -9 -1 1.1 0.55
10 -9 -1 0.96 0.52
10 -9 -1 0.12 0.81
-10 9 1 -1.36 2.16
10 -9 -1 0.8 0.6
-10 9 1 1.35 2.93
-10 9 0 8.33 1.15
10 -9 0 7.9 1.16
10 -9 0 6.76 1.1
10 -9 0 8.18 1.86
-10 9 0 1.9 2.49
10 -9 0 7.38 1.32
-10 9 0 3.23 2.24
10 -9 1 7.3 1.12
10 -9 1 7.78 1.08
10 -9 1 6.66 1.62
-10 9 -1 9.2 4.23
10 -9 1 7.99 1.4
-10 9 -1 8.52 0.43
-10 9 -1 8.99 5.26
10 -9 2 9.92 1.15
10 -9 2 11.38 1.37
-10 9 -2 6.12 3.96
-10 9 -2 9.55 0.49
-10 9 -2 7.88 4.64
10 -9 3 20.64 1.58
10 -9 3 21.41 1.82
-10 9 -3 23.15 6.58
-10 9 -3 17.72 0.7
-10 9 -3 17.3 6.18
10 -9 4 82.88 3.2
10 -9 4 83.11 3.67
-10 9 -4 74.37 1.77
10 -9 5 -0.22 0.44
10 -9 5 0.23 0.36
-10 9 -5 -0.07 0.14
10 -9 6 0.5 0.46
10 -9 6 0.42 0.32
-10 9 -6 0.38 0.14
10 -9 7 0.42 0.39
10 -9 7 0.82 0.32
10 -9 8 1.26 0.46
-10 9 -8 1.26 1.78
10 -9 9 0.73 0.33
10 -9 9 1.2 0.33
10 -9 9 1.59 0.48
10 -9 10 3.19 0.43
-10 9 -10 3.9 1.16
-10 9 -11 40.08 1.44
10 -9 11 44.55 1.6
10 -8 -11 4.29 0.45
-10 8 11 8.76 2.56
10 -8 -10 0.03 0.25
10 -8 -10 -0.54 0.3
-10 8 10 -0.69 1.54
10 -8 -10 0.12 0.28
10 -8 -9 41.93 2.11
10 -8 -9 43.46 2.02
-10 8 9 39.49 7.3
10 -8 -9 47.18 2.25
-10 8 9 43.69 8.1
10 -8 -8 18.6 1.54
10 -8 -8 22.58 1.56
-10 8 8 19.9 6.06
10 -8 -8 21.96 1.75
-10 8 8 15.35 5.74
10 -8 -7 0.9 0.52
10 -8 -7 0.5 0.44
-10 8 7 1.56 2.82
10 -8 -7 0.28 0.52
-10 8 7 0.18 2.93
10 -8 -6 -0.81 0.51
10 -8 -6 -0.02 0.5
-10 8 6 -0.41 2.04
10 -8 -6 -0.13 0.51
-10 8 6 0.98 2.46
10 -8 -5 0.3 0.44
10 -8 -5 0.23 0.48
-10 8 5 -1.28 2.9
10 -8 -5 0.52 0.69
-10 8 5 -0.44 4
10 -8 -4 1.7 0.69
10 -8 -4 1.62 0.62
10 -8 -4 1.41 0.79
10 -8 -4 3.93 1.31
-10 8 4 0.66 2.82
10 -8 -3 16.03 1.74
10 -8 -3 21.06 1.8
10 -8 -3 16.68 2.11
-10 8 3 19.38 7.29
10 -8 -3 18.53 2.14
-10 8 3 14.27 6.53
-10 8 2 5.39 0.91
10 -8 -2 3.52 0.89
10 -8 -2 3.01 0.81
10 -8 -2 5.89 1.67
-10 8 2 3.08 4.4
10 -8 -2 4.16 1.18
-10 8 2 1.11 3.61
-10 8 1 13.44 1.38
10 -8 -1 12.13 1.46
10 -8 -1 11.81 1.4
10 -8 -1 10.24 1.91
-10 8 1 8.76 5.41
10 -8 -1 12.54 1.75
-10 8 1 10.35 6.24
-10 8 0 143.13 5.15
10 -8 0 146.73 5.43
10 -8 0 142.99 5.01
10 -8 0 134.87 7.11
-10 8 0 117.98 17.1
10 -8 0 145.98 6.17
-10 8 0 147.27 20.06
10 -8 1 -0.36 0.49
10 -8 1 -0.46 0.37
10 -8 1 -0.15 0.93
-10 8 -1 -0.42 1.94
10 -8 1 0.04 0.67
-10 8 -1 1.6 3.44
10 -8 2 40.77 2.32
10 -8 2 40.15 2.64
-10 8 -2 37.68 9.42
-10 8 -2 37.69 1.1
-10 8 -2 43.22 11.3
10 -8 3 70.55 3.01
10 -8 3 76.16 3.57
-10 8 -3 64.21 1.61
-10 8 -3 77.37 14.81
10 -8 4 47.93 2.36
10 -8 4 51.86 2.9
-10 8 -4 44.81 1.25
-10 8 -4 55.41 11.89
10 -8 5 4.66 0.94
10 -8 5 4.8 0.75
-10 8 -5 4.75 0.36
10 -8 6 2 0.68
10 -8 6 1.03 0.35
-10 8 -6 2.38 0.27
10 -8 7 33.66 2.1
-10 8 -7 32.29 0.96
10 -8 8 18.97 1.53
-10 8 -8 19.02 5.87
10 -8 9 9.76 0.91
10 -8 9 8.94 0.96
10 -8 9 5.72 0.62
-10 8 -9 6.73 3.44
10 -8 10 0.17 0.26
10 -8 10 0.09 0.27
-10 8 -11 9.66 0.73
10 -8 11 10.77 0.88
-10 7 12 8.83 2.5
10 -7 -11 4.11 0.58
10 -7 -11 4.18 0.52
-10 7 11 2.64 1.11
-10 7 11 2.76 2.09
10 -7 -10 30.44 1.77
10 -7 -10 32.23 1.7
-10 7 10 31.05 5.68
10 -7 -10 35.81 1.67
-10 7 10 29.17 6.74
10 -7 -9 9.24 1.07
10 -7 -9 10.69 1.09
-10 7 9 12.3 4.54
10 -7 -9 11.86 1.16
-10 7 9 5.97 4.02
10 -7 -8 13.46 1.43
10 -7 -8 13.14 1.3
-10 7 8 11.22 4.55
10 -7 -8 13.06 1.41
-10 7 8 14.17 6.24
10 -7 -7 15.5 1.59
10 -7 -7 15.66 1.48
-10 7 7 10.67 4.7
10 -7 -7 15.92 1.74
-10 7 7 9.15 4.77
10 -7 -6 34.33 2.46
10 -7 -6 36.13 2.44
-10 7 6 20.84 6.85
10 -7 -6 34.08 2.62
-10 7 6 34 10.14
10 -7 -5 6.62 1.21
10 -7 -5 5.91 1.06
-10 7 5 2.81 3.6
10 -7 -5 8 1.44
-10 7 5 0.94 2.89
10 -7 -4 0.68 0.54
10 -7 -4 1.04 0.65
-10 7 4 -0.25 2.2
10 -7 -4 1.38 0.72
-10 7 3 26.98 1.81
10 -7 -3 24.45 2.13
10 -7 -3 24.53 2.01
10 -7 -3 24.98 2.49
-10 7 3 26.57 8.55
10 -7 -3 26.14 2.5
-10 7 3 25.44 8.83
-10 7 2 10.67 1.28
10 -7 -2 10.43 1.4
10 -7 -2 9.61 1.25
10 -7 -2 10.23 1.79
-10 7 2 8.84 5.32
10 -7 -2 11.18 1.67
-10 7 2 13.1 7.32
-10 7 1 9.21 1.27
10 -7 -1 9.15 1.26
10 -7 -1 8.8 1.31
10 -7 -1 9.5 1.76
-10 7 1 7.23 4.74
10 -7 -1 8.13 1.52
-10 7 1 8.34 4.31
-10 7 0 12.98 1.58
10 -7 0 15.25 1.7
10 -7 0 12.81 1.42
10 -7 0 14.2 2.21
-10 7 0 13.31 5.97
10 -7 0 15.12 2.01
-10 7 0 20.74 8.65
10 -7 1 44.55 2.8
10 -7 1 39.48 2.34
-10 7 -1 41.79 10.37
10 -7 1 43.99 3.26
-10 7 -1 48.83 11.59
10 -7 2 44.83 2.43
10 -7 2 45.55 2.82
-10 7 -2 30.81 8.55
-10 7 -2 42.44 1.18
-10 7 -2 39.2 10.63
10 -7 3 -0.33 0.61
10 -7 3 0.13 0.39
-10 7 -3 -2.51 3.89
-10 7 -3 0.01 0.15
-10 7 -3 -0.42 2.76
10 -7 4 44.69 2.2
10 -7 4 48.02 2.85
-10 7 -4 46.28 1.29
-10 7 -4 37.21 10.2
10 -7 5 3.09 0.8
-10 7 -5 2.88 0.32
10 -7 6 18.92 1.67
-10 7 -6 16.49 0.68
10 -7 7 9.28 1.16
-10 7 -7 10.35 0.51
10 -7 8 60.62 2.82
-10 7 -8 51.74 10.18
10 -7 9 0.54 0.38
10 -7 9 0.16 0.37
-10 7 -9 -2.03 2.71
10 -7 10 0.1 0.24
10 -7 10 -0.04 0.33
-10 7 -11 4.38 0.52
10 -7 11 5.56 0.71
10 -7 12 3.54 0.46
10 -6 -12 46.13 1.79
10 -6 -12 41.35 1.56
10 -6 -11 1.97 0.53
10 -6 -11 2.41 0.47
-10 6 11 0.71 1.35
10 -6 -10 45.56 2.42
10 -6 -10 46.17 2.28
-10 6 10 42.46 7.08
10 -6 -9 21.09 1.74
10 -6 -9 21.48 1.71
-10 6 9 21.32 6.24
10 -6 -9 23.42 1.65
10 -6 -8 49.74 2.86
10 -6 -8 55.74 2.88
10 -6 -8 53.57 2.93
10 -6 -7 32.09 2.39
10 -6 -7 32.49 2.23
-10 6 7 30.66 8.67
10 -6 -7 31.42 2.39
10 -6 -6 19.05 1.87
10 -6 -6 17.82 1.74
-10 6 6 17.26 6.7
10 -6 -6 19.93 2.01
-10 6 6 25.43 9.04
10 -6 -5 1.96 0.75
10 -6 -5 1.64 0.65
-10 6 5 -1.54 2.95
10 -6 -5 0.49 0.64
-10 6 5 -2.61 4.49
-10 6 4 0.59 0.46
10 -6 -4 2.45 0.77
10 -6 -4 0.04 0.51
-10 6 4 0.32 3.31
10 -6 -4 1.37 0.78
-10 6 4 4.31 4.97
-10 6 3 1.76 0.67
10 -6 -3 1.45 0.6
10 -6 -3 1.72 0.7
-10 6 3 1.9 3.75
10 -6 -3 2.25 1.01
-10 6 3 2.52 3.36
-10 6 2 25.8 2.07
10 -6 -2 22.55 2.09
10 -6 -2 21.38 1.88
10 -6 -2 24.86 2.62
-10 6 2 23.92 8.15
10 -6 -2 26.4 2.51
-10 6 2 25.14 8.61
-10 6 1 1.55 0.74
10 -6 -1 0.61 0.7
10 -6 -1 0.83 0.54
10 -6 -1 -0.04 0.78
-10 6 1 -0.69 2.21
10 -6 -1 1.89 0.92
-10 6 1 -0.1 3.46
-10 6 0 0.73 0.68
10 -6 0 0.4 0.52
10 -6 0 1.02 0.52
-10 6 0 -1.67 3.64
10 -6 0 0.8 0.74
-10 6 0 2.87 3.91
10 -6 1 1.16 0.67
10 -6 1 0.77 0.43
-10 6 -1 0.02 3.28
10 -6 2 5.66 1.1
10 -6 2 4.56 0.78
-10 6 -2 5.39 4.66
-10 6 -2 4.64 0.34
-10 6 -2 2.87 3.53
10 -6 3 -0.37 0.56
10 -6 3 -0.04 0.31
-10 6 -3 3.01 4.27
-10 6 -3 0.1 0.14
-10 6 -3 -0.74 4.13
10 -6 4 45.08 2.72
10 -6 4 37.98 2.29
-10 6 -4 41.62 1.2
10 -6 5 1.77 0.67
10 -6 5 2.29 0.66
-10 6 -5 2.43 0.28
-10 6 -5 4.85 4.26
10 -6 6 12.11 1.38
10 -6 6 9.85 1.14
-10 6 -6 11.03 0.55
10 -6 7 29.76 2.04
10 -6 7 25.84 1.66
-10 6 -7 27.08 0.89
10 -6 8 51.22 2.58
10 -6 8 50.05 2.21
-10 6 -8 50.8 1.3
-10 6 -8 53.46 11.06
10 -6 9 7.93 0.96
10 -6 9 7.89 0.76
-10 6 -9 9.18 4.49
10 -6 10 2.07 0.46
-10 6 -10 1.5 2.01
10 -6 11 1.8 0.49
-10 6 -11 1.84 0.43
10 -6 12 22.52 1.22
10 -5 -13 16.59 0.91
10 -5 -13 13.27 0.73
10 -5 -12 14.01 1.08
10 -5 -12 11.88 0.94
10 -5 -11 30.43 1.87
10 -5 -11 30.53 1.75
10 -5 -10 0.99 0.51
10 -5 -10 1.22 0.5
-10 5 10 0.48 1.7
10 -5 -9 0.11 0.46
10 -5 -9 0.82 0.53
-10 5 9 -1.57 3.15
10 -5 -9 0.24 0.37
10 -5 -8 0.01 0.49
10 -5 -8 0.4 0.45
10 -5 -8 -0.31 0.48
-10 5 8 -0.06 0.46
10 -5 -7 -0.1 0.45
10 -5 -7 0.32 0.47
-10 5 7 0.77 1.93
10 -5 -7 -0.87 0.69
-10 5 7 1.86 0.71
10 -5 -6 14.18 1.68
10 -5 -6 15.71 1.64
-10 5 6 14.43 6.65
10 -5 -6 15.64 1.72
-10 5 6 16.42 1.73
-10 5 5 66.99 2.87
10 -5 -5 57.12 3.41
10 -5 -5 55.72 3.13
-10 5 5 45.96 11.14
10 -5 -5 64.92 3.74
-10 5 5 66.27 3.63
-10 5 5 57.79 13.57
-10 5 4 52.26 2.74
10 -5 -4 47.19 3.1
10 -5 -4 46.19 2.82
-10 5 4 39.7 10.34
10 -5 -4 53.35 3.49
-10 5 4 56.65 13.35
-10 5 3 0.63 0.61
10 -5 -3 0.24 0.61
10 -5 -3 0.28 0.43
-10 5 3 1.94 3.05
10 -5 -3 0.31 0.53
-10 5 3 -0.59 3.71
-10 5 2 65.61 3.42
10 -5 -2 59.52 3.38
10 -5 -2 62.55 3.06
-10 5 2 52.89 11.96
10 -5 -2 64.45 3.96
-10 5 2 60.21 13.52
-10 5 1 36.01 2.56
10 -5 -1 28.89 2.32
10 -5 -1 32.88 2.09
10 -5 -1 35.83 2.92
-10 5 1 31.75 9.74
-10 5 1 23.75 8.55
-10 5 0 14.7 1.71
10 -5 0 14.09 1.59
10 -5 0 14.65 1.34
-10 5 0 14.29 6.82
10 -5 0 16.21 2.04
-10 5 0 12.81 5.61
10 -5 1 20.7 1.89
10 -5 1 18.96 1.43
-10 5 -1 19.86 7.52
-10 5 -1 22.84 8.98
10 -5 2 261.43 7.64
-10 5 -2 235.8 25.2
-10 5 -2 257.99 4.78
-10 5 -2 242.43 27.52
10 -5 3 12.65 1.45
-10 5 -3 9.89 5.33
-10 5 -3 12.72 0.57
-10 5 -3 14.5 6.89
10 -5 4 57.08 3.02
10 -5 4 48.82 2.87
-10 5 -4 54.88 1.43
-10 5 -4 55.5 13.49
10 -5 5 5.4 0.96
10 -5 5 5.63 0.98
-10 5 -5 5.73 0.4
-10 5 -5 5.23 5.1
10 -5 6 32.31 2.16
10 -5 6 29.81 2.09
-10 5 -6 29.98 0.98
10 -5 7 64.89 3.02
10 -5 7 59.83 2.93
-10 5 -7 60.97 1.55
-10 5 -7 53.98 11.77
10 -5 8 21.27 1.59
10 -5 8 20.89 1.59
-10 5 -8 19.02 0.7
-10 5 -8 17.4 6.51
10 -5 9 9.39 1.01
10 -5 9 8.66 0.95
-10 5 -9 8.89 4.62
-10 5 -10 16.55 1.14
10 -5 10 19.97 1.56
10 -5 10 17.07 1.16
-10 5 -10 18.4 5.81
10 -5 11 2.87 0.59
10 -5 11 2.28 0.37
-10 5 -11 2.58 0.54
10 -5 12 1.5 0.39
10 -4 -13 8.93 0.77
10 -4 -13 9.07 0.71
-10 4 13 9.16 3.23
10 -4 -12 11.88 1.09
10 -4 -12 13.34 1.05
10 -4 -11 4.65 0.83
10 -4 -11 4.4 0.8
-10 4 10 1.72 2.24
10 -4 -10 0.93 0.47
10 -4 -10 1.05 0.52
-10 4 10 1.41 0.5
10 -4 -9 3.7 0.83
10 -4 -9 4.36 0.94
-10 4 9 4.31 0.9
10 -4 -8 6.62 1.2
10 -4 -8 7.99 1.17
-10 4 8 11.79 4.71
10 -4 -8 7.42 1.08
-10 4 8 8.31 1.24
10 -4 -7 54.57 3.26
10 -4 -7 55.54 3.12
-10 4 7 63.41 12.03
10 -4 -7 64.56 3.29
-10 4 7 68.86 3.62
-10 4 6 31.89 1.93
10 -4 -6 29.56 2.43
10 -4 -6 31.57 2.28
-10 4 6 28.8 8.39
10 -4 -6 32.97 2.47
-10 4 6 32.79 2.6
-10 4 5 5.43 0.93
10 -4 -5 4.37 1.03
10 -4 -5 3.03 0.84
-10 4 5 1.61 1.87
10 -4 -5 5.86 1.19
-10 4 5 5.43 1.23
-10 4 4 1 0.54
10 -4 -4 1.61 0.74
10 -4 -4 1.25 0.65
-10 4 4 0.87 2.68
10 -4 -4 1.31 0.79
-10 4 4 1.56 0.85
-10 4 4 -2.24 4.71
-10 4 3 6.55 1.15
10 -4 -3 6.81 1.16
10 -4 -3 6.89 1.01
-10 4 3 5.93 3.54
10 -4 -3 6.46 1.2
-10 4 3 6.05 1.27
-10 4 3 7.27 5.56
-10 4 2 25.34 2.13
10 -4 -2 23.43 2.07
10 -4 -2 23.84 1.75
-10 4 2 18.16 7.09
10 -4 -2 25.66 2.39
-10 4 2 19.63 8.91
-10 4 1 7.39 1.3
-10 4 1 11.02 5.23
10 -4 -1 7.81 1.22
10 -4 -1 8.3 1.03
10 -4 -1 8.25 1.39
-10 4 1 1.03 3.86
-10 4 0 23.96 2.21
10 -4 0 23.61 1.99
10 -4 0 23.72 1.6
-10 4 0 19.35 7.59
-10 4 0 18.79 7.12
10 -4 1 0.82 0.51
-10 4 -1 -3.94 3.79
-10 4 -1 3.76 4.58
10 -4 2 4.78 0.93
-10 4 -2 6.09 3.63
-10 4 -2 3.12 4.24
10 -4 3 3.11 0.75
-10 4 -3 3.15 0.29
-10 4 -3 2.67 2.44
10 -4 4 62.72 3.1
-10 4 -4 59.95 1.51
-10 4 -4 57.43 13.71
10 -4 5 1.11 0.6
10 -4 5 0.41 0.43
-10 4 -5 2.02 0.26
10 -4 6 0.25 0.41
-10 4 -6 0.16 0.16
10 -4 7 15.23 1.42
10 -4 7 17.43 1.67
-10 4 -7 14.54 0.64
10 -4 8 15.7 1.33
10 -4 8 13.71 1.38
-10 4 -8 13.91 0.6
-10 4 -9 -0.03 0.47
10 -4 9 -0.03 0.35
10 -4 9 0.44 0.5
10 -4 10 2.67 0.66
10 -4 10 2.44 0.54
-10 4 -10 2.29 2.29
10 -4 11 0.32 0.42
10 -4 11 0.02 0.25
-10 4 -11 0.41 0.47
10 -4 12 8.16 0.77
10 -4 12 6.82 0.54
-10 4 -12 7.1 0.63
10 -3 -13 0.49 0.29
10 -3 -13 -0.18 0.24
10 -3 -12 2.53 0.62
10 -3 -12 2.99 0.62
10 -3 -11 1.6 0.55
10 -3 -11 1.56 0.56
-10 3 11 0.59 0.44
10 -3 -10 4.89 0.95
10 -3 -10 4.95 0.88
-10 3 10 5.47 0.95
10 -3 -9 3.02 0.84
10 -3 -9 5.21 0.96
-10 3 9 5.04 1.04
10 -3 -8 14.69 1.63
10 -3 -8 14.79 1.5
-10 3 8 12.67 5.33
-10 3 8 17.01 1.86
-10 3 7 57.16 2.54
10 -3 -7 46.53 2.98
10 -3 -7 49.41 2.89
-10 3 7 45.99 9.72
-10 3 7 54.47 3.37
-10 3 6 -0.27 0.55
10 -3 -6 0.3 0.45
10 -3 -6 -0.02 0.44
-10 3 6 3.07 4.27
10 -3 -6 0.14 0.49
-10 3 6 0.08 0.66
-10 3 5 38.98 2.43
10 -3 -5 31.72 2.41
10 -3 -5 35.15 2.35
-10 3 5 33.3 9.02
10 -3 -5 39.42 2.66
-10 3 5 41.14 3.02
-10 3 5 31.47 10.11
-10 3 4 177.08 5.89
10 -3 -4 153.97 5.71
10 -3 -4 157.79 5.3
-10 3 4 140.96 18.76
10 -3 -4 177.41 6.25
-10 3 4 186.79 6.82
-10 3 4 150.8 21.6
-10 3 3 0.95 0.67
10 -3 -3 0.18 0.43
10 -3 -3 1.47 0.57
-10 3 3 0.44 2.34
10 -3 -3 1.38 0.66
-10 3 3 2.11 0.87
-10 3 2 81.86 4.01
10 -3 -2 75.96 3.67
10 -3 -2 78.74 3.25
-10 3 2 72.75 13.74
10 -3 -2 87.94 4.39
-10 3 2 93.9 4.73
-10 3 2 80.44 15.57
-10 3 1 8.36 1.32
10 -3 -1 8.66 1.2
-10 3 1 8.46 4.38
-10 3 0 13.02 1.67
10 -3 0 10.95 1.28
-10 3 0 6.93 4.19
-10 3 0 13.81 7.72
-10 3 -1 2.52 0.9
10 -3 1 0.78 0.46
-10 3 -1 -2.79 3.06
-10 3 -1 0.49 2.69
-10 3 -2 -0.91 3.32
-10 3 -2 0.87 0.65
10 -3 2 0.42 0.38
-10 3 -2 3.6 5.85
10 -3 3 0.78 0.49
-10 3 -3 0.09 0.13
-10 3 -3 -1.36 2.97
10 -3 4 2.07 0.6
-10 3 -4 1.47 0.23
-10 3 -4 0.85 3.55
10 -3 5 68.69 3.08
10 -3 5 65.62 3.52
-10 3 -5 69.34 1.69
10 -3 6 111.31 3.96
10 -3 6 109.23 4.59
-10 3 -6 102.48 2.3
-10 3 -7 20.76 1.79
10 -3 7 24.05 1.65
10 -3 7 23.39 1.95
-10 3 -7 21.41 0.79
-10 3 -7 21.72 7.2
-10 3 -8 14.45 1.33
10 -3 8 15.99 1.27
10 -3 8 17.43 1.61
-10 3 -8 17.33 0.67
-10 3 -8 18.2 7.16
10 -3 9 1.44 0.44
10 -3 9 0.81 0.41
-10 3 -9 1.72 2.42
10 -3 10 1.4 0.53
10 -3 10 1.54 0.52
-10 3 -10 0.47 2.46
10 -3 11 2.09 0.54
10 -3 11 2.23 0.49
-10 3 -11 2.62 0.62
10 -3 12 17.22 1.07
10 -3 12 16.58 0.94
-10 3 -12 17.55 1.08
10 -2 -14 0.39 0.23
10 -2 -14 0.42 0.22
10 -2 -13 4.35 0.65
10 -2 -13 4.04 0.61
10 -2 -12 0.68 0.43
10 -2 -12 0.41 0.35
-10 2 12 0.61 0.28
-10 2 12 0.44 0.49
10 -2 -11 2.92 0.72
10 -2 -11 3.75 0.72
-10 2 11 4.91 0.68
-10 2 11 5.33 0.92
10 -2 -10 4.49 0.85
10 -2 -10 3.79 0.86
-10 2 10 4.88 0.73
-10 2 10 5.49 1
10 -2 -9 43.13 2.74
10 -2 -9 44.74 2.68
-10 2 9 51.31 3.13
-10 2 8 25.96 1.65
-10 2 8 21.81 6.25
10 -2 -8 21.2 1.96
10 -2 -8 18.24 1.79
-10 2 8 21.37 2.13
-10 2 7 19.46 1.6
10 -2 -7 16.53 1.75
10 -2 -7 18.13 1.74
-10 2 7 17.54 6.23
-10 2 7 18.76 2.1
-10 2 6 2.29 0.75
10 -2 -6 1.99 0.78
10 -2 -6 1.63 0.5
-10 2 6 1.75 3.47
-10 2 6 2.25 0.96
-10 2 5 7.12 1.22
10 -2 -5 4.94 0.97
10 -2 -5 5.14 0.93
-10 2 5 7.41 4.91
10 -2 -5 5.59 0.98
-10 2 5 6.01 1.23
-10 2 5 2.75 2.61
-10 2 4 6.15 1.17
10 -2 -4 4.91 0.93
10 -2 -4 4.6 0.81
-10 2 4 5.51 3.93
10 -2 -4 7.06 1.35
-10 2 4 4.78 1.23
-10 2 4 0.79 2.95
-10 2 3 5.32 1.14
10 -2 -3 5.5 0.99
10 -2 -3 4.83 0.81
-10 2 3 8.29 5.07
10 -2 -3 6.9 1.15
-10 2 3 6.42 1.38
-10 2 3 8.9 5.51
-10 2 2 1.64 0.81
10 -2 -2 0.17 0.42
-10 2 2 0.04 2.35
-10 2 2 1.54 0.82
-10 2 2 2.24 4.29
-10 2 1 32.99 2.52
10 -2 -1 32.72 2.16
-10 2 1 29.03 8.93
-10 2 1 24.7 9
-10 2 0 7.08 1.31
10 -2 0 5.47 0.95
-10 2 0 5.2 2.68
-10 2 0 4.58 5.03
-10 2 -1 1.98 0.8
10 -2 1 0.7 0.33
-10 2 -2 1.52 0.78
10 -2 2 0.9 0.4
-10 2 -2 5.15 5.05
-10 2 -3 53.63 3.27
10 -2 3 64.18 2.81
-10 2 -3 45.43 11.99
-10 2 -4 46.06 2.91
10 -2 4 51.54 2.44
-10 2 -4 47.72 1.26
-10 2 -5 41.88 2.73
10 -2 5 46.48 2.27
10 -2 5 46.58 2.97
-10 2 -5 45.57 1.25
-10 2 -6 1.36 0.7
10 -2 6 1.29 0.47
10 -2 6 0.85 0.54
-10 2 -6 1.61 0.24
-10 2 -6 1.06 3.51
-10 2 -7 7.31 1.09
10 -2 7 7.82 0.86
10 -2 7 8.86 1.26
-10 2 -7 8.52 0.48
-10 2 -7 7.46 4.08
-10 2 -8 6.41 0.84
10 -2 8 6.03 1.04
-10 2 -8 5.49 0.37
-10 2 -8 9.9 5.55
10 -2 9 15.14 1.44
10 -2 9 15.99 1.52
-10 2 -9 11.08 4.84
10 -2 10 2.54 0.59
10 -2 10 2.45 0.64
10 -2 11 12.58 1.04
10 -2 11 12.31 1.06
-10 2 -11 11.85 1.2
10 -2 12 14.82 0.92
10 -2 12 15.02 0.95
-10 2 -12 15.54 1.05
10 -1 -14 -0.2 0.19
10 -1 -14 -0.27 0.23
10 -1 -13 0.88 0.39
10 -1 -13 0.42 0.34
-10 1 13 1 0.34
-10 1 13 0.98 0.37
10 -1 -12 3.22 0.68
10 -1 -12 1.54 0.53
-10 1 12 3.37 0.58
-10 1 12 3.91 0.74
10 -1 -11 15.56 1.45
10 -1 -11 18.23 1.53
-10 1 11 20.02 1.43
-10 1 11 22.3 1.86
10 -1 -10 8.28 1.14
10 -1 -10 7.98 1.08
-10 1 10 9.3 1.05
-10 1 10 11.76 1.51
10 -1 -9 5.76 1.01
10 -1 -9 5.55 0.98
-10 1 9 5.68 0.84
-10 1 9 5.61 1.14
-10 1 8 22.74 1.71
10 -1 -8 17.04 1.68
10 -1 -8 21.63 1.82
-10 1 8 21.75 1.56
-10 1 8 21.45 2.17
-10 1 7 117.12 4.32
10 -1 -7 90.81 4.09
10 -1 -7 99.56 4.1
-10 1 7 92.56 12.67
-10 1 7 110.38 5.1
-10 1 6 42.71 2.88
10 -1 -6 35.37 2.4
10 -1 -6 34.59 2.24
-10 1 6 33.65 8.26
-10 1 6 39.58 3.03
-10 1 6 40.29 11.2
-10 1 5 8.69 1.32
10 -1 -5 8.28 1.15
10 -1 -5 8.77 1.08
-10 1 5 11.24 4.65
-10 1 5 11.83 1.68
-10 1 5 7.47 5.09
-10 1 4 11.09 1.46
10 -1 -4 9.28 1.2
10 -1 -4 8.7 1.03
-10 1 4 8.48 4.83
-10 1 4 9.15 1.55
-10 1 4 7.38 6.19
-10 1 3 14.82 1.69
10 -1 -3 10.71 1.23
-10 1 3 10.79 5.38
-10 1 3 13.64 1.85
-10 1 3 4.22 5.08
-10 1 2 54.67 3.19
10 -1 -2 44.44 2.5
-10 1 2 52.79 11.34
-10 1 2 49.43 3.43
-10 1 2 44.05 11.33
-10 1 1 6.52 1.22
10 -1 -1 4.87 0.83
-10 1 1 5.37 4.99
-10 1 1 5.3 1.2
-10 1 1 2.71 3.88
-10 1 0 6.33 1.22
10 -1 0 5.83 0.87
-10 1 0 1.56 2.75
-10 1 0 4.5 3.83
-10 1 -1 15.18 1.72
-10 1 -1 12.24 6.32
-10 1 -2 1.64 0.73
-10 1 -2 1.87 3.02
-10 1 -3 119.19 4.9
-10 1 -3 105.87 17.24
-10 1 -4 159.23 5.73
-10 1 -4 168.21 3.27
-10 1 -4 144.5 20.54
-10 1 -5 118.33 4.59
10 -1 5 118.85 5.06
-10 1 -5 120.94 2.53
-10 1 -5 112.62 16.68
-10 1 -6 1.58 0.72
10 -1 6 1.48 0.64
-10 1 -6 1.16 0.21
-10 1 -6 -0.32 4.34
-10 1 -7 33.05 1.91
10 -1 7 33.91 2.43
-10 1 -7 31.33 0.97
-10 1 -7 31.93 8.92
10 -1 8 0.56 0.54
10 -1 8 0.08 0.52
-10 1 -8 -0.15 0.13
10 -1 9 77.95 3.16
10 -1 9 71.13 3.29
-10 1 -9 71.97 12.43
10 -1 10 2.12 0.54
10 -1 10 2.05 0.65
-10 1 -10 0.92 0.55
10 -1 11 4.69 0.64
10 -1 11 5.16 0.68
-10 1 -11 5.59 0.91
10 -1 12 15.4 0.85
10 -1 12 16.32 1
-10 1 -12 16.56 1.1
10 0 -14 3.36 0.42
10 0 -14 3.75 0.5
-10 0 14 8.62 0.64
-10 0 14 8.05 0.67
10 0 -13 6.73 0.76
10 0 -13 7.84 0.89
-10 0 13 11.86 0.96
-10 0 13 10.36 0.82
-10 0 13 11.35 1.07
-10 0 13 12.53 3.46
10 0 -12 0.24 0.31
10 0 -12 -0.39 0.42
-10 0 12 1.09 0.58
-10 0 12 1.78 0.66
10 0 -11 3.51 0.69
10 0 -11 3.38 0.69
-10 0 11 4.09 0.78
-10 0 11 4.25 0.92
10 0 -10 12.89 1.33
10 0 -10 14.48 1.43
-10 0 10 17.9 1.53
-10 0 10 15.6 1.71
-10 0 9 42.65 2.23
10 0 -9 33.37 2.3
10 0 -9 33.06 2.23
-10 0 9 36.3 2.25
-10 0 9 41.12 2.93
-10 0 8 12.47 1.38
10 0 -8 10.21 1.29
10 0 -8 8.71 1.19
-10 0 8 11.82 1.28
-10 0 8 13.71 1.8
-10 0 7 -0.16 0.57
10 0 -7 0.1 0.38
10 0 -7 0.33 0.44
-10 0 7 0.66 0.41
-10 0 7 -0.28 0.75
-10 0 6 68.62 3.47
10 0 -6 59.9 2.93
10 0 -6 60.18 2.86
-10 0 6 51.91 9.52
-10 0 6 67.11 3.96
-10 0 6 59.01 12.36
-10 0 5 58.87 3.27
10 0 -5 53.37 2.69
10 0 -5 52.96 2.52
-10 0 5 55.49 10.55
-10 0 5 54.29 3.6
-10 0 5 49.39 11.69
-10 0 4 44.34 2.87
10 0 -4 39.38 2.26
-10 0 4 38.56 9.44
-10 0 4 45.87 3.24
-10 0 4 34.57 10.01
-10 0 3 7.33 1.32
-10 0 3 5.55 3.74
-10 0 3 6.09 1.23
-10 0 3 1.69 3.6
-10 0 2 101.51 4.48
-10 0 2 73.45 13.11
-10 0 2 91.52 4.65
-10 0 2 77.79 13.86
-10 0 1 22.46 2.1
-10 0 1 15.35 6.6
-10 0 1 20.71 2.14
-10 0 1 11.88 5.48
-10 0 0 1.23 0.74
-10 0 0 2.28 3.64
-10 0 -1 2.84 0.96
-10 0 -1 2.92 0.72
-10 0 -1 6.65 5.07
-10 0 -2 0.05 0.6
-10 0 -2 0.97 3.37
-10 0 -3 0.52 0.7
-10 0 -3 7.79 6.32
-10 0 -4 16.17 1.62
10 0 4 14.62 1.71
-10 0 -4 11.62 5.89
-10 0 -5 7.27 1.06
10 0 5 7.94 1.3
-10 0 -5 7.99 0.43
-10 0 -5 6.34 3.61
-10 0 -6 84.07 3.26
10 0 6 88.93 4.17
-10 0 -6 85.92 1.93
-10 0 -6 82.04 13.72
10 0 7 -0.3 0.37
10 0 7 0.92 0.64
-10 0 -7 -0.01 0.13
-10 0 -7 -0.84 2.46
10 0 8 13.79 1.21
10 0 8 13.36 1.47
-10 0 -8 10.82 0.51
-10 0 -8 14.7 5.68
10 0 9 1.81 0.53
10 0 9 0.84 0.5
10 0 10 29.37 1.56
10 0 10 30.49 1.86
-10 0 -10 29.17 2.16
10 0 11 0.93 0.32
10 0 11 0.67 0.3
10 0 11 0.92 0.35
-10 0 -11 1.25 0.59
10 0 12 7.03 0.62
-10 0 -12 6.65 0.67
10 1 -14 0.4 0.24
-10 -1 14 1.37 0.33
-10 -1 14 1.41 0.39
10 1 -13 1.22 0.35
10 1 -13 1.28 0.43
-10 -1 13 1.85 0.44
-10 -1 13 1.06 0.54
10 1 -12 7.45 0.81
10 1 -12 5.03 0.81
-10 -1 12 10.36 1.06
-10 -1 12 8.78 1.22
-10 -1 12 9.19 3.5
10 1 -11 5.61 0.8
10 1 -11 5.98 0.91
-10 -1 11 7.65 1.02
-10 -1 11 8.53 1.27
-10 -1 10 5.03 0.78
10 1 -10 2.42 0.55
-10 -1 10 5.2 0.92
-10 -1 10 5.22 1.12
-10 -1 9 0.84 0.59
10 1 -9 1.22 0.45
-10 -1 9 1.09 0.57
-10 -1 9 0.55 0.64
-10 -1 8 5.73 1.05
10 1 -8 4.51 0.78
10 1 -8 4.5 0.83
-10 -1 8 6.43 0.99
-10 -1 8 6.1 1.29
-10 -1 8 2.43 2.59
-10 -1 7 2.73 0.85
10 1 -7 1.58 0.57
-10 -1 7 2.29 0.74
-10 -1 7 2.24 1.06
-10 -1 7 4.79 5.17
-10 -1 6 21.41 2.01
10 1 -6 19.54 1.49
-10 -1 6 19.73 1.58
-10 -1 6 21.35 2.25
-10 -1 6 20.26 7.31
-10 -1 5 1.1 0.7
-10 -1 5 2.48 2.94
-10 -1 5 0.37 0.69
-10 -1 5 0.28 3.55
-10 -1 4 6.06 1.19
-10 -1 4 5.73 3.31
-10 -1 4 5.63 1.23
-10 -1 4 11.4 5.66
-10 -1 3 0.14 0.79
-10 -1 3 0.82 0.6
-10 -1 3 3.19 5.1
-10 -1 2 253.28 7.79
-10 -1 2 251.2 8.15
-10 -1 1 16.99 1.8
-10 -1 1 15.71 1.87
-10 -1 0 1.07 0.8
-10 -1 0 -0.34 0.58
-10 -1 0 -1.23 4.95
-10 -1 -1 1.37 0.74
-10 -1 -1 1.38 0.86
-10 -1 -1 0.83 3.68
-10 -1 -2 20.1 1.85
-10 -1 -2 11.29 5.34
-10 -1 -3 133.18 4.87
-10 -1 -3 127.77 15.26
-10 -1 -4 16.59 1.53
10 1 4 18.24 2.01
-10 -1 -5 37.7 2.13
10 1 5 40.4 2.79
-10 -1 -5 39.79 1.1
-10 -1 -5 36.45 9.09
10 1 6 0.01 0.47
-10 -1 -6 0.07 0.13
-10 -1 -6 0.45 3.52
10 1 7 3.06 0.84
-10 -1 -7 3.28 0.29
-10 -1 -7 3.52 4.01
10 1 8 0.4 0.47
10 1 9 0.64 0.47
-10 -1 -9 0.04 0.54
10 1 10 14.01 1.21
-10 -1 -10 11.93 1.33
10 1 11 0.49 0.27
10 1 11 0.39 0.26
-10 -1 -11 0.68 0.28
10 1 12 5.52 0.5
-10 -1 -12 4.85 0.55
10 2 -14 0.37 0.23
-10 -2 14 1.16 0.32
-10 -2 14 0.89 0.36
-10 -2 13 5.14 0.72
-10 -2 13 4.45 0.79
10 2 -12 0.24 0.3
-10 -2 12 0.99 0.49
-10 -2 12 0.77 0.44
-10 -2 12 0.58 0.44
-10 -2 11 15.29 1.17
-10 -2 11 15.69 1.46
-10 -2 11 15.63 1.73
-10 -2 10 2.35 0.65
-10 -2 10 2.48 0.7
-10 -2 10 3.28 1.03
-10 -2 9 67.63 3.2
-10 -2 9 69.76 3.38
-10 -2 9 68.78 3.86
-10 -2 8 3.35 0.85
-10 -2 8 1.84 0.66
-10 -2 8 2.48 0.98
-10 -2 7 0.12 0.61
-10 -2 7 -0.08 0.39
-10 -2 7 -0.04 0.64
-10 -2 6 19.87 1.92
-10 -2 6 18.39 1.64
-10 -2 6 16.98 2.01
-10 -2 5 4.76 1.17
-10 -2 5 3.79 0.76
-10 -2 5 3.53 1
-10 -2 4 10.99 1.48
-10 -2 4 10.64 1.2
-10 -2 4 7.54 1.34
-10 -2 3 117.8 4.86
-10 -2 3 108.34 4.04
-10 -2 3 104.21 4.9
-10 -2 2 32.17 2.46
-10 -2 2 30.26 2.5
-10 -2 1 2.05 0.8
-10 -2 1 2.79 0.83
-10 -2 1 2.5 0.8
-10 -2 1 -0.1 3.74
-10 -2 0 2.5 0.83
-10 -2 0 1.95 0.74
-10 -2 0 3.43 2.77
-10 -2 -1 90.99 4.07
-10 -2 -1 97.34 4.2
-10 -2 -1 86.71 13.31
-10 -2 -2 21.86 1.85
-10 -2 -2 20.53 1.77
-10 -2 -3 45.7 2.55
-10 -2 -4 89.11 3.43
10 2 4 93.59 4.29
-10 -2 -4 99.91 12.91
10 2 5 7.15 1.15
-10 -2 -5 9.01 4.69
10 2 6 52.17 3.05
-10 -2 -6 48.21 1.21
-10 -2 -6 51.96 9.89
10 2 7 0.14 0.47
-10 -2 -7 0.64 0.15
10 2 8 3.77 0.77
-10 -2 -8 3.17 0.87
10 2 9 -0.23 0.39
-10 -2 -9 0.68 0.46
10 2 10 4.35 0.67
-10 -2 -10 3.29 0.52
-10 -2 -10 3.92 0.76
10 2 11 1.11 0.33
10 2 11 0.76 0.29
-10 -2 -11 1.35 0.43
-10 -3 14 5.35 0.59
-10 -3 14 4.55 0.62
-10 -3 13 19.26 1.33
-10 -3 13 18.94 1.47
-10 -3 12 20.56 1.17
10 3 -12 16.18 1.19
-10 -3 12 22.49 1.62
-10 -3 12 20.53 1.33
-10 -3 12 20.53 1.71
-10 -3 11 0.8 0.44
-10 -3 11 1.47 0.56
-10 -3 11 1.89 0.61
-10 -3 11 1.73 0.77
-10 -3 10 15.44 1.41
-10 -3 10 14.99 1.51
-10 -3 10 11.31 1.43
-10 -3 10 11.1 1.53
-10 -3 9 28.53 2.06
-10 -3 9 23.71 2.01
-10 -3 9 24.01 2.32
-10 -3 8 2.23 0.76
-10 -3 8 2.29 0.71
-10 -3 8 1.61 0.82
-10 -3 7 0.98 0.7
-10 -3 7 -0.34 0.51
-10 -3 7 0.41 0.74
-10 -3 6 15.6 1.77
-10 -3 6 16.64 1.48
-10 -3 6 17.3 1.64
-10 -3 6 13.98 1.81
-10 -3 5 66.72 3.56
-10 -3 5 65.94 3.2
-10 -3 5 59.24 3.66
-10 -3 4 1.6 0.81
-10 -3 4 1.98 0.57
-10 -3 4 2.19 0.51
-10 -3 4 2.5 0.9
-10 -3 3 9.04 1.35
-10 -3 3 9.55 1.11
-10 -3 3 7.86 1.11
-10 -3 3 7.83 1.42
-10 -3 3 7.11 1.25
-10 -3 2 5.73 1.18
-10 -3 2 7.56 1.01
-10 -3 2 6.16 1.06
-10 -3 2 4.57 1.11
-10 -3 2 4.69 1.03
-10 -3 1 5.77 1.01
-10 -3 1 5.99 1.27
-10 -3 0 3.89 1
-10 -3 0 2.07 0.82
-10 -3 -1 10.13 1.36
-10 -3 -1 12.34 1.54
-10 -3 -2 4.41 0.93
-10 -3 -2 1.75 0.6
-10 -3 -3 18.89 1.5
10 3 3 18.87 1.84
10 3 4 38.76 2.6
10 3 5 1.24 0.57
10 3 6 57.29 3.04
-10 -3 -7 1.15 0.49
10 3 7 1.78 0.62
-10 -3 -7 2.45 0.79
10 3 8 1.63 0.55
-10 -3 -8 1.2 0.58
10 3 9 3.23 0.63
-10 -3 -9 3.55 0.61
-10 -3 -9 3.72 0.81
10 3 10 4.94 0.73
10 3 10 4.12 0.55
-10 -3 -10 3.87 0.47
-10 -3 -10 4.62 0.76
10 3 11 2.34 0.4
10 3 11 2.33 0.33
-10 -3 -11 2.27 0.43
-10 -4 14 12.59 0.86
-10 -4 14 10.68 0.89
-10 -4 13 7.02 0.81
-10 -4 13 4.74 0.8
-10 -4 12 2.67 0.46
-10 -4 12 2.38 0.45
10 4 -12 1.75 0.43
-10 -4 12 3.97 0.73
-10 -4 12 2.79 0.76
-10 -4 11 9.63 1.01
-10 -4 11 10.03 1.18
-10 -4 11 9.58 1.08
-10 -4 11 8.47 1.21
-10 -4 10 9.82 1.19
-10 -4 10 9.57 1.21
-10 -4 10 8.33 1.18
-10 -4 10 7.96 1.29
-10 -4 9 70.1 3.29
-10 -4 9 64.2 3.33
-10 -4 9 62.74 3.53
-10 -4 9 61.57 3.6
-10 -4 8 1.94 0.73
-10 -4 8 2 0.7
-10 -4 8 2.83 0.92
-10 -4 8 2.66 0.86
-10 -4 8 0.28 2.79
-10 -4 7 112.95 4.61
-10 -4 7 104.99 4.39
-10 -4 7 104.49 5.02
-10 -4 7 94.42 4.65
-10 -4 7 97.86 12.14
-10 -4 6 1.02 0.63
-10 -4 6 0.16 0.46
-10 -4 6 0.32 0.49
-10 -4 6 0.13 0.57
-10 -4 6 -0.31 0.54
-10 -4 5 3.99 1.02
-10 -4 5 4.33 0.96
-10 -4 5 5.24 0.98
-10 -4 5 3.84 1.03
-10 -4 5 3.75 0.94
-10 -4 4 6.16 1.1
-10 -4 4 7.49 1.1
-10 -4 4 5.77 0.92
-10 -4 4 6.37 1.3
-10 -4 4 5.38 1.16
-10 -4 3 34.17 2.51
-10 -4 3 34.38 2.25
-10 -4 3 32.07 2.25
-10 -4 3 31.24 2.7
-10 -4 3 30.39 2.32
-10 -4 2 23.8 2.08
-10 -4 2 23.84 1.81
-10 -4 2 22.46 2.02
-10 -4 2 22.19 2.29
-10 -4 2 19.67 1.81
-10 -4 1 32.72 2.34
-10 -4 1 36.37 2.2
-10 -4 1 32.52 2.49
-10 -4 1 33.69 2.71
-10 -4 0 0.35 0.52
-10 -4 0 0.39 0.58
-10 -4 0 1.5 0.77
-10 -4 0 0.94 0.72
-10 -4 -1 38.62 2.34
-10 -4 -1 38.2 2.68
-10 -4 -2 -0.41 0.49
-10 -4 -2 0.01 0.43
10 4 2 0.36 0.58
10 4 3 36.25 2.48
-10 -4 -3 38.01 2.29
10 4 4 17.22 1.64
10 4 5 33.18 2.23
-10 -4 -5 28.66 2.36
-10 -4 -6 56.32 2.62
10 4 6 62.29 2.99
-10 -4 -6 56.02 3.25
10 4 7 14.41 1.31
-10 -4 -7 12.57 1.31
-10 -4 -7 14.64 1.55
10 4 8 5.6 0.77
-10 -4 -8 4.94 0.75
-10 -4 -8 5.97 1.01
10 4 9 0.84 0.35
-10 -4 -9 0.26 0.28
-10 -4 -9 0.87 0.47
10 4 10 0.06 0.25
10 4 10 -0.27 0.23
-10 -4 -10 0.29 0.32
-10 -5 14 2.07 0.35
-10 -5 14 1.67 0.35
-10 -5 13 0.83 0.36
-10 -5 13 -0.09 0.33
-10 -5 12 16.48 1.13
-10 -5 12 18.52 1.42
-10 -5 12 15.72 1.43
-10 -5 11 17.47 1.38
-10 -5 11 19.36 1.61
-10 -5 11 15.95 1.28
-10 -5 11 16.08 1.6
-10 -5 10 6.51 1.01
-10 -5 10 5.77 1.02
-10 -5 10 5.67 0.93
-10 -5 10 6.34 1.15
-10 -5 9 1.58 0.68
-10 -5 9 1.57 0.61
-10 -5 9 2.03 0.79
-10 -5 9 0.77 0.61
-10 -5 9 3.05 3.07
-10 -5 8 15.58 1.63
-10 -5 8 14.08 1.57
-10 -5 8 15.2 1.79
-10 -5 8 15.57 1.75
-10 -5 7 62.07 3.29
-10 -5 7 59.88 3.25
-10 -5 7 59.78 3.63
-10 -5 7 50.47 3.17
-10 -5 7 59.82 10.06
-10 -5 6 65.59 3.46
-10 -5 6 67.49 3.14
-10 -5 6 61.34 3.32
-10 -5 6 60.92 3.74
-10 -5 6 57.05 3.31
-10 -5 5 20.84 1.91
-10 -5 5 19.98 1.81
-10 -5 5 19.87 1.84
-10 -5 5 19.24 1.62
-10 -5 5 20.17 2.18
-10 -5 5 18.15 1.85
-10 -5 4 38.44 2.64
-10 -5 4 37.47 2.71
-10 -5 4 37.64 2.51
-10 -5 4 38.93 2.45
-10 -5 4 39.45 3.06
-10 -5 4 32.78 2.35
-10 -5 3 0.26 0.62
-10 -5 3 -0.52 0.6
-10 -5 3 0.64 0.51
-10 -5 3 0.85 0.57
-10 -5 3 -0.09 0.58
-10 -5 3 0.68 0.49
-10 -5 2 14.3 1.57
-10 -5 2 14.84 1.51
-10 -5 2 12.99 1.56
-10 -5 2 13.01 1.74
-10 -5 1 17.25 1.66
-10 -5 1 17.15 1.59
-10 -5 1 17.43 1.85
-10 -5 1 17.27 1.95
-10 -5 0 8.83 1.18
-10 -5 0 8.35 1.33
-10 -5 0 8.21 1.3
-10 -5 0 6.72 1.26
-10 -5 -1 26.73 1.76
10 5 1 27.97 2.03
-10 -5 -1 31.72 2.5
-10 -5 -1 28.21 2.36
10 5 2 10.71 1.24
-10 -5 -2 13.3 1.71
-10 -5 -2 12.89 1.54
-10 -5 -3 -0.01 0.57
-10 -5 -3 0.48 0.58
10 5 3 -0.09 0.41
-10 -5 -3 0.26 0.45
-10 -5 -3 -0.32 0.5
-10 -5 -4 1.08 0.63
-10 -5 -4 1.09 0.76
10 5 4 0.43 0.37
-10 -5 -4 0.89 0.45
-10 -5 -5 14 1.41
10 5 5 16.8 1.42
-10 -5 -5 15.51 1.58
-10 -5 -5 15.29 1.52
-10 -5 -6 4.59 0.65
-10 -5 -6 4.9 0.88
10 5 6 3.91 0.65
-10 -5 -6 4.32 0.87
10 5 7 0.12 0.33
-10 -5 -7 0.3 0.4
-10 -5 -7 0.29 0.38
10 5 8 27.64 1.39
-10 -5 -8 26.64 1.42
-10 -5 -8 27.97 1.8
10 5 9 8.67 0.93
10 5 9 8.77 0.64
-10 -5 -9 10.78 0.97
10 5 10 6.25 0.58
-10 -6 13 56.18 2.07
-10 -6 13 42.88 1.94
-10 -6 12 3.31 0.61
-10 -6 12 2.83 0.58
-10 -6 12 2.36 0.61
-10 -6 11 4.35 0.7
-10 -6 11 4.34 0.79
-10 -6 11 4.01 0.63
-10 -6 11 4.22 0.82
-10 -6 10 10.25 1.17
-10 -6 10 8.51 1.16
-10 -6 10 7.74 0.98
-10 -6 10 7.87 1.13
-10 -6 10 6.53 3.16
-10 -6 9 110.22 4.09
-10 -6 9 101.86 4.15
-10 -6 9 103.61 4.23
-10 -6 9 90.46 3.98
-10 -6 9 104.89 12.15
-10 -6 8 11.73 1.36
-10 -6 8 12.99 1.47
-10 -6 8 12.74 1.55
-10 -6 8 9.94 1.33
-10 -6 8 13.61 5.52
-10 -6 7 22.91 2
-10 -6 7 16.48 1.36
-10 -6 7 19.08 1.79
-10 -6 7 19.72 1.98
-10 -6 7 16.31 1.66
-10 -6 6 1.97 0.72
-10 -6 6 1.74 0.62
-10 -6 6 2.21 0.72
-10 -6 6 1.93 0.52
-10 -6 6 2.17 0.9
-10 -6 6 2.17 0.7
-10 -6 5 1.79 0.78
-10 -6 5 0.67 0.64
-10 -6 5 1.09 0.55
-10 -6 5 1.28 0.61
-10 -6 5 1.76 0.87
-10 -6 5 0.44 0.42
-10 -6 4 0.98 0.63
-10 -6 4 1.34 0.62
-10 -6 4 1.42 0.54
-10 -6 4 1.74 0.6
-10 -6 4 1.55 0.85
-10 -6 4 1.22 0.63
-10 -6 3 4.43 0.94
-10 -6 3 4.89 1.03
-10 -6 3 4.91 0.95
-10 -6 3 5.21 1.04
-10 -6 3 3.7 1.06
-10 -6 2 40.87 2.47
-10 -6 2 43.69 2.98
-10 -6 2 42.64 2.65
-10 -6 2 42.15 2.81
-10 -6 2 40.69 3
-10 -6 1 5.95 0.98
-10 -6 1 6.39 1.26
-10 -6 1 6.92 1.18
-10 -6 1 6.72 1.19
-10 -6 1 5.54 1.19
-10 -6 0 10.26 1.12
-10 -6 0 11.22 1.67
10 6 0 11.22 1.11
-10 -6 0 10.39 1.47
-10 -6 0 9.93 1.51
-10 -6 -1 1.03 0.66
-10 -6 -1 1.48 0.78
10 6 1 0.53 0.37
-10 -6 -1 1.25 0.73
-10 -6 -2 2.12 0.94
-10 -6 -2 2.6 0.86
10 6 2 1.74 0.57
-10 -6 -2 1.99 0.71
-10 -6 -3 4.41 1.03
-10 -6 -3 4.6 1.11
10 6 3 3.6 0.65
-10 -6 -3 2.98 0.77
-10 -6 -4 0.27 0.54
-10 -6 -4 0.05 0.52
10 6 4 0.3 0.33
-10 -6 -4 0.04 0.37
-10 -6 -5 37.16 2.05
10 6 5 40.52 1.85
-10 -6 -5 36.37 2.28
-10 -6 -5 35.18 2.08
10 6 6 10.94 0.86
-10 -6 -6 11.8 1.16
-10 -6 -6 9.57 1.04
10 6 7 17.2 0.97
-10 -6 -7 15.75 1.14
-10 -6 -7 16.54 1.27
-10 -6 -8 10.75 0.71
-10 -6 -8 14 1.03
10 6 9 2.36 0.43
-10 -6 -9 1.58 0.33
-10 -7 13 17.12 1.04
-10 -7 13 19.48 1.03
-10 -7 12 0.9 0.55
-10 -7 12 1.11 0.37
-10 -7 12 0.64 0.34
-10 -7 11 199.5 5.08
-10 -7 11 199.3 5.34
-10 -7 10 17.22 1.38
-10 -7 10 16.97 1.47
-10 -7 10 15.01 1.2
-10 -7 10 13.05 1.25
-10 -7 9 237.13 6.74
-10 -7 9 231.78 6.5
-10 -7 8 34.11 2.19
-10 -7 8 31.96 2.23
-10 -7 8 33.42 2.33
-10 -7 7 4.93 0.92
-10 -7 7 3.7 0.62
-10 -7 7 5.64 1
-10 -7 7 5.94 1.14
-10 -7 7 5.92 0.86
-10 -7 6 12.01 1.44
-10 -7 6 10.5 1.22
-10 -7 6 11.47 1.43
-10 -7 6 10.9 1.13
-10 -7 6 10.4 1.49
-10 -7 5 5.04 0.93
-10 -7 5 6.4 1.06
-10 -7 5 5.64 0.91
-10 -7 5 5.74 1.05
-10 -7 5 5.54 0.98
-10 -7 5 5.13 1.09
-10 -7 4 7.78 1.13
-10 -7 4 8.81 1.34
-10 -7 4 7.65 1.04
-10 -7 4 8.13 1.22
-10 -7 4 7.58 1.14
-10 -7 4 7.82 1.35
-10 -7 3 10.02 1.2
-10 -7 3 10.91 1.47
-10 -7 3 9.96 1.1
-10 -7 3 10.86 1.4
-10 -7 3 9.9 1.5
-10 -7 3 10.45 1.34
-10 -7 2 0.51 0.47
-10 -7 2 -0.12 0.6
-10 -7 2 0.57 0.74
-10 -7 2 -0.05 0.6
-10 -7 2 0.2 0.6
-10 -7 1 1.26 0.5
-10 -7 1 1.07 0.74
-10 -7 1 1.1 0.83
-10 -7 1 2.31 1.27
-10 -7 1 0.92 0.79
-10 -7 0 17.07 1.86
-10 -7 0 16.77 1.76
-10 -7 0 16.37 1.82
-10 -7 -1 22.87 2.04
-10 -7 -1 22.65 2.01
-10 -7 -1 19.66 1.94
-10 -7 -2 70.22 3.46
-10 -7 -2 65.72 3.39
-10 -7 -2 62.97 3.25
-10 -7 -3 49.23 2.71
-10 -7 -3 47.26 2.71
-10 -7 -3 43.23 2.47
-10 -7 -4 3.1 0.71
-10 -7 -4 3.91 0.86
-10 -7 -5 10.84 0.95
-10 -7 -5 12.69 1.23
-10 -7 -6 1.49 0.46
-10 -7 -7 0.61 0.27
-10 -7 -7 0.01 0.31
10 7 8 0.44 0.23
-10 -7 -8 0.2 0.23
-10 -8 12 0.48 0.32
-10 -8 12 0.22 0.24
-10 -8 11 12.59 1.04
-10 -8 11 12.97 1.18
-10 -8 11 12.75 1.06
-10 -8 10 7.6 0.92
-10 -8 10 5.48 0.86
-10 -8 10 7.56 0.91
-10 -8 10 6.87 0.71
-10 -8 9 21.78 1.56
-10 -8 9 19.02 1.63
-10 -8 9 20.29 1.6
-10 -8 9 18.24 1.39
-10 -8 8 2.98 0.74
-10 -8 8 0.96 0.59
-10 -8 8 1.5 0.54
-10 -8 8 1.66 0.64
-10 -8 7 0.09 0.49
-10 -8 7 0.67 0.43
-10 -8 7 0.66 0.53
-10 -8 7 0.2 0.42
-10 -8 7 0.94 0.58
-10 -8 6 1.2 0.51
-10 -8 6 0.58 0.42
-10 -8 6 0.69 0.56
-10 -8 6 1.68 0.62
-10 -8 6 0.6 0.52
-10 -8 6 1.39 0.67
-10 -8 5 0.95 0.59
-10 -8 5 0.96 0.57
-10 -8 5 1.9 0.73
-10 -8 5 1.67 0.63
-10 -8 5 1.29 0.6
-10 -8 5 0.5 0.52
-10 -8 4 6.3 0.94
-10 -8 4 6.38 1.1
-10 -8 4 7.18 1.04
-10 -8 4 6.55 1.06
-10 -8 4 5.96 1.02
-10 -8 4 7.64 1.3
-10 -8 3 1.99 0.7
-10 -8 3 1.6 0.7
-10 -8 3 1.27 0.66
-10 -8 3 0.42 0.59
-10 -8 3 1.39 0.64
-10 -8 3 1.22 0.61
-10 -8 2 0.25 0.45
-10 -8 2 -0.27 0.6
-10 -8 2 -0.52 1.03
-10 -8 2 -0.51 0.6
-10 -8 2 0.43 0.67
-10 -8 1 10.32 1.38
-10 -8 1 9.55 1.35
-10 -8 1 8.93 1.4
-10 -8 0 0.8 0.64
-10 -8 0 1.27 0.62
-10 -8 0 1.17 0.64
-10 -8 0 1.18 0.47
-10 -8 -1 28 2.1
-10 -8 -1 27.36 2.06
-10 -8 -1 26.9 2.14
-10 -8 -2 54.96 2.89
-10 -8 -2 64.74 3.08
-10 -8 -2 58.33 3.01
-10 -8 -3 74.63 3.1
-10 -8 -3 81.15 3.34
-10 -8 -4 0.51 0.37
-10 -8 -4 1.08 0.57
-10 -8 -4 0.29 0.38
-10 -8 -5 0.93 0.43
-10 -8 -5 0.34 0.38
-10 -8 -6 40.37 1.5
-10 -8 -6 40.72 1.98
-10 -8 -7 4.79 0.59
-10 -9 11 16.99 1.13
-10 -9 11 19.83 1.15
-10 -9 10 73.28 2.57
-10 -9 10 67.25 2.71
-10 -9 10 72.69 2.69
-10 -9 9 16.2 1.24
-10 -9 9 13.95 1.26
-10 -9 9 16 1.31
-10 -9 9 12.27 0.98
-10 -9 8 45.76 2.18
-10 -9 8 44.82 2.4
-10 -9 8 46.7 2.38
-10 -9 8 41.13 2.13
-10 -9 7 2.25 0.66
-10 -9 7 2.33 0.72
-10 -9 7 2.42 0.69
-10 -9 7 0.97 0.39
-10 -9 7 1.82 0.61
-10 -9 6 43.96 2.23
-10 -9 6 44.35 2.48
-10 -9 6 47.13 2.61
-10 -9 6 43.68 2.16
-10 -9 6 43.06 2.61
-10 -9 5 0.74 0.48
-10 -9 5 0.3 0.51
-10 -9 5 0.28 0.57
-10 -9 5 0.35 0.45
-10 -9 5 0.36 0.52
-10 -9 4 72.29 2.83
-10 -9 4 75.05 3.46
-10 -9 4 80.6 3.25
-10 -9 4 77.43 3.52
-10 -9 4 79.28 3.37
-10 -9 4 74.96 3.69
-10 -9 3 9.19 0.88
-10 -9 3 8.48 1.17
-10 -9 3 10.28 1.53
-10 -9 3 11.08 1.57
-10 -9 3 10.66 1.24
-10 -9 3 10.21 1.41
-10 -9 2 9.92 1.35
-10 -9 2 9.65 1.25
-10 -9 2 9.08 1.34
-10 -9 1 0.08 0.56
-10 -9 1 1.21 0.61
-10 -9 1 0.18 0.61
-10 -9 0 0.17 0.54
-10 -9 0 -0.55 0.51
-10 -9 0 -0.67 0.57
-10 -9 0 -0.09 0.3
-10 -9 -1 15.77 1.49
-10 -9 -1 20.83 1.66
-10 -9 -1 17.37 1.7
-10 -9 -1 18.69 1.44
-10 -9 -2 9.2 1.07
-10 -9 -2 12.43 1.22
-10 -9 -2 10.54 1.09
-10 -9 -3 2.78 0.58
-10 -9 -3 2.44 0.58
-10 -9 -4 1.68 0.45
-10 -9 -4 1.2 0.45
-10 -9 -5 16.94 0.91
-10 -9 -5 18.52 1.23
-10 -9 -6 10.36 0.76
-10 -10 10 14.11 0.98
-10 -10 10 15.52 0.98
-10 -10 9 3.59 0.68
-10 -10 9 4.79 0.67
-10 -10 9 4.48 0.62
-10 -10 8 14.9 1.1
-10 -10 8 17.58 1.31
-10 -10 8 15.33 1.2
-10 -10 8 15.14 1.06
-10 -10 7 1.23 0.49
-10 -10 7 1.55 0.55
-10 -10 7 0.89 0.51
-10 -10 7 0.63 0.52
-10 -10 7 1.94 0.52
-10 -10 7 0.14 2.44
-10 -10 6 4.62 0.69
-10 -10 6 3.94 0.94
-10 -10 6 3.39 0.77
-10 -10 6 3.74 0.65
-10 -10 6 3.87 0.75
-10 -10 6 3.49 3.92
-10 -10 5 1.27 0.41
-10 -10 5 2.34 0.92
-10 -10 5 1.23 0.84
-10 -10 5 0.3 0.41
-10 -10 5 1.43 0.58
-10 -10 5 -0.45 2.4
-10 -10 4 85.41 3.31
-10 -10 4 84.08 3.21
-10 -10 4 77.05 3.49
-10 -10 3 3.41 0.72
-10 -10 3 2.46 0.68
-10 -10 2 7.44 1
-10 -10 2 6.22 1.04
-10 -10 2 3.43 6.75
-10 -10 1 9.6 1.11
-10 -10 1 26.71 1.93
-10 -10 0 4.38 0.79
-10 -10 -1 2.36 0.62
-10 -10 -1 2.89 0.51
-10 -10 -2 1.54 0.47
-10 -10 -2 2.66 0.5
-10 -10 -3 14.77 0.96
-10 -10 -3 14.01 0.99
-10 -10 -4 -0.41 0.25
-10 -11 9 -3.19 4.71
-10 -11 8 9.47 1.03
-10 -11 8 1.28 4.82
-10 -11 7 9.3 1.25
-10 -11 7 6.85 0.84
-10 -11 6 8.71 0.87
-10 -11 6 -3.22 5.27
-10 -11 5 113.26 3.36
-10 -11 5 103.25 3.56
-10 -11 4 11.22 1.01
-10 -11 4 11.06 1.18
-10 -11 4 9.72 8.03
-10 -11 3 1.56 0.52
-10 -11 3 3.17 7.68
-10 -11 2 19.74 1.36
-10 -11 1 20.04 1.34
-10 -11 0 8.19 0.82
-10 -11 -1 16.36 1.02
-10 -11 -2 41.01 1.45
-10 -12 5 103.12 2.73
-10 -12 4 32 1.41
-10 -12 3 3.33 0.57
-10 -12 2 0.13 0.33
-10 -12 1 0.25 0.32
11 -13 -1 0.07 0.15
11 -13 0 5.81 0.5
11 -13 1 0.5 0.23
11 -13 2 1.39 0.26
11 -13 3 14.01 0.71
11 -12 -4 15.01 0.78
-11 12 4 12 2.67
11 -12 -3 4.17 0.48
-11 12 3 4.85 1.88
11 -12 -2 0.57 0.22
11 -12 -2 0.36 0.26
11 -12 -1 3.62 0.46
11 -12 -1 4.3 0.55
-11 12 1 5.21 2.22
11 -12 0 5.26 0.59
11 -12 0 5.24 0.61
11 -12 1 64.9 2.23
11 -12 1 61.18 2.1
11 -12 2 0.14 0.22
11 -12 2 0.48 0.28
-11 12 -3 0.3 0.23
11 -12 3 0 0.19
11 -12 3 0.14 0.23
-11 12 -4 0.45 0.29
11 -12 4 1.19 0.3
11 -12 4 0.42 0.22
-11 12 -5 97.18 2.55
11 -12 5 97.54 2.3
11 -12 5 98.04 2.51
11 -12 6 3.86 0.39
11 -12 6 2.22 0.33
11 -11 -6 1.37 0.24
-11 11 6 1.9 1.29
11 -11 -5 0.74 0.24
11 -11 -5 0.97 0.3
-11 11 5 0.82 1.06
11 -11 -5 0.93 0.35
11 -11 -4 -0.08 0.2
11 -11 -4 0.19 0.22
-11 11 4 -0.2 1.48
11 -11 -4 0.42 0.4
11 -11 -3 0.24 0.25
11 -11 -3 0.34 0.3
-11 11 3 1.93 1.92
11 -11 -2 0.63 0.3
11 -11 -2 0.98 0.41
11 -11 -1 30.66 1.64
11 -11 -1 28.99 1.6
-11 11 1 33.04 6.35
11 -11 0 -0.32 0.31
11 -11 0 0.41 0.34
-11 11 0 1.5 1.64
-11 11 -1 52.66 1.9
11 -11 1 53.68 2.2
11 -11 1 51.93 2.27
-11 11 -1 55.14 7.16
-11 11 -2 2.97 0.51
11 -11 2 5.01 0.71
11 -11 2 4.67 0.64
-11 11 -3 40.08 1.87
11 -11 3 43.29 1.81
11 -11 3 42.82 1.99
-11 11 -4 1.62 0.44
11 -11 4 1.25 0.39
11 -11 4 1.95 0.42
11 -11 5 5.76 0.54
-11 11 -5 4.66 0.68
11 -11 5 4.94 0.62
-11 11 -6 0.43 0.31
11 -11 6 -0.16 0.24
11 -11 6 -0.02 0.23
11 -11 6 0.14 0.16
-11 11 -7 27.81 1.31
11 -11 7 30.56 1.25
-11 10 7 6.92 2.43
11 -10 -7 5.47 0.52
11 -10 -7 4.98 0.47
11 -10 -7 6.42 0.65
11 -10 -6 9.17 0.79
11 -10 -6 7.38 0.69
-11 10 6 10.28 3.44
11 -10 -6 9.97 1
-11 10 6 10.26 3.33
11 -10 -5 2.07 0.44
11 -10 -5 2.28 0.46
-11 10 5 1.78 2.26
11 -10 -5 2.55 0.61
-11 10 5 1.81 1.84
11 -10 -4 11.63 1.02
11 -10 -4 11.43 1.03
-11 10 4 11.82 4.39
11 -10 -4 10.62 1.23
-11 10 4 12.28 4.02
11 -10 -3 13.95 1.16
11 -10 -3 13.08 1.16
-11 10 3 14.48 4.79
11 -10 -3 14.14 1.46
-11 10 3 15.9 4.91
11 -10 -2 18.29 1.36
11 -10 -2 18.72 1.44
-11 10 2 21.05 5.92
11 -10 -2 25.99 2.11
-11 10 2 17.8 5.19
11 -10 -1 70.01 2.79
11 -10 -1 64.19 2.82
-11 10 1 63.71 9.87
-11 10 1 68.53 10.15
-11 10 0 0.12 0.38
11 -10 0 -0.42 0.38
11 -10 0 0.16 0.39
-11 10 0 -0.19 1.47
-11 10 -1 5.56 0.79
11 -10 1 5.77 0.85
11 -10 1 5.43 0.74
-11 10 -1 5.94 3.08
-11 10 -2 119 3.99
11 -10 2 127.04 3.82
11 -10 2 126.47 4.14
-11 10 -3 8.02 1.02
11 -10 3 7.34 0.92
11 -10 3 5.95 0.71
-11 10 -4 9.03 1
11 -10 4 9.63 0.83
11 -10 4 11.22 1.08
-11 10 -5 28.36 1.77
11 -10 5 29.32 1.3
11 -10 5 31.67 1.74
-11 10 -6 17.76 1.34
11 -10 6 16.23 0.81
11 -10 6 18.83 1.25
-11 10 -6 14.37 3.96
-11 10 -7 0.59 0.4
11 -10 7 0.27 0.3
11 -10 7 0 0.24
-11 10 -7 -0.76 1.61
-11 10 -8 0.42 0.34
11 -10 8 0.64 0.24
11 -9 -8 3.11 0.43
11 -9 -8 3.47 0.43
11 -9 -8 3.61 0.48
-11 9 7 16 4.43
11 -9 -7 11.86 0.96
11 -9 -7 13.41 0.98
11 -9 -7 14.49 1.14
-11 9 7 11.79 3.59
11 -9 -6 1.54 0.43
11 -9 -6 1.24 0.41
-11 9 6 0.62 1.73
11 -9 -6 1.43 0.63
-11 9 6 0.17 1.45
11 -9 -5 1.15 0.47
11 -9 -5 0.67 0.4
-11 9 5 3.06 2.83
11 -9 -5 0.59 0.52
11 -9 -4 5.22 0.82
11 -9 -4 5.17 0.79
-11 9 4 5.99 3.16
11 -9 -4 7.69 1.18
-11 9 4 1.92 1.74
11 -9 -3 8.69 1
11 -9 -3 6.8 0.93
11 -9 -3 9.3 1.3
-11 9 3 7.52 3.97
11 -9 -2 0.44 0.42
11 -9 -2 0.81 0.48
-11 9 2 4.19 3.05
11 -9 -2 0.69 0.58
-11 9 2 2.03 2.92
-11 9 1 117.15 3.69
11 -9 -1 122.53 4.08
11 -9 -1 127.83 4.45
-11 9 1 127.58 15.82
-11 9 1 119.06 15.44
-11 9 0 27.47 1.78
11 -9 0 28.22 1.78
11 -9 0 28.61 1.97
-11 9 0 16.94 5.83
-11 9 0 27.09 7.44
-11 9 -1 3.65 0.86
11 -9 1 1.99 0.61
11 -9 1 1.88 0.53
-11 9 -1 1.98 1.58
-11 9 -1 2.01 3.34
-11 9 -2 13.3 1.39
11 -9 2 13.14 1.12
11 -9 2 14.12 1.36
-11 9 -2 8.1 3.52
-11 9 -2 17.26 6.24
-11 9 -3 1.52 0.62
11 -9 3 2.49 0.64
11 -9 3 1.76 0.46
11 -9 4 13.59 1.02
11 -9 4 14.9 1.33
11 -9 5 -0.29 0.37
11 -9 5 0.76 0.3
11 -9 6 12.68 1.11
11 -9 7 3.09 0.59
-11 9 -7 0.66 1.42
11 -9 8 4.72 0.45
-11 9 -8 5.6 0.7
11 -9 8 2.43 0.36
11 -9 8 4.8 0.6
-11 9 -8 2.36 1.47
-11 9 -9 0.58 0.3
11 -9 9 0.14 0.21
-11 9 -9 -0.27 0.86
11 -8 -9 18.46 1.06
11 -8 -9 18.41 1.01
-11 8 9 18.62 3.61
-11 8 9 21.15 4.39
11 -8 -8 6.23 0.76
11 -8 -8 5.9 0.69
-11 8 8 7.22 3.07
11 -8 -8 6.57 0.72
-11 8 8 3.78 2.74
11 -8 -7 27.03 1.67
11 -8 -7 29.06 1.65
-11 8 7 28.31 6.63
11 -8 -7 31.7 1.89
-11 8 7 27.17 6.57
11 -8 -6 36.11 2.1
11 -8 -6 36.2 1.95
-11 8 6 27.66 6.72
11 -8 -6 38.23 2.34
-11 8 6 24.78 7.07
11 -8 -5 -0.19 0.37
11 -8 -5 0.4 0.38
-11 8 5 1.54 1.97
11 -8 -5 0.54 0.5
-11 8 5 -0.7 3.21
11 -8 -4 37.43 2.3
11 -8 -4 36.69 2.14
-11 8 4 36.13 8.62
11 -8 -4 41.51 2.72
-11 8 4 33.39 8.91
11 -8 -3 15.82 1.5
11 -8 -3 17.8 1.48
-11 8 3 20.44 7.01
11 -8 -3 17.69 1.87
-11 8 3 16.07 6
-11 8 2 68.48 2.77
11 -8 -2 68.12 3.27
11 -8 -2 73.13 3.07
-11 8 2 54.89 11.2
11 -8 -2 71.97 3.87
-11 8 2 64.66 11.96
-11 8 1 29.34 1.93
11 -8 -1 31.31 2.17
11 -8 -1 31.08 1.94
-11 8 1 21.49 6.99
-11 8 1 28.65 8.55
-11 8 0 14.52 1.45
11 -8 0 14.86 1.32
11 -8 0 14.29 1.47
-11 8 0 11.05 5.25
-11 8 -1 31.81 2.19
11 -8 1 31.26 1.87
11 -8 1 33.77 2.22
-11 8 -1 31.65 8.11
-11 8 -1 24.87 7.75
-11 8 -2 29.78 2.18
11 -8 2 30.74 1.74
11 -8 2 31.53 2.1
-11 8 -2 25.34 7.06
-11 8 -2 26.18 7.89
-11 8 -3 3.55 0.93
11 -8 3 2.88 0.71
11 -8 3 3.06 0.59
11 -8 4 4.61 0.85
11 -8 4 3.7 0.55
11 -8 5 1.91 0.58
11 -8 6 29.45 1.82
11 -8 7 56.99 2.42
-11 8 -7 57.22 9.2
-11 8 -8 15.15 1.2
11 -8 8 16.04 1.1
-11 8 -8 17.56 4.68
-11 8 -9 1.68 0.42
11 -8 9 1.73 0.38
-11 8 -9 0.39 1.09
11 -8 10 0.08 0.2
11 -7 -10 14.17 0.91
11 -7 -10 14.33 0.86
-11 7 10 17.27 4.36
11 -7 -9 1.71 0.44
11 -7 -9 2.07 0.43
-11 7 9 0.82 1.25
11 -7 -8 1.73 0.49
11 -7 -8 1.22 0.4
-11 7 8 0.73 2.01
11 -7 -8 1.94 0.48
-11 7 8 1.76 1.43
11 -7 -7 2.81 0.66
11 -7 -7 2.68 0.58
-11 7 7 1.88 1.95
11 -7 -7 5.68 0.89
-11 7 7 5.18 3.87
11 -7 -6 147.93 4.96
11 -7 -6 146.62 4.64
-11 7 6 135.15 16.25
11 -7 -6 154.52 5.26
-11 7 6 154.38 18.36
11 -7 -5 117.08 4.38
11 -7 -5 111.82 4.05
-11 7 5 119.17 15.86
11 -7 -5 123.01 4.87
-11 7 5 126.07 17.04
11 -7 -4 1.47 0.67
11 -7 -4 1.14 0.51
-11 7 4 0.27 2.05
11 -7 -4 0.42 0.55
-11 7 4 0.33 3.22
-11 7 3 4.49 0.75
11 -7 -3 5.15 0.98
11 -7 -3 3.64 0.74
-11 7 3 4.11 3.28
11 -7 -3 5.97 1.18
-11 7 3 8.97 4.4
-11 7 2 37.67 2.23
11 -7 -2 36.24 2.43
11 -7 -2 36.99 2.16
-11 7 2 34.07 9.17
11 -7 -2 37.57 2.83
-11 7 2 32.49 9.45
-11 7 1 1.1 0.58
11 -7 -1 0.67 0.54
11 -7 -1 0.78 0.47
-11 7 1 2.44 3.23
-11 7 1 2.41 2.89
-11 7 0 20.91 1.86
11 -7 0 19.66 1.54
11 -7 0 19.9 1.79
-11 7 0 27.33 8.1
-11 7 0 21.84 7.84
-11 7 -1 14.06 1.56
11 -7 1 11.98 1.15
11 -7 1 13.07 1.45
-11 7 -1 12.67 5.69
-11 7 -1 7.26 5.35
-11 7 -2 0.56 0.58
11 -7 2 1.72 0.68
11 -7 2 0.86 0.32
-11 7 -2 -0.15 2.4
-11 7 -2 0.83 2.47
-11 7 -3 121.62 4.84
11 -7 3 121.46 3.58
11 -7 3 134.19 4.7
-11 7 -3 124.86 17.96
11 -7 4 5.38 0.94
11 -7 5 0.18 0.37
11 -7 6 3.64 0.68
11 -7 7 4.2 0.7
-11 7 -7 1.81 2.2
-11 7 -8 33.31 1.9
11 -7 8 34.86 1.77
-11 7 -9 64.86 2.32
11 -7 9 65.36 2.25
11 -7 10 16.44 1.03
11 -6 -11 4.5 0.49
11 -6 -11 3.57 0.41
-11 6 11 5 2.06
11 -6 -10 0.6 0.35
11 -6 -10 0.25 0.31
-11 6 10 -1.19 1.72
11 -6 -9 20.31 1.42
11 -6 -9 20.09 1.36
-11 6 9 11.94 3.38
-11 6 9 16.62 5.08
11 -6 -8 5.08 0.82
11 -6 -8 4.23 0.73
-11 6 8 3.73 2.65
11 -6 -8 4.99 0.73
-11 6 8 2 2.86
11 -6 -7 14.84 1.45
11 -6 -7 12.39 1.25
-11 6 7 10.27 4.37
11 -6 -7 14.49 1.36
-11 6 7 17.3 6.39
11 -6 -6 55.68 2.94
11 -6 -6 58.16 2.77
-11 6 6 50.08 9.92
11 -6 -6 59.5 3.12
-11 6 6 45.21 10.81
11 -6 -5 87.87 3.89
11 -6 -5 92.95 3.64
-11 6 5 70.96 12.62
11 -6 -5 95.25 4.31
-11 6 5 82.01 14.7
-11 6 4 27.27 1.7
11 -6 -4 26.3 2.1
11 -6 -4 26.68 1.88
-11 6 4 20.29 6.79
11 -6 -4 27.67 2.36
-11 6 4 20.07 7.96
-11 6 3 0.08 0.45
11 -6 -3 0.23 0.51
11 -6 -3 0.73 0.47
-11 6 3 0.37 2.72
11 -6 -3 -0.7 0.77
-11 6 3 -1.74 2.43
-11 6 2 11.83 1.38
11 -6 -2 11.22 1.39
11 -6 -2 10.48 1.19
-11 6 2 7.18 4.53
11 -6 -2 11.14 1.62
-11 6 2 13.54 6.71
-11 6 1 8.76 1.26
11 -6 -1 8.08 1.2
11 -6 -1 6.56 0.9
-11 6 1 11.86 5.74
-11 6 1 2.39 3.18
-11 6 0 24 2.04
11 -6 0 21.18 1.88
11 -6 0 23.09 1.62
-11 6 0 20.89 7.45
-11 6 0 22.78 8.42
-11 6 -1 25.26 2.11
11 -6 1 22.02 1.49
11 -6 1 24.53 1.97
-11 6 -1 27.24 8.52
-11 6 -1 24.09 8.55
-11 6 -2 3.66 0.98
11 -6 2 2.54 0.73
11 -6 2 1.89 0.46
-11 6 -2 4.87 4.2
-11 6 -2 -1.21 3.08
-11 6 -3 36.35 2.6
11 -6 3 40.92 2.45
11 -6 3 31.61 2.05
-11 6 -3 34.48 9.94
11 -6 4 24.04 1.81
11 -6 4 19.71 1.52
-11 6 -4 22.98 8.1
11 -6 5 1.34 0.51
11 -6 5 1.17 0.47
-11 6 -5 1.42 0.19
-11 6 -6 8.97 1.22
11 -6 6 9.46 1.06
11 -6 6 8.43 0.91
-11 6 -7 5.99 0.97
11 -6 7 5.6 0.78
11 -6 7 5.71 0.67
-11 6 -7 6.45 3.82
-11 6 -8 22.25 1.51
11 -6 8 21.23 1.34
11 -6 8 18.73 1.04
-11 6 -8 24.42 6.37
-11 6 -9 89.56 2.83
11 -6 9 94.29 2.81
11 -6 10 0.41 0.33
-11 6 -10 0.03 0.22
11 -5 -11 42.48 1.75
11 -5 -11 40.14 1.64
11 -5 -10 17.56 1.28
11 -5 -10 14.08 1.12
-11 5 10 16.36 5.19
11 -5 -9 9.01 1.05
11 -5 -9 9.98 1.02
-11 5 9 7.96 3.4
-11 5 9 8.77 3.98
11 -5 -8 45.86 2.58
11 -5 -8 49.29 2.47
-11 5 8 40.07 7.89
11 -5 -8 56.88 2.37
-11 5 8 46.01 10.16
11 -5 -7 3.64 0.84
11 -5 -7 3.45 0.78
-11 5 7 5.89 3.66
11 -5 -7 3.26 0.67
-11 5 7 5.87 4.42
11 -5 -6 14.8 1.56
11 -5 -6 15.54 1.44
-11 5 6 16.35 6.06
11 -5 -6 14.68 1.54
-11 5 6 10.4 4.6
-11 5 5 113.43 3.77
11 -5 -5 114.56 4.58
11 -5 -5 112.77 4.18
-11 5 5 105.78 15.72
11 -5 -5 119.92 4.82
-11 5 5 110.76 17.64
-11 5 4 23.59 1.79
11 -5 -4 22.04 1.93
11 -5 -4 23.05 1.76
-11 5 4 17.56 6.66
11 -5 -4 27.24 2.3
-11 5 4 21.64 9.55
-11 5 3 15.98 1.55
11 -5 -3 14.3 1.57
11 -5 -3 15.58 1.43
-11 5 3 7.84 4.2
11 -5 -3 15.44 1.82
-11 5 3 12.26 6.76
-11 5 2 35.92 2.45
11 -5 -2 31.91 2.3
11 -5 -2 29.2 1.94
-11 5 2 28.45 8.7
-11 5 2 28.9 9.39
-11 5 1 3.06 0.99
11 -5 -1 3.46 0.82
11 -5 -1 1.77 0.54
-11 5 1 5.66 5.23
-11 5 1 2.28 4.3
-11 5 0 -0.07 0.64
11 -5 0 1.05 0.58
11 -5 0 -0.14 0.28
-11 5 0 -1.27 3.76
-11 5 0 -1.56 5.2
-11 5 -1 4.74 1.06
11 -5 1 6.16 1.05
-11 5 -1 2 3.46
-11 5 -1 6.91 5.46
-11 5 -2 50.13 3.08
11 -5 2 49.12 2.75
-11 5 -2 52.28 12.44
-11 5 -3 30.37 2.39
11 -5 3 30.11 2.09
-11 5 -3 31.83 9.49
-11 5 -4 20.08 1.91
11 -5 4 21.09 1.71
11 -5 4 18.29 1.64
-11 5 -4 15.91 6.61
-11 5 -5 9.8 1.36
11 -5 5 11.79 1.22
11 -5 5 9.62 1.15
-11 5 -5 10.15 0.45
-11 5 -6 8.87 1.21
11 -5 6 9.44 1.08
11 -5 6 7.64 0.98
-11 5 -6 8.86 3.75
-11 5 -7 0.85 0.58
11 -5 7 0.24 0.3
11 -5 7 0.35 0.28
-11 5 -7 -1.11 1.75
-11 5 -8 6.19 0.86
11 -5 8 6.11 0.7
11 -5 8 5.04 0.65
-11 5 -8 5.04 3.27
-11 5 -9 8.4 0.74
11 -5 9 9.47 1.01
11 -5 9 7.82 0.69
11 -5 10 58.85 2.18
-11 5 -10 56.19 2.17
11 -5 11 2.32 0.36
11 -4 -12 0.66 0.24
11 -4 -12 1.2 0.28
-11 4 12 1.75 1.07
11 -4 -11 13.61 1.03
11 -4 -11 12.82 0.97
-11 4 11 11.91 4.14
11 -4 -10 0.61 0.36
11 -4 -10 0.19 0.29
-11 4 10 1.11 2.94
11 -4 -9 10.76 1.2
11 -4 -9 11.1 1.15
-11 4 9 9.55 4.93
11 -4 -8 33.33 2.18
11 -4 -8 31.51 2
-11 4 8 31.15 6.94
-11 4 8 31.81 9.23
11 -4 -7 6.02 1.02
11 -4 -7 5.9 0.94
-11 4 7 2.18 2.39
11 -4 -7 7.08 0.95
-11 4 7 6.26 3.53
-11 4 6 130.91 4.1
11 -4 -6 130.97 4.92
11 -4 -6 129.59 4.53
-11 4 6 124.44 16.41
11 -4 -6 144.45 4.9
-11 4 6 116.41 18.02
-11 4 5 44.41 2.44
11 -4 -5 44.27 2.72
11 -4 -5 41.19 2.38
-11 4 5 33.62 9.23
11 -4 -5 46.2 2.83
-11 4 5 33.59 9.76
-11 4 4 2.72 0.79
11 -4 -4 2.58 0.72
11 -4 -4 2.3 0.66
-11 4 4 3.58 3.75
11 -4 -4 4.21 0.97
-11 4 4 0.77 4.34
-11 4 3 11.91 1.45
11 -4 -3 11.19 1.35
11 -4 -3 12.89 1.29
-11 4 3 10.98 6.24
-11 4 3 11.31 5.75
-11 4 2 10.98 1.48
11 -4 -2 10.82 1.34
11 -4 -2 8.18 1.01
-11 4 2 7.62 4.56
-11 4 2 16.49 7.66
-11 4 1 8.66 1.36
11 -4 -1 6.59 1.06
11 -4 -1 5.67 0.8
-11 4 1 5.49 4.55
-11 4 1 0.54 2.45
-11 4 0 24.53 2.19
11 -4 0 25.72 2
-11 4 0 23.2 8.01
-11 4 0 19.95 8.42
-11 4 -1 11.15 1.59
11 -4 1 10.44 1.26
-11 4 -1 9.17 5.19
-11 4 -1 7.58 5.67
-11 4 -2 0.34 0.65
11 -4 2 0.1 0.42
-11 4 -2 -1.14 4.33
-11 4 -3 17.87 1.88
11 -4 3 16.69 1.53
-11 4 -3 14.27 6.47
-11 4 -4 0.63 0.64
11 -4 4 0.34 0.37
11 -4 4 0.59 0.5
-11 4 -4 -0.88 2.78
-11 4 -5 0.71 0.58
11 -4 5 1.54 0.51
11 -4 5 1.19 0.55
-11 4 -5 1.47 0.19
-11 4 -6 7.74 1.13
11 -4 6 10.11 1.02
11 -4 6 8.6 1.13
-11 4 -6 8.53 0.41
-11 4 -6 7.3 4.77
-11 4 -7 10.67 1.18
11 -4 7 10.98 1
11 -4 7 12.01 1.21
-11 4 -7 9.53 5.02
-11 4 -8 1.87 0.53
11 -4 8 1.58 0.39
11 -4 8 1.74 0.53
-11 4 -8 -0.1 1.93
-11 4 -9 0.14 0.29
11 -4 9 -0.25 0.36
11 -4 9 0.22 0.31
-11 4 -9 1.49 2.44
11 -4 10 4.92 0.6
11 -4 10 3.76 0.46
-11 4 -10 4.27 0.68
11 -4 11 5.26 0.48
11 -3 -12 5.87 0.58
11 -3 -12 4.52 0.52
-11 3 12 5.86 2.27
11 -3 -11 5.36 0.71
11 -3 -11 5.19 0.68
11 -3 -10 1.1 0.5
11 -3 -10 0.96 0.44
-11 3 10 0.81 0.49
-11 3 10 1.56 1.99
11 -3 -9 11.31 1.17
11 -3 -9 11.74 1.2
-11 3 9 16.06 1.49
-11 3 9 15.55 5.94
11 -3 -8 28.23 2.04
11 -3 -8 26.48 1.88
-11 3 8 34.04 6.81
-11 3 8 35.26 2.39
-11 3 7 44.68 2.1
11 -3 -7 38.43 2.44
11 -3 -7 40.09 2.33
-11 3 7 39.88 8.33
-11 3 7 44.04 2.9
-11 3 7 34.25 9.73
-11 3 6 0.65 0.45
11 -3 -6 1.17 0.58
11 -3 -6 0.72 0.47
-11 3 6 2.54 2.67
-11 3 6 0.85 0.76
-11 3 6 -0.46 2.27
-11 3 5 57.9 2.94
11 -3 -5 51.61 2.91
11 -3 -5 50.4 2.6
-11 3 5 61.62 11.9
-11 3 5 60.12 3.61
-11 3 5 48.57 12.32
-11 3 4 0.24 0.53
11 -3 -4 0.55 0.44
11 -3 -4 0.22 0.34
-11 3 4 -1.62 2.19
-11 3 4 0.14 0.67
-11 3 4 -1.25 2.36
-11 3 3 6.48 1.22
11 -3 -3 6.56 1.06
11 -3 -3 6.96 0.93
-11 3 3 9.24 5.29
-11 3 3 6.18 4.28
-11 3 2 6.36 1.18
11 -3 -2 4.37 0.83
-11 3 2 3.74 4.29
-11 3 2 6.14 5.17
-11 3 1 0.57 0.69
11 -3 -1 0.45 0.35
-11 3 1 2.53 3.52
-11 3 1 0.32 3.52
-11 3 0 2.91 0.92
11 -3 0 2.82 0.7
-11 3 0 6.55 4.8
-11 3 0 6.15 5.14
-11 3 -1 117.11 4.98
11 -3 1 118.29 4.3
-11 3 -2 20.05 1.98
11 -3 2 19.56 1.59
-11 3 -2 15.09 7.15
-11 3 -3 39.29 2.7
11 -3 3 37.13 2.11
-11 3 -4 0.47 0.66
11 -3 4 0.49 0.44
11 -3 4 0.42 0.55
-11 3 -5 36.56 2.45
11 -3 5 37.65 2
11 -3 5 35.2 2.41
-11 3 -5 33.94 9.06
-11 3 -6 8.73 1.16
11 -3 6 9.57 0.93
11 -3 6 8.84 1.17
-11 3 -7 4.39 0.83
11 -3 7 4.24 0.6
11 -3 7 4.22 0.78
-11 3 -7 3.38 2.6
-11 3 -8 0.5 0.35
11 -3 8 0.52 0.39
11 -3 9 8.74 0.9
11 -3 9 7.86 0.86
11 -3 10 3.25 0.52
11 -3 10 2.75 0.46
-11 3 -10 2.9 0.6
11 -2 -12 0.72 0.25
11 -2 -12 0.51 0.29
-11 2 12 -0.43 1.2
11 -2 -11 1.17 0.45
11 -2 -11 1.84 0.45
-11 2 11 2.22 0.55
11 -2 -10 1.49 0.51
11 -2 -10 1.46 0.52
-11 2 10 2.7 0.67
11 -2 -9 64.73 2.95
11 -2 -9 67.53 2.91
-11 2 8 28.9 1.6
11 -2 -8 29.25 2
11 -2 -8 26.8 1.9
-11 2 8 24.8 5.45
-11 2 8 34.85 2.47
-11 2 8 25.3 7.78
-11 2 7 6.71 0.91
11 -2 -7 6.46 1.02
11 -2 -7 5.79 0.9
-11 2 7 11.06 4.23
-11 2 7 7.89 1.29
-11 2 7 2.19 2.85
-11 2 6 25.33 1.92
11 -2 -6 20.67 1.78
11 -2 -6 22.27 1.68
-11 2 6 23.73 7.31
-11 2 6 24.73 2.34
-11 2 6 18.05 7.05
-11 2 5 2.58 0.67
11 -2 -5 1.57 0.6
11 -2 -5 1.8 0.58
-11 2 5 3.46 1.03
-11 2 4 17.42 1.78
11 -2 -4 13.59 1.43
11 -2 -4 13.82 1.25
-11 2 4 11.21 5.71
-11 2 4 15.31 1.92
-11 2 4 9.04 6.27
-11 2 3 101 4.42
11 -2 -3 89.03 3.74
-11 2 3 86.01 14.66
-11 2 3 98.2 4.86
-11 2 3 76.78 15.23
-11 2 2 24.71 2.18
11 -2 -2 21.59 1.72
-11 2 2 17.75 7.71
-11 2 2 15.82 7.76
-11 2 1 44.66 2.94
11 -2 -1 38.29 2.24
-11 2 1 34.55 9.79
-11 2 1 40.38 11.3
-11 2 0 3.18 1.01
11 -2 0 2.28 0.59
-11 2 0 4.58 5.91
-11 2 -1 4.23 1.09
11 -2 1 2.63 0.6
-11 2 -1 3.46 3.75
-11 2 -2 14.47 1.76
11 -2 2 15.74 1.29
-11 2 -3 0.59 0.59
11 -2 3 0.39 0.3
-11 2 -3 -1.81 3.13
-11 2 -4 22.32 1.96
11 -2 4 21.46 2
-11 2 -5 3.16 0.76
11 -2 5 3.57 0.87
-11 2 -5 0.83 3.1
-11 2 -6 76.91 3.3
11 -2 6 81.82 3.66
-11 2 -6 85.88 13.34
-11 2 -7 -0.36 0.41
11 -2 7 -0.55 0.44
-11 2 -7 -0.5 2.59
11 -2 8 8.49 0.92
11 -2 8 8.16 1.01
-11 2 -8 5.14 2.94
11 -2 9 0.4 0.29
11 -2 9 0.15 0.33
11 -2 10 0.79 0.29
11 -2 10 1.23 0.34
-11 2 -10 1.58 0.52
11 -2 11 17.99 0.88
-11 2 -11 20.12 1.07
11 -1 -13 3.28 0.37
11 -1 -12 0.4 0.22
11 -1 -12 0.6 0.3
11 -1 -11 2.08 0.43
11 -1 -11 2.36 0.5
-11 1 11 2.33 0.65
-11 1 11 3.41 2.92
11 -1 -10 0.14 0.31
11 -1 -10 0.42 0.3
-11 1 10 1.02 0.52
11 -1 -9 7.89 0.99
11 -1 -9 9.35 1.05
-11 1 9 10.87 1.45
-11 1 9 10.1 4.84
-11 1 8 46.41 2.27
11 -1 -8 39.88 2.27
11 -1 -8 37.8 2.19
-11 1 8 45.54 2.96
-11 1 7 10.09 1.2
11 -1 -7 8.86 1.1
11 -1 -7 9.79 1.07
-11 1 7 12.63 4.39
-11 1 7 12.33 1.7
-11 1 7 7.01 5.78
-11 1 6 2.37 0.69
11 -1 -6 2.48 0.64
11 -1 -6 1.85 0.63
-11 1 6 2.01 2.45
-11 1 6 2.87 0.99
-11 1 6 0.21 3.96
-11 1 5 30.5 2.28
11 -1 -5 25.21 1.8
11 -1 -5 23.83 1.57
-11 1 5 33.3 8.79
-11 1 5 27.96 2.53
-11 1 5 18.37 7.15
-11 1 4 50.56 3.02
11 -1 -4 45.05 2.42
-11 1 4 38.88 9.56
-11 1 4 53.76 3.47
-11 1 4 43.5 11.26
-11 1 3 12.28 1.58
11 -1 -3 12.88 1.26
-11 1 3 13.74 5.84
-11 1 3 13.02 1.84
-11 1 3 7.9 4.4
-11 1 2 19.84 2.01
11 -1 -2 16.84 1.37
-11 1 2 17.37 6.66
-11 1 2 13.15 5.19
-11 1 1 72.57 3.82
-11 1 1 59.95 13.14
-11 1 0 3.44 0.93
-11 1 0 5.54 1
-11 1 0 6.21 5.16
-11 1 -1 0.57 0.84
-11 1 -1 -5.22 4.34
-11 1 -2 0.82 0.82
-11 1 -2 0.99 4.22
-11 1 -3 50.13 2.96
-11 1 -3 39.65 10.8
-11 1 -4 46.01 2.71
11 -1 4 48.38 3
-11 1 -4 45.65 10.03
-11 1 -5 16.79 1.54
11 -1 5 15.81 1.69
-11 1 -5 12.13 4.8
-11 1 -6 213.28 5.75
11 -1 6 216.63 6.59
-11 1 -6 206.3 20.4
11 -1 7 29.78 1.64
11 -1 7 27.98 1.99
-11 1 -7 30.17 7.19
11 -1 8 24.02 1.35
11 -1 8 21.14 1.58
-11 1 -8 17.15 5.53
11 -1 9 2.15 0.41
11 -1 9 2.89 0.58
-11 1 -9 1.73 0.57
11 -1 10 6.91 0.7
-11 1 -10 6.91 0.86
11 -1 11 1.83 0.29
11 0 -13 0.44 0.23
11 0 -12 2.59 0.37
11 0 -12 2.43 0.44
-11 0 12 4.27 0.44
-11 0 12 3.99 0.56
-11 0 12 4.6 0.71
11 0 -11 24.23 1.31
11 0 -11 27.49 1.53
-11 0 11 34.56 1.47
-11 0 11 37.58 2.18
-11 0 11 30.14 5.71
11 0 -10 0.61 0.36
11 0 -10 -0.27 0.34
-11 0 10 0.66 0.47
-11 0 9 60.66 2.47
11 0 -9 50.11 2.27
11 0 -9 50.9 2.36
-11 0 9 60.2 3.31
-11 0 9 49.32 9.41
-11 0 8 25.89 1.8
11 0 -8 21.92 1.5
11 0 -8 21.74 1.52
-11 0 8 27.28 2.34
-11 0 7 150.74 4.95
11 0 -7 125.71 4.07
11 0 -7 116.14 3.94
-11 0 7 143.32 5.7
-11 0 7 111.72 15.88
-11 0 6 8.44 1.25
11 0 -6 6.41 0.89
11 0 -6 7.65 0.85
-11 0 6 7.23 1.37
-11 0 5 15.21 1.6
-11 0 5 13 1.83
-11 0 5 8.99 4.6
-11 0 4 69.55 3.62
-11 0 4 66.11 3.93
-11 0 4 59.04 12.45
-11 0 3 4.04 0.99
-11 0 3 4.97 1.31
-11 0 3 2.03 3.11
-11 0 2 53.51 3.21
-11 0 2 41.06 10.61
-11 0 1 20.97 1.97
-11 0 1 18.8 1.87
-11 0 1 15.52 7.15
-11 0 0 26.31 2.24
-11 0 0 25.42 2.04
-11 0 -1 13.36 1.66
-11 0 -1 14.01 1.38
-11 0 -1 16.32 7.03
-11 0 -2 39.07 2.64
-11 0 -2 30.39 9.42
-11 0 -2 45.54 8.88
-11 0 -3 28.11 2.13
-11 0 -3 29.79 7.41
-11 0 -4 7 1.06
11 0 4 6.66 1.16
-11 0 -4 11.74 5.66
-11 0 -5 3.8 0.75
11 0 5 4.4 0.96
-11 0 -5 5.29 3.14
11 0 6 48.04 2.77
-11 0 -6 47.05 9.09
11 0 7 263.05 7.12
-11 0 -7 260.51 20.93
11 0 8 4.12 0.72
11 0 9 0.72 0.41
-11 0 -9 0.35 0.41
11 0 10 1.64 0.37
-11 0 -10 2.04 0.49
-11 -1 13 20.89 1.1
11 1 -12 -0.14 0.22
-11 -1 12 0.46 0.25
-11 -1 12 -0.06 0.26
-11 -1 12 0.61 0.39
11 1 -11 0.76 0.35
-11 -1 11 0.58 0.27
-11 -1 11 1.24 0.48
-11 -1 11 0.44 0.51
-11 -1 10 36.61 1.68
-11 -1 10 33.99 1.72
-11 -1 10 36.95 2.4
-11 -1 9 14.43 1.28
11 1 -9 11.89 1.04
-11 -1 9 15.31 1.22
-11 -1 9 14.28 1.66
-11 -1 9 10.17 3.83
-11 -1 8 -0.13 0.55
11 1 -8 0.07 0.28
-11 -1 8 0.37 0.33
-11 -1 8 1.1 0.78
-11 -1 7 44.33 2.64
-11 -1 7 36.83 2.86
-11 -1 7 29.65 7.51
-11 -1 6 1.52 0.78
-11 -1 6 1.17 0.77
-11 -1 6 1.93 2.59
-11 -1 5 10.11 1.41
-11 -1 5 10.05 1.61
-11 -1 4 2.17 0.89
-11 -1 4 1.86 0.81
-11 -1 4 1.87 2.77
-11 -1 3 26.85 2.26
-11 -1 3 21.21 2.22
-11 -1 2 56.24 3.26
-11 -1 2 48.15 2.58
-11 -1 2 53.44 3.34
-11 -1 1 4.16 1.02
-11 -1 1 2.67 0.84
-11 -1 0 0.35 0.57
-11 -1 0 0.67 0.49
-11 -1 0 0.35 2.57
-11 -1 -1 119.28 4.84
-11 -1 -1 130.35 4.61
-11 -1 -1 122.13 16.58
-11 -1 -2 21.1 1.84
-11 -1 -3 20.53 1.72
11 1 3 22.9 2.03
-11 -1 -3 21.23 5.75
-11 -1 -4 69.03 3
11 1 4 70.47 3.53
-11 -1 -4 64.32 10.1
-11 -1 -5 34.62 1.78
11 1 5 35.71 2.39
-11 -1 -5 29.9 6.83
11 1 6 -0.19 0.43
-11 -1 -6 -7.97 3.74
11 1 7 14.07 1.33
11 1 8 0.35 0.32
-11 -1 -8 1.19 0.55
11 1 9 1.44 0.42
-11 -1 -9 1.28 0.48
11 1 10 2.64 0.41
-11 -1 -10 1.78 0.33
-11 -1 -10 2.23 0.49
-11 -2 13 23.81 1.22
-11 -2 12 7.55 0.66
-11 -2 12 6.73 0.65
-11 -2 12 7.76 0.91
-11 -2 11 -0.31 0.28
11 2 -11 0.21 0.22
-11 -2 11 0.49 0.29
-11 -2 11 0.58 0.41
-11 -2 11 0.67 0.55
-11 -2 10 3.16 0.6
11 2 -10 2.39 0.44
-11 -2 10 3.66 0.62
-11 -2 10 3.31 0.76
-11 -2 10 3.02 0.79
-11 -2 9 10.32 1.11
11 2 -9 7.93 0.78
-11 -2 9 10.85 1.12
-11 -2 9 8.97 1.32
-11 -2 8 6.36 1
-11 -2 8 6.54 0.89
-11 -2 8 5.49 1.2
-11 -2 7 9.39 1.28
-11 -2 7 9.43 1.06
-11 -2 7 8.34 1.4
-11 -2 6 30.72 2.31
-11 -2 6 27.04 1.72
-11 -2 6 26.33 2.41
-11 -2 5 3.94 0.93
-11 -2 5 2.78 0.98
-11 -2 4 12.71 1.51
-11 -2 4 12 1.73
-11 -2 4 11.37 1.68
-11 -2 3 -0.17 0.62
-11 -2 3 -0.32 0.5
-11 -2 3 1.1 0.74
-11 -2 3 0.34 0.66
-11 -2 2 1.15 0.78
-11 -2 2 0.46 0.51
-11 -2 2 0.48 0.52
-11 -2 1 8.91 1.42
-11 -2 1 8.48 1.21
-11 -2 1 7 1.22
-11 -2 0 4.73 1.01
-11 -2 0 6.66 1.09
-11 -2 0 2.83 2.83
-11 -2 -1 0.58 0.55
-11 -2 -1 1.54 0.65
-11 -2 -2 0.92 0.61
-11 -2 -3 -0.11 0.45
11 2 3 0.5 0.46
-11 -2 -4 18.35 1.33
11 2 4 19 1.76
11 2 5 15.73 1.55
11 2 6 -0.04 0.34
-11 -2 -7 2.55 0.51
11 2 7 3.91 0.71
-11 -2 -7 2.69 0.69
11 2 8 16.87 1.25
-11 -2 -8 17.68 1.5
11 2 9 1.89 0.4
-11 -2 -9 1.01 0.33
-11 -2 -9 1.9 0.54
11 2 10 3.04 0.36
-11 -2 -10 3.55 0.48
-11 -3 13 3.32 0.47
-11 -3 12 4.89 0.55
-11 -3 12 5.47 0.78
-11 -3 11 9.52 0.8
-11 -3 11 11.31 0.97
-11 -3 11 9.96 0.97
-11 -3 11 9.07 1.12
-11 -3 10 3.28 0.65
-11 -3 10 3.78 0.67
-11 -3 10 3.18 0.77
-11 -3 10 2.06 0.75
-11 -3 9 33.53 2
-11 -3 9 31.82 1.95
-11 -3 9 33.23 2.33
-11 -3 9 30.38 2.34
-11 -3 8 11.09 1.28
-11 -3 8 11.72 1.21
-11 -3 8 12.2 1.53
-11 -3 8 12.47 1.55
-11 -3 7 0.75 0.63
-11 -3 7 1 0.5
-11 -3 7 0.28 0.64
-11 -3 7 0.71 0.61
-11 -3 6 24.25 1.99
-11 -3 6 19.61 1.55
-11 -3 6 19.84 2.11
-11 -3 6 18.11 1.9
-11 -3 5 81.52 3.85
-11 -3 5 76.87 3.47
-11 -3 5 80.16 3.18
-11 -3 5 78.39 4.21
-11 -3 5 71.02 3.82
-11 -3 4 16.14 1.71
-11 -3 4 16.85 1.39
-11 -3 4 14.08 1.77
-11 -3 4 12.04 1.61
-11 -3 3 0.38 0.64
-11 -3 3 0.2 0.45
-11 -3 3 -0.37 0.64
-11 -3 3 -0.44 0.56
-11 -3 2 13.65 1.63
-11 -3 2 12.37 1.37
-11 -3 2 12.68 1.76
-11 -3 1 21.85 1.95
-11 -3 1 23.04 2
-11 -3 1 24.55 2.21
-11 -3 0 51.73 2.85
-11 -3 0 53.66 3.12
-11 -3 0 53.64 3.17
-11 -3 -1 3.35 0.86
-11 -3 -1 1.33 0.67
-11 -3 -2 69.08 3
11 3 2 61.04 3.25
-11 -3 -2 65.39 2.99
-11 -3 -3 30.01 1.7
11 3 3 30.33 2.2
11 3 4 24.5 1.88
11 3 5 4.77 0.84
-11 -3 -6 1.03 0.47
11 3 6 0.7 0.44
-11 -3 -6 0.93 0.47
11 3 7 21.89 1.46
-11 -3 -7 21.12 1.53
-11 -3 -7 22.28 1.69
11 3 8 0.37 0.3
-11 -3 -8 0.36 0.36
-11 -3 -8 0.15 0.38
11 3 9 4.4 0.56
11 3 9 4.65 0.49
-11 -3 -9 4.46 0.59
-11 -4 12 -0.09 0.22
-11 -4 12 0.77 0.39
-11 -4 11 4.08 0.59
-11 -4 11 4.56 0.64
-11 -4 11 4.55 0.63
-11 -4 11 4.16 0.79
-11 -4 10 0.66 0.4
-11 -4 10 1.01 0.4
-11 -4 10 0.75 0.42
-11 -4 10 0.51 0.48
-11 -4 9 3.99 0.85
-11 -4 9 3.97 0.78
-11 -4 9 3.27 0.79
-11 -4 9 3.53 0.82
-11 -4 8 0.45 0.53
-11 -4 8 1.35 0.53
-11 -4 8 1.31 0.7
-11 -4 8 -0.48 0.57
-11 -4 7 89.91 3.77
-11 -4 7 83.19 3.44
-11 -4 7 81.71 4.14
-11 -4 7 75.55 3.73
-11 -4 6 13.66 1.53
-11 -4 6 13.26 1.21
-11 -4 6 13.37 1.35
-11 -4 6 12.85 1.68
-11 -4 6 11.67 1.49
-11 -4 5 21.23 1.88
-11 -4 5 19.72 1.72
-11 -4 5 18.98 1.55
-11 -4 5 21.23 2.17
-11 -4 5 15.89 1.71
-11 -4 4 0.46 0.66
-11 -4 4 0.54 0.5
-11 -4 4 0.44 0.4
-11 -4 4 0.44 0.47
-11 -4 4 -0.09 0.67
-11 -4 4 0.5 0.52
-11 -4 3 3.91 0.93
-11 -4 3 4.25 0.71
-11 -4 3 4.54 0.88
-11 -4 3 4.2 1.14
-11 -4 2 14.9 1.6
-11 -4 2 16.09 1.35
-11 -4 2 14.3 1.54
-11 -4 2 15.05 1.8
-11 -4 1 32.81 2.22
-11 -4 1 31.66 2.34
-11 -4 1 32.9 2.54
-11 -4 0 56.7 2.83
-11 -4 0 58.89 3.22
-11 -4 0 56.46 3.21
-11 -4 -1 30.64 1.92
11 4 1 28.73 2.09
-11 -4 -1 30.39 2.33
-11 -4 -1 30.85 2.22
-11 -4 -2 8.94 0.93
11 4 2 10.15 1.24
-11 -4 -2 9.54 1.35
-11 -4 -2 10.34 1.17
-11 -4 -3 0.02 0.54
11 4 3 0.17 0.4
-11 -4 -3 -0.05 0.45
-11 -4 -4 0.06 0.58
-11 -4 -4 -0.52 0.53
11 4 4 0.19 0.42
-11 -4 -4 0.99 0.53
-11 -4 -5 21.23 1.57
11 4 5 23.67 1.59
-11 -4 -5 21.36 1.74
-11 -4 -5 20.08 1.62
-11 -4 -6 21.6 1.28
11 4 6 27.07 1.54
-11 -4 -6 24.48 1.7
-11 -4 -6 24.3 1.67
11 4 7 33.22 1.56
-11 -4 -7 29.94 1.65
-11 -4 -7 30.58 1.77
11 4 8 19.68 0.99
-11 -4 -8 18.78 1.01
-11 -4 -8 19.71 1.2
-11 -5 12 1.9 0.33
-11 -5 12 1.22 0.38
-11 -5 11 1.96 0.47
-11 -5 11 1.65 0.43
-11 -5 11 1.21 0.34
-11 -5 11 1.77 0.55
-11 -5 10 0.92 0.43
-11 -5 10 0.21 0.32
-11 -5 10 0.6 0.35
-11 -5 10 -0.03 0.42
-11 -5 9 54.33 2.5
-11 -5 9 53.1 2.49
-11 -5 9 51.7 2.66
-11 -5 8 4.31 0.86
-11 -5 8 4.41 0.78
-11 -5 8 5.67 1.01
-11 -5 8 3.04 0.8
-11 -5 7 33.15 2.13
-11 -5 7 29.49 1.95
-11 -5 7 29.6 2.3
-11 -5 7 25.95 1.97
-11 -5 6 1.66 0.71
-11 -5 6 2.17 0.63
-11 -5 6 1.21 0.49
-11 -5 6 2.79 0.91
-11 -5 6 1.52 0.66
-11 -5 5 9.84 1.26
-11 -5 5 11 1.3
-11 -5 5 9.41 1.11
-11 -5 5 9.33 1.44
-11 -5 5 7.27 1.1
-11 -5 4 5.8 1.02
-11 -5 4 5.46 1
-11 -5 4 6.34 0.91
-11 -5 4 6 0.9
-11 -5 4 6.84 1.22
-11 -5 4 5.77 0.95
-11 -5 3 27.61 2.02
-11 -5 3 24.37 2.15
-11 -5 3 23.8 1.72
-11 -5 3 24.26 1.85
-11 -5 3 25 2.29
-11 -5 2 0.42 0.63
-11 -5 2 0.09 0.68
-11 -5 2 2.3 1.38
-11 -5 2 1.8 0.7
-11 -5 2 1.61 0.66
-11 -5 1 13.75 1.37
-11 -5 1 16.08 1.79
-11 -5 1 15.02 1.54
-11 -5 1 15.41 1.71
-11 -5 0 31.55 1.89
-11 -5 0 34.05 2.53
11 5 0 28.65 1.89
-11 -5 0 30.77 2.3
-11 -5 0 29.78 2.32
-11 -5 -1 15.67 1.2
-11 -5 -1 17.49 1.8
11 5 1 13.36 1.31
-11 -5 -1 16.87 1.74
-11 -5 -1 16.51 1.61
-11 -5 -2 15 1.62
11 5 2 14.4 1.25
-11 -5 -2 14.52 1.58
-11 -5 -2 12.79 1.29
-11 -5 -3 1.82 0.66
-11 -5 -3 1.46 0.6
11 5 3 1.28 0.45
-11 -5 -4 -0.27 0.5
-11 -5 -4 0.84 0.5
11 5 4 0.46 0.29
-11 -5 -4 -0.13 0.32
-11 -5 -5 7.08 0.81
11 5 5 7.82 0.77
-11 -5 -5 7.07 0.95
-11 -5 -5 6.3 0.75
11 5 6 7.89 0.68
-11 -5 -6 6.43 0.81
-11 -5 -6 7.22 0.76
11 5 7 20.69 0.94
-11 -5 -7 18.56 1.08
-11 -5 -7 17.54 1.07
11 5 8 33.22 1.5
-11 -6 11 0.73 0.35
-11 -6 11 0.25 0.24
-11 -6 11 0.57 0.35
-11 -6 10 30.2 1.59
-11 -6 10 30.36 1.63
-11 -6 10 26.72 1.44
-11 -6 9 251.09 6.03
-11 -6 9 238.85 6.02
-11 -6 9 230.11 6.08
-11 -6 8 47.43 2.37
-11 -6 8 43.78 2.29
-11 -6 8 43.59 2.51
-11 -6 7 3.02 0.73
-11 -6 7 3.37 0.7
-11 -6 7 3.27 0.73
-11 -6 7 2.17 0.72
-11 -6 7 2.57 0.63
-11 -6 6 35.73 2.19
-11 -6 6 32.71 1.86
-11 -6 6 34.22 1.9
-11 -6 6 36.14 2.18
-11 -6 6 36.91 2.56
-11 -6 5 17.03 1.55
-11 -6 5 16.26 1.48
-11 -6 5 14.92 1.41
-11 -6 5 12.44 1.1
-11 -6 5 15.38 1.72
-11 -6 4 10.82 1.24
-11 -6 4 11.43 1.36
-11 -6 4 12.01 1.25
-11 -6 4 11.14 1.19
-11 -6 4 10.33 1.45
-11 -6 3 30.78 2.06
-11 -6 3 32.83 2.33
-11 -6 3 32.77 2.08
-11 -6 3 33.66 2.16
-11 -6 3 32.53 2.49
-11 -6 2 -0.05 0.44
-11 -6 2 0.51 0.64
-11 -6 2 -0.32 0.7
-11 -6 2 -0.31 0.9
-11 -6 2 -0.31 0.5
-11 -6 1 1.41 0.58
-11 -6 1 1.69 0.84
-11 -6 1 1.93 0.7
-11 -6 1 1.74 0.65
-11 -6 0 -0.12 0.35
-11 -6 0 -0.01 0.57
-11 -6 0 0.24 0.54
-11 -6 0 0.3 0.58
-11 -6 -1 8.8 1.29
-11 -6 -1 7.96 1.19
-11 -6 -1 8.35 1.12
-11 -6 -2 24.26 1.9
11 6 2 24.95 1.37
-11 -6 -2 25.57 1.95
-11 -6 -2 22.14 1.62
-11 -6 -3 3.3 0.72
-11 -6 -3 2.77 0.69
11 6 3 2.75 0.43
-11 -6 -4 19.61 1.37
-11 -6 -4 20.99 1.58
-11 -6 -5 51.81 1.93
-11 -6 -5 60.31 2.44
-11 -6 -6 18.82 1.12
11 6 7 0.22 0.22
-11 -6 -7 0.83 0.3
-11 -7 11 24.01 1.11
-11 -7 11 23.54 1.14
-11 -7 11 25.19 1.17
-11 -7 10 61.81 2.17
-11 -7 10 55.17 2.1
-11 -7 10 61.51 2.22
-11 -7 10 53.82 1.79
-11 -7 9 1.49 0.54
-11 -7 9 2.29 0.52
-11 -7 9 2.35 0.53
-11 -7 9 2.6 0.53
-11 -7 9 1.13 0.4
-11 -7 8 3.18 0.67
-11 -7 8 3.25 0.61
-11 -7 8 3.02 0.63
-11 -7 8 4.56 0.8
-11 -7 8 1.9 0.44
-11 -7 7 81.56 3.14
-11 -7 7 74.02 2.88
-11 -7 7 82.2 3.2
-11 -7 7 73.36 3.35
-11 -7 6 54.63 2.55
-11 -7 6 48.69 2.2
-11 -7 6 55.1 2.59
-11 -7 6 51.69 2.9
-11 -7 5 3.55 0.76
-11 -7 5 4.58 0.81
-11 -7 5 3.26 0.6
-11 -7 5 3.43 0.74
-11 -7 5 2.72 0.61
-11 -7 5 3.25 0.8
-11 -7 4 12.58 1.24
-11 -7 4 11.38 1.29
-11 -7 4 12.11 1.32
-11 -7 4 10.37 1.1
-11 -7 4 13.05 1.54
-11 -7 3 9.56 1.03
-11 -7 3 10.32 1.28
-11 -7 3 9.49 1.25
-11 -7 3 10.11 1.17
-11 -7 3 8.9 1.26
-11 -7 2 2.55 0.57
-11 -7 2 5.22 0.94
-11 -7 2 4.63 0.88
-11 -7 2 4.13 0.88
-11 -7 1 48.87 1.97
-11 -7 1 58.28 3.03
-11 -7 1 52.76 2.76
-11 -7 1 52.45 2.94
-11 -7 0 9.95 1.3
-11 -7 0 9.17 1.18
-11 -7 0 9.8 1.19
-11 -7 -1 9.21 1.15
-11 -7 -1 10.89 1.22
-11 -7 -1 9.34 1.12
-11 -7 -2 25.86 1.76
-11 -7 -2 27.8 1.82
-11 -7 -2 23.68 1.6
-11 -7 -3 32.24 1.81
-11 -7 -3 35.2 1.97
-11 -7 -4 17.08 1.09
-11 -7 -4 20.72 1.37
-11 -7 -4 18.95 1.36
-11 -7 -5 1.77 0.42
-11 -7 -5 1.33 0.39
11 7 6 55.64 1.87
-11 -7 -6 51 1.86
-11 -8 10 10.06 0.77
-11 -8 10 10.09 0.73
-11 -8 10 11.4 0.79
-11 -8 9 22.83 1.26
-11 -8 9 19.92 1.15
-11 -8 9 22.84 1.29
-11 -8 8 6.12 0.74
-11 -8 8 5.84 0.7
-11 -8 8 6.39 0.78
-11 -8 8 6.03 0.74
-11 -8 7 4.52 0.71
-11 -8 7 4.8 0.66
-11 -8 7 5.37 0.76
-11 -8 7 4.47 0.75
-11 -8 6 2.6 0.63
-11 -8 6 1.78 0.49
-11 -8 6 2.18 0.57
-11 -8 6 2.63 0.48
-11 -8 6 2.08 0.62
-11 -8 5 1.26 0.4
-11 -8 5 1.55 0.57
-11 -8 5 1.03 0.56
-11 -8 5 0.98 0.43
-11 -8 5 2.62 0.68
-11 -8 4 35.99 1.79
-11 -8 4 36.75 2.13
-11 -8 4 40.08 2.19
-11 -8 4 38.3 1.98
-11 -8 4 39.37 2.43
-11 -8 3 7.47 0.77
-11 -8 3 6.79 0.95
-11 -8 3 6.73 0.91
-11 -8 3 8.5 1.19
-11 -8 2 9.56 0.77
-11 -8 2 11.17 1.25
-11 -8 2 12.12 1.22
-11 -8 2 10.9 1.26
-11 -8 1 2.5 0.7
-11 -8 1 3.73 0.75
-11 -8 1 2.75 0.69
-11 -8 0 8.84 1.09
-11 -8 0 8.16 0.97
-11 -8 0 7.25 1.02
-11 -8 -1 2.49 0.64
-11 -8 -1 1.29 0.52
-11 -8 -1 1.79 0.42
-11 -8 -2 4.23 0.67
-11 -8 -2 5.1 0.74
-11 -8 -2 3.32 0.52
-11 -8 -3 26.63 1.47
-11 -8 -3 21.71 1.26
-11 -8 -4 11.55 0.83
-11 -8 -4 10.32 0.8
-11 -9 9 0.18 0.31
-11 -9 9 0.07 1.79
-11 -9 8 13.11 0.88
-11 -9 8 12.06 0.84
-11 -9 8 13.72 0.97
-11 -9 8 10.2 0.77
-11 -9 7 8.79 0.77
-11 -9 7 10.1 0.9
-11 -9 7 9.8 0.95
-11 -9 7 7.28 0.79
-11 -9 6 3.08 0.52
-11 -9 6 3.96 0.84
-11 -9 6 4.89 0.87
-11 -9 6 4.01 0.54
-11 -9 6 4.28 0.72
-11 -9 6 1.89 4.06
-11 -9 5 9.84 0.79
-11 -9 5 10.97 0.87
-11 -9 5 10.46 1.09
-11 -9 4 -0.4 0.33
-11 -9 4 -0.33 0.35
-11 -9 4 0.13 0.43
-11 -9 4 -3.11 4.1
-11 -9 3 8.55 0.91
-11 -9 3 6.8 0.95
-11 -9 2 4.84 0.71
-11 -9 2 4.46 0.8
-11 -9 1 0.33 0.38
-11 -9 1 -0.19 0.53
-11 -9 0 0.72 0.48
-11 -9 -1 3.23 0.6
-11 -9 -2 8.01 0.76
-11 -9 -3 10.18 0.69
-11 -10 7 -0.35 3.35
-11 -10 6 2.58 0.51
-11 -10 6 3.84 3.96
-11 -10 5 0.05 0.35
-11 -10 5 -0.22 0.36
-11 -10 4 16.82 1.01
-11 -10 4 16.69 1.23
-11 -10 3 1.05 0.38
-11 -10 2 1.88 0.44
-11 -10 1 0.07 0.27
-11 -10 0 0.74 0.3
-11 -10 -1 5.51 0.52
12 -11 -2 0.51 0.2
12 -11 -2 0.43 0.18
12 -11 -1 9.34 0.63
12 -11 -1 9.24 0.64
12 -11 0 9.4 0.62
12 -11 0 10.64 0.72
12 -11 1 3.46 0.42
12 -11 1 3.44 0.37
12 -11 2 12.76 0.78
12 -11 3 53.86 1.7
12 -11 4 7.04 0.5
12 -11 4 3.03 0.36
12 -10 -5 15.65 0.76
-12 10 5 16.53 3.17
12 -10 -4 5.94 0.54
12 -10 -4 4.65 0.49
-12 10 4 4.15 2.15
12 -10 -3 0.57 0.24
-12 10 3 -0.6 1.36
12 -10 -2 3.97 0.55
12 -10 -2 4.56 0.53
-12 10 2 4.02 2.19
-12 10 2 4.02 2.2
12 -10 -1 1.78 0.42
12 -10 -1 1.61 0.37
-12 10 1 -0.23 1.7
-12 10 1 3.02 1.86
12 -10 0 37.19 1.5
12 -10 0 38.06 1.72
-12 10 -1 14.31 0.87
12 -10 1 13.42 0.82
12 -10 1 15.16 1.06
-12 10 -2 38.26 1.54
12 -10 2 35.52 1.32
-12 10 -3 25.29 1.27
12 -10 3 23.19 0.92
-12 10 -4 7.44 0.67
12 -10 4 7.61 0.68
-12 10 -5 5.27 0.56
12 -10 5 5.17 0.52
-12 10 -6 12.02 0.74
12 -10 6 11.93 0.66
12 -9 -6 5.52 0.5
12 -9 -6 4.98 0.5
-12 9 6 6.12 2.15
-12 9 6 4.69 1.97
12 -9 -5 3.54 0.49
12 -9 -5 3.51 0.48
-12 9 5 5.4 2.66
-12 9 5 2.91 1.84
12 -9 -4 3.94 0.56
12 -9 -4 3 0.5
-12 9 4 1.64 1.23
-12 9 4 3.42 2.36
12 -9 -3 30.3 1.47
12 -9 -3 31.3 1.64
-12 9 3 30.95 6.4
-12 9 3 31.01 6.35
12 -9 -2 20.35 1.2
12 -9 -2 20.11 1.35
-12 9 2 19.91 5.05
-12 9 2 12.8 4.08
-12 9 1 23.59 1.15
12 -9 -1 24.01 1.31
12 -9 -1 26.58 1.57
-12 9 1 19.89 5.19
-12 9 1 28.24 6.42
-12 9 0 14.93 1
12 -9 0 14.65 0.99
12 -9 0 14.84 1.19
-12 9 0 15.58 4.9
-12 9 -1 37.61 1.77
12 -9 1 36.05 1.51
12 -9 1 39.01 1.9
-12 9 -2 38.28 1.88
12 -9 2 36.23 1.4
12 -9 2 38.82 1.9
-12 9 -3 2.78 0.53
12 -9 3 3.55 0.59
12 -9 3 3.14 0.37
-12 9 -4 31.74 1.69
12 -9 4 35.83 1.68
-12 9 -5 3.09 0.57
12 -9 5 3.26 0.5
-12 9 -5 3.4 1.99
-12 9 -6 2.36 0.47
12 -9 6 1.53 0.33
-12 9 -6 1.05 1.56
-12 9 -7 0.28 0.26
12 -9 7 -0.35 0.18
12 -8 -7 1.76 0.35
12 -8 -7 1.74 0.33
-12 8 7 2.41 1.52
-12 8 7 2.03 1.93
12 -8 -6 0.34 0.3
12 -8 -6 -0.06 0.23
-12 8 6 0.19 1.65
-12 8 6 2.56 2.22
12 -8 -5 59.83 2.38
12 -8 -5 63.94 2.26
-12 8 5 47.89 7.75
-12 8 5 50.32 8.32
12 -8 -4 0.97 0.35
12 -8 -4 0.96 0.38
-12 8 4 0.07 1.77
-12 8 4 -0.53 1.64
12 -8 -3 29.59 1.56
12 -8 -3 30.33 1.74
-12 8 3 22.12 5.96
-12 8 3 31.76 7.2
-12 8 2 0.91 0.41
12 -8 -2 -0.07 0.33
12 -8 -2 -0.11 0.31
-12 8 2 0.31 1.5
-12 8 2 0.33 1.74
-12 8 1 0.16 0.34
12 -8 -1 0.86 0.44
12 -8 -1 0.61 0.34
-12 8 1 -0.55 2.34
-12 8 0 1.75 0.57
12 -8 0 1.57 0.49
12 -8 0 1.34 0.37
-12 8 0 -0.03 1.45
-12 8 0 2.72 2.18
-12 8 -1 0.33 0.43
12 -8 1 0 0.36
12 -8 1 4.53 0.51
-12 8 -1 3.29 3.06
-12 8 -2 2.18 0.58
12 -8 2 2.28 0.56
12 -8 2 1.38 0.29
-12 8 -3 1.44 0.57
12 -8 3 1.02 0.41
-12 8 -4 3.96 0.72
12 -8 4 4.25 0.63
-12 8 -5 15.07 1.23
12 -8 5 14.51 1.07
-12 8 -5 15.07 4.43
-12 8 -6 0.28 0.37
12 -8 6 0.65 0.3
-12 8 -6 0.98 1.81
-12 8 -7 -0.01 0.29
12 -8 7 0.38 0.23
-12 8 -7 -0.53 1.84
12 -7 -8 -0.01 0.2
12 -7 -8 0.14 0.17
-12 7 8 0.94 1.17
12 -7 -7 3.33 0.52
12 -7 -7 2.98 0.48
-12 7 7 6.74 2.77
-12 7 7 4.04 2.66
12 -7 -6 12.73 1.05
12 -7 -6 10.54 0.91
-12 7 6 11.29 4.01
-12 7 6 12.06 4.38
12 -7 -5 60.62 2.54
12 -7 -5 53.93 2.22
-12 7 5 50.35 8.6
-12 7 5 54.72 9.81
12 -7 -4 22.78 1.6
12 -7 -4 24.33 1.44
-12 7 4 22.93 6.06
-12 7 4 21.68 6.53
-12 7 3 19.95 1.21
12 -7 -3 20.58 1.55
12 -7 -3 20.9 1.35
-12 7 3 17.71 5.67
-12 7 3 19.26 6.33
-12 7 2 42.94 2.08
12 -7 -2 41.27 1.94
12 -7 -2 43.75 2.32
-12 7 2 45 9.11
-12 7 2 33.89 8.55
-12 7 1 3.98 0.71
12 -7 -1 5.2 0.87
12 -7 -1 4.89 0.68
-12 7 1 4.8 2.93
-12 7 1 4.38 3.11
-12 7 0 -0.03 0.48
12 -7 0 0.7 0.48
12 -7 0 0.27 0.25
-12 7 0 -0.6 1.73
-12 7 0 -0.14 2.48
-12 7 -1 7.47 1.07
12 -7 1 6.33 0.87
12 -7 1 6.09 0.62
-12 7 -2 0.83 0.54
12 -7 2 0.87 0.42
-12 7 -2 -1.3 3.26
-12 7 -3 6.74 1
12 -7 3 7.64 0.91
-12 7 -4 14.86 1.38
12 -7 4 14.01 1.15
-12 7 -5 0.37 0.43
12 -7 5 0.84 0.38
-12 7 -5 0.73 1.34
-12 7 -6 9.45 0.96
12 -7 6 11.3 0.88
-12 7 -7 35.03 1.63
12 -7 7 34.11 1.4
-12 7 -7 38.33 6.46
-12 7 -8 4.06 0.47
12 -7 8 3.15 0.43
12 -6 -9 2.12 0.35
12 -6 -9 1.82 0.32
-12 6 9 1.54 1.68
12 -6 -8 2.95 0.51
12 -6 -8 3.09 0.47
12 -6 -7 0.55 0.37
12 -6 -7 0.93 0.36
-12 6 7 0.61 1.17
-12 6 7 -0.12 1.87
12 -6 -6 1.33 0.46
12 -6 -6 0.8 0.34
-12 6 6 2.45 2.48
-12 6 6 1.9 2.38
12 -6 -5 15.71 1.36
12 -6 -5 13.27 1.1
-12 6 5 16.79 5.3
-12 6 5 13.71 5.83
-12 6 4 0.02 0.37
12 -6 -4 0.16 0.35
12 -6 -4 0.32 0.36
-12 6 4 -0.91 2.02
-12 6 4 1.34 3.05
-12 6 3 -0.2 0.36
12 -6 -3 0.59 0.45
12 -6 -3 -0.34 0.32
-12 6 3 -1.85 3.87
-12 6 2 45.69 2.35
12 -6 -2 43.14 2.37
12 -6 -2 41.61 1.92
-12 6 2 36.9 8.67
-12 6 2 48.99 10.55
-12 6 1 98.58 3.83
12 -6 -1 96.32 3.04
12 -6 -1 99.19 3.8
-12 6 1 98.7 14.29
-12 6 1 88.43 14.44
-12 6 0 4.86 0.91
12 -6 0 4.37 0.76
12 -6 0 4.57 0.6
-12 6 0 5.53 3.98
-12 6 0 1.77 3.38
-12 6 -1 44.19 2.55
12 -6 1 43.11 2.29
-12 6 -1 34.3 9.32
-12 6 -2 8.01 1.12
12 -6 2 6.69 0.87
12 -6 2 5.37 0.77
-12 6 -2 8.02 4.51
-12 6 -3 6.7 1.06
12 -6 3 6.42 0.86
12 -6 3 4.44 0.69
-12 6 -4 27.19 1.89
12 -6 4 30.16 1.69
-12 6 -5 -0.3 0.48
12 -6 5 -0.14 0.29
12 -6 5 -0.3 0.24
-12 6 -5 -0.49 2.26
-12 6 -6 1.39 0.51
12 -6 6 0.82 0.29
12 -6 6 0.54 0.22
-12 6 -6 1.63 2.25
-12 6 -7 0.54 0.37
12 -6 7 0.1 0.19
-12 6 -7 2 2.02
-12 6 -8 27.38 1.16
12 -6 8 26.44 1.25
12 -5 -10 -0.13 0.16
12 -5 -10 0.12 0.14
12 -5 -9 2.59 0.45
12 -5 -9 2.28 0.4
-12 5 9 1.12 1.74
12 -5 -8 31.23 1.66
12 -5 -8 31.49 1.52
-12 5 8 36.05 5.48
-12 5 8 30.84 6.9
12 -5 -7 1.14 0.4
12 -5 -7 1.34 0.41
-12 5 7 1.15 1.64
-12 5 7 3.15 2.79
12 -5 -6 10.63 1.11
12 -5 -6 12.62 1.06
-12 5 6 10.95 4.28
-12 5 6 7.05 4.25
-12 5 5 59.16 2.23
12 -5 -5 58.18 2.69
12 -5 -5 56.55 2.38
-12 5 5 63.23 10.38
-12 5 5 53.94 10.9
-12 5 4 3.79 0.69
12 -5 -4 3.85 0.73
12 -5 -4 2.36 0.5
-12 5 4 2 1.67
-12 5 4 4.72 4.02
-12 5 3 15.26 1.38
12 -5 -3 12.8 1.28
12 -5 -3 11.62 1.01
-12 5 3 14.4 5.38
-12 5 3 8.58 4.65
-12 5 2 -0.28 0.51
12 -5 -2 0.23 0.36
12 -5 -2 0.26 0.42
-12 5 2 1.37 1.88
-12 5 1 48.4 2.69
12 -5 -1 48.4 2.51
-12 5 1 40.8 9.41
-12 5 1 34.22 9.15
-12 5 0 20.11 1.74
12 -5 0 18.17 1.5
-12 5 -1 47.68 2.78
12 -5 1 48.31 2.44
-12 5 -1 37.99 9.83
-12 5 -2 17.61 1.67
12 -5 2 14.8 1.31
12 -5 2 10.37 1.17
-12 5 -2 14.7 5.8
-12 5 -3 15.81 1.58
12 -5 3 16.69 1.3
12 -5 3 12.36 1.21
-12 5 -4 6.56 1.02
12 -5 4 6.53 0.8
12 -5 4 4.87 0.73
-12 5 -5 4.71 0.84
12 -5 5 4.57 0.64
12 -5 5 3.05 0.54
-12 5 -6 27.8 1.67
12 -5 6 24.27 1.27
12 -5 6 23.31 1.31
-12 5 -6 24.62 6.02
-12 5 -7 1.88 0.42
12 -5 7 2.34 0.37
12 -5 7 1.9 0.35
-12 5 -8 18.04 0.94
12 -5 8 19.32 1.05
-12 5 -8 22.89 4.85
12 -4 -10 4.1 0.44
12 -4 -10 3.31 0.41
-12 4 10 4.43 2.74
12 -4 -9 0.1 0.24
12 -4 -9 -0.14 0.22
-12 4 9 0.06 1.75
12 -4 -8 12.09 1.05
12 -4 -8 10.07 0.88
-12 4 8 14.17 3.43
-12 4 8 14.3 4.86
12 -4 -7 30.15 1.77
12 -4 -7 27.13 1.53
-12 4 7 34.02 6.4
-12 4 7 26.6 7.24
-12 4 6 6.24 0.72
12 -4 -6 6.1 0.85
12 -4 -6 5.43 0.72
-12 4 6 3.44 2.8
-12 4 6 4.52 3.76
-12 4 5 14.54 1.24
12 -4 -5 13.05 1.28
12 -4 -5 12.3 1.05
-12 4 5 10.24 4.48
-12 4 5 11.69 5.37
-12 4 4 0.03 0.44
12 -4 -4 0.29 0.39
12 -4 -4 -0.21 0.28
-12 4 4 -0.69 1.6
-12 4 4 -3.12 3.66
-12 4 3 1.2 0.54
12 -4 -3 1.78 0.59
12 -4 -3 2.19 0.47
-12 4 3 -1.86 2.26
-12 4 3 1.49 2.26
-12 4 2 3.25 0.89
12 -4 -2 3.15 0.7
-12 4 2 1.57 2.59
-12 4 2 2.6 2.43
-12 4 1 6.89 1.13
12 -4 -1 5.42 0.79
-12 4 1 4.67 3.4
-12 4 1 1.45 2.29
-12 4 0 28.09 2.17
12 -4 0 28.09 1.83
-12 4 0 22.96 7.9
-12 4 -1 0.6 0.7
12 -4 1 0.12 0.35
-12 4 -1 -1.56 2.05
-12 4 -2 0.22 0.62
12 -4 2 0.12 0.34
-12 4 -2 3.24 4.08
-12 4 -3 0.2 0.57
12 -4 3 0.63 0.39
12 -4 3 0.1 0.35
-12 4 -4 11.72 1.27
12 -4 4 12.94 1.03
12 -4 4 9.54 1.15
-12 4 -4 11.9 4.74
-12 4 -5 29.85 1.92
12 -4 5 32.25 1.51
12 -4 5 28.75 1.77
-12 4 -5 27.69 6.92
-12 4 -6 31.5 1.77
12 -4 6 30.68 1.34
12 -4 6 29.7 1.66
-12 4 -6 24.88 6.21
-12 4 -7 4.65 0.62
12 -4 7 2.93 0.5
-12 4 -7 3.43 1.93
12 -4 8 -0.17 0.24
12 -4 8 0.11 0.19
-12 4 -8 0.88 1.64
-12 4 -9 20.02 1.11
12 -3 -10 2.84 0.4
12 -3 -10 2.13 0.36
-12 3 10 1.72 1.99
12 -3 -9 7.13 0.73
12 -3 -9 7.6 0.72
-12 3 9 8.57 3.86
12 -3 -8 12.22 1.06
12 -3 -8 12.45 0.96
-12 3 7 2.31 0.48
12 -3 -7 2.17 0.54
12 -3 -7 1.9 0.47
-12 3 7 -0.46 2.31
-12 3 7 0.66 1.85
-12 3 6 15.7 1.25
12 -3 -6 15.19 1.29
12 -3 -6 14.06 1.09
-12 3 6 13.64 4.96
-12 3 6 13.06 5.61
-12 3 5 1.11 0.64
12 -3 -5 -0.23 0.35
12 -3 -5 -0.53 0.38
-12 3 5 -2.17 2.41
-12 3 5 0.85 2.92
-12 3 4 11.45 1.27
12 -3 -4 10.06 1.09
12 -3 -4 9.25 0.84
-12 3 4 10.37 4.71
-12 3 4 11.39 5.97
-12 3 3 7.71 1.19
12 -3 -3 6.86 0.92
-12 3 3 9.94 5.05
-12 3 3 4.37 4.14
-12 3 2 0.83 0.63
12 -3 -2 1.09 0.42
-12 3 2 -0.04 2.71
-12 3 1 15.22 1.66
12 -3 -1 14.68 1.28
-12 3 0 22.73 1.97
12 -3 0 19.57 1.45
-12 3 0 16.43 7.14
-12 3 -1 24.44 2.04
12 -3 1 22.92 1.48
-12 3 -1 21.91 7.47
-12 3 -2 2.96 0.86
12 -3 2 3.78 0.58
-12 3 -2 1.35 2.74
-12 3 -3 3.73 0.9
12 -3 3 4.24 0.62
12 -3 3 3.01 0.72
-12 3 -4 4.2 0.89
12 -3 4 5 0.61
12 -3 4 4.55 0.83
-12 3 -4 7.44 4.44
-12 3 -5 4.3 0.78
12 -3 5 4.1 0.75
-12 3 -5 2.89 1.49
-12 3 -6 11.1 1.04
12 -3 6 11.54 1.11
-12 3 -6 10.43 4.19
-12 3 -7 8.74 0.74
12 -3 7 7.7 0.67
12 -3 7 6.34 0.75
-12 3 -7 8.24 3.44
12 -3 8 26.79 1.16
12 -3 8 30.3 1.41
-12 3 -9 22.79 1.26
-12 2 11 0.59 0.27
12 -2 -10 6.28 0.55
12 -2 -10 4.68 0.5
-12 2 10 7.14 2.6
12 -2 -9 3.72 0.52
12 -2 -9 2.84 0.46
-12 2 9 1.98 1.87
12 -2 -8 26.07 1.47
12 -2 -8 26.3 1.39
-12 2 8 30 6.98
-12 2 7 -0.15 0.36
12 -2 -7 0.42 0.33
12 -2 -7 0.48 0.32
-12 2 6 13.78 1.27
12 -2 -6 12.31 1.1
12 -2 -6 10.7 0.92
-12 2 6 9.64 4.56
-12 2 5 59.33 2.83
12 -2 -5 53.27 2.42
-12 2 4 1.43 0.65
12 -2 -4 1.26 0.49
-12 2 3 32.51 2.35
12 -2 -3 29.91 1.75
-12 2 3 27.55 8.58
-12 2 2 6.17 1.1
12 -2 -2 4.19 0.69
-12 2 2 6.52 4.57
-12 2 1 64.76 3.41
12 -2 -1 67.66 2.6
-12 2 1 65.94 3.04
-12 2 0 2.69 0.89
12 -2 0 2.92 0.56
-12 2 -1 0.68 0.61
-12 2 -1 -0.55 3.42
-12 2 -2 9.18 1.29
-12 2 -2 7.95 5.01
-12 2 -3 6.41 1.08
12 -2 3 4.71 0.93
-12 2 -4 0.38 0.47
12 -2 4 0.19 0.45
-12 2 -4 1.27 2.36
-12 2 -5 8.83 1.02
12 -2 5 9.41 1.12
-12 2 -5 9.35 4.3
-12 2 -6 118.46 3.52
12 -2 6 126 3.32
12 -2 6 125.66 4.09
-12 2 -6 121.52 13.22
12 -2 7 3.66 0.61
-12 2 -7 7.11 3.56
12 -2 8 9.99 0.83
12 -2 9 13.94 0.78
-12 2 -9 13.23 0.96
-12 1 11 24.51 1.21
12 -1 -10 1.51 0.3
-12 1 10 1.98 1.77
12 -1 -9 0.34 0.22
12 -1 -9 -0.27 0.26
-12 1 9 0.01 0.44
-12 1 8 6.62 0.71
12 -1 -8 5.52 0.6
12 -1 -8 5.23 0.61
-12 1 8 7.26 1.1
-12 1 8 4.25 2.77
-12 1 7 -0.07 0.41
12 -1 -7 0.24 0.26
12 -1 -7 1.89 0.34
-12 1 7 -0.04 0.55
-12 1 7 -0.12 2.66
-12 1 6 61.59 2.81
-12 1 6 64.6 3.43
-12 1 5 19.57 1.69
12 -1 -5 19.29 1.25
-12 1 5 15.46 5.66
-12 1 4 31.6 2.23
-12 1 4 18.06 6.98
-12 1 3 3.56 0.97
-12 1 3 -0.02 3.42
-12 1 2 2.12 0.82
-12 1 2 2.83 0.78
-12 1 2 3.16 4.03
-12 1 1 -0.01 0.64
-12 1 1 -0.4 0.47
-12 1 1 0.02 2.87
-12 1 0 19.67 1.87
-12 1 0 16.54 1.37
-12 1 0 15.27 6.4
-12 1 -1 1.38 0.64
-12 1 -1 -1.1 2.64
-12 1 -2 54.26 2.88
-12 1 -2 53.38 8.95
-12 1 -3 2.73 0.73
12 -1 3 1.91 0.66
-12 1 -3 4.7 3.26
-12 1 -4 0.25 0.53
12 -1 4 0.49 0.49
-12 1 -4 2.28 2.11
-12 1 -5 3.17 0.63
12 -1 5 2.57 0.66
-12 1 -5 4.62 2.35
-12 1 -6 21.24 1.18
12 -1 6 22.31 1.58
-12 1 -6 17.8 4.59
12 -1 7 0.54 0.37
12 -1 8 31.28 1.51
-12 1 -8 29.76 1.74
12 -1 9 8.25 0.59
-12 1 -9 8.72 0.76
-12 0 11 1.05 0.31
12 0 -10 0.26 0.2
-12 0 10 0.04 0.35
-12 0 10 0.79 0.45
-12 0 9 1.89 0.39
12 0 -9 1.97 0.36
-12 0 9 2.1 0.61
-12 0 8 72.53 2.68
-12 0 8 74.76 3.44
-12 0 7 1.83 0.61
-12 0 7 1.08 0.64
-12 0 7 0.26 1.94
-12 0 6 1.55 0.61
-12 0 6 0.71 0.59
-12 0 5 1.56 0.62
-12 0 5 2.12 0.81
-12 0 5 1.92 3.34
-12 0 4 18.48 1.72
-12 0 4 5.14 2.48
-12 0 3 14.69 1.61
-12 0 3 12.86 1.54
-12 0 3 8.82 4.43
-12 0 2 4.91 1.06
-12 0 2 5.41 1.06
-12 0 2 6.47 4.36
-12 0 1 14.38 1.25
-12 0 1 15.28 1.51
-12 0 0 3.97 0.88
-12 0 0 3.92 0.77
-12 0 -1 2.45 0.77
-12 0 -1 0.31 2.19
-12 0 -2 0.6 0.54
12 0 2 1.17 0.57
-12 0 -3 0.27 0.48
12 0 3 0.09 0.47
-12 0 -3 0.33 2.13
-12 0 -4 25.21 1.61
12 0 4 25.29 1.92
-12 0 -4 31.22 6.12
-12 0 -5 43.9 1.83
12 0 5 46.12 2.44
-12 0 -5 46.61 7.26
12 0 6 116.41 3.84
12 0 7 100.3 3.17
-12 0 -7 95.68 3.55
12 0 8 11.03 0.84
-12 0 -8 10.33 0.98
-12 -1 11 -0.23 0.23
-12 -1 11 0.37 0.3
-12 -1 10 4.41 0.72
-12 -1 10 4.37 0.75
-12 -1 9 23.25 1.27
-12 -1 9 24.72 1.75
-12 -1 9 25.3 1.82
-12 -1 8 0.27 0.39
-12 -1 8 1.37 0.59
-12 -1 8 0.78 0.59
-12 -1 7 8.34 1.04
-12 -1 7 7.05 1.14
-12 -1 7 5.83 1.09
-12 -1 6 25.02 1.85
-12 -1 6 22.74 2.02
-12 -1 6 24.23 2.11
-12 -1 5 0.82 0.71
-12 -1 5 -0.54 0.52
-12 -1 5 -0.57 0.64
-12 -1 5 0.14 0.59
-12 -1 5 1.2 2.31
-12 -1 4 12.78 1.46
-12 -1 4 11.07 1.43
-12 -1 4 7.6 3.09
-12 -1 3 3.21 0.92
-12 -1 3 2.3 0.82
-12 -1 2 14.93 1.56
-12 -1 2 14.1 1.56
-12 -1 2 11.88 4.47
-12 -1 1 2.5 0.86
-12 -1 1 3.38 0.7
-12 -1 1 3.16 0.83
-12 -1 1 2.31 2.93
-12 -1 0 11.18 1.35
-12 -1 0 8.21 1.13
-12 -1 0 10.39 1.18
-12 -1 -1 0.82 0.61
-12 -1 -2 -0.07 0.47
12 1 2 0.01 0.38
-12 -1 -3 43.07 2.16
12 1 3 42.59 2.52
-12 -1 -4 41.87 1.84
12 1 4 42.72 2.39
12 1 5 132.06 4.28
12 1 6 162.08 4.56
-12 -1 -6 150.69 4.86
12 1 7 0.35 0.35
-12 -1 -7 0.19 0.37
-12 -1 -7 0.72 0.39
12 1 8 25.46 1.19
-12 -1 -8 22.73 1.17
-12 -1 -8 25.55 1.36
-12 -2 11 31.92 1.56
-12 -2 10 40.94 1.52
-12 -2 10 45.68 2.23
-12 -2 9 24.24 1.36
-12 -2 9 24.81 1.72
-12 -2 9 22.14 1.71
-12 -2 8 1.42 0.48
-12 -2 8 0.95 0.55
-12 -2 8 0.48 0.46
-12 -2 7 5.11 0.84
-12 -2 7 4.3 0.92
-12 -2 7 3.45 0.91
-12 -2 6 3.61 0.8
-12 -2 6 2.03 0.71
-12 -2 6 2 0.77
-12 -2 5 32.5 2.16
-12 -2 5 29.17 1.74
-12 -2 5 27.47 2.22
-12 -2 5 26.9 2.15
-12 -2 4 34.31 2.29
-12 -2 4 36.82 2.6
-12 -2 3 0.35 0.66
-12 -2 3 -0.15 0.51
-12 -2 2 6.61 1.04
-12 -2 2 6.91 0.88
-12 -2 2 6.48 1.06
-12 -2 1 0.06 0.56
-12 -2 1 -0.76 0.53
-12 -2 1 0.04 0.55
-12 -2 0 3.69 0.88
-12 -2 0 3.2 0.71
-12 -2 0 3.13 0.71
-12 -2 -1 19.53 1.55
12 2 1 17.35 1.64
-12 -2 -1 18.69 1.64
-12 -2 -1 18.87 1.38
-12 -2 -2 26.36 1.7
12 2 2 24.98 1.9
-12 -2 -2 28.08 2.02
-12 -2 -3 13.36 1.07
12 2 3 15.38 1.42
-12 -2 -3 14.95 1.45
12 2 4 62.06 2.76
-12 -2 -4 61.53 2.86
-12 -2 -5 118.75 3.8
12 2 5 126.34 3.93
-12 -2 -5 119.01 4.03
-12 -2 -5 112.73 3.93
-12 -2 -6 -0.14 0.3
-12 -2 -6 -0.13 0.4
12 2 6 0.44 0.32
-12 -2 -6 0.19 0.31
12 2 7 1.54 0.37
-12 -2 -7 1.22 0.36
-12 -2 -7 1.29 0.41
-12 -3 11 1.31 0.34
-12 -3 10 2.56 0.41
-12 -3 10 1.59 0.41
-12 -3 10 1.81 0.5
-12 -3 9 34.13 1.62
-12 -3 9 29.32 1.27
-12 -3 9 34.38 1.93
-12 -3 9 29.38 1.89
-12 -3 8 5.04 0.76
-12 -3 8 6.51 0.65
-12 -3 8 5.51 0.88
-12 -3 8 5.54 0.96
-12 -3 7 2.48 0.67
-12 -3 7 2.98 0.75
-12 -3 7 3.26 0.76
-12 -3 6 38.36 2.2
-12 -3 6 33.76 2.4
-12 -3 6 32.99 2.23
-12 -3 5 45.63 2.49
-12 -3 5 40.87 2.08
-12 -3 5 42.6 2.71
-12 -3 4 0.6 0.62
-12 -3 4 0.77 0.49
-12 -3 4 1.31 0.67
-12 -3 3 2.3 0.7
-12 -3 3 1.01 0.57
-12 -3 3 1.08 0.41
-12 -3 3 1.41 0.62
-12 -3 2 14.49 1.44
-12 -3 2 13.61 1.24
-12 -3 2 12.68 1.46
-12 -3 1 11.15 1.26
-12 -3 1 10.63 1.16
-12 -3 1 10.33 1.28
-12 -3 0 4.54 0.81
-12 -3 0 4.07 0.8
12 3 0 3.18 0.78
-12 -3 0 3.31 0.71
-12 -3 -1 2.46 0.69
-12 -3 -1 0.96 0.55
12 3 1 1.3 0.56
-12 -3 -1 1.01 0.47
-12 -3 -2 0.6 0.41
-12 -3 -2 0.76 0.51
12 3 2 0.69 0.39
-12 -3 -3 0.94 0.53
-12 -3 -3 2.38 0.69
12 3 3 1.21 0.49
-12 -3 -3 1.49 0.51
-12 -3 -4 4.58 0.75
-12 -3 -4 4.95 0.86
12 3 4 3.72 0.65
-12 -3 -4 3.51 0.58
-12 -3 -5 56.57 2.23
12 3 5 62.48 2.35
-12 -3 -5 59.62 2.53
-12 -3 -5 57.77 2.31
-12 -3 -6 5.99 0.53
12 3 6 6.11 0.6
-12 -3 -6 6.61 0.77
-12 -3 -6 6.28 0.66
12 3 7 30.49 1.16
-12 -3 -7 28.18 1.26
-12 -4 10 1.41 0.33
-12 -4 10 1.76 0.39
-12 -4 10 1.03 0.37
-12 -4 9 1.35 0.41
-12 -4 9 2.1 0.38
-12 -4 9 2.29 0.54
-12 -4 9 1.39 0.47
-12 -4 8 1.66 0.48
-12 -4 8 1.73 0.39
-12 -4 8 2.19 0.58
-12 -4 8 1.55 0.53
-12 -4 7 11.33 1.16
-12 -4 7 8.94 0.78
-12 -4 7 10.18 1.22
-12 -4 6 18.7 1.48
-12 -4 6 16.85 1.1
-12 -4 6 17.32 1.63
-12 -4 5 8.11 1.06
-12 -4 5 8.67 0.94
-12 -4 5 9.38 1.26
-12 -4 4 8.02 1.08
-12 -4 4 6.66 0.94
-12 -4 4 7.44 1.14
-12 -4 3 18.04 1.52
-12 -4 3 17.33 1.57
-12 -4 3 17.33 1.25
-12 -4 3 18.11 1.71
-12 -4 2 2.87 0.68
-12 -4 2 3.05 0.82
-12 -4 2 1.76 0.54
-12 -4 2 2.79 0.83
-12 -4 1 0.07 0.51
-12 -4 1 1.13 0.61
12 4 -1 0.03 0.33
-12 -4 1 0.95 0.48
-12 -4 0 0.96 0.47
-12 -4 0 -0.04 0.54
-12 -4 0 -0.53 0.46
12 4 0 0.51 0.38
-12 -4 0 -0.09 0.37
-12 -4 -1 6.21 0.74
-12 -4 -1 7.46 1.14
12 4 1 6.82 0.97
-12 -4 -1 6.57 0.98
-12 -4 -1 5.66 0.78
-12 -4 -2 1.43 0.63
-12 -4 -2 1.78 0.6
12 4 2 1 0.41
-12 -4 -3 30.22 1.89
12 4 3 29.56 1.61
-12 -4 -3 31.86 1.91
-12 -4 -4 11.43 1.02
12 4 4 9.45 0.81
-12 -4 -4 10.83 1.05
-12 -4 -5 0.55 0.29
-12 -4 -5 -0.38 0.42
12 4 5 -0.25 0.22
-12 -4 -6 11.62 0.85
-12 -5 10 6.43 0.57
-12 -5 9 1.22 0.4
-12 -5 9 1.36 0.29
-12 -5 9 1.08 0.38
-12 -5 8 10.37 0.95
-12 -5 8 9.71 0.75
-12 -5 8 9.19 1
-12 -5 7 5.9 0.8
-12 -5 7 4.94 0.58
-12 -5 7 5.59 0.91
-12 -5 6 4.78 0.76
-12 -5 6 4.63 0.62
-12 -5 6 4.24 0.86
-12 -5 5 16.69 1.35
-12 -5 5 14.73 1.15
-12 -5 5 17.62 1.13
-12 -5 5 17.54 1.61
-12 -5 4 -0.32 0.43
-12 -5 4 -0.08 0.42
-12 -5 4 0.52 0.53
-12 -5 4 -0.01 0.29
-12 -5 4 -0.05 0.47
-12 -5 3 6.75 0.93
-12 -5 3 5.23 0.88
-12 -5 3 5.95 0.77
12 5 -3 3.51 0.56
-12 -5 3 6.32 1.03
-12 -5 2 29.63 1.72
-12 -5 2 29 2
-12 -5 2 28.2 1.7
-12 -5 2 28.94 2.05
-12 -5 1 5.63 0.76
-12 -5 1 7.17 1.09
-12 -5 1 7.24 0.95
12 5 -1 5.3 0.66
-12 -5 1 6.66 0.99
-12 -5 0 9.69 0.84
-12 -5 0 12.88 1.37
12 5 0 9 0.83
-12 -5 0 12.25 1.21
-12 -5 0 9.68 1.06
-12 -5 -1 3.24 0.76
-12 -5 -1 4.13 0.79
12 5 1 2.41 0.47
-12 -5 -1 1.62 0.46
-12 -5 -2 22.64 1.62
12 5 2 21.35 1.17
-12 -5 -2 24.68 1.62
-12 -5 -3 13.11 1.11
12 5 3 11.55 0.8
-12 -5 -3 12.16 1.09
-12 -5 -4 3.79 0.58
-12 -5 -4 3.87 0.64
12 5 4 3.8 0.4
-12 -5 -5 9.53 0.78
-12 -6 9 6.75 0.61
-12 -6 9 5.66 0.57
-12 -6 8 0.45 0.24
-12 -6 8 0.81 0.35
-12 -6 7 29.9 1.6
-12 -6 7 30.89 1.42
-12 -6 7 29.52 1.77
-12 -6 6 0.66 0.4
-12 -6 6 0.48 0.38
-12 -6 6 -0.27 0.44
-12 -6 5 10.9 1.01
-12 -6 5 7.91 0.81
-12 -6 5 9.34 0.89
-12 -6 5 8.8 1.09
-12 -6 4 4.3 0.7
-12 -6 4 4.56 0.71
-12 -6 4 3.98 0.57
-12 -6 4 4.05 0.84
-12 -6 3 1.91 0.5
-12 -6 3 0.89 0.45
-12 -6 3 1.78 0.48
-12 -6 3 1.25 0.57
-12 -6 2 14.79 1.08
-12 -6 2 15.03 1.35
-12 -6 2 16.77 1.25
-12 -6 2 15.63 1.43
-12 -6 1 12.71 0.91
-12 -6 1 15.61 1.37
-12 -6 1 16.41 1.26
-12 -6 1 15.27 1.31
-12 -6 0 1.66 0.56
-12 -6 0 2.25 0.58
-12 -6 0 1.67 0.49
-12 -6 -1 1.72 0.55
-12 -6 -1 0.26 0.37
-12 -6 -1 1.24 0.45
-12 -6 -2 20.36 1.36
-12 -6 -2 22.37 1.4
-12 -6 -2 17.9 1.02
-12 -6 -3 1.64 0.39
-12 -6 -3 1.92 0.45
-12 -6 -3 1.33 0.32
-12 -6 -4 22.21 1.16
-12 -7 8 0.23 0.27
-12 -7 8 -0.12 0.23
-12 -7 7 32.99 1.45
-12 -7 7 31.57 1.35
-12 -7 7 30.72 1.59
-12 -7 6 9.85 0.82
-12 -7 6 10.6 1.02
-12 -7 5 11.56 0.93
-12 -7 5 12.24 1.13
-12 -7 4 -0.09 0.29
-12 -7 4 0.58 0.4
-12 -7 4 -0.48 0.26
-12 -7 4 0.18 0.37
-12 -7 3 0.36 0.33
-12 -7 3 0.75 0.43
-12 -7 3 0.11 0.3
-12 -7 3 -0.21 0.33
-12 -7 2 -0.23 0.25
-12 -7 2 0.31 0.4
-12 -7 2 0.15 0.36
-12 -7 2 0.08 0.36
-12 -7 1 69.4 2.74
-12 -7 1 72.24 2.59
-12 -7 1 64.85 2.63
-12 -7 0 21.7 1.44
-12 -7 0 24.64 1.43
-12 -7 0 20.35 1.28
-12 -7 -1 5.95 0.73
-12 -7 -1 6.49 0.73
-12 -7 -2 3.06 0.48
-12 -7 -2 3.62 0.53
-12 -7 -3 41.63 1.54
-12 -8 7 0.94 1.65
-12 -8 6 8.38 0.61
-12 -8 6 10.12 0.82
-12 -8 5 84.82 2.23
-12 -8 5 92.38 2.91
-12 -8 4 1.34 0.39
-12 -8 3 14.42 0.88
-12 -8 3 14.71 1.13
-12 -8 2 2.29 0.41
-12 -8 2 2.55 0.56
-12 -8 1 11.95 0.87
-12 -8 0 2.81 0.46
-12 -8 -1 10.49 0.72
13 -9 -2 0.3 0.16
13 -9 -1 7.45 0.56
13 -9 0 3.61 0.41
13 -9 1 35.52 1.29
13 -9 2 4.21 0.4
13 -8 -4 9.6 0.63
-13 8 4 10.88 2.9
13 -8 -3 10.9 0.74
-13 8 3 7.51 2.52
13 -8 -2 6.6 0.62
-13 8 2 6.78 2.6
13 -8 -1 2.44 0.4
-13 8 1 3.38 2.23
-13 8 0 16.07 0.9
13 -8 0 19.69 1.07
-13 8 -1 -0.47 0.29
13 -8 1 0.19 0.26
-13 8 -2 0.26 0.25
13 -8 2 0.63 0.23
-13 8 -3 0.07 0.26
13 -8 3 0.51 0.21
-13 8 -4 11.7 0.74
13 -8 4 10.68 0.62
-13 8 -4 10.63 2.72
13 -7 -5 0.94 0.26
-13 7 5 1.5 1.54
13 -7 -4 14.03 0.7
13 -7 -4 18.02 1.01
-13 7 4 18.21 4.35
13 -7 -3 20.76 0.89
13 -7 -3 27.5 1.32
-13 7 3 23.69 5.54
-13 7 2 1.26 0.34
13 -7 -2 1.2 0.36
13 -7 -2 0.52 0.18
-13 7 1 1.31 0.39
13 -7 -1 1 0.33
-13 7 1 2.47 2.19
-13 7 0 12.84 0.97
13 -7 0 11.53 0.88
-13 7 0 11.14 3.89
-13 7 -1 3.95 0.61
13 -7 1 3.48 0.49
-13 7 -2 16.88 1.15
13 -7 2 17.72 1.03
-13 7 -3 22.45 1.28
13 -7 3 21.57 1.06
-13 7 -3 18.45 4.22
-13 7 -4 -0.02 0.28
13 -7 4 -0.18 0.16
-13 7 -4 -0.55 0.96
-13 7 -5 6.12 0.56
-13 7 -5 4.18 1.97
-13 6 7 1.64 1.33
13 -6 -6 3.79 0.44
-13 6 6 2.5 1.97
13 -6 -5 0.19 0.21
13 -6 -5 0.24 0.17
-13 6 5 0.48 1.3
13 -6 -4 56.87 1.7
13 -6 -4 65.81 2.2
-13 6 4 63.14 9.03
-13 6 3 -0.01 0.26
13 -6 -3 0.08 0.26
13 -6 -3 0.15 0.17
-13 6 2 3.4 0.56
13 -6 -2 3.62 0.55
-13 6 2 2.1 2.31
-13 6 1 11.89 1
13 -6 -1 10.25 0.91
13 -6 -1 5.44 0.59
-13 6 1 9.88 3.81
-13 6 0 19.83 1.32
13 -6 0 19.82 1.19
13 -6 0 10.8 0.82
-13 6 0 16.32 5.28
-13 6 -1 14.74 1.16
13 -6 1 14.58 0.98
-13 6 -2 1.56 0.48
13 -6 2 2.1 0.4
13 -6 2 0.6 0.27
-13 6 -3 25.98 1.5
13 -6 3 25.89 1.19
-13 6 -3 27.98 5.63
-13 6 -4 0.48 0.35
13 -6 4 0.24 0.17
-13 6 -4 1.7 1.73
-13 6 -5 4.97 0.57
-13 6 -5 3 1.96
-13 6 -6 4.12 1.71
13 -5 -7 30.4 1.14
-13 5 7 31.93 5.46
13 -5 -6 13.87 0.85
13 -5 -6 11.05 0.62
-13 5 6 12.92 4.05
13 -5 -5 10.73 0.64
13 -5 -5 16.06 1
-13 5 5 16.26 4.91
-13 5 4 5.61 0.61
13 -5 -4 4.54 0.43
-13 5 3 1.64 0.43
13 -5 -3 2.74 0.48
-13 5 3 1.76 0.4
-13 5 3 2 2.54
-13 5 2 1.42 0.48
13 -5 -2 2.03 0.43
-13 5 2 1.32 2.04
-13 5 1 29.68 1.7
13 -5 -1 26.83 1.44
-13 5 1 33.36 7.69
-13 5 0 9.62 1.01
13 -5 0 8.91 0.8
13 -5 0 5.69 0.72
-13 5 0 6.79 3.34
-13 5 -1 1.86 0.6
13 -5 1 1.72 0.41
13 -5 1 0.76 0.33
-13 5 -1 0.61 2.13
-13 5 -2 50.59 2.27
13 -5 2 49 1.75
-13 5 -3 24.17 1.48
13 -5 3 23.31 1.08
13 -5 3 16.69 1.02
-13 5 -3 22.99 5.02
-13 5 -4 0.26 0.42
13 -5 4 1.09 0.25
13 -5 4 0.76 0.25
-13 5 -5 19.98 1.13
-13 5 -5 22.06 4.31
-13 5 -6 1.03 0.91
-13 4 8 7.92 0.66
-13 4 8 5.2 2.07
13 -4 -7 2.32 0.32
-13 4 7 2.12 2.43
13 -4 -6 35.85 1.39
13 -4 -6 27.14 1.02
-13 4 6 36.09 6.86
-13 4 5 28.4 1.29
13 -4 -5 27.31 1.32
-13 4 5 27.68 6.58
-13 4 4 28.73 1.51
13 -4 -4 26.92 1.37
-13 4 4 26.84 6.43
-13 4 3 -0.18 0.38
13 -4 -3 0.21 0.26
-13 4 3 -0.5 0.35
-13 4 3 0.81 1.82
-13 4 2 0.38 0.45
13 -4 -2 0.04 0.23
-13 4 2 -0.99 2.01
-13 4 1 31.14 1.87
13 -4 -1 31.06 1.48
-13 4 1 28.02 7.46
-13 4 0 3.86 0.81
13 -4 0 3.15 0.48
-13 4 0 5.26 3.53
-13 4 -1 39.53 2.1
13 -4 1 34.28 1.44
13 -4 1 25.58 1.66
-13 4 -1 35.2 7.88
-13 4 -2 17.29 1.34
13 -4 2 16.4 0.92
13 -4 2 13.23 1.1
-13 4 -2 15.74 4.31
-13 4 -3 9.76 1.01
13 -4 3 4.77 0.65
-13 4 -3 4.52 2.67
-13 4 -4 21.22 1.33
13 -4 4 18.21 1.12
-13 4 -5 1.86 0.45
13 -4 5 1.58 0.33
-13 4 -5 2.66 1.9
-13 4 -6 7.42 2.24
-13 3 8 13.75 0.97
-13 3 8 11.14 2.9
13 -3 -7 9.47 0.6
-13 3 7 9.08 3.06
-13 3 6 12.71 0.81
13 -3 -6 12.7 0.8
-13 3 6 12.08 3.94
-13 3 5 10.22 0.86
13 -3 -5 8.24 0.69
-13 3 4 1.39 0.49
13 -3 -4 1.69 0.38
-13 3 4 1.85 0.49
-13 3 4 1.83 2.48
-13 3 3 -0.24 0.39
13 -3 -3 0.18 0.22
-13 3 3 0.04 0.34
-13 3 2 1.68 0.59
13 -3 -2 1.41 0.35
-13 3 2 0.55 0.3
-13 3 2 0.06 2.66
-13 3 1 2.27 0.65
13 -3 -1 2.75 0.44
-13 3 1 2.4 3.03
-13 3 0 1.76 0.58
-13 3 0 2.24 1.95
-13 3 -1 21.92 1.61
13 -3 1 16.87 1.39
-13 3 -1 13.03 3.69
-13 3 -2 7.82 0.95
13 -3 2 6.29 0.83
-13 3 -2 8.13 3.21
-13 3 -3 3.63 0.68
13 -3 3 2.18 0.53
-13 3 -3 3.94 2.34
-13 3 -4 0.49 0.38
13 -3 4 0.02 0.26
-13 3 -4 -1.09 1.8
-13 3 -5 1.96 0.39
13 -3 5 1.84 0.38
-13 3 -5 1.85 1.52
13 -3 6 4.55 0.47
-13 2 9 5.51 0.55
-13 2 8 0.21 0.27
-13 2 8 -0.29 1.58
-13 2 7 3.74 0.66
-13 2 7 0.17 1.62
-13 2 6 10.15 0.83
-13 2 6 12.34 1.15
-13 2 5 30.71 1.64
-13 2 5 30.93 1.85
-13 2 4 12.8 1.16
-13 2 4 11.75 1.14
-13 2 3 8.48 1.02
-13 2 3 9.98 1.05
-13 2 2 1.35 0.62
-13 2 2 1.03 0.45
-13 2 1 -0.12 0.48
-13 2 1 1.03 2.24
-13 2 0 33.1 2.01
-13 2 0 29.79 7.48
-13 2 -1 0.97 0.52
13 -2 1 0.1 0.36
-13 2 -1 1.49 1.8
-13 2 -2 0.98 0.48
13 -2 2 1.23 0.5
-13 2 -2 2.89 1.93
-13 2 -3 5.75 0.78
13 -2 3 5.39 0.74
-13 2 -3 4.36 2.5
-13 2 -4 0.11 0.31
13 -2 4 0.14 0.25
-13 2 -5 36.12 1.4
13 -2 5 38.78 1.71
-13 2 -5 42.38 5.48
13 -2 6 1.19 0.3
-13 1 9 18 1.02
-13 1 8 8.03 0.83
-13 1 7 13.58 0.86
-13 1 7 18.1 1.33
-13 1 6 3.61 0.58
-13 1 6 4.48 0.75
-13 1 5 13.37 1.12
-13 1 5 13.76 1.29
-13 1 4 -0.04 0.43
-13 1 4 0.08 0.41
-13 1 3 5.62 0.88
-13 1 3 4.42 0.73
-13 1 3 5.16 3.08
-13 1 2 6.27 0.9
-13 1 2 4.95 0.74
-13 1 2 7.31 4.38
-13 1 1 1.07 0.5
-13 1 1 -0.01 0.28
-13 1 1 -0.8 1.8
-13 1 0 1.1 0.61
-13 1 -1 0.86 0.53
-13 1 -1 0.33 0.32
13 -1 1 -0.43 0.35
-13 1 -2 24.9 1.57
13 -1 2 22.23 1.6
-13 1 -2 20.97 1.32
-13 1 -3 4.69 0.71
-13 1 -3 4.36 0.63
13 -1 3 4.06 0.68
-13 1 -4 0.21 0.29
13 -1 4 0.85 0.35
13 -1 5 11.85 0.93
-13 1 -5 10.96 0.87
13 -1 6 22.29 1.1
-13 1 -6 20.88 1.1
-13 1 -6 21.03 1.2
-13 0 9 0.37 0.26
-13 0 8 0.31 0.29
-13 0 7 0.42 0.27
-13 0 7 0.11 0.32
-13 0 6 26.25 1.49
-13 0 6 28.63 1.8
-13 0 5 10.71 1.03
-13 0 5 7.09 0.95
-13 0 5 6.71 2.93
-13 0 4 17.42 1.42
-13 0 4 16.73 1.13
-13 0 4 18.22 1.47
-13 0 4 18.38 4.37
-13 0 3 14.01 1.32
-13 0 3 15.93 1.36
-13 0 2 1.23 0.5
-13 0 2 0.05 0.38
-13 0 1 0.68 0.49
-13 0 1 1.24 0.42
-13 0 0 4.21 0.74
-13 0 0 2.88 0.47
13 0 0 3.01 0.66
-13 0 -1 12.84 1.16
13 0 1 10.86 1.13
-13 0 -1 10.55 0.91
-13 0 -2 2.91 0.59
-13 0 -2 1.88 0.46
13 0 2 2.37 0.54
-13 0 -3 108.9 3.06
13 0 3 101.8 3.44
-13 0 -3 98.6 3.23
-13 0 -4 11.64 0.76
13 0 4 14.91 1.09
-13 0 -4 13.96 1.06
-13 0 -5 1.48 0.41
-13 0 -5 1.62 0.42
13 0 5 1.68 0.38
-13 0 -5 0.8 0.32
13 0 6 15.78 0.86
-13 0 -6 13.08 0.82
-13 -1 9 18.47 1.01
-13 -1 8 4.6 0.5
-13 -1 8 6.89 0.75
-13 -1 7 9.57 0.82
-13 -1 7 12.39 1.11
-13 -1 6 1.57 0.46
-13 -1 6 2.07 0.54
-13 -1 5 10.29 1.02
-13 -1 5 7.76 0.99
-13 -1 4 8.13 0.97
-13 -1 4 7.21 0.75
-13 -1 4 7.39 0.97
-13 -1 3 15.58 1.33
-13 -1 3 13.8 1.18
-13 -1 3 14.58 1.28
-13 -1 2 8.21 1
-13 -1 2 6.15 0.83
-13 -1 1 1.99 0.62
-13 -1 1 2.51 0.54
-13 -1 0 24.86 1.58
13 1 0 21.46 1.55
-13 -1 0 23.57 1.32
-13 -1 -1 23.78 1.48
13 1 1 24.2 1.61
-13 -1 -1 24.09 1.42
-13 -1 -2 9.08 0.82
13 1 2 7.66 0.9
-13 -1 -2 8.61 0.87
-13 -1 -3 5.37 0.56
13 1 3 6.84 0.78
-13 -1 -3 8.14 0.84
-13 -1 -4 73.36 2.51
13 1 4 72.08 2.46
-13 -1 -4 73.04 2.49
-13 -1 -5 46.92 1.65
13 1 5 49.96 1.78
-13 -1 -5 50.14 1.84
-13 -2 8 0.33 0.23
-13 -2 8 0.78 0.32
-13 -2 7 2.55 0.47
-13 -2 7 3.37 0.62
-13 -2 6 4.16 0.62
-13 -2 6 4.52 0.74
-13 -2 5 2.62 0.61
-13 -2 5 2.48 0.6
-13 -2 4 4.03 0.72
-13 -2 4 2.96 0.51
-13 -2 4 3.56 0.69
-13 -2 3 18.45 1.39
-13 -2 3 17.77 1.31
-13 -2 3 20.67 1.5
-13 -2 2 1.27 0.52
-13 -2 2 1.1 0.45
-13 -2 2 1.82 0.53
-13 -2 1 1.9 0.57
-13 -2 1 1.95 0.62
-13 -2 1 1.71 0.43
13 2 -1 1.2 0.46
-13 -2 1 2.25 0.51
-13 -2 0 15.86 1.19
-13 -2 0 17.77 1.43
13 2 0 15.68 1.24
-13 -2 0 15.39 1.06
-13 -2 -1 8.26 0.79
-13 -2 -1 9.28 1.07
13 2 1 8.01 0.88
-13 -2 -1 7.14 0.77
-13 -2 -2 1.74 0.37
-13 -2 -2 2.34 0.62
-13 -2 -2 2.51 0.52
13 2 2 2.97 0.54
-13 -2 -3 27.67 1.57
13 2 3 26.69 1.4
-13 -2 -3 26.3 1.43
-13 -2 -4 103.74 2.92
13 2 4 105.16 2.87
-13 -2 -4 102.88 2.98
13 2 5 20.16 0.92
-13 -2 -5 21.38 1.05
-13 -3 8 0.5 0.24
-13 -3 8 1.19 0.34
-13 -3 7 2.62 0.47
-13 -3 7 2.62 0.54
-13 -3 6 5.62 0.7
-13 -3 6 6.42 0.83
-13 -3 5 6.63 0.79
-13 -3 5 4.27 0.71
-13 -3 4 65 2.52
-13 -3 4 59.43 2.18
-13 -3 4 65.35 2.73
-13 -3 3 35.01 1.8
-13 -3 3 34.19 1.76
-13 -3 3 33.15 1.86
-13 -3 2 8.46 0.89
-13 -3 2 9.65 1.02
13 3 -2 7.07 0.79
-13 -3 2 8.43 0.9
-13 -3 1 16.25 1.16
-13 -3 1 18.42 1.43
13 3 -1 13.29 1.06
-13 -3 1 15.8 0.98
-13 -3 1 15.47 1.1
-13 -3 0 1.98 0.43
-13 -3 0 2.35 0.62
-13 -3 0 1.44 0.4
13 3 0 2.11 0.46
-13 -3 0 2 0.42
-13 -3 -1 9.79 0.72
-13 -3 -1 13.79 1.19
13 3 1 10.35 0.86
-13 -3 -1 12.92 0.98
-13 -3 -2 4.22 0.69
-13 -3 -2 3.56 0.56
13 3 2 3.94 0.52
-13 -3 -3 43.33 1.77
13 3 3 38.47 1.46
-13 -3 -3 42.31 1.71
-13 -3 -4 5.33 0.55
-13 -4 7 0.04 0.25
-13 -4 7 0.5 0.34
-13 -4 6 5.34 0.63
-13 -4 6 6.76 0.79
-13 -4 5 15.53 1.05
-13 -4 5 15.37 1.2
-13 -4 4 -0.4 0.35
-13 -4 4 -0.53 0.31
13 4 -4 0.21 0.2
-13 -4 4 -0.6 0.42
-13 -4 3 0.51 0.32
-13 -4 3 0.64 0.34
13 4 -3 0.13 0.21
-13 -4 3 0.49 0.36
-13 -4 2 1.82 0.43
-13 -4 2 1.56 0.47
-13 -4 2 1.42 0.31
13 4 -2 0.57 0.21
-13 -4 2 2.18 0.5
-13 -4 1 8.8 0.73
13 4 -1 7.1 0.64
-13 -4 1 9.21 0.72
-13 -4 1 9.43 0.82
-13 -4 0 3.07 0.42
-13 -4 0 3.32 0.64
-13 -4 0 3.38 0.49
13 4 0 2.58 0.41
-13 -4 0 2.57 0.4
-13 -4 -1 1.75 0.49
-13 -4 -1 1.92 0.4
13 4 1 1.15 0.27
-13 -4 -2 5.73 0.66
-13 -4 -2 5.84 0.61
-13 -4 -3 4.51 0.48
-13 -4 -3 3.85 0.46
-13 -5 7 0.44 0.23
-13 -5 7 0.07 0.22
-13 -5 6 33.27 1.34
-13 -5 6 34.17 1.55
-13 -5 5 13.24 0.87
-13 -5 5 12.07 0.96
-13 -5 4 6.61 0.65
-13 -5 4 5.65 0.56
-13 -5 4 7.15 0.77
-13 -5 3 6.26 0.59
-13 -5 3 6.76 0.67
-13 -5 3 6.85 0.74
-13 -5 2 1.05 0.31
-13 -5 2 0.59 0.32
-13 -5 2 0.74 0.3
-13 -5 1 50.12 2.01
-13 -5 1 47.22 1.62
-13 -5 0 0.37 0.37
-13 -5 0 0.65 0.31
-13 -5 -1 5.9 0.61
-13 -5 -1 6.69 0.58
-13 -5 -2 2.43 0.38
-13 -5 -2 2.7 0.37
-13 -6 5 1.79 0.35
-13 -6 4 -0.05 0.22
-13 -6 3 0.94 0.3
-13 -6 2 14.5 0.92
-13 -6 1 1.58 0.36
-13 -6 0 26.55 1.16
-14 5 0 1.22 0.29
-14 5 -1 2.21 0.33
-14 4 3 7.49 2.51
-14 4 2 13.72 0.8
-14 4 1 13.35 0.81
14 -4 -1 6.5 0.55
-14 4 0 26 1.2
-14 4 -1 49.73 1.69
-14 4 -2 1.11 0.28
-14 3 3 0.78 0.3
14 -3 -3 0.09 0.18
-14 3 2 0.26 0.28
14 -3 -2 0.01 0.19
-14 3 1 8.67 0.72
14 -3 -1 4.7 0.54
-14 3 0 6.99 0.66
14 -3 0 4.82 0.52
-14 3 -1 4.34 0.51
14 -3 1 2.2 0.36
-14 3 -2 1.46 0.32
-14 2 4 3.61 0.44
-14 2 3 9.21 0.71
-14 2 2 3.06 0.51
14 -2 -2 1.04 0.31
-14 2 1 31.78 1.39
14 -2 -1 19.86 1.15
-14 2 0 0.11 0.29
14 -2 0 -0.16 0.24
-14 2 -1 2.51 0.42
14 -2 1 0.93 0.28
-14 2 -2 -0.13 0.21
14 -2 2 0.56 0.21
-14 1 4 0.78 0.28
-14 1 3 1.13 0.32
14 -1 -3 0.77 0.29
-14 1 2 24.98 1.22
14 -1 -2 14.68 0.99
-14 1 1 2.19 0.43
-14 1 1 2.08 0.41
14 -1 -1 1.2 0.33
-14 1 0 -0.26 0.27
14 -1 0 -0.06 0.2
-14 1 -1 2.59 0.4
14 -1 1 2.28 0.39
-14 1 -2 2.53 0.41
14 -1 2 1.82 0.32
-14 0 4 2.71 0.4
-14 0 3 0.1 0.26
14 0 -3 0.24 0.22
-14 0 2 20.67 1.09
14 0 -2 15.04 0.97
-14 0 1 3.82 0.51
-14 0 1 4.08 0.49
14 0 -1 2.47 0.4
-14 0 0 7.78 0.63
-14 0 0 9.63 0.77
14 0 0 7.56 0.66
-14 0 -1 4.46 0.55
14 0 1 2.54 0.37
-14 0 -2 0.07 0.21
14 0 2 -0.07 0.15
-14 -1 4 29.71 1.15
14 1 -4 17.46 0.9
-14 -1 3 12.11 0.76
14 1 -3 8.72 0.64
-14 -1 2 30.6 1.23
14 1 -2 18.99 1.01
-14 -1 1 0.6 0.25
-14 -1 1 0.14 0.21
14 1 -1 0.36 0.21
-14 -1 0 -0.13 0.22
14 1 0 0.19 0.17
-14 -1 -1 15.02 0.85
14 1 1 10.05 0.64
-14 -2 3 -0.68 0.27
