#------------------------------------------------------------------------------
#$Date: 2017-06-04 00:47:00 +0300 (Sun, 04 Jun 2017) $
#$Revision: 197210 $
#$URL: file:///home/coder/svn-repositories/cod/cif/4/51/41/4514141.cif $
#------------------------------------------------------------------------------
#
# This file is available in the Crystallography Open Database (COD),
# http://www.crystallography.net/
#
# All data on this site have been placed in the public domain by the
# contributors.
#
data_4514141
loop_
_publ_author_name
'Herl\'e, Bart'
'Holstein, Philipp M.'
'Echavarren, Antonio M.'
_publ_section_title
;
 Stereoselective cis-Vinylcyclopropanation via a Gold(I)-Catalyzed
 Retro-Buchner Reaction under Mild Conditions.
;
_journal_issue                   5
_journal_name_full               'ACS catalysis'
_journal_page_first              3668
_journal_page_last               3675
_journal_paper_doi               10.1021/acscatal.7b00737
_journal_volume                  7
_journal_year                    2017
_chemical_absolute_configuration ad
_chemical_formula_sum            'C18 H18'
_chemical_formula_weight         234.32
_space_group_IT_number           4
_space_group_name_Hall           'P 2yb'
_symmetry_cell_setting           monoclinic
_symmetry_space_group_name_Hall  'P 2yb'
_symmetry_space_group_name_H-M   'P 1 21 1'
_atom_sites_solution_hydrogens   geom
_audit_creation_method           SHELXL-2014/7
_cell_angle_alpha                90
_cell_angle_beta                 100.891(7)
_cell_angle_gamma                90
_cell_formula_units_Z            2
_cell_length_a                   9.035(2)
_cell_length_b                   5.7594(15)
_cell_length_c                   13.277(3)
_cell_measurement_reflns_used    3354
_cell_measurement_temperature    100(2)
_cell_measurement_theta_max      30.12
_cell_measurement_theta_min      3.01
_cell_volume                     678.4(3)
_computing_cell_refinement       'Bruker APEX2 v2011.4-0'
_computing_data_collection       'Bruker APEX2 v2011.4-0'
_computing_data_reduction        'Bruker SAINT V7.60A'
_computing_molecular_graphics    'Bruker SHELXTL'
_computing_publication_material  'Bruker SHELXTL'
_computing_structure_refinement  'SHELXL-2014 (Sheldrick, 2014)'
_computing_structure_solution    Sir2011
_diffrn_ambient_temperature      100(2)
_diffrn_detector_area_resol_mean 512
_diffrn_detector_type            '4K CCD area detector APEX II'
_diffrn_measured_fraction_theta_full 0.997
_diffrn_measured_fraction_theta_max 0.927
_diffrn_measurement_device_type  'APEX DUO Kappa 4-axis goniometer'
_diffrn_measurement_method
;
 Fullsphere data collection, phi and omega scans
;
_diffrn_measurement_specimen_support 'magnetic support with MicroMount'
_diffrn_radiation_monochromator  'Quazar MX Multilayer Optics'
_diffrn_radiation_type           MoK\a
_diffrn_radiation_wavelength     0.71073
_diffrn_reflns_Laue_measured_fraction_full 0.997
_diffrn_reflns_Laue_measured_fraction_max 0.927
_diffrn_reflns_limit_k_max       5
_diffrn_reflns_limit_k_min       -8
_diffrn_reflns_limit_l_max       15
_diffrn_reflns_limit_l_min       -19
_diffrn_reflns_point_group_measured_fraction_full 0.883
_diffrn_reflns_point_group_measured_fraction_max 0.746
_diffrn_reflns_theta_full        25.242
_diffrn_reflns_theta_max         32.557
_diffrn_reflns_theta_min         2.295
_diffrn_source                   'Microfocus source E025 IuS'
_diffrn_source_current           0.6
_diffrn_source_power             50
_diffrn_source_size              '0.2 mm x 0.2 mm fine focus'
_diffrn_source_type              'Bruker APEX DUO'
_exptl_absorpt_coefficient_mu    0.064
_exptl_absorpt_correction_T_max  0.996
_exptl_absorpt_correction_T_min  0.874
_exptl_absorpt_correction_type   empirical
_exptl_absorpt_process_details
; 
 SADABS Version 2008/1 Bruker-Nonius
 Blessing, Acta Cryst. (1995) A51 33-38
;
_exptl_crystal_colour            colourless
_exptl_crystal_density_diffrn    1.147
_exptl_crystal_description       block
_exptl_crystal_F_000             252
_exptl_crystal_size_max          0.20
_exptl_crystal_size_mid          0.15
_exptl_crystal_size_min          0.06
_refine_diff_density_max         0.251
_refine_diff_density_min         -0.211
_refine_diff_density_rms         0.043
_refine_ls_abs_structure_details
;
 Flack x determined using 913 quotients [(I+)-(I-)]/[(I+)+(I-)]
 (Parsons, Flack and Wagner, Acta Cryst. B69 (2013) 249-259).
;
_refine_ls_abs_structure_Flack   0.1(10)
_refine_ls_extinction_method     none
_refine_ls_goodness_of_fit_ref   1.050
_refine_ls_hydrogen_treatment    constr
_refine_ls_matrix_type           full
_refine_ls_number_parameters     164
_refine_ls_number_reflns         3680
_refine_ls_number_restraints     1
_refine_ls_restrained_S_all      1.050
_refine_ls_R_factor_all          0.0544
_refine_ls_R_factor_gt           0.0420
_refine_ls_shift/su_max          0.000
_refine_ls_shift/su_mean         0.000
_refine_ls_structure_factor_coef Fsqd
_refine_ls_weighting_details
'w=1/[\s^2^(Fo^2^)+(0.0436P)^2^+0.1551P] where P=(Fo^2^+2Fc^2^)/3'
_refine_ls_weighting_scheme      calc
_refine_ls_wR_factor_gt          0.0989
_refine_ls_wR_factor_ref         0.1056
_reflns_Friedel_coverage         0.483
_reflns_Friedel_fraction_full    0.742
_reflns_Friedel_fraction_max     0.531
_reflns_number_gt                3149
_reflns_number_total             3680
_reflns_threshold_expression     'I > 2\s(I)'
_cod_data_source_file            cs7b00737_si_003.cif
_cod_data_source_block           mo_BHE_X252_0m
_cod_depositor_comments
;
The following automatic conversions were performed:

'_symmetry_cell_setting' value 'Monoclinic' changed to 'monoclinic'
according to
/home/data/users/saulius/crontab/automatic-downloads/current/ACS/lib/dictionaries/cif_core.dic
dictionary named 'cif_core.dic' version 2.4.2 from 2011-04-26.

Automatic conversion script
Id: cif_fix_values 4973 2017-02-22 13:04:09Z antanas 
;
_cod_original_cell_volume        678.5(3)
_cod_original_sg_symbol_H-M      P2(1)
_cod_database_code               4514141
_shelx_shelxl_version_number     2014/7
_shelx_space_group_comment
;
The symmetry employed for this shelxl refinement is uniquely defined
by the following loop, which should always be used as a source of
symmetry information in preference to the above space-group names.
They are only intended as comments.
;
_shelx_estimated_absorpt_t_min   0.987
_shelx_estimated_absorpt_t_max   0.996
_shelx_res_file
;
    mo_BHE_X252_0m.res created by SHELXL-2014/7
TITL mo_BHE_X252_0m in P2(1)
CELL 0.71073   9.03510   5.75940  13.27740  90.0000 100.8910  90.0000
ZERR    2.00   0.00220   0.00150   0.00330   0.0000   0.0073   0.0000
LATT -1
SYMM -X, 0.5+Y, -Z
SFAC C  H
UNIT 36 36
L.S. 15
BOND
ACTA
CONF
FMAP 2
PLAN 5
SIZE 0.060 0.150 0.200
TEMP -173.140
WGHT    0.043600    0.155100
FVAR       0.43399
MOLE 1
C1    1    0.444796    1.106682    0.114483    11.00000    0.01856    0.01922 =
         0.01847    0.00100    0.00597    0.00413
C2    1    0.366769    1.265224    0.044762    11.00000    0.02214    0.02130 =
         0.02159    0.00400    0.00779    0.00443
AFIX  43
H2    2    0.413421    1.407860    0.032886    11.00000   -1.20000
AFIX   0
C3    1    0.221779    1.217921   -0.007663    11.00000    0.02215    0.03193 =
         0.02343    0.00654    0.00523    0.00728
AFIX  43
H3    2    0.170557    1.327723   -0.055228    11.00000   -1.20000
AFIX   0
C4    1    0.151696    1.012069    0.009007    11.00000    0.01771    0.03487 =
         0.02765    0.00107    0.00294    0.00145
AFIX  43
H4    2    0.052862    0.979452   -0.027311    11.00000   -1.20000
AFIX   0
C5    1    0.226833    0.853090    0.079284    11.00000    0.02116    0.02466 =
         0.03379    0.00384    0.00531   -0.00115
AFIX  43
H5    2    0.178870    0.711928    0.091632    11.00000   -1.20000
AFIX   0
C6    1    0.371614    0.900017    0.131410    11.00000    0.02107    0.02006 =
         0.02683    0.00591    0.00407    0.00307
AFIX  43
H6    2    0.421975    0.790268    0.179364    11.00000   -1.20000
AFIX   0
C7    1    0.600821    1.158296    0.163980    11.00000    0.02137    0.01825 =
         0.02107    0.00003    0.00552   -0.00019
AFIX  43
H7    2    0.638630    1.308389    0.153276    11.00000   -1.20000
AFIX   0
C8    1    0.693504    1.012102    0.222558    11.00000    0.01965    0.02015 =
         0.02151   -0.00203    0.00248   -0.00105
AFIX  43
H8    2    0.654063    0.864899    0.236130    11.00000   -1.20000
AFIX   0
C9    1    0.851303    1.059254    0.267863    11.00000    0.02105    0.02054 =
         0.02210   -0.00213    0.00282   -0.00107
AFIX  13
H9    2    0.889381    1.216238    0.253061    11.00000   -1.20000
AFIX   0
C10   1    0.965440    0.863857    0.276390    11.00000    0.01912    0.03203 =
         0.02375   -0.00350    0.00281    0.00342
AFIX  23
H10A  2    0.928221    0.708007    0.252350    11.00000   -1.20000
H10B  2    1.067460    0.902027    0.264250    11.00000   -1.20000
AFIX   0
C11   1    0.921497    0.955426    0.372498    11.00000    0.01623    0.02410 =
         0.02078   -0.00367   -0.00004   -0.00030
AFIX  13
H11   2    0.999809    1.056596    0.414318    11.00000   -1.20000
AFIX   0
C12   1    0.829166    0.822693    0.434531    11.00000    0.01347    0.01846 =
         0.02220   -0.00038   -0.00120    0.00219
C13   1    0.763338    0.607915    0.406751    11.00000    0.02179    0.01756 =
         0.02641   -0.00318   -0.00117    0.00036
AFIX  43
H13   2    0.777027    0.536837    0.344595    11.00000   -1.20000
AFIX   0
C14   1    0.677616    0.495900    0.468987    11.00000    0.01885    0.01703 =
         0.03882    0.00122   -0.00346   -0.00164
AFIX  43
H14   2    0.632143    0.350429    0.448503    11.00000   -1.20000
AFIX   0
C15   1    0.658421    0.595156    0.560228    11.00000    0.01852    0.02124 =
         0.03718    0.00715    0.00424    0.00028
AFIX  43
H15   2    0.599520    0.517837    0.602106    11.00000   -1.20000
AFIX   0
C16   1    0.724794    0.807777    0.591277    11.00000    0.02103    0.02214 =
         0.02663    0.00326    0.00469    0.00405
C17   1    0.809152    0.918829    0.528006    11.00000    0.01622    0.01660 =
         0.02442    0.00057    0.00097    0.00097
AFIX  43
H17   2    0.854533    1.064186    0.548815    11.00000   -1.20000
AFIX   0
C18   1    0.707193    0.915683    0.691680    11.00000    0.03743    0.03722 =
         0.03204   -0.00039    0.01635   -0.00308
AFIX 137
H18A  2    0.732737    1.081024    0.691408    11.00000   -1.50000
H18B  2    0.774716    0.838011    0.748078    11.00000   -1.50000
H18C  2    0.602674    0.898220    0.700880    11.00000   -1.50000
AFIX   0
HKLF 4
REM  mo_BHE_X252_0m in P2(1)
REM R1 =  0.0420 for    3149 Fo > 4sig(Fo)  and  0.0544 for all    3680 data
REM    164 parameters refined using      1 restraints
END
WGHT      0.0436      0.1538
REM Highest difference peak  0.251,  deepest hole -0.211,  1-sigma level  0.043
Q1    1   0.7740  1.0245  0.2422  11.00000  0.05    0.25
Q2    1   0.7839  0.7205  0.4172  11.00000  0.05    0.25
Q3    1   0.4234  1.2265  0.1018  11.00000  0.05    0.21
Q4    1   0.4160  0.9859  0.1014  11.00000  0.05    0.20
Q5    1   0.7013  0.7080  0.5668  11.00000  0.05    0.20
;
_shelx_res_checksum              66805
_shelx_hkl_file
;
   1   0   0    3.28    0.14
  -1   0   0    3.02    0.13
  -2   0   0  627.13   13.14
   2   0   0  608.81   13.26
  -2   0   0  602.25   13.20
  -3   0   0   24.91    0.58
   3   0   0   24.28    0.67
   4   0   0   27.81    0.78
   5   0   0   27.43    0.82
   6   0   0   10.71    0.51
   7   0   0    5.28    0.43
   8   0   0    4.42    0.42
   9   0   0    1.68    0.34
  10   0   0    3.84    0.48
  11   0   0    0.68    0.35
  12   0   0    0.25    0.37
   0  -1   0   -0.03    0.10
   0  -1   0   -0.16    0.09
   0  -1   0   -0.16    0.11
   0  -1   0   -0.13    0.08
   0   1   0   -0.17    0.11
   0   1   0   -0.15    0.08
   0   1   0   -0.21    0.09
   0   1   0   -0.21    0.06
   1  -1   0  270.57    5.61
  -1  -1   0  249.76    5.59
  -1  -1   0  257.52    5.60
  -1  -1   0  255.43    5.58
  -1  -1   0  256.08    5.62
   1  -1   0  260.50    5.57
   1  -1   0  259.24    5.59
   1  -1   0  260.55    5.63
  -1   1   0  260.38    5.63
   1   1   0  249.63    5.60
  -1   1   0  258.41    5.57
   1   1   0  260.95    5.59
  -1   1   0  256.88    5.60
  -1   1   0  261.65    5.65
   1   1   0  257.87    5.62
   2  -1   0  105.75    2.35
  -2  -1   0  100.07    2.30
   2  -1   0  106.97    2.29
  -2  -1   0  103.40    2.37
   2  -1   0  106.97    2.32
  -2  -1   0  104.42    2.32
   2   1   0  100.69    2.38
  -2   1   0  104.96    2.36
   2   1   0  100.81    2.30
  -2   1   0  103.84    2.32
   2   1   0  107.75    2.30
   3  -1   0   30.21    0.70
  -3  -1   0   30.78    0.75
  -3  -1   0   28.78    0.70
   3  -1   0   30.25    0.73
   3   1   0   29.15    0.69
   3   1   0   30.40    0.85
  -3   1   0   30.48    0.80
   4  -1   0   11.92    0.38
  -4  -1   0   12.40    0.39
  -4   1   0   11.90    0.43
   4   1   0   11.99    0.51
  -5  -1   0    9.32    0.36
   5  -1   0    9.46    0.37
   5   1   0    9.01    0.48
  -5   1   0    9.39    0.38
  -6  -1   0    4.30    0.28
   6  -1   0    4.27    0.31
   6   1   0    4.67    0.40
  -7  -1   0   14.91    0.53
   7  -1   0   14.03    0.58
   7   1   0   14.83    0.70
  -8  -1   0   24.89    0.78
   8  -1   0   25.11    0.86
   8   1   0   24.05    0.98
   9  -1   0   13.41    0.67
  -9  -1   0   13.97    0.58
   9   1   0   15.81    0.83
  10  -1   0   10.24    0.64
  10   1   0    9.79    0.76
  11  -1   0    6.26    0.57
  11   1   0    5.27    0.64
  12  -1   0    5.04    0.57
  12   1   0    6.87    0.71
   0  -2   0  122.66    2.76
   0  -2   0  124.49    2.75
   0  -2   0  119.35    2.83
   0  -2   0  123.41    2.79
   0   2   0  123.14    2.74
   1  -2   0   56.67    1.32
   1  -2   0   56.83    1.31
  -1  -2   0   54.54    1.40
  -1  -2   0   56.33    1.39
  -1  -2   0   54.65    1.38
   1  -2   0   57.01    1.43
   1  -2   0   56.05    1.37
  -1  -2   0   55.93    1.34
  -1   2   0   56.06    1.26
   1   2   0   57.28    1.38
  -2  -2   0   11.89    0.41
   2  -2   0   11.57    0.48
  -2  -2   0   11.19    0.44
   2  -2   0   12.31    0.33
   2  -2   0   11.70    0.38
   2  -2   0   11.58    0.42
  -2  -2   0   11.41    0.44
  -2  -2   0   11.64    0.48
   2   2   0   11.66    0.48
   2   2   0   11.92    0.44
   3  -2   0   13.27    0.41
   3  -2   0   13.00    0.33
  -3  -2   0   12.53    0.45
  -3  -2   0   12.56    0.46
  -3  -2   0   13.45    0.46
   3  -2   0   12.68    0.44
   3  -2   0   12.84    0.51
   3   2   0   12.38    0.44
   3   2   0   12.86    0.55
  -4  -2   0   14.15    0.50
  -4  -2   0   13.43    0.48
   4  -2   0   13.55    0.35
   4  -2   0   13.89    0.44
   4  -2   0   12.79    0.57
   4   2   0   13.53    0.59
   4   2   0   13.86    0.43
   5  -2   0   31.24    0.77
   5  -2   0   32.46    0.99
  -5  -2   0   30.89    0.88
   5  -2   0   30.64    0.83
   5   2   0   31.07    0.76
   5   2   0   30.43    1.02
   6  -2   0   13.75    0.47
   6  -2   0   14.38    0.62
  -6  -2   0   14.51    0.55
   6   2   0   15.03    0.70
   7  -2   0    8.89    0.42
  -7  -2   0    9.39    0.46
   7  -2   0    9.09    0.51
   7   2   0    8.68    0.63
  -8  -2   0   12.10    0.56
   8  -2   0   12.69    0.55
   8   2   0   14.50    0.81
   9  -2   0   13.58    0.61
  -9  -2   0   13.91    0.62
   9   2   0   13.91    0.85
  10  -2   0    3.44    0.38
  10   2   0    3.84    0.57
  11  -2   0    7.00    0.56
  11   2   0    7.05    0.73
  12  -2   0    3.91    0.46
  12   2   0    3.82    0.62
   0  -3   0    0.13    0.15
   0  -3   0   -0.08    0.17
   0  -3   0   -0.18    0.15
   0  -3   0    0.02    0.12
   0   3   0   -0.02    0.11
   1  -3   0    3.26    0.26
  -1  -3   0    3.90    0.31
   1  -3   0    3.43    0.29
  -1  -3   0    3.14    0.30
   1  -3   0    3.34    0.34
  -1  -3   0    3.40    0.27
  -1  -3   0    2.35    0.29
   1  -3   0    3.23    0.25
   1   3   0    3.39    0.29
  -1   3   0    2.96    0.20
  -2  -3   0    1.47    0.24
  -2  -3   0    1.20    0.19
   2  -3   0    1.19    0.20
   2  -3   0    1.24    0.15
  -2  -3   0    1.04    0.22
   2  -3   0    0.98    0.24
   2  -3   0    1.50    0.18
  -2  -3   0    1.39    0.23
   2   3   0    1.11    0.22
   3  -3   0    9.02    0.31
   3  -3   0    9.10    0.37
  -3  -3   0    8.82    0.44
  -3  -3   0    8.93    0.44
   3  -3   0    8.48    0.41
  -3  -3   0    9.06    0.42
   3   3   0    7.72    0.47
   4  -3   0    0.19    0.08
   4  -3   0    0.21    0.15
  -4  -3   0    0.42    0.20
  -4  -3   0    0.16    0.16
   4  -3   0    0.30    0.13
   4   3   0    0.46    0.22
  -5  -3   0   23.31    0.79
   5  -3   0   23.91    0.72
  -5  -3   0   25.80    0.83
   5   3   0   25.10    0.94
  -6  -3   0    2.82    0.31
  -6  -3   0    2.70    0.33
   6  -3   0    2.49    0.24
   6   3   0    1.95    0.36
  -7  -3   0   11.98    0.60
  -7  -3   0   10.54    0.57
   7  -3   0   12.14    0.42
   7   3   0   11.09    0.72
  -8  -3   0   29.97    1.03
   8  -3   0   29.08    0.84
  -8  -3   0   30.14    1.01
   8   3   0   31.13    1.23
  -9  -3   0    6.78    0.53
   9  -3   0    5.34    0.38
  -9  -3   0    5.79    0.52
   9   3   0    6.56    0.66
 -10  -3   0    4.00    0.49
  10  -3   0    3.35    0.33
  10   3   0    4.30    0.60
  11  -3   0    1.41    0.29
 -11  -3   0    1.09    0.39
  11   3   0    2.03    0.51
  12   3   0    2.36    0.60
   0  -4   0   18.98    0.74
   0  -4   0   18.87    0.79
   0  -4   0   20.05    0.70
   0  -4   0   20.02    0.67
   0   4   0   20.06    0.64
  -1  -4   0    2.48    0.34
   1  -4   0    1.85    0.27
   1  -4   0    2.20    0.34
  -1  -4   0    2.49    0.27
  -1  -4   0    2.04    0.28
   1  -4   0    1.63    0.23
   1  -4   0    1.95    0.24
  -1  -4   0    2.70    0.32
   1   4   0    2.36    0.26
   2  -4   0    8.55    0.48
  -2  -4   0    8.36    0.52
  -2  -4   0    8.57    0.50
   2  -4   0    8.59    0.55
  -2  -4   0    8.83    0.45
   2  -4   0    8.84    0.40
   2  -4   0    8.10    0.40
  -2  -4   0    8.23    0.49
   2   4   0    9.39    0.49
   3  -4   0    2.09    0.23
  -3  -4   0    1.67    0.29
   3  -4   0    2.11    0.29
  -3  -4   0    2.31    0.30
   3  -4   0    2.20    0.22
   3   4   0    1.82    0.30
  -4  -4   0    5.86    0.47
   4  -4   0    6.04    0.30
   4  -4   0    6.33    0.42
   4  -4   0    6.32    0.35
  -4  -4   0    6.71    0.44
   4   4   0    5.65    0.49
   5  -4   0   19.99    0.66
   5  -4   0   19.31    0.56
  -5  -4   0   20.55    0.81
  -5  -4   0   20.18    0.78
   5  -4   0   19.05    0.73
   5   4   0   18.86    0.88
  -6  -4   0   11.08    0.61
   6  -4   0    9.44    0.45
  -6  -4   0   10.74    0.59
   6   4   0   11.36    0.73
   7  -4   0    8.17    0.44
  -7  -4   0    9.12    0.58
  -7  -4   0    9.68    0.60
   7   4   0    8.53    0.71
  -8  -4   0    2.39    0.38
  -8  -4   0    1.84    0.37
   8   4   0    2.09    0.46
  -9  -4   0   -0.02    0.29
   9   4   0    0.32    0.36
 -10  -4   0   13.74    0.83
 -11  -4   0    0.05    0.36
   0  -5   0    0.39    0.21
   0  -5   0    0.15    0.22
   1  -5   0    8.28    0.55
   1  -5   0    7.74    0.45
   1  -5   0    7.58    0.52
  -1  -5   0    6.84    0.46
  -1  -5   0    7.06    0.53
  -2  -5   0   20.06    0.79
   2  -5   0   21.17    0.83
   2  -5   0   21.59    0.74
   2  -5   0   19.67    0.73
  -2  -5   0   20.89    0.86
   3  -5   0    1.37    0.23
  -3  -5   0    1.23    0.32
   3  -5   0    1.54    0.25
   3  -5   0    1.32    0.30
  -3  -5   0    0.79    0.25
  -4  -5   0    0.26    0.29
   4  -5   0    0.44    0.19
   4  -5   0    0.46    0.23
   4  -5   0    0.51    0.16
  -4  -5   0    0.19    0.23
  -5  -5   0    0.57    0.29
   5  -5   0    0.91    0.21
   5  -5   0    1.21    0.19
  -5  -5   0    0.51    0.31
   5  -5   0    1.10    0.27
  -6  -5   0    8.55    0.62
  -6  -5   0    7.42    0.62
   6  -5   0    7.68    0.44
   7  -5   0    9.90    0.50
  -7  -5   0    9.55    0.68
  -7  -5   0    8.91    0.66
  -8  -5   0    6.33    0.61
   8  -5   0    5.89    0.43
  -8  -5   0    6.50    0.61
  -9  -5   0    3.50    0.53
 -10  -5   0    2.13    0.53
   0  -6   0    1.30    0.34
   0  -6   0    1.27    0.29
   1  -6   0    3.18    0.36
   1  -6   0    4.13    0.46
  -1  -6   0    3.93    0.49
  -1  -6   0    3.67    0.42
   2  -6   0    0.45    0.28
  -2  -6   0   -0.04    0.28
   2  -6   0    0.53    0.23
  -2  -6   0    0.47    0.26
  -3  -6   0    0.72    0.30
   3  -6   0    0.93    0.30
  -3  -6   0    0.63    0.33
   3  -6   0    0.50    0.22
  -4  -6   0    0.23    0.29
  -4  -6   0   -0.11    0.30
   4  -6   0    0.39    0.21
   4  -6   0    0.16    0.26
  -5  -6   0    2.14    0.45
   5  -6   0    2.87    0.41
   5  -6   0    3.04    0.34
  -5  -6   0    3.42    0.46
  -6  -6   0    2.62    0.46
   6  -6   0    2.89    0.34
  -6  -6   0    2.36    0.43
   6  -6   0    3.05    0.44
  -7  -6   0    4.03    0.53
  -7  -6   0    5.05    0.61
   7  -6   0    5.44    0.44
   8  -6   0    1.14    0.29
  -8  -6   0    2.74    0.51
   0  -7   0    0.15    0.26
   0  -7   0    0.56    0.35
   1  -7   0    6.62    0.64
   1  -7   0    6.58    0.55
  -1  -7   0    6.30    0.63
  -1  -7   0    5.04    0.51
   2  -7   0    7.90    0.67
   2  -7   0    7.19    0.54
  -2  -7   0    8.16    0.66
  -2  -7   0    7.68    0.70
  -3  -7   0    0.54    0.32
   3  -7   0    1.00    0.28
  -3  -7   0    1.72    0.44
   3  -7   0    1.26    0.37
   4  -7   0    0.44    0.32
  -4  -7   0    0.19    0.33
  -4  -7   0    0.59    0.39
   4  -7   0    0.50    0.25
   5  -7   0    1.81    0.31
  -5  -7   0    2.47    0.48
  -5  -7   0    1.58    0.47
   5  -7   0    2.39    0.43
   6  -7   0    1.71    0.31
  -6  -7   0    0.95    0.43
  -6  -7   0    1.54    0.49
   6  -7   0    0.50    0.33
   7  -7   0    0.22    0.24
   0  -8   0    0.51    0.39
   0  -8   0    1.33    0.36
   1  -8   0    2.95    0.43
  -1  -8   0    2.74    0.53
   1  -8   0    3.54    0.55
  -1  -8   0    3.60    0.49
   2  -8   0    0.42    0.37
  -2  -8   0    0.10    0.33
   2  -8   0    0.01    0.28
  -2  -8   0    0.18    0.39
  -3  -8   0    4.71    0.68
   3  -8   0    4.17    0.46
  -3  -8   0    6.13    0.70
   4  -8   0    4.42    0.69
  -4  -8   0    3.52    0.59
  12   0  -1   -0.32    0.31
  11   0  -1    1.16    0.38
  10   0  -1    5.26    0.54
   9   0  -1    2.55    0.37
   8   0  -1    3.72    0.39
   7   0  -1    4.00    0.37
   6   0  -1   22.00    0.74
   5   0  -1   66.38    1.64
   4   0  -1   46.00    1.16
   3   0  -1  115.84    2.44
   3   0  -1  108.76    2.51
  -3   0   1  111.09    2.42
   2   0  -1   19.80    0.53
  -2   0   1   20.74    0.47
   2   0  -1   20.11    0.48
  -1   0   1  134.33    2.76
   1   0  -1  127.02    2.76
   1   0  -1  130.45    2.76
  -1   0   1  117.74    2.76
   1   0   1   45.32    1.05
  -1   0  -1   46.53    1.04
  -2   0  -1  413.23    8.90
   2   0   1  414.98    8.92
   3   0   1    0.48    0.14
   4   0   1    0.70    0.17
  -5   0  -1   31.47    0.76
   5   0   1   30.67    0.91
   6   0   1    4.39    0.37
   7   0   1    0.88    0.26
   8   0   1   33.55    1.13
   9   0   1    0.06    0.26
  10   0   1    0.32    0.32
  11   0   1    3.37    0.52
  12   0   1   32.02    1.34
  12  -1  -1    0.97    0.35
  12   1  -1    0.44    0.38
  11  -1  -1    0.30    0.29
  11   1  -1    0.14    0.32
  10  -1  -1    4.34    0.45
  10   1  -1    3.82    0.51
   9  -1  -1    1.92    0.30
  -9  -1   1    2.15    0.27
   9   1  -1    1.03    0.35
  -8  -1   1   11.63    0.47
   8  -1  -1   12.18    0.56
   8   1  -1   10.90    0.66
   7  -1  -1   10.82    0.50
  -7  -1   1   11.46    0.44
   7   1  -1   11.77    0.62
  -7   1   1   12.81    0.44
  -6  -1   1    1.19    0.16
   6  -1  -1    1.03    0.19
  -6   1   1    1.34    0.18
   6   1  -1    0.89    0.24
   5  -1  -1    2.48    0.21
  -5  -1   1    2.74    0.20
   5   1  -1    3.07    0.30
  -5   1   1    3.06    0.24
  -4  -1   1    6.10    0.25
   4  -1  -1    5.68    0.25
   4  -1  -1    5.58    0.29
   4   1  -1    5.95    0.37
  -4   1   1    6.00    0.30
   3  -1  -1   11.64    0.42
   3  -1  -1   11.34    0.35
   3  -1  -1   11.89    0.34
  -3  -1   1   11.64    0.35
  -3   1   1   11.48    0.37
   3   1  -1   10.60    0.32
  -3   1   1   11.38    0.41
   3   1  -1   10.73    0.45
   2  -1  -1   49.06    1.12
  -2  -1   1   47.59    1.12
  -2  -1   1   46.42    1.18
  -2  -1   1   47.36    1.11
   2  -1  -1   48.73    1.09
   2  -1  -1   48.38    1.18
  -2   1   1   48.80    1.13
   2   1  -1   47.70    1.19
   2   1  -1   45.24    1.10
  -2   1   1   49.53    1.09
  -2   1   1   49.50    1.17
   2   1  -1   47.71    1.10
   1  -1  -1   20.52    0.60
   1  -1  -1   21.83    0.56
  -1  -1   1   20.50    0.58
   1  -1  -1   21.10    0.49
   1  -1  -1   21.15    0.51
  -1  -1   1   20.23    0.54
  -1  -1   1   20.75    0.53
  -1   1   1   21.40    0.51
   1   1  -1   20.91    0.53
   1   1  -1   20.44    0.57
  -1   1   1   20.61    0.56
  -1   1   1   21.48    0.59
   1   1  -1   21.52    0.54
   0  -1   1  259.25    5.63
   0  -1   1  262.52    5.52
   0  -1  -1  253.97    5.54
   0  -1  -1  253.26    5.61
   0  -1  -1  252.94    5.56
   0  -1   1  249.75    5.52
   0  -1  -1  255.38    5.52
   0   1  -1  249.65    5.52
   0   1   1  263.59    5.56
   0   1  -1  261.52    5.51
   0   1   1  257.28    5.52
   0   1  -1  254.63    5.51
   0   1   1  247.32    5.60
   1  -1   1  448.45    9.55
  -1  -1  -1  430.35    9.46
   1  -1   1  446.98    9.56
  -1  -1  -1  425.85    9.63
  -1  -1  -1  437.19    9.66
  -1  -1  -1  429.26    9.48
   1  -1   1  442.27    9.54
   1   1   1  450.26    9.50
   1   1   1  431.89    9.48
   1   1   1  449.99    9.45
  -2  -1  -1  433.26    9.17
   2  -1   1  419.92    9.20
  -2  -1  -1  425.86    9.26
  -2  -1  -1  426.31    9.23
  -2   1  -1  411.63    9.26
   2   1   1  421.14    9.15
  -2   1  -1  423.74    9.28
   2   1   1  446.76    9.28
   2   1   1  424.55    9.24
  -3  -1  -1   42.91    1.03
  -3  -1  -1   44.61    1.07
   3  -1   1   43.48    1.02
   3  -1   1   43.85    1.05
   3   1   1   42.72    1.15
   3   1   1   47.03    1.01
  -3   1  -1   44.01    1.10
  -4  -1  -1  153.51    3.53
   4  -1   1  163.53    3.62
   4  -1   1  164.14    3.58
  -4  -1  -1  163.23    3.60
   4   1   1  162.24    3.72
  -4   1  -1  166.76    3.64
   5  -1   1    8.60    0.37
  -5  -1  -1    8.80    0.36
   5   1   1    8.12    0.47
  -6  -1  -1    2.99    0.26
   6  -1   1    2.75    0.26
   6   1   1    2.26    0.32
   7  -1   1    7.13    0.44
  -7  -1  -1    6.59    0.38
   7  -1   1    6.76    0.34
   7   1   1    6.34    0.51
   8  -1   1    4.01    0.39
  -8  -1  -1    3.50    0.33
   8   1   1    3.44    0.44
   9  -1   1    0.36    0.26
  -9  -1  -1    0.41    0.23
   9   1   1    0.64    0.33
  10  -1   1   15.80    0.80
 -10  -1  -1   16.08    0.70
  10   1   1   17.66    0.96
  11  -1   1    1.46    0.36
  11   1   1    1.47    0.46
  12  -1   1    0.06    0.34
  12   1   1    0.31    0.42
  12  -2  -1    4.40    0.45
  12   2  -1    4.53    0.66
  11  -2  -1    1.50    0.31
  11   2  -1    2.94    0.55
  10  -2  -1    7.46    0.50
  10   2  -1    7.52    0.72
   9  -2  -1   12.06    0.56
  -9  -2   1   14.16    0.77
   9   2  -1   12.97    0.81
   8  -2  -1   26.00    0.81
   8  -2  -1   26.03    0.94
  -8  -2   1   26.21    0.83
   8   2  -1   28.39    1.09
   7  -2  -1   82.60    1.95
  -7  -2   1   83.57    2.01
   7   2  -1   81.91    2.24
  -6  -2   1    7.47    0.38
   6  -2  -1    7.84    0.32
   6   2  -1    7.60    0.53
  -5  -2   1    3.48    0.27
   5  -2  -1    3.00    0.22
   5   2  -1    3.18    0.19
   5   2  -1    3.90    0.38
  -4  -2   1   10.14    0.40
   4  -2  -1   10.44    0.35
   4  -2  -1   10.02    0.46
   4  -2  -1    9.77    0.38
  -4  -2   1    9.83    0.40
   4   2  -1    9.90    0.50
   4   2  -1    9.58    0.36
   3  -2  -1    7.43    0.45
  -3  -2   1    7.17    0.33
   3  -2  -1    6.73    0.39
  -3  -2   1    7.11    0.32
   3  -2  -1    6.92    0.32
   3  -2  -1    7.13    0.27
   3   2  -1    6.56    0.32
   3   2  -1    7.06    0.41
  -2  -2   1   30.80    0.83
   2  -2  -1   31.79    0.84
  -2  -2   1   31.33    0.82
   2  -2  -1   29.99    0.90
  -2  -2   1   30.17    0.88
   2  -2  -1   30.20    0.96
   2  -2  -1   31.17    0.77
   2  -2  -1   30.26    0.72
   2   2  -1   30.75    0.87
   2   2  -1   28.99    0.83
  -1  -2   1   41.89    1.08
  -1  -2   1   42.67    1.05
   1  -2  -1   43.90    1.03
   1  -2  -1   42.69    1.15
  -1  -2   1   41.07    1.09
   1  -2  -1   42.13    1.09
   1  -2  -1   44.06    1.02
   1   2  -1   42.01    1.08
  -1   2   1   42.08    0.98
   0  -2  -1   97.55    2.20
   0  -2   1   92.37    2.21
   0  -2  -1   97.87    2.17
   0  -2  -1   94.46    2.27
   0  -2  -1   96.70    2.23
   0  -2   1   96.32    2.19
   0  -2   1   95.16    2.18
   0   2  -1   95.04    2.17
   0   2   1   97.51    2.18
   1  -2   1  162.20    3.51
   1  -2   1  155.97    3.56
  -1  -2  -1  159.05    3.62
   1  -2   1  159.50    3.53
  -1  -2  -1  161.60    3.54
  -1  -2  -1  159.39    3.59
  -1  -2  -1  160.92    3.59
   1   2   1  156.88    3.59
  -1   2  -1  159.79    3.48
   2  -2   1   28.64    0.78
  -2  -2  -1   28.17    0.84
  -2  -2  -1   29.26    0.77
   2  -2   1   28.91    0.75
  -2  -2  -1   28.21    0.80
   2  -2   1   28.98    0.70
  -2  -2  -1   28.49    0.82
   2   2   1   29.24    0.85
   3  -2   1  135.11    2.99
   3  -2   1  134.84    2.93
  -3  -2  -1  133.32    3.04
  -3  -2  -1  131.56    3.05
   3  -2   1  138.42    3.03
  -3  -2  -1  134.10    3.02
   3   2   1  130.24    3.00
   3   2   1  131.63    3.13
   4  -2   1   10.16    0.37
   4  -2   1   10.00    0.30
  -4  -2  -1    9.91    0.39
  -4  -2  -1   10.53    0.43
   4   2   1   10.44    0.53
   4   2   1    9.23    0.33
   5  -2   1    3.06    0.24
   5  -2   1    3.15    0.21
  -5  -2  -1    3.01    0.22
  -5  -2  -1    3.35    0.30
   5   2   1    2.94    0.19
   5   2   1    3.92    0.39
  -6  -2  -1    1.40    0.23
   6  -2   1    1.90    0.20
   6   2   1    1.81    0.33
   7  -2   1   29.82    0.87
  -7  -2  -1   31.38    0.94
   7   2   1   28.85    1.11
  -8  -2  -1    9.06    0.51
   8  -2   1    9.11    0.49
   8   2   1    9.82    0.72
  -9  -2  -1   17.43    0.73
   9  -2   1   15.77    0.70
   9   2   1   18.19    0.97
  10  -2   1    1.61    0.32
  10   2   1    2.51    0.50
  11  -2   1    7.46    0.59
  11   2   1    7.37    0.78
  12  -2   1    4.69    0.53
  12   2   1    4.81    0.67
 -12  -3   1    0.31    0.39
  12  -3  -1    0.68    0.24
  12   3  -1   -0.09    0.43
 -11  -3   1    1.16    0.40
  11  -3  -1    0.97    0.24
  11   3  -1    1.07    0.47
 -10  -3   1    1.43    0.38
  10  -3  -1    1.54    0.25
  10   3  -1    2.44    0.51
   9  -3  -1    1.67    0.22
  -9  -3   1    1.80    0.35
   9   3  -1    1.41    0.43
  -8  -3   1   31.45    1.06
  -8  -3   1   29.38    0.99
   8   3  -1   30.93    1.23
  -7  -3   1   13.95    0.61
  -7  -3   1   12.34    0.62
   7   3  -1   14.07    0.78
  -6  -3   1   63.39    1.65
   6  -3  -1   60.88    1.53
  -6  -3   1   61.36    1.64
   6   3  -1   63.98    1.82
  -5  -3   1   11.68    0.53
   5  -3  -1   12.83    0.46
   5  -3  -1   11.79    0.50
  -5  -3   1   13.36    0.55
   5   3  -1   12.23    0.65
   4  -3  -1    1.24    0.25
   4  -3  -1    1.68    0.18
  -4  -3   1    0.96    0.20
  -4  -3   1    1.15    0.23
   4  -3  -1    1.18    0.20
   4   3  -1    1.16    0.26
   3  -3  -1   47.93    1.24
   3  -3  -1   46.47    1.09
   3  -3  -1   45.69    1.15
  -3  -3   1   46.09    1.22
   3  -3  -1   43.92    1.33
  -3  -3   1   44.79    1.23
   3   3  -1   45.52    1.30
  -2  -3   1   39.78    1.07
   2  -3  -1   39.58    1.02
   2  -3  -1   39.60    1.00
   2  -3  -1   41.84    1.21
  -2  -3   1   40.10    1.11
  -2  -3   1   38.56    1.14
   2  -3  -1   39.28    1.11
   2   3  -1   40.96    1.13
  -1  -3   1   71.50    1.75
  -1  -3   1   72.60    1.81
   1  -3  -1   72.24    1.73
  -1  -3   1   71.29    1.79
   1  -3  -1   70.48    1.80
   1  -3  -1   74.05    1.89
   1  -3  -1   73.22    1.72
   1   3  -1   71.55    1.77
  -1   3   1   72.85    1.66
   0  -3  -1    1.08    0.25
   0  -3  -1    1.49    0.21
   0  -3   1    1.95    0.22
   0  -3   1    1.41    0.18
   0  -3   1    1.40    0.22
   0  -3  -1    1.56    0.20
   0  -3  -1    1.63    0.24
   0   3  -1    2.37    0.21
   0   3   1    1.67    0.19
  -1  -3  -1  133.10    3.04
  -1  -3  -1  134.96    3.12
  -1  -3  -1  133.46    3.11
   1  -3   1  136.31    3.03
   1  -3   1  127.82    3.08
  -1  -3  -1  132.75    3.17
   1  -3   1  132.15    3.03
  -1   3  -1  134.15    2.96
   1   3   1  133.87    3.09
   2  -3   1    2.72    0.22
   2  -3   1    3.12    0.24
   2  -3   1    2.62    0.26
  -2  -3  -1    2.26    0.28
  -2  -3  -1    2.47    0.25
  -2  -3  -1    2.39    0.28
  -2  -3  -1    2.10    0.26
   2   3   1    2.45    0.28
  -3  -3  -1   26.90    0.86
   3  -3   1   28.99    0.83
   3  -3   1   27.46    0.72
   3  -3   1   27.46    0.77
  -3  -3  -1   27.86    0.83
  -3  -3  -1   26.67    0.87
   3   3   1   27.05    0.92
   4  -3   1    4.21    0.27
  -4  -3  -1    4.26    0.36
   4  -3   1    4.66    0.22
  -4  -3  -1    4.72    0.35
  -4  -3  -1    4.45    0.33
   4  -3   1    4.49    0.31
   4   3   1    4.40    0.41
  -5  -3  -1   31.77    0.91
   5  -3   1   29.81    0.86
   5  -3   1   31.84    0.78
  -5  -3  -1   31.22    0.95
  -5  -3  -1   30.69    0.97
   5  -3   1   31.03    0.77
   5   3   1   29.95    1.09
  -6  -3  -1   12.04    0.58
   6  -3   1   11.83    0.40
   6  -3   1   11.34    0.38
  -6  -3  -1   12.61    0.57
   6  -3   1   11.55    0.47
   6   3   1   11.77    0.71
  -7  -3  -1   21.37    0.81
  -7  -3  -1   21.67    0.82
   7  -3   1   21.15    0.65
   7   3   1   21.99    1.00
  -8  -3  -1    2.50    0.35
   8  -3   1    2.45    0.26
  -8  -3  -1    2.36    0.36
   8   3   1    2.04    0.46
   9  -3   1    0.66    0.21
  -9  -3  -1    0.81    0.30
  -9  -3  -1    0.22    0.28
   9   3   1    1.19    0.42
  10  -3   1    0.10    0.21
 -10  -3  -1    0.37    0.29
  10   3   1   -0.35    0.37
 -11  -3  -1    0.59    0.36
  11  -3   1    0.97    0.27
  11   3   1    0.24    0.44
  12   3   1    0.26    0.44
 -11  -4   1    0.24    0.36
 -10  -4   1    1.03    0.37
  10   4  -1    1.60    0.56
  -9  -4   1    0.40    0.32
   9   4  -1    0.86    0.41
  -8  -4   1   16.97    0.81
  -8  -4   1   15.43    0.76
   8   4  -1   17.97    0.97
  -7  -4   1    8.26    0.55
   7  -4  -1    8.51    0.43
  -7  -4   1    8.39    0.57
   7   4  -1    8.50    0.69
  -6  -4   1   15.57    0.72
   6  -4  -1   16.12    0.66
   6  -4  -1   15.89    0.58
  -6  -4   1   17.90    0.74
   6   4  -1   16.61    0.84
  -5  -4   1    7.40    0.49
   5  -4  -1    6.71    0.37
  -5  -4   1    6.98    0.49
   5  -4  -1    7.75    0.45
   5   4  -1    7.37    0.56
   4  -4  -1    3.40    0.34
   4  -4  -1    3.37    0.28
  -4  -4   1    2.55    0.33
   4  -4  -1    2.94    0.23
   4  -4  -1    3.36    0.43
  -4  -4   1    3.05    0.34
   4   4  -1    3.27    0.40
   3  -4  -1    0.41    0.14
   3  -4  -1    0.46    0.16
   3  -4  -1    0.61    0.25
   3  -4  -1    0.66    0.21
  -3  -4   1    0.39    0.19
  -3  -4   1    0.55    0.24
   3   4  -1    0.79    0.23
   2  -4  -1    1.54    0.30
  -2  -4   1    2.08    0.29
   2  -4  -1    2.72    0.26
   2  -4  -1    2.17    0.28
  -2  -4   1    2.25    0.31
   2  -4  -1    1.97    0.22
  -2  -4   1    1.82    0.24
   2   4  -1    2.28    0.29
  -1  -4   1    0.28    0.17
   1  -4  -1    0.36    0.23
   1  -4  -1    0.41    0.21
   1  -4  -1    0.18    0.16
  -1  -4   1    0.33    0.20
   1  -4  -1    0.40    0.17
  -1  -4   1    0.16    0.18
   1   4  -1    0.34    0.15
   0  -4   1    8.49    0.45
   0  -4  -1    9.27    0.56
   0  -4   1    8.74    0.43
   0  -4  -1    8.35    0.49
   0  -4   1    9.11    0.48
   0  -4  -1    8.86    0.42
   0  -4  -1    9.40    0.46
   0   4   1    9.26    0.41
   0   4  -1    8.54    0.40
  -1  -4  -1   30.86    0.92
   1  -4   1   30.67    0.91
  -1  -4  -1   30.78    1.05
  -1  -4  -1   31.13    1.01
   1  -4   1   29.42    0.95
   1  -4   1   28.80    0.88
  -1  -4  -1   29.19    0.96
   1   4   1   30.64    0.93
  -1   4  -1   31.69    0.82
  -2  -4  -1   30.97    0.95
  -2  -4  -1   30.10    1.02
  -2  -4  -1   31.01    1.06
   2  -4   1   29.66    0.89
   2  -4   1   32.67    0.91
  -2  -4  -1   31.61    1.02
   2  -4   1   32.64    0.99
   2   4   1   31.19    1.00
   3  -4   1   12.26    0.56
  -3  -4  -1   12.57    0.63
  -3  -4  -1   12.55    0.57
   3  -4   1   12.29    0.49
  -3  -4  -1   11.63    0.61
   3  -4   1   12.71    0.47
   3   4   1   11.43    0.61
  -4  -4  -1    1.31    0.30
   4  -4   1    1.62    0.19
  -4  -4  -1    1.74    0.28
   4  -4   1    1.75    0.22
  -4  -4  -1    1.67    0.31
   4  -4   1    1.71    0.26
   4   4   1    1.61    0.33
  -5  -4  -1    9.76    0.56
   5  -4   1   10.25    0.46
   5  -4   1   10.54    0.38
  -5  -4  -1    9.27    0.58
   5   4   1   10.32    0.66
  -6  -4  -1    1.35    0.33
   6  -4   1    1.63    0.23
  -6  -4  -1    1.24    0.29
   6  -4   1    1.76    0.16
   6  -4   1    1.56    0.17
   6   4   1    1.16    0.37
  -7  -4  -1    1.01    0.33
   7  -4   1    1.32    0.16
   7  -4   1    0.95    0.22
  -7  -4  -1    1.41    0.32
   7  -4   1    1.68    0.18
   7   4   1    1.70    0.41
  -8  -4  -1   -0.13    0.27
  -8  -4  -1    0.34    0.28
   8   4   1    0.06    0.35
  -9  -4  -1    8.26    0.65
   9  -4   1    7.69    0.40
  -9  -4  -1    6.78    0.72
   9   4   1    7.71    1.11
 -10  -4  -1    2.74    0.48
 -10  -5   1    4.05    0.59
  -9  -5   1    4.63    0.59
   8  -5  -1    1.93    0.28
  -8  -5   1    2.42    0.46
   7  -5  -1    5.80    0.40
  -7  -5   1    7.91    0.62
  -7  -5   1    5.91    0.57
  -6  -5   1    1.27    0.34
   6  -5  -1    1.87    0.26
   6  -5  -1    1.71    0.31
  -6  -5   1    1.30    0.36
   5  -5  -1    2.96    0.25
   5  -5  -1    3.02    0.36
  -5  -5   1    2.46    0.36
   5  -5  -1    3.10    0.30
  -5  -5   1    3.01    0.42
  -4  -5   1    5.52    0.47
   4  -5  -1    5.78    0.38
  -4  -5   1    6.20    0.53
   4  -5  -1    5.71    0.46
   4  -5  -1    5.82    0.34
   3  -5  -1    3.70    0.32
   3  -5  -1    4.10    0.36
  -3  -5   1    3.97    0.40
  -3  -5   1    3.92    0.44
   3  -5  -1    4.88    0.46
   3  -5  -1    4.17    0.51
   2  -5  -1   26.06    0.96
  -2  -5   1   27.13    0.98
  -2  -5   1   25.04    0.91
   2  -5  -1   27.09    1.08
   2  -5  -1   27.10    0.86
   2  -5  -1   25.40    0.84
   1  -5  -1    1.12    0.25
   1  -5  -1    1.05    0.29
   1  -5  -1    1.38    0.35
  -1  -5   1    1.42    0.26
  -1  -5   1    0.87    0.28
   1  -5  -1    1.79    0.27
   0  -5   1    3.88    0.41
   0  -5  -1    4.73    0.47
   0  -5  -1    4.98    0.41
   0  -5   1    3.76    0.37
   0  -5  -1    4.32    0.49
  -1  -5  -1   18.56    0.83
   1  -5   1   21.26    0.83
   1  -5   1   20.76    0.74
  -1  -5  -1   21.23    0.77
  -1  -5  -1   18.31    0.87
  -2  -5  -1    6.38    0.47
  -2  -5  -1    6.48    0.54
  -2  -5  -1    6.70    0.57
   2  -5   1    5.69    0.40
   2  -5   1    6.84    0.42
   2  -5   1    5.56    0.47
   3  -5   1    8.44    0.45
  -3  -5  -1    8.02    0.60
   3  -5   1    9.12    0.47
  -3  -5  -1    8.83    0.54
  -3  -5  -1    8.71    0.62
   3  -5   1    8.84    0.54
   4  -5   1    0.88    0.26
   4  -5   1    1.16    0.21
   4  -5   1    1.27    0.23
  -4  -5  -1    1.31    0.35
  -4  -5  -1    1.03    0.29
  -5  -5  -1    0.82    0.30
  -5  -5  -1    0.81    0.33
   5  -5   1    0.50    0.19
   5  -5   1    0.16    0.22
   5  -5   1    0.44    0.17
  -6  -5  -1   13.51    0.74
   6  -5   1   13.73    0.60
   6  -5   1   13.83    0.51
  -6  -5  -1   13.39    0.78
   7  -5   1    0.76    0.23
  -7  -5  -1    0.33    0.33
  -7  -5  -1    0.67    0.34
  -8  -5  -1    1.05    0.40
  -8  -5  -1    0.69    0.36
  -9  -5  -1    3.16    0.51
   8  -6  -1    1.61    0.30
  -8  -6   1    1.35    0.43
  -7  -6   1   10.62    0.78
  -7  -6   1   11.47    0.78
   7  -6  -1   10.95    0.56
   6  -6  -1    0.96    0.32
  -6  -6   1    0.95    0.38
   6  -6  -1    1.37    0.26
  -6  -6   1    1.26    0.39
  -5  -6   1    2.35    0.41
  -5  -6   1    2.43    0.45
   5  -6  -1    2.42    0.30
   5  -6  -1    2.49    0.39
  -4  -6   1    0.81    0.36
   4  -6  -1    0.93    0.31
   4  -6  -1    1.17    0.24
  -4  -6   1    1.22    0.33
   3  -6  -1    8.61    0.61
  -3  -6   1    9.37    0.62
  -3  -6   1    9.00    0.66
   3  -6  -1    8.43    0.50
   2  -6  -1   12.60    0.73
   2  -6  -1   13.78    0.62
  -2  -6   1   13.22    0.75
  -2  -6   1   12.46    0.68
   1  -6  -1    1.63    0.29
   1  -6  -1    1.49    0.35
  -1  -6   1    1.80    0.33
  -1  -6   1    1.69    0.37
   0  -6   1   10.02    0.64
   0  -6  -1    9.19    0.55
   0  -6   1    8.47    0.54
   0  -6  -1    9.93    0.67
   1  -6   1   13.29    0.73
   1  -6   1   13.73    0.65
  -1  -6  -1   14.27    0.79
  -1  -6  -1   14.60    0.69
  -2  -6  -1   25.12    0.96
   2  -6   1   25.18    0.99
  -2  -6  -1   25.28    1.06
   2  -6   1   23.66    0.87
  -3  -6  -1   -0.12    0.25
   3  -6   1   -0.17    0.23
  -3  -6  -1    0.10    0.31
   3  -6   1   -0.03    0.19
   4  -6   1    4.27    0.47
  -4  -6  -1    2.86    0.48
  -4  -6  -1    4.53    0.50
   4  -6   1    4.11    0.38
  -5  -6  -1   -0.06    0.29
   5  -6   1   -0.09    0.19
  -5  -6  -1   -0.24    0.32
   5  -6   1    0.12    0.26
  -6  -6  -1    2.92    0.51
  -6  -6  -1    3.40    0.48
   6  -6   1    3.92    0.39
  -7  -6  -1    0.76    0.39
  -7  -6  -1    0.28    0.38
   7  -6   1    0.35    0.23
   8  -6   1    1.98    0.33
  -8  -6  -1    3.12    0.52
   7  -7  -1    0.81    0.27
   6  -7  -1    1.33    0.38
   6  -7  -1    1.04    0.27
  -6  -7   1    0.92    0.44
  -6  -7   1    1.20    0.44
  -5  -7   1    3.21    0.52
   5  -7  -1    2.43    0.34
   5  -7  -1    2.21    0.42
  -5  -7   1    2.26    0.49
  -4  -7   1    2.85    0.47
   4  -7  -1    1.44    0.30
  -4  -7   1    2.10    0.46
   4  -7  -1    2.08    0.41
  -3  -7   1    3.81    0.49
   3  -7  -1    3.98    0.52
  -3  -7   1    4.79    0.59
   3  -7  -1    4.24    0.41
  -2  -7   1    1.43    0.38
   2  -7  -1    1.48    0.38
  -2  -7   1    1.83    0.42
   2  -7  -1    0.92    0.28
  -1  -7   1    0.46    0.34
   1  -7  -1    0.19    0.34
   1  -7  -1    0.85    0.29
  -1  -7   1    1.13    0.34
   0  -7   1    2.64    0.46
   0  -7   1    2.36    0.38
   0  -7  -1    3.21    0.51
   0  -7  -1    3.06    0.41
   1  -7   1    3.29    0.42
  -1  -7  -1    2.68    0.41
   1  -7   1    3.16    0.48
  -1  -7  -1    3.97    0.54
  -2  -7  -1    1.55    0.38
  -2  -7  -1    1.33    0.41
   2  -7   1    0.96    0.37
   2  -7   1    0.87    0.30
  -3  -7  -1    4.65    0.59
  -3  -7  -1    3.95    0.49
   3  -7   1    4.33    0.53
   3  -7   1    3.73    0.41
   4  -7   1    1.16    0.29
  -4  -7  -1    0.89    0.38
   4  -7   1    1.53    0.39
  -4  -7  -1    0.82    0.42
  -5  -7  -1    0.13    0.34
   5  -7   1   -0.43    0.28
  -5  -7  -1   -0.05    0.37
   5  -7   1    0.26    0.22
   6  -7   1    0.79    0.28
  -6  -7  -1    0.85    0.39
  -6  -7  -1    0.64    0.42
  -7  -7  -1    0.46    0.45
   7  -7   1    0.34    0.41
  -5  -8   1   -0.13    0.41
  -4  -8   1    4.60    0.63
   4  -8  -1    5.27    0.50
  -3  -8   1    1.72    0.49
   3  -8  -1    2.56    0.39
  -3  -8   1    2.30    0.56
   2  -8  -1    2.03    0.45
  -2  -8   1    1.68    0.42
   2  -8  -1    0.88    0.31
  -2  -8   1    1.24    0.46
  -1  -8   1    0.20    0.31
  -1  -8   1   -0.46    0.34
   1  -8  -1    0.01    0.35
   1  -8  -1    0.18    0.27
   0  -8   1    4.87    0.60
   0  -8  -1    4.83    0.52
   0  -8  -1    6.00    0.68
   0  -8   1    4.64    0.53
   1  -8   1    0.27    0.30
  -1  -8  -1    0.45    0.32
  -1  -8  -1    0.51    0.40
   1  -8   1    1.03    0.42
  -2  -8  -1    1.70    0.43
  -2  -8  -1    1.60    0.49
   2  -8   1    2.03    0.47
   2  -8   1    1.78    0.37
  -3  -8  -1    9.82    0.92
  -3  -8  -1   11.51    0.89
   3  -8   1    9.29    0.64
  -4  -8  -1    6.84    0.85
  12   0  -2    1.00    0.39
  11   0  -2    0.46    0.32
  10   0  -2    2.26    0.38
   9   0  -2   20.13    0.84
   8   0  -2   12.41    0.62
   7   0  -2   23.75    0.82
   6   0  -2   51.58    1.37
   5   0  -2   79.78    1.93
   4   0  -2   45.82    1.14
   4   0  -2   45.24    1.04
  -4   0   2   42.97    1.00
  -4   0   2   45.52    1.03
  -3   0   2    4.22    0.16
   3   0  -2    3.76    0.25
  -3   0   2    4.24    0.15
   3   0  -2    4.14    0.19
   2   0  -2   40.91    0.99
  -2   0   2   41.91    0.98
  -2   0   2   41.29    0.94
   2   0  -2   42.63    0.95
   1   0  -2   16.24    0.41
   1   0  -2   16.01    0.42
  -1   0   2   15.44    0.42
   1   0  -2   16.06    0.37
  -1   0   2   16.04    0.41
  -1   0   2   15.77    0.37
   0   0  -2  181.90    3.95
   0   0   2  182.54    3.98
   0   0  -2  190.83    4.04
   0   0   2  186.05    3.96
   0   0   2  180.92    3.98
   1   0   2   75.02    1.72
  -1   0  -2   76.46    1.71
  -1   0  -2   80.12    1.71
  -2   0  -2  437.36    9.37
   2   0   2  426.61    9.39
  -2   0  -2  442.98    9.43
   3   0   2  163.49    3.64
   4   0   2   19.90    0.64
   5   0   2   10.90    0.48
   6   0   2    0.63    0.22
  -6   0  -2    0.93    0.14
  -6   0  -2    0.58    0.12
  -7   0  -2   18.70    0.48
   7   0   2   18.18    0.75
   8   0   2    9.25    0.61
   9   0   2   -0.09    0.27
  10   0   2    2.31    0.44
  11   0   2   11.29    0.82
  12   0   2    3.23    0.55
  12  -1  -2    1.59    0.38
  12   1  -2    1.77    0.47
  11  -1  -2    0.17    0.26
  11   1  -2   -0.27    0.30
  10  -1  -2    7.47    0.53
  10   1  -2    8.23    0.67
   9  -1  -2    0.85    0.25
   9   1  -2    0.02    0.26
   8  -1  -2    0.35    0.20
  -8  -1   2    0.33    0.15
   8   1  -2    0.71    0.27
   7  -1  -2    1.03    0.20
  -7  -1   2    1.55    0.18
  -7   1   2    0.87    0.25
   7   1  -2    1.73    0.30
  -6  -1   2    7.81    0.31
   6  -1  -2    7.57    0.36
   6   1  -2    7.27    0.46
   5  -1  -2   70.05    1.65
  -5  -1   2   69.68    1.61
   5  -1  -2   70.70    1.69
   5   1  -2   69.72    1.79
  -5   1   2   71.49    1.68
  -4  -1   2   18.89    0.49
   4  -1  -2   18.14    0.57
   4  -1  -2   17.67    0.50
   4   1  -2   18.33    0.63
  -4   1   2   18.84    0.55
  -4   1   2   18.31    0.53
   4   1  -2   17.46    0.44
  -3  -1   2    6.40    0.24
   3  -1  -2    6.37    0.22
   3  -1  -2    6.16    0.21
   3  -1  -2    6.04    0.24
   3  -1  -2    6.43    0.32
  -3   1   2    6.79    0.27
  -3   1   2    6.13    0.22
   3   1  -2    6.84    0.36
   3   1  -2    6.51    0.21
  -3   1   2    6.16    0.29
  -2  -1   2  109.70    2.48
   2  -1  -2  112.12    2.42
   2  -1  -2  112.20    2.42
   2  -1  -2  112.15    2.49
   2  -1  -2  111.13    2.44
  -2  -1   2  106.32    2.46
   2  -1  -2  114.11    2.55
  -2  -1   2  113.21    2.55
  -2   1   2  115.78    2.50
  -2   1   2  113.74    2.53
   2   1  -2  115.53    2.55
  -2   1   2  111.23    2.45
   2   1  -2  110.35    2.46
  -1  -1   2  945.59   21.17
   1  -1  -2  952.02   21.44
  -1  -1   2  960.19   21.02
   1  -1  -2  979.45   21.03
   1  -1  -2  984.21   21.06
   1  -1  -2  988.39   21.20
  -1  -1   2  993.35   21.07
   1   1  -2  988.73   21.12
  -1   1   2  994.52   21.06
  -1   1   2  965.00   21.04
  -1   1   2  991.94   21.01
   1   1  -2  953.84   21.22
  -1   1   2  985.37   21.24
  -1   1   2 1000.00   21.28
   1   1  -2  961.78   21.05
   0  -1  -2  148.27    3.30
   0  -1   2  147.34    3.26
   0  -1  -2  152.30    3.23
   0  -1   2  141.90    3.25
   0  -1  -2  153.49    3.27
   0  -1  -2  149.33    3.28
   0  -1   2  144.06    3.24
   0   1   2  151.16    3.29
   0   1   2  148.32    3.27
   0   1   2  149.97    3.22
   0   1  -2  149.75    3.25
   0   1  -2  144.74    3.25
   0   1  -2  152.41    3.26
   0   1   2  150.46    3.27
  -1  -1  -2  161.65    3.58
  -1  -1  -2  158.18    3.64
  -1  -1  -2  161.58    3.59
   1  -1   2  164.30    3.55
   1  -1   2  163.69    3.55
  -1  -1  -2  161.62    3.58
   1   1   2  166.14    3.57
  -1   1  -2  162.48    3.57
   1   1   2  166.09    3.60
  -1   1  -2  159.56    3.55
   1   1   2  164.36    3.57
   2  -1   2  202.24    4.41
  -2  -1  -2  202.31    4.43
  -2  -1  -2  208.32    4.44
  -2  -1  -2  200.26    4.47
   2   1   2  198.61    4.49
   2   1   2  194.33    4.47
   2   1   2  211.03    4.41
   3  -1   2    9.29    0.32
  -3  -1  -2    9.46    0.36
  -3  -1  -2    9.62    0.33
   3  -1   2    9.70    0.32
   3   1   2    9.84    0.30
   3   1   2    8.72    0.43
  -4  -1  -2  146.40    3.25
  -4  -1  -2  146.67    3.19
   4  -1   2  141.33    3.22
   4   1   2  144.60    3.36
  -5  -1  -2    1.30    0.19
   5  -1   2    1.59    0.20
  -5  -1  -2    1.15    0.14
   5   1   2    1.24    0.25
  -6  -1  -2   20.03    0.65
   6  -1   2   19.20    0.67
   6   1   2   19.03    0.77
  -7  -1  -2   14.17    0.56
   7  -1   2   14.13    0.60
   7   1   2   13.37    0.71
   8  -1   2    6.13    0.49
  -8  -1  -2    5.54    0.42
   8   1   2    6.35    0.57
   9  -1   2    5.20    0.49
  -9  -1  -2    4.95    0.43
   9   1   2    5.23    0.57
 -10  -1  -2   14.41    0.70
  10  -1   2   16.04    0.82
  10   1   2   15.86    0.94
  11  -1   2    3.14    0.48
  11   1   2    2.99    0.54
  12  -1   2   18.18    0.99
  12   1   2   21.56    1.17
  12  -2  -2    1.06    0.29
  12   2  -2    1.57    0.48
  11  -2  -2    2.48    0.35
  11   2  -2    2.14    0.50
  10  -2  -2    1.55    0.28
  10   2  -2    1.49    0.44
   9  -2  -2    2.33    0.27
   9   2  -2    1.83    0.41
   8  -2  -2    1.94    0.23
  -8  -2   2    1.72    0.24
   8   2  -2    1.78    0.38
   7  -2  -2    2.35    0.22
  -7  -2   2    2.61    0.26
   7   2  -2    1.93    0.35
   6  -2  -2   33.05    0.98
  -6  -2   2   31.49    0.94
  -6  -2   2   34.36    0.91
   6  -2  -2   32.67    0.82
   6   2  -2   32.15    1.09
   5  -2  -2   12.61    0.40
   5  -2  -2   11.57    0.43
   5  -2  -2   11.75    0.52
  -5  -2   2   11.77    0.47
  -5  -2   2   12.04    0.45
   5   2  -2   12.21    0.59
   5   2  -2   11.83    0.39
  -4  -2   2    1.89    0.20
   4  -2  -2    1.81    0.26
  -4  -2   2    2.05    0.22
   4  -2  -2    1.99    0.20
   4  -2  -2    2.00    0.16
   4   2  -2    1.83    0.19
   4   2  -2    1.64    0.26
   3  -2  -2    3.14    0.19
  -3  -2   2    3.22    0.24
   3  -2  -2    3.89    0.34
   3  -2  -2    3.26    0.25
   3   2  -2    3.17    0.24
   3   2  -2    2.84    0.29
  -2  -2   2   66.77    1.62
  -2  -2   2   66.94    1.63
   2  -2  -2   68.18    1.66
  -2  -2   2   67.98    1.70
   2  -2  -2   71.58    1.55
   2  -2  -2   68.61    1.57
   2  -2  -2   70.13    1.74
   2   2  -2   69.80    1.69
  -1  -2   2    9.90    0.41
   1  -2  -2   10.41    0.34
  -1  -2   2   10.00    0.38
  -1  -2   2   10.37    0.38
   1  -2  -2   10.18    0.47
   1  -2  -2   10.22    0.53
   1  -2  -2   10.56    0.43
   1  -2  -2    9.86    0.35
  -1   2   2   10.27    0.33
   1   2  -2    9.69    0.39
   0  -2   2   10.99    0.39
   0  -2  -2   11.68    0.49
   0  -2  -2   11.72    0.42
   0  -2  -2   11.46    0.38
   0  -2   2   10.88    0.41
   0  -2  -2   11.81    0.45
   0  -2   2   11.04    0.40
   0   2   2   12.08    0.42
   0   2  -2   11.88    0.39
   1  -2   2    3.59    0.24
   1  -2   2    3.56    0.22
  -1  -2  -2    3.27    0.29
  -1  -2  -2    3.46    0.27
   1  -2   2    3.44    0.21
  -1  -2  -2    3.51    0.23
  -1  -2  -2    3.66    0.28
  -1   2  -2    3.92    0.19
   1   2   2    3.47    0.29
   2  -2   2   19.32    0.56
  -2  -2  -2   19.89    0.64
  -2  -2  -2   19.37    0.62
  -2  -2  -2   20.48    0.59
   2  -2   2   20.13    0.53
  -2  -2  -2   18.80    0.64
   2  -2   2   19.61    0.59
   2   2   2   18.54    0.66
   3  -2   2  158.16    3.56
  -3  -2  -2  161.40    3.63
  -3  -2  -2  159.94    3.64
   3  -2   2  163.74    3.53
   3   2   2  158.45    3.71
   4  -2   2   28.61    0.76
  -4  -2  -2   27.78    0.80
   4  -2   2   28.53    0.72
  -4  -2  -2   27.47    0.83
   4   2   2   28.79    0.94
   5  -2   2   46.47    1.17
  -5  -2  -2   46.38    1.24
  -5  -2  -2   45.18    1.16
   5  -2   2   46.53    1.13
   5   2   2   45.04    1.09
   5   2   2   45.13    1.37
  -6  -2  -2   25.53    0.70
  -6  -2  -2   26.57    0.84
   6  -2   2   25.54    0.76
   6   2   2   26.42    0.99
  -7  -2  -2    6.85    0.44
   7  -2   2    6.75    0.41
   7   2   2    6.22    0.56
  -8  -2  -2    1.01    0.27
   8  -2   2    1.32    0.26
   8   2   2    0.95    0.36
  -9  -2  -2    3.88    0.41
   9  -2   2    4.27    0.41
   9   2   2    3.91    0.54
 -10  -2  -2    3.23    0.42
  10  -2   2    3.36    0.42
  10   2   2    4.01    0.59
  11  -2   2    0.40    0.30
  11   2   2    0.24    0.37
  12   2   2    5.39    0.74
 -12  -3   2    0.80    0.39
  12   3  -2    3.05    0.60
 -11  -3   2    2.21    0.43
  11   3  -2    3.02    0.56
 -10  -3   2    1.17    0.36
  10   3  -2    1.59    0.45
  -9  -3   2    3.19    0.40
   9   3  -2    2.86    0.49
   8  -3  -2   14.81    0.79
  -8  -3   2   14.05    0.62
  -8  -3   2   14.78    0.69
   8   3  -2   16.01    0.88
   7  -3  -2    4.35    0.51
  -7  -3   2    4.35    0.40
  -7  -3   2    4.81    0.38
   7   3  -2    3.79    0.48
   6  -3  -2  107.74    2.43
   6  -3  -2  101.56    2.76
   6  -3  -2  102.15    2.62
  -6  -3   2  104.52    2.51
  -6  -3   2  101.92    2.54
   6   3  -2  107.84    2.72
   5  -3  -2   18.42    0.58
   5  -3  -2   18.71    0.77
  -5  -3   2   19.57    0.69
   5  -3  -2   18.41    0.85
  -5  -3   2   18.92    0.67
   5  -3  -2   19.65    0.66
   5   3  -2   19.95    0.80
  -4  -3   2   48.81    1.31
   4  -3  -2   49.52    1.44
   4  -3  -2   49.91    1.32
  -4  -3   2   48.24    1.32
   4  -3  -2   51.42    1.23
   4  -3  -2   50.56    1.55
   4   3  -2   50.24    1.43
   3  -3  -2   18.90    0.57
   3  -3  -2   20.00    0.67
  -3  -3   2   18.05    0.64
   3  -3  -2   19.79    0.77
  -3  -3   2   18.45    0.65
   3  -3  -2   19.51    0.85
   3  -3  -2   19.59    0.52
   3   3  -2   19.54    0.71
  -2  -3   2    1.16    0.19
   2  -3  -2    0.86    0.23
   2  -3  -2    0.97    0.15
   2  -3  -2    0.65    0.14
   2  -3  -2    0.76    0.20
  -2  -3   2    0.89    0.20
  -2  -3   2    0.67    0.20
   2   3  -2    0.81    0.19
   1  -3  -2    6.98    0.46
   1  -3  -2    6.71    0.40
  -1  -3   2    7.21    0.38
  -1  -3   2    7.01    0.35
  -1  -3   2    6.85    0.39
   1  -3  -2    6.88    0.32
   1  -3  -2    6.96    0.34
  -1   3   2    7.38    0.29
   1   3  -2    6.50    0.35
   0  -3  -2   23.18    0.70
   0  -3  -2   24.33    0.74
   0  -3   2   23.20    0.74
   0  -3   2   24.43    0.71
   0  -3  -2   23.95    0.79
   0  -3  -2   23.53    0.84
   0  -3   2   24.12    0.74
   0   3  -2   24.70    0.69
   0   3   2   23.96    0.71
   1  -3   2   48.46    1.20
  -1  -3  -2   44.02    1.27
  -1  -3  -2   45.61    1.32
  -1  -3  -2   47.15    1.26
   1  -3   2   45.99    1.23
  -1  -3  -2   46.91    1.20
   1  -3   2   47.06    1.19
   1   3   2   47.79    1.26
  -1   3  -2   47.84    1.13
   2  -3   2   27.17    0.76
  -2  -3  -2   26.90    0.86
  -2  -3  -2   27.24    0.80
  -2  -3  -2   26.09    0.88
  -2  -3  -2   27.87    0.87
   2  -3   2   27.21    0.81
   2  -3   2   26.53    0.74
   2   3   2   25.81    0.86
   3  -3   2    6.14    0.32
  -3  -3  -2    6.26    0.41
   3  -3   2    5.84    0.34
   3  -3   2    6.46    0.28
  -3  -3  -2    6.66    0.43
  -3  -3  -2    6.41    0.36
   3   3   2    5.95    0.45
  -4  -3  -2    1.85    0.25
   4  -3   2    1.57    0.19
   4  -3   2    1.39    0.15
  -4  -3  -2    1.71    0.27
  -4  -3  -2    1.49    0.26
   4   3   2    1.59    0.29
   5  -3   2   45.01    1.20
  -5  -3  -2   46.39    1.26
   5  -3   2   46.62    1.13
  -5  -3  -2   46.94    1.33
  -5  -3  -2   45.56    1.28
   5  -3   2   45.58    1.11
   5   3   2   46.03    1.44
  -6  -3  -2   23.77    0.87
   6  -3   2   22.52    0.66
  -6  -3  -2   24.10    0.75
   6  -3   2   23.31    0.74
   6  -3   2   24.17    0.68
  -6  -3  -2   24.37    0.83
   6   3   2   25.42    1.02
  -7  -3  -2   17.82    0.76
   7  -3   2   17.60    0.60
  -7  -3  -2   17.73    0.73
   7   3   2   18.22    0.93
  -8  -3  -2    1.73    0.33
  -8  -3  -2    1.86    0.34
   8  -3   2    1.80    0.25
   8   3   2    2.02    0.46
  -9  -3  -2    0.98    0.34
   9  -3   2    1.51    0.27
  -9  -3  -2    1.13    0.33
   9   3   2    0.85    0.43
 -10  -3  -2    1.79    0.40
  10  -3   2    2.39    0.34
  10   3   2    1.95    0.51
 -11  -3  -2    5.96    0.61
  11  -3   2    5.55    0.49
  11   3   2    4.93    0.71
  12   3   2    0.84    0.48
 -11  -4   2    2.14    0.46
 -10  -4   2    3.84    0.51
  10   4  -2    4.82    0.67
  -9  -4   2    6.16    0.57
   9   4  -2    6.72    0.71
  -8  -4   2    5.73    0.53
   8   4  -2    6.02    0.63
   7  -4  -2    1.27    0.21
  -7  -4   2    1.78    0.33
  -7  -4   2    1.48    0.33
   7   4  -2    1.20    0.37
   6  -4  -2    0.27    0.20
  -6  -4   2    0.03    0.24
  -6  -4   2    0.43    0.25
   6  -4  -2    0.73    0.18
   6   4  -2    0.03    0.27
   5  -4  -2    5.54    0.33
   5  -4  -2    6.34    0.57
  -5  -4   2    6.22    0.46
   5  -4  -2    5.41    0.40
  -5  -4   2    5.90    0.46
   5   4  -2    6.20    0.56
   4  -4  -2   25.80    1.02
   4  -4  -2   26.62    0.79
  -4  -4   2   26.99    0.91
   4  -4  -2   26.44    0.90
   4  -4  -2   26.98    0.72
  -4  -4   2   26.09    0.89
   4   4  -2   29.44    1.00
   3  -4  -2   15.86    0.55
   3  -4  -2   15.22    0.52
   3  -4  -2   14.93    0.74
  -3  -4   2   15.38    0.64
   3  -4  -2   15.60    0.65
  -3  -4   2   15.50    0.63
   3   4  -2   16.22    0.68
   2  -4  -2    1.82    0.22
  -2  -4   2    2.12    0.27
  -2  -4   2    1.81    0.28
  -2  -4   2    1.37    0.25
   2  -4  -2    1.47    0.20
   2  -4  -2    1.44    0.32
   2  -4  -2    1.54    0.28
   2   4  -2    1.61    0.24
  -1  -4   2    1.06    0.22
   1  -4  -2    1.31    0.21
  -1  -4   2    1.32    0.25
   1  -4  -2    0.83    0.18
   1  -4  -2    1.51    0.27
   1  -4  -2    1.13    0.29
  -1  -4   2    0.86    0.20
   1   4  -2    0.88    0.19
   0  -4   2    7.57    0.43
   0  -4  -2    7.03    0.42
   0  -4  -2    6.82    0.47
   0  -4  -2    6.96    0.51
   0  -4  -2    6.97    0.38
   0  -4   2    8.01    0.44
   0  -4   2    7.80    0.41
   0   4  -2    7.36    0.37
   0   4   2    7.21    0.38
  -1  -4  -2   10.24    0.56
  -1  -4  -2   11.12    0.53
  -1  -4  -2   10.65    0.48
   1  -4   2   10.60    0.46
   1  -4   2    9.99    0.47
   1  -4   2   10.60    0.51
  -1  -4  -2    9.94    0.59
  -1   4  -2   11.02    0.39
   1   4   2   10.64    0.50
  -2  -4  -2    4.28    0.43
  -2  -4  -2    3.66    0.33
   2  -4   2    3.11    0.27
   2  -4   2    3.98    0.31
  -2  -4  -2    3.55    0.39
  -2  -4  -2    3.49    0.36
   2  -4   2    3.89    0.35
   2   4   2    3.62    0.35
  -3  -4  -2    9.71    0.51
  -3  -4  -2    9.86    0.57
  -3  -4  -2   10.35    0.59
   3  -4   2   10.05    0.45
   3  -4   2    9.69    0.50
   3  -4   2   10.52    0.43
   3   4   2   10.02    0.58
   4  -4   2   24.84    0.77
   4  -4   2   24.28    0.83
  -4  -4  -2   24.08    0.90
  -4  -4  -2   24.88    0.86
   4  -4   2   23.87    0.72
  -4  -4  -2   23.77    0.91
   4   4   2   24.02    0.95
   5  -4   2   11.63    0.43
   5  -4   2   12.56    0.51
  -5  -4  -2   10.82    0.64
  -5  -4  -2   10.70    0.58
  -5  -4  -2   12.32    0.62
   5   4   2   11.58    0.72
  -6  -4  -2    2.11    0.31
  -6  -4  -2    2.99    0.37
  -6  -4  -2    2.76    0.40
   6  -4   2    2.51    0.28
   6  -4   2    2.70    0.22
   6  -4   2    2.68    0.21
   6   4   2    1.91    0.41
  -7  -4  -2   -0.04    0.27
   7  -4   2    0.11    0.14
  -7  -4  -2   -0.06    0.24
   7  -4   2    0.14    0.18
   7   4   2    0.07    0.31
  -8  -4  -2   -0.39    0.28
  -8  -4  -2    0.17    0.28
   8  -4   2    0.37    0.18
   8   4   2   -0.07    0.35
  -9  -4  -2    0.69    0.37
  -9  -4  -2    0.92    0.37
   9  -4   2    1.08    0.23
 -10  -4  -2    2.52    0.47
  10  -4   2    2.65    0.32
 -10  -5   2    1.15    0.46
  -9  -5   2    3.27    0.52
  -8  -5   2    1.16    0.38
   8  -5  -2    0.87    0.23
  -7  -5   2    7.21    0.64
  -7  -5   2    7.61    0.59
   7  -5  -2    6.60    0.41
  -6  -5   2    9.00    0.61
  -6  -5   2    8.76    0.61
   6  -5  -2    9.00    0.55
   6  -5  -2    8.20    0.44
   5  -5  -2    3.80    0.40
  -5  -5   2    3.68    0.43
  -5  -5   2    3.24    0.41
   5  -5  -2    3.33    0.31
   4  -5  -2    1.26    0.19
  -4  -5   2    0.40    0.25
   4  -5  -2    0.58    0.32
   4  -5  -2    0.70    0.20
   4  -5  -2    0.84    0.26
  -4  -5   2    0.95    0.30
  -3  -5   2    8.11    0.56
   3  -5  -2    9.36    0.46
   3  -5  -2    9.03    0.43
   3  -5  -2    8.07    0.63
   3  -5  -2    9.11    0.56
  -3  -5   2    8.48    0.53
   2  -5  -2    3.73    0.49
  -2  -5   2    3.79    0.41
   2  -5  -2    4.47    0.36
  -2  -5   2    3.49    0.38
   2  -5  -2    3.15    0.40
   2  -5  -2    3.72    0.33
   1  -5  -2    3.20    0.33
   1  -5  -2    3.80    0.49
  -1  -5   2    4.16    0.42
  -1  -5   2    3.88    0.39
   1  -5  -2    3.30    0.41
   0  -5  -2    6.36    0.42
   0  -5  -2    5.79    0.52
   0  -5  -2    6.75    0.59
   0  -5   2    5.49    0.42
   0  -5   2    5.98    0.48
   1  -5   2   17.55    0.68
  -1  -5  -2   18.37    0.82
   1  -5   2   17.62    0.75
  -1  -5  -2   17.12    0.71
  -1  -5  -2   18.33    0.88
  -2  -5  -2    0.79    0.24
  -2  -5  -2    0.74    0.30
  -2  -5  -2    0.38    0.31
   2  -5   2    0.78    0.22
   2  -5   2    0.38    0.23
   3  -5   2    1.96    0.27
  -3  -5  -2    2.58    0.43
  -3  -5  -2    1.88    0.32
   3  -5   2    2.18    0.33
  -3  -5  -2    2.92    0.42
   4  -5   2    0.52    0.20
   4  -5   2    0.29    0.21
  -4  -5  -2    0.72    0.32
  -4  -5  -2    0.26    0.31
  -4  -5  -2    0.46    0.26
  -5  -5  -2   12.66    0.75
   5  -5   2   13.10    0.57
  -5  -5  -2   12.98    0.70
  -5  -5  -2   12.83    0.70
   6  -5   2    0.65    0.23
  -6  -5  -2    0.92    0.33
  -6  -5  -2   -0.32    0.30
   7  -5   2    5.48    0.32
  -7  -5  -2    5.99    0.58
  -7  -5  -2    5.72    0.61
   7  -5   2    6.08    0.46
  -8  -5  -2    1.23    0.39
   8  -5   2    0.80    0.18
  -8  -5  -2    0.60    0.39
  -9  -5  -2    8.99    0.75
   8  -6  -2    1.16    0.27
  -8  -6   2    1.41    0.43
  -7  -6   2   18.73    0.97
   7  -6  -2   19.47    0.74
   7  -6  -2   19.48    0.88
   6  -6  -2    1.08    0.32
  -6  -6   2    1.34    0.37
  -6  -6   2    0.54    0.35
   6  -6  -2    0.93    0.23
   5  -6  -2    7.13    0.60
  -5  -6   2    6.58    0.60
  -5  -6   2    6.67    0.60
   5  -6  -2    6.89    0.44
   4  -6  -2    0.90    0.23
  -4  -6   2    1.64    0.37
   4  -6  -2    0.58    0.29
  -4  -6   2    0.68    0.30
   3  -6  -2   15.03    0.79
   3  -6  -2   14.52    0.64
   3  -6  -2   15.78    0.92
  -3  -6   2   16.07    0.77
  -3  -6   2   14.82    0.79
  -2  -6   2    4.19    0.44
  -2  -6   2    3.84    0.47
   2  -6  -2    4.57    0.50
   2  -6  -2    4.77    0.41
   2  -6  -2    3.87    0.56
  -1  -6   2    1.26    0.35
   1  -6  -2    1.33    0.27
  -1  -6   2    1.02    0.29
   1  -6  -2    1.32    0.34
   1  -6  -2    1.54    0.42
   0  -6  -2    5.06    0.55
   0  -6   2    4.28    0.42
   0  -6   2    5.36    0.52
   0  -6  -2    4.80    0.43
   0  -6  -2    5.44    0.63
  -1  -6  -2    2.14    0.41
   1  -6   2    2.27    0.34
  -1  -6  -2    2.95    0.51
  -1  -6  -2    2.21    0.34
   1  -6   2    2.46    0.39
  -2  -6  -2    8.07    0.57
   2  -6   2    7.20    0.57
  -2  -6  -2    8.15    0.71
   2  -6   2    8.42    0.52
  -2  -6  -2    7.99    0.66
  -3  -6  -2    0.49    0.34
  -3  -6  -2   -0.10    0.26
  -3  -6  -2    0.52    0.36
   3  -6   2    0.43    0.26
   3  -6   2    0.02    0.20
  -4  -6  -2    0.46    0.37
   4  -6   2    0.63    0.28
  -4  -6  -2    0.16    0.28
   4  -6   2    0.69    0.24
   5  -6   2    3.59    0.37
  -5  -6  -2    3.15    0.46
  -5  -6  -2    2.86    0.52
  -6  -6  -2    3.12    0.49
   6  -6   2    4.17    0.41
  -6  -6  -2    4.56    0.59
   7  -6   2    0.14    0.14
  -7  -6  -2    1.11    0.40
   7  -6   2    0.26    0.24
  -7  -6  -2    0.16    0.39
  -8  -6  -2    1.50    0.49
  -8  -6  -2    0.73    0.43
   8  -6   2    0.99    0.29
   8  -7  -2    5.65    0.58
   7  -7  -2    5.57    0.46
   7  -7  -2    6.57    0.62
   6  -7  -2    5.99    0.59
  -6  -7   2    6.43    0.66
   6  -7  -2    6.24    0.47
  -6  -7   2    6.44    0.66
   5  -7  -2    0.61    0.24
  -5  -7   2    0.55    0.37
   5  -7  -2    0.51    0.32
  -5  -7   2    0.89    0.40
  -4  -7   2    7.28    0.65
   4  -7  -2    7.69    0.51
   4  -7  -2    8.03    0.66
  -4  -7   2    7.35    0.69
  -3  -7   2    0.58    0.36
   3  -7  -2    0.59    0.35
   3  -7  -2    0.12    0.24
  -3  -7   2    0.64    0.34
  -2  -7   2    1.38    0.37
  -2  -7   2    1.17    0.40
   2  -7  -2    1.11    0.28
   2  -7  -2    1.28    0.40
  -1  -7   2    5.43    0.59
   1  -7  -2    4.96    0.58
  -1  -7   2    5.24    0.52
   1  -7  -2    5.14    0.48
   0  -7  -2    2.20    0.37
   0  -7   2    1.77    0.40
   0  -7  -2    1.25    0.39
   0  -7   2    1.58    0.35
  -1  -7  -2    2.00    0.46
  -1  -7  -2    1.26    0.34
   1  -7   2    1.96    0.40
   1  -7   2    1.94    0.36
  -2  -7  -2    3.30    0.45
   2  -7   2    4.05    0.45
   2  -7   2    4.64    0.54
  -2  -7  -2    4.04    0.57
   3  -7   2    1.02    0.37
  -3  -7  -2    0.99    0.45
   3  -7   2    1.13    0.30
  -3  -7  -2    1.22    0.37
   4  -7   2    7.98    0.55
  -4  -7  -2    9.21    0.81
   4  -7   2    7.74    0.67
  -4  -7  -2    8.24    0.68
   5  -7   2    0.01    0.22
  -5  -7  -2    0.25    0.36
  -5  -7  -2    0.40    0.43
   6  -7   2    0.17    0.24
  -6  -7  -2    0.01    0.36
  -6  -7  -2    0.46    0.42
  -7  -7  -2    0.38    0.46
  -5  -8   2    3.88    0.60
   4  -8  -2    1.97    0.35
  -4  -8   2    2.26    0.53
  -3  -8   2    0.32    0.38
   3  -8  -2   -0.03    0.25
   2  -8  -2    2.40    0.39
  -2  -8   2    2.91    0.52
   2  -8  -2    1.94    0.48
  -2  -8   2    2.69    0.46
  -1  -8   2    1.62    0.39
   1  -8  -2    0.24    0.38
   1  -8  -2    0.79    0.32
  -1  -8   2    1.13    0.42
   0  -8  -2    3.04    0.55
   0  -8   2    2.95    0.46
   0  -8   2    2.96    0.52
   0  -8  -2    2.19    0.39
  -1  -8  -2    6.33    0.59
  -1  -8  -2    6.92    0.75
   1  -8   2    7.41    0.71
   1  -8   2    7.09    0.62
  -2  -8  -2    6.44    0.63
   2  -8   2    5.81    0.56
   2  -8   2    4.96    0.60
  -2  -8  -2    5.68    0.71
  -3  -8  -2    1.80    0.53
  -3  -8  -2    1.26    0.63
  12   0  -3    1.34    0.39
  11   0  -3    0.11    0.27
  10   0  -3    0.82    0.30
   9   0  -3    6.08    0.52
   8   0  -3   10.79    0.57
   7   0  -3    2.28    0.29
   6   0  -3    7.90    0.43
   6   0  -3    8.25    0.28
  -6   0   3    8.27    0.29
  -5   0   3   20.61    0.54
  -5   0   3   23.31    0.56
   5   0  -3   21.78    0.70
   5   0  -3   23.39    0.60
  -4   0   3   33.79    0.83
   4   0  -3   36.39    0.94
   4   0  -3   35.27    0.86
  -4   0   3   36.46    0.81
   2   0  -3  112.24    2.49
  -2   0   3  112.46    2.47
   2   0  -3  114.94    2.48
  -2   0   3  108.17    2.49
  -1   0   3  814.76   17.04
  -1   0   3  774.62   16.90
   1   0  -3  745.34   16.92
   1   0  -3  799.60   17.04
   0   0   3    5.00    0.22
   0   0   3    4.83    0.21
   0   0   3    4.69    0.21
   0   0  -3    4.97    0.23
   0   0  -3    4.75    0.15
   1   0   3    5.64    0.26
  -1   0  -3    6.36    0.26
  -1   0  -3    6.09    0.25
  -1   0  -3    6.09    0.20
  -2   0  -3   32.93    0.80
   2   0   3   31.73    0.83
  -3   0  -3   59.79    1.35
   3   0   3   55.65    1.41
   4   0   3   16.08    0.57
   5   0   3    0.14    0.17
  -5   0  -3    0.14    0.12
  -6   0  -3    9.92    0.35
   6   0   3    9.41    0.52
  -7   0  -3    2.33    0.19
   7   0   3    2.07    0.34
   8   0   3    1.05    0.30
   9   0   3   11.25    0.74
  10   0   3    7.63    0.68
 -11   0  -3    3.79    0.57
  11   0   3    3.74    0.57
  12   0   3    2.26    0.52
  12  -1  -3    1.64    0.37
  12   1  -3    2.16    0.48
  11  -1  -3    3.52    0.41
  11   1  -3    3.28    0.49
  10  -1  -3    0.99    0.27
  10   1  -3    0.64    0.34
   9  -1  -3    2.43    0.33
   9   1  -3    2.74    0.42
  -8  -1   3    3.75    0.26
   8  -1  -3    4.05    0.35
   8   1  -3    3.70    0.42
   7  -1  -3   19.25    0.66
  -7  -1   3   20.64    0.57
   7   1  -3   19.89    0.80
   6  -1  -3   21.19    0.67
   6  -1  -3   22.13    0.67
  -6  -1   3   21.87    0.58
   6   1  -3   22.66    0.80
   5  -1  -3   18.64    0.55
   5  -1  -3   18.84    0.61
  -5  -1   3   19.12    0.49
   5   1  -3   18.14    0.67
   5   1  -3   17.27    0.45
   4  -1  -3   35.89    0.86
   4  -1  -3   35.51    0.87
  -4  -1   3   35.10    0.83
   4  -1  -3   34.66    0.95
   4   1  -3   35.22    1.00
   4   1  -3   34.86    0.83
  -4   1   3   36.80    0.90
   3  -1  -3   73.37    1.63
   3  -1  -3   72.96    1.66
   3  -1  -3   72.73    1.74
  -3  -1   3   70.79    1.61
  -3  -1   3   72.47    1.67
  -3   1   3   73.89    1.62
  -3   1   3   75.97    1.68
   3   1  -3   71.97    1.76
  -2  -1   3  219.59    4.87
   2  -1  -3  220.94    4.76
   2  -1  -3  225.64    4.76
   2  -1  -3  224.83    4.82
   2  -1  -3  226.91    4.74
  -2  -1   3  216.13    4.80
  -2  -1   3  215.93    4.75
   2  -1  -3  221.99    4.87
   2   1  -3  217.47    4.79
  -2   1   3  224.99    4.84
  -2   1   3  218.17    4.75
   2   1  -3  216.64    4.77
  -2   1   3  222.66    4.81
  -2   1   3  222.54    4.75
   2   1  -3  215.39    4.87
   1  -1  -3  224.07    4.78
  -1  -1   3  219.06    4.80
   1  -1  -3  225.35    4.81
   1  -1  -3  224.05    4.89
  -1  -1   3  222.45    4.82
   1  -1  -3  226.67    4.85
  -1  -1   3  222.02    4.88
  -1   1   3  228.48    4.82
  -1   1   3  221.59    4.84
  -1   1   3  221.82    4.87
  -1   1   3  226.60    4.78
   1   1  -3  212.62    4.81
   1   1  -3  217.22    4.82
   1   1  -3  220.69    4.87
   0  -1   3    3.24    0.17
   0  -1  -3    3.36    0.22
   0  -1   3    3.40    0.21
   0  -1  -3    3.51    0.16
   0  -1  -3    3.57    0.24
   0  -1  -3    3.01    0.21
   0   1   3    3.43    0.19
   0   1  -3    3.25    0.20
   0   1  -3    3.48    0.18
   0   1  -3    3.50    0.18
   0   1   3    3.16    0.21
   0   1   3    3.29    0.22
   1  -1   3   39.10    0.94
  -1  -1  -3   38.80    0.96
   1  -1   3   38.07    0.91
  -1  -1  -3   38.50    0.97
  -1  -1  -3   38.65    0.97
   1   1   3   38.48    0.98
   1   1   3   39.86    0.95
  -1   1  -3   38.42    0.92
  -2  -1  -3  149.98    3.46
   2  -1   3  157.51    3.40
  -2  -1  -3  154.62    3.44
  -2  -1  -3  153.90    3.43
   2  -1   3  156.59    3.40
   2   1   3  162.11    3.41
   2   1   3  147.25    3.48
  -3  -1  -3  132.03    2.96
   3  -1   3  129.15    2.91
   3  -1   3  132.04    2.93
  -3  -1  -3  130.28    2.93
   3   1   3  134.32    2.90
   3   1   3  128.28    3.03
   4  -1   3   92.03    2.13
  -4  -1  -3   91.71    2.09
  -4  -1  -3   94.52    2.15
   4   1   3   89.20    2.24
   5  -1   3    0.57    0.17
  -5  -1  -3    0.54    0.17
  -5  -1  -3    0.58    0.14
   5   1   3    0.83    0.23
   6  -1   3    9.85    0.48
  -6  -1  -3   10.25    0.36
  -6  -1  -3   10.21    0.47
   6   1   3   10.50    0.59
   7  -1   3    8.74    0.50
  -7  -1  -3    7.46    0.45
   7   1   3    8.29    0.61
   8  -1   3    1.90    0.33
  -8  -1  -3    2.37    0.32
   8   1   3    3.36    0.46
  -9  -1  -3    0.03    0.26
   9  -1   3    0.33    0.28
   9   1   3    0.10    0.32
 -10  -1  -3    0.44    0.30
  10  -1   3    0.07    0.29
  10   1   3    0.61    0.42
  11  -1   3   13.92    0.86
  11   1   3   15.23    1.00
  12  -1   3    6.11    0.78
  12   1   3    6.41    0.76
 -13  -2   3    0.82    0.43
 -12  -2   3    1.07    0.37
  12  -2  -3    0.23    0.25
  12   2  -3    0.52    0.41
  11  -2  -3    3.24    0.35
 -11  -2   3    2.80    0.42
  11   2  -3    2.70    0.52
  10  -2  -3    1.51    0.26
  10   2  -3    1.77    0.42
   9  -2  -3   10.93    0.49
   9   2  -3   10.49    0.73
   8  -2  -3    5.59    0.33
  -8  -2   3    5.01    0.38
  -8  -2   3    5.67    0.42
   8   2  -3    5.72    0.55
  -7  -2   3   32.94    0.96
  -7  -2   3   31.49    0.87
   7  -2  -3   31.13    0.96
   7  -2  -3   30.87    0.83
   7   2  -3   30.89    1.11
  -6  -2   3   13.26    0.52
   6  -2  -3   13.66    0.57
  -6  -2   3   13.40    0.46
   6   2  -3   12.12    0.35
   6   2  -3   12.09    0.39
   6   2  -3   13.24    0.64
  -5  -2   3   27.94    0.81
   5  -2  -3   28.30    0.77
  -5  -2   3   27.29    0.76
   5  -2  -3   27.30    0.89
   5   2  -3   27.78    0.93
   5   2  -3   26.85    0.74
  -4  -2   3   55.64    1.41
   4  -2  -3   58.67    1.40
  -4  -2   3   57.07    1.37
   4  -2  -3   55.86    1.32
   4  -2  -3   57.14    1.52
   4   2  -3   54.93    1.33
   4   2  -3   55.61    1.52
   4   2  -3   60.55    1.45
  -3  -2   3   20.43    0.59
   3  -2  -3   20.77    0.63
  -3  -2   3   20.25    0.61
   3  -2  -3   20.83    0.72
   3  -2  -3   20.13    0.53
   3   2  -3   20.02    0.69
   3   2  -3   19.95    0.57
  -2  -2   3   61.14    1.47
  -2  -2   3   60.59    1.46
   2  -2  -3   60.41    1.58
   2  -2  -3   62.65    1.41
   2  -2  -3   62.51    1.52
   2  -2  -3   63.11    1.41
  -2  -2   3   60.75    1.55
   2   2  -3   56.87    1.52
  -2   2   3   66.24    1.47
  -1  -2   3   25.01    0.74
   1  -2  -3   25.09    0.67
   1  -2  -3   24.25    0.78
   1  -2  -3   24.58    0.74
  -1  -2   3   23.80    0.68
   1  -2  -3   25.11    0.65
  -1  -2   3   24.35    0.68
  -1   2   3   25.79    0.65
  -1   2   3   24.99    0.66
   1   2  -3   24.96    0.72
   0  -2   3   10.55    0.38
   0  -2   3   10.27    0.38
   0  -2   3   10.77    0.41
   0  -2  -3   10.96    0.37
   0  -2  -3   11.06    0.48
   0  -2  -3   10.57    0.44
   0  -2  -3   10.73    0.40
   0  -2  -3   10.70    0.55
   0   2  -3   11.07    0.38
   0   2   3   10.84    0.41
  -1  -2  -3   31.26    0.92
   1  -2   3   32.70    0.83
  -1  -2  -3   31.29    0.89
   1  -2   3   32.58    0.84
   1  -2   3   32.56    0.85
  -1  -2  -3   32.49    0.83
  -1  -2  -3   32.91    0.91
   1   2   3   31.82    0.90
  -1   2  -3   32.45    0.81
   2  -2   3   35.65    0.92
  -2  -2  -3   36.03    1.01
  -2  -2  -3   36.35    1.00
  -2  -2  -3   36.70    1.01
  -2  -2  -3   37.24    0.94
   2  -2   3   36.86    0.92
   2   2   3   36.64    1.04
  -3  -2  -3  134.09    3.17
  -3  -2  -3  138.33    3.19
   3  -2   3  140.23    3.09
   3  -2   3  141.51    3.10
   3   2   3  136.96    3.26
   4  -2   3    6.08    0.30
  -4  -2  -3    5.61    0.34
  -4  -2  -3    5.68    0.35
   4  -2   3    5.68    0.27
   4   2   3    5.28    0.43
   5  -2   3   59.50    1.44
  -5  -2  -3   58.65    1.54
  -5  -2  -3   58.86    1.48
   5   2   3   60.93    1.69
  -6  -2  -3   42.55    1.25
   6  -2   3   44.71    1.18
  -6  -2  -3   45.63    1.16
   6   2   3   45.62    1.43
   7  -2   3   23.05    0.78
  -7  -2  -3   23.11    0.83
   7   2   3   22.81    1.00
  -8  -2  -3    0.58    0.26
   8  -2   3    0.66    0.24
   8   2   3    1.16    0.39
  -9  -2  -3    7.24    0.53
   9  -2   3    7.13    0.54
   9   2   3    5.50    0.66
 -10  -2  -3    2.05    0.39
  10  -2   3    2.61    0.39
  10   2   3    3.55    0.58
  11  -2   3    8.43    0.67
  11   2   3    8.71    0.87
  12   2   3    3.05    0.63
 -12  -3   3    3.56    0.53
  12   3  -3    3.61    0.62
 -11  -3   3    0.12    0.31
  11   3  -3    0.98    0.45
 -10  -3   3    1.12    0.36
  10   3  -3    0.74    0.39
   9  -3  -3   16.41    0.89
  -9  -3   3   17.29    0.78
   9   3  -3   17.14    0.95
  -8  -3   3   25.51    0.92
   8  -3  -3   24.49    1.06
   8   3  -3   24.96    1.09
  -7  -3   3    5.70    0.39
  -7  -3   3    5.61    0.44
   7  -3  -3    5.51    0.46
   7   3  -3    4.67    0.52
   6  -3  -3   15.40    0.58
  -6  -3   3   16.29    0.60
  -6  -3   3   15.09    0.63
   6  -3  -3   15.49    0.51
   6  -3  -3   14.79    0.70
   6   3  -3   14.54    0.74
   5  -3  -3    1.17    0.21
  -5  -3   3    1.39    0.24
  -5  -3   3    1.15    0.23
   5  -3  -3    1.06    0.16
   5  -3  -3    1.24    0.29
   5   3  -3    1.04    0.27
   4  -3  -3   12.34    0.70
  -4  -3   3   13.98    0.54
  -4  -3   3   13.40    0.52
   4  -3  -3   12.34    0.62
   4  -3  -3   12.67    0.43
   4  -3  -3   13.21    0.53
   4   3  -3   12.75    0.60
   3  -3  -3    8.42    0.51
  -3  -3   3    8.38    0.41
   3  -3  -3    8.25    0.43
  -3  -3   3    9.10    0.41
   3  -3  -3    9.10    0.34
   3  -3  -3    8.45    0.30
   3  -3  -3    8.42    0.58
   3   3  -3    8.09    0.46
   2  -3  -3   35.73    0.91
  -2  -3   3   36.53    1.07
  -2  -3   3   35.04    0.98
   2  -3  -3   35.54    1.03
   2  -3  -3   34.99    1.22
  -2  -3   3   34.72    0.98
   2  -3  -3   35.31    1.12
   2  -3  -3   35.66    0.92
   2   3  -3   35.22    1.03
   1  -3  -3    8.48    0.50
  -1  -3   3    8.37    0.43
   1  -3  -3    8.99    0.38
   1  -3  -3    8.87    0.35
  -1  -3   3    8.10    0.40
   1  -3  -3    7.99    0.45
   1  -3  -3    8.50    0.58
  -1  -3   3    8.66    0.38
   1   3  -3    8.65    0.41
  -1   3   3    9.00    0.35
   0  -3  -3   21.33    0.69
   0  -3  -3   23.12    0.76
   0  -3  -3   23.59    0.81
   0  -3   3   19.55    0.68
   0  -3   3   21.54    0.66
   0  -3   3   22.36    0.69
   0  -3  -3   21.13    0.64
   0   3   3   20.41    0.67
   0   3  -3   20.85    0.64
  -1  -3  -3    3.66    0.28
  -1  -3  -3    3.74    0.33
   1  -3   3    3.75    0.25
   1  -3   3    3.39    0.27
  -1  -3  -3    3.92    0.38
   1  -3   3    3.59    0.28
  -1  -3  -3    3.30    0.29
   1   3   3    3.85    0.32
  -1   3  -3    3.76    0.22
  -2  -3  -3   29.55    0.86
  -2  -3  -3   29.70    0.94
   2  -3   3   29.85    0.87
   2  -3   3   29.74    0.82
   2  -3   3   30.13    0.83
  -2  -3  -3   28.20    0.91
  -2  -3  -3   29.14    0.96
   2   3   3   30.25    0.95
  -3  -3  -3   10.05    0.50
  -3  -3  -3   10.80    0.53
   3  -3   3   10.16    0.40
   3  -3   3   10.18    0.39
  -3  -3  -3   10.59    0.46
   3   3   3    8.03    0.52
  -4  -3  -3   21.68    0.80
  -4  -3  -3   22.84    0.75
   4  -3   3   21.75    0.64
   4  -3   3   22.60    0.69
  -4  -3  -3   23.31    0.80
   4   3   3   22.10    0.88
  -5  -3  -3    3.28    0.34
  -5  -3  -3    2.71    0.34
   5  -3   3    2.93    0.23
  -5  -3  -3    3.02    0.32
   5  -3   3    2.87    0.23
   5  -3   3    3.32    0.27
   5   3   3    2.57    0.40
  -6  -3  -3   21.08    0.73
  -6  -3  -3   22.12    0.84
   6  -3   3   21.45    0.66
   6  -3   3   20.41    0.64
   6  -3   3   21.41    0.71
  -6  -3  -3   22.28    0.80
   6   3   3   23.58    0.99
   7  -3   3    0.65    0.20
  -7  -3  -3    0.83    0.29
   7   3   3    1.12    0.37
   8  -3   3   10.88    0.55
  -8  -3  -3   10.33    0.64
   8   3   3   11.51    0.83
  -9  -3  -3    3.23    0.45
   9  -3   3    2.78    0.34
   9   3   3    2.57    0.54
  10  -3   3    1.14    0.30
 -10  -3  -3    0.40    0.36
  10   3   3    0.87    0.45
 -11  -3  -3    0.61    0.37
  11  -3   3    1.31    0.33
  11   3   3    1.46    0.56
  12   3   3    1.03    0.65
 -11  -4   3    2.62    0.48
 -10  -4   3    4.66    0.56
  10   4  -3    5.23    0.67
  -9  -4   3    1.09    0.37
   9   4  -3    1.40    0.45
  -8  -4   3   12.98    0.71
   8   4  -3   11.66    0.81
   7  -4  -3    9.01    0.42
  -7  -4   3    9.70    0.55
   7  -4  -3    8.72    0.49
  -7  -4   3    9.39    0.60
   7   4  -3    8.12    0.66
   6  -4  -3    6.78    0.35
  -6  -4   3    6.63    0.50
  -6  -4   3    6.04    0.47
   6  -4  -3    6.27    0.43
   6  -4  -3    7.19    0.57
   6   4  -3    6.79    0.59
   5  -4  -3   18.42    0.62
   5  -4  -3   20.10    0.90
  -5  -4   3   19.70    0.74
   5  -4  -3   18.44    0.73
  -5  -4   3   19.72    0.76
   5   4  -3   20.93    0.87
   4  -4  -3   12.07    0.46
   4  -4  -3   11.88    0.40
  -4  -4   3   12.31    0.57
  -4  -4   3   11.53    0.55
   4  -4  -3   12.33    0.58
   4  -4  -3   11.14    0.68
   4   4  -3   11.66    0.63
  -3  -4   3   21.70    0.77
  -3  -4   3   22.45    0.78
   3  -4  -3   22.39    0.66
   3  -4  -3   22.38    0.82
   3  -4  -3   21.54    0.92
   3  -4  -3   22.42    0.69
   3   4  -3   22.86    0.83
   2  -4  -3    2.23    0.32
   2  -4  -3    3.06    0.42
   2  -4  -3    2.65    0.25
  -2  -4   3    2.49    0.30
  -2  -4   3    2.85    0.33
   2  -4  -3    2.81    0.26
  -2  -4   3    2.61    0.30
   2   4  -3    2.99    0.32
  -1  -4   3    5.96    0.38
  -1  -4   3    5.87    0.40
   1  -4  -3    5.38    0.49
   1  -4  -3    5.63    0.36
   1  -4  -3    5.91    0.45
  -1  -4   3    5.84    0.42
   1  -4  -3    6.67    0.36
   1   4  -3    6.02    0.38
   0  -4  -3   15.20    0.60
   0  -4  -3   14.01    0.66
   0  -4   3   14.90    0.61
   0  -4  -3   15.05    0.56
   0  -4   3   15.08    0.57
   0  -4   3   13.59    0.59
   0  -4  -3   14.64    0.72
   0   4   3   14.39    0.56
   0   4  -3   15.24    0.54
   1  -4   3   12.47    0.50
  -1  -4  -3   11.86    0.56
  -1  -4  -3   11.81    0.52
  -1  -4  -3   12.44    0.62
   1  -4   3   12.58    0.55
   1  -4   3   11.72    0.51
  -1  -4  -3   11.83    0.65
   1   4   3   12.03    0.55
  -1   4  -3   11.63    0.43
  -2  -4  -3    1.62    0.30
  -2  -4  -3    1.96    0.28
   2  -4   3    1.77    0.26
   2  -4   3    1.72    0.23
   2  -4   3    1.86    0.24
  -2  -4  -3    1.77    0.26
  -2  -4  -3    1.72    0.33
   2   4   3    1.63    0.29
   3  -4   3    2.19    0.26
   3  -4   3    2.13    0.27
  -3  -4  -3    1.88    0.29
   3  -4   3    1.79    0.22
  -3  -4  -3    2.34    0.34
  -3  -4  -3    2.32    0.36
   3   4   3    2.44    0.36
   4  -4   3   29.04    0.87
   4  -4   3   29.23    0.84
  -4  -4  -3   29.80    0.97
  -4  -4  -3   27.30    1.03
  -4  -4  -3   28.66    1.03
   4   4   3   28.57    1.08
  -5  -4  -3   19.24    0.85
  -5  -4  -3   21.55    0.83
  -5  -4  -3   20.17    0.78
   5  -4   3   19.79    0.69
   5  -4   3   18.64    0.62
   5   4   3   17.17    0.89
   6  -4   3    6.42    0.33
  -6  -4  -3    6.20    0.49
   6  -4   3    6.47    0.41
  -6  -4  -3    5.42    0.47
  -6  -4  -3    6.56    0.57
   6   4   3    7.23    0.65
   7  -4   3    0.56    0.17
  -7  -4  -3    0.75    0.30
  -7  -4  -3    0.05    0.29
   7  -4   3    0.14    0.19
   7   4   3    0.50    0.42
  -8  -4  -3    1.81    0.41
  -8  -4  -3    1.28    0.36
   8  -4   3    1.91    0.26
   9  -4   3    4.54    0.39
  -9  -4  -3    4.50    0.56
  -9  -4  -3    3.92    0.52
  10  -4   3   -0.25    0.20
 -10  -4  -3    0.25    0.36
 -10  -5   3    0.37    0.39
  -9  -5   3    4.38    0.57
  -8  -5   3    5.38    0.58
   7  -5  -3    4.16    0.34
   7  -5  -3    4.02    0.43
  -7  -5   3    3.56    0.45
  -7  -5   3    3.61    0.66
   6  -5  -3    1.60    0.24
  -6  -5   3    1.10    0.33
   6  -5  -3    1.36    0.38
   6  -5  -3    1.42    0.29
  -6  -5   3    1.50    0.34
   5  -5  -3   12.92    0.52
  -5  -5   3   12.63    0.67
   5  -5  -3   12.35    0.64
  -5  -5   3   12.29    0.67
   5  -5  -3   12.63    0.78
   4  -5  -3    3.73    0.28
   4  -5  -3    3.97    0.42
   4  -5  -3    4.30    0.33
   4  -5  -3    4.58    0.56
  -4  -5   3    4.52    0.45
  -4  -5   3    3.89    0.43
   3  -5  -3   27.33    1.15
   3  -5  -3   28.95    1.03
   3  -5  -3   28.84    0.86
   3  -5  -3   28.66    0.88
  -3  -5   3   28.60    1.00
  -3  -5   3   28.84    0.98
   2  -5  -3    8.45    0.45
   2  -5  -3    8.09    0.65
   2  -5  -3    8.08    0.56
  -2  -5   3    8.37    0.51
  -2  -5   3    8.95    0.55
   2  -5  -3    8.31    0.45
   1  -5  -3    9.10    0.48
  -1  -5   3   10.02    0.53
  -1  -5   3    9.64    0.56
   1  -5  -3    9.46    0.69
   1  -5  -3    9.75    0.61
   0  -5  -3    7.67    0.62
   0  -5  -3    8.37    0.58
   0  -5   3    7.20    0.46
   0  -5  -3    7.83    0.46
   0  -5   3    7.86    0.51
  -1  -5  -3   35.58    1.25
   1  -5   3   36.03    1.09
  -1  -5  -3   36.12    1.11
  -1  -5  -3   38.60    1.34
   1  -5   3   35.60    1.16
  -2  -5  -3    3.12    0.47
   2  -5   3    2.43    0.30
  -2  -5  -3    1.78    0.30
   2  -5   3    3.02    0.35
  -2  -5  -3    2.65    0.41
   3  -5   3   13.55    0.58
   3  -5   3   13.28    0.64
  -3  -5  -3   13.20    0.65
  -3  -5  -3   13.52    0.76
  -3  -5  -3   12.66    0.76
  -4  -5  -3    2.23    0.43
  -4  -5  -3    2.09    0.35
   4  -5   3    2.02    0.28
  -4  -5  -3    1.43    0.39
   5  -5   3    9.78    0.51
  -5  -5  -3   10.63    0.65
  -5  -5  -3   10.50    0.73
  -5  -5  -3    9.64    0.68
  -6  -5  -3    0.77    0.37
  -6  -5  -3    0.80    0.32
   6  -5   3    0.57    0.22
   6  -5   3    0.61    0.17
  -7  -5  -3    2.16    0.45
   7  -5   3    2.79    0.26
  -7  -5  -3    2.61    0.44
   7  -5   3    2.69    0.34
  -8  -5  -3    3.67    0.54
   8  -5   3    2.75    0.28
  -8  -5  -3    3.49    0.55
   9  -5   3    0.90    0.23
  -9  -5  -3    0.62    0.44
  -9  -5  -3    1.42    0.43
  -9  -6   3    0.91    0.70
  -8  -6   3    0.10    0.36
   8  -6  -3    0.18    0.21
  -7  -6   3    5.27    0.57
   7  -6  -3    6.95    0.59
   7  -6  -3    5.91    0.42
   6  -6  -3    3.47    0.34
  -6  -6   3    3.95    0.50
   6  -6  -3    3.73    0.44
  -6  -6   3    2.98    0.47
   5  -6  -3   23.10    0.79
  -5  -6   3   23.05    0.96
   5  -6  -3   23.80    0.97
  -5  -6   3   19.81    0.95
   4  -6  -3    4.44    0.62
  -4  -6   3    3.81    0.46
   4  -6  -3    3.84    0.47
   4  -6  -3    4.04    0.36
  -4  -6   3    3.43    0.45
  -3  -6   3   26.67    1.01
   3  -6  -3   24.64    0.86
   3  -6  -3   26.02    1.05
   3  -6  -3   25.63    1.18
  -3  -6   3   25.30    1.01
  -2  -6   3    7.01    0.55
   2  -6  -3    7.30    0.60
   2  -6  -3    7.02    0.74
   2  -6  -3    6.49    0.46
  -2  -6   3    7.18    0.59
   1  -6  -3    3.11    0.45
   1  -6  -3    3.21    0.36
  -1  -6   3    3.59    0.44
   1  -6  -3    3.19    0.55
  -1  -6   3    3.17    0.40
   0  -6  -3    2.63    0.50
   0  -6  -3    2.39    0.43
   0  -6   3    3.20    0.42
   0  -6  -3    2.12    0.34
   0  -6   3    2.72    0.35
   1  -6   3    6.76    0.55
  -1  -6  -3    7.20    0.52
  -1  -6  -3    7.56    0.73
   1  -6   3    6.32    0.48
  -1  -6  -3    6.39    0.63
   2  -6   3    6.01    0.47
  -2  -6  -3    5.29    0.48
  -2  -6  -3    6.93    0.65
  -2  -6  -3    6.70    0.69
   2  -6   3    6.51    0.55
  -3  -6  -3    2.98    0.41
   3  -6   3    2.85    0.40
  -3  -6  -3    2.89    0.50
  -3  -6  -3    2.46    0.48
   3  -6   3    2.43    0.32
   4  -6   3    3.13    0.37
   4  -6   3    3.03    0.42
  -4  -6  -3    2.82    0.50
  -4  -6  -3    2.59    0.49
  -4  -6  -3    3.01    0.44
  -5  -6  -3    6.99    0.61
   5  -6   3    7.93    0.50
  -5  -6  -3    6.35    0.64
  -5  -6  -3    7.19    0.73
  -6  -6  -3    1.47    0.41
  -6  -6  -3    2.63    0.52
   6  -6   3    2.35    0.35
   7  -6   3    2.82    0.37
  -7  -6  -3    2.51    0.53
   7  -6   3    2.82    0.27
  -7  -6  -3    2.19    0.48
   8  -6   3    0.71    0.19
  -8  -6  -3   -0.17    0.38
   8  -6   3    0.35    0.27
  -8  -6  -3    1.12    0.49
   7  -7  -3    1.40    0.29
   7  -7  -3    1.20    0.38
   6  -7  -3    0.36    0.31
   6  -7  -3    0.89    0.25
  -6  -7   3    0.62    0.39
  -5  -7   3    5.45    0.59
   5  -7  -3    6.08    0.61
  -5  -7   3    5.95    0.62
   5  -7  -3    5.34    0.44
  -4  -7   3    3.53    0.49
   4  -7  -3    2.32    0.42
  -4  -7   3    3.60    0.51
   4  -7  -3    2.53    0.34
  -3  -7   3   17.27    0.89
   3  -7  -3   15.52    0.72
   3  -7  -3   17.33    0.92
  -3  -7   3   16.65    0.87
  -2  -7   3    1.85    0.42
   2  -7  -3    0.88    0.38
   2  -7  -3    1.80    0.50
   2  -7  -3    1.70    0.32
  -2  -7   3    2.12    0.40
   1  -7  -3   -0.02    0.23
   1  -7  -3   -0.03    0.40
   1  -7  -3   -0.02    0.30
  -1  -7   3    0.04    0.30
  -1  -7   3    0.23    0.28
   0  -7   3    3.16    0.43
   0  -7  -3    4.77    0.67
   0  -7  -3    2.86    0.50
   0  -7   3    3.31    0.48
   0  -7  -3    2.98    0.40
  -1  -7  -3    0.21    0.37
   1  -7   3    1.15    0.37
   1  -7   3    0.42    0.28
  -1  -7  -3    0.38    0.31
  -1  -7  -3    0.62    0.42
  -2  -7  -3    4.48    0.62
  -2  -7  -3    5.24    0.53
  -2  -7  -3    6.47    0.72
   2  -7   3    5.58    0.50
   2  -7   3    5.17    0.56
   3  -7   3    4.19    0.52
  -3  -7  -3    3.47    0.57
  -3  -7  -3    2.84    0.46
   3  -7   3    3.85    0.44
  -4  -7  -3    2.16    0.45
   4  -7   3    2.27    0.36
   4  -7   3    2.02    0.41
  -4  -7  -3    1.77    0.48
  -5  -7  -3    1.23    0.49
   5  -7   3    1.13    0.31
  -5  -7  -3    1.10    0.41
  -6  -7  -3    6.43    0.76
   6  -7   3    8.20    0.64
  -7  -7  -3    1.80    0.57
   5  -8  -3    4.95    0.50
  -4  -8   3    0.27    0.39
   4  -8  -3    0.15    0.24
  -3  -8   3    0.30    0.37
   3  -8  -3   -0.40    0.23
   2  -8  -3    0.52    0.39
   2  -8  -3    0.52    0.29
  -2  -8   3    1.04    0.42
  -2  -8   3    0.45    0.37
   1  -8  -3    1.23    0.33
  -1  -8   3    0.81    0.42
   1  -8  -3    1.05    0.42
  -1  -8   3    0.34    0.33
   0  -8  -3    0.97    0.33
   0  -8   3    1.25    0.44
   0  -8   3    1.19    0.36
   0  -8  -3    0.80    0.44
  -1  -8  -3    1.94    0.40
  -1  -8  -3    2.05    0.52
   1  -8   3    2.19    0.48
   1  -8   3    2.15    0.41
  -2  -8  -3    0.55    0.47
   2  -8   3    0.12    0.34
  -2  -8  -3    0.07    0.33
   2  -8   3    0.52    0.46
  -3  -8  -3    3.88    0.79
  12   0  -4    9.69    0.71
  11   0  -4    7.78    0.62
  10   0  -4   -0.09    0.23
   9   0  -4    1.90    0.34
   8   0  -4    3.39    0.36
  -8   0   4    2.34    0.19
   7   0  -4   -0.22    0.17
  -7   0   4    0.13    0.11
   7   0  -4    0.14    0.10
   6   0  -4   76.39    1.77
   6   0  -4   75.81    1.89
   5   0  -4    1.84    0.18
  -5   0   4    1.73    0.14
   5   0  -4    1.57    0.21
   4   0  -4   12.11    0.39
  -4   0   4   11.38    0.36
   4   0  -4   11.52    0.44
   3   0  -4   21.96    0.60
  -3   0   4   22.01    0.58
   3   0  -4   22.22    0.63
  -2   0   4  216.63    4.72
  -2   0   4  219.32    4.80
   2   0  -4  223.44    4.74
   2   0  -4  228.19    4.81
   2   0  -4  212.54    4.81
   1   0  -4  488.58   10.15
   1   0  -4  444.35   10.06
  -1   0   4  470.45   10.06
  -1   0   4  476.30   10.15
   1   0  -4  462.52   10.14
  -1   0   4  483.13   10.20
   0   0   4   32.01    0.86
   0   0   4   34.97    0.84
   0   0  -4   34.67    0.77
   0   0   4   32.79    0.84
   0   0  -4   35.78    0.86
  -1   0  -4    1.09    0.14
  -1   0  -4    1.31    0.17
  -1   0  -4    1.05    0.10
   1   0   4    0.98    0.15
  -2   0  -4    1.10    0.16
   2   0   4    0.86    0.16
   3   0   4    0.05    0.14
  -3   0  -4    0.04    0.13
   4   0   4    0.10    0.15
  -4   0  -4    0.14    0.13
   5   0   4   -0.08    0.17
  -5   0  -4   -0.04    0.14
  -6   0  -4   65.10    1.53
   6   0   4   62.42    1.72
   7   0   4    6.85    0.54
  -7   0  -4    6.93    0.34
   8   0   4    4.06    0.46
   9   0   4    1.95    0.41
  10   0   4    0.04    0.34
  11   0   4    8.03    0.77
 -11   0  -4    7.18    0.61
  12   0   4    3.46    0.86
  12  -1  -4    1.70    0.36
  12   1  -4    2.04    0.46
  11  -1  -4    0.71    0.27
  11   1  -4    0.67    0.34
  10  -1  -4    3.29    0.37
  10   1  -4    3.75    0.48
   9  -1  -4    8.68    0.50
   9   1  -4    9.53    0.64
   8  -1  -4    1.50    0.25
   8   1  -4    1.31    0.31
   7  -1  -4    1.71    0.22
   7  -1  -4    1.70    0.22
   7   1  -4    1.48    0.28
   6  -1  -4   22.80    0.68
   6  -1  -4   23.33    0.73
   6   1  -4   22.88    0.58
   6   1  -4   23.11    0.81
   5  -1  -4    8.94    0.35
   5  -1  -4    8.71    0.41
  -5   1   4    9.56    0.35
   5   1  -4    8.25    0.45
   5   1  -4    8.76    0.30
   4  -1  -4    8.29    0.28
   4  -1  -4    8.25    0.30
   4  -1  -4    8.31    0.39
  -4  -1   4    7.62    0.31
   4   1  -4    7.93    0.30
   4   1  -4    7.92    0.41
  -4   1   4    7.83    0.26
  -4   1   4    8.30    0.31
   3  -1  -4   89.27    1.97
  -3  -1   4   82.49    1.96
   3  -1  -4   85.15    2.05
   3  -1  -4   85.45    1.94
  -3   1   4   87.66    1.91
   3   1  -4   89.85    2.07
  -3   1   4   87.01    1.91
  -3   1   4   86.94    1.96
  -2  -1   4   37.19    0.90
   2  -1  -4   38.57    0.90
   2  -1  -4   38.02    0.83
   2  -1  -4   38.12    0.99
  -2  -1   4   37.12    1.04
   2  -1  -4   38.82    0.94
   2   1  -4   35.27    0.87
   2   1  -4   37.13    0.98
  -2   1   4   39.18    0.85
  -2   1   4   37.18    0.89
  -2   1   4   37.27    0.91
   1  -1  -4  171.82    3.77
  -1  -1   4  170.02    3.76
   1  -1  -4  168.24    3.72
  -1  -1   4  166.19    3.68
   1  -1  -4  172.53    3.69
   1  -1  -4  174.48    3.63
  -1   1   4  168.97    3.70
   1   1  -4  165.19    3.68
   1   1  -4  160.45    3.74
   1   1  -4  167.33    3.68
  -1   1   4  170.03    3.70
   0  -1   4    5.58    0.27
   0  -1  -4    5.99    0.27
   0  -1  -4    6.32    0.28
   0  -1  -4    5.95    0.30
   0  -1   4    5.59    0.22
   0   1   4    6.52    0.29
   0   1  -4    5.55    0.23
   0   1  -4    5.29    0.26
   1  -1   4   11.24    0.34
  -1  -1  -4   11.46    0.41
  -1  -1  -4   10.92    0.39
  -1  -1  -4   11.03    0.40
   1  -1   4   11.31    0.38
   1   1   4   11.41    0.43
  -2  -1  -4   12.84    0.44
  -2  -1  -4   12.95    0.45
  -2  -1  -4   12.47    0.49
  -2  -1  -4   12.80    0.44
   2  -1   4   12.58    0.41
   2  -1   4   12.65    0.39
   2   1   4   12.56    0.49
  -3  -1  -4   19.29    0.57
   3  -1   4   17.06    0.55
  -3  -1  -4   19.05    0.59
   3   1   4   18.69    0.66
  -4  -1  -4   58.16    1.40
   4  -1   4   57.79    1.43
  -4  -1  -4   56.49    1.44
   4   1   4   59.10    1.54
   5  -1   4    3.75    0.32
  -5  -1  -4    3.90    0.26
  -5  -1  -4    4.10    0.33
   5   1   4    3.92    0.39
  -6  -1  -4   51.81    1.28
   6  -1   4   50.60    1.40
  -6  -1  -4   51.86    1.38
   6   1   4   51.99    1.53
   7  -1   4    2.04    0.32
  -7  -1  -4    2.19    0.30
   7   1   4    2.24    0.38
  -7   1  -4    1.94    0.23
  -8  -1  -4    0.41    0.25
   8  -1   4    0.63    0.27
   8   1   4    0.32    0.34
  -9  -1  -4    0.46    0.28
   9  -1   4    0.58    0.30
   9   1   4    0.71    0.37
  10  -1   4    3.73    0.50
 -10  -1  -4    4.12    0.47
  10   1   4    3.71    0.59
 -11  -1  -4   18.83    1.18
  11  -1   4   13.58    0.90
  11   1   4   16.17    1.04
  12   1   4    0.90    0.48
 -13  -2   4    2.83    0.51
  12  -2  -4    0.55    0.26
 -12  -2   4    1.02    0.37
  12   2  -4    0.29    0.36
 -11  -2   4    2.97    0.42
  11  -2  -4    3.09    0.34
  11   2  -4    3.49    0.54
  10  -2  -4    2.23    0.28
 -10  -2   4    2.49    0.35
  10   2  -4    2.54    0.46
  -9  -2   4   10.28    0.57
   9  -2  -4   11.47    0.49
   9   2  -4   13.10    0.78
   8  -2  -4   13.94    0.50
  -8  -2   4   14.21    0.61
   8  -2  -4   14.09    0.59
   8   2  -4   14.28    0.77
   7  -2  -4   41.40    1.21
   7  -2  -4   40.99    1.02
  -7  -2   4   39.38    1.14
  -7  -2   4   40.77    1.02
   7   2  -4   40.71    1.31
   6  -2  -4    4.00    0.21
  -6  -2   4    4.05    0.32
  -6  -2   4    3.58    0.24
   6  -2  -4    4.16    0.38
   6   2  -4    3.71    0.24
   6   2  -4    3.99    0.40
   6   2  -4    3.46    0.22
  -5  -2   4    3.88    0.29
  -5  -2   4    3.42    0.23
   5  -2  -4    3.70    0.18
   5  -2  -4    4.18    0.38
   5  -2  -4    3.59    0.25
   5   2  -4    3.35    0.36
  -4  -2   4   32.50    0.82
  -4  -2   4   32.40    0.89
   4  -2  -4   33.15    0.80
   4  -2  -4   33.16    1.01
   4  -2  -4   32.08    0.89
   4  -2  -4   32.52    0.77
   4   2  -4   31.11    0.81
   4   2  -4   34.26    1.01
  -3  -2   4   31.54    0.82
  -3  -2   4   32.98    0.88
   3  -2  -4   33.22    0.91
   3  -2  -4   32.39    0.99
   3  -2  -4   33.19    0.77
   3  -2  -4   32.99    0.79
   3   2  -4   31.72    0.84
   3   2  -4   33.21    0.97
  -2  -2   4   60.86    1.43
  -2  -2   4   57.90    1.45
   2  -2  -4   61.13    1.51
   2  -2  -4   60.64    1.59
  -2  -2   4   58.98    1.54
   2  -2  -4   60.70    1.40
   2  -2  -4   61.29    1.39
   2   2  -4   62.41    1.54
  -2   2   4   62.08    1.40
  -2   2   4   61.51    1.39
  -1  -2   4    1.22    0.16
   1  -2  -4    1.50    0.22
   1  -2  -4    1.19    0.13
  -1  -2   4    1.32    0.19
  -1  -2   4    1.10    0.15
   1  -2  -4    1.20    0.23
   1  -2  -4    1.21    0.16
  -1   2   4    1.48    0.13
  -1   2   4    1.19    0.16
   1   2  -4    1.25    0.18
   0  -2  -4   12.33    0.41
   0  -2  -4   14.01    0.50
   0  -2  -4   12.20    0.52
   0  -2   4   11.92    0.45
   0  -2   4   12.52    0.42
   0  -2  -4   12.63    0.45
   0  -2   4   13.27    0.43
   0   2   4   13.00    0.47
   0   2  -4   13.44    0.44
   1  -2   4   19.13    0.56
  -1  -2  -4   19.62    0.62
  -1  -2  -4   18.50    0.75
  -1  -2  -4   20.08    0.67
  -1  -2  -4   20.33    0.65
   1  -2   4   19.67    0.59
  -1  -2  -4   20.43    0.57
   1   2   4   19.36    0.65
  -1   2  -4   20.04    0.58
   2  -2   4   18.64    0.54
   2  -2   4   18.65    0.56
  -2  -2  -4   18.12    0.63
  -2  -2  -4   18.75    0.63
  -2  -2  -4   17.95    0.61
   2   2   4   18.85    0.67
   3  -2   4    9.17    0.37
  -3  -2  -4    9.25    0.43
   3  -2   4    9.55    0.36
  -3  -2  -4    9.78    0.44
   3   2   4   10.08    0.51
  -4  -2  -4   33.17    0.99
   4  -2   4   33.82    0.89
   4  -2   4   33.94    0.90
  -4  -2  -4   34.15    0.97
   4   2   4   34.07    1.09
  -5  -2  -4   61.60    1.61
  -5  -2  -4   61.10    1.55
   5  -2   4   59.52    1.51
   5   2   4   62.86    1.75
  -6  -2  -4   64.81    1.73
  -6  -2  -4   65.02    1.63
   6  -2   4   64.85    1.64
   6   2   4   66.16    1.89
   7  -2   4   12.44    0.58
  -7  -2  -4   12.47    0.62
   7   2   4   13.08    0.79
  -8  -2  -4    2.63    0.38
   8  -2   4    2.89    0.36
   8   2   4    1.81    0.44
  -9  -2  -4    0.74    0.31
   9  -2   4    1.42    0.32
   9   2   4    0.68    0.40
  10  -2   4    2.17    0.40
 -10  -2  -4    1.45    0.39
  10   2   4    2.09    0.52
  11  -2   4    4.12    0.53
  11   2   4    3.29    0.63
  12   2   4    1.66    0.66
 -12  -3   4    4.65    0.58
  12   3  -4    5.34    0.68
 -11  -3   4    8.76    0.67
  11   3  -4   10.21    0.86
 -10  -3   4    1.90    0.39
  10   3  -4    1.19    0.41
  -9  -3   4    7.87    0.57
   9   3  -4    8.32    0.71
  -8  -3   4    2.68    0.36
   8  -3  -4    2.99    0.37
   8   3  -4    1.85    0.41
  -7  -3   4    8.86    0.51
   7  -3  -4    7.96    0.55
  -7  -3   4    8.31    0.42
   7   3  -4    8.14    0.62
  -6  -3   4   20.59    0.75
   6  -3  -4   20.91    0.70
   6  -3  -4   19.90    0.84
   6  -3  -4   20.64    0.61
  -6  -3   4   21.58    0.68
   6   3  -4   21.43    0.89
   5  -3  -4    2.22    0.20
   5  -3  -4    1.96    0.34
   5  -3  -4    1.93    0.25
  -5  -3   4    2.43    0.26
  -5  -3   4    2.44    0.29
   5   3  -4    1.92    0.32
  -4  -3   4   47.55    1.25
   4  -3  -4   49.97    1.32
   4  -3  -4   48.74    1.45
   4  -3  -4   48.91    1.18
   4  -3  -4   49.59    1.11
  -4  -3   4   46.80    1.29
   4   3  -4   47.12    1.39
  -3  -3   4   23.53    0.70
   3  -3  -4   22.39    0.63
   3  -3  -4   23.42    0.77
   3  -3  -4   21.28    0.85
  -3  -3   4   22.88    0.72
   3  -3  -4   22.97    0.61
   3   3  -4   21.69    0.78
   2  -3  -4    1.30    0.16
   2  -3  -4    1.23    0.32
  -2  -3   4    1.12    0.22
  -2  -3   4    1.18    0.20
  -2  -3   4    1.08    0.19
   2  -3  -4    1.07    0.15
   2  -3  -4    1.12    0.23
   2  -3  -4    1.20    0.27
   2   3  -4    1.38    0.22
  -1  -3   4   10.65    0.49
  -1  -3   4   11.11    0.45
   1  -3  -4   10.35    0.40
  -1  -3   4   11.08    0.44
   1  -3  -4   10.99    0.57
   1  -3  -4   11.28    0.53
   1  -3  -4   10.34    0.64
   1  -3  -4   11.45    0.44
   1   3  -4   10.64    0.46
  -1   3   4   11.51    0.43
   0  -3  -4    2.63    0.33
   0  -3   4    2.63    0.26
   0  -3  -4    3.30    0.25
   0  -3  -4    2.62    0.25
   0  -3   4    3.09    0.26
   0  -3   4    3.33    0.26
   0  -3  -4    2.49    0.28
   0   3   4    3.61    0.29
   0   3  -4    3.10    0.24
   1  -3   4    1.94    0.23
  -1  -3  -4    2.22    0.29
  -1  -3  -4    2.05    0.23
  -1  -3  -4    2.09    0.30
  -1  -3  -4    1.87    0.24
   1  -3   4    1.58    0.19
   1  -3   4    1.51    0.20
  -1   3  -4    1.73    0.18
   1   3   4    1.62    0.24
  -2  -3  -4   13.32    0.61
  -2  -3  -4   13.28    0.57
  -2  -3  -4   13.44    0.51
  -2  -3  -4   12.77    0.58
   2  -3   4   13.69    0.49
   2  -3   4   13.39    0.49
   2   3   4   14.38    0.61
  -3  -3  -4    8.50    0.49
   3  -3   4    8.01    0.36
   3  -3   4    7.58    0.36
  -3  -3  -4    7.33    0.40
  -3  -3  -4    7.87    0.47
   3   3   4    7.29    0.51
   4  -3   4   25.05    0.74
  -4  -3  -4   26.41    0.88
  -4  -3  -4   25.52    0.89
   4  -3   4   24.09    0.75
  -4  -3  -4   24.47    0.81
   4   3   4   25.42    0.96
  -5  -3  -4   21.45    0.74
  -5  -3  -4   20.08    0.77
  -5  -3  -4   20.41    0.80
   5  -3   4   19.88    0.63
   5  -3   4   20.13    0.63
   5  -3   4   20.08    0.67
   5   3   4   20.82    0.91
   6  -3   4   11.39    0.47
  -6  -3  -4   12.12    0.64
   6  -3   4   10.53    0.48
  -6  -3  -4    9.88    0.54
   6   3   4   11.62    0.74
   7  -3   4   14.04    0.57
  -7  -3  -4   13.76    0.71
   7   3   4   11.43    0.82
  -8  -3  -4    8.14    0.63
   8  -3   4    7.75    0.49
   8   3   4    8.90    0.78
   9  -3   4    0.41    0.26
  -9  -3  -4   -0.03    0.31
   9   3   4    0.47    0.41
 -10  -3  -4    1.51    0.43
  10  -3   4    1.43    0.34
  10   3   4    1.23    0.50
  11  -3   4    2.29    0.64
  11   3   4    1.43    0.55
 -11  -4   4    1.34    0.43
 -10  -4   4    1.97    0.42
  10   4  -4    2.00    0.48
   9  -4  -4    7.90    0.76
  -9  -4   4    5.78    0.57
   9   4  -4    6.89    0.70
  -8  -4   4    0.15    0.29
   8  -4  -4    0.49    0.39
   8   4  -4    0.83    0.37
   7  -4  -4   10.55    0.81
  -7  -4   4    8.78    0.59
  -7  -4   4   10.21    0.84
   7  -4  -4    9.90    0.42
   7  -4  -4    8.66    0.50
   7  -4  -4    8.77    0.65
   7   4  -4   10.21    0.70
   6  -4  -4    9.46    0.65
   6  -4  -4    9.22    0.40
  -6  -4   4    9.86    0.58
  -6  -4   4    9.91    0.52
   6  -4  -4    9.38    0.51
   6  -4  -4    8.91    0.76
   6   4  -4    9.25    0.65
   5  -4  -4   11.96    0.45
  -5  -4   4   11.63    0.58
   5  -4  -4   11.43    0.82
   5  -4  -4   12.13    0.72
   5  -4  -4   11.09    0.56
  -5  -4   4   12.34    0.56
   5   4  -4   11.43    0.66
   4  -4  -4   56.42    1.72
  -4  -4   4   56.54    1.54
   4  -4  -4   55.99    1.88
  -4  -4   4   56.90    1.51
   4  -4  -4   57.37    1.41
   4  -4  -4   54.55    1.56
   4  -4  -4   58.07    1.35
   4   4  -4   56.21    1.63
   3  -4  -4    2.54    0.41
   3  -4  -4    1.80    0.43
  -3  -4   4    2.74    0.30
   3  -4  -4    2.63    0.22
   3  -4  -4    2.82    0.35
  -3  -4   4    1.92    0.28
   3  -4  -4    2.61    0.24
   3   4  -4    2.66    0.35
  -2  -4   4   53.60    1.53
   2  -4  -4   54.80    1.36
  -2  -4   4   53.29    1.44
   2  -4  -4   53.84    1.37
   2  -4  -4   52.89    1.63
  -2  -4   4   52.56    1.43
   2  -4  -4   52.04    1.51
   2   4  -4   53.60    1.47
   1  -4  -4   13.64    0.54
  -1  -4   4   13.46    0.61
  -1  -4   4   13.80    0.57
  -1  -4   4   12.49    0.55
   1  -4  -4   12.73    0.51
   1  -4  -4   13.69    0.71
   1  -4  -4   13.83    0.66
   1   4  -4   13.88    0.56
   0  -4   4   38.88    1.18
   0  -4   4   40.92    1.13
   0  -4  -4   41.54    1.12
   0  -4  -4   41.01    1.34
   0  -4  -4   40.40    1.16
   0  -4  -4   41.37    1.27
   0  -4   4   40.55    1.16
   0   4  -4   38.91    1.10
   0   4   4   41.52    1.15
  -1  -4  -4   15.06    0.75
  -1  -4  -4   13.81    0.61
   1  -4   4   14.71    0.60
   1  -4   4   15.36    0.57
  -1  -4  -4   14.95    0.58
   1  -4   4   15.04    0.60
  -1  -4  -4   13.98    0.67
  -1   4  -4   14.65    0.51
   1   4   4   14.76    0.64
   2  -4   4    2.23    0.25
  -2  -4  -4    1.92    0.27
  -2  -4  -4    1.76    0.32
   2  -4   4    1.92    0.25
   2  -4   4    1.97    0.27
  -2  -4  -4    2.54    0.39
   2   4   4    2.22    0.33
  -3  -4  -4    5.53    0.49
  -3  -4  -4    5.22    0.41
   3  -4   4    5.59    0.35
  -3  -4  -4    5.98    0.53
   3  -4   4    5.27    0.36
   3   4   4    4.67    0.47
  -4  -4  -4   20.04    0.86
  -4  -4  -4   20.91    0.87
  -4  -4  -4   20.06    0.77
   4  -4   4   18.99    0.68
   4  -4   4   19.87    0.67
   4   4   4   21.63    0.91
  -5  -4  -4   12.01    0.61
  -5  -4  -4   12.05    0.66
  -5  -4  -4   11.52    0.68
   5  -4   4   12.03    0.53
   5   4   4   11.20    0.74
   6  -4   4    1.80    0.22
  -6  -4  -4    2.40    0.41
  -6  -4  -4    1.79    0.34
   6  -4   4    1.79    0.26
  -6  -4  -4    1.78    0.33
  -7  -4  -4    7.20    0.58
  -7  -4  -4    5.61    0.57
   7  -4   4    6.16    0.40
   8  -4   4    5.52    0.43
  -8  -4  -4    6.19    0.62
  -8  -4  -4    5.53    0.55
  -9  -4  -4    2.40    0.47
  -9  -4  -4    2.82    0.48
   9  -4   4    3.67    0.38
  10  -4   4    0.92    0.28
 -10  -4  -4    1.55    0.46
 -10  -5   4    0.96    0.42
  -9  -5   4    1.25    0.40
  -8  -5   4    7.66    0.65
  -7  -5   4    0.32    0.29
   7  -5  -4   -0.02    0.16
   7  -5  -4    0.20    0.32
   7  -5  -4   -0.07    0.20
   6  -5  -4    2.13    0.44
  -6  -5   4    1.88    0.36
   6  -5  -4    2.15    0.26
   6  -5  -4    1.81    0.33
  -6  -5   4    2.97    0.38
   5  -5  -4   15.98    0.89
  -5  -5   4   16.25    0.76
   5  -5  -4   16.08    0.74
  -5  -5   4   16.55    0.72
   5  -5  -4   14.73    0.57
   4  -5  -4    5.07    0.48
  -4  -5   4    4.58    0.44
  -4  -5   4    4.04    0.43
   4  -5  -4    4.09    0.29
   4  -5  -4    4.54    0.57
   4  -5  -4    4.26    0.32
  -3  -5   4   21.87    0.85
   3  -5  -4   23.18    0.73
  -3  -5   4   22.39    0.86
   3  -5  -4   22.00    1.04
   3  -5  -4   22.28    0.74
   3  -5  -4   22.39    0.91
  -2  -5   4    2.42    0.34
  -2  -5   4    2.18    0.32
   2  -5  -4    2.14    0.27
   2  -5  -4    2.12    0.41
   2  -5  -4    2.20    0.36
  -1  -5   4   40.15    1.19
   1  -5  -4   38.55    1.30
   1  -5  -4   38.48    1.39
  -1  -5   4   39.47    1.21
   1  -5  -4   37.44    1.12
   0  -5   4    5.76    0.42
   0  -5  -4    5.81    0.53
   0  -5   4    5.55    0.45
   0  -5  -4    7.00    0.66
   0  -5  -4    5.93    0.42
   1  -5   4   14.89    0.67
   1  -5   4   13.53    0.61
  -1  -5  -4   14.62    0.77
  -1  -5  -4   15.75    0.84
  -1  -5  -4   15.40    0.66
  -2  -5  -4    0.21    0.22
  -2  -5  -4    0.36    0.32
   2  -5   4    0.76    0.22
  -2  -5  -4    0.82    0.34
   2  -5   4    0.62    0.23
   3  -5   4    9.67    0.55
  -3  -5  -4    9.56    0.57
   3  -5   4    9.11    0.50
  -3  -5  -4    9.90    0.69
  -3  -5  -4   10.68    0.72
  -4  -5  -4    8.96    0.69
  -4  -5  -4    9.91    0.61
  -4  -5  -4   10.12    0.71
   4  -5   4   10.09    0.51
  -5  -5  -4    5.90    0.59
  -5  -5  -4    5.43    0.59
   5  -5   4    5.52    0.42
  -5  -5  -4    6.94    0.58
  -6  -5  -4    3.21    0.45
  -6  -5  -4    2.51    0.48
   6  -5   4    2.84    0.33
   6  -5   4    2.99    0.28
   7  -5   4    0.43    0.18
   7  -5   4    0.21    0.23
  -7  -5  -4   -0.06    0.31
  -7  -5  -4    0.37    0.39
   8  -5   4    0.63    0.21
  -8  -5  -4    0.42    0.37
  -8  -5  -4    0.70    0.42
  -9  -5  -4    1.81    0.53
   9  -5   4    2.61    0.32
  -9  -5  -4    2.33    0.48
  -9  -6   4   -0.27    0.58
   8  -6  -4    1.98    0.30
  -8  -6   4    1.61    0.44
  -7  -6   4    5.11    0.57
   7  -6  -4    4.79    0.50
   7  -6  -4    4.51    0.38
  -6  -6   4    6.41    0.61
   6  -6  -4    5.66    0.40
   6  -6  -4    5.68    0.55
   6  -6  -4    6.10    0.71
  -5  -6   4   15.46    0.78
  -5  -6   4   14.48    0.78
   5  -6  -4   14.43    0.76
   5  -6  -4   13.71    0.91
   5  -6  -4   14.97    0.61
  -4  -6   4    6.61    0.59
   4  -6  -4    6.16    0.42
   4  -6  -4    8.15    0.79
  -4  -6   4    7.06    0.58
   4  -6  -4    8.19    0.62
   3  -6  -4    7.06    0.62
   3  -6  -4    7.67    0.78
  -3  -6   4    8.31    0.60
   3  -6  -4    7.51    0.46
  -3  -6   4    8.41    0.60
  -2  -6   4    1.00    0.32
  -2  -6   4    1.14    0.30
   2  -6  -4    1.18    0.35
   2  -6  -4    0.97    0.42
   2  -6  -4    0.99    0.25
  -1  -6   4    4.03    0.46
  -1  -6   4    2.96    0.39
   1  -6  -4    4.23    0.52
   1  -6  -4    3.62    0.37
   1  -6  -4    4.37    0.62
   0  -6  -4   15.29    0.70
   0  -6   4   16.05    0.73
   0  -6   4   17.40    0.79
   0  -6  -4   14.67    0.93
   0  -6  -4   15.58    0.86
  -1  -6  -4   10.57    0.62
  -1  -6  -4   11.08    0.76
  -1  -6  -4   10.92    0.82
   1  -6   4   10.70    0.65
   1  -6   4   12.12    0.61
   2  -6   4    0.26    0.27
  -2  -6  -4    0.20    0.34
  -2  -6  -4    0.46    0.28
   2  -6   4    0.36    0.23
  -2  -6  -4    0.44    0.39
   3  -6   4    1.92    0.36
   3  -6   4    1.13    0.29
  -3  -6  -4    2.18    0.46
  -3  -6  -4    1.22    0.44
  -3  -6  -4    0.93    0.31
  -4  -6  -4    0.95    0.33
  -4  -6  -4    0.13    0.36
   4  -6   4    0.66    0.25
  -4  -6  -4    0.72    0.41
  -5  -6  -4    1.36    0.43
  -5  -6  -4    1.82    0.40
   5  -6   4    1.49    0.30
  -5  -6  -4    1.21    0.45
   6  -6   4    0.18    0.22
  -6  -6  -4    0.13    0.34
  -6  -6  -4   -0.10    0.36
   7  -6   4    1.64    0.32
   7  -6   4    1.75    0.25
  -7  -6  -4    1.22    0.43
  -7  -6  -4    0.87    0.48
  -8  -6  -4    0.00    0.46
   7  -7  -4    1.30    0.39
   6  -7  -4    8.42    0.67
  -6  -7   4    9.10    0.75
   6  -7  -4    8.83    0.52
  -5  -7   4    5.35    0.59
  -5  -7   4    5.32    0.59
   5  -7  -4    4.67    0.55
   5  -7  -4    4.99    0.43
   4  -7  -4    2.86    0.35
   4  -7  -4    4.31    0.55
  -4  -7   4    3.68    0.52
  -4  -7   4    3.61    0.52
   4  -7  -4    4.17    0.68
   3  -7  -4    1.97    0.32
   3  -7  -4    2.42    0.57
   3  -7  -4    1.55    0.42
  -3  -7   4    1.66    0.39
  -3  -7   4    2.31    0.43
   2  -7  -4    0.44    0.25
   2  -7  -4    0.58    0.34
  -2  -7   4    0.68    0.34
  -2  -7   4    0.29    0.30
   2  -7  -4    0.57    0.42
   1  -7  -4    7.11    0.70
   1  -7  -4    8.91    0.87
  -1  -7   4    7.36    0.66
  -1  -7   4    7.85    0.62
   1  -7  -4    7.00    0.54
   0  -7  -4    1.81    0.53
   0  -7   4    2.58    0.40
   0  -7  -4    1.38    0.43
   0  -7   4    2.52    0.44
   0  -7  -4    2.05    0.36
  -1  -7  -4    0.33    0.28
   1  -7   4    0.12    0.26
   1  -7   4    0.53    0.32
  -1  -7  -4    0.25    0.37
  -1  -7  -4    0.00    0.42
  -2  -7  -4   -0.03    0.36
   2  -7   4    0.30    0.31
   2  -7   4    0.12    0.26
  -2  -7  -4    0.51    0.42
  -2  -7  -4   -0.07    0.28
  -3  -7  -4    9.00    0.85
  -3  -7  -4   10.61    0.73
  -3  -7  -4    8.64    0.81
   3  -7   4    9.07    0.61
   3  -7   4    9.44    0.68
   4  -7   4    9.76    0.60
  -4  -7  -4    8.21    0.71
  -4  -7  -4    9.28    0.86
  -4  -7  -4   10.10    0.85
  -5  -7  -4    7.26    0.69
   5  -7   4    8.29    0.57
  -5  -7  -4    7.40    0.80
  -6  -7  -4    2.11    0.56
   4  -8  -4    3.21    0.39
  -4  -8   4    4.19    0.57
  -3  -8   4    0.59    0.40
   3  -8  -4    0.90    0.29
   2  -8  -4    4.02    0.44
  -2  -8   4    5.15    0.61
   1  -8  -4    2.99    0.43
   1  -8  -4    4.13    0.62
  -1  -8   4    3.31    0.58
  -1  -8   4    3.09    0.51
   0  -8  -4    1.02    0.48
   0  -8   4    1.09    0.40
   0  -8  -4    1.26    0.36
   0  -8   4    0.52    0.39
  -1  -8  -4    1.60    0.39
   1  -8   4    2.10    0.65
   1  -8   4    1.74    0.46
  -1  -8  -4    1.87    0.82
  -2  -8  -4    1.74    0.43
  12   0  -5    7.35    0.64
  11   0  -5    1.17    0.33
  10   0  -5    1.66    0.35
   9   0  -5    5.04    0.45
   8   0  -5    1.11    0.26
   7   0  -5   21.84    0.77
   7   0  -5   21.94    0.65
   6   0  -5    4.83    0.29
   6   0  -5    5.52    0.37
   5   0  -5    0.21    0.15
   5   0  -5    0.25    0.14
   4   0  -5    2.43    0.23
   4   0  -5    2.58    0.21
   3   0  -5    0.06    0.11
   3   0  -5   -0.01    0.13
   2   0  -5   63.18    1.47
   2   0  -5   60.15    1.38
   2   0  -5   61.36    1.46
   1   0  -5    5.03    0.27
   1   0  -5    4.38    0.26
  -1   0   5    4.49    0.14
   1   0  -5    4.33    0.15
   0   0   5   11.17    0.38
   0   0  -5   11.77    0.41
   0   0   5   10.74    0.38
   0   0  -5   11.06    0.30
  -1   0  -5    6.41    0.22
   1   0   5    6.44    0.31
  -1   0  -5    7.03    0.32
  -2   0  -5    8.06    0.36
   2   0   5    7.76    0.36
  -3   0  -5    3.29    0.27
   3   0   5    2.67    0.25
   4   0   5    1.65    0.24
  -4   0  -5    1.56    0.21
   5   0   5    2.62    0.31
  -5   0  -5    4.20    0.30
  -6   0  -5   28.49    0.80
   6   0   5   27.13    0.97
  -7   0  -5    9.43    0.43
   7   0   5   11.01    0.64
   8   0   5   15.15    0.82
   9   0   5    0.31    0.33
  10   0   5    2.54    0.49
  11   0   5    0.47    0.40
 -11   0  -5   -0.53    0.35
  12  -1  -5    0.31    0.27
  12   1  -5    0.29    0.33
  11  -1  -5   10.61    0.62
  11   1  -5   11.03    0.75
  10  -1  -5    5.98    0.47
  10   1  -5    5.03    0.52
   9  -1  -5    6.31    0.44
   9   1  -5    6.71    0.57
   8  -1  -5   16.91    0.59
   8  -1  -5   15.69    0.62
   8   1  -5   16.47    0.75
   7  -1  -5    4.38    0.32
   7  -1  -5    4.80    0.35
   7   1  -5    3.89    0.39
   7   1  -5    4.41    0.22
   6  -1  -5    8.01    0.37
   6  -1  -5    7.90    0.42
  -6  -1   5    8.24    0.36
   6   1  -5    7.59    0.31
   6   1  -5    7.86    0.47
  -6   1   5    8.46    0.33
   5  -1  -5    5.04    0.34
   5  -1  -5    4.53    0.20
   5  -1  -5    4.61    0.26
  -5  -1   5    4.35    0.26
   5   1  -5    4.49    0.25
   5   1  -5    4.52    0.36
  -5   1   5    4.63    0.24
  -4  -1   5   26.67    0.71
   4  -1  -5   26.57    0.81
   4  -1  -5   27.43    0.69
   4  -1  -5   26.92    0.71
  -4   1   5   27.43    0.65
   4   1  -5   26.87    0.82
  -4   1   5   26.68    0.68
   4   1  -5   26.89    0.72
   3  -1  -5  135.17    3.13
   3  -1  -5  135.24    3.03
   3  -1  -5  137.68    3.04
  -3  -1   5  135.85    3.02
   3   1  -5  137.49    3.05
  -3   1   5  139.14    2.95
  -3   1   5  134.78    2.99
   3   1  -5  137.50    3.13
  -3   1   5  134.59    3.01
   2  -1  -5  113.58    2.63
  -2  -1   5  112.09    2.52
   2  -1  -5  113.18    2.55
   2  -1  -5  114.21    2.56
   2   1  -5  113.98    2.51
  -2   1   5  114.13    2.53
  -2   1   5  113.93    2.53
   2   1  -5  111.20    2.50
   2   1  -5  115.19    2.61
   1  -1  -5  138.90    3.03
   1  -1  -5  140.89    2.95
  -1  -1   5  133.74    2.99
   1  -1  -5  137.12    3.11
  -1  -1   5  135.06    3.09
   1  -1  -5  136.58    3.06
   1   1  -5  136.99    3.01
   1   1  -5  132.64    3.00
  -1   1   5  136.55    3.04
   1   1  -5  135.26    3.08
   0  -1  -5    0.69    0.17
   0  -1   5    1.11    0.15
   0  -1   5    0.82    0.11
   0  -1  -5    0.85    0.14
   0  -1  -5    0.92    0.16
   0   1  -5    0.98    0.16
   0   1  -5    0.71    0.13
   0   1   5    0.90    0.16
  -1  -1  -5   55.97    1.35
   1  -1   5   53.60    1.35
   1  -1   5   56.04    1.29
  -1  -1  -5   55.50    1.35
  -1  -1  -5   58.13    1.38
   1   1   5   53.51    1.37
   2  -1   5   15.96    0.51
  -2  -1  -5   16.28    0.54
   2  -1   5   16.16    0.52
  -2  -1  -5   16.62    0.54
   2  -1   5   16.33    0.47
   2   1   5   15.97    0.58
  -3  -1  -5   18.87    0.62
  -3  -1  -5   19.56    0.61
   3  -1   5   19.44    0.60
   3   1   5   19.54    0.69
  -4  -1  -5   18.38    0.59
   4  -1   5   17.54    0.60
  -4  -1  -5   17.54    0.62
   4   1   5   17.96    0.70
   5  -1   5   10.37    0.49
  -5  -1  -5   10.05    0.48
  -5  -1  -5    9.66    0.41
   5   1   5    9.96    0.58
  -6  -1  -5   22.41    0.79
  -6  -1  -5   23.92    0.71
   6  -1   5   22.97    0.82
  -6   1  -5   23.52    0.72
   6   1   5   23.25    0.94
   7  -1   5   19.89    0.82
  -7  -1  -5   20.39    0.78
   7   1   5   20.71    0.93
   8  -1   5    5.32    0.49
  -8  -1  -5    4.08    0.42
   8   1   5    5.64    0.59
   9  -1   5    6.20    0.58
  -9  -1  -5    4.74    0.49
   9   1   5    6.79    0.68
 -10  -1  -5    1.45    0.38
  10  -1   5    0.68    0.37
  10   1   5    1.59    0.47
  11  -1   5    3.40    0.54
 -11  -1  -5    2.91    0.49
  11   1   5    4.53    0.67
 -13  -2   5    4.69    0.57
  12  -2  -5    3.56    0.37
 -12  -2   5    3.38    0.49
  12   2  -5    3.84    0.59
 -11  -2   5    6.95    0.57
  11  -2  -5    7.44    0.46
  11   2  -5    6.04    0.63
 -10  -2   5    2.48    0.37
  10  -2  -5    2.31    0.28
  10   2  -5    2.81    0.48
   9  -2  -5    4.64    0.34
  -9  -2   5    4.78    0.42
   9   2  -5    4.34    0.52
   8  -2  -5   11.84    0.58
  -8  -2   5   11.12    0.54
   8  -2  -5   11.58    0.45
   8   2  -5   11.54    0.70
   7  -2  -5    7.17    0.47
  -7  -2   5    7.25    0.42
   7  -2  -5    7.15    0.32
   7   2  -5    6.08    0.28
   7   2  -5    7.92    0.56
   6  -2  -5    5.16    0.25
  -6  -2   5    5.52    0.35
   6  -2  -5    5.27    0.28
   6  -2  -5    4.73    0.41
   6   2  -5    5.20    0.28
   6   2  -5    5.06    0.45
   5  -2  -5    0.45    0.11
   5  -2  -5    0.29    0.14
  -5  -2   5    0.27    0.15
   5  -2  -5    0.48    0.22
  -5  -2   5    0.31    0.10
   5   2  -5   -0.04    0.09
   5   2  -5    0.13    0.20
  -4  -2   5   45.21    1.15
   4  -2  -5   44.20    1.28
   4  -2  -5   45.20    1.16
   4  -2  -5   43.06    1.05
   4  -2  -5   45.62    1.04
  -4  -2   5   44.73    1.05
   4   2  -5   43.77    1.07
   4   2  -5   44.59    1.26
   3  -2  -5   44.60    1.04
  -3  -2   5   45.35    1.08
   3  -2  -5   47.13    1.30
   3  -2  -5   47.14    1.20
   3  -2  -5   46.26    1.07
  -3  -2   5   44.09    1.14
   3   2  -5   44.14    1.11
  -3   2   5   45.89    1.07
   3   2  -5   44.42    1.24
  -2  -2   5  266.23    5.86
   2  -2  -5  276.00    5.82
   2  -2  -5  270.83    6.05
   2  -2  -5  272.82    5.86
  -2  -2   5  258.65    5.90
   2  -2  -5  269.18    5.97
  -2   2   5  272.76    5.83
  -2   2   5  265.37    5.86
   2   2  -5  270.37    5.98
   1  -2  -5    2.80    0.18
   1  -2  -5    2.52    0.29
  -1  -2   5    2.97    0.22
   1  -2  -5    2.92    0.28
   1  -2  -5    2.56    0.22
  -1  -2   5    2.67    0.25
   1   2  -5    2.47    0.22
  -1   2   5    2.97    0.25
   0  -2   5   51.34    1.29
   0  -2  -5   52.52    1.37
   0  -2   5   49.51    1.22
   0  -2  -5   49.85    1.20
   0  -2  -5   49.33    1.26
   0  -2  -5   49.62    1.31
   0   2   5   50.22    1.28
   0   2  -5   50.50    1.26
  -1  -2  -5   35.74    1.04
  -1  -2  -5   36.12    0.99
  -1  -2  -5   37.06    1.14
  -1  -2  -5   37.39    0.93
   1  -2   5   36.01    0.92
   1  -2   5   35.48    0.97
   1   2   5   36.33    1.02
  -1   2  -5   35.59    0.95
   2  -2   5   15.57    0.49
  -2  -2  -5   15.19    0.57
  -2  -2  -5   14.64    0.58
  -2  -2  -5   15.12    0.56
   2  -2   5   15.71    0.52
   2   2   5   15.99    0.62
   3  -2   5    0.31    0.13
  -3  -2  -5    0.30    0.17
   3  -2   5    0.42    0.12
   3  -2   5    0.27    0.12
  -3  -2  -5    0.23    0.18
   3   2   5    0.17    0.19
   4  -2   5    0.98    0.17
   4  -2   5    1.08    0.16
  -4  -2  -5    1.12    0.24
   4  -2   5    0.96    0.17
  -4  -2  -5    1.22    0.23
  -4   2  -5    1.23    0.22
   4   2   5    1.41    0.29
  -5  -2  -5   42.69    1.24
  -5  -2  -5   43.88    1.20
   5  -2   5   41.94    1.15
   5   2   5   43.71    1.37
   6  -2   5    3.41    0.33
  -6  -2  -5    3.69    0.33
  -6  -2  -5    4.01    0.40
   6   2   5    3.51    0.46
  -7  -2  -5   12.07    0.64
   7  -2   5   12.65    0.61
   7   2   5   13.53    0.82
   8  -2   5    0.48    0.26
  -8  -2  -5    0.33    0.29
   8   2   5    1.00    0.40
   9  -2   5    0.38    0.28
  -9  -2  -5    1.14    0.35
   9   2   5    0.50    0.42
 -10  -2  -5    1.33    0.38
  10  -2   5    1.98    0.42
  10   2   5    2.26    0.58
  11  -2   5    6.34    0.63
  11   2   5    6.56    0.81
 -12  -3   5   11.34    0.79
  12   3  -5   11.96    0.93
 -11  -3   5    3.30    0.48
  11   3  -5    3.09    0.54
 -10  -3   5    7.03    0.58
  10   3  -5    7.75    0.71
  -9  -3   5    9.49    0.60
   9   3  -5    9.90    0.75
   8  -3  -5    0.07    0.24
  -8  -3   5    0.24    0.24
   8   3  -5    0.12    0.30
   7  -3  -5   10.71    0.64
  -7  -3   5   10.89    0.57
   7  -3  -5   11.29    0.48
   7   3  -5   11.58    0.70
  -6  -3   5    0.85    0.23
   6  -3  -5    0.99    0.29
  -6  -3   5    1.00    0.19
   6  -3  -5    0.79    0.19
   6   3  -5    0.48    0.27
  -5  -3   5    9.27    0.40
   5  -3  -5    9.25    0.46
  -5  -3   5    9.36    0.48
   5  -3  -5    9.85    0.35
   5  -3  -5    9.85    0.61
   5   3  -5    9.81    0.57
  -4  -3   5   19.61    0.61
   4  -3  -5   19.09    0.51
   4  -3  -5   19.06    0.81
   4  -3  -5   20.33    0.70
  -4  -3   5   18.98    0.66
   4  -3  -5   19.31    0.55
   4   3  -5   18.75    0.75
  -3  -3   5    8.20    0.37
  -3  -3   5    8.42    0.42
   3  -3  -5    8.48    0.46
   3  -3  -5    9.17    0.33
   3  -3  -5    8.38    0.32
   3  -3  -5    8.41    0.54
   3   3  -5    7.91    0.48
   2  -3  -5   12.16    0.44
   2  -3  -5   13.30    0.57
  -2  -3   5   12.49    0.48
   2  -3  -5   12.47    0.41
   2  -3  -5   12.38    0.63
  -2  -3   5   11.61    0.46
   2   3  -5   11.92    0.52
   1  -3  -5   33.54    1.06
  -1  -3   5   37.13    0.98
   1  -3  -5   35.91    0.93
   1  -3  -5   35.74    1.14
  -1  -3   5   35.10    1.05
   1  -3  -5   34.36    1.25
   1  -3  -5   36.21    0.97
  -1  -3   5   34.65    0.96
   1   3  -5   34.31    0.99
  -1   3   5   37.52    0.98
   0  -3  -5    8.06    0.36
   0  -3   5    7.87    0.38
   0  -3  -5    8.52    0.40
   0  -3   5    8.92    0.43
   0  -3  -5    8.64    0.52
   0  -3  -5    9.13    0.62
   0  -3  -5    8.54    0.47
   0  -3   5    8.21    0.38
   0   3  -5    8.46    0.38
   0   3   5    9.28    0.44
   1  -3   5    5.10    0.31
  -1  -3  -5    5.09    0.35
   1  -3   5    5.61    0.34
  -1  -3  -5    5.33    0.33
  -1  -3  -5    5.47    0.40
  -1  -3  -5    5.89    0.44
   1   3   5    5.38    0.39
  -1   3  -5    5.55    0.31
   2  -3   5    1.23    0.19
  -2  -3  -5    1.06    0.21
  -2  -3  -5    0.88    0.20
  -2  -3  -5    0.81    0.25
   2  -3   5    1.63    0.20
  -2  -3  -5    1.10    0.25
   2   3   5    1.39    0.26
  -3  -3  -5    1.39    0.23
  -3  -3  -5    1.06    0.25
   3  -3   5    0.90    0.18
   3  -3   5    0.90    0.17
  -3  -3  -5    1.29    0.29
   3   3   5    1.16    0.28
   4  -3   5   26.89    0.80
  -4  -3  -5   25.75    0.91
  -4  -3  -5   25.46    0.92
  -4  -3  -5   26.58    0.84
   4  -3   5   26.03    0.79
   4   3   5   27.42    1.02
  -5  -3  -5    3.16    0.34
   5  -3   5    2.75    0.26
  -5  -3  -5    2.87    0.36
   5  -3   5    2.48    0.26
  -5  -3  -5    2.75    0.37
   5   3   5    2.11    0.39
  -6  -3  -5   14.12    0.65
   6  -3   5   13.72    0.55
  -6  -3  -5   13.93    0.71
   6   3   5   14.54    0.84
   7  -3   5   10.41    0.53
  -7  -3  -5   10.02    0.65
   7   3   5    9.52    0.77
   8  -3   5   16.20    0.70
  -8  -3  -5   15.83    0.83
   8   3   5   14.63    0.98
  -9  -3  -5    1.41    0.42
   9  -3   5    1.21    0.31
   9   3   5    1.78    0.54
 -10  -3  -5    0.94    0.43
  10  -3   5    0.52    0.30
  10   3   5    0.52    0.50
 -11  -4   5    2.83    0.50
 -10  -4   5    7.20    0.63
  10   4  -5    6.83    0.71
   9  -4  -5    4.34    0.65
  -9  -4   5    4.22    0.50
   9   4  -5    4.56    0.60
   8  -4  -5    6.41    0.73
   8  -4  -5    4.51    0.52
  -8  -4   5    4.20    0.47
   8   4  -5    5.31    0.61
   7  -4  -5    0.04    0.34
   7  -4  -5   -0.03    0.17
  -7  -4   5    0.19    0.25
   7  -4  -5   -0.04    0.27
   7   4  -5   -0.12    0.27
   6  -4  -5    5.07    0.30
  -6  -4   5    5.59    0.46
   6  -4  -5    5.61    0.66
  -6  -4   5    5.04    0.39
   6  -4  -5    5.36    0.57
   6  -4  -5    4.72    0.40
   6   4  -5    5.12    0.54
   5  -4  -5    1.72    0.29
   5  -4  -5    1.07    0.35
   5  -4  -5    1.23    0.41
  -5  -4   5    1.80    0.28
  -5  -4   5    1.76    0.31
   5  -4  -5    1.51    0.19
   5   4  -5    1.21    0.30
  -4  -4   5   13.39    0.61
   4  -4  -5   12.85    0.62
   4  -4  -5   13.13    0.76
   4  -4  -5   12.96    0.86
  -4  -4   5   13.28    0.56
   4  -4  -5   13.64    0.44
   4  -4  -5   13.16    0.47
   4   4  -5   13.77    0.68
  -3  -4   5    4.26    0.38
  -3  -4   5    4.33    0.35
   3  -4  -5    4.44    0.51
   3  -4  -5    4.19    0.28
   3  -4  -5    4.19    0.59
   3  -4  -5    4.10    0.28
   3  -4  -5    4.91    0.44
   3   4  -5    4.00    0.39
   2  -4  -5   49.02    1.74
  -2  -4   5   51.88    1.36
   2  -4  -5   49.29    1.30
   2  -4  -5   50.97    1.48
   2  -4  -5   49.16    1.57
   2  -4  -5   52.53    1.29
  -2  -4   5   47.95    1.36
   2   4  -5   49.65    1.40
  -1  -4   5    4.66    0.36
   1  -4  -5    5.27    0.48
   1  -4  -5    4.38    0.31
   1  -4  -5    4.64    0.49
  -1  -4   5    3.94    0.38
  -1  -4   5    4.54    0.36
   1  -4  -5    4.01    0.33
   1   4  -5    4.53    0.35
   0  -4  -5   29.10    0.85
   0  -4   5   26.22    0.86
   0  -4  -5   27.16    0.99
   0  -4   5   28.29    0.92
   0  -4   5   25.81    0.84
   0  -4  -5   27.70    0.89
   0  -4  -5   25.29    1.03
   0   4   5   28.81    0.90
   0   4  -5   26.53    0.82
  -1  -4  -5    2.66    0.28
  -1  -4  -5    2.62    0.41
  -1  -4  -5    2.75    0.37
   1  -4   5    2.77    0.28
   1  -4   5    2.63    0.29
  -1  -4  -5    2.56    0.36
   1  -4   5    2.73    0.30
   1   4   5    3.38    0.36
   2  -4   5    0.66    0.20
   2  -4   5    0.48    0.18
  -2  -4  -5    0.56    0.27
  -2  -4  -5    0.56    0.21
  -2  -4  -5    0.94    0.32
   2   4   5    0.79    0.26
   3  -4   5   14.99    0.58
  -3  -4  -5   15.49    0.65
  -3  -4  -5   14.86    0.76
  -3  -4  -5   14.58    0.74
   3   4   5   14.99    0.88
  -4  -4  -5    5.21    0.51
   4  -4   5    4.50    0.36
  -4  -4  -5    4.44    0.48
  -4  -4  -5    5.17    0.43
   5  -4   5    0.87    0.19
  -5  -4  -5    1.17    0.34
   5  -4   5    0.84    0.22
  -5  -4  -5    0.54    0.31
  -5  -4  -5    1.13    0.27
   6  -4   5    1.88    0.25
  -6  -4  -5    1.89    0.41
  -6  -4  -5    2.03    0.46
  -6  -4  -5    1.55    0.33
   6  -4   5    2.49    0.30
  -7  -4  -5    7.24    0.59
  -7  -4  -5    6.88    0.66
   7  -4   5    7.57    0.45
  -8  -4  -5    4.25    0.56
   8  -4   5    5.84    0.46
  -8  -4  -5    4.95    0.54
  -9  -4  -5   12.24    0.82
   9  -4   5   13.21    0.67
  -9  -4  -5   13.09    0.88
 -10  -4  -5    2.70    0.56
 -10  -5   5    0.27    0.38
  -9  -5   5    5.76    0.59
   8  -5  -5    0.62    0.26
  -8  -5   5    0.57    0.34
   8  -5  -5    1.04    0.39
   7  -5  -5    1.45    0.41
   7  -5  -5    1.77    0.23
   7  -5  -5    1.64    0.31
  -7  -5   5    1.13    0.36
   6  -5  -5    0.74    0.27
  -6  -5   5    0.62    0.27
   6  -5  -5    0.83    0.36
   6  -5  -5    0.44    0.17
  -6  -5   5    0.53    0.29
   5  -5  -5    5.35    0.33
  -5  -5   5    5.44    0.51
   5  -5  -5    5.37    0.65
   5  -5  -5    5.73    0.27
  -5  -5   5    5.41    0.47
   5  -5  -5    5.52    0.49
  -4  -5   5   15.91    0.70
   4  -5  -5   16.07    0.91
   4  -5  -5   15.69    0.57
   4  -5  -5   15.76    0.54
   4  -5  -5   15.16    0.74
  -4  -5   5   15.50    0.73
  -3  -5   5   47.78    1.38
   3  -5  -5   47.85    1.28
   3  -5  -5   48.28    1.64
   3  -5  -5   46.38    1.48
  -3  -5   5   47.74    1.40
   2  -5  -5    1.93    0.37
   2  -5  -5    2.10    0.26
  -2  -5   5    2.36    0.33
  -2  -5   5    2.86    0.36
   2  -5  -5    2.07    0.43
  -1  -5   5   12.11    0.59
   1  -5  -5   12.23    0.54
   1  -5  -5   11.41    0.70
  -1  -5   5   11.38    0.60
   1  -5  -5   11.65    0.78
   0  -5  -5   38.59    1.33
   0  -5  -5   38.63    1.15
   0  -5  -5   38.32    1.41
   0  -5   5   38.51    1.16
   0  -5   5   38.51    1.19
   1  -5   5    7.10    0.49
  -1  -5  -5    6.81    0.67
  -1  -5  -5    6.64    0.47
   1  -5   5    7.03    0.46
  -1  -5  -5    6.11    0.60
   2  -5   5    0.13    0.21
  -2  -5  -5   -0.08    0.28
   2  -5   5    0.21    0.19
  -2  -5  -5    0.18    0.24
  -2  -5  -5    0.37    0.32
   3  -5   5    6.18    0.43
  -3  -5  -5    6.64    0.51
  -3  -5  -5    6.75    0.64
  -3  -5  -5    6.19    0.59
  -4  -5  -5    7.93    0.68
   4  -5   5    8.62    0.49
  -4  -5  -5    8.59    0.68
  -4  -5  -5    7.95    0.57
  -5  -5  -5    3.27    0.43
  -5  -5  -5    3.51    0.52
  -5  -5  -5    3.12    0.48
   5  -5   5    3.28    0.36
  -6  -5  -5    0.85    0.40
   6  -5   5    0.95    0.25
  -6  -5  -5    0.82    0.34
   6  -5   5    1.04    0.22
  -7  -5  -5    0.24    0.40
   7  -5   5    0.20    0.23
  -7  -5  -5    0.12    0.32
   7  -5   5    0.37    0.20
   8  -5   5    2.02    0.30
  -8  -5  -5    2.20    0.52
  -8  -5  -5    1.34    0.42
  -9  -5  -5   -0.24    0.43
  -9  -6   5    1.42    0.56
  -8  -6   5    2.60    0.48
   8  -6  -5    1.91    0.38
   7  -6  -5    1.42    0.34
   7  -6  -5    0.86    0.42
   7  -6  -5    1.31    0.31
  -7  -6   5    1.87    0.44
   6  -6  -5    0.33    0.20
   6  -6  -5    0.42    0.38
  -6  -6   5    0.78    0.35
   6  -6  -5    0.36    0.28
  -5  -6   5    3.04    0.46
  -5  -6   5    3.48    0.45
   5  -6  -5    3.14    0.59
   5  -6  -5    2.66    0.43
   5  -6  -5    3.06    0.31
  -4  -6   5   11.25    0.68
   4  -6  -5   10.44    0.70
   4  -6  -5    9.90    0.85
  -4  -6   5   10.76    0.66
   4  -6  -5   10.99    0.52
   3  -6  -5    5.99    0.58
   3  -6  -5    6.58    0.43
  -3  -6   5    6.26    0.54
  -3  -6   5    5.80    0.53
   3  -6  -5    5.32    0.69
   2  -6  -5    1.92    0.48
  -2  -6   5    1.64    0.36
  -2  -6   5    1.91    0.35
   2  -6  -5    1.53    0.28
   2  -6  -5    1.36    0.39
   1  -6  -5   11.84    0.76
   1  -6  -5   10.15    0.83
  -1  -6   5   10.48    0.64
   1  -6  -5   11.56    0.58
  -1  -6   5   11.38    0.63
   0  -6  -5    9.23    0.56
   0  -6   5    9.14    0.57
   0  -6  -5   10.47    0.75
   0  -6  -5    9.45    0.85
   0  -6   5    9.84    0.63
  -1  -6  -5    0.80    0.37
  -1  -6  -5    1.44    0.46
   1  -6   5    1.52    0.30
   1  -6   5    1.37    0.34
  -1  -6  -5    0.77    0.28
  -2  -6  -5    0.38    0.37
   2  -6   5    0.29    0.26
  -2  -6  -5    0.90    0.41
  -2  -6  -5    0.65    0.29
   2  -6   5    0.38    0.24
   3  -6   5    4.69    0.44
  -3  -6  -5    2.67    0.53
  -3  -6  -5    3.43    0.44
  -3  -6  -5    3.43    0.55
  -4  -6  -5    1.83    0.47
  -4  -6  -5    1.56    0.37
   4  -6   5    1.07    0.28
  -4  -6  -5    1.66    0.48
  -5  -6  -5    3.17    0.48
  -5  -6  -5    4.30    0.66
  -5  -6  -5    3.40    0.58
   5  -6   5    4.06    0.42
  -6  -6  -5    3.40    0.60
  -6  -6  -5    3.73    0.52
   6  -6   5    4.41    0.44
   6  -6   5    4.35    0.36
   7  -6   5   26.57    0.99
  -7  -6  -5   26.59    1.31
  -7  -6  -5   25.84    1.17
   7  -6   5   25.65    0.86
  -8  -6  -5    3.99    0.68
   7  -7  -5    0.47    0.33
  -6  -7   5   -0.03    0.35
   6  -7  -5    0.13    0.31
   5  -7  -5    7.90    0.87
   5  -7  -5    6.14    0.62
  -5  -7   5    6.73    0.65
   5  -7  -5    7.04    0.47
  -4  -7   5    5.35    0.56
   4  -7  -5    5.40    0.76
   4  -7  -5    5.23    0.59
   4  -7  -5    6.02    0.45
  -4  -7   5    4.84    0.57
  -3  -7   5    4.97    0.55
   3  -7  -5    5.33    0.62
  -3  -7   5    4.41    0.52
   3  -7  -5    4.74    0.44
   3  -7  -5    4.10    0.68
  -2  -7   5    1.45    0.38
  -2  -7   5    1.71    0.38
   2  -7  -5    1.26    0.30
   2  -7  -5    1.62    0.43
   2  -7  -5    1.63    0.53
   1  -7  -5    8.04    0.74
   1  -7  -5    7.35    0.55
   1  -7  -5   11.04    0.95
  -1  -7   5    9.09    0.65
  -1  -7   5    9.34    0.67
   0  -7   5    2.01    0.42
   0  -7  -5    1.39    0.44
   0  -7  -5    0.99    0.50
   0  -7  -5    1.72    0.35
   0  -7   5    1.63    0.36
   1  -7   5    4.26    0.53
  -1  -7  -5    3.89    0.60
   1  -7   5    3.93    0.46
  -1  -7  -5    3.45    0.64
  -1  -7  -5    3.23    0.44
   2  -7   5    3.81    0.49
   2  -7   5    4.32    0.47
  -2  -7  -5    4.09    0.61
  -2  -7  -5    5.17    0.73
  -2  -7  -5    4.20    0.51
  -3  -7  -5    1.52    0.39
  -3  -7  -5    0.99    0.47
  -3  -7  -5    0.58    0.49
   3  -7   5    1.20    0.33
  -4  -7  -5    4.58    0.65
  -4  -7  -5    4.00    0.53
   4  -7   5    3.26    0.41
  -4  -7  -5    3.69    0.63
  -5  -7  -5    3.22    0.64
   5  -7   5    2.93    0.42
  -5  -7  -5    2.42    0.49
   3  -8  -5    0.38    0.28
  -3  -8   5    0.39    0.39
  -2  -8   5    1.79    0.43
   2  -8  -5    1.25    0.32
   1  -8  -5    0.39    0.29
  -1  -8   5    0.07    0.35
   0  -8  -5    0.10    0.31
   0  -8  -5    0.39    0.50
   0  -8   5    0.18    0.36
  -1  -8  -5    1.28    0.37
  -1  -8  -5    1.36    0.54
  -2  -8  -5    2.61    0.47
  -2  -8  -5    4.20    0.71
  12   0  -6    0.76    0.32
  11   0  -6    1.06    0.33
  10   0  -6   13.50    0.70
   9   0  -6    6.42    0.50
   8   0  -6   10.44    0.55
   7   0  -6    0.01    0.18
   7   0  -6    0.37    0.16
   6   0  -6    0.84    0.18
   6   0  -6    0.74    0.19
   5   0  -6    2.88    0.25
   5   0  -6    2.73    0.26
   4   0  -6   24.33    0.73
   4   0  -6   25.07    0.72
  -4   0   6   25.93    0.62
   3   0  -6    0.82    0.15
   3   0  -6    0.68    0.17
   3   0  -6    0.54    0.10
   2   0  -6   26.64    0.74
   2   0  -6   26.07    0.74
   2   0  -6   25.97    0.65
   1   0  -6   68.04    1.55
  -1   0   6   68.38    1.64
   1   0  -6   70.94    1.68
   1   0  -6   73.89    1.69
   0   0   6   47.18    1.15
   0   0  -6   45.34    1.06
   0   0  -6   47.19    1.18
   1   0   6    1.14    0.18
  -1   0  -6    1.09    0.18
  -2   0  -6    0.61    0.18
   2   0   6    0.49    0.16
  -3   0  -6    1.45    0.21
   3   0   6    1.03    0.20
  -4   0  -6    7.56    0.40
   4   0   6    7.00    0.44
   5   0   6   18.60    0.76
  -5   0  -6   19.89    0.66
   7   0   6    1.64    0.36
  -7   0  -6    0.99    0.23
   8   0   6   13.74    0.80
   9   0   6   12.74    0.85
  10   0   6    2.82    0.53
  11   0   6   -0.35    0.36
 -11   0  -6   -0.64    0.35
 -12  -1   6    1.98    0.41
  12  -1  -6    2.74    0.40
  12   1  -6    2.59    0.46
  11  -1  -6   -0.23    0.22
 -11  -1   6   -0.18    0.24
  11   1  -6    0.49    0.33
  10  -1  -6   22.06    0.83
  10   1  -6   22.83    0.98
   9  -1  -6    7.27    0.46
   9   1  -6    7.54    0.58
   8  -1  -6   65.56    1.69
  -8  -1   6   65.87    1.66
   8  -1  -6   67.10    1.71
   8   1  -6   66.25    1.85
   7  -1  -6    5.76    0.37
   7  -1  -6    6.41    0.41
  -7  -1   6    6.51    0.35
   7   1  -6    5.56    0.46
   7   1  -6    5.68    0.29
   6  -1  -6    9.50    0.40
  -6  -1   6    9.34    0.39
   6  -1  -6    9.98    0.49
   6   1  -6    9.33    0.37
   6   1  -6    8.88    0.50
  -6   1   6    9.29    0.31
  -5  -1   6    1.39    0.17
   5  -1  -6    1.41    0.17
   5  -1  -6    1.56    0.13
   5  -1  -6    1.05    0.23
   5   1  -6    1.38    0.24
  -5   1   6    1.61    0.15
  -5   1   6    1.41    0.21
   5   1  -6    1.35    0.18
   4  -1  -6    0.19    0.17
  -4  -1   6    0.49    0.13
   4  -1  -6    0.52    0.13
   4  -1  -6    0.62    0.13
  -4   1   6    0.45    0.10
  -4   1   6    0.68    0.08
   4   1  -6    0.61    0.16
  -4   1   6    0.47    0.11
   4   1  -6    0.52    0.18
  -3  -1   6   49.25    1.17
   3  -1  -6   49.54    1.21
   3  -1  -6   49.20    1.30
   3  -1  -6   48.75    1.21
   3   1  -6   50.77    1.29
   3   1  -6   48.58    1.13
   3   1  -6   52.80    1.25
  -3   1   6   49.46    1.18
  -3   1   6   48.50    1.16
   2  -1  -6  116.82    2.65
   2  -1  -6  113.65    2.57
  -2  -1   6  110.34    2.51
   2   1  -6  112.44    2.51
  -2   1   6  109.69    2.54
   2   1  -6  111.92    2.62
   2   1  -6  118.19    2.61
   2   1  -6  113.26    2.51
   1  -1  -6   11.35    0.46
  -1  -1   6   11.07    0.34
   1  -1  -6   11.55    0.39
   1  -1  -6   11.94    0.42
   1  -1  -6   11.53    0.30
  -1   1   6   11.01    0.41
   1   1  -6   11.31    0.35
   1   1  -6   11.06    0.43
   0  -1  -6    3.37    0.25
   0  -1   6    3.21    0.18
   0  -1   6    2.78    0.24
   0  -1  -6    3.00    0.24
   0  -1  -6    3.13    0.28
   0   1   6    3.07    0.26
   0   1  -6    3.12    0.26
   1  -1   6   10.39    0.33
  -1  -1  -6   10.64    0.44
  -1  -1  -6   10.48    0.40
   1  -1   6    9.52    0.39
  -1  -1  -6   10.00    0.41
   1   1   6   10.73    0.45
  -2  -1  -6   31.04    0.86
  -2  -1  -6   30.99    0.87
   2  -1   6   28.50    0.84
   2  -1   6   30.15    0.84
   2  -1   6   31.06    0.78
   2   1   6   30.61    0.91
   3  -1   6    4.30    0.31
  -3  -1  -6    4.80    0.32
  -3  -1  -6    4.63    0.32
  -3  -1  -6    4.39    0.34
   3   1   6    3.92    0.35
  -4  -1  -6    9.62    0.44
   4  -1   6    9.29    0.46
  -4  -1  -6    9.79    0.47
   4   1   6   10.32    0.55
   5  -1   6   55.08    1.49
  -5  -1  -6   57.31    1.44
  -5  -1  -6   54.70    1.49
  -5   1  -6   56.31    1.43
   5   1   6   54.61    1.60
   6  -1   6    5.28    0.44
  -6  -1  -6    5.30    0.43
  -6  -1  -6    4.68    0.35
  -6   1  -6    5.51    0.37
   6   1   6    5.83    0.53
   7  -1   6    3.84    0.43
  -7  -1  -6    4.09    0.42
   7   1   6    4.40    0.51
  -7   1  -6    3.18    0.33
   8  -1   6    0.57    0.31
  -8  -1  -6    0.98    0.31
   8   1   6    0.94    0.39
   9  -1   6    8.45    0.67
  -9  -1  -6    7.71    0.62
   9   1   6    7.98    0.75
 -10  -1  -6    6.12    0.60
  10  -1   6    7.83    0.70
  10   1   6    7.70    0.76
 -11  -1  -6    2.01    0.48
  11  -1   6    3.15    0.54
  11   1   6    2.77    0.60
  12  -2  -6    1.70    0.30
 -12  -2   6    1.82    0.41
  12   2  -6    1.12    0.42
  11  -2  -6    0.93    0.24
 -11  -2   6    0.52    0.31
  11   2  -6    1.33    0.41
  10  -2  -6    5.34    0.38
 -10  -2   6    5.15    0.47
  10   2  -6    5.62    0.59
  -9  -2   6   10.07    0.55
   9  -2  -6   11.08    0.46
   9   2  -6   10.91    0.73
   8  -2  -6    1.17    0.27
  -8  -2   6    1.34    0.26
   8  -2  -6    1.50    0.20
   8   2  -6    1.29    0.33
   7  -2  -6    5.05    0.28
   7  -2  -6    4.82    0.44
  -7  -2   6    5.52    0.38
   7   2  -6    4.86    0.47
   7   2  -6    4.92    0.30
   6  -2  -6    1.82    0.19
   6  -2  -6    1.94    0.18
  -6  -2   6    1.92    0.25
   6  -2  -6    1.82    0.31
   6   2  -6    2.09    0.31
   6   2  -6    1.70    0.21
   5  -2  -6    4.35    0.24
   5  -2  -6    4.50    0.29
   5  -2  -6    4.59    0.43
  -5  -2   6    3.84    0.30
   5   2  -6    4.28    0.30
   5   2  -6    4.07    0.38
   4  -2  -6   11.63    0.57
   4  -2  -6   11.31    0.46
  -4  -2   6   11.18    0.43
  -4   2   6   11.48    0.35
   4   2  -6   11.14    0.37
   4   2  -6   11.07    0.54
   3  -2  -6    7.80    0.46
   3  -2  -6    7.69    0.39
   3  -2  -6    7.35    0.23
   3  -2  -6    7.47    0.29
  -3  -2   6    6.94    0.33
  -3   2   6    8.05    0.26
   3   2  -6    5.94    0.34
   3   2  -6    7.63    0.42
   2  -2  -6    3.82    0.32
   2  -2  -6    3.46    0.22
   2  -2  -6    3.48    0.17
  -2  -2   6    3.59    0.24
   2  -2  -6    3.26    0.34
  -2   2   6    2.92    0.24
  -2   2   6    3.79    0.16
   2   2  -6    3.87    0.31
   1  -2  -6   10.27    0.33
   1  -2  -6   10.52    0.50
  -1  -2   6    9.99    0.37
   1  -2  -6    9.69    0.45
  -1  -2   6    9.89    0.45
   1  -2  -6   10.06    0.39
   1   2  -6   10.23    0.43
  -1   2   6    9.54    0.40
   0  -2   6    5.34    0.26
   0  -2   6    5.13    0.32
   0  -2  -6    4.55    0.29
   0  -2  -6    5.50    0.38
   0  -2  -6    5.33    0.25
   0  -2  -6    4.99    0.34
   0   2   6    5.56    0.34
   0   2  -6    4.95    0.30
   1  -2   6   42.98    1.14
  -1  -2  -6   41.27    1.20
   1  -2   6   43.20    1.07
  -1  -2  -6   42.30    1.17
  -1  -2  -6   43.39    1.15
  -1  -2  -6   43.69    1.07
   1   2   6   42.88    1.19
   2  -2   6   13.80    0.51
  -2  -2  -6   13.98    0.66
  -2  -2  -6   13.39    0.55
   2  -2   6   13.64    0.46
  -2  -2  -6   13.71    0.58
   2   2   6   14.16    0.60
   3  -2   6    0.67    0.14
  -3  -2  -6    0.54    0.19
   3  -2   6    0.63    0.15
   3  -2   6    0.43    0.15
  -3  -2  -6    0.52    0.20
   3   2   6    0.67    0.24
   4  -2   6    1.79    0.21
   4  -2   6    1.72    0.22
   4  -2   6    1.12    0.17
  -4  -2  -6    1.42    0.26
  -4  -2  -6    1.68    0.28
   4   2   6    1.57    0.31
  -5  -2  -6   15.38    0.63
  -5  -2  -6   15.57    0.67
   5  -2   6   15.87    0.61
   5   2   6   16.62    0.81
  -6  -2  -6    9.30    0.56
  -6  -2  -6    9.66    0.51
   6  -2   6   10.26    0.53
   6   2   6    9.86    0.71
  -7  -2  -6    3.05    0.41
   7  -2   6    3.39    0.38
   7   2   6    3.57    0.51
  -8  -2  -6    1.02    0.34
   8  -2   6    0.19    0.26
   8   2   6    1.71    0.45
  -9  -2  -6    6.55    0.61
   9  -2   6    6.33    0.59
   9   2   6    6.96    0.74
 -10  -2  -6   16.48    0.91
  10  -2   6   15.59    0.89
  10   2   6   17.20    1.11
 -11  -2  -6    4.74    0.63
  11   2   6    5.64    0.81
 -12  -3   6    6.22    0.63
  12   3  -6    6.15    0.72
 -11  -3   6    3.74    0.50
  11   3  -6    4.31    0.59
 -10  -3   6   10.81    0.67
  10   3  -6   11.41    0.83
  -9  -3   6    0.71    0.30
   9   3  -6    0.72    0.34
   8  -3  -6    2.90    0.40
  -8  -3   6    2.47    0.36
   8   3  -6    3.29    0.46
   7  -3  -6    1.48    0.35
  -7  -3   6    1.48    0.29
   7  -3  -6    1.54    0.23
   7   3  -6    1.80    0.37
   7   3  -6    1.15    0.22
  -6  -3   6    5.62    0.28
   6  -3  -6    5.00    0.51
  -6  -3   6    5.64    0.41
   6  -3  -6    5.19    0.35
   6   3  -6    5.43    0.50
   5  -3  -6    5.67    0.25
  -5  -3   6    5.88    0.31
  -5  -3   6    5.51    0.38
   5  -3  -6    5.70    0.38
   5  -3  -6    5.92    0.52
   5   3  -6    6.58    0.50
  -4  -3   6    1.36    0.19
   4  -3  -6    1.30    0.30
   4  -3  -6    1.15    0.13
   4  -3  -6    1.11    0.13
   4  -3  -6    1.39    0.25
  -4  -3   6    1.10    0.21
   4   3  -6    0.80    0.24
  -3  -3   6   13.69    0.47
   3  -3  -6   14.64    0.60
   3  -3  -6   11.95    0.43
   3  -3  -6   15.33    0.70
   3  -3  -6   11.86    0.40
   3   3  -6   12.98    0.59
   2  -3  -6    0.20    0.23
   2  -3  -6    0.17    0.20
   2  -3  -6    0.05    0.11
  -2  -3   6    0.31    0.14
  -2  -3   6    0.09    0.14
   2  -3  -6    0.49    0.14
   2   3  -6    0.23    0.16
   1  -3  -6    5.49    0.29
  -1  -3   6    5.21    0.32
   1  -3  -6    5.31    0.32
   1  -3  -6    5.37    0.41
  -1  -3   6    5.12    0.37
   1  -3  -6    5.37    0.46
   1   3  -6    4.77    0.33
  -1   3   6    5.24    0.34
   0  -3  -6   99.91    2.46
   0  -3  -6   97.56    2.66
   0  -3  -6  100.18    2.28
   0  -3   6   98.50    2.40
   0  -3  -6   98.91    2.36
   0  -3   6   99.14    2.31
   0  -3  -6   95.79    2.51
   0   3  -6   95.40    2.33
   0   3   6   98.91    2.39
  -1  -3  -6    5.61    0.42
   1  -3   6    6.09    0.37
  -1  -3  -6    6.25    0.48
   1  -3   6    6.36    0.34
  -1  -3  -6    6.58    0.59
  -1  -3  -6    6.61    0.40
  -1  -3  -6    6.54    0.36
   1   3   6    6.48    0.43
  -1   3  -6    6.26    0.34
   2  -3   6   22.24    0.69
  -2  -3  -6   22.70    0.71
   2  -3   6   20.94    0.72
  -2  -3  -6   22.92    0.82
  -2  -3  -6   22.11    0.82
  -2  -3  -6   22.95    0.86
   2   3   6   21.99    0.83
   3  -3   6   11.47    0.50
  -3  -3  -6   13.16    0.62
   3  -3   6   12.26    0.49
  -3  -3  -6   13.16    0.64
  -3  -3  -6   12.49    0.53
   3   3   6   12.54    0.66
   4  -3   6    1.31    0.22
  -4  -3  -6    1.03    0.28
  -4  -3  -6    1.57    0.25
   4  -3   6    1.46    0.21
  -4  -3  -6    1.31    0.32
   4   3   6    1.59    0.33
  -5  -3  -6    5.18    0.46
   5  -3   6    4.63    0.35
   5  -3   6    4.85    0.36
  -5  -3  -6    5.03    0.49
   5   3   6    5.32    0.54
  -6  -3  -6    5.55    0.52
   6  -3   6    6.22    0.42
  -6  -3  -6    6.79    0.50
   6   3   6    5.61    0.58
  -7  -3  -6    2.29    0.41
   7  -3   6    2.22    0.32
   7   3   6    3.19    0.53
   8  -3   6   18.08    0.79
  -8  -3  -6   19.21    0.92
   8   3   6   18.87    1.09
   9  -3   6    1.98    0.38
  -9  -3  -6    1.98    0.45
   9   3   6    3.06    0.75
  10  -3   6    3.97    0.48
 -10  -3  -6    3.90    0.60
 -11  -4   6    3.71    0.54
  10  -4  -6   15.56    1.19
 -10  -4   6   16.32    0.86
  10   4  -6   16.34    1.00
   9  -4  -6   11.82    0.94
  -9  -4   6   12.32    0.73
   9  -4  -6   13.02    0.77
   9   4  -6   10.85    0.82
  -8  -4   6    2.59    0.40
   8  -4  -6    4.14    0.63
   8  -4  -6    2.73    0.32
   8  -4  -6    3.15    0.47
   8   4  -6    2.66    0.48
  -7  -4   6    2.14    0.34
   7  -4  -6    1.73    0.41
   7  -4  -6    1.91    0.48
   7  -4  -6    2.05    0.29
   7   4  -6    1.81    0.38
  -6  -4   6    2.87    0.37
   6  -4  -6    2.28    0.43
   6  -4  -6    2.70    0.33
   6  -4  -6    3.30    0.24
   6  -4  -6    2.87    0.52
  -6  -4   6    2.50    0.36
   6   4  -6    2.70    0.42
   5  -4  -6    7.25    0.61
   5  -4  -6    7.18    0.28
   5  -4  -6    7.05    0.32
  -5  -4   6    7.02    0.40
   5  -4  -6    6.57    0.46
  -5  -4   6    7.18    0.48
   5  -4  -6    6.64    0.73
   5   4  -6    6.82    0.55
   4  -4  -6    1.06    0.41
   4  -4  -6    1.54    0.30
  -4  -4   6    1.34    0.27
   4  -4  -6    1.18    0.35
   4  -4  -6    1.43    0.17
   4  -4  -6    1.74    0.18
  -4  -4   6    1.60    0.25
   4   4  -6    1.22    0.28
   3  -4  -6    1.94    0.21
   3  -4  -6    1.67    0.20
  -3  -4   6    1.73    0.26
   3  -4  -6    1.93    0.40
   3  -4  -6    1.60    0.43
  -3  -4   6    1.62    0.26
   3  -4  -6    1.87    0.32
   3   4  -6    1.97    0.31
   2  -4  -6   75.84    2.37
   2  -4  -6   75.69    2.08
  -2  -4   6   78.75    1.97
   2  -4  -6   78.99    2.22
   2  -4  -6   78.57    1.90
   2  -4  -6   77.30    1.86
  -2  -4   6   78.08    1.94
   2   4  -6   78.01    2.01
  -1  -4   6   38.92    1.10
  -1  -4   6   37.84    1.09
   1  -4  -6   38.40    1.25
   1  -4  -6   37.55    1.48
   1  -4  -6   36.62    1.31
   1  -4  -6   39.12    1.05
   1  -4  -6   38.31    1.09
   1   4  -6   37.74    1.11
   0  -4  -6   68.34    1.69
   0  -4   6   67.01    1.72
   0  -4   6   67.96    1.71
   0  -4  -6   66.50    1.87
   0  -4  -6   65.11    1.94
   1  -4   6   11.52    0.52
  -1  -4  -6   11.68    0.70
  -1  -4  -6   12.21    0.68
  -1  -4  -6   12.75    0.54
   2  -4   6    4.68    0.36
  -2  -4  -6    4.65    0.39
  -2  -4  -6    5.02    0.52
  -2  -4  -6    3.84    0.46
   3  -4   6    4.48    0.35
  -3  -4  -6    5.56    0.44
  -3  -4  -6    4.32    0.49
  -3  -4  -6    5.74    0.56
  -4  -4  -6    7.49    0.62
  -4  -4  -6    7.25    0.49
  -4  -4  -6    7.03    0.58
   4  -4   6    7.39    0.43
   5  -4   6    9.40    0.48
  -5  -4  -6   11.90    0.70
  -5  -4  -6    9.81    0.68
   5  -4   6    9.04    0.49
  -5  -4  -6   10.31    0.59
  -6  -4  -6    1.30    0.33
   6  -4   6    1.49    0.26
  -6  -4  -6    2.01    0.42
   6  -4   6    1.73    0.28
   7  -4   6    1.55    0.28
  -7  -4  -6    1.66    0.43
  -7  -4  -6    1.69    0.37
   8  -4   6    5.64    0.48
  -8  -4  -6    4.60    0.59
  -8  -4  -6    5.60    0.57
  -9  -4  -6    1.66    0.44
  -9  -4  -6    1.26    0.47
   9  -4   6    1.37    0.34
 -10  -4  -6    7.56    0.79
 -10  -5   6    2.76    0.48
  -9  -5   6    5.14    0.58
  -8  -5   6    0.24    0.32
   8  -5  -6    0.35    0.25
   8  -5  -6    0.78    0.38
   7  -5  -6    1.32    0.30
   7  -5  -6    0.83    0.49
   7  -5  -6    1.79    0.26
   7  -5  -6    1.72    0.44
  -7  -5   6    2.02    0.39
   6  -5  -6    2.40    0.35
   6  -5  -6    2.39    0.49
  -6  -5   6    2.68    0.42
   6  -5  -6    2.22    0.24
   6  -5  -6    2.64    0.60
   5  -5  -6    3.55    0.43
   5  -5  -6    3.01    0.59
   5  -5  -6    3.38    0.24
  -5  -5   6    3.70    0.38
  -5  -5   6    4.03    0.44
   5  -5  -6    3.60    0.29
   5  -5  -6    3.14    0.51
  -4  -5   6    1.05    0.28
   4  -5  -6    1.15    0.30
  -4  -5   6    1.81    0.32
   4  -5  -6    1.81    0.45
   4  -5  -6    1.49    0.21
   3  -5  -6   31.58    1.13
   3  -5  -6   29.15    1.24
  -3  -5   6   29.42    1.02
   3  -5  -6   29.49    0.89
  -3  -5   6   30.71    1.00
  -2  -5   6    2.06    0.32
   2  -5  -6    1.75    0.43
  -2  -5   6    1.77    0.31
   2  -5  -6    2.02    0.25
   2  -5  -6    1.74    0.38
  -1  -5   6   85.60    2.16
  -1  -5   6   83.61    2.17
   1  -5  -6   84.68    2.48
   1  -5  -6   85.18    2.35
   1  -5  -6   83.93    2.10
   0  -5  -6   11.54    0.79
   0  -5  -6   10.91    0.54
   0  -5   6   11.54    0.58
   0  -5   6   10.02    0.54
   0  -5  -6    9.97    0.69
  -1  -5  -6   11.85    0.80
  -1  -5  -6   10.80    0.57
   1  -5   6   11.41    0.57
  -1  -5  -6   10.70    0.73
  -2  -5  -6    1.14    0.37
   2  -5   6    0.87    0.24
  -2  -5  -6    1.36    0.29
  -2  -5  -6    1.40    0.42
  -3  -5  -6    3.11    0.48
  -3  -5  -6    3.80    0.42
  -3  -5  -6    3.35    0.52
   3  -5   6    3.55    0.36
  -4  -5  -6    3.90    0.54
   4  -5   6    3.56    0.37
  -4  -5  -6    2.56    0.49
  -4  -5  -6    3.78    0.43
  -5  -5  -6    1.17    0.39
  -5  -5  -6    0.92    0.41
  -5  -5  -6    1.37    0.36
   5  -5   6    1.06    0.26
   6  -5   6    0.21    0.19
  -6  -5  -6    0.45    0.39
   6  -5   6    0.35    0.23
  -6  -5  -6    0.21    0.31
   7  -5   6    0.66    0.27
  -7  -5  -6    1.17    0.46
  -7  -5  -6    0.96    0.37
   7  -5   6    1.58    0.28
  -8  -5  -6    9.44    0.87
  -8  -5  -6   11.54    0.81
   8  -5   6   11.80    0.61
  -9  -5  -6    3.37    0.64
  -8  -6   6    0.49    0.38
   8  -6  -6    0.12    0.30
   7  -6  -6    3.59    0.60
  -7  -6   6    3.32    0.50
   7  -6  -6    2.88    0.42
   6  -6  -6    1.28    0.47
   6  -6  -6    0.90    0.32
  -6  -6   6    2.12    0.41
   5  -6  -6    3.03    0.44
   5  -6  -6    2.74    0.55
   5  -6  -6    2.53    0.27
  -5  -6   6    3.01    0.46
  -5  -6   6    2.41    0.42
  -4  -6   6    8.22    0.62
   4  -6  -6    6.87    0.61
   4  -6  -6    7.29    0.42
  -4  -6   6    6.97    0.57
   4  -6  -6    8.45    0.84
   3  -6  -6    1.56    0.25
   3  -6  -6    1.43    0.47
  -3  -6   6    1.36    0.33
   3  -6  -6    1.87    0.41
  -3  -6   6    1.88    0.37
  -2  -6   6    2.01    0.36
  -2  -6   6    2.52    0.38
   2  -6  -6    1.97    0.28
   2  -6  -6    1.92    0.49
   2  -6  -6    1.06    0.39
   1  -6  -6    5.36    0.44
   1  -6  -6    4.47    0.57
  -1  -6   6    3.59    0.41
  -1  -6   6    5.31    0.50
   1  -6  -6    4.56    0.64
   0  -6  -6    1.08    0.39
   0  -6   6    0.91    0.29
   0  -6   6    0.73    0.30
   0  -6  -6    1.01    0.43
   0  -6  -6    1.14    0.29
  -1  -6  -6   14.09    0.93
  -1  -6  -6   12.94    0.67
   1  -6   6   12.79    0.69
   1  -6   6   13.03    0.67
  -1  -6  -6   12.49    0.84
  -2  -6  -6   12.75    0.70
  -2  -6  -6   13.58    0.92
  -2  -6  -6   13.12    0.86
   2  -6   6   13.15    0.66
  -3  -6  -6    2.15    0.38
  -3  -6  -6    3.14    0.57
   3  -6   6    1.99    0.33
  -3  -6  -6    2.51    0.52
  -4  -6  -6    1.42    0.48
  -4  -6  -6    2.93    0.54
  -4  -6  -6    2.16    0.40
   4  -6   6    2.80    0.36
   5  -6   6    2.96    0.39
  -5  -6  -6    2.95    0.46
  -5  -6  -6    1.90    0.53
  -6  -6  -6    0.52    0.37
  -6  -6  -6   -0.08    0.43
   6  -6   6    0.61    0.23
   6  -6   6    0.35    0.26
  -7  -6  -6    1.29    0.45
  -7  -6  -6    1.13    0.52
   7  -7  -6    4.33    0.53
  -6  -7   6    2.99    0.49
   6  -7  -6    3.37    0.63
   6  -7  -6    3.16    0.48
   5  -7  -6    0.26    0.35
   5  -7  -6    0.06    0.39
  -5  -7   6   -0.04    0.35
  -4  -7   6    7.91    0.66
   4  -7  -6    7.23    0.86
  -4  -7   6    7.62    0.66
   4  -7  -6    8.98    0.73
  -3  -7   6    2.63    0.44
   3  -7  -6    2.73    0.35
  -3  -7   6    2.45    0.43
   3  -7  -6    3.44    0.66
   3  -7  -6    2.55    0.48
   2  -7  -6    2.08    0.58
   2  -7  -6    2.59    0.35
  -2  -7   6    2.09    0.41
  -2  -7   6    3.00    0.45
   2  -7  -6    2.69    0.50
   1  -7  -6    1.24    0.31
   1  -7  -6    1.60    0.47
  -1  -7   6    1.51    0.38
   1  -7  -6    0.66    0.46
  -1  -7   6    0.59    0.32
   0  -7  -6    1.11    0.32
   0  -7  -6    1.76    0.57
   0  -7  -6    1.95    0.49
   0  -7   6    0.71    0.32
   0  -7   6    1.03    0.36
   1  -7   6    4.63    0.53
  -1  -7  -6    3.60    0.45
  -1  -7  -6    4.30    0.70
  -1  -7  -6    4.33    0.65
   1  -7   6    4.23    0.46
  -2  -7  -6    1.74    0.50
  -2  -7  -6    2.26    0.59
   2  -7   6    1.71    0.34
  -2  -7  -6    2.21    0.42
  -3  -7  -6    2.88    0.45
  -3  -7  -6    2.91    0.59
  -3  -7  -6    1.65    0.55
   3  -7   6    2.92    0.41
   4  -7   6    3.32    0.42
  -4  -7  -6    2.44    0.56
  -4  -7  -6    2.40    0.47
  -4  -7  -6    3.34    0.64
  -5  -7  -6    1.01    0.42
  -3  -8   6    0.12    0.38
  -2  -8   6   -0.04    0.36
  -1  -8   6    0.52    0.40
   1  -8  -6    0.31    0.30
   0  -8   6    3.88    0.70
   0  -8  -6    2.79    0.43
  -1  -8  -6    0.20    0.32
  -2  -8  -6    0.29    0.41
  12   0  -7   -0.40    0.26
  11   0  -7   -0.38    0.25
  10   0  -7   14.72    0.73
   9   0  -7    2.65    0.35
   8   0  -7    5.00    0.43
   8   0  -7    4.91    0.41
   7   0  -7   13.50    0.54
   7   0  -7   14.76    0.61
   6   0  -7   10.77    0.49
   6   0  -7   10.28    0.46
   5   0  -7    0.69    0.19
   5   0  -7    0.66    0.17
  -5   0   7    0.72    0.11
   4   0  -7    0.55    0.16
   4   0  -7    0.32    0.17
  -4   0   7    0.42    0.08
   3   0  -7    2.17    0.22
   3   0  -7    2.14    0.24
   3   0  -7    2.20    0.17
   2   0  -7   16.13    0.57
   2   0  -7   16.26    0.55
   2   0  -7   16.82    0.48
   1   0  -7   11.86    0.32
  -1   0   7   12.56    0.44
   1   0  -7   12.15    0.48
   0   0  -7  148.04    3.31
   0   0  -7  141.01    3.17
   0   0   7  145.96    3.28
   1   0   7    6.88    0.37
  -1   0  -7    7.43    0.38
   2   0   7   44.54    1.20
  -2   0  -7   45.14    1.20
   3   0   7    0.50    0.20
  -3   0  -7    0.50    0.20
   4   0   7    9.72    0.53
  -4   0  -7   10.35    0.48
   5   0   7   27.98    0.98
  -5   0  -7   28.85    0.88
  -6   0  -7    0.68    0.24
   6   0   7    0.79    0.30
   7   0   7    2.79    0.44
  -7   0  -7    3.57    0.35
   8   0   7    5.32    0.59
   9   0   7    6.69    0.69
 -10   0  -7    2.95    0.51
  10   0   7    3.34    0.56
  11   0   7   -0.14    0.40
 -11   0  -7   -0.63    0.39
  12  -1  -7    1.51    0.34
  12   1  -7    1.75    0.43
  11  -1  -7    0.19    0.23
 -11  -1   7    0.44    0.35
  11   1  -7   -0.29    0.29
 -10  -1   7    1.24    0.27
  10  -1  -7    0.85    0.26
  10   1  -7    0.99    0.34
  -9  -1   7    1.21    0.24
   9  -1  -7    1.13    0.25
   9   1  -7    0.91    0.30
   8  -1  -7   35.68    1.10
   8  -1  -7   36.21    1.05
  -8  -1   7   35.92    1.03
   8   1  -7   36.80    1.20
   7  -1  -7   30.57    0.88
  -7  -1   7   29.36    0.84
   7  -1  -7   30.07    0.96
   7   1  -7   28.74    1.00
   7   1  -7   28.29    0.82
   6  -1  -7    2.45    0.24
   6  -1  -7    2.07    0.30
  -6  -1   7    1.91    0.21
   6   1  -7    2.22    0.24
   6   1  -7    1.81    0.28
   5  -1  -7   13.83    0.40
   5  -1  -7   13.84    0.58
   5  -1  -7   13.24    0.48
  -5  -1   7   12.88    0.44
   5   1  -7   12.06    0.55
   5   1  -7   13.28    0.50
  -5   1   7   12.69    0.38
  -5   1   7   14.16    0.36
   4  -1  -7    5.94    0.31
  -4  -1   7    6.26    0.27
   4  -1  -7    6.01    0.40
   4  -1  -7    6.22    0.29
  -4   1   7    6.47    0.28
  -4   1   7    5.85    0.24
   4   1  -7    6.64    0.38
   4   1  -7    6.17    0.35
  -3  -1   7  113.66    2.54
   3  -1  -7  111.93    2.61
   3  -1  -7  113.49    2.60
   3  -1  -7  111.58    2.70
   3   1  -7  113.29    2.52
  -3   1   7  113.99    2.57
   3   1  -7  112.73    2.67
   3   1  -7  120.57    2.66
   2  -1  -7   18.24    0.57
   2  -1  -7   19.49    0.65
  -2  -1   7   17.51    0.48
   2   1  -7   18.23    0.61
   2   1  -7   17.76    0.50
   2   1  -7   18.45    0.61
  -2   1   7   17.95    0.55
   1  -1  -7   54.53    1.21
   1  -1  -7   53.33    1.19
   1  -1  -7   54.83    1.35
  -1  -1   7   53.50    1.25
   1  -1  -7   54.85    1.42
   1   1  -7   58.04    1.40
   1   1  -7   53.16    1.38
  -1   1   7   53.77    1.35
   0  -1   7   95.87    2.21
   0  -1  -7   98.03    2.32
   0  -1  -7   98.73    2.37
   0   1   7   99.25    2.34
   0   1  -7  105.50    2.36
  -1  -1  -7   24.30    0.75
   1  -1   7   22.08    0.70
   1  -1   7   23.46    0.62
  -1  -1  -7   23.58    0.72
   1  -1   7   22.78    0.69
   1   1   7   23.34    0.74
  -2  -1  -7    8.09    0.42
   2  -1   7    7.03    0.36
  -2  -1  -7    8.01    0.40
   2  -1   7    8.36    0.39
   2   1   7    8.26    0.45
   3  -1   7    3.37    0.29
   3  -1   7    2.57    0.25
  -3  -1  -7    3.27    0.31
  -3  -1  -7    2.89    0.30
  -3   1  -7    3.03    0.32
   3   1   7    2.89    0.33
  -4  -1  -7   13.55    0.54
  -4  -1  -7   12.07    0.56
   4  -1   7   13.30    0.57
   4   1   7   13.06    0.66
  -4   1  -7   12.31    0.54
   5  -1   7   21.56    0.80
  -5  -1  -7   22.76    0.81
  -5  -1  -7   21.50    0.75
  -5   1  -7   22.39    0.76
   5   1   7   22.34    0.91
  -6  -1  -7    1.86    0.28
   6  -1   7    1.34    0.29
  -6  -1  -7    1.39    0.30
   6   1   7    2.22    0.40
  -6   1  -7    1.23    0.27
   7  -1   7    1.46    0.34
  -7  -1  -7    0.74    0.30
   7   1   7    1.11    0.38
  -7   1  -7    0.54    0.26
  -8  -1  -7    1.12    0.35
   8  -1   7    1.16    0.37
   8   1   7    1.47    0.43
   9  -1   7    1.70    0.42
  -9  -1  -7    1.70    0.41
   9   1   7    2.43    0.52
 -10  -1  -7    4.49    0.58
  10  -1   7    5.19    0.62
  10   1   7    6.62    0.76
 -11  -1  -7    0.72    0.45
  11   1   7    1.17    0.53
  12  -2  -7    0.40    0.23
  12   2  -7    0.27    0.37
  11  -2  -7    8.13    0.47
 -11  -2   7    8.61    0.60
  11   2  -7    9.91    0.76
 -10  -2   7    8.44    0.56
  10  -2  -7    9.78    0.47
  10   2  -7   11.11    0.75
   9  -2  -7   36.04    0.99
  -9  -2   7   34.14    1.08
   9   2  -7   34.93    1.28
   8  -2  -7   20.79    0.84
  -8  -2   7   19.52    0.74
   8  -2  -7   21.38    0.66
   8   2  -7   20.84    0.91
   7  -2  -7   13.35    0.68
   7  -2  -7   14.54    0.50
  -7  -2   7   14.24    0.58
   7   2  -7   14.32    0.72
   7   2  -7   14.03    0.51
  -6  -2   7    2.47    0.27
   6  -2  -7    2.37    0.36
   6  -2  -7    2.48    0.22
   6  -2  -7    2.49    0.22
   6   2  -7    2.21    0.25
   6   2  -7    2.92    0.38
   5  -2  -7    5.05    0.30
  -5  -2   7    4.54    0.31
   5  -2  -7    4.55    0.28
   5  -2  -7    4.39    0.43
   5   2  -7    4.60    0.35
   5   2  -7    4.32    0.40
   4  -2  -7   21.84    0.83
   4  -2  -7   21.74    0.70
  -4  -2   7   21.29    0.66
  -4   2   7   21.99    0.55
   4   2  -7   21.37    0.60
   4   2  -7   21.44    0.78
   3  -2  -7   61.01    1.54
   3  -2  -7   60.09    1.65
  -3  -2   7   58.46    1.46
   3  -2  -7   60.36    1.33
  -3   2   7   61.22    1.34
   3   2  -7   59.50    1.58
   2  -2  -7   38.97    1.07
   2  -2  -7   37.45    1.14
  -2  -2   7   37.17    0.96
   2  -2  -7   37.97    0.87
   2  -2  -7   36.89    0.97
   2   2  -7   37.46    1.07
  -2   2   7   37.70    1.00
   1  -2  -7    9.19    0.38
   1  -2  -7    8.75    0.49
   1  -2  -7    9.49    0.31
   1  -2  -7    8.94    0.45
  -1  -2   7    8.87    0.35
   1   2  -7    9.11    0.42
  -1   2   7    9.21    0.41
   0  -2  -7    9.24    0.34
   0  -2  -7    8.40    0.44
   0  -2  -7    8.56    0.48
   0  -2   7    9.56    0.36
   0  -2  -7    8.94    0.40
   0  -2   7    9.73    0.43
   0   2  -7    9.24    0.42
   0   2   7    8.90    0.44
   1  -2   7   13.84    0.46
  -1  -2  -7   13.94    0.57
  -1  -2  -7   13.88    0.60
   1  -2   7   14.64    0.55
  -1  -2  -7   14.15    0.46
   1   2   7   14.40    0.59
   2  -2   7   17.11    0.61
  -2  -2  -7   17.54    0.69
  -2  -2  -7   18.85    0.79
   2  -2   7   17.30    0.55
  -2  -2  -7   17.61    0.66
   2   2   7   17.81    0.71
  -3  -2  -7    1.08    0.25
   3  -2   7    0.99    0.17
   3  -2   7    0.68    0.15
  -3  -2  -7    0.99    0.23
   3  -2   7    0.62    0.18
   3   2   7    1.09    0.25
  -4  -2  -7    2.40    0.32
  -4  -2  -7    3.04    0.34
   4  -2   7    2.71    0.28
   4   2   7    2.67    0.38
   5  -2   7    5.59    0.41
  -5  -2  -7    5.00    0.42
  -5  -2  -7    5.63    0.46
   5   2   7    4.97    0.52
  -6  -2  -7    6.22    0.46
   6  -2   7    6.11    0.47
  -6  -2  -7    6.43    0.52
   6   2   7    6.05    0.59
   7  -2   7    1.24    0.31
  -7  -2  -7    1.86    0.37
   7   2   7    1.49    0.43
   8  -2   7    1.96    0.37
  -8  -2  -7    1.54    0.39
   8   2   7    1.32    0.45
   9  -2   7    0.82    0.34
  -9  -2  -7    0.53    0.38
   9   2   7    0.49    0.43
 -10  -2  -7    2.24    0.50
  10  -2   7    2.28    0.46
  10   2   7    1.36    0.57
 -11  -2  -7   -0.35    0.40
  11   2   7   -0.10    0.47
  12   3  -7   -0.31    0.38
 -11  -3   7   -0.07    0.31
  11   3  -7    0.48    0.39
 -10  -3   7   -0.14    0.28
  10   3  -7    0.39    0.36
  -9  -3   7    4.76    0.47
   9   3  -7    5.23    0.59
   8  -3  -7    4.45    0.50
  -8  -3   7    4.69    0.44
   8   3  -7    3.66    0.48
   7  -3  -7   10.98    0.69
  -7  -3   7   10.08    0.55
   7  -3  -7   10.88    0.47
   7   3  -7   11.36    0.70
   6  -3  -7    0.75    0.30
  -6  -3   7    0.63    0.22
   6  -3  -7    0.78    0.20
   6   3  -7    0.60    0.27
   5  -3  -7    0.72    0.12
  -5  -3   7    0.81    0.23
   5  -3  -7    0.89    0.22
   5  -3  -7    1.36    0.33
   5   3  -7    0.93    0.28
   4  -3  -7    0.46    0.27
  -4  -3   7    0.03    0.17
   4  -3  -7    0.18    0.09
   4  -3  -7    0.03    0.18
   4  -3  -7   -0.10    0.10
   4   3  -7    0.10    0.20
  -3  -3   7    7.41    0.39
   3  -3  -7    7.24    0.32
   3  -3  -7    7.79    0.47
   3  -3  -7    7.34    0.28
   3  -3  -7    7.12    0.55
   3   3  -7    7.46    0.47
  -2  -3   7    0.83    0.19
   2  -3  -7    0.84    0.24
   2  -3  -7    1.06    0.14
   2  -3  -7    0.96    0.29
   2  -3  -7    0.73    0.16
   2   3  -7    0.88    0.21
   1  -3  -7   13.90    0.52
   1  -3  -7   14.14    0.63
  -1  -3   7   13.43    0.51
   1  -3  -7   13.68    0.46
   1  -3  -7   13.40    0.68
  -1   3   7   13.46    0.54
   1   3  -7   13.18    0.55
   0  -3  -7   24.63    0.79
   0  -3  -7   25.03    0.72
   0  -3   7   23.80    0.74
   0  -3   7   25.00    0.84
   0  -3  -7   26.11    0.96
   0  -3  -7   24.65    0.88
   0  -3  -7   26.03    1.07
   0   3   7   24.26    0.82
   0   3  -7   23.96    0.78
   1  -3   7   16.30    0.55
  -1  -3  -7   15.70    0.85
  -1  -3  -7   15.34    0.55
  -1  -3  -7   14.75    0.66
  -1  -3  -7   15.09    0.71
   1  -3   7   15.16    0.60
  -1  -3  -7   14.82    0.60
   1   3   7   15.37    0.66
  -2  -3  -7   45.83    1.38
  -2  -3  -7   47.60    1.25
  -2  -3  -7   48.48    1.44
   2  -3   7   46.54    1.22
   2  -3   7   46.70    1.31
   2   3   7   46.92    1.40
  -3  -3  -7    1.62    0.25
   3  -3   7    1.26    0.22
  -3  -3  -7    1.53    0.33
  -3  -3  -7    1.35    0.28
   3   3   7    1.60    0.33
  -4  -3  -7   10.45    0.61
  -4  -3  -7   10.92    0.63
  -4  -3  -7    9.86    0.51
   4  -3   7   11.26    0.49
   4  -3   7   11.37    0.51
   4   3   7   10.45    0.68
   5  -3   7    4.10    0.35
  -5  -3  -7    4.71    0.47
  -5  -3  -7    4.03    0.47
   5  -3   7    4.37    0.38
   5   3   7    4.23    0.53
  -6  -3  -7    1.50    0.34
  -6  -3  -7    1.45    0.35
   6  -3   7    1.33    0.27
   6   3   7    2.26    0.44
   7  -3   7    0.33    0.24
  -7  -3  -7    0.89    0.36
   7   3   7    0.90    0.41
  -8  -3  -7   11.13    0.78
   8  -3   7   11.23    0.67
  -9  -3  -7    0.10    0.36
   9  -3   7    0.38    0.30
 -10  -3  -7    9.16    0.82
 -11  -4   7    1.58    0.44
  10  -4  -7    3.13    0.63
 -10  -4   7    2.34    0.44
  10   4  -7    1.81    0.51
  -9  -4   7    1.95    0.39
   9  -4  -7    2.08    0.44
   9   4  -7    1.71    0.46
   8  -4  -7    1.31    0.39
  -8  -4   7    2.20    0.37
   8   4  -7    2.75    0.47
   7  -4  -7    0.67    0.22
   7  -4  -7    0.13    0.30
  -7  -4   7    0.77    0.29
   7   4  -7    0.46    0.31
   6  -4  -7    9.23    0.53
  -6  -4   7    9.60    0.55
   6  -4  -7    9.05    0.36
   6  -4  -7    9.75    0.71
   6   4  -7    9.37    0.66
   5  -4  -7    9.32    0.71
   5  -4  -7    9.24    0.36
  -5  -4   7   10.15    0.46
  -5  -4   7   10.04    0.55
   5  -4  -7    9.74    0.55
   5   4  -7    9.31    0.62
  -4  -4   7    1.67    0.29
   4  -4  -7    1.97    0.18
   4  -4  -7    1.31    0.17
   4  -4  -7    1.16    0.31
   4  -4  -7    1.85    0.40
  -4  -4   7    1.81    0.25
   4   4  -7    1.77    0.33
   3  -4  -7    1.29    0.36
  -3  -4   7    1.13    0.25
  -3  -4   7    1.87    0.26
   3  -4  -7    1.46    0.43
   3  -4  -7    1.66    0.33
   3  -4  -7    1.46    0.18
   3  -4  -7    1.38    0.20
   3   4  -7    1.61    0.28
   2  -4  -7    8.57    0.57
   2  -4  -7    8.66    0.43
   2  -4  -7    8.66    0.38
   2  -4  -7    8.84    0.79
  -2  -4   7    8.92    0.45
  -2  -4   7    7.94    0.46
   2  -4  -7    8.11    0.65
   2   4  -7    8.35    0.49
  -1  -4   7    7.98    0.44
   1  -4  -7    7.14    0.72
   1  -4  -7    7.40    0.38
   1  -4  -7    6.50    0.54
   1  -4  -7    6.48    0.61
   0  -4  -7   16.76    0.61
   0  -4  -7   17.39    0.79
   0  -4  -7   16.90    0.86
   0  -4   7   16.55    0.63
  -1  -4  -7   13.12    0.56
  -1  -4  -7   14.24    0.73
  -1  -4  -7   13.95    0.77
   1  -4   7   12.43    0.55
   2  -4   7    2.34    0.28
  -2  -4  -7    1.74    0.28
  -2  -4  -7    1.95    0.37
  -2  -4  -7    2.12    0.42
   3  -4   7   61.75    1.62
  -3  -4  -7   62.81    1.68
  -3  -4  -7   62.33    1.84
  -3  -4  -7   62.00    1.87
  -4  -4  -7    6.21    0.48
  -4  -4  -7    5.44    0.55
  -4  -4  -7    6.11    0.58
   4  -4   7    6.57    0.42
   5  -4   7    2.43    0.31
   5  -4   7    2.62    0.31
  -5  -4  -7    1.80    0.41
  -5  -4  -7    2.26    0.42
  -5  -4  -7    2.39    0.36
   6  -4   7    0.26    0.21
  -6  -4  -7    0.27    0.36
   6  -4   7    0.76    0.23
  -6  -4  -7    0.17    0.28
  -7  -4  -7    7.47    0.61
  -7  -4  -7    6.33    0.66
   7  -4   7    5.98    0.49
   8  -4   7    1.93    0.34
  -8  -4  -7    2.35    0.52
  -8  -4  -7    1.16    0.39
  -9  -4  -7    7.91    0.79
  -9  -4  -7    7.79    0.68
   9  -4   7    7.98    0.62
 -10  -5   7    0.76    0.39
   9  -5  -7    2.25    0.49
  -9  -5   7    1.11    0.39
   9  -5  -7    2.00    0.61
  -8  -5   7    4.25    0.51
   8  -5  -7    3.80    0.72
   8  -5  -7    3.05    0.53
   7  -5  -7    3.19    0.54
   7  -5  -7    3.65    0.69
  -7  -5   7    3.35    0.46
   7  -5  -7    3.88    0.41
   6  -5  -7    3.75    0.68
   6  -5  -7    3.42    0.42
   6  -5  -7    3.37    0.54
  -6  -5   7    3.83    0.45
  -5  -5   7    0.54    0.25
   5  -5  -7    1.18    0.50
   5  -5  -7    0.66    0.16
   5  -5  -7    0.36    0.27
  -5  -5   7    0.88    0.30
   5  -5  -7    0.72    0.39
   4  -5  -7    0.39    0.43
   4  -5  -7    0.77    0.17
  -4  -5   7    0.67    0.26
   4  -5  -7    1.00    0.31
   4  -5  -7    0.18    0.34
  -4  -5   7    0.74    0.28
  -3  -5   7    3.61    0.41
   3  -5  -7    4.63    0.32
  -3  -5   7    4.75    0.40
   3  -5  -7    3.80    0.46
   3  -5  -7    4.47    0.61
   2  -5  -7    5.81    0.37
  -2  -5   7    6.21    0.48
   2  -5  -7    6.28    0.59
   2  -5  -7    5.91    0.66
  -2  -5   7    5.67    0.46
   1  -5  -7    1.98    0.40
   1  -5  -7    2.64    0.30
   1  -5  -7    2.98    0.52
  -1  -5   7    2.22    0.33
  -1  -5   7    2.62    0.34
   0  -5  -7    3.26    0.48
   0  -5  -7    2.43    0.50
   0  -5   7    3.38    0.37
   0  -5  -7    2.44    0.30
  -1  -5  -7    2.18    0.48
  -1  -5  -7    2.20    0.31
   1  -5   7    2.61    0.34
  -1  -5  -7    2.20    0.44
  -2  -5  -7   14.03    0.88
  -2  -5  -7   13.81    0.81
   2  -5   7   13.76    0.63
  -2  -5  -7   13.58    0.65
  -3  -5  -7    5.98    0.63
  -3  -5  -7    5.61    0.64
  -3  -5  -7    4.17    0.45
   3  -5   7    4.72    0.40
  -4  -5  -7    0.47    0.38
   4  -5   7    0.22    0.22
  -4  -5  -7    0.69    0.31
  -4  -5  -7    0.27    0.36
  -5  -5  -7    3.87    0.57
   5  -5   7    3.19    0.34
  -5  -5  -7    3.18    0.53
   5  -5   7    4.27    0.42
  -5  -5  -7    3.43    0.45
  -6  -5  -7    1.89    0.40
  -6  -5  -7    1.84    0.51
   6  -5   7    1.96    0.30
   6  -5   7    1.84    0.32
  -7  -5  -7    7.13    0.78
  -7  -5  -7    6.99    0.64
   7  -5   7    7.21    0.51
  -8  -5  -7    0.94    0.42
  -8  -5  -7    0.30    0.48
   8  -5   7    0.44    0.31
   8  -6  -7    3.35    0.58
  -8  -6   7    5.26    0.59
   7  -6  -7    0.75    0.43
  -7  -6   7    1.93    0.44
   7  -6  -7    1.25    0.34
   6  -6  -7    4.62    0.68
  -6  -6   7    4.59    0.54
   6  -6  -7    4.57    0.51
   5  -6  -7    6.71    0.78
   5  -6  -7    5.63    0.57
  -5  -6   7    6.37    0.57
  -4  -6   7    3.17    0.44
   4  -6  -7    3.19    0.45
   4  -6  -7    3.62    0.62
   4  -6  -7    3.52    0.49
  -4  -6   7    3.36    0.42
   3  -6  -7    1.09    0.37
  -3  -6   7    1.18    0.33
   3  -6  -7    0.95    0.45
  -3  -6   7    1.47    0.33
   3  -6  -7    0.76    0.22
   2  -6  -7    7.00    0.44
   2  -6  -7    6.45    0.63
   2  -6  -7    7.44    0.79
  -2  -6   7    6.50    0.54
  -2  -6   7    6.63    0.55
  -1  -6   7    7.11    0.56
   1  -6  -7    6.51    0.64
  -1  -6   7    7.47    0.55
   1  -6  -7    8.67    0.83
   1  -6  -7    6.78    0.47
   0  -6   7    1.39    0.32
   0  -6  -7    0.96    0.28
   0  -6  -7    1.26    0.42
   0  -6  -7    1.52    0.48
  -1  -6  -7   26.64    1.29
  -1  -6  -7   27.00    0.99
  -1  -6  -7   26.59    1.20
   1  -6   7   26.37    0.97
  -2  -6  -7    2.56    0.54
  -2  -6  -7    3.16    0.42
  -2  -6  -7    3.16    0.57
   2  -6   7    2.46    0.37
  -3  -6  -7    9.36    0.83
   3  -6   7    8.56    0.56
  -3  -6  -7    7.27    0.75
  -3  -6  -7    8.60    0.63
  -4  -6  -7    0.83    0.34
  -4  -6  -7    0.27    0.42
  -4  -6  -7    0.55    0.43
   4  -6   7    1.14    0.29
   5  -6   7    0.28    0.26
  -5  -6  -7    0.13    0.43
  -5  -6  -7    0.34    0.35
   6  -6   7    6.00    0.51
   6  -6   7    5.67    0.47
  -6  -6  -7    6.06    0.76
  -6  -6  -7    4.92    0.58
   7  -7  -7    0.21    0.32
   6  -7  -7    6.14    0.63
  -6  -7   7    6.01    0.65
   6  -7  -7    6.33    0.92
  -5  -7   7    6.47    0.64
   5  -7  -7    6.26    0.80
   5  -7  -7    5.46    0.60
   4  -7  -7    2.19    0.49
  -4  -7   7    2.08    0.42
   4  -7  -7    2.25    0.63
   3  -7  -7    2.16    0.60
   3  -7  -7    1.00    0.41
  -3  -7   7    2.08    0.41
  -3  -7   7    1.64    0.41
  -2  -7   7    5.45    0.56
  -2  -7   7    5.15    0.55
   2  -7  -7    6.22    0.81
   2  -7  -7    5.76    0.69
   1  -7  -7    1.56    0.57
  -1  -7   7    2.15    0.41
  -1  -7   7    1.11    0.35
   1  -7  -7    1.42    0.45
   1  -7  -7    1.45    0.32
   0  -7  -7    2.77    0.39
   0  -7  -7    2.93    0.64
   0  -7  -7    2.22    0.52
   0  -7   7    3.70    0.47
  -1  -7  -7    0.43    0.41
   1  -7   7    0.14    0.28
  -1  -7  -7   -0.11    0.27
  -1  -7  -7    0.46    0.45
  -2  -7  -7    4.70    0.52
  -2  -7  -7    5.72    0.75
   2  -7   7    5.48    0.52
  -2  -7  -7    5.92    0.78
   3  -7   7    4.49    0.47
  -3  -7  -7    3.62    0.64
  -3  -7  -7    4.80    0.73
  -3  -7  -7    4.49    0.53
  -4  -7  -7    1.26    0.80
  -4  -7  -7    0.60    0.37
  -4  -7  -7    1.16    0.53
  -2  -8   7    1.35    0.44
  -1  -8  -7    0.59    0.50
  12   0  -8   -0.04    0.28
  11   0  -8    0.43    0.28
  10   0  -8   12.83    0.68
   9   0  -8   -0.33    0.20
  -8   0   8    0.02    0.13
   8   0  -8    0.02    0.19
   8   0  -8    0.18    0.18
  -7   0   8   -0.18    0.11
   7   0  -8    0.00    0.17
   7   0  -8    0.09    0.18
  -6   0   8   45.02    1.07
   6   0  -8   42.55    1.23
   6   0  -8   45.15    1.22
   5   0  -8   14.66    0.58
   5   0  -8   15.76    0.59
  -5   0   8   15.77    0.43
   4   0  -8   49.40    1.31
   4   0  -8   48.03    1.30
   4   0  -8   50.85    1.15
   3   0  -8   24.34    0.65
   3   0  -8   24.65    0.78
   3   0  -8   24.68    0.75
  -2   0   8    7.27    0.34
   2   0  -8    7.18    0.40
   2   0  -8    7.12    0.31
   2   0  -8    7.12    0.38
   1   0  -8    6.94    0.22
  -1   0   8    6.89    0.34
   1   0  -8    6.20    0.38
   0   0   8    6.03    0.34
   0   0  -8    5.69    0.37
  -1   0  -8   14.93    0.59
   1   0   8   16.04    0.58
   2   0   8   88.99    2.21
  -2   0  -8   91.92    2.21
  -3   0  -8    4.81    0.40
   3   0   8    4.75    0.41
  -4   0  -8   52.50    1.43
   4   0   8   54.12    1.51
   5   0   8    7.74    0.56
  -5   0  -8    8.74    0.50
   6   0   8    4.44    0.49
  -6   0  -8    5.06    0.45
  -7   0  -8    0.20    0.24
   7   0   8    0.55    0.32
   8   0   8    0.40    0.35
   9   0   8    2.22    0.51
 -10   0  -8   -0.43    0.39
  10   0   8    0.79    0.43
 -11   0  -8   -1.03    0.41
  12  -1  -8    1.04    0.30
  12   1  -8    2.48    0.45
  11  -1  -8    1.34    0.29
  11   1  -8    0.88    0.36
  10  -1  -8    4.65    0.41
  10   1  -8    4.62    0.51
   9  -1  -8    6.39    0.44
  -9  -1   8    5.81    0.40
   9   1  -8    6.20    0.54
   8  -1  -8   20.02    0.73
  -8  -1   8   20.30    0.69
   8  -1  -8   22.34    0.81
   8   1  -8   21.54    0.87
   7  -1  -8    4.64    0.35
   7  -1  -8    4.58    0.43
  -7  -1   8    4.69    0.31
   7   1  -8    3.78    0.39
   7   1  -8    4.25    0.33
   6  -1  -8   26.07    0.80
  -6  -1   8   26.58    0.75
   6  -1  -8   27.15    0.92
   6   1  -8   26.11    0.80
   6   1  -8   26.29    0.90
   5  -1  -8   49.19    1.38
   5  -1  -8   50.01    1.17
   5  -1  -8   47.62    1.26
  -5  -1   8   49.87    1.19
   5   1  -8   47.56    1.35
   5   1  -8   48.37    1.29
  -4  -1   8    1.26    0.15
   4  -1  -8    1.51    0.26
   4  -1  -8    1.52    0.19
   4  -1  -8    1.18    0.19
   4   1  -8    0.67    0.19
  -4   1   8    1.17    0.17
   4   1  -8    0.93    0.21
   3  -1  -8   10.31    0.44
   3  -1  -8   10.86    0.42
  -3  -1   8   10.30    0.33
   3  -1  -8   11.25    0.51
   3   1  -8    9.88    0.33
   3   1  -8   11.30    0.48
  -3   1   8   10.72    0.40
   3   1  -8   10.19    0.33
   3   1  -8   10.52    0.48
   2  -1  -8   29.44    0.92
   2  -1  -8   29.59    0.84
  -2  -1   8   29.35    0.73
   2   1  -8   29.91    0.89
  -2   1   8   30.96    0.83
   2   1  -8   30.35    0.90
   1  -1  -8    4.51    0.31
  -1  -1   8    4.28    0.20
   1  -1  -8    5.03    0.36
   1  -1  -8    4.74    0.17
  -1   1   8    4.35    0.30
   1   1  -8    5.54    0.37
   1   1  -8    4.83    0.34
   0  -1   8    5.67    0.24
   0  -1  -8    5.38    0.38
   0  -1  -8    5.33    0.19
   0  -1  -8    5.08    0.30
   0  -1  -8    5.55    0.34
   0   1  -8    5.95    0.39
   0   1   8    5.55    0.36
  -1  -1  -8   28.32    0.85
  -1  -1  -8   26.61    0.87
   1  -1   8   28.15    0.73
   1  -1   8   27.65    0.82
  -1   1  -8   28.61    0.87
   1   1   8   28.91    0.88
  -2  -1  -8   -0.02    0.18
   2  -1   8   -0.10    0.15
   2  -1   8    0.16    0.12
  -2  -1  -8   -0.30    0.16
   2   1   8   -0.08    0.19
  -2   1  -8   -0.18    0.19
   3  -1   8    1.85    0.23
  -3  -1  -8    2.18    0.30
  -3  -1  -8    2.11    0.28
   3  -1   8    2.23    0.28
   3   1   8    1.68    0.29
  -3   1  -8    2.16    0.29
  -4  -1  -8   51.95    1.40
  -4  -1  -8   51.06    1.42
   4  -1   8   48.89    1.41
   4   1   8   52.94    1.53
  -4   1  -8   49.65    1.39
  -5  -1  -8   13.88    0.62
   5  -1   8   14.30    0.67
  -5  -1  -8   14.24    0.66
   5   1   8   15.40    0.79
  -5   1  -8   15.64    0.65
  -6  -1  -8    4.69    0.45
  -6  -1  -8    5.50    0.43
   6  -1   8    5.23    0.48
  -6   1  -8    5.78    0.46
   6   1   8    4.59    0.51
   7  -1   8    0.43    0.30
  -7  -1  -8    0.05    0.30
   7   1   8    0.27    0.35
  -7   1  -8    0.39    0.27
   8  -1   8    2.33    0.43
  -8  -1  -8    2.41    0.44
   8   1   8    2.40    0.48
   9  -1   8    5.42    0.63
  -9  -1  -8    3.59    0.52
   9   1   8    5.52    0.67
 -10  -1  -8    6.28    0.66
  10  -1   8    7.48    0.75
  10   1   8    7.63    0.85
 -11  -1  -8    0.10    0.51
  11   1   8    1.06    0.69
  12  -2  -8    2.00    0.31
  12   2  -8    1.21    0.40
  11  -2  -8    2.86    0.32
  11   2  -8    2.48    0.47
 -10  -2   8    0.88    0.28
  10  -2  -8    0.90    0.22
  10   2  -8    0.62    0.34
   9  -2  -8   15.86    0.59
  -9  -2   8   15.40    0.68
   9   2  -8   16.61    0.84
  -8  -2   8    4.95    0.39
   8  -2  -8    3.93    0.44
   8  -2  -8    4.56    0.34
   8   2  -8    5.24    0.52
   7  -2  -8   42.24    1.33
   7  -2  -8   41.70    1.09
  -7  -2   8   39.75    1.14
   7   2  -8   39.56    1.31
   7   2  -8   40.40    1.11
   6  -2  -8    4.11    0.30
   6  -2  -8    5.06    0.47
   6  -2  -8    3.94    0.27
  -6  -2   8    3.80    0.31
   6   2  -8    3.64    0.39
   6   2  -8    3.63    0.33
  -5  -2   8    0.48    0.17
   5  -2  -8    0.52    0.26
   5  -2  -8    0.40    0.17
   5   2  -8    0.56    0.24
   5   2  -8    0.21    0.22
   4  -2  -8   18.64    0.78
  -4  -2   8   19.48    0.61
   4  -2  -8   19.13    0.66
   4   2  -8   19.60    0.74
   4   2  -8   18.37    0.55
   4   2  -8   18.94    0.68
   3  -2  -8   38.32    1.08
   3  -2  -8   38.29    1.20
  -3  -2   8   38.51    0.99
  -3   2   8   36.91    1.00
   3   2  -8   39.02    1.13
   2  -2  -8    2.16    0.28
   2  -2  -8    2.21    0.20
  -2  -2   8    2.24    0.20
   2  -2  -8    2.18    0.33
  -2   2   8    2.69    0.24
   2   2  -8    2.49    0.28
   1  -2  -8    9.98    0.49
   1  -2  -8    9.87    0.42
  -1  -2   8   10.22    0.38
   1  -2  -8   10.45    0.55
   1  -2  -8   10.82    0.33
  -1   2   8   10.75    0.47
   1   2  -8   10.22    0.47
   0  -2  -8   21.18    0.73
   0  -2  -8   19.95    0.66
   0  -2   8   20.79    0.60
   0  -2  -8   21.16    0.58
   0  -2  -8   19.73    0.77
   0   2  -8   20.35    0.69
   0   2   8   19.90    0.71
  -1  -2  -8    7.30    0.39
   1  -2   8    7.42    0.40
  -1  -2  -8    6.31    0.42
  -1  -2  -8    7.48    0.33
   1  -2   8    6.73    0.32
  -1  -2  -8    7.52    0.48
   1   2   8    7.68    0.47
  -2  -2  -8   31.15    0.99
   2  -2   8   30.66    0.85
   2  -2   8   30.79    0.95
  -2  -2  -8   32.07    1.02
   2  -2   8   32.06    0.92
   2   2   8   32.87    1.05
  -3  -2  -8   14.09    0.64
   3  -2   8   13.49    0.56
  -3  -2  -8   13.50    0.62
   3  -2   8   12.71    0.49
   3   2   8   14.82    0.70
  -4  -2  -8   26.73    0.94
  -4  -2  -8   26.32    0.94
   4  -2   8   25.52    0.86
   4   2   8   27.38    1.03
  -5  -2  -8    0.74    0.26
   5  -2   8    0.71    0.24
  -5  -2  -8    0.75    0.29
   5   2   8    0.63    0.35
  -6  -2  -8    3.92    0.41
  -6  -2  -8    3.51    0.44
   6  -2   8    3.11    0.39
   6   2   8    4.13    0.54
  -7  -2  -8    0.14    0.30
   7  -2   8    0.10    0.28
  -7   2  -8    0.19    0.24
   7   2   8    0.26    0.38
   8  -2   8    0.84    0.34
  -8  -2  -8    0.42    0.35
   8   2   8    0.34    0.40
   9  -2   8    1.01    0.39
  -9  -2  -8    0.47    0.40
   9   2   8    1.58    0.52
  10  -2   8    6.67    0.68
 -10  -2  -8    6.57    0.69
  10   2   8    7.40    0.86
  12   3  -8    0.23    0.36
  11   3  -8    1.58    0.44
 -10  -3   8   10.13    0.65
  10   3  -8   10.79    0.79
  -9  -3   8    0.47    0.28
   9   3  -8    0.65    0.33
  -8  -3   8    1.44    0.31
   8  -3  -8    1.14    0.35
   8   3  -8    0.96    0.35
   7  -3  -8    0.93    0.20
   7  -3  -8    0.87    0.32
  -7  -3   8    0.94    0.25
   7   3  -8    1.08    0.25
   7   3  -8    1.31    0.33
  -6  -3   8    0.02    0.19
   6  -3  -8   -0.03    0.27
   6  -3  -8    0.12    0.16
   6   3  -8    0.22    0.22
   6   3  -8   -0.14    0.24
  -5  -3   8    8.77    0.46
   5  -3  -8    9.13    0.49
   5  -3  -8    9.24    0.64
   5   3  -8    9.16    0.59
   4  -3  -8    0.69    0.24
   4  -3  -8    1.03    0.33
   4  -3  -8    0.92    0.11
  -4  -3   8    0.93    0.22
   4   3  -8    0.61    0.23
   3  -3  -8   16.59    0.70
   3  -3  -8   16.20    0.81
  -3  -3   8   17.30    0.61
   3  -3  -8   16.52    0.46
   3  -3  -8   16.02    0.54
   3   3  -8   16.74    0.69
   2  -3  -8   14.38    0.65
   2  -3  -8   14.72    0.44
   2  -3  -8   14.47    0.52
   2  -3  -8   13.97    0.73
  -2  -3   8   13.46    0.52
   2   3  -8   15.03    0.62
  -1  -3   8   10.73    0.45
   1  -3  -8   11.34    0.59
   1  -3  -8   10.03    0.61
   1  -3  -8   10.20    0.39
   1  -3  -8   10.89    0.46
   1   3  -8   10.26    0.50
  -1   3   8   10.45    0.50
   0  -3   8   15.35    0.55
   0  -3  -8   15.84    0.76
   0  -3  -8   15.55    0.69
   0  -3  -8   16.24    0.54
   0  -3  -8   15.69    0.61
   0   3   8   15.21    0.65
   0   3  -8   16.80    0.63
  -1  -3  -8    3.54    0.29
  -1  -3  -8    4.19    0.55
   1  -3   8    3.60    0.29
  -1  -3  -8    3.65    0.39
  -1  -3  -8    3.71    0.43
   1   3   8    3.10    0.35
  -2  -3  -8   19.15    0.83
  -2  -3  -8   19.71    0.66
  -2  -3  -8   18.65    0.79
   2  -3   8   19.28    0.64
   2   3   8   18.50    0.81
  -3  -3  -8    7.15    0.53
  -3  -3  -8    6.71    0.55
   3  -3   8    8.13    0.41
  -3  -3  -8    7.71    0.44
   3   3   8    8.21    0.60
   4  -3   8    6.16    0.39
  -4  -3  -8    6.59    0.43
  -4  -3  -8    6.63    0.55
   4  -3   8    6.24    0.43
  -4  -3  -8    5.92    0.53
   4   3   8    6.05    0.58
  -5  -3  -8    0.14    0.29
  -5  -3  -8    1.27    0.34
   5  -3   8    0.72    0.25
   5   3   8    0.65    0.41
  -6  -3  -8    0.29    0.29
  -6  -3  -8    0.54    0.32
   6  -3   8    0.38    0.24
  -7  -3  -8    2.29    0.45
   7  -3   8    3.13    0.40
   8  -3   8    0.72    0.32
  -8  -3  -8    0.47    0.40
   9  -3   8    6.89    0.62
  -9  -3  -8    5.22    0.64
 -10  -3  -8    0.88    0.49
 -10  -4   8    3.75    0.49
   9  -4  -8    3.25    0.53
  -9  -4   8    2.82    0.42
   9   4  -8    3.48    0.54
   8  -4  -8    0.67    0.36
  -8  -4   8    0.55    0.30
   8   4  -8    0.06    0.32
   7  -4  -8    9.45    0.52
   7  -4  -8    9.94    0.75
  -7  -4   8   10.44    0.59
   7   4  -8   10.28    0.72
   6  -4  -8    1.04    0.39
   6  -4  -8    1.40    0.28
  -6  -4   8    1.71    0.32
   6   4  -8    0.78    0.31
   5  -4  -8    0.75    0.26
  -5  -4   8    1.04    0.28
   5  -4  -8    0.92    0.36
   5   4  -8    0.91    0.31
   4  -4  -8    2.18    0.35
  -4  -4   8    2.39    0.31
   4  -4  -8    2.29    0.44
   4  -4  -8    1.83    0.17
   4   4  -8    2.16    0.35
  -3  -4   8    2.82    0.32
   3  -4  -8    2.12    0.42
   3  -4  -8    2.09    0.35
   3  -4  -8    2.19    0.20
   3   4  -8    2.08    0.32
  -2  -4   8   17.09    0.66
   2  -4  -8   17.83    0.57
   2  -4  -8   16.71    1.02
   2  -4  -8   18.70    0.82
   2  -4  -8   17.23    0.90
   1  -4  -8   51.49    1.31
   1  -4  -8   50.66    1.56
   1  -4  -8   50.41    1.66
  -1  -4   8   50.60    1.37
   1  -4  -8   51.42    1.86
   0  -4  -8    9.75    0.85
   0  -4  -8   10.51    0.47
   0  -4  -8    9.94    0.65
   0  -4  -8   10.51    0.73
   0  -4   8    9.94    0.50
  -1  -4  -8   14.14    0.58
   1  -4   8   13.15    0.57
  -1  -4  -8   13.17    0.74
  -1  -4  -8   14.29    0.81
  -2  -4  -8    4.59    0.53
   2  -4   8    5.29    0.39
  -2  -4  -8    5.51    0.57
  -2  -4  -8    4.64    0.39
   3  -4   8    1.23    0.24
  -3  -4  -8    1.32    0.38
  -3  -4  -8    1.11    0.28
  -3  -4  -8    0.28    0.30
   4  -4   8    0.87    0.24
  -4  -4  -8    1.27    0.38
  -4  -4  -8    1.06    0.28
  -4  -4  -8    0.56    0.35
   4  -4   8    1.05    0.24
  -5  -4  -8    2.33    0.36
   5  -4   8    3.18    0.34
  -5  -4  -8    3.15    0.48
  -5  -4  -8    2.79    0.47
   5  -4   8    1.93    0.30
  -6  -4  -8    0.08    0.29
   6  -4   8    0.46    0.24
  -6  -4  -8    0.07    0.35
  -7  -4  -8   11.68    0.85
   7  -4   8   11.48    0.64
  -7  -4  -8   11.00    0.73
  -8  -4  -8    0.44    0.36
  -8  -4  -8    0.51    0.43
   8  -4   8    0.47    0.29
  -9  -4  -8    2.06    0.56
  10  -5  -8    3.12    0.72
 -10  -5   8    3.57    0.52
   9  -5  -8    1.21    0.45
   9  -5  -8    1.15    0.57
  -9  -5   8    1.31    0.38
   8  -5  -8    0.75    0.42
   8  -5  -8    0.68    0.51
  -8  -5   8    0.99    0.38
   7  -5  -8    0.71    0.27
   7  -5  -8    0.56    0.39
   7  -5  -8    0.46    0.47
  -7  -5   8    0.45    0.30
   6  -5  -8    4.46    0.47
  -6  -5   8    5.33    0.51
   6  -5  -8    4.16    0.60
   6  -5  -8    4.15    0.70
   5  -5  -8    5.50    0.68
   5  -5  -8    5.34    0.76
  -5  -5   8    5.13    0.48
   5  -5  -8    5.24    0.50
  -4  -5   8    1.45    0.31
   4  -5  -8    1.27    0.34
   4  -5  -8    0.58    0.40
  -4  -5   8    1.16    0.27
   4  -5  -8    0.56    0.45
  -3  -5   8    0.33    0.25
   3  -5  -8    0.16    0.38
   3  -5  -8    0.16    0.29
   3  -5  -8    0.50    0.16
   3  -5  -8   -0.04    0.33
   2  -5  -8    2.00    0.40
   2  -5  -8    2.07    0.49
   2  -5  -8    2.14    0.25
  -2  -5   8    2.55    0.35
   1  -5  -8    8.14    0.66
   1  -5  -8    8.61    0.46
   1  -5  -8    8.78    0.76
  -1  -5   8    9.08    0.53
   0  -5   8    0.84    0.26
   0  -5  -8    0.74    0.23
   0  -5  -8    0.14    0.36
   0  -5  -8    0.54    0.34
  -1  -5  -8    1.73    0.45
  -1  -5  -8    1.54    0.28
  -1  -5  -8    1.40    0.39
   1  -5   8    0.94    0.26
  -2  -5  -8   16.78    0.93
  -2  -5  -8   19.85    0.78
  -2  -5  -8   17.19    1.01
   2  -5   8   18.99    0.73
   3  -5   8    1.33    0.28
  -3  -5  -8    1.55    0.34
  -3  -5  -8    1.17    0.45
  -3  -5  -8    0.82    0.39
  -4  -5  -8    1.57    0.36
  -4  -5  -8    1.11    0.42
  -4  -5  -8    1.08    0.44
   4  -5   8    0.79    0.26
  -5  -5  -8    3.86    0.58
   5  -5   8    3.05    0.36
  -5  -5  -8    2.49    0.42
  -5  -5  -8    2.56    0.54
   5  -5   8    3.10    0.38
  -6  -5  -8    1.72    0.41
   6  -5   8    1.80    0.35
  -6  -5  -8    1.54    0.48
   6  -5   8    1.89    0.31
  -7  -5  -8    0.56    0.38
  -7  -5  -8    0.95    0.49
   7  -5   8    0.64    0.28
  -8  -5  -8    0.68    0.63
   9  -6  -8    1.70    0.47
  -8  -6   8    0.29    0.37
   8  -6  -8    0.05    0.38
   7  -6  -8    4.70    0.71
  -7  -6   8    3.77    0.51
   7  -6  -8    3.90    0.47
   6  -6  -8    2.27    0.57
   6  -6  -8    2.47    0.43
  -6  -6   8    2.60    0.43
  -5  -6   8    6.38    0.58
   5  -6  -8    5.93    0.75
   5  -6  -8    5.32    0.57
   4  -6  -8    3.54    0.49
   4  -6  -8    3.91    0.65
  -4  -6   8    4.28    0.48
  -4  -6   8    3.15    0.64
   3  -6  -8    0.43    0.34
  -3  -6   8    0.07    0.27
  -3  -6   8    0.13    0.27
   3  -6  -8    0.61    0.43
  -2  -6   8    4.74    0.49
   2  -6  -8    4.69    0.57
   2  -6  -8    4.58    0.68
   2  -6  -8    4.64    0.41
   1  -6  -8    4.26    0.66
  -1  -6   8    4.08    0.47
   1  -6  -8    3.41    0.36
   1  -6  -8    3.52    0.53
   0  -6  -8    2.11    0.57
   0  -6   8    2.82    0.39
   0  -6  -8    2.92    0.53
   0  -6  -8    2.37    0.34
  -1  -6  -8    4.91    0.72
  -1  -6  -8    4.27    0.59
   1  -6   8    5.05    0.48
  -1  -6  -8    4.30    0.45
  -2  -6  -8    1.48    0.47
  -2  -6  -8    1.72    0.53
   2  -6   8    2.47    0.37
  -2  -6  -8    1.63    0.35
  -3  -6  -8   12.89    0.94
  -3  -6  -8   14.68    1.00
  -3  -6  -8   13.48    0.76
   3  -6   8   15.33    0.71
  -4  -6  -8    0.51    0.43
  -4  -6  -8    0.01    0.30
  -4  -6  -8    0.68    0.45
   4  -6   8    0.30    0.26
  -5  -6  -8    3.73    0.63
   5  -6   8    4.65    0.47
  -5  -6  -8    3.64    0.50
   5  -6   8    2.77    0.37
  -6  -6  -8    8.94    0.93
  -6  -6  -8    8.74    0.74
   7  -7  -8    1.91    0.54
   6  -7  -8    4.13    0.54
   5  -7  -8    4.41    0.79
   5  -7  -8    3.44    0.52
  -5  -7   8    3.00    0.49
  -4  -7   8    1.33    0.41
   4  -7  -8    1.69    0.58
   4  -7  -8    1.73    0.45
   3  -7  -8    2.49    0.67
  -3  -7   8    3.07    0.48
  -3  -7   8    3.12    0.46
   3  -7  -8    2.89    0.54
  -2  -7   8    0.88    0.36
   2  -7  -8    0.74    0.42
   2  -7  -8    0.34    0.47
  -1  -7   8    0.58    0.32
   1  -7  -8    0.69    0.43
   1  -7  -8    0.48    0.49
   0  -7  -8    3.97    0.62
   0  -7  -8    4.25    0.72
   0  -7   8    3.40    0.47
  -1  -7  -8    1.54    0.56
   1  -7   8    2.17    0.40
  -1  -7  -8    1.30    0.48
  -1  -7  -8    0.72    0.32
  -2  -7  -8    3.81    0.68
  -2  -7  -8    3.81    0.49
   2  -7   8    5.91    0.54
  -2  -7  -8    6.80    0.84
  -3  -7  -8    6.10    0.80
  -3  -7  -8    5.37    0.58
  -3  -7  -8    5.13    0.90
   3  -7   8    5.89    0.63
  -4  -7  -8    4.68    0.56
  12   0  -9    3.61    0.46
  11   0  -9    0.27    0.26
  10   0  -9    4.13    0.44
   9   0  -9   19.82    0.81
   8   0  -9    9.89    0.53
   8   0  -9   10.85    0.57
   7   0  -9    1.40    0.27
   7   0  -9    1.73    0.27
  -7   0   9    2.06    0.21
   6   0  -9   52.11    1.42
  -6   0   9   50.61    1.21
   6   0  -9   52.73    1.42
   5   0  -9   22.36    0.77
   5   0  -9   24.04    0.80
   4   0  -9   26.63    0.85
   4   0  -9   26.48    0.83
   4   0  -9   25.91    0.69
   2   0  -9   13.75    0.57
   2   0  -9   13.63    0.47
  -2   0   9   13.25    0.50
   2   0  -9   13.96    0.55
   1   0  -9   26.93    0.86
  -1   0   9   27.00    0.80
   1   0  -9   27.60    0.67
   0   0  -9    1.65    0.26
   0   0   9    1.21    0.21
  -1   0  -9    0.24    0.20
   1   0   9    0.06    0.17
  -2   0  -9   14.22    0.63
   2   0   9   16.33    0.65
   3   0   9    8.62    0.53
  -3   0  -9    7.65    0.50
   4   0   9   22.26    0.87
  -4   0  -9   21.35    0.80
   5   0   9    1.24    0.32
  -5   0  -9    0.93    0.30
  -6   0  -9    0.76    0.28
   6   0   9    0.83    0.32
   7   0   9    1.09    0.39
  -7   0  -9    0.56    0.35
   8   0   9    9.93    0.79
  -9   0  -9   -0.35    0.40
   9   0   9    0.84    0.43
  10   0   9    1.78    0.52
 -10   0  -9    0.38    0.45
  12  -1  -9    3.37    0.41
  12   1  -9    3.15    0.48
  11  -1  -9    3.85    0.41
  11   1  -9    3.97    0.49
  10  -1  -9    3.38    0.37
  10   1  -9    3.68    0.46
   9  -1  -9   23.01    0.82
   9   1  -9   23.20    0.94
  -8  -1   9    1.13    0.22
   8  -1  -9    1.00    0.29
   8  -1  -9    1.28    0.24
   8   1  -9    0.98    0.29
   7  -1  -9    3.78    0.42
   7  -1  -9    4.35    0.35
  -7  -1   9    4.63    0.31
   7   1  -9    4.63    0.43
   7   1  -9    4.03    0.35
   6  -1  -9   11.22    0.59
   6  -1  -9   10.86    0.49
  -6  -1   9   10.53    0.40
   6   1  -9   10.19    0.56
   6   1  -9    9.80    0.49
   5  -1  -9   12.59    0.62
   5  -1  -9   11.90    0.52
  -5  -1   9   12.58    0.42
   5  -1  -9   13.24    0.43
   5   1  -9   12.92    0.57
   5   1  -9   13.41    0.59
   4  -1  -9   14.29    0.49
  -4  -1   9   13.13    0.40
   4  -1  -9   13.63    0.62
   4  -1  -9   13.39    0.53
   4   1  -9   12.95    0.38
   4   1  -9   12.69    0.57
  -4   1   9   13.51    0.48
   4   1  -9   13.11    0.38
   4   1  -9   13.06    0.57
   3  -1  -9   31.18    0.86
   3  -1  -9   29.31    0.96
  -3  -1   9   29.58    0.73
  -3   1   9   30.15    0.84
   3   1  -9   28.04    0.78
   3   1  -9   30.74    0.94
   3   1  -9   30.13    0.93
  -2  -1   9    1.26    0.12
   2  -1  -9    1.60    0.23
   2  -1  -9    1.34    0.25
  -2   1   9    1.49    0.20
   2   1  -9    1.48    0.22
   2   1  -9    1.01    0.25
  -1  -1   9    7.79    0.28
   1  -1  -9    7.12    0.45
   1  -1  -9    8.58    0.41
   1   1  -9    8.51    0.44
   1   1  -9    8.47    0.47
  -1   1   9    7.49    0.40
   0  -1   9    6.54    0.37
   0  -1  -9    5.60    0.42
   0  -1   9    7.05    0.27
   0  -1  -9    7.13    0.40
   0   1  -9    6.91    0.44
   0   1   9    6.41    0.40
  -1  -1  -9   14.47    0.57
  -1  -1  -9   13.63    0.60
   1  -1   9   13.85    0.55
  -1   1  -9   12.97    0.59
   1   1   9   12.76    0.58
  -2  -1  -9    1.92    0.29
  -2  -1  -9    1.38    0.25
   2  -1   9    1.57    0.25
   2   1   9    2.03    0.30
  -2   1  -9    1.92    0.30
   3  -1   9   32.32    0.99
  -3  -1  -9   29.48    0.99
  -3  -1  -9   30.73    0.99
  -3   1  -9   31.14    1.01
   3   1   9   31.07    1.06
  -4  -1  -9   19.42    0.78
   4  -1   9   20.89    0.80
  -4  -1  -9   20.86    0.78
  -4   1  -9   20.69    0.80
   4   1   9   19.26    0.87
  -5  -1  -9    7.54    0.51
  -5  -1  -9    8.07    0.55
   5  -1   9    8.36    0.57
  -5   1  -9    6.94    0.52
   5   1   9    7.53    0.64
  -6  -1  -9    1.60    0.36
  -6  -1  -9    2.08    0.33
   6  -1   9    2.59    0.40
  -6   1  -9    2.37    0.36
   6   1   9    2.30    0.44
  -7  -1  -9    1.51    0.38
   7  -1   9    1.50    0.37
  -7   1  -9    1.02    0.32
   7   1   9    1.59    0.43
  -8  -1  -9    3.91    0.52
   8  -1   9    4.55    0.55
   8   1   9    6.00    0.69
  -9  -1  -9   -0.30    0.37
   9  -1   9   -0.07    0.35
   9   1   9    0.74    0.47
 -10  -1  -9    0.05    0.41
  10  -1   9    0.91    0.44
  10   1   9    1.05    0.53
  12   2  -9    3.05    0.53
  11  -2  -9    0.67    0.24
  11   2  -9    0.81    0.35
  10  -2  -9   -0.12    0.18
  10   2  -9    0.03    0.28
  -9  -2   9    5.32    0.59
   9  -2  -9    4.29    0.37
   9   2  -9    5.38    0.55
   8  -2  -9    4.50    0.35
   8  -2  -9    4.56    0.49
  -8  -2   9    4.06    0.37
   8   2  -9    3.43    0.43
   7  -2  -9    4.04    0.46
  -7  -2   9    4.44    0.35
   7  -2  -9    4.94    0.35
   7   2  -9    4.44    0.38
   7   2  -9    5.20    0.48
   6  -2  -9    8.10    0.37
   6  -2  -9    7.43    0.58
  -6  -2   9    8.07    0.41
   6  -2  -9    7.75    0.40
   6   2  -9    7.39    0.54
   6   2  -9    7.80    0.46
  -5  -2   9    8.61    0.41
   5  -2  -9    8.53    0.59
   5  -2  -9    9.32    0.43
   5   2  -9    9.16    0.52
   5   2  -9    9.09    0.55
  -4  -2   9   43.11    1.11
   4  -2  -9   41.90    1.19
   4  -2  -9   42.59    1.35
   4   2  -9   42.70    1.27
   4   2  -9   44.95    1.24
   3  -2  -9    4.99    0.39
  -3  -2   9    5.00    0.28
   3  -2  -9    4.87    0.46
  -3   2   9    4.67    0.32
   3   2  -9    4.51    0.39
   3   2  -9    4.72    0.40
   2  -2  -9    2.91    0.36
  -2  -2   9    2.72    0.22
   2  -2  -9    2.84    0.32
   2   2  -9    3.02    0.32
  -2   2   9    3.06    0.27
   1  -2  -9   11.15    0.46
   1  -2  -9   11.44    0.61
   1  -2  -9   12.56    0.37
   1  -2  -9   12.40    0.55
  -1  -2   9   11.94    0.42
   1   2  -9   11.94    0.54
  -1   2   9   12.51    0.53
   0  -2  -9    9.45    0.56
   0  -2  -9   10.76    0.53
   0  -2  -9   10.22    0.37
   0  -2  -9   10.29    0.46
   0  -2   9    9.76    0.38
   0   2   9   10.64    0.52
   1  -2   9    9.39    0.38
  -1  -2  -9    9.00    0.55
  -1  -2  -9    9.81    0.52
   1   2   9    9.61    0.55
  -2  -2  -9    5.48    0.44
   2  -2   9    5.01    0.31
   2  -2   9    5.32    0.39
  -2  -2  -9    5.06    0.45
   2   2   9    5.09    0.45
  -3  -2  -9   41.47    1.28
   3  -2   9   40.16    1.18
  -3  -2  -9   44.28    1.39
  -3  -2  -9   39.49    1.26
   3   2   9   41.45    1.33
   4  -2   9    2.07    0.30
  -4  -2  -9    1.72    0.33
  -4  -2  -9    1.35    0.31
   4   2   9    1.50    0.36
   5  -2   9   27.44    1.00
  -5  -2  -9   31.30    1.06
  -5  -2  -9   28.62    1.05
  -5   2  -9   29.33    1.00
   5   2   9   29.13    1.18
   6  -2   9    1.95    0.37
  -6  -2  -9    1.56    0.37
  -6  -2  -9    2.36    0.37
   6   2   9    2.91    0.52
  -6   2  -9    1.81    0.34
  -7  -2  -9    4.60    0.54
   7  -2   9    4.41    0.50
  -7   2  -9    4.94    0.47
   7   2   9    6.35    0.70
   8  -2   9    0.89    0.35
  -8  -2  -9    0.53    0.37
   8   2   9    0.98    0.48
   9  -2   9    3.94    0.54
  -9  -2  -9    2.98    0.55
 -10  -2  -9    3.76    0.62
  12   3  -9    1.07    0.55
  11   3  -9    3.73    0.57
  10   3  -9    0.23    0.35
  -9  -3   9    0.41    0.28
   9   3  -9    0.23    0.29
  -8  -3   9    0.52    0.27
   8  -3  -9    0.42    0.33
   8   3  -9    0.36    0.31
   7  -3  -9    1.82    0.40
  -7  -3   9    1.93    0.30
   7   3  -9    1.98    0.37
   7   3  -9    1.81    0.30
  -6  -3   9    5.50    0.40
   6  -3  -9    4.60    0.36
   6  -3  -9    3.68    0.49
   6   3  -9    3.86    0.38
   6   3  -9    3.89    0.45
  -5  -3   9   27.99    0.86
   5  -3  -9   24.50    0.88
   5  -3  -9   26.19    1.09
   5   3  -9   28.51    1.02
   4  -3  -9   15.34    0.67
  -4  -3   9   14.59    0.57
   4  -3  -9   13.59    0.79
   4   3  -9   13.75    0.68
   3  -3  -9   43.04    1.37
  -3  -3   9   40.71    1.12
   3  -3  -9   39.85    0.96
   3  -3  -9   41.12    1.26
   3  -3  -9   42.61    1.41
   3   3  -9   40.84    1.25
   2  -3  -9   22.14    0.60
   2  -3  -9   22.04    0.86
  -2  -3   9   22.84    0.71
   2  -3  -9   23.54    0.97
   2   3  -9   22.87    0.82
  -1  -3   9    8.82    0.41
   1  -3  -9    9.19    0.36
   1  -3  -9    8.24    0.55
   1  -3  -9    8.70    0.60
   1   3  -9    8.69    0.49
   0  -3  -9    0.19    0.15
   0  -3   9    0.49    0.18
   0  -3  -9    0.41    0.26
   0  -3  -9    0.56    0.28
   0   3  -9    0.74    0.22
  -1  -3  -9    4.45    0.45
  -1  -3  -9    5.46    0.62
  -1  -3  -9    4.33    0.48
  -1  -3  -9    4.50    0.33
   1  -3   9    4.81    0.33
  -2  -3  -9   35.97    1.05
  -2  -3  -9   37.00    1.28
  -2  -3  -9   37.00    1.23
   2  -3   9   37.64    1.04
  -2  -3  -9   38.27    1.43
  -3  -3  -9   13.59    0.73
  -3  -3  -9   14.41    0.60
  -3  -3  -9   14.27    0.76
   3  -3   9   14.33    0.56
   3  -3   9   15.54    0.63
  -4  -3  -9    8.85    0.63
   4  -3   9    7.87    0.44
  -4  -3  -9    8.95    0.62
  -4  -3  -9    8.14    0.48
   4  -3   9    7.91    0.50
   5  -3   9    0.96    0.28
  -5  -3  -9    0.91    0.34
  -5  -3  -9    0.31    0.31
   6  -3   9    4.38    0.45
  -6  -3  -9    3.92    0.64
  -6  -3  -9    3.63    0.52
   7  -3   9    1.82    0.36
  -7  -3  -9    3.15    0.50
  -8  -3  -9   -0.36    0.35
   8  -3   9    0.78    0.33
   9  -3   9    3.23    0.52
  -9  -3  -9    3.01    0.58
  -9  -4   9    1.26    0.36
   9  -4  -9    0.88    0.41
   8  -4  -9    4.62    0.59
  -8  -4   9    4.13    0.46
   8   4  -9    3.92    0.57
   7  -4  -9    0.74    0.37
   7  -4  -9    0.77    0.36
  -7  -4   9    0.48    0.28
   7   4  -9    0.87    0.35
   6  -4  -9    0.22    0.33
   6  -4  -9    0.20    0.21
  -6  -4   9    0.01    0.23
   6   4  -9   -0.14    0.28
   5  -4  -9    0.65    0.27
  -5  -4   9    0.31    0.23
   5  -4  -9   -0.32    0.30
   5   4  -9    0.64    0.36
   4  -4  -9    3.45    0.43
  -4  -4   9    3.87    0.38
   4  -4  -9    3.38    0.51
  -3  -4   9    0.93    0.24
   3  -4  -9    1.27    0.39
   3  -4  -9    1.48    0.34
   2  -4  -9    4.57    0.48
   2  -4  -9    5.26    0.29
   2  -4  -9    5.21    0.69
   2  -4  -9    4.44    0.55
  -2  -4   9    5.45    0.40
   1  -4  -9    2.50    0.54
   1  -4  -9    2.98    0.26
  -1  -4   9    3.33    0.33
   1  -4  -9    2.66    0.41
   1  -4  -9    2.93    0.48
   0  -4  -9    2.60    0.27
   0  -4   9    2.88    0.32
   0  -4  -9    2.44    0.41
   0  -4  -9    2.78    0.58
   0  -4  -9    2.05    0.44
  -1  -4  -9   10.49    0.51
   1  -4   9   10.71    0.51
  -1  -4  -9    9.62    0.67
  -1  -4  -9   10.70    0.75
  -2  -4  -9    3.84    0.37
   2  -4   9    3.25    0.34
  -2  -4  -9    2.83    0.44
  -2  -4  -9    3.19    0.50
   3  -4   9    0.43    0.22
  -3  -4  -9    0.60    0.33
  -3  -4  -9    0.35    0.24
  -3  -4  -9    0.44    0.35
   4  -4   9    9.60    0.54
  -4  -4  -9    7.96    0.68
  -4  -4  -9   10.56    0.59
   4  -4   9    8.85    0.50
  -4  -4  -9   10.37    0.74
  -5  -4  -9    1.16    0.41
   5  -4   9    1.02    0.28
  -5  -4  -9    0.37    0.28
   5  -4   9    0.43    0.25
  -5  -4  -9    1.07    0.40
  -6  -4  -9    0.29    0.38
   6  -4   9    0.38    0.27
  -6  -4  -9   -0.01    0.28
   7  -4   9    1.93    0.37
  -7  -4  -9    1.87    0.49
  -7  -4  -9    2.25    0.43
  -8  -4  -9    1.86    0.53
  -8  -4  -9    1.24    0.43
   8  -4   9    1.77    0.38
  10  -5  -9    2.89    0.70
  -9  -5   9    3.60    0.51
   9  -5  -9    4.06    0.65
   9  -5  -9    4.19    0.78
  -8  -5   9    0.61    0.34
   8  -5  -9    0.51    0.41
   8  -5  -9    1.06    0.53
   7  -5  -9    8.82    0.85
   7  -5  -9    8.78    0.68
   7  -5  -9    8.66    0.98
  -7  -5   9    8.33    0.64
   6  -5  -9    4.50    0.47
   6  -5  -9    5.37    0.81
   6  -5  -9    5.23    0.69
  -6  -5   9    4.50    0.47
  -5  -5   9    0.26    0.29
   5  -5  -9    0.76    0.42
   5  -5  -9    0.67    0.49
   5  -5  -9    0.93    0.31
   4  -5  -9    2.41    0.54
   4  -5  -9    2.74    0.63
   4  -5  -9    2.04    0.39
  -4  -5   9    2.43    0.36
   3  -5  -9    1.98    0.57
   3  -5  -9    1.52    0.38
  -3  -5   9    2.04    0.34
   3  -5  -9    1.84    0.45
   2  -5  -9    3.20    0.66
   2  -5  -9    3.48    0.59
  -2  -5   9    5.04    0.45
   2  -5  -9    3.11    0.47
   1  -5  -9    1.72    0.50
  -1  -5   9    2.21    0.32
   1  -5  -9    2.26    0.27
   1  -5  -9    1.61    0.41
   0  -5  -9    3.83    0.36
   0  -5  -9    4.44    0.62
   0  -5   9    3.45    0.38
   0  -5  -9    3.74    0.51
  -1  -5  -9    0.73    0.36
  -1  -5  -9    0.77    0.24
   1  -5   9    0.85    0.27
  -1  -5  -9    1.48    0.47
  -2  -5  -9    5.50    0.63
  -2  -5  -9    5.97    0.48
  -2  -5  -9    5.15    0.67
   2  -5   9    5.74    0.46
  -3  -5  -9    7.54    0.57
  -3  -5  -9    6.48    0.73
   3  -5   9    7.33    0.50
  -3  -5  -9    6.43    0.67
  -4  -5  -9    0.64    0.31
  -4  -5  -9    1.02    0.44
   4  -5   9    1.08    0.28
  -4  -5  -9    0.86    0.44
   5  -5   9    0.39    0.27
  -5  -5  -9    0.05    0.30
   5  -5   9    0.20    0.24
  -5  -5  -9    0.07    0.41
  -5  -5  -9    0.77    0.42
   6  -5   9    1.78    0.34
  -6  -5  -9    2.19    0.44
  -6  -5  -9    2.04    0.52
   6  -5   9    1.74    0.35
  -7  -5  -9    2.98    0.52
  -7  -5  -9    1.71    0.55
  -8  -6   9    2.85    0.49
   8  -6  -9    2.88    0.60
   7  -6  -9    2.73    0.62
  -7  -6   9    3.63    0.49
   6  -6  -9    4.43    0.71
   6  -6  -9    4.00    0.50
  -6  -6   9    4.40    0.53
   5  -6  -9    1.41    0.49
   5  -6  -9    1.46    0.39
  -5  -6   9    1.90    0.39
  -4  -6   9    3.62    0.46
   4  -6  -9    3.03    0.63
   4  -6  -9    3.52    0.50
   3  -6  -9    3.40    0.52
  -3  -6   9    3.35    0.44
   3  -6  -9    3.57    0.63
  -2  -6   9    5.09    0.49
   2  -6  -9    6.87    0.80
   2  -6  -9    4.88    0.61
   1  -6  -9    0.21    0.45
   1  -6  -9    0.82    0.40
  -1  -6   9    0.92    0.31
   0  -6  -9    0.25    0.38
   0  -6  -9    0.82    0.48
   0  -6   9    0.83    0.32
  -1  -6  -9   10.75    0.87
  -1  -6  -9   12.60    0.67
  -1  -6  -9   11.97    0.99
   1  -6   9   12.09    0.68
  -2  -6  -9    6.38    0.79
  -2  -6  -9    6.55    0.55
  -2  -6  -9    6.74    0.74
   2  -6   9    7.29    0.55
  -3  -6  -9    2.03    0.54
  -3  -6  -9    2.90    0.43
   3  -6   9    2.98    0.39
  -3  -6  -9    3.45    0.63
   4  -6   9    2.95    0.40
  -4  -6  -9    1.72    0.52
  -4  -6  -9    2.68    0.61
  -4  -6  -9    2.82    0.45
   5  -6   9    0.73    0.30
   5  -6   9    0.18    0.27
  -5  -6  -9    0.05    0.34
  -5  -6  -9   -0.48    0.39
  -6  -6  -9    8.02    0.72
   6  -7  -9    0.52    0.39
  -5  -7   9    3.35    0.52
   5  -7  -9    2.07    0.47
  -4  -7   9    0.39    0.35
   4  -7  -9   -0.32    0.76
   4  -7  -9    0.29    0.37
   3  -7  -9    3.67    0.56
  -3  -7   9    4.92    0.54
   3  -7  -9    3.70    0.72
   2  -7  -9    1.49    0.58
  -2  -7   9    0.63    0.35
   2  -7  -9    0.17    0.42
  -1  -7   9    2.59    0.43
   1  -7  -9    2.83    0.56
   1  -7  -9    3.75    0.70
   0  -7  -9    1.15    0.50
   0  -7  -9    0.31    0.49
   0  -7   9    1.91    0.39
   1  -7   9    1.12    0.34
  -1  -7  -9    1.70    0.57
  -1  -7  -9    1.12    0.48
  -2  -7  -9    1.45    0.55
   2  -7   9    1.42    0.44
  -3  -7  -9    0.46    0.49
  -4  -7  -9    3.72    0.57
  12   0 -10    0.85    0.37
  11   0 -10    4.20    0.48
  10   0 -10    0.44    0.28
   9   0 -10   12.01    0.65
   8   0 -10    2.21    0.31
   8   0 -10    2.46    0.34
   7   0 -10    5.98    0.45
   7   0 -10    5.83    0.45
   6   0 -10   18.58    0.71
   6   0 -10   18.23    0.73
   5   0 -10    6.91    0.47
   5   0 -10    7.26    0.45
   4   0 -10  111.93    2.68
   4   0 -10  113.91    2.66
   4   0 -10  108.83    2.49
  -4   0  10  105.24    2.56
   3   0 -10   29.89    0.82
   3   0 -10   30.10    0.97
  -3   0  10   29.92    0.88
   3   0 -10   30.70    0.94
   2   0 -10   37.99    1.18
  -2   0  10   40.14    1.10
   2   0 -10   42.24    1.07
   1   0 -10    6.45    0.45
   1   0 -10    6.90    0.25
  -1   0  10    6.80    0.40
   1   0 -10    7.92    0.40
   0   0  10    0.37    0.19
   0   0 -10    0.30    0.22
   1   0  10    0.10    0.18
  -1   0 -10    0.09    0.22
  -2   0 -10    0.21    0.25
   2   0  10    0.20    0.22
   3   0  10   74.53    1.95
  -3   0 -10   70.90    1.91
   4   0  10    3.92    0.43
  -4   0 -10    4.35    0.45
  -5   0 -10   -0.14    0.26
   5   0  10    0.36    0.30
   6   0  10    2.52    0.47
  -6   0 -10    2.75    0.40
   7   0  10    5.07    0.59
   8   0  10    2.22    0.50
  -9   0 -10   -0.66    0.38
   9   0  10    0.44    0.42
  10   0  10    1.15    0.52
  12   1 -10    0.51    0.36
  11  -1 -10    5.86    0.49
  11   1 -10    6.27    0.59
  10  -1 -10    4.73    0.44
  10   1 -10    4.53    0.51
   9  -1 -10    3.00    0.35
   9   1 -10    2.82    0.40
   8  -1 -10    8.62    0.50
   8  -1 -10    8.26    0.57
   8   1 -10    7.97    0.57
   7  -1 -10    4.73    0.39
   7  -1 -10    4.34    0.45
   7   1 -10    4.03    0.38
   7   1 -10    3.55    0.40
  -6  -1  10   12.98    0.44
   6  -1 -10   12.96    0.66
   6  -1 -10   13.31    0.56
   6   1 -10   11.66    0.58
   6   1 -10   12.92    0.63
   5  -1 -10   34.32    1.13
  -5  -1  10   33.77    0.86
   5  -1 -10   35.04    1.03
   5  -1 -10   35.57    0.92
   5   1 -10   34.92    1.09
   5   1 -10   34.89    1.07
   4  -1 -10   19.05    0.63
   4  -1 -10   18.67    0.76
  -4  -1  10   19.44    0.50
   4  -1 -10   17.69    0.67
   4   1 -10   18.59    0.73
   4   1 -10   19.42    0.73
   4   1 -10   18.63    0.53
   3  -1 -10   18.02    0.73
  -3  -1  10   18.52    0.48
   3  -1 -10   18.98    0.63
  -3   1  10   17.86    0.62
   3   1 -10   18.58    0.71
   3   1 -10   18.57    0.72
   3   1 -10   15.13    0.61
   2  -1 -10   32.69    0.95
  -2  -1  10   32.35    0.78
   2  -1 -10   31.36    1.04
   2   1 -10   33.21    1.02
  -2   1  10   33.50    0.96
   2   1 -10   32.47    1.03
   1  -1 -10   24.63    0.90
   1  -1 -10   28.25    0.84
  -1  -1  10   26.62    0.82
  -1  -1  10   25.75    0.66
   1   1 -10   25.61    0.90
  -1   1  10   27.06    0.85
   0  -1 -10    1.12    0.24
   0  -1  10    1.35    0.23
   0  -1 -10    1.16    0.27
   0   1  10    0.93    0.23
   0   1 -10    1.57    0.30
  -1  -1 -10   10.87    0.53
   1  -1  10   10.64    0.51
  -1  -1 -10   10.71    0.57
   1   1  10    9.93    0.55
  -1   1 -10    9.40    0.55
  -2  -1 -10    2.72    0.33
  -2  -1 -10    2.19    0.33
   2  -1  10    2.53    0.31
  -2   1 -10    3.19    0.37
   2   1  10    3.25    0.37
   3  -1  10    4.02    0.39
  -3  -1 -10    3.81    0.41
  -3  -1 -10    3.81    0.39
  -3   1 -10    2.76    0.39
   3   1  10    4.49    0.45
   4  -1  10   29.61    1.03
  -4  -1 -10   29.17    1.02
  -4  -1 -10   28.56    1.02
   4   1  10   29.56    1.12
  -4   1 -10   30.18    1.03
   5  -1  10    0.91    0.31
  -5  -1 -10    0.61    0.31
  -5  -1 -10    0.82    0.28
  -5   1 -10    0.21    0.29
   5   1  10    0.49    0.34
   6  -1  10   15.12    0.83
  -6  -1 -10   16.38    0.82
  -6  -1 -10   17.26    0.76
   6   1  10   18.42    0.95
  -6   1 -10   16.93    0.77
  -7  -1 -10    1.00    0.39
   7  -1  10    1.43    0.40
   7   1  10    1.67    0.47
  -7   1 -10    1.37    0.37
   8  -1  10    2.67    0.50
  -8  -1 -10    1.19    0.45
   8   1  10    1.84    0.50
  -9  -1 -10    2.24    0.52
   9  -1  10    3.12    0.55
   9   1  10    2.03    0.57
  10   1  10    0.14    0.48
  11  -2 -10    2.66    0.32
  11   2 -10    3.05    0.48
  10  -2 -10    0.05    0.20
  10   2 -10   -0.78    0.26
   9  -2 -10    0.45    0.20
   9   2 -10    0.54    0.31
   8  -2 -10    0.39    0.29
   8  -2 -10    0.79    0.22
   8   2 -10    0.62    0.30
  -7  -2  10    1.43    0.24
   7  -2 -10    1.76    0.25
   7  -2 -10    1.77    0.39
   7   2 -10    1.98    0.35
   7   2 -10    1.45    0.29
  -6  -2  10    1.58    0.23
   6  -2 -10    1.21    0.36
   6   2 -10    1.60    0.31
   6   2 -10    1.47    0.30
  -5  -2  10    0.36    0.17
   5  -2 -10    0.37    0.27
   5  -2 -10    0.14    0.19
   5   2 -10    0.50    0.24
   5   2 -10    0.33    0.26
  -4  -2  10   31.74    0.84
   4  -2 -10   31.57    0.96
   4  -2 -10   29.96    1.11
   4   2 -10   31.66    1.03
   4   2 -10   29.98    1.02
  -3  -2  10    6.98    0.32
   3  -2 -10    6.65    0.54
   3  -2 -10    6.97    0.45
   3   2 -10    6.05    0.48
   3   2 -10    6.49    0.46
   2  -2 -10   13.22    0.69
   2  -2 -10   14.48    0.62
  -2  -2  10   13.52    0.45
   2   2 -10   13.99    0.62
   2   2 -10   12.81    0.64
   1  -2 -10    4.07    0.43
  -1  -2  10    4.41    0.26
   1  -2 -10    4.80    0.41
   1  -2 -10    4.13    0.21
   1   2 -10    3.95    0.41
   1   2 -10    3.78    0.36
  -1   2  10    4.39    0.42
   0  -2 -10    0.69    0.14
   0  -2  10    0.13    0.14
   0  -2 -10    0.65    0.26
   0  -2 -10    0.53    0.23
   0   2  10    0.28    0.21
  -1  -2 -10    5.94    0.46
   1  -2  10    5.54    0.41
   1  -2  10    6.81    0.33
  -1  -2 -10    5.49    0.49
   1   2  10    4.92    0.44
  -2  -2 -10    1.62    0.32
   2  -2  10    1.88    0.29
   2  -2  10    1.85    0.22
  -2  -2 -10    1.86    0.34
   2   2  10    1.86    0.34
  -3  -2 -10    5.42    0.48
  -3  -2 -10    6.00    0.52
  -3  -2 -10    5.74    0.58
   3  -2  10    5.71    0.45
   3   2  10    5.47    0.53
  -3   2 -10    5.37    0.48
  -4  -2 -10   27.66    1.01
   4  -2  10   26.64    0.95
  -4  -2 -10   26.05    0.99
   4   2  10   26.26    1.08
  -4   2 -10   23.15    0.92
  -5  -2 -10   14.10    0.73
  -5  -2 -10   13.30    0.74
   5  -2  10   13.13    0.70
   5   2  10   13.07    0.83
  -5   2 -10   12.25    0.66
   6  -2  10    1.01    0.33
  -6  -2 -10    1.15    0.38
  -6  -2 -10    0.70    0.31
  -6   2 -10    1.07    0.34
   6   2  10    0.72    0.41
   7  -2  10    4.22    0.52
  -7  -2 -10    3.08    0.50
  -7   2 -10    3.27    0.45
   8  -2  10    0.75    0.39
  -8  -2 -10    0.88    0.43
   9  -2  10    4.14    0.60
  -9  -2 -10    3.73    0.61
  11   3 -10    5.10    0.63
  10   3 -10    3.61    0.54
   9   3 -10    0.71    0.36
   8  -3 -10    8.75    0.71
  -8  -3  10    9.21    0.59
   8   3 -10    8.75    0.68
   7  -3 -10    1.09    0.36
  -7  -3  10    0.09    0.22
   7   3 -10    0.57    0.29
   7   3 -10   -0.05    0.26
   6  -3 -10    1.69    0.42
   6  -3 -10    1.74    0.26
  -6  -3  10    1.93    0.29
   6   3 -10    1.84    0.36
   6   3 -10    1.86    0.35
   5  -3 -10    2.17    0.31
   5  -3 -10    2.22    0.43
  -5  -3  10    2.10    0.28
   5   3 -10    1.93    0.34
   5   3 -10    2.44    0.36
   4  -3 -10    6.13    0.48
  -4  -3  10    6.49    0.39
   4  -3 -10    5.20    0.56
   4   3 -10    6.27    0.51
   3  -3 -10    5.44    0.47
   3  -3 -10    4.66    0.54
  -3  -3  10    5.93    0.37
   3   3 -10    5.74    0.47
  -2  -3  10   20.52    0.66
   2  -3 -10   20.88    0.84
   2  -3 -10   20.29    0.93
   2   3 -10   19.45    0.79
   1  -3 -10    0.76    0.31
  -1  -3  10    1.31    0.21
   1  -3 -10    0.99    0.15
   1  -3 -10    1.23    0.31
   1   3 -10    0.68    0.23
   0  -3 -10    7.73    0.62
   0  -3  10    9.01    0.42
   0  -3 -10    8.79    0.58
   0  -3 -10    9.92    0.41
  -1  -3 -10    6.76    0.54
   1  -3  10    6.74    0.38
  -1  -3 -10    6.55    0.69
  -1  -3 -10    6.74    0.38
  -1  -3 -10    6.50    0.60
   2  -3  10    1.38    0.22
  -2  -3 -10    1.64    0.38
  -2  -3 -10    1.02    0.31
  -2  -3 -10    1.53    0.44
  -2  -3 -10    1.40    0.23
  -3  -3 -10   10.71    0.54
   3  -3  10   11.11    0.50
   3  -3  10   11.88    0.59
  -3  -3 -10   11.99    0.74
  -3  -3 -10   11.61    0.69
  -4  -3 -10    9.11    0.52
  -4  -3 -10   10.57    0.70
   4  -3  10    8.73    0.56
  -4  -3 -10    9.08    0.65
  -5  -3 -10    2.67    0.47
   5  -3  10    3.97    0.43
  -5  -3 -10    3.25    0.47
  -6  -3 -10    3.36    0.54
   6  -3  10    4.65    0.48
  -7  -3 -10    0.66    0.41
   7  -3  10    0.82    0.32
  -7   3 -10    0.91    0.34
  -8  -3 -10    1.33    0.49
   8  -3  10    1.38    0.40
   9  -4 -10    0.97    0.44
   8  -4 -10    1.62    0.44
  -8  -4  10    1.66    0.35
   7  -4 -10    3.39    0.54
  -7  -4  10    2.78    0.39
   6  -4 -10    7.11    0.49
   6  -4 -10    7.30    0.72
  -6  -4  10    7.82    0.51
   6   4 -10    6.86    0.53
  -5  -4  10    0.26    0.24
   5  -4 -10   -0.09    0.24
   5  -4 -10    0.04    0.32
   4  -4 -10    3.80    0.57
  -4  -4  10    3.95    0.38
   4  -4 -10    3.85    0.45
   3  -4 -10    6.97    0.58
  -3  -4  10    7.40    0.47
   3  -4 -10    8.04    0.75
  -2  -4  10   11.03    0.53
   2  -4 -10   12.03    0.71
   2  -4 -10    9.11    0.75
   1  -4 -10    0.83    0.40
   1  -4 -10    1.66    0.25
   1  -4 -10    1.52    0.50
  -1  -4  10    1.83    0.27
   1  -4 -10    1.31    0.37
   0  -4  10    0.33    0.19
   0  -4 -10    0.23    0.44
   0  -4 -10    0.15    0.18
   0  -4 -10    0.06    0.29
   0  -4 -10    0.21    0.35
  -1  -4 -10    0.52    0.37
  -1  -4 -10    0.38    0.20
   1  -4  10    0.35    0.20
  -1  -4 -10    0.33    0.31
   2  -4  10    5.82    0.42
  -2  -4 -10    6.89    0.65
  -2  -4 -10    5.73    0.65
  -2  -4 -10    6.56    0.46
  -3  -4 -10    2.13    0.33
  -3  -4 -10    2.07    0.43
  -3  -4 -10    2.65    0.50
   3  -4  10    2.70    0.31
  -4  -4 -10    4.02    0.55
  -4  -4 -10    4.25    0.57
  -4  -4 -10    4.54    0.44
   4  -4  10    3.61    0.40
   4  -4  10    3.69    0.37
  -5  -4 -10    1.69    0.37
  -5  -4 -10    1.10    0.44
   5  -4  10    2.09    0.35
  -5  -4 -10    2.19    0.46
   6  -4  10    1.70    0.36
  -6  -4 -10    1.12    0.47
  -6  -4 -10    1.80    0.39
   7  -4  10    1.34    0.36
  -7  -4 -10    0.56    0.47
  -7  -4 -10    0.80    0.39
  -8  -4 -10    0.87    0.41
   9  -5 -10    0.23    0.44
   9  -5 -10    1.18    0.59
   8  -5 -10    0.61    0.52
  -8  -5  10    1.41    0.38
   8  -5 -10    0.94    0.44
   7  -5 -10    2.29    0.53
  -7  -5  10    2.03    0.38
   7  -5 -10    1.98    0.60
   6  -5 -10   -0.07    0.42
   6  -5 -10    0.16    0.28
   6  -5 -10   -0.06    0.37
  -6  -5  10    0.02    0.28
  -5  -5  10    0.86    0.30
   5  -5 -10    1.29    0.57
   5  -5 -10    1.43    0.36
   5  -5 -10    1.22    0.48
   4  -5 -10    1.17    0.55
   4  -5 -10    2.08    0.53
   4  -5 -10    1.75    0.39
  -4  -5  10    1.52    0.32
   3  -5 -10    6.19    0.60
   3  -5 -10    6.74    0.88
  -3  -5  10    6.65    0.51
   3  -5 -10    6.43    0.76
  -2  -5  10    1.75    0.31
   2  -5 -10    2.74    0.58
   2  -5 -10    1.79    0.43
   2  -5 -10    2.48    0.64
  -1  -5  10    1.70    0.31
   1  -5 -10    1.70    0.43
   1  -5 -10    1.51    0.47
   0  -5  10    0.24    0.24
   0  -5 -10    0.02    0.36
   0  -5 -10   -0.08    0.34
  -1  -5 -10    4.03    0.38
   1  -5  10    4.64    0.42
  -1  -5 -10    3.59    0.54
  -1  -5 -10    5.34    0.67
  -2  -5 -10    7.34    0.76
  -2  -5 -10    6.69    0.51
  -2  -5 -10    6.93    0.72
   2  -5  10    6.10    0.49
   3  -5  10    2.93    0.37
  -3  -5 -10    2.40    0.39
  -3  -5 -10    2.71    0.55
  -3  -5 -10    2.22    0.50
  -4  -5 -10    4.64    0.64
   4  -5  10    4.77    0.46
  -4  -5 -10    5.49    0.71
   4  -5  10    4.70    0.44
  -4  -5 -10    4.90    0.50
   5  -5  10   14.76    0.72
   5  -5  10   15.27    0.74
  -5  -5 -10   14.14    0.99
  -5  -5 -10   14.01    0.81
   6  -5  10    8.28    0.61
  -6  -5 -10    6.89    0.65
  -6  -5 -10    6.02    0.74
  -7  -5 -10    2.20    0.49
  -8  -6  10    4.10    0.54
   7  -6 -10    0.40    0.46
  -7  -6  10    1.33    0.41
  -6  -6  10    5.44    0.56
   6  -6 -10    4.16    0.69
   6  -6 -10    4.94    0.56
   5  -6 -10    0.47    0.35
   5  -6 -10    1.11    0.52
  -5  -6  10    0.69    0.35
  -4  -6  10    5.41    0.53
   4  -6 -10    4.47    0.73
   4  -6 -10    3.77    0.54
   3  -6 -10    0.14    0.43
   3  -6 -10    0.17    0.36
  -3  -6  10    0.57    0.31
  -2  -6  10    1.53    0.35
   2  -6 -10    1.16    0.53
   2  -6 -10    0.60    0.40
   1  -6 -10    0.44    0.40
   1  -6 -10    1.08    0.53
  -1  -6  10   -0.09    0.26
   0  -6 -10   -0.47    0.41
   0  -6 -10    0.38    0.40
   0  -6  10    0.08    0.27
  -1  -6 -10    2.27    0.60
   1  -6  10    2.14    0.36
  -1  -6 -10    1.60    0.52
   2  -6  10    0.76    0.28
  -2  -6 -10    1.21    0.54
  -2  -6 -10    1.41    0.50
  -3  -6 -10    0.60    0.48
  -3  -6 -10   -0.08    0.45
   3  -6  10    0.46    0.28
  -3  -6 -10    1.73    0.52
  -4  -6 -10    0.27    0.45
  -4  -6 -10    0.78    0.50
  -4  -6 -10    0.63    0.36
   4  -6  10    0.56    0.28
  -5  -6 -10    4.41    0.55
   5  -7 -10    4.07    0.64
   4  -7 -10    0.38    0.40
  -4  -7  10    0.32    0.36
   3  -7 -10    0.85    0.43
  -3  -7  10    0.22    0.33
   2  -7 -10    0.09    0.80
  -2  -7  10    0.51    0.33
   2  -7 -10   -0.14    0.40
   1  -7 -10    1.59    0.65
   1  -7 -10    1.29    0.49
  -1  -7  10    1.01    0.36
   0  -7  10    0.66    0.33
   0  -7 -10    0.35    0.49
  -1  -7 -10   -0.06    0.48
  -2  -7 -10    3.18    1.03
  11   0 -11    4.98    0.50
  10   0 -11   14.29    0.74
   9   0 -11   -0.06    0.23
   8   0 -11    5.08    0.44
   8   0 -11    4.07    0.44
   7   0 -11   -0.23    0.21
   7   0 -11   -0.11    0.22
   6   0 -11    0.27    0.24
   6   0 -11   -0.25    0.20
   5   0 -11    0.44    0.22
   5   0 -11    0.34    0.25
   4   0 -11   40.71    1.21
   4   0 -11   39.75    1.24
   4   0 -11   41.51    1.05
   3   0 -11    6.08    0.35
   3   0 -11    6.27    0.45
   3   0 -11    6.38    0.48
  -3   0  11    5.94    0.40
  -2   0  11    6.37    0.41
   2   0 -11    6.17    0.39
   2   0 -11    6.70    0.52
   1   0 -11   54.74    1.41
   1   0 -11   50.19    1.51
  -1   0  11   55.55    1.45
   0   0  11    2.25    0.29
   0   0 -11    2.63    0.36
   1   0  11   11.13    0.57
  -1   0 -11   11.76    0.63
   2   0  11    2.38    0.35
  -2   0 -11    2.23    0.38
  -3   0 -11   38.77    1.27
   3   0  11   40.81    1.28
  -4   0 -11   15.98    0.77
   4   0  11   14.67    0.78
   5   0  11    8.20    0.66
  -5   0 -11    9.07    0.61
  -6   0 -11    2.96    0.43
   6   0  11    5.11    0.62
   7   0  11    1.54    0.47
   8   0  11   20.46    1.11
  -8   0 -11   17.20    0.98
  -9   0 -11    0.42    0.46
   9   0  11    0.80    0.50
  11  -1 -11    1.52    0.33
  11   1 -11    1.91    0.40
  10  -1 -11    6.82    0.53
  10   1 -11    7.78    0.62
   9  -1 -11    2.91    0.36
   9   1 -11    2.76    0.41
   8  -1 -11    0.78    0.31
   8  -1 -11    1.13    0.26
   8   1 -11    0.67    0.28
   7  -1 -11    0.54    0.30
   7  -1 -11    0.78    0.24
   7   1 -11    0.63    0.27
   7   1 -11    0.64    0.28
   6  -1 -11    2.26    0.29
   6  -1 -11    1.80    0.36
   6   1 -11    2.31    0.34
   6   1 -11    2.20    0.33
   5  -1 -11    0.28    0.27
   5  -1 -11   -0.02    0.15
   5  -1 -11   -0.01    0.20
   5   1 -11   -0.11    0.21
   5   1 -11    0.13    0.25
   4  -1 -11    4.59    0.45
   4  -1 -11    4.65    0.35
  -4  -1  11    4.72    0.21
   4   1 -11    4.41    0.43
   4   1 -11    5.14    0.43
   4   1 -11    4.45    0.28
   3  -1 -11   18.37    0.80
   3  -1 -11   20.37    0.68
  -3  -1  11   19.77    0.49
   3   1 -11   17.22    0.75
   3   1 -11   19.29    0.75
   2  -1 -11   41.80    1.31
   2  -1 -11   43.84    1.20
  -2  -1  11   42.56    1.00
   2   1 -11   45.40    1.28
   2   1 -11   40.25    1.27
   1  -1 -11    6.53    0.51
  -1  -1  11    6.81    0.42
   1  -1 -11    6.38    0.43
  -1   1  11    6.61    0.45
   1   1 -11    6.32    0.50
   0  -1 -11    4.50    0.39
   0  -1  11    5.11    0.41
   0  -1 -11    4.91    0.45
   0   1  11    5.19    0.41
   0   1 -11    4.05    0.42
   1  -1  11    2.63    0.32
  -1  -1 -11    2.42    0.34
  -1  -1 -11    2.96    0.39
   1   1  11    2.84    0.35
  -1   1 -11    2.61    0.38
  -2  -1 -11    0.88    0.29
   2  -1  11    1.07    0.27
  -2  -1 -11    0.86    0.29
   2   1  11    0.89    0.31
  -2   1 -11    0.61    0.30
  -3  -1 -11    9.55    0.59
   3  -1  11    9.09    0.58
  -3  -1 -11    8.45    0.59
  -3   1 -11    8.96    0.61
   3   1  11   10.81    0.67
   4  -1  11    3.50    0.43
  -4  -1 -11    2.35    0.40
  -4  -1 -11    3.07    0.42
  -4   1 -11    2.85    0.43
   4   1  11    3.50    0.46
   5  -1  11    5.04    0.53
  -5  -1 -11    4.43    0.47
  -5  -1 -11    3.38    0.47
   5   1  11    4.80    0.57
  -5   1 -11    4.20    0.49
  -6  -1 -11   20.83    0.95
  -6  -1 -11   20.00    0.87
   6  -1  11   20.50    0.96
   6   1  11   19.84    1.03
  -6   1 -11   19.62    0.87
  -7  -1 -11    9.25    0.75
   7  -1  11   10.37    0.78
   7   1  11   10.11    0.86
  -8  -1 -11    1.76    0.49
   8  -1  11    3.29    0.56
   8   1  11    3.00    0.61
   9  -1  11    1.43    0.51
  -9  -1 -11    0.11    0.70
   9   1  11    1.23    0.65
  11  -2 -11    4.38    0.41
  11   2 -11    4.85    0.57
  10  -2 -11    3.32    0.36
  10   2 -11    3.41    0.49
   9  -2 -11    1.73    0.29
   9   2 -11    1.66    0.38
   8  -2 -11    2.31    0.42
   8  -2 -11    2.81    0.32
   8   2 -11    3.35    0.45
   7  -2 -11    0.26    0.30
   7   2 -11   -0.33    0.23
   7   2 -11    0.19    0.26
   6  -2 -11    1.47    0.36
   6   2 -11    1.11    0.31
   6   2 -11    1.40    0.32
   5  -2 -11    3.96    0.34
   5  -2 -11    3.72    0.48
  -5  -2  11    3.98    0.29
   5   2 -11    4.05    0.41
   5   2 -11    2.97    0.40
  -4  -2  11   42.83    1.09
   4  -2 -11   43.19    1.42
   4  -2 -11   44.16    1.24
   4   2 -11   43.13    1.32
   4   2 -11   42.79    1.32
  -3  -2  11   17.52    0.54
   3  -2 -11   18.35    0.72
   3  -2 -11   16.90    0.82
   3   2 -11   19.00    0.77
   3   2 -11   16.71    0.76
  -2  -2  11    6.54    0.31
   2  -2 -11    6.31    0.56
   2  -2 -11    6.49    0.48
   2   2 -11    6.43    0.54
   2   2 -11    6.77    0.48
   1  -2 -11   15.52    0.76
  -1  -2  11   16.13    0.51
   1  -2 -11   15.76    0.69
   1   2 -11   15.40    0.72
   0  -2  11    2.38    0.22
   0  -2 -11    2.54    0.40
   0  -2 -11    2.62    0.34
   0  -2 -11    2.50    0.20
   0   2 -11    1.99    0.36
  -1  -2 -11    2.70    0.24
  -1  -2 -11    2.62    0.40
  -1  -2 -11    2.36    0.34
   1  -2  11    2.28    0.23
   1  -2  11    2.72    0.33
  -1   2 -11    2.73    0.40
   2  -2  11    0.54    0.24
  -2  -2 -11    0.49    0.28
  -2  -2 -11    0.50    0.30
  -2   2 -11    0.48    0.31
  -3  -2 -11    2.47    0.45
  -3  -2 -11    2.29    0.38
  -3  -2 -11    2.69    0.41
   3  -2  11    2.42    0.35
  -3   2 -11    3.06    0.41
   4  -2  11    4.96    0.46
  -4  -2 -11    5.35    0.54
  -4  -2 -11    4.57    0.49
  -4   2 -11    5.30    0.51
  -5  -2 -11   12.12    0.73
   5  -2  11   11.74    0.70
  -5  -2 -11   11.15    0.72
  -5   2 -11   10.96    0.69
  -6  -2 -11    3.60    0.52
   6  -2  11    4.28    0.50
  -6  -2 -11    4.37    0.52
  -6   2 -11    2.45    0.44
  -7  -2 -11    5.10    0.62
   7  -2  11    6.78    0.64
  -7   2 -11    4.09    0.51
   8  -2  11    0.88    0.41
  -8  -2 -11    0.17    0.43
  11   3 -11    0.53    0.36
  10   3 -11    8.24    0.74
   9   3 -11    2.06    0.43
   8  -3 -11    1.61    0.44
   8   3 -11    3.00    0.47
   7  -3 -11    4.10    0.55
   7   3 -11    4.28    0.44
   7   3 -11    4.49    0.50
   6  -3 -11    6.22    0.66
  -6  -3  11    5.85    0.42
   6   3 -11    6.12    0.53
   6   3 -11    7.20    0.59
  -5  -3  11   12.15    0.53
   5  -3 -11   12.31    0.61
   5  -3 -11   10.94    0.77
   5   3 -11   11.16    0.66
   5   3 -11   12.43    0.70
   4  -3 -11    2.70    0.37
  -4  -3  11    1.72    0.26
   4  -3 -11    2.06    0.45
   4   3 -11    1.89    0.34
   4   3 -11    1.93    0.37
   3  -3 -11   24.78    0.95
  -3  -3  11   25.77    0.78
   3  -3 -11   24.82    1.09
   3   3 -11   24.68    0.93
  -2  -3  11    2.09    0.25
   2  -3 -11    2.19    0.42
   2  -3 -11    2.24    0.37
   2   3 -11    2.73    0.35
   1  -3 -11    0.54    0.29
   1  -3 -11    0.36    0.31
  -1  -3  11    0.63    0.19
   0  -3 -11    5.78    0.53
   0  -3 -11    6.98    0.62
   0  -3 -11    7.59    0.37
   0  -3  11    7.60    0.39
   1  -3  11    1.57    0.24
  -1  -3 -11    1.57    0.46
  -1  -3 -11    1.53    0.23
  -1  -3 -11    0.95    0.31
  -1  -3 -11    1.57    0.40
  -2  -3 -11   12.66    0.79
   2  -3  11   12.97    0.53
   2  -3  11   13.49    0.63
  -2  -3 -11   12.71    0.55
  -2  -3 -11   11.63    0.72
  -2  -3 -11   12.09    0.88
   3  -3  11    2.33    0.29
  -3  -3 -11    2.51    0.45
   3  -3  11    1.86    0.33
  -3  -3 -11    2.00    0.29
  -3  -3 -11    1.76    0.39
  -4  -3 -11   11.65    0.76
  -4  -3 -11   12.37    0.61
   4  -3  11   11.60    0.66
  -4  -3 -11   12.30    0.78
  -5  -3 -11    0.63    0.35
  -5  -3 -11    0.34    0.28
  -5  -3 -11    0.62    0.38
   5  -3  11    0.83    0.32
  -5   3 -11    0.94    0.36
  -6  -3 -11    1.63    0.47
   6  -3  11    2.00    0.42
  -6   3 -11    1.30    0.37
  -7  -3 -11    3.65    0.59
   7  -3  11    4.22    0.52
  -7   3 -11    3.79    0.49
  -8  -3 -11    2.72    0.67
   8  -3  11    2.78    0.53
   9  -4 -11    2.55    0.65
   8  -4 -11   -0.40    0.35
   7  -4 -11    2.22    0.50
  -7  -4  11    2.41    0.44
  -6  -4  11    1.09    0.29
   6  -4 -11    1.22    0.44
   6   4 -11    0.69    0.33
   5  -4 -11    0.95    0.41
   5  -4 -11    0.68    0.28
  -5  -4  11    0.58    0.25
   4  -4 -11    4.56    0.48
   4  -4 -11    4.38    0.61
  -4  -4  11    5.00    0.42
  -3  -4  11    8.76    0.48
   3  -4 -11    7.40    0.73
   3  -4 -11    7.28    0.62
   2  -4 -11    5.86    0.57
  -2  -4  11    6.45    0.43
   2  -4 -11    5.88    0.68
   1  -4 -11    0.69    0.38
  -1  -4  11    0.52    0.22
   1  -4 -11    0.38    0.42
   1  -4 -11    1.32    0.39
   0  -4 -11    0.55    0.47
   0  -4 -11   -0.07    0.34
   0  -4  11    0.44    0.22
   0  -4 -11    0.61    0.34
   1  -4  11    2.41    0.30
  -1  -4 -11    1.93    0.43
  -1  -4 -11    2.52    0.51
  -1  -4 -11    3.41    0.67
  -1  -4 -11    2.87    0.44
  -2  -4 -11    7.48    0.73
  -2  -4 -11    7.51    0.49
  -2  -4 -11    5.19    0.59
   2  -4  11    6.99    0.45
   3  -4  11    1.51    0.34
   3  -4  11    1.67    0.28
  -3  -4 -11    1.22    0.44
  -3  -4 -11    1.73    0.32
  -3  -4 -11    1.40    0.40
   4  -4  11    1.31    0.32
  -4  -4 -11    0.49    0.38
  -4  -4 -11    1.29    0.40
  -4  -4 -11    1.27    0.32
   4  -4  11    0.74    0.27
  -5  -4 -11   -0.17    0.37
  -5  -4 -11   -0.21    0.35
  -5  -4 -11    0.07    0.29
   5  -4  11   -0.35    0.25
  -6  -4 -11    9.47    0.71
  -6  -4 -11   10.96    0.89
   6  -4  11   10.91    0.71
  -7  -4 -11    0.18    0.53
   7  -4  11    0.41    0.34
  -7  -4 -11    0.32    0.37
   9  -5 -11    1.28    0.59
   8  -5 -11    1.93    0.53
   8  -5 -11    2.54    0.70
   7  -5 -11    1.32    0.48
   7  -5 -11    1.97    0.59
  -7  -5  11    2.05    0.45
   6  -5 -11   -0.02    0.43
  -6  -5  11   -0.37    0.26
   6  -5 -11   -0.21    0.40
   5  -5 -11    0.15    0.46
   5  -5 -11    0.88    0.44
  -5  -5  11    0.87    0.31
   5  -5 -11    1.07    0.35
   4  -5 -11    0.12    0.31
   4  -5 -11    0.10    0.38
   4  -5 -11   -0.72    0.40
  -4  -5  11    0.21    0.26
   3  -5 -11    6.76    0.79
  -3  -5  11    6.81    0.52
   3  -5 -11    5.93    0.62
   3  -5 -11    8.80    1.03
   2  -5 -11   -0.18    0.37
  -2  -5  11   -0.04    0.24
   2  -5 -11    0.37    0.50
   2  -5 -11    0.55    0.36
   1  -5 -11    9.61    1.08
   1  -5 -11    7.63    0.81
   1  -5 -11    9.15    0.75
  -1  -5  11    9.54    0.56
   0  -5 -11    0.14    0.34
   0  -5  11    0.27    0.24
   0  -5 -11    0.34    0.42
  -1  -5 -11   16.22    1.07
   1  -5  11   16.87    0.72
  -1  -5 -11   16.92    0.98
   2  -5  11    2.44    0.36
  -2  -5 -11    2.04    0.49
  -2  -5 -11    1.65    0.52
  -3  -5 -11    0.48    0.43
  -3  -5 -11    0.41    0.42
   3  -5  11    0.56    0.27
  -4  -5 -11    0.92    0.47
  -4  -5 -11    0.00    0.31
   4  -5  11    0.21    0.28
   4  -5  11    0.11    0.25
  -4  -5 -11    1.14    0.47
  -5  -5 -11    3.95    0.52
   5  -5  11    3.86    0.44
  -5  -5 -11    3.55    0.62
   5  -5  11    4.36    0.48
  -6  -5 -11    0.14    0.37
  -7  -6  11    2.19    0.59
  -6  -6  11    0.30    0.33
   6  -6 -11   -0.25    0.59
   6  -6 -11   -0.48    0.41
   5  -6 -11    0.20    0.34
   5  -6 -11    0.28    0.46
  -5  -6  11   -0.07    0.30
  -4  -6  11    9.00    0.64
   4  -6 -11    8.10    0.92
   4  -6 -11    7.23    0.69
  -3  -6  11    2.88    0.42
   3  -6 -11    2.23    0.61
   3  -6 -11    2.00    0.46
   2  -6 -11    1.07    0.53
  -2  -6  11    1.58    0.35
   2  -6 -11    0.38    0.39
   1  -6 -11    2.04    0.49
   1  -6 -11    1.64    0.58
  -1  -6  11    0.93    0.31
   0  -6 -11    4.70    0.76
   0  -6  11    4.62    0.47
   0  -6 -11    3.45    0.59
  -1  -6 -11    0.73    0.51
   1  -6  11    0.00    0.26
  -1  -6 -11    0.05    0.41
  -2  -6 -11    1.62    0.56
   2  -6  11    1.70    0.36
  -2  -6 -11    2.17    0.58
  -3  -6 -11    0.93    0.52
  -3  -6 -11    0.79    0.50
   3  -6  11    0.67    0.31
  -4  -6 -11   -0.22    0.46
  -3  -7  11    0.65    0.43
  -2  -7  11    4.68    0.63
  11   0 -12   20.15    0.91
  10   0 -12    5.55    0.51
   9   0 -12    0.05    0.25
   8   0 -12    0.31    0.25
   8   0 -12    0.36    0.28
   7   0 -12    1.79    0.32
   7   0 -12    1.50    0.34
   6   0 -12   17.38    0.75
   6   0 -12   17.85    0.79
   5   0 -12    3.42    0.37
   5   0 -12    3.66    0.44
   4   0 -12   14.72    0.72
   4   0 -12   16.00    0.69
   4   0 -12   15.26    0.54
   3   0 -12   11.68    0.49
   3   0 -12   11.41    0.63
   2   0 -12   50.28    1.33
   2   0 -12   48.44    1.48
  -1   0  12    0.34    0.22
   1   0 -12    0.00    0.23
   1   0 -12    0.21    0.27
   0   0 -12    0.30    0.26
   0   0  12   -0.09    0.21
   0   0 -12    0.31    0.29
   1   0  12    8.08    0.56
  -1   0 -12    9.41    0.64
  -2   0 -12    0.04    0.31
   2   0  12    0.52    0.29
   3   0  12   14.17    0.76
  -3   0 -12   14.96    0.78
  -4   0 -12    0.88    0.35
   4   0  12    0.38    0.32
   5   0  12    3.13    0.48
  -5   0 -12    2.54    0.44
  -6   0 -12    0.37    0.34
   6   0  12    0.33    0.36
  -7   0 -12    1.67    0.48
   7   0  12    1.75    0.50
  -8   0 -12   12.63    0.90
   8   0  12   12.86    0.98
   9   0  12    0.71    0.48
  11  -1 -12    0.25    0.27
  11   1 -12    0.35    0.31
  10  -1 -12    6.01    0.52
  10   1 -12    4.42    0.51
   9  -1 -12    3.39    0.39
   9   1 -12    3.26    0.42
   8  -1 -12    1.34    0.29
   8  -1 -12    1.65    0.37
   8   1 -12    1.67    0.35
   7  -1 -12    1.79    0.30
   7  -1 -12    1.34    0.37
   7   1 -12    1.36    0.32
   7   1 -12    1.10    0.30
   6  -1 -12    1.46    0.38
   6  -1 -12    2.06    0.31
   6   1 -12    1.45    0.32
   6   1 -12    1.72    0.35
   5  -1 -12    1.64    0.36
   5   1 -12    2.25    0.38
   5   1 -12    2.21    0.33
   4  -1 -12    3.42    0.44
   4  -1 -12    3.60    0.32
   4   1 -12    3.77    0.40
   4   1 -12    3.02    0.25
   4   1 -12    3.24    0.41
   3  -1 -12    9.11    0.48
   3  -1 -12    8.50    0.60
   3   1 -12    8.94    0.59
   3   1 -12   10.42    0.58
  -2  -1  12   22.31    0.79
   2  -1 -12   22.35    0.79
   2  -1 -12   22.18    0.90
   2   1 -12   22.69    0.90
   1  -1 -12    1.94    0.31
   1  -1 -12    1.68    0.35
  -1  -1  12    1.95    0.29
   1   1 -12    1.49    0.34
   0  -1 -12   27.00    1.02
   0  -1 -12   27.55    0.93
   0  -1  12   27.07    0.92
   0   1 -12   25.72    1.00
  -1  -1 -12    9.04    0.56
   1  -1  12    9.05    0.56
  -1  -1 -12    9.62    0.63
   1   1  12    9.07    0.70
  -1   1 -12    8.84    0.63
  -2  -1 -12    8.99    0.59
   2  -1  12    8.56    0.57
  -2  -1 -12    8.77    0.62
  -2   1 -12    9.42    0.64
   2   1  12    8.96    0.64
   3  -1  12   15.26    0.76
  -3  -1 -12   14.17    0.75
  -3  -1 -12   14.91    0.76
  -3   1 -12   15.41    0.79
   3   1  12   14.92    0.81
  -4  -1 -12    0.14    0.29
   4  -1  12    0.23    0.30
  -4  -1 -12   -0.50    0.30
  -4   1 -12   -0.33    0.30
   4   1  12    0.31    0.34
  -5  -1 -12    2.47    0.44
  -5  -1 -12    2.19    0.41
   5  -1  12    2.54    0.44
   5   1  12    1.92    0.48
  -5   1 -12    2.76    0.46
  -6  -1 -12    4.83    0.53
   6  -1  12    6.40    0.63
  -6  -1 -12    5.24    0.60
   6   1  12    6.19    0.81
  -6   1 -12    6.29    0.60
  -7  -1 -12    0.26    0.41
   7  -1  12    1.27    0.44
   8  -1  12    2.39    0.55
  -8  -1 -12    1.09    0.49
  11   2 -12    0.06    0.32
  10  -2 -12    1.26    0.29
  10   2 -12    0.79    0.36
   9  -2 -12    3.04    0.35
   9   2 -12    2.70    0.45
   8  -2 -12    4.04    0.55
   8   2 -12    3.46    0.47
   7  -2 -12    2.25    0.46
   7   2 -12    2.14    0.38
   7   2 -12    2.04    0.38
   6  -2 -12    2.21    0.44
   6   2 -12    1.84    0.39
   6   2 -12    1.87    0.36
   5  -2 -12    5.99    0.58
   5  -2 -12    7.13    0.49
   5   2 -12    7.31    0.55
   5   2 -12    6.87    0.57
   4  -2 -12    4.16    0.38
   4  -2 -12    3.73    0.49
   4   2 -12    4.03    0.47
   4   2 -12    3.86    0.41
   3  -2 -12    3.95    0.48
  -3  -2  12    3.82    0.26
   3  -2 -12    3.81    0.40
   3   2 -12    3.73    0.46
   3   2 -12    4.59    0.43
   2  -2 -12    1.43    0.30
  -2  -2  12    1.85    0.19
   2  -2 -12    1.63    0.38
   2   2 -12    1.60    0.30
   2   2 -12    1.27    0.37
   1  -2 -12   21.49    0.85
  -1  -2  12   22.31    0.63
   1  -2 -12   22.19    0.95
   1   2 -12   20.28    0.90
   0  -2 -12   14.42    0.78
   0  -2  12   14.38    0.66
   0  -2 -12   15.57    0.73
   0  -2  12   15.35    0.51
   0   2 -12   15.17    0.77
  -1  -2 -12   14.99    0.73
   1  -2  12   14.10    0.66
  -1  -2 -12   14.12    0.51
  -1  -2 -12   14.47    0.78
  -1   2 -12   13.76    0.75
   2  -2  12    6.44    0.52
  -2  -2 -12    6.21    0.54
  -2  -2 -12    7.09    0.60
  -2   2 -12    6.37    0.57
  -3  -2 -12    1.35    0.36
  -3  -2 -12    1.36    0.37
   3  -2  12    1.25    0.31
  -3  -2 -12    1.10    0.39
  -3   2 -12    0.54    0.35
  -4  -2 -12    6.34    0.61
   4  -2  12    5.24    0.51
  -4  -2 -12    5.25    0.57
  -4   2 -12    5.23    0.55
  -5  -2 -12    1.14    0.37
  -5  -2 -12    0.78    0.39
   5  -2  12    1.00    0.36
  -5   2 -12    1.95    0.43
  -6  -2 -12    4.76    0.59
   6  -2  12    4.23    0.53
  -6   2 -12    4.44    0.54
  -7  -2 -12    5.03    0.64
   7  -2  12    6.74    0.66
   8  -2  12    3.25    0.54
  11   3 -12    0.57    0.40
  10   3 -12    8.95    0.77
   9   3 -12    3.08    0.49
   8  -3 -12    3.29    0.53
   8   3 -12    3.73    0.50
   7  -3 -12    0.37    0.36
   7   3 -12   -0.14    0.31
   7   3 -12    0.38    0.31
   6  -3 -12    3.06    0.53
   6   3 -12    3.55    0.45
   6   3 -12    3.03    0.45
   5  -3 -12   10.66    0.81
   5  -3 -12   11.27    0.61
   5   3 -12   11.08    0.69
   5   3 -12   10.05    0.68
  -4  -3  12    7.10    0.39
   4  -3 -12    6.25    0.52
   4  -3 -12    6.29    0.66
   4   3 -12    5.55    0.50
   4   3 -12    6.03    0.56
   3  -3 -12   13.71    0.84
  -3  -3  12   12.70    0.50
   3  -3 -12   13.01    0.70
   3   3 -12   11.65    0.71
   2  -3 -12    2.99    0.42
   2  -3 -12    1.91    0.42
  -2  -3  12    2.98    0.28
   2   3 -12    2.56    0.42
   1  -3 -12    0.29    0.31
  -1  -3  12    1.00    0.21
   1  -3 -12    1.14    0.37
   1   3 -12    0.47    0.32
   0  -3 -12    4.59    0.50
   0  -3  12    4.63    0.34
   0  -3 -12    4.84    0.58
   1  -3  12    4.45    0.35
  -1  -3 -12    4.70    0.57
   1  -3  12    4.44    0.43
  -1  -3 -12    3.87    0.48
  -2  -3 -12    5.29    0.39
  -2  -3 -12    5.92    0.72
  -2  -3 -12    4.86    0.59
   2  -3  12    5.07    0.46
   2  -3  12    5.58    0.39
  -2  -3 -12    5.77    0.59
  -3  -3 -12   -0.20    0.30
  -3  -3 -12    0.74    0.39
  -3  -3 -12    1.07    0.26
   3  -3  12    1.09    0.30
  -3   3 -12    0.73    0.37
   4  -3  12    2.05    0.38
  -4  -3 -12    1.93    0.46
  -4  -3 -12    1.90    0.46
  -4  -3 -12    2.55    0.35
  -4   3 -12    1.14    0.39
  -5  -3 -12    2.45    0.51
   5  -3  12    2.62    0.42
  -5  -3 -12    2.05    0.36
  -5  -3 -12    2.75    0.49
  -5   3 -12    2.00    0.41
  -6  -3 -12    3.48    0.46
  -6  -3 -12    2.36    0.52
   6  -3  12    3.31    0.49
  -6   3 -12    2.80    0.48
   7  -3  12    1.56    0.42
  -7  -3 -12    2.82    0.58
  -7   3 -12    1.33    0.48
   8  -4 -12    5.81    0.72
   7  -4 -12    9.93    0.86
   6  -4 -12    0.23    0.37
   6   4 -12   -0.34    0.33
   5  -4 -12    0.06    0.36
  -5  -4  12    0.83    0.26
   5  -4 -12    0.44    0.29
   5   4 -12    0.69    0.34
   4  -4 -12    4.69    0.52
  -4  -4  12    5.37    0.42
   4  -4 -12    5.63    0.69
   3  -4 -12    4.88    0.55
  -3  -4  12    4.74    0.40
   3  -4 -12    4.27    0.63
   2  -4 -12   10.71    0.72
  -2  -4  12   10.90    0.53
   2  -4 -12   10.44    0.83
   1  -4 -12    5.98    0.81
  -1  -4  12    5.53    0.41
   1  -4 -12    4.92    0.65
   1  -4 -12    5.75    0.61
   0  -4  12    2.72    0.31
   0  -4 -12    2.02    0.62
   0  -4 -12    2.20    0.46
   0  -4 -12    2.30    0.52
  -1  -4 -12    1.04    0.53
  -1  -4 -12    1.39    0.40
  -1  -4 -12    0.00    0.36
   1  -4  12    1.41    0.26
  -2  -4 -12    0.37    0.36
  -2  -4 -12    0.34    0.39
   2  -4  12    0.24    0.22
   2  -4  12    0.08    0.25
   3  -4  12    1.10    0.27
  -3  -4 -12    1.71    0.45
   3  -4  12    1.30    0.32
  -3  -4 -12    1.35    0.45
  -4  -4 -12    1.05    0.47
  -4  -4 -12    0.11    0.36
  -4  -4 -12    0.58    0.35
   4  -4  12    1.64    0.35
  -5  -4 -12    3.16    0.57
  -5  -4 -12    3.93    0.47
   5  -4  12    4.05    0.49
  -5  -4 -12    3.95    0.64
  -6  -4 -12    0.24    0.35
  -6  -4 -12    1.05    0.50
   6  -4  12    1.29    0.39
  -6   4 -12    1.39    0.40
  -7  -4 -12   -0.12    0.36
  -7   4 -12    0.90    0.41
   8  -5 -12    2.34    0.58
   7  -5 -12    1.72    0.62
   7  -5 -12    0.92    0.47
   6  -5 -12    0.40    0.46
   6  -5 -12    0.44    0.48
   6   5 -12    1.09    0.37
   5  -5 -12    0.94    0.58
  -5  -5  12    0.80    0.30
   5  -5 -12    1.81    0.55
   5  -5 -12    0.88    0.35
   4  -5 -12    0.58    0.48
   4  -5 -12    0.48    0.35
  -4  -5  12    0.30    0.26
   4  -5 -12    0.25    0.53
   3  -5 -12    4.61    0.86
   3  -5 -12    4.60    0.58
  -3  -5  12    3.94    0.42
   3  -5 -12    3.77    0.64
   2  -5 -12    2.80    0.52
   2  -5 -12    2.39    0.56
   2  -5 -12    2.87    0.74
  -2  -5  12    3.84    0.40
   1  -5 -12    0.04    0.55
   1  -5 -12    0.59    0.40
  -1  -5  12    0.72    0.28
   1  -5 -12    1.38    0.51
   0  -5  12    4.15    0.41
   0  -5 -12    2.88    0.54
   0  -5 -12    4.01    0.66
  -1  -5 -12    0.93    0.47
   1  -5  12    1.20    0.30
  -1  -5 -12    0.73    0.43
  -2  -5 -12    0.74    0.48
  -2  -5 -12   -0.14    0.38
   2  -5  12   -0.10    0.23
   3  -5  12    4.50    0.44
  -3  -5 -12    3.53    0.63
   3  -5  12    4.36    0.50
  -3  -5 -12    3.81    0.65
  -4  -5 -12    8.11    0.83
   4  -5  12    7.12    0.61
   4  -5  12    7.02    0.55
  -4  -5 -12    5.49    0.72
   5  -5  12    2.36    0.64
   5  -6 -12    0.04    0.34
   5  -6 -12    0.54    0.58
  -5  -6  12    0.73    0.35
  -4  -6  12    0.45    0.32
   4  -6 -12    0.91    0.55
   4  -6 -12    1.33    0.45
   3  -6 -12    2.18    0.63
  -3  -6  12    2.27    0.39
   3  -6 -12    1.25    0.47
  -2  -6  12    0.28    0.29
   2  -6 -12    0.43    0.49
   2  -6 -12    0.18    0.40
  -1  -6  12   -0.06    0.28
   1  -6 -12   -0.25    0.45
   1  -6 -12    0.22    0.40
   0  -6  12    4.80    0.48
   0  -6 -12    4.00    0.64
   0  -6 -12    3.93    0.73
  -1  -6 -12    3.69    0.66
  -1  -6 -12    3.36    0.70
   1  -6  12    3.60    0.43
  -2  -6 -12    0.06    0.44
   2  -6  12    0.00    0.27
  -3  -6 -12    0.48    0.52
  10   0 -13    3.18    0.43
   9   0 -13    2.10    0.38
   8   0 -13    0.90    0.29
   8   0 -13    0.92    0.34
   7   0 -13    3.47    0.46
   7   0 -13    3.34    0.40
   6   0 -13   11.59    0.68
   6   0 -13   11.37    0.64
   5   0 -13    0.09    0.22
   5   0 -13   -0.20    0.27
   4   0 -13    2.15    0.39
   3   0 -13   -0.32    0.26
   3   0 -13    0.14    0.19
   2   0 -13    0.08    0.22
   2   0 -13    0.20    0.30
   1   0 -13   -0.10    0.29
   1   0 -13    0.04    0.25
   0   0 -13    0.69    0.35
   0   0 -13    0.66    0.30
   1   0  13   -0.07    0.25
  -1   0 -13   -0.19    0.29
  -1   0 -13    0.07    0.31
  -2   0 -13   48.76    1.57
   2   0  13   50.81    1.53
  -3   0 -13    0.55    0.35
   3   0  13    0.97    0.35
   4   0  13    0.68    0.36
  -4   0 -13    0.39    0.34
  -5   0 -13    2.13    0.48
  -5   0 -13    3.40    0.48
   5   0  13    4.10    0.58
  -6   0 -13    1.08    0.39
   6   0  13    1.46    0.47
  -6   0 -13    0.20    0.42
  -7   0 -13    9.24    0.80
   7   0  13   12.83    0.96
   8   0  13    8.05    1.32
  11   1 -13    0.67    0.40
  10  -1 -13    2.04    0.36
  10   1 -13    1.68    0.39
   9  -1 -13    9.80    0.62
   9   1 -13   10.64    0.70
   8  -1 -13   -0.34    0.29
   8  -1 -13   -0.04    0.24
   8   1 -13    0.24    0.28
   7  -1 -13    7.21    0.64
   7  -1 -13    7.21    0.53
   7   1 -13    7.47    0.58
   7   1 -13    7.21    0.58
   6  -1 -13    2.90    0.45
   6   1 -13    2.94    0.39
   6   1 -13    3.10    0.44
   5  -1 -13    6.13    0.58
   5   1 -13    7.61    0.55
   5   1 -13    6.49    0.56
   4  -1 -13    0.76    0.33
   4  -1 -13    1.55    0.26
   4   1 -13    1.11    0.36
   4   1 -13    1.74    0.33
   3  -1 -13    4.07    0.47
   3  -1 -13    4.20    0.37
   3   1 -13    4.32    0.49
   3   1 -13    4.14    0.34
   3   1 -13    4.28    0.44
   2  -1 -13    1.97    0.38
   2  -1 -13    1.87    0.30
   2   1 -13    2.44    0.42
  -1  -1  13    3.67    0.38
   1  -1 -13    2.84    0.35
   1  -1 -13    3.16    0.43
   1   1 -13    2.43    0.43
   0  -1  13   16.69    0.73
   0  -1 -13   16.15    0.81
   0  -1 -13   18.25    0.76
   0   1 -13   16.07    0.81
   1  -1  13    0.38    0.27
  -1  -1 -13    0.34    0.32
  -1  -1 -13    0.67    0.31
  -1   1 -13    0.69    0.36
  -2  -1 -13   19.76    0.87
  -2  -1 -13   19.75    0.92
   2  -1  13   21.06    0.87
  -2   1 -13   18.60    0.90
  -3  -1 -13    5.86    0.56
  -3  -1 -13    5.44    0.56
   3  -1  13    6.48    0.58
  -3   1 -13    5.39    0.57
  -4  -1 -13    1.23    0.40
  -4  -1 -13    1.27    0.38
   4  -1  13    0.86    0.35
  -4   1 -13    1.10    0.40
   5  -1  13    1.71    0.44
  -5  -1 -13    2.25    0.43
  -5  -1 -13    0.81    0.42
  -5   1 -13    0.58    0.39
  -6  -1 -13   -0.51    0.30
   6  -1  13    0.07    0.37
  -6  -1 -13   -0.37    0.37
  -6   1 -13   -0.60    0.34
   7  -1  13    4.90    0.64
  -7  -1 -13    3.59    0.59
   8  -1  13    5.46    0.72
  10   2 -13    0.04    0.34
   9   2 -13    5.45    0.58
   8  -2 -13    3.04    0.52
   8   2 -13    3.67    0.49
   7  -2 -13   -0.27    0.33
   7   2 -13    0.59    0.33
   7   2 -13    0.85    0.32
   6  -2 -13    5.41    0.61
   6   2 -13    5.01    0.54
   6   2 -13    6.43    0.56
   5  -2 -13    3.16    0.48
   5   2 -13    3.93    0.45
   5   2 -13    3.29    0.48
   4  -2 -13    1.59    0.41
   4  -2 -13    1.82    0.31
   4   2 -13    1.82    0.41
   4   2 -13    2.54    0.37
   3  -2 -13   15.13    0.86
   3  -2 -13   17.78    0.75
   3   2 -13   15.15    0.82
   3   2 -13   16.27    0.77
   2  -2 -13    0.60    0.28
   2  -2 -13    0.49    0.32
   2   2 -13   -0.08    0.31
  -1  -2  13    6.95    0.34
   1  -2 -13    7.96    0.65
   1  -2 -13    7.05    0.55
  -1  -2  13    7.77    0.52
   1   2 -13    7.47    0.63
   0  -2 -13    5.93    0.60
   0  -2  13    5.92    0.50
   0  -2 -13    7.54    0.57
   0   2 -13    7.89    0.64
   1  -2  13   12.22    0.66
  -1  -2 -13   13.69    0.79
  -1  -2 -13   13.54    0.74
  -1   2 -13   13.37    0.77
   2  -2  13    8.32    0.60
  -2  -2 -13    7.97    0.62
  -2  -2 -13    8.11    0.68
  -2   2 -13    7.62    0.65
  -3  -2 -13    1.19    0.38
  -3  -2 -13    0.87    0.37
   3  -2  13    1.06    0.33
  -3   2 -13    1.09    0.41
  -4  -2 -13    1.27    0.40
  -4  -2 -13    1.45    0.41
   4  -2  13    1.41    0.39
  -4   2 -13    1.03    0.41
  -5  -2 -13    5.07    0.61
  -5  -2 -13    5.78    0.62
   5  -2  13    6.89    0.65
  -5   2 -13    5.94    0.63
   6  -2  13    2.20    0.49
  -6  -2 -13    1.82    0.49
  -6   2 -13    2.08    0.48
  -7  -2 -13   -0.74    0.45
   7  -2  13    0.07    0.37
  10   3 -13   10.39    0.81
   9   3 -13    1.63    0.43
   8  -3 -13    2.13    0.49
   8   3 -13    2.53    0.45
   7  -3 -13    1.16    0.46
   7   3 -13    1.12    0.39
   7   3 -13    2.13    0.41
   6  -3 -13    2.93    0.52
   6   3 -13    4.44    0.50
   6   3 -13    3.30    0.50
   5  -3 -13   20.28    1.08
   5   3 -13   20.67    1.09
   5   3 -13   19.55    0.93
   4  -3 -13   10.98    0.82
   4  -3 -13   11.36    0.65
   4   3 -13   10.11    0.74
   3  -3 -13   10.38    0.68
   3  -3 -13   10.52    0.80
   3   3 -13   11.41    0.74
  -2  -3  13    0.15    0.17
   2  -3 -13   -0.27    0.29
   2  -3 -13    0.31    0.36
   2   3 -13    0.10    0.33
   1  -3 -13    4.18    0.58
   1  -3 -13    4.58    0.50
  -1  -3  13    4.46    0.34
   1   3 -13    4.56    0.53
   0  -3  13    2.19    0.26
   0  -3 -13    2.50    0.42
   0  -3 -13    2.19    0.48
   0   3 -13    1.85    0.40
  -1  -3 -13    3.24    0.52
  -1  -3 -13    2.46    0.43
   1  -3  13    3.23    0.40
   1  -3  13    3.18    0.30
  -1   3 -13    2.33    0.43
  -2  -3 -13    8.59    0.86
  -2  -3 -13    7.01    0.69
   2  -3  13    9.12    0.61
  -2  -3 -13    6.80    0.65
  -2   3 -13    7.41    0.65
  -3  -3 -13    0.24    0.36
   3  -3  13   -0.02    0.25
  -3  -3 -13    0.03    0.36
  -3   3 -13   -0.47    0.33
  -4  -3 -13    0.98    0.44
  -4  -3 -13    0.85    0.41
   4  -3  13    1.08    0.35
  -4   3 -13    0.66    0.39
  -5  -3 -13    1.56    0.46
  -5  -3 -13    1.74    0.49
   5  -3  13    1.81    0.42
  -5  -3 -13    1.90    0.60
  -5   3 -13    1.73    0.46
   6  -3  13    0.13    0.33
  -6  -3 -13    0.06    0.41
  -6  -3 -13   -0.07    0.32
  -6   3 -13    0.50    0.40
  -7  -3 -13    0.21    0.38
   8  -4 -13    7.31    0.79
   7  -4 -13    1.42    0.51
   6  -4 -13    0.25    0.39
   6   4 -13    0.42    0.38
   5  -4 -13    1.18    0.47
   5   4 -13    1.64    0.44
   4  -4 -13    0.98    0.35
   4  -4 -13    0.69    0.43
   4   4 -13    1.43    0.40
   3  -4 -13    0.25    0.40
  -3  -4  13    0.39    0.23
   3  -4 -13    0.23    0.33
   3   4 -13    0.39    0.36
  -2  -4  13    0.08    0.20
   2  -4 -13    0.12    0.37
   2  -4 -13   -0.14    0.31
   1  -4 -13    3.54    0.71
   1  -4 -13    3.20    0.58
  -1  -4  13    2.61    0.31
   1  -4 -13    2.92    0.48
   0  -4 -13   19.98    1.30
   0  -4  13   16.35    0.65
   0  -4 -13   15.50    0.93
   0  -4 -13   15.17    1.02
   1  -4  13    1.58    0.28
  -1  -4 -13    1.72    0.46
  -1  -4 -13    2.58    0.54
  -1  -4 -13    2.04    0.58
   2  -4  13    2.95    0.43
  -2  -4 -13    3.77    0.62
   2  -4  13    2.05    0.31
  -2  -4 -13    2.33    0.51
  -3  -4 -13    1.09    0.45
   3  -4  13    1.57    0.31
   3  -4  13    1.67    0.37
  -3  -4 -13    2.01    0.52
  -4  -4 -13    2.45    0.56
   4  -4  13    1.49    0.39
  -4  -4 -13    2.20    0.51
  -4   4 -13    1.48    0.42
   5  -4  13    0.25    0.35
  -5  -4 -13    0.26    0.43
  -5   4 -13    0.46    0.40
  -6   4 -13    1.20    0.39
   8  -5 -13    3.08    1.01
   7  -5 -13    4.06    0.68
   6  -5 -13    0.60    0.46
   6  -5 -13    0.50    0.52
   6   5 -13    0.98    0.41
   5  -5 -13    4.07    0.71
   5  -5 -13    4.45    0.84
   5   5 -13    3.81    0.52
   4  -5 -13    2.70    0.75
   4  -5 -13    1.82    0.43
   4  -5 -13    1.32    0.53
   3  -5 -13    1.06    0.43
   3  -5 -13    0.55    0.48
  -3  -5  13    0.80    0.29
   3  -5 -13    1.13    0.63
   2  -5 -13    4.14    0.87
   2  -5 -13    3.84    0.57
  -2  -5  13    4.89    0.45
   2  -5 -13    5.83    0.77
  -1  -5  13    9.11    0.55
   1  -5 -13    6.87    0.82
   1  -5 -13    8.31    0.79
   1  -5 -13    8.78    1.08
   0  -5 -13    0.54    0.47
   0  -5  13    0.51    0.26
   0  -5 -13   -0.04    0.38
  -1  -5 -13    8.75    0.90
   1  -5  13   10.09    0.59
  -1  -5 -13   10.67    0.88
  -2  -5 -13    2.48    0.60
   2  -5  13    2.82    0.45
   2  -5  13    3.53    0.39
  -2  -5 -13    2.60    0.57
  -3  -5 -13   -0.20    0.42
  -3  -5 -13    0.40    0.47
   3  -5  13    0.47    0.33
   3  -5  13    0.32    0.28
   4  -5  13    4.39    0.47
  -4  -5 -13    5.08    0.73
   4  -5  13    5.15    0.57
   4  -6 -13    0.27    0.42
  -3  -6  13    0.33    0.32
   3  -6 -13    0.18    0.38
  -2  -6  13    2.28    0.39
   2  -6 -13    1.53    0.50
   2  -6 -13    1.94    0.98
  -1  -6  13    2.12    0.38
   1  -6 -13    1.47    0.51
   1  -6 -13    2.34    0.84
   0  -6 -13    2.82    1.06
   0  -6 -13    2.32    0.59
   0  -6  13    2.69    0.41
   1  -6  13    7.97    0.60
  10   0 -14    4.94    0.52
   9   0 -14    3.28    0.45
   8   0 -14    1.59    0.36
   8   0 -14    1.12    0.39
   7   0 -14    1.05    0.32
   7   0 -14    1.09    0.36
   6   0 -14    0.00    0.25
   6   0 -14    0.16    0.32
   5   0 -14   -0.05    0.31
   4   0 -14    0.88    0.35
   3   0 -14    6.09    0.43
   3   0 -14    5.56    0.56
   2   0 -14    3.14    0.47
   2   0 -14    2.94    0.35
   1   0 -14    1.43    0.39
   1   0 -14    1.55    0.33
   0   0 -14    1.46    0.39
   0   0 -14    1.06    0.33
  -1   0 -14   11.14    0.75
  -1   0 -14    9.61    0.65
  -2   0 -14    8.07    0.68
  -2   0 -14    9.34    0.67
  -3   0 -14    1.40    0.43
  -3   0 -14    1.74    0.44
  -4   0 -14   -0.23    0.33
  -4   0 -14    0.27    0.39
  -5   0 -14    0.16    0.36
  -5   0 -14   -0.16    0.39
  -6   0 -14    2.63    0.56
  -6   0 -14    1.25    0.43
  10  -1 -14    3.15    0.44
  10   1 -14    2.52    0.45
   9  -1 -14    0.06    0.26
   9   1 -14    0.17    0.30
   8  -1 -14    0.78    0.30
   8  -1 -14    0.65    0.37
   8   1 -14    0.70    0.32
   7  -1 -14    0.10    0.35
   7   1 -14    0.52    0.31
   7   1 -14    0.78    0.34
   6  -1 -14    3.76    0.53
   6   1 -14    4.13    0.50
   6   1 -14    4.37    0.47
   5  -1 -14    1.13    0.37
   5   1 -14    1.37    0.40
   5   1 -14    1.57    0.34
   4  -1 -14    1.60    0.39
   4   1 -14    1.83    0.43
   4   1 -14    1.60    0.34
   3  -1 -14    3.39    0.48
   3  -1 -14    4.20    0.40
   3   1 -14    4.54    0.38
   3   1 -14    3.84    0.52
   2  -1 -14    5.04    0.55
   2  -1 -14    6.16    0.49
   2   1 -14    5.16    0.57
   1  -1 -14    0.15    0.26
   1  -1 -14   -0.08    0.29
   1   1 -14    0.29    0.34
   0  -1 -14    4.46    0.53
   0  -1 -14    4.69    0.47
   0   1 -14    3.39    0.51
   1  -1  14    0.88    0.43
  -1  -1 -14    0.69    0.37
  -1  -1 -14    0.55    0.33
  -1   1 -14    0.87    0.41
   2  -1  14    7.84    0.63
  -2  -1 -14    7.85    0.66
  -2  -1 -14    8.35    0.65
  -2   1 -14    7.99    0.71
  -3  -1 -14    1.90    0.43
  -3  -1 -14    2.61    0.47
   3  -1  14    2.34    0.42
  -3   1 -14    3.52    0.53
  -4  -1 -14    0.86    0.42
  -4  -1 -14    1.54    0.41
   4  -1  14    2.10    0.42
  -4   1 -14    1.13    0.45
  -5  -1 -14    1.96    0.49
   5  -1  14    2.38    0.49
  -5  -1 -14    1.32    0.41
  -5   1 -14    1.39    0.47
   6  -1  14    0.23    0.39
  -6  -1 -14   -0.01    0.43
  -6   1 -14   -0.63    0.39
   7  -1  14    4.40    0.65
  10   2 -14    0.41    0.34
   9   2 -14    1.09    0.38
   8  -2 -14    5.71    0.66
   8   2 -14    6.82    0.62
   7  -2 -14    0.17    0.38
   7   2 -14   -0.33    0.34
   7   2 -14    0.16    0.29
   6  -2 -14    1.42    0.42
   6   2 -14    1.51    0.43
   6   2 -14    1.64    0.37
   5  -2 -14   17.50    0.97
   5   2 -14   16.77    0.89
   5   2 -14   19.66    0.88
   4  -2 -14    8.16    0.80
   4  -2 -14    7.14    0.70
   4   2 -14    7.11    0.60
   4   2 -14    6.87    0.66
   3  -2 -14    0.54    0.29
   3  -2 -14   -0.13    0.33
   3   2 -14   -0.18    0.36
   3   2 -14    0.13    0.27
   2  -2 -14    0.31    0.28
   2  -2 -14    0.03    0.33
   2   2 -14   -0.17    0.35
   1  -2 -14    4.73    0.56
   1  -2 -14    3.86    0.46
   1   2 -14    4.61    0.55
   0  -2 -14    1.53    0.41
   0  -2 -14    2.14    0.39
   0  -2  14    2.24    0.36
   0   2 -14    2.47    0.47
  -1  -2 -14    9.67    0.74
  -1  -2 -14    8.52    0.66
   1  -2  14   10.07    0.64
  -1   2 -14    7.81    0.70
   2  -2  14    7.24    0.61
  -2  -2 -14    5.26    0.58
  -2  -2 -14    6.35    0.65
  -2   2 -14    5.21    0.60
  -3  -2 -14    4.90    0.58
  -3  -2 -14    3.77    0.57
   3  -2  14    4.02    0.48
  -3   2 -14    3.73    0.56
  -4  -2 -14    0.66    0.38
   4  -2  14    0.23    0.35
  -4  -2 -14    0.44    0.40
  -4   2 -14    0.40    0.41
   5  -2  14    0.75    0.40
  -5  -2 -14    0.27    0.38
  -5  -2 -14    0.23    0.40
  -5   2 -14    0.01    0.41
   6  -2  14    0.72    0.41
  -6  -2 -14   -0.07    0.42
  -6   2 -14   -0.99    0.37
   7  -2  14    0.32    0.42
   8  -3 -14    6.51    0.73
   7  -3 -14    1.92    0.50
   7   3 -14    2.16    0.48
   6  -3 -14    1.50    0.46
   6   3 -14   -0.25    0.38
   5  -3 -14    2.49    0.53
   5   3 -14    2.84    0.49
   4  -3 -14    5.03    0.51
   4  -3 -14    4.86    0.64
   4   3 -14    3.84    0.55
   3  -3 -14    3.61    0.47
   3  -3 -14    3.65    0.56
   3   3 -14    3.82    0.54
   2  -3 -14    2.33    0.43
   2  -3 -14    2.11    0.49
   2   3 -14    2.30    0.48
   1  -3 -14    3.33    0.56
   1  -3 -14    3.58    0.49
   1   3 -14    3.16    0.50
   0  -3  14    1.76    0.25
   0  -3  14    3.35    0.43
   0  -3 -14    1.96    0.42
   0  -3 -14    1.35    0.42
   0   3 -14    1.72    0.45
  -1  -3 -14    7.16    0.74
  -1  -3 -14    5.00    0.59
   1  -3  14    6.78    0.42
   1  -3  14    7.12    0.58
  -1   3 -14    5.18    0.59
  -2  -3 -14   12.75    1.18
   2  -3  14   11.42    0.71
  -2  -3 -14   10.58    0.80
  -2  -3 -14   10.77    0.86
  -2   3 -14   11.29    0.82
   3  -3  14   14.26    0.81
  -3  -3 -14   13.69    0.93
  -3  -3 -14   14.03    0.90
  -3   3 -14   10.70    0.81
  -4  -3 -14    5.71    0.68
  -4  -3 -14    6.62    0.75
   4  -3  14    6.50    0.61
  -4   3 -14    5.87    0.65
  -5  -3 -14    1.33    0.49
   5  -3  14    2.29    0.47
  -5  -3 -14    2.17    0.53
  -5   3 -14    1.71    0.48
   6  -3  14    0.54    0.38
  -6   3 -14   -0.07    0.40
   8  -4 -14    3.67    0.66
   7  -4 -14    1.91    0.51
   6  -4 -14   11.52    0.95
   6   4 -14   11.25    0.81
   5  -4 -14    2.97    0.58
   5   4 -14    0.71    0.44
   4  -4 -14    2.22    0.42
   4  -4 -14    2.17    0.55
   4   4 -14    2.16    0.49
   3  -4 -14    0.61    0.37
   3  -4 -14    0.85    0.47
   3   4 -14    1.06    0.41
   2  -4 -14    0.33    0.44
   2  -4 -14    0.55    0.36
   2   4 -14    0.46    0.40
   1  -4 -14    5.07    0.80
  -1  -4  14    5.33    0.48
   1  -4 -14    4.60    0.60
   1  -4 -14    4.00    0.65
   1   4 -14    3.81    0.51
   0  -4 -14    1.64    0.63
   0  -4  14    1.67    0.28
   0  -4 -14    1.14    0.44
   0  -4 -14    0.74    0.47
   0   4 -14    1.26    0.43
  -1  -4 -14    1.18    0.51
   1  -4  14    1.65    0.37
  -1  -4 -14    0.89    0.43
   1  -4  14    0.98    0.27
  -1  -4 -14    2.88    0.68
  -1   4 -14    1.43    0.44
   2  -4  14    4.34    0.51
  -2  -4 -14    4.38    0.66
  -2  -4 -14    4.71    0.63
   2  -4  14    4.47    0.42
  -2   4 -14    4.07    0.56
  -3  -4 -14   11.44    0.96
  -3  -4 -14   12.52    0.93
   3  -4  14   13.00    0.77
   4  -4  14    5.89    0.60
  -4  -4 -14    4.61    0.68
  -4  -4 -14    6.57    0.78
  -4   4 -14    3.82    0.56
   5  -4  14    1.09    0.48
   6  -5 -14    0.83    0.55
   6   5 -14    0.68    0.45
   5  -5 -14    9.21    0.98
   5  -5 -14    9.82    1.18
   5   5 -14   10.89    0.79
   4  -5 -14    2.66    0.78
   4  -5 -14    1.75    0.54
   4  -5 -14    2.05    0.47
   4   5 -14    1.42    0.43
   3  -5 -14    1.55    0.44
   3  -5 -14    1.19    0.68
   3  -5 -14    0.18    0.46
   3   5 -14    0.89    0.41
   2  -5 -14    2.46    0.79
   2  -5 -14    2.11    0.52
   2  -5 -14    1.26    0.55
   1  -5 -14   -0.82    0.40
   1  -5 -14    0.50    0.60
  -1  -5  14   -0.37    0.24
   1  -5 -14   -1.06    0.35
   0  -5 -14    5.72    0.71
   0  -5 -14    7.61    0.89
   0  -5  14    6.44    0.50
   1  -5  14    4.27    0.43
  -1  -5 -14    2.81    0.59
  -1  -5 -14    3.05    0.67
   2  -5  14    0.68    0.31
  -2  -5 -14    0.53    0.50
   2  -5  14    0.91    0.39
  -2  -5 -14    1.63    0.56
  -3  -5 -14    2.00    0.57
   3  -5  14    2.74    0.42
   3  -5  14    3.12    0.50
  -4  -5 -14    4.21    0.86
   3  -6 -14    1.94    0.52
   2  -6 -14    0.92    0.81
  -1  -6  14   -0.32    0.38
   0  -6  14    3.55    0.44
   9   0 -15   -0.35    0.27
   8   0 -15    2.11    0.47
   8   0 -15    2.94    0.45
   7   0 -15    1.68    0.36
   7   0 -15    0.97    0.40
   6   0 -15    0.46    0.35
   6   0 -15    0.32    0.28
   5   0 -15    0.24    0.35
   4   0 -15    0.60    0.37
   3   0 -15    6.36    0.62
   2   0 -15    1.50    0.32
   2   0 -15    2.10    0.45
   1   0 -15   -0.30    0.31
   1   0 -15   -0.17    0.28
   0   0 -15    1.31    0.38
   0   0 -15    1.67    0.43
  -1   0 -15    6.53    0.59
  -1   0 -15    8.17    0.71
  -2   0 -15   20.28    1.02
  -2   0 -15   21.88    0.98
  -3   0 -15    0.26    0.41
  -3   0 -15    0.12    0.37
  -4   0 -15    3.97    0.58
  -4   0 -15    2.98    0.53
  -5   0 -15    1.64    0.47
  -5   0 -15    1.55    0.51
  10   1 -15    1.41    0.48
   9  -1 -15    0.60    0.32
   9   1 -15    1.54    0.39
   8  -1 -15    0.67    0.40
   8   1 -15    0.58    0.34
   7  -1 -15    8.88    0.76
   7   1 -15   10.20    0.73
   7   1 -15    9.35    0.68
   6  -1 -15    1.18    0.43
   6   1 -15    0.93    0.39
   6   1 -15    0.99    0.36
   5  -1 -15   11.55    0.80
   5   1 -15   12.13    0.72
   5   1 -15   11.98    0.78
   4  -1 -15    1.20    0.41
   4   1 -15    2.12    0.46
   3  -1 -15    0.58    0.27
   3  -1 -15    1.68    0.42
   3   1 -15    0.59    0.40
   2  -1 -15    0.61    0.30
   2  -1 -15   -0.13    0.32
   2   1 -15    0.16    0.37
   2   1 -15   -0.30    0.27
   1  -1 -15    1.35    0.35
   1  -1 -15    1.31    0.40
   1   1 -15    1.34    0.44
   0  -1 -15    3.33    0.51
   0  -1 -15    3.70    0.46
   0   1 -15    2.65    0.49
  -1  -1 -15    4.58    0.57
  -1  -1 -15    4.68    0.53
  -1   1 -15    4.96    0.61
  -2  -1 -15    2.64    0.45
  -2  -1 -15    2.50    0.47
  -2   1 -15    2.66    0.53
  -3  -1 -15    2.24    0.48
  -3  -1 -15    2.43    0.48
  -3   1 -15    2.09    0.52
  -4  -1 -15    1.29    0.46
  -4  -1 -15    1.52    0.46
  -4   1 -15    1.55    0.49
  -5  -1 -15    1.30    0.49
  -5  -1 -15    0.84    0.42
  -5   1 -15    1.34    0.48
  -6   1 -15    0.69    0.45
  10   2 -15    1.13    0.60
   9   2 -15   -0.34    0.31
   8  -2 -15    1.67    0.48
   8   2 -15    1.72    0.41
   7  -2 -15    0.75    0.43
   7   2 -15    1.24    0.37
   7   2 -15    0.83    0.40
   6  -2 -15   16.47    1.00
   6   2 -15   19.84    0.93
   6   2 -15   17.07    0.94
   5  -2 -15    7.53    0.75
   5   2 -15    7.37    0.64
   5   2 -15    7.83    0.73
   4  -2 -15   17.67    1.01
   4   2 -15   18.20    0.91
   4   2 -15   16.20    0.91
   3  -2 -15    2.19    0.49
   3  -2 -15    2.45    0.40
   3   2 -15    2.11    0.50
   2  -2 -15    1.26    0.35
   2  -2 -15    1.15    0.40
   2   2 -15    0.84    0.44
   1  -2 -15    0.10    0.31
   1  -2 -15    0.22    0.36
   1   2 -15    0.01    0.38
   0  -2 -15    1.17    0.43
   0  -2 -15    1.41    0.40
   0   2 -15    0.45    0.41
  -1  -2 -15   10.62    0.75
  -1  -2 -15   11.77    0.82
  -1   2 -15   10.48    0.84
  -2  -2 -15    2.27    0.48
  -2  -2 -15    2.57    0.51
  -2   2 -15    1.47    0.49
  -3  -2 -15   11.45    0.85
   3  -2  15   11.89    0.79
  -3  -2 -15   12.01    0.84
  -3   2 -15   11.06    0.83
  -4  -2 -15    1.88    0.49
   4  -2  15    1.92    0.47
  -4  -2 -15    1.85    0.49
  -4   2 -15    1.55    0.49
  -5  -2 -15    3.03    0.56
   5  -2  15    3.63    0.58
  -5  -2 -15    3.84    0.60
  -5   2 -15    3.19    0.57
   6  -2  15    0.57    0.44
  -6   2 -15   -1.06    0.38
   8  -3 -15    0.13    0.41
   7  -3 -15    2.32    0.55
   7   3 -15    2.25    0.64
   6  -3 -15    3.79    0.62
   6   3 -15    3.16    0.55
   5  -3 -15    1.87    0.52
   5   3 -15    1.79    0.48
   4  -3 -15    7.12    0.77
   4   3 -15    6.54    0.69
   3  -3 -15    0.80    0.37
   3  -3 -15    1.19    0.47
   3   3 -15    0.80    0.44
   2  -3 -15    0.96    0.39
   2  -3 -15    1.40    0.49
   2   3 -15    1.28    0.45
   1  -3 -15    1.64    0.42
   1  -3 -15    2.42    0.53
   1   3 -15    2.43    0.52
   0  -3 -15    0.61    0.43
   0  -3 -15    0.96    0.39
   0   3 -15    0.25    0.42
  -1  -3 -15    0.57    0.39
  -1  -3 -15    0.22    0.48
  -1  -3 -15    0.51    0.42
  -1   3 -15    0.68    0.44
  -2  -3 -15    2.02    0.53
  -2  -3 -15    1.88    0.47
   2  -3  15    2.52    0.45
  -2   3 -15    0.77    0.45
  -3  -3 -15    1.44    0.48
   3  -3  15    0.77    0.38
  -3  -3 -15    1.18    0.49
  -3   3 -15    1.24    0.49
  -4  -3 -15   12.11    0.93
  -4  -3 -15    8.62    0.84
   4  -3  15   13.59    0.85
  -4   3 -15    8.39    0.79
   5  -3  15    0.57    0.41
  -5   3 -15    0.48    0.47
   8  -4 -15    1.99    0.61
   7  -4 -15    2.41    0.56
   6  -4 -15    4.27    0.69
   6   4 -15    4.07    0.62
   5  -4 -15    1.26    0.52
   5   4 -15    0.55    0.47
   4  -4 -15    0.46    0.43
   4   4 -15    0.56    0.45
   3  -4 -15    0.88    0.41
   3  -4 -15    0.75    0.47
   3   4 -15    1.62    0.49
   2  -4 -15   -0.05    0.42
   2  -4 -15    0.48    0.39
   2   4 -15   -0.43    0.40
   1  -4 -15    0.74    0.43
   1  -4 -15    1.66    0.67
   1  -4 -15    0.70    0.48
   1   4 -15    0.99    0.44
   0  -4 -15    1.18    0.59
   0  -4 -15   -0.27    0.42
   0  -4 -15   -0.58    0.33
   0   4 -15    0.18    0.39
  -1  -4 -15   -0.16    0.43
  -1  -4 -15    0.44    0.56
  -1  -4 -15    1.25    0.46
   1  -4  15   -0.36    0.39
  -1   4 -15    0.39    0.41
  -2  -4 -15    0.41    0.48
  -2  -4 -15    0.42    0.44
   2  -4  15    0.29    0.33
  -2   4 -15    0.44    0.41
  -3  -4 -15    4.39    0.68
   3  -4  15    4.20    0.57
  -3  -4 -15    5.80    1.15
  -3   4 -15    4.28    0.67
   4  -4  15    0.19    0.39
  -4  -4 -15   -0.19    0.42
   5   5 -15    2.55    0.56
   4   5 -15    2.11    0.50
   3  -5 -15    1.80    0.77
   3  -5 -15    0.27    0.40
   3   5 -15    1.24    0.45
   2  -5 -15    0.38    0.63
   2  -5 -15    0.36    0.41
   2  -5 -15    0.01    0.54
   2   5 -15    0.43    0.41
   1  -5 -15    6.13    0.70
   1  -5 -15    7.00    1.13
   1  -5 -15   11.10    1.23
   1   5 -15    4.10    0.72
   0  -5 -15    2.31    0.57
   0  -5 -15    0.72    0.79
   2  -5  15    1.53    0.51
   2  -5  15    1.48    0.43
   9   0 -16    0.24    0.31
   8   0 -16    0.40    0.32
   8   0 -16   -0.09    0.65
   7   0 -16    1.85    0.48
   6   0 -16    0.03    0.36
   5   0 -16    1.98    0.47
   4   0 -16    1.67    0.44
   3   0 -16    2.12    0.49
   2   0 -16    0.63    0.32
   2   0 -16    0.66    0.39
   1   0 -16    0.11    0.38
   1   0 -16    0.00    0.31
   0   0 -16    0.27    0.36
   0   0 -16    0.58    0.39
  -1   0 -16    0.26    0.41
  -1   0 -16    0.14    0.39
  -2   0 -16    1.46    0.47
  -2   0 -16    0.33    0.43
  -3   0 -16    1.34    0.46
  -3   0 -16    0.78    0.46
  -4   0 -16    3.48    0.58
  -4   0 -16    3.16    0.57
  -5   0 -16   -0.23    0.39
   9   1 -16    2.90    0.47
   8  -1 -16   -0.73    0.33
   8   1 -16    0.12    0.31
   7  -1 -16    1.10    0.46
   7   1 -16    1.40    0.43
   7   1 -16    0.83    0.36
   6  -1 -16    1.87    0.51
   6   1 -16    3.12    0.47
   6   1 -16    2.92    0.52
   5  -1 -16    2.57    0.51
   5   1 -16    2.26    0.50
   4  -1 -16    0.51    0.40
   4   1 -16    0.65    0.42
   3  -1 -16    3.68    0.56
   3   1 -16    2.92    0.55
   2  -1 -16   -0.18    0.28
   2  -1 -16    0.09    0.35
   2   1 -16   -0.26    0.39
   2   1 -16   -0.86    0.49
   1  -1 -16    0.86    0.36
   1  -1 -16    0.97    0.41
   1   1 -16    1.45    0.49
   1   1 -16    0.17    0.36
   0  -1 -16    8.59    0.69
   0  -1 -16    7.36    0.73
   0   1 -16    7.84    0.77
  -1  -1 -16    5.71    0.66
  -1  -1 -16    4.99    0.58
  -1   1 -16    5.76    0.68
  -2  -1 -16    3.01    0.53
  -2  -1 -16    2.53    0.50
  -2   1 -16    2.96    0.59
  -3  -1 -16    0.17    0.40
  -3  -1 -16    0.28    0.42
  -3   1 -16   -0.73    0.41
  -4  -1 -16    3.71    0.59
  -4  -1 -16    2.20    0.55
  -4   1 -16    2.36    0.55
  -5  -1 -16    3.28    0.57
  -5   1 -16    3.03    0.59
   9   2 -16   -0.03    0.33
   8  -2 -16   -0.28    0.38
   8   2 -16   -0.32    0.34
   7  -2 -16    0.77    0.47
   7   2 -16   -0.38    0.36
   7   2 -16    0.57    0.34
   6  -2 -16    1.88    0.51
   6   2 -16    0.97    0.45
   6   2 -16    1.41    0.41
   5  -2 -16    0.96    0.44
   5   2 -16    1.36    0.50
   4  -2 -16    6.72    0.73
   4   2 -16    5.89    0.70
   3  -2 -16    0.61    0.43
   3   2 -16    0.45    0.44
   2  -2 -16    0.52    0.34
   2  -2 -16    0.87    0.42
   2   2 -16    0.28    0.43
   1  -2 -16    0.91    0.36
   1  -2 -16    0.66    0.42
   1   2 -16    0.51    0.44
   0  -2 -16    0.14    0.35
   0  -2 -16    0.17    0.40
   0   2 -16   -0.15    0.40
  -1  -2 -16    0.47    0.42
  -1  -2 -16    1.42    0.44
  -1   2 -16    0.22    0.44
  -2  -2 -16    5.15    0.63
  -2  -2 -16    5.22    0.68
  -2   2 -16    3.12    0.59
  -3  -2 -16   -0.03    0.42
  -3  -2 -16   -0.05    0.40
  -3   2 -16    0.84    0.50
  -4  -2 -16    1.86    0.54
  -4  -2 -16    1.99    0.54
  -4   2 -16    2.24    0.56
  -5  -2 -16   -0.22    0.45
  -5   2 -16   -0.89    0.45
   8  -3 -16    0.30    0.43
   7  -3 -16    0.04    0.41
   6  -3 -16    6.70    0.79
   6   3 -16    7.75    0.76
   5  -3 -16    4.32    0.68
   5   3 -16    4.03    0.63
   4  -3 -16    6.96    0.79
   4   3 -16    6.27    0.71
   3  -3 -16    0.94    0.48
   3   3 -16    0.35    0.45
   2  -3 -16    1.39    0.49
   2  -3 -16    1.52    0.45
   2   3 -16    1.67    0.51
   1  -3 -16    0.59    0.44
   1  -3 -16    0.30    0.39
   1   3 -16    0.33    0.45
   0  -3 -16    0.05    0.37
   0  -3 -16    0.76    0.45
   0   3 -16    0.03    0.44
  -1  -3 -16   -0.15    0.39
  -1  -3 -16    0.36    0.44
  -1   3 -16    0.31    0.45
  -2  -3 -16    3.65    0.60
  -2  -3 -16    4.01    0.66
  -2   3 -16    4.09    0.63
  -3  -3 -16    5.21    0.69
  -3  -3 -16    5.58    0.73
  -3   3 -16    3.93    0.64
  -4  -3 -16    3.68    0.63
   6   4 -16    9.52    0.84
   5  -4 -16    9.54    0.98
   5   4 -16    9.81    0.87
   4  -4 -16    1.66    0.57
   4   4 -16    2.66    0.57
   3  -4 -16    9.45    0.98
   3   4 -16   10.10    0.87
   2  -4 -16    2.23    0.59
   2  -4 -16    1.24    0.45
   2   4 -16    2.07    0.56
   1  -4 -16    3.43    0.78
   1  -4 -16    1.32    0.54
   1  -4 -16    1.85    0.52
   1   4 -16    1.30    0.50
   0  -4 -16    0.37    0.60
   0  -4 -16   -0.43    0.40
   0  -4 -16   -0.41    0.44
   0   4 -16    0.20    0.45
  -1  -4 -16    3.99    0.64
  -1  -4 -16    4.21    0.73
  -2  -4 -16    0.36    0.77
   2  -5 -16    0.81    0.49
   7   0 -17    1.06    0.47
   6   0 -17    2.48    0.52
   5   0 -17   -0.07    0.39
   4   0 -17    5.39    0.64
   3   0 -17    0.90    0.46
   2   0 -17    5.13    0.66
   1   0 -17    0.04    0.39
   1   0 -17   -0.36    0.34
   0   0 -17    2.35    0.52
   0   0 -17    1.48    0.44
  -1   0 -17    6.82    0.67
  -1   0 -17    6.93    0.74
  -2   0 -17   -0.85    0.38
  -2   0 -17    0.04    0.41
  -3   0 -17   -0.66    0.43
  -3   0 -17   -0.38    0.42
  -4   0 -17    0.86    0.47
   8  -1 -17    0.15    0.42
   8   1 -17    0.51    0.35
   7  -1 -17    5.71    0.71
   7   1 -17    5.08    0.64
   7   1 -17    5.59    0.60
   6  -1 -17    1.45    0.50
   6   1 -17    1.51    0.48
   5  -1 -17    7.49    0.77
   5   1 -17    9.30    0.80
   4  -1 -17    5.40    0.67
   4   1 -17    4.92    0.65
   3  -1 -17    6.86    0.72
   3   1 -17    6.40    0.71
   2  -1 -17    0.70    0.44
   2   1 -17    1.31    0.49
   1  -1 -17   -0.13    0.37
   1  -1 -17    0.06    0.34
   1   1 -17   -0.06    0.46
   1   1 -17   -0.79    0.34
   0  -1 -17    4.12    0.55
   0  -1 -17    3.56    0.60
   0   1 -17    3.97    0.63
   0   1 -17    4.34    0.56
  -1  -1 -17    7.24    0.70
  -1  -1 -17    7.23    0.75
  -1   1 -17    7.11    0.78
  -2  -1 -17    0.43    0.44
  -2  -1 -17    0.75    0.45
  -2   1 -17    0.09    0.47
  -2   1 -17    1.22    0.51
  -3  -1 -17   -0.32    0.40
  -3  -1 -17    0.41    0.44
  -3   1 -17    0.31    0.48
  -3   1 -17   -0.67    0.47
  -4  -1 -17    0.69    0.43
  -4   1 -17    1.16    0.52
   8  -2 -17   -0.02    0.43
   7  -2 -17    1.69    0.55
   7   2 -17    0.18    0.41
   6  -2 -17    2.68    0.59
   6   2 -17    2.47    0.56
   5  -2 -17    1.18    0.51
   5   2 -17    0.42    0.48
   4  -2 -17   -0.27    0.41
   4   2 -17   -0.33    0.46
   3  -2 -17    2.51    0.56
   3   2 -17    1.61    0.56
   2  -2 -17    2.08    0.49
   2  -2 -17    1.38    0.53
   2   2 -17    1.74    0.53
   1  -2 -17    2.89    0.50
   1  -2 -17    2.80    0.57
   1   2 -17    3.64    0.62
   0  -2 -17   -0.56    0.35
   0  -2 -17    0.86    0.45
   0   2 -17   -0.30    0.45
  -1  -2 -17    4.62    0.61
  -1  -2 -17    4.39    0.66
  -1   2 -17    3.29    0.63
  -2  -2 -17   -0.02    0.43
  -2  -2 -17    0.55    0.43
  -2   2 -17   -0.17    0.46
  -3  -2 -17    1.62    0.63
  -3  -2 -17    0.12    0.45
  -3   2 -17    0.27    0.54
   6  -3 -17    0.67    0.49
   6   3 -17   -0.47    0.46
   5  -3 -17    0.80    0.50
   5   3 -17    0.78    0.50
   4  -3 -17    8.61    0.90
   4   3 -17    9.45    0.85
   3  -3 -17   -0.30    0.42
   3   3 -17    0.59    0.51
   2  -3 -17    6.39    0.80
   2  -3 -17    5.37    0.66
   2   3 -17    5.76    0.71
   1  -3 -17    0.47    0.48
   1  -3 -17    0.73    0.43
   1   3 -17   -0.69    0.45
   0  -3 -17    0.26    0.41
   0  -3 -17   -0.17    0.42
   0   3 -17   -0.08    0.44
  -1  -3 -17    2.32    0.60
  -1  -3 -17    1.51    0.52
  -1   3 -17    0.07    0.60
  -2  -3 -17    2.14    0.90
  -2  -3 -17    1.69    0.82
   2  -4 -17    5.26    0.76
   1  -4 -17    1.44    0.68
   1  -4 -17    0.68    0.48
   0  -4 -17    0.48    0.48
   0  -4 -17    0.06    0.76
   7   0 -18    1.14    0.48
   6   0 -18    0.52    0.45
   5   0 -18    0.63    0.47
   4   0 -18    2.76    0.58
   3   0 -18    2.01    0.55
   2   0 -18   14.02    1.00
   1   0 -18   -0.94    0.38
   0   0 -18    1.12    0.51
   0   0 -18    0.68    0.43
  -1   0 -18    0.86    0.47
  -1   0 -18    1.03    0.50
  -2   0 -18   -0.78    0.42
  -2   0 -18    0.68    0.48
   7  -1 -18   -0.09    0.44
   7   1 -18   -0.27    0.40
   6  -1 -18    2.76    0.62
   6   1 -18    1.73    0.54
   5  -1 -18    1.92    0.56
   5   1 -18    1.44    0.51
   4  -1 -18    1.86    0.54
   4   1 -18    0.83    0.49
   3  -1 -18    1.38    0.50
   3   1 -18    0.87    0.51
   2  -1 -18    0.55    0.45
   2   1 -18   -0.43    0.43
   1  -1 -18    0.36    0.42
   1  -1 -18    1.31    0.52
   1   1 -18    0.19    0.48
   0  -1 -18    2.72    0.58
   0  -1 -18    1.76    0.49
   0   1 -18    2.40    0.57
   0   1 -18    0.55    0.46
  -1  -1 -18    1.88    0.53
  -1  -1 -18    2.47    0.53
  -1   1 -18    1.71    0.56
  -1   1 -18    2.41    0.56
  -2  -1 -18    0.61    0.62
  -2  -1 -18    0.81    0.49
  -2   1 -18    0.06    0.49
   7   2 -18    0.06    0.47
   6  -2 -18    2.35    0.75
   6   2 -18    2.36    0.57
   5  -2 -18    1.52    0.52
   5   2 -18    1.89    0.57
   4  -2 -18    0.07    0.44
   4   2 -18   -0.05    0.48
   3  -2 -18    1.44    0.53
   3   2 -18    1.66    0.59
   2  -2 -18    2.63    0.58
   2   2 -18    1.26    0.56
   1  -2 -18    7.91    0.74
   1  -2 -18    6.00    0.79
   1   2 -18    8.35    0.87
   0  -2 -18    4.71    0.63
   0  -2 -18    5.91    0.79
   0   2 -18    4.11    0.90
  -1  -2 -18    0.65    0.48
   1  -3 -18    0.59    0.45
   0  -3 -18    0.43    0.47
   4   0 -19    3.13    0.71
   3   0 -19    0.46    0.54
  -1   0 -19    3.82    0.63
   0  -1 -19   14.03    0.98
  -1  -1 -19    1.28    0.54
  -1   1 -19    0.17    0.52
   0  -2 -19    0.33    0.46
   0   0   0    0.00    0.00
;
_shelx_hkl_checksum              17010
loop_
_space_group_symop_operation_xyz
'x, y, z'
'-x, y+1/2, -z'
loop_
_atom_site_label
_atom_site_type_symbol
_atom_site_fract_x
_atom_site_fract_y
_atom_site_fract_z
_atom_site_U_iso_or_equiv
_atom_site_adp_type
_atom_site_occupancy
_atom_site_site_symmetry_order
_atom_site_calc_flag
_atom_site_refinement_flags_posn
_atom_site_refinement_flags_adp
C1 C 0.44480(19) 1.1067(3) 0.11448(13) 0.0184(3) Uani 1 1 d . .
C2 C 0.3668(2) 1.2652(3) 0.04476(14) 0.0212(4) Uani 1 1 d . .
H2 H 0.4134 1.4079 0.0329 0.025 Uiso 1 1 calc R U
C3 C 0.2218(2) 1.2179(4) -0.00766(15) 0.0257(4) Uani 1 1 d . .
H3 H 0.1706 1.3277 -0.0552 0.031 Uiso 1 1 calc R U
C4 C 0.1517(2) 1.0121(4) 0.00901(15) 0.0269(4) Uani 1 1 d . .
H4 H 0.0529 0.9795 -0.0273 0.032 Uiso 1 1 calc R U
C5 C 0.2268(2) 0.8531(4) 0.07928(16) 0.0265(4) Uani 1 1 d . .
H5 H 0.1789 0.7119 0.0916 0.032 Uiso 1 1 calc R U
C6 C 0.3716(2) 0.9000(3) 0.13141(15) 0.0227(4) Uani 1 1 d . .
H6 H 0.4220 0.7903 0.1794 0.027 Uiso 1 1 calc R U
C7 C 0.6008(2) 1.1583(3) 0.16398(13) 0.0200(3) Uani 1 1 d . .
H7 H 0.6386 1.3084 0.1533 0.024 Uiso 1 1 calc R U
C8 C 0.6935(2) 1.0121(3) 0.22256(13) 0.0206(4) Uani 1 1 d . .
H8 H 0.6541 0.8649 0.2361 0.025 Uiso 1 1 calc R U
C9 C 0.8513(2) 1.0593(3) 0.26786(14) 0.0214(4) Uani 1 1 d . .
H9 H 0.8894 1.2162 0.2531 0.026 Uiso 1 1 calc R U
C10 C 0.9654(2) 0.8639(4) 0.27639(14) 0.0251(4) Uani 1 1 d . .
H10A H 0.9282 0.7080 0.2523 0.030 Uiso 1 1 calc R U
H10B H 1.0675 0.9020 0.2643 0.030 Uiso 1 1 calc R U
C11 C 0.92150(19) 0.9554(3) 0.37250(14) 0.0208(4) Uani 1 1 d . .
H11 H 0.9998 1.0566 0.4143 0.025 Uiso 1 1 calc R U
C12 C 0.82917(18) 0.8227(3) 0.43453(13) 0.0186(3) Uani 1 1 d . .
C13 C 0.7633(2) 0.6079(3) 0.40675(14) 0.0227(4) Uani 1 1 d . .
H13 H 0.7770 0.5368 0.3446 0.027 Uiso 1 1 calc R U
C14 C 0.6776(2) 0.4959(3) 0.46899(16) 0.0261(4) Uani 1 1 d . .
H14 H 0.6321 0.3504 0.4485 0.031 Uiso 1 1 calc R U
C15 C 0.6584(2) 0.5952(3) 0.56023(16) 0.0258(4) Uani 1 1 d . .
H15 H 0.5995 0.5178 0.6021 0.031 Uiso 1 1 calc R U
C16 C 0.7248(2) 0.8078(3) 0.59128(14) 0.0232(4) Uani 1 1 d . .
C17 C 0.80915(19) 0.9188(3) 0.52801(14) 0.0195(3) Uani 1 1 d . .
H17 H 0.8545 1.0642 0.5488 0.023 Uiso 1 1 calc R U
C18 C 0.7072(3) 0.9157(4) 0.69168(16) 0.0343(5) Uani 1 1 d . .
H18A H 0.7327 1.0810 0.6914 0.051 Uiso 1 1 calc R U
H18B H 0.7747 0.8380 0.7481 0.051 Uiso 1 1 calc R U
H18C H 0.6027 0.8982 0.7009 0.051 Uiso 1 1 calc R U
loop_
_atom_site_aniso_label
_atom_site_aniso_U_11
_atom_site_aniso_U_22
_atom_site_aniso_U_33
_atom_site_aniso_U_23
_atom_site_aniso_U_13
_atom_site_aniso_U_12
C1 0.0186(8) 0.0192(8) 0.0185(7) 0.0010(7) 0.0060(6) 0.0041(6)
C2 0.0221(8) 0.0213(9) 0.0216(8) 0.0040(7) 0.0078(7) 0.0044(7)
C3 0.0222(10) 0.0319(10) 0.0234(9) 0.0065(8) 0.0052(7) 0.0073(8)
C4 0.0177(8) 0.0349(11) 0.0277(9) 0.0011(9) 0.0029(7) 0.0015(8)
C5 0.0212(9) 0.0247(10) 0.0338(10) 0.0038(8) 0.0053(7) -0.0011(7)
C6 0.0211(8) 0.0201(9) 0.0268(9) 0.0059(7) 0.0041(7) 0.0031(7)
C7 0.0214(8) 0.0182(8) 0.0211(8) 0.0000(7) 0.0055(7) -0.0002(7)
C8 0.0196(8) 0.0201(8) 0.0215(8) -0.0020(7) 0.0025(6) -0.0011(7)
C9 0.0210(8) 0.0205(9) 0.0221(8) -0.0021(7) 0.0028(6) -0.0011(7)
C10 0.0191(8) 0.0320(10) 0.0237(9) -0.0035(8) 0.0028(7) 0.0034(7)
C11 0.0162(7) 0.0241(9) 0.0208(8) -0.0037(7) 0.0000(6) -0.0003(7)
C12 0.0135(7) 0.0185(8) 0.0222(8) -0.0004(7) -0.0012(6) 0.0022(6)
C13 0.0218(8) 0.0176(8) 0.0264(9) -0.0032(7) -0.0012(7) 0.0004(7)
C14 0.0188(8) 0.0170(8) 0.0388(10) 0.0012(8) -0.0035(7) -0.0016(7)
C15 0.0185(8) 0.0212(9) 0.0372(10) 0.0072(8) 0.0042(7) 0.0003(7)
C16 0.0210(8) 0.0221(9) 0.0266(9) 0.0033(7) 0.0047(7) 0.0040(7)
C17 0.0162(7) 0.0166(8) 0.0244(8) 0.0006(7) 0.0010(6) 0.0010(6)
C18 0.0374(11) 0.0372(12) 0.0320(11) -0.0004(10) 0.0163(9) -0.0031(10)
loop_
_atom_type_symbol
_atom_type_description
_atom_type_scat_dispersion_real
_atom_type_scat_dispersion_imag
_atom_type_scat_source
C C 0.0033 0.0016 'International Tables Vol C Tables 4.2.6.8 and 6.1.1.4'
H H 0.0000 0.0000 'International Tables Vol C Tables 4.2.6.8 and 6.1.1.4'
loop_
_geom_angle_atom_site_label_1
_geom_angle_atom_site_label_2
_geom_angle_atom_site_label_3
_geom_angle
C2 C1 C6 117.95(16)
C2 C1 C7 119.15(16)
C6 C1 C7 122.86(16)
C3 C2 C1 121.01(18)
C4 C3 C2 120.35(18)
C3 C4 C5 119.51(18)
C6 C5 C4 120.14(19)
C5 C6 C1 121.02(17)
C8 C7 C1 125.35(17)
C7 C8 C9 125.41(17)
C8 C9 C10 119.26(16)
C8 C9 C11 120.21(16)
C10 C9 C11 58.97(12)
C11 C10 C9 61.15(12)
C12 C11 C10 123.73(17)
C12 C11 C9 121.44(14)
C10 C11 C9 59.88(12)
C13 C12 C17 117.75(17)
C13 C12 C11 124.44(16)
C17 C12 C11 117.80(16)
C12 C13 C14 120.80(17)
C15 C14 C13 120.34(18)
C14 C15 C16 120.41(18)
C15 C16 C17 118.69(18)
C15 C16 C18 120.91(18)
C17 C16 C18 120.39(18)
C16 C17 C12 122.00(17)
loop_
_geom_bond_atom_site_label_1
_geom_bond_atom_site_label_2
_geom_bond_distance
C1 C2 1.393(2)
C1 C6 1.400(2)
C1 C7 1.469(2)
C2 C3 1.389(3)
C3 C4 1.381(3)
C4 C5 1.389(3)
C5 C6 1.386(3)
C7 C8 1.330(2)
C8 C9 1.464(2)
C9 C10 1.516(3)
C9 C11 1.535(3)
C10 C11 1.502(3)
C11 C12 1.489(3)
C12 C13 1.392(2)
C12 C17 1.402(2)
C13 C14 1.393(3)
C14 C15 1.380(3)
C15 C16 1.391(3)
C16 C17 1.392(3)
C16 C18 1.506(3)
loop_
_geom_torsion_atom_site_label_1
_geom_torsion_atom_site_label_2
_geom_torsion_atom_site_label_3
_geom_torsion_atom_site_label_4
_geom_torsion
C6 C1 C2 C3 -1.1(3)
C7 C1 C2 C3 176.71(16)
C1 C2 C3 C4 0.4(3)
C2 C3 C4 C5 0.5(3)
C3 C4 C5 C6 -0.7(3)
C4 C5 C6 C1 -0.1(3)
C2 C1 C6 C5 0.9(3)
C7 C1 C6 C5 -176.77(18)
C2 C1 C7 C8 -171.92(18)
C6 C1 C7 C8 5.8(3)
C1 C7 C8 C9 176.85(16)
C7 C8 C9 C10 -143.91(19)
C7 C8 C9 C11 147.04(18)
C8 C9 C10 C11 -109.64(18)
C9 C10 C11 C12 109.74(18)
C8 C9 C11 C12 -5.4(3)
C10 C9 C11 C12 -113.4(2)
C8 C9 C11 C10 108.04(19)
C10 C11 C12 C13 -5.3(3)
C9 C11 C12 C13 67.3(2)
C10 C11 C12 C17 173.66(16)
C9 C11 C12 C17 -113.74(19)
C17 C12 C13 C14 1.5(2)
C11 C12 C13 C14 -179.56(17)
C12 C13 C14 C15 -0.9(3)
C13 C14 C15 C16 -0.2(3)
C14 C15 C16 C17 0.7(3)
C14 C15 C16 C18 -178.80(19)
C15 C16 C17 C12 -0.1(3)
C18 C16 C17 C12 179.40(17)
C13 C12 C17 C16 -1.0(2)
C11 C12 C17 C16 -179.99(16)
