#------------------------------------------------------------------------------
#$Date: 2017-09-12 06:27:00 +0300 (Tue, 12 Sep 2017) $
#$Revision: 200650 $
#$URL: file:///home/coder/svn-repositories/cod/cif/4/51/41/4514120.cif $
#------------------------------------------------------------------------------
#
# This file is available in the Crystallography Open Database (COD),
# http://www.crystallography.net/
#
# All data on this site have been placed in the public domain by the
# contributors.
#
data_4514120
loop_
_publ_author_name
'Yu, Liu-Zhu'
'Wei, Yin'
'Shi, Min'
_publ_section_title
;
 Synthesis of Polysubstituted Polycyclic Aromatic Hydrocarbons by
 Gold-Catalyzed Cyclization--Oxidation of
 Alkylidenecyclopropane-Containing 1,5-Enynes
;
_journal_issue                   7
_journal_name_full               'ACS Catalysis'
_journal_page_first              4242
_journal_paper_doi               10.1021/acscatal.7b00784
_journal_volume                  7
_journal_year                    2017
_chemical_formula_sum            'C25 H18'
_chemical_formula_weight         318.39
_chemical_name_systematic
; 
 ? 
;
_space_group_crystal_system      monoclinic
_space_group_IT_number           14
_space_group_name_Hall           '-P 2ybc'
_space_group_name_H-M_alt        'P 1 21/c 1'
_symmetry_space_group_name_Hall  '-P 2ybc'
_symmetry_space_group_name_H-M   'P 1 21/c 1'
_atom_sites_solution_hydrogens   geom
_audit_creation_method           SHELXL-2013
_cell_angle_alpha                90
_cell_angle_beta                 101.369(4)
_cell_angle_gamma                90
_cell_formula_units_Z            4
_cell_length_a                   13.316(2)
_cell_length_b                   20.470(3)
_cell_length_c                   6.2779(10)
_cell_measurement_reflns_used    1780
_cell_measurement_temperature    293(2)
_cell_measurement_theta_max      50.991
_cell_measurement_theta_min      5.057
_cell_volume                     1677.6(4)
_computing_cell_refinement       'Bruker SMART'
_computing_data_collection       'Bruker SMART'
_computing_data_reduction        'Bruker SHELXTL'
_computing_molecular_graphics    'Bruker SHELXTL'
_computing_publication_material  'Bruker SHELXTL'
_computing_structure_refinement  'SHELXL-2013 (Sheldrick, 2013)'
_computing_structure_solution    'Bruker SHELXTL'
_diffrn_ambient_temperature      293(2)
_diffrn_measured_fraction_theta_full 1.000
_diffrn_measured_fraction_theta_max 1.000
_diffrn_measurement_device_type  'CCD area detector'
_diffrn_measurement_method       'phi and omega scans'
_diffrn_radiation_type           MoK\a
_diffrn_radiation_wavelength     0.71073
_diffrn_reflns_av_R_equivalents  0.0350
_diffrn_reflns_av_unetI/netI     0.0372
_diffrn_reflns_Laue_measured_fraction_full 1.000
_diffrn_reflns_Laue_measured_fraction_max 1.000
_diffrn_reflns_limit_h_max       16
_diffrn_reflns_limit_h_min       -15
_diffrn_reflns_limit_k_max       24
_diffrn_reflns_limit_k_min       -24
_diffrn_reflns_limit_l_max       7
_diffrn_reflns_limit_l_min       -7
_diffrn_reflns_number            9584
_diffrn_reflns_point_group_measured_fraction_full 1.000
_diffrn_reflns_point_group_measured_fraction_max 1.000
_diffrn_reflns_theta_full        25.242
_diffrn_reflns_theta_max         25.496
_diffrn_reflns_theta_min         1.850
_exptl_absorpt_coefficient_mu    0.071
_exptl_absorpt_correction_T_max  0.7456
_exptl_absorpt_correction_T_min  0.6642
_exptl_absorpt_correction_type   multi-scan
_exptl_absorpt_process_details   sadabs
_exptl_crystal_colour            colorless
_exptl_crystal_density_diffrn    1.261
_exptl_crystal_description       prismatic
_exptl_crystal_F_000             672
_exptl_crystal_size_max          0.200
_exptl_crystal_size_mid          0.120
_exptl_crystal_size_min          0.100
_refine_diff_density_max         0.186
_refine_diff_density_min         -0.130
_refine_diff_density_rms         0.031
_refine_ls_extinction_method     none
_refine_ls_goodness_of_fit_ref   1.021
_refine_ls_hydrogen_treatment    constr
_refine_ls_matrix_type           full
_refine_ls_number_parameters     227
_refine_ls_number_reflns         3129
_refine_ls_number_restraints     0
_refine_ls_restrained_S_all      1.021
_refine_ls_R_factor_all          0.0747
_refine_ls_R_factor_gt           0.0490
_refine_ls_shift/su_max          0.011
_refine_ls_shift/su_mean         0.000
_refine_ls_structure_factor_coef Fsqd
_refine_ls_weighting_details
'w=1/[\s^2^(Fo^2^)+(0.0623P)^2^+0.1834P] where P=(Fo^2^+2Fc^2^)/3'
_refine_ls_weighting_scheme      calc
_refine_ls_wR_factor_gt          0.1205
_refine_ls_wR_factor_ref         0.1342
_reflns_Friedel_coverage         0.000
_reflns_number_gt                2135
_reflns_number_total             3129
_reflns_threshold_expression     'I > 2\s(I)'
_cod_data_source_file            cs7b00784_si_005.cif
_cod_data_source_block           cd16575
_cod_depositor_comments
'Adding full bibliography for 4514120--4514122.cif.'
_cod_database_code               4514120
_shelx_space_group_comment
; 
The symmetry employed for this shelxl refinement is uniquely defined 
by the following loop, which should always be used as a source of 
symmetry information in preference to the above space-group names. 
They are only intended as comments. 
;
_shelx_estimated_absorpt_t_min   0.986
_shelx_estimated_absorpt_t_max   0.993
_shelxl_version_number           2013-4
_shelx_res_file
; 
TITL cd16575    P21/c 
CELL  0.71073   13.3160   20.4700    6.2779    90.000   101.369    90.000 
ZERR  4           0.0020    0.0030    0.0010     0.000     0.004     0.000 
LATT 1 
SYMM             - X ,    0.50000 + Y ,    0.50000 - Z 
SFAC C  H 
UNIT 100 72 
OMIT  -3.00  51.00 
L.S. 10 
ACTA 
BOND $H 
FMAP 2 
PLAN 0 
CONF 
wpdb -1 
size 0.20 0.12 0.10 
mpla c20 > c25 
mpla c8 c9 c11 > c18 
mpla c1 > c10 
htab 
WGHT    0.062300    0.183400 
FVAR       0.19189 
C1    1    0.708267    0.032960    0.139408    11.00000    0.04383    0.04458 = 
         0.04259   -0.00034    0.00065    0.00145 
C2    1    0.673602   -0.011198   -0.033345    11.00000    0.04387    0.05994 = 
         0.04979   -0.00726    0.00190   -0.00446 
AFIX  43 
H2    2    0.606470   -0.026319   -0.056335    11.00000   -1.20000 
AFIX   0 
C3    1    0.735874   -0.031774   -0.165167    11.00000    0.05691    0.06217 = 
         0.04815   -0.01174    0.00544   -0.00336 
AFIX  43 
H3    2    0.711636   -0.060842   -0.277386    11.00000   -1.20000 
AFIX   0 
C4    1    0.836602   -0.009384   -0.132856    11.00000    0.05665    0.06190 = 
         0.05074   -0.00356    0.01348   -0.00020 
AFIX  43 
H4    2    0.879123   -0.023606   -0.224513    11.00000   -1.20000 
AFIX   0 
C5    1    0.873563    0.032922    0.030623    11.00000    0.04596    0.05442 = 
         0.05268    0.00511    0.00805   -0.00323 
AFIX  43 
H5    2    0.941123    0.047032    0.049335    11.00000   -1.20000 
AFIX   0 
C6    1    0.811057    0.055950    0.173196    11.00000    0.04394    0.04136 = 
         0.04312    0.00655    0.00274    0.00103 
C7    1    0.845813    0.100215    0.344992    11.00000    0.04310    0.04014 = 
         0.04530    0.00586   -0.00012   -0.00042 
C8    1    0.779365    0.121111    0.477791    11.00000    0.04434    0.03815 = 
         0.04333    0.00537   -0.00202    0.00095 
C9    1    0.676370    0.097374    0.444051    11.00000    0.04459    0.04058 = 
         0.04155    0.00346    0.00052    0.00168 
C10   1    0.644573    0.054041    0.276030    11.00000    0.03845    0.05208 = 
         0.04819   -0.00321    0.00049   -0.00347 
AFIX  43 
H10   2    0.577788    0.038312    0.253339    11.00000   -1.20000 
AFIX   0 
C11   1    0.608552    0.119520    0.586527    11.00000    0.04845    0.04106 = 
         0.04280    0.00166    0.00084    0.00365 
C12   1    0.645480    0.164490    0.753026    11.00000    0.05467    0.04126 = 
         0.04401    0.00255    0.00088    0.00529 
C13   1    0.748222    0.187763    0.778245    11.00000    0.05764    0.04617 = 
         0.04991   -0.00592   -0.00413   -0.00266 
AFIX  43 
H13   2    0.771870    0.218099    0.886838    11.00000   -1.20000 
AFIX   0 
C14   1    0.811647    0.167446    0.651091    11.00000    0.04747    0.04489 = 
         0.05303   -0.00014   -0.00376   -0.00343 
AFIX  43 
H14   2    0.878215    0.183579    0.674938    11.00000   -1.20000 
AFIX   0 
C15   1    0.580710    0.185902    0.889402    11.00000    0.06959    0.04917 = 
         0.04968   -0.00518    0.00644    0.00261 
AFIX  43 
H15   2    0.605846    0.215653    0.998922    11.00000   -1.20000 
AFIX   0 
C16   1    0.481291    0.164549    0.867314    11.00000    0.06423    0.05388 = 
         0.05179   -0.00078    0.01261    0.00614 
C17   1    0.446554    0.119492    0.703904    11.00000    0.05191    0.05904 = 
         0.05999   -0.00504    0.01149   -0.00010 
AFIX  43 
H17   2    0.379881    0.103817    0.686526    11.00000   -1.20000 
AFIX   0 
C18   1    0.507681    0.097636    0.568249    11.00000    0.05008    0.05572 = 
         0.05320   -0.01063    0.00582   -0.00074 
AFIX  43 
H18   2    0.481634    0.067421    0.460896    11.00000   -1.20000 
AFIX   0 
C19   1    0.412110    0.189554    1.013070    11.00000    0.08300    0.07686 = 
         0.07752   -0.01509    0.03063    0.00052 
AFIX 137 
H19A  2    0.449427    0.191153    1.160335    11.00000   -1.50000 
H19B  2    0.354451    0.160822    1.004136    11.00000   -1.50000 
H19C  2    0.388472    0.232586    0.967401    11.00000   -1.50000 
AFIX   0 
C20   1    0.954235    0.123043    0.386695    11.00000    0.04515    0.04198 = 
         0.04982    0.00139    0.00321   -0.00144 
C21   1    0.988103    0.167965    0.253038    11.00000    0.06169    0.06271 = 
         0.06361    0.01822   -0.00088   -0.01194 
AFIX  43 
H21   2    0.942504    0.184522    0.133775    11.00000   -1.20000 
AFIX   0 
C22   1    1.088237    0.188600    0.293568    11.00000    0.06926    0.06655 = 
         0.08531    0.01549    0.01424   -0.02186 
AFIX  43 
H22   2    1.109638    0.219035    0.201935    11.00000   -1.20000 
AFIX   0 
C23   1    1.156474    0.164824    0.467010    11.00000    0.04782    0.06401 = 
         0.08594   -0.00980    0.00989   -0.01256 
AFIX  43 
H23   2    1.224145    0.179016    0.494011    11.00000   -1.20000 
AFIX   0 
C24   1    1.124733    0.119947    0.601078    11.00000    0.04881    0.06954 = 
         0.06797    0.00208   -0.00179   -0.00170 
AFIX  43 
H24   2    1.170951    0.103361    0.719314    11.00000   -1.20000 
AFIX   0 
C25   1    1.024703    0.099412    0.561071    11.00000    0.04767    0.05964 = 
         0.05782    0.01233    0.00380   -0.00301 
AFIX  43 
H25   2    1.003894    0.068929    0.653330    11.00000   -1.20000 
AFIX   0 
HKLF 4 
  
REM  cd16575    P21/c 
REM R1 =  0.0490 for    2135 Fo > 4sig(Fo)  and  0.0747 for all    3129 data 
REM    227 parameters refined using      0 restraints 
  
END 
  
WGHT      0.0605      0.1954 
  
REM No hydrogen bonds found for HTAB generation 
  
REM Highest difference peak  0.186,  deepest hole -0.130,  1-sigma level  0.031 
Q1    1   0.4422  0.2381  1.0668  11.00000  0.05    0.19 
Q2    1   0.3335  0.1987  0.9058  11.00000  0.05    0.18 
Q3    1   0.8381  0.0609  0.3048  11.00000  0.05    0.14 
Q4    1   0.7537  0.0597  0.1364  11.00000  0.05    0.13 
Q5    1   0.9618  0.1778  0.3774  11.00000  0.05    0.13 
Q6    1   0.8232  0.0646  0.0399  11.00000  0.05    0.13 
Q7    1   0.7197  0.1227  0.4264  11.00000  0.05    0.13 
Q8    1   0.6413  0.1243  0.7211  11.00000  0.05    0.12 
Q9    1   0.8011  0.1283  0.3587  11.00000  0.05    0.12 
Q10   1   0.6737  0.0556  0.4288  11.00000  0.05    0.12 
Q11   1   0.4051  0.1501  1.1360  11.00000  0.05    0.12 
Q12   1   0.7770  0.0318  0.2158  11.00000  0.05    0.12 
Q13   1   0.8037  0.0938  0.2034  11.00000  0.05    0.11 
Q14   1   0.5136  0.1909  0.8255  11.00000  0.05    0.11 
Q15   1   0.6175  0.1591  0.6138  11.00000  0.05    0.11 
Q16   1   0.6554  0.0961  0.5615  11.00000  0.05    0.10 
Q17   1   0.6968  0.0263  0.2663  11.00000  0.05    0.10 
Q18   1   0.7748  0.1639  0.5065  11.00000  0.05    0.10 
Q19   1   0.7669  0.1978  0.6617  11.00000  0.05    0.10 
Q20   1   0.7429  0.0943  0.4932  11.00000  0.05    0.10 
;
_shelx_res_checksum              97196
_shelx_hkl_file
; 
   0   0  -1    0.01    0.01 
   0   0  -2    0.01    0.02 
   0   0  -3   -0.01    0.03 
   0   0   4    0.21    0.11 
   0   0   4    0.44    0.10 
   0   0   5   -0.08    0.09 
   0   0   5    0.11    0.09 
   0   0   6    0.28    0.15 
   0   0   7    0.08    0.17 
   0   0   8    0.31    0.26 
   0   1   8   -0.18    0.23 
   0   1   7    4.45    0.44 
   0   1   6   -0.10    0.10 
   0   1   6   -0.10    0.11 
   0   1   5    1.60    0.20 
   0   1   5    1.32    0.22 
   0   1   4    0.38    0.12 
   0  -1  -3    3.75    0.22 
   0  -1  -2    0.23    0.07 
   0  -1  -1   16.57    0.51 
   0  -1   0   -0.16    0.00 
   0  -1   0   -0.16    0.01 
   0   1  -1   17.59    0.51 
   0  -1   1   17.52    0.53 
   0   1  -2    0.41    0.06 
   0  -1   2    0.33    0.07 
   0  -1   3    3.60    0.22 
   0  -1   4    0.40    0.10 
   0  -1   4    0.48    0.12 
   0  -1   5    1.28    0.16 
   0  -1   5    1.05    0.19 
   0  -1   6   -0.03    0.12 
   0  -1   7    4.56    0.45 
   0  -1   8   -0.14    0.22 
   0   2   8    0.22    0.27 
   0   2   7    2.78    0.37 
   0   2   6    1.78    0.27 
   0   2   6    2.05    0.26 
   0   2   5   -0.01    0.09 
   0   2   4    3.64    0.25 
   0  -2  -3    3.43    0.22 
   0  -2  -2   11.94    0.44 
   0  -2  -1    3.32    0.16 
   0  -2   0  110.49    3.05 
   0  -2   0  111.34    3.05 
   0   2  -1    3.54    0.12 
   0  -2   1    3.78    0.16 
   0   2  -2   12.60    0.40 
   0  -2   2   12.55    0.45 
   0  -2   3    3.73    0.22 
   0  -2   3    3.46    0.18 
   0  -2   4    3.67    0.21 
   0  -2   4    3.43    0.26 
   0  -2   5    0.04    0.11 
   0  -2   5    0.08    0.08 
   0  -2   6    2.44    0.31 
   0  -2   7    3.33    0.40 
   0  -2   8    0.19    0.24 
   0   3   8   -0.08    0.23 
   0   3   7    0.79    0.22 
   0   3   6    0.07    0.13 
   0   3   5    0.38    0.13 
   0   3   4    0.04    0.09 
   0  -3  -3    5.13    0.29 
   0  -3  -2   90.67    2.57 
   0  -3  -1  462.08   12.35 
   0  -3  -1  456.30   12.44 
   0  -3   0   -0.40    0.03 
   0  -3   0   -0.19    0.04 
   0  -3   0   -0.35    0.02 
   0  -3   1  481.18   13.02 
   0  -3   2   92.14    2.60 
   0  -3   3    4.77    0.20 
   0  -3   3    4.79    0.27 
   0  -3   4    0.16    0.07 
   0  -3   4    0.16    0.10 
   0  -3   5    0.24    0.14 
   0  -3   6    0.21    0.15 
   0  -3   7    0.59    0.23 
   0  -3   8   -0.05    0.21 
   0   4   8   -0.27    0.21 
   0   4   7    0.03    0.15 
   0   4   6    4.75    0.37 
   0   4   5    5.29    0.35 
   0   4   4    0.39    0.13 
   0  -4  -3    0.39    0.10 
   0  -4  -2    4.19    0.24 
   0  -4  -1  313.99    8.43 
   0  -4  -1  309.05    8.48 
   0  -4   0  480.12   11.91 
   0  -4   0  479.02   12.78 
   0  -4   0  468.06   12.86 
   0   4  -1  338.59    9.28 
   0  -4   1  326.60    9.02 
   0  -4   2    4.64    0.23 
   0  -4   3    0.49    0.06 
   0  -4   3    0.34    0.10 
   0  -4   4    0.44    0.13 
   0  -4   4    0.53    0.08 
   0  -4   5    6.30    0.40 
   0  -4   6    5.21    0.40 
   0  -4   7   -0.13    0.16 
   0  -4   8   -0.36    0.20 
   0   5   8    0.56    0.29 
   0   5   6    0.29    0.14 
   0   5   5    1.45    0.23 
   0   5   4    0.10    0.10 
   0  -5  -3    1.35    0.18 
   0  -5  -2   55.17    1.65 
   0  -5  -1 1000.00   26.45 
   0  -5  -1  974.35   26.65 
   0  -5   0    0.02    0.05 
   0  -5   0   -0.07    0.03 
   0  -5   0   -0.13    0.05 
   0   5  -1  932.28   25.89 
   0  -5   1  987.07   25.91 
   0  -5   2   60.46    1.76 
   0  -5   3    1.12    0.07 
   0  -5   3    1.24    0.16 
   0  -5   4   -0.06    0.09 
   0  -5   4    0.06    0.05 
   0  -5   5    1.13    0.21 
   0  -5   6    0.19    0.16 
   0  -5   7   -0.16    0.17 
   0  -5   8    0.89    0.32 
   0   6   8    1.71    0.37 
   0   6   7    0.54    0.21 
   0   6   6    0.17    0.15 
   0   6   5   -0.05    0.10 
   0   6   4    1.28    0.20 
   0   6   3    0.46    0.13 
   0  -6  -3    0.23    0.09 
   0  -6  -2   16.98    0.63 
   0  -6  -1  199.57    5.47 
   0  -6  -1  197.23    5.44 
   0   6   0  270.69    7.34 
   0  -6   0  268.04    7.41 
   0  -6   0  276.98    6.80 
   0   6  -1  212.48    5.65 
   0  -6   1  205.81    5.74 
   0  -6   2   18.91    0.65 
   0  -6   3    0.46    0.12 
   0  -6   4    1.23    0.19 
   0  -6   5    0.09    0.13 
   0  -6   6    0.21    0.16 
   0  -6   7    0.21    0.21 
   0  -6   8    1.46    0.37 
   0   7   7    0.05    0.16 
   0   7   6    0.90    0.22 
   0   7   5    0.08    0.12 
   0   7   4    1.06    0.20 
   0   7   3    0.27    0.11 
   0  -7  -2    2.58    0.22 
   0  -7  -1    1.83    0.15 
   0  -7  -1    2.30    0.18 
   0   7   0   -0.09    0.05 
   0  -7   0   -0.21    0.06 
   0  -7   0   -0.22    0.03 
   0   7  -1    1.78    0.10 
   0  -7   1    1.75    0.16 
   0  -7   2    3.03    0.22 
   0  -7   3   -0.02    0.10 
   0  -7   4    1.09    0.19 
   0  -7   5    0.14    0.14 
   0  -7   6    0.97    0.24 
   0  -7   7   -0.12    0.20 
   0   8   7    0.50    0.22 
   0   8   6    0.17    0.13 
   0   8   5    2.11    0.29 
   0   8   4    6.53    0.41 
   0   8   3    4.42    0.30 
   0  -8  -2   73.11    2.19 
   0  -8  -2   73.42    2.19 
   0   8   1   20.86    0.70 
   0  -8  -1   19.95    0.71 
   0  -8  -1   20.31    0.71 
   0   8   0   14.40    0.50 
   0  -8   0   15.04    0.42 
   0  -8   0   14.65    0.53 
   0   8  -1   21.91    0.65 
   0  -8   1   21.75    0.73 
   0  -8   2   73.54    2.15 
   0  -8   3    4.43    0.30 
   0  -8   4    5.65    0.36 
   0  -8   5    2.28    0.28 
   0  -8   6    0.06    0.16 
   0  -8   7    0.22    0.22 
   0   9   7    0.36    0.20 
   0   9   6    0.05    0.13 
   0   9   5    1.94    0.28 
   0   9   4    2.73    0.30 
   0   9   3    4.69    0.32 
   0   9   2   50.92    1.59 
   0  -9  -2   51.14    1.61 
   0   9   1   91.00    2.58 
   0  -9  -1   88.20    2.59 
   0   9   0   -0.03    0.04 
   0  -9   0   -0.08    0.05 
   0  -9   0    0.03    0.03 
   0   9  -1   92.50    2.58 
   0  -9   1   92.49    2.68 
   0  -9   1   95.56    2.44 
   0  -9   2   55.57    1.69 
   0  -9   3    4.77    0.32 
   0  -9   4    2.79    0.28 
   0  -9   5    1.90    0.26 
   0  -9   6    0.09    0.18 
   0  -9   7   -0.03    0.20 
   0  10   7    0.23    0.20 
   0  10   6    0.79    0.21 
   0  10   5    3.01    0.34 
   0  10   4    0.30    0.15 
   0  10   3    5.87    0.37 
   0  10   2   28.66    1.00 
   0 -10  -2   28.52    1.01 
   0  10   1   16.32    0.61 
   0 -10  -1   15.38    0.60 
   0  10   0   48.86    1.43 
   0 -10   0   47.79    1.25 
   0 -10   0   46.76    1.45 
   0  10  -1   16.77    0.53 
   0 -10   1   16.02    0.52 
   0 -10   1   16.18    0.61 
   0  10  -2   29.69    0.83 
   0 -10   2   29.23    1.00 
   0 -10   3    5.46    0.34 
   0 -10   4    0.74    0.19 
   0 -10   5    2.85    0.32 
   0 -10   6    0.57    0.23 
   0 -10   7    0.15    0.23 
   0  11   7    0.02    0.21 
   0  11   6    0.23    0.17 
   0  11   5    0.12    0.14 
   0  11   4    2.33    0.30 
   0  11   3    0.62    0.17 
   0  11   2   10.54    0.51 
   0 -11  -2   11.56    0.53 
   0  11   1    2.68    0.21 
   0 -11  -1    2.09    0.21 
   0  11   0    0.05    0.05 
   0 -11   0    0.02    0.04 
   0 -11   0   -0.01    0.07 
   0  11  -1    2.54    0.15 
   0 -11   1    1.83    0.13 
   0 -11   1    2.47    0.22 
   0  11  -2   11.38    0.35 
   0 -11   2   10.39    0.49 
   0 -11   3    0.64    0.18 
   0 -11   4    1.63    0.25 
   0 -11   5    0.34    0.19 
   0 -11   6    0.11    0.19 
   0 -11   7   -0.16    0.21 
   0  12   7    0.65    0.28 
   0  12   6    0.47    0.21 
   0  12   5    0.84    0.22 
   0  12   4    0.58    0.18 
   0  12   3    0.76    0.18 
   0  12   2    1.19    0.19 
   0 -12  -2    1.36    0.20 
   0  12   1    0.45    0.11 
   0 -12  -1    0.60    0.14 
   0  12   0    0.80    0.12 
   0 -12   0    0.83    0.14 
   0 -12   0    0.93    0.08 
   0  12  -1    0.35    0.07 
   0 -12   1    0.17    0.05 
   0 -12   1    0.82    0.15 
   0  12  -2    1.50    0.08 
   0 -12   2    1.05    0.14 
   0 -12   2    1.51    0.22 
   0 -12   3    0.91    0.22 
   0 -12   4    0.82    0.21 
   0 -12   5    1.01    0.23 
   0 -12   6    0.23    0.22 
   0 -12   7    0.91    0.31 
   0  13   7    0.57    0.28 
   0  13   6    0.46    0.24 
   0  13   5    0.47    0.20 
   0  13   4    0.95    0.22 
   0  13   3    0.64    0.18 
   0  13   2    0.01    0.07 
   0 -13  -2    0.03    0.09 
   0  13   1    2.83    0.22 
   0 -13  -1    3.06    0.27 
   0  13   0    0.04    0.05 
   0 -13   0    0.01    0.05 
   0 -13   0   -0.03    0.09 
   0  13  -1    3.01    0.18 
   0 -13   1    2.88    0.25 
   0  13  -2    0.16    0.03 
   0 -13   2   -0.01    0.14 
   0 -13   2    0.03    0.07 
   0 -13   3    0.24    0.19 
   0 -13   4    1.05    0.25 
   0 -13   5    0.54    0.22 
   0 -13   6    0.16    0.22 
   0 -13   7    0.47    0.28 
   0  14   7    0.09    0.23 
   0  14   6    0.21    0.20 
   0  14   5    0.13    0.16 
   0  14   4    0.24    0.15 
   0  14   3    0.79    0.19 
   0  14   2    0.09    0.10 
   0 -14  -2   -0.01    0.11 
   0  14   1    0.48    0.12 
   0 -14  -1    0.33    0.13 
   0  14   0  147.83    4.12 
   0 -14   0  151.37    3.72 
   0 -14   0  139.76    4.18 
   0  14  -1    0.48    0.09 
   0 -14   1    0.33    0.08 
   0 -14   1    0.46    0.15 
   0 -14   2    0.09    0.14 
   0 -14   2    0.06    0.07 
   0 -14   3    0.86    0.17 
   0 -14   3    0.79    0.22 
   0 -14   4    0.27    0.20 
   0 -14   5    0.44    0.22 
   0 -14   6   -0.10    0.20 
   0 -14   7    0.15    0.15 
   0 -14   7   -0.09    0.26 
   0  15   6    0.46    0.26 
   0  15   5    0.16    0.17 
   0  15   4    0.07    0.13 
   0  15   3    0.65    0.19 
   0 -15  -3    0.87    0.21 
   0  15   2    0.64    0.18 
   0 -15  -2    0.71    0.19 
   0  15   1    2.63    0.25 
   0 -15  -1    2.40    0.27 
   0 -15   0    0.38    0.15 
   0  15  -1    2.70    0.18 
   0 -15   1    3.10    0.18 
   0 -15   1    2.73    0.28 
   0 -15   2    0.82    0.14 
   0 -15   2    0.51    0.19 
   0 -15   3    0.51    0.20 
   0 -15   3    1.12    0.20 
   0 -15   4    0.09    0.18 
   0 -15   4    0.06    0.14 
   0 -15   5    0.10    0.16 
   0 -15   5   -0.24    0.16 
   0 -15   6    0.12    0.24 
   0 -15   6    0.10    0.17 
   0  16   6    0.30    0.26 
   0  16   5    0.23    0.20 
   0  16   4   -0.04    0.14 
   0  16   3    1.17    0.24 
   0 -16  -3    1.11    0.25 
   0  16   2    1.29    0.23 
   0 -16  -2    1.13    0.22 
   0  16   1    0.32    0.13 
   0 -16  -1    0.42    0.14 
   0  16   0    1.07    0.15 
   0 -16   0    1.03    0.20 
   0  16  -1    0.61    0.11 
   0 -16   1    0.50    0.18 
   0 -16   1    0.70    0.11 
   0 -16   2    1.13    0.15 
   0 -16   2    1.06    0.23 
   0 -16   3    1.36    0.27 
   0 -16   3    1.10    0.20 
   0 -16   4    0.35    0.20 
   0 -16   4   -0.12    0.13 
   0 -16   5    0.20    0.22 
   0 -16   5    0.02    0.17 
   0 -16   6    0.13    0.17 
   0 -16   6   -0.21    0.23 
   0  17   6    0.00    0.22 
   0  17   5   -0.06    0.18 
   0  17   4    0.25    0.16 
   0  17   3    0.20    0.16 
   0 -17  -3    0.09    0.14 
   0  17   2    0.13    0.14 
   0 -17  -2    0.29    0.16 
   0 -17  -1    4.25    0.34 
   0  17   0    0.14    0.07 
   0 -17   0    0.09    0.13 
   0  17  -1    4.27    0.25 
   0 -17   1    4.24    0.22 
   0 -17   1    4.58    0.35 
   0 -17   2    0.12    0.16 
   0 -17   2    0.19    0.08 
   0 -17   3    0.18    0.17 
   0 -17   3    0.00    0.13 
   0 -17   4   -0.05    0.18 
   0 -17   4    0.08    0.15 
   0 -17   5   -0.07    0.19 
   0 -17   5    0.00    0.16 
   0 -17   6   -0.07    0.14 
   0 -17   6    0.17    0.26 
   0  18   6    0.37    0.25 
   0  18   5    0.50    0.24 
   0  18   4    0.12    0.17 
   0  18   3   -0.11    0.14 
   0 -18  -3   -0.07    0.14 
   0  18   2    1.35    0.24 
   0 -18  -2    1.23    0.25 
   0  18   1    1.40    0.23 
   0 -18  -1    1.17    0.23 
   0  18   0   12.76    0.56 
   0 -18   0   13.21    0.64 
   0 -18   1    1.18    0.23 
   0 -18   2    1.38    0.17 
   0 -18   2    1.42    0.24 
   0 -18   3   -0.15    0.17 
   0 -18   3   -0.23    0.11 
   0 -18   4    0.19    0.16 
   0 -18   4    0.13    0.20 
   0 -18   5    0.56    0.21 
   0 -18   5    0.57    0.25 
   0 -18   6    0.48    0.29 
   0 -18   6    0.19    0.17 
   0  19   5    0.01    0.18 
   0  19   4    0.59    0.23 
   0  19   3    0.06    0.16 
   0 -19  -3   -0.08    0.15 
   0  19   2    0.67    0.20 
   0 -19  -2    0.53    0.19 
   0  19   1    2.60    0.29 
   0 -19  -1    3.69    0.37 
   0  19   0   -0.01    0.11 
   0 -19   0    0.05    0.12 
   0 -19   1    3.67    0.36 
   0 -19   2    0.36    0.14 
   0 -19   2    0.68    0.21 
   0 -19   3    0.06    0.14 
   0 -19   3    0.05    0.16 
   0 -19   4    1.01    0.25 
   0 -19   4    0.53    0.20 
   0 -19   5    0.27    0.24 
   0 -19   5    0.10    0.17 
   0  20   5    0.25    0.19 
   0  20   4   -0.03    0.17 
   0  20   3    0.22    0.18 
   0 -20  -3   -0.06    0.16 
   0  20   2   -0.10    0.13 
   0 -20  -2    0.12    0.17 
   0  20   1    0.38    0.16 
   0 -20  -1    0.25    0.15 
   0  20   0    0.72    0.19 
   0 -20   0    0.59    0.20 
   0 -20   1    0.38    0.18 
   0 -20   2   -0.14    0.14 
   0 -20   3    0.00    0.14 
   0 -20   3    0.03    0.18 
   0 -20   4    0.14    0.17 
   0 -20   4    0.13    0.21 
   0 -20   5    0.02    0.18 
   0 -20   5    0.73    0.29 
   0  21   5    0.07    0.17 
   0  21   4   -0.14    0.15 
   0  21   3   -0.01    0.16 
   0 -21  -3   -0.14    0.15 
   0  21   2   -0.16    0.13 
   0 -21  -2    0.13    0.16 
   0  21   1    0.98    0.22 
   0 -21  -1    1.05    0.25 
   0  21   0   -0.12    0.13 
   0 -21   0    0.18    0.15 
   0 -21   1    0.94    0.23 
   0 -21   2   -0.03    0.15 
   0 -21   3    0.24    0.20 
   0 -21   4    0.01    0.17 
   0 -21   4    0.30    0.23 
   0 -21   5    0.07    0.18 
   0 -21   5    0.16    0.24 
   0  22   4    0.12    0.15 
   0  22   3   -0.04    0.15 
   0 -22  -3    0.08    0.19 
   0  22   2    0.01    0.15 
   0 -22  -2   -0.03    0.15 
   0  22   1    0.91    0.24 
   0 -22  -1    1.30    0.29 
   0 -22   0   -0.01    0.13 
   0 -22   1    1.11    0.26 
   0 -22   2   -0.03    0.16 
   0 -22   3    0.36    0.23 
   0 -22   4   -0.10    0.21 
   0  23   4    1.10    0.28 
   0  23   3   -0.14    0.15 
   0 -23  -3    0.01    0.17 
   0  23   2    1.15    0.26 
   0 -23  -2    0.90    0.25 
   0  23   1    0.10    0.16 
   0 -23  -1    0.41    0.21 
   0 -23   0    0.00    0.17 
   0 -23   1    0.29    0.19 
   0 -23   2    0.79    0.26 
   0 -23   3    0.41    0.23 
   0 -23   4    0.50    0.28 
   0  24   3    0.12    0.18 
   0 -24  -3    0.28    0.19 
   0  24   2    0.05    0.20 
   0 -24  -2   -0.09    0.21 
   0  24   1    1.04    0.26 
   0 -24  -1    0.48    0.25 
   0 -24   0    0.58    0.25 
   0 -24   1    0.88    0.28 
   0 -24   2    0.26    0.22 
   0 -24   3    0.51    0.27 
   0  25   3    0.15    0.20 
   0 -25  -3    0.26    0.19 
   0  25   2    0.06    0.19 
   0 -25  -2    0.08    0.25 
   0 -25  -1    0.11    0.24 
   0 -25   0    0.04    0.22 
   0 -25   1   -0.08    0.22 
   0 -25   2    0.17    0.24 
   0 -25   3    0.49    0.28 
   0  26   2   -0.04    0.17 
   0 -26  -2   -0.14    0.22 
   0 -26  -1    0.12    0.26 
   0 -26   0    0.16    0.24 
   0 -26   1    0.56    0.29 
   0 -26   2   -0.01    0.23 
   0 -27  -1    0.73    0.34 
   0 -27   0    0.05    0.24 
   0 -27   1    1.17    0.35 
  -1 -27   1    0.35    0.30 
  -1 -27   0   -0.10    0.26 
  -1 -27  -1   -0.14    0.26 
  -1 -26   2    0.11    0.25 
  -1 -26   1    0.14    0.25 
  -1 -26   0    0.22    0.27 
  -1 -26  -1    1.36    0.39 
  -1 -26  -2   -0.32    0.25 
   1  26   2    0.06    0.18 
  -1 -25   3    0.26    0.26 
  -1 -25   2    0.28    0.25 
  -1 -25   1    0.12    0.22 
  -1 -25   0    0.15    0.24 
  -1 -25  -1    0.64    0.30 
   1  25   1    0.62    0.22 
  -1 -25  -2    0.29    0.29 
   1  25   2    0.78    0.24 
   1  25   3    0.24    0.17 
  -1 -24   4    0.31    0.27 
  -1 -24   3   -0.02    0.21 
  -1 -24   2   -0.06    0.17 
  -1 -24   1    0.90    0.28 
  -1 -24   0    0.19    0.20 
  -1 -24  -1    0.05    0.23 
   1  24   1    0.10    0.17 
  -1 -24  -2    1.55    0.38 
   1  24   2    1.54    0.30 
   1  24   3   -0.10    0.15 
  -1 -23   4    0.15    0.25 
  -1 -23   3    0.31    0.23 
  -1 -23   2    0.21    0.17 
  -1 -23   1    0.03    0.18 
  -1 -23   0    0.42    0.21 
  -1 -23  -1    0.08    0.18 
   1  23   1   -0.17    0.14 
  -1 -23  -2    2.30    0.39 
   1  23   2    2.43    0.36 
   1  23   3   -0.02    0.15 
   1  23   4    0.06    0.16 
  -1 -22   4    0.02    0.22 
  -1 -22   3    0.56    0.24 
  -1 -22   2    0.02    0.16 
  -1 -22   1    1.08    0.26 
  -1 -22   0    0.03    0.14 
  -1 -22  -1   -0.19    0.15 
   1  22   1    0.03    0.14 
  -1 -22  -2    1.68    0.34 
   1  22   2    1.88    0.32 
  -1 -22  -3   -0.08    0.16 
   1  22   3    0.23    0.19 
   1  22   4    0.08    0.17 
  -1 -21   5    0.21    0.19 
  -1 -21   5    0.50    0.29 
  -1 -21   4    0.24    0.22 
  -1 -21   4   -0.25    0.15 
  -1 -21   3    0.15    0.17 
  -1 -21   2    0.28    0.19 
  -1 -21   1    0.24    0.16 
  -1 -21   0    0.29    0.17 
   1  21   0    0.24    0.15 
  -1 -21  -1    0.87    0.22 
   1  21   1    0.98    0.22 
  -1 -21  -2    2.18    0.36 
   1  21   2    3.33    0.39 
  -1 -21  -3    0.16    0.19 
   1  21   3   -0.18    0.16 
   1  21   4   -0.06    0.18 
   1  21   5    0.54    0.22 
  -1 -20   5   -0.02    0.22 
  -1 -20   5    0.18    0.19 
  -1 -20   4    0.27    0.21 
  -1 -20   4   -0.05    0.15 
  -1 -20   3    0.09    0.15 
  -1 -20   3    0.06    0.16 
  -1 -20   2   -0.06    0.15 
  -1 -20   1    0.21    0.14 
  -1 -20   0    0.21    0.14 
   1  20   0    0.32    0.14 
  -1 -20  -1    3.93    0.41 
   1  20   1    4.12    0.38 
  -1 -20  -2    1.10    0.28 
   1  20   2    1.44    0.26 
   1  20   3    0.56    0.21 
   1  20   4    0.65    0.24 
   1  20   5    0.20    0.20 
  -1 -19   5    0.68    0.25 
  -1 -19   5    0.23    0.19 
  -1 -19   4    0.26    0.18 
  -1 -19   4    0.40    0.23 
  -1 -19   3    0.18    0.17 
  -1 -19   3   -0.16    0.12 
  -1 -19   2    0.29    0.13 
  -1 -19   2    0.35    0.18 
  -1 -19   1    1.01    0.22 
  -1 -19   0    0.15    0.13 
   1  19   0    0.23    0.12 
  -1 -19  -1    4.38    0.40 
   1  19   1    3.54    0.35 
  -1 -19  -2    0.03    0.13 
   1  19   2    0.12    0.17 
   1  19   3    0.77    0.22 
   1  19   4    0.97    0.26 
   1  19   5   -0.13    0.22 
  -1 -18   6    0.22    0.27 
  -1 -18   6    0.26    0.19 
  -1 -18   5    0.34    0.23 
  -1 -18   5    0.14    0.15 
  -1 -18   4   -0.02    0.14 
  -1 -18   4    0.14    0.18 
  -1 -18   3    0.80    0.19 
  -1 -18   3    1.38    0.26 
  -1 -18   2    0.25    0.16 
  -1 -18   2   -0.09    0.10 
  -1 -18   1    0.07    0.12 
  -1 -18   1    0.07    0.06 
   1  18  -1    0.07    0.06 
  -1 -18   0   -0.11    0.10 
   1  18   0    0.12    0.08 
  -1 -18  -1    4.14    0.39 
   1  18   1    4.12    0.32 
  -1 -18  -2    0.95    0.22 
   1  18   2    0.74    0.19 
   1  18   3    2.91    0.36 
   1  18   4    1.73    0.32 
   1  18   5    0.09    0.22 
   1  18   6    0.14    0.24 
  -1 -17   6    0.43    0.20 
  -1 -17   6    0.79    0.30 
  -1 -17   5    0.63    0.21 
  -1 -17   5    0.65    0.25 
  -1 -17   4    0.22    0.19 
  -1 -17   4    0.06    0.14 
  -1 -17   3    0.03    0.13 
  -1 -17   3    0.28    0.18 
  -1 -17   2    0.34    0.11 
  -1 -17   2    0.11    0.13 
  -1 -17   1    0.92    0.20 
  -1 -17   1    1.00    0.12 
   1  17  -1    1.14    0.13 
  -1 -17   0    8.03    0.47 
   1  17   0    7.59    0.39 
  -1 -17  -1    2.04    0.27 
   1  17   1    1.64    0.23 
  -1 -17  -2    1.31    0.25 
   1  17   2    1.06    0.21 
   1  17   3    2.64    0.33 
   1  17   4   -0.01    0.15 
   1  17   5    0.55    0.24 
   1  17   6    0.23    0.26 
  -1 -16   6    0.15    0.23 
  -1 -16   6    0.05    0.16 
  -1 -16   5    0.64    0.21 
  -1 -16   5    0.47    0.23 
  -1 -16   4    0.46    0.21 
  -1 -16   4    0.46    0.17 
  -1 -16   3    0.25    0.13 
  -1 -16   3    0.02    0.15 
  -1 -16   2    0.09    0.09 
  -1 -16   2    0.00    0.13 
  -1 -16   1    3.40    0.20 
  -1 -16   1    3.97    0.31 
   1  16  -1    3.64    0.21 
  -1 -16   0    0.00    0.11 
  -1 -16   0    0.21    0.06 
   1  16   0    0.12    0.08 
  -1 -16  -1    1.23    0.22 
   1  16   1    1.21    0.20 
  -1 -16  -2    1.99    0.28 
   1  16   2    1.76    0.25 
   1  16   3    0.15    0.16 
   1  16   4    2.41    0.35 
   1  16   5    0.10    0.18 
   1  16   6   -0.11    0.22 
  -1 -15   6    0.26    0.21 
  -1 -15   6   -0.11    0.15 
  -1 -15   5    0.06    0.18 
  -1 -15   5   -0.05    0.15 
  -1 -15   4    0.17    0.17 
  -1 -15   4    0.12    0.15 
  -1 -15   3   -0.02    0.13 
  -1 -15   3    0.19    0.17 
  -1 -15   2    0.54    0.12 
  -1 -15   2    0.55    0.18 
  -1 -15   1   -0.03    0.11 
  -1 -15   1    0.05    0.03 
   1  15  -1    0.12    0.05 
  -1 -15   0   19.12    0.57 
  -1 -15   0   18.66    0.77 
   1  15   0   19.88    0.72 
  -1 -15  -1   -0.15    0.09 
   1  15   1   -0.10    0.06 
  -1 -15  -2    0.46    0.16 
   1  15   2    0.39    0.14 
   1  15   4    0.10    0.14 
   1  15   5    0.21    0.18 
   1  15   6    0.41    0.23 
  -1 -14   7    0.50    0.18 
  -1 -14   7    0.43    0.29 
  -1 -14   6    0.29    0.19 
  -1 -14   6    0.47    0.25 
  -1 -14   5    0.00    0.15 
  -1 -14   5    0.08    0.17 
  -1 -14   4    0.17    0.13 
  -1 -14   4    0.25    0.19 
  -1 -14   3    2.43    0.29 
  -1 -14   3    2.10    0.23 
  -1 -14   2    0.00    0.14 
  -1 -14   2   -0.12    0.06 
   1  14  -2    0.12    0.04 
  -1 -14   1    0.44    0.14 
   1  14  -1    0.59    0.09 
  -1 -14   0   -0.03    0.10 
  -1 -14   0   -0.08    0.04 
   1  14   0    0.01    0.08 
  -1 -14  -1    1.03    0.19 
   1  14   1    0.80    0.15 
  -1 -14  -2    0.01    0.12 
   1  14   2    0.08    0.12 
   1  14   3   19.64    0.85 
   1  14   4    1.61    0.28 
   1  14   5    0.19    0.18 
   1  14   6    0.33    0.21 
  -1 -13   7    0.51    0.30 
  -1 -13   7    0.79    0.24 
  -1 -13   6    1.17    0.28 
  -1 -13   6    1.32    0.27 
  -1 -13   5    0.27    0.16 
  -1 -13   5    0.50    0.22 
  -1 -13   4   -0.06    0.16 
  -1 -13   4   -0.02    0.13 
  -1 -13   3    0.53    0.15 
  -1 -13   3    0.39    0.18 
  -1 -13   2    0.07    0.08 
  -1 -13   2    0.11    0.13 
   1  13  -2    0.14    0.04 
  -1 -13   1    3.22    0.19 
  -1 -13   1    5.03    0.30 
   1  13  -1    4.59    0.22 
  -1 -13   0    0.52    0.13 
  -1 -13   0    0.53    0.07 
   1  13   0    0.35    0.10 
  -1 -13  -1    0.57    0.15 
   1  13   1    1.03    0.16 
  -1 -13  -2    3.51    0.32 
   1  13   2    3.23    0.29 
   1  13   3    6.38    0.42 
   1  13   4    1.97    0.29 
   1  13   5    0.97    0.23 
   1  13   6    0.41    0.21 
   1  13   7    0.21    0.26 
  -1 -12   7    1.00    0.26 
  -1 -12   7    1.00    0.32 
  -1 -12   6   -0.04    0.16 
  -1 -12   6    0.11    0.16 
  -1 -12   5    0.08    0.17 
  -1 -12   4    3.08    0.30 
  -1 -12   4    3.32    0.33 
  -1 -12   3    0.47    0.12 
  -1 -12   3    0.79    0.20 
  -1 -12   2    3.91    0.24 
  -1 -12   2    3.87    0.30 
   1  12  -2    4.46    0.19 
  -1 -12   1   -0.06    0.09 
  -1 -12   1    0.14    0.07 
   1  12  -1    0.06    0.04 
  -1 -12   0    0.20    0.05 
  -1 -12   0    0.06    0.08 
   1  12   0    0.27    0.08 
  -1 -12  -1   34.36    1.16 
   1  12   1   33.68    1.13 
  -1 -12  -2    4.96    0.34 
   1  12   2    4.89    0.32 
   1  12   3    0.24    0.14 
   1  12   4    0.34    0.16 
   1  12   5   -0.03    0.11 
   1  12   6   -0.04    0.16 
   1  12   7    0.16    0.26 
  -1 -11   7    0.04    0.15 
  -1 -11   7   -0.18    0.24 
  -1 -11   6    0.09    0.18 
  -1 -11   5    0.92    0.22 
  -1 -11   4    2.26    0.27 
  -1 -11   3    0.01    0.07 
  -1 -11   3    0.14    0.16 
  -1 -11   2    1.02    0.14 
  -1 -11   2    1.05    0.18 
   1  11  -2    1.20    0.08 
  -1 -11   1    5.82    0.31 
  -1 -11   1    5.88    0.25 
   1  11  -1    6.03    0.25 
  -1 -11   0    0.33    0.11 
  -1 -11   0    0.39    0.06 
   1  11   0    0.45    0.09 
  -1 -11  -1   74.18    2.21 
   1  11   1   72.36    2.17 
  -1 -11  -2   67.46    2.11 
   1  11   2   68.25    2.08 
   1  11   3    2.19    0.26 
   1  11   4    1.43    0.24 
   1  11   5    1.87    0.29 
   1  11   6    0.11    0.17 
   1  11   7    0.32    0.25 
  -1 -10   7    0.75    0.28 
  -1 -10   6   -0.06    0.17 
  -1 -10   5    0.95    0.22 
  -1 -10   4    0.26    0.16 
  -1 -10   3    0.51    0.16 
  -1 -10   2    5.40    0.31 
  -1 -10   2    4.98    0.26 
   1  10  -2    5.19    0.20 
  -1 -10   1   18.97    0.66 
  -1 -10   1   18.14    0.57 
   1  10  -1   18.71    0.59 
  -1 -10   0    0.36    0.06 
  -1 -10   0    0.42    0.11 
   1  10   0    0.18    0.06 
  -1 -10  -1    1.60    0.19 
   1  10   1    1.72    0.18 
  -1 -10  -2   95.76    2.84 
   1  10   2   95.10    2.80 
   1  10   3    3.65    0.29 
   1  10   4    2.00    0.27 
   1  10   5    0.77    0.20 
   1  10   6   -0.07    0.12 
   1  10   7    0.10    0.22 
  -1  -9   7   -0.26    0.17 
  -1  -9   6    0.46    0.20 
  -1  -9   5    1.04    0.22 
  -1  -9   4    0.03    0.13 
  -1  -9   3    2.91    0.25 
  -1  -9   2    1.41    0.15 
  -1  -9   2    1.31    0.17 
   1   9  -2    1.50    0.08 
  -1  -9   1    1.14    0.11 
  -1  -9   1    1.00    0.14 
   1   9  -1    1.11    0.09 
  -1  -9   0    6.42    0.22 
  -1  -9   0    6.12    0.30 
   1   9   0    6.42    0.28 
  -1  -9  -1   19.68    0.71 
   1   9   1   19.60    0.70 
  -1  -9  -2   12.02    0.54 
   1   9   2   12.48    0.53 
   1   9   3    0.82    0.17 
   1   9   4    2.27    0.27 
   1   9   5    0.20    0.15 
   1   9   6   -0.01    0.13 
   1   9   7   -0.05    0.20 
  -1  -8   7   -0.04    0.20 
  -1  -8   6   -0.04    0.15 
  -1  -8   5    1.04    0.21 
  -1  -8   4    4.33    0.30 
  -1  -8   3    4.73    0.30 
  -1  -8   2   69.46    2.03 
   1   8  -2   69.19    1.90 
  -1  -8   1   29.25    0.92 
  -1  -8   1   29.00    0.83 
   1   8  -1   29.61    0.86 
  -1  -8   0    4.00    0.22 
  -1  -8   0    4.06    0.15 
   1   8   0    3.88    0.20 
  -1  -8  -1    3.48    0.23 
   1   8   1    3.15    0.21 
   1   8   2    7.17    0.37 
   1   8   3    3.80    0.28 
   1   8   4    3.97    0.32 
   1   8   5    2.38    0.30 
   1   8   6    0.23    0.15 
   1   8   7    0.15    0.19 
  -1  -7   7    0.24    0.20 
  -1  -7   6    3.11    0.34 
  -1  -7   5    0.47    0.17 
  -1  -7   4    1.66    0.21 
  -1  -7   3    0.31    0.11 
  -1  -7   2    3.70    0.23 
   1   7  -2    3.63    0.14 
  -1  -7   1    7.93    0.28 
  -1  -7   1    7.58    0.32 
   1   7  -1    7.56    0.27 
  -1  -7   0    0.09    0.03 
  -1  -7   0    0.08    0.06 
   1   7   0    0.11    0.05 
  -1  -7  -1   44.58    1.34 
   1   7   1   43.04    1.32 
   1   7   2  238.80    6.57 
   1   7   3    0.47    0.13 
   1   7   4    0.18    0.11 
   1   7   5    0.19    0.13 
   1   7   6   -0.10    0.11 
   1   7   7    0.70    0.23 
  -1  -6   7    0.12    0.20 
  -1  -6   6    0.32    0.19 
  -1  -6   5    0.00    0.13 
  -1  -6   4    2.14    0.22 
  -1  -6   3    0.25    0.10 
   1   6  -3    0.32    0.04 
  -1  -6   2   15.27    0.55 
   1   6  -2   15.83    0.46 
  -1  -6   1   10.72    0.40 
  -1  -6   1   11.01    0.36 
   1   6  -1   11.04    0.35 
  -1  -6   0    0.07    0.06 
  -1  -6   0    0.06    0.02 
   1   6   0    0.27    0.06 
  -1  -6  -1   98.14    2.82 
   1   6   1  100.39    2.79 
   1   6   2    0.13    0.07 
   1   6   3    0.19    0.09 
   1   6   4    4.98    0.33 
   1   6   5    0.00    0.10 
   1   6   6    0.43    0.18 
   1   6   7    0.04    0.18 
  -1  -5   7    2.02    0.32 
  -1  -5   6    3.24    0.33 
  -1  -5   5    0.09    0.12 
  -1  -5   4    0.14    0.10 
  -1  -5   3    2.13    0.19 
   1   5  -3    2.28    0.11 
  -1  -5   2    7.38    0.31 
   1   5  -2    7.34    0.24 
  -1  -5   1  102.20    2.87 
  -1  -5   1  105.42    2.66 
   1   5  -1  103.27    2.82 
  -1  -5   0    0.90    0.09 
   1   5   0    1.00    0.09 
  -1  -5  -1  526.27   14.27 
   1   5   1  525.13   14.14 
   1   5   2    0.17    0.08 
   1   5   3    3.90    0.26 
   1   5   4    0.01    0.08 
   1   5   5    2.21    0.26 
   1   5   6    1.14    0.21 
   1   5   7    0.35    0.17 
  -1  -4   8    0.46    0.27 
  -1  -4   7    5.10    0.45 
  -1  -4   6    0.24    0.18 
  -1  -4   5    3.61    0.30 
  -1  -4   4    0.23    0.11 
   1   4  -4    0.17    0.05 
  -1  -4   3    2.69    0.19 
   1   4  -3    3.09    0.15 
  -1  -4   2   10.06    0.38 
   1   4  -2    9.94    0.32 
  -1  -4   1  178.34    4.91 
  -1  -4   1  180.94    4.54 
   1   4  -1  179.98    4.86 
  -1  -4   0    0.42    0.06 
   1   4   0    0.46    0.06 
   1   4   1   67.09    1.91 
   1   4   2    0.26    0.08 
   1   4   3    4.91    0.28 
   1   4   4    0.95    0.17 
   1   4   5    0.71    0.16 
   1   4   6    0.17    0.12 
   1   4   7    0.00    0.14 
   1   4   8   -0.08    0.22 
  -1  -3   8    0.04    0.24 
  -1  -3   7    2.87    0.36 
  -1  -3   6    2.39    0.30 
  -1  -3   5    1.68    0.17 
  -1  -3   5    1.52    0.22 
  -1  -3   4    0.74    0.14 
   1   3  -4    0.86    0.11 
  -1  -3   3    0.70    0.11 
   1   3  -3    0.92    0.09 
  -1  -3   2    0.59    0.09 
   1   3  -2    0.64    0.06 
  -1  -3   1   33.78    0.91 
  -1  -3   1   34.55    0.97 
   1   3  -1   32.84    0.94 
  -1  -3   0  161.74    4.29 
  -1  -3   0  149.29    3.93 
   1   3   0  160.02    4.25 
   1   3   1  532.96   14.31 
   1   3   2   28.04    0.89 
   1   3   3   35.12    1.12 
   1   3   4    0.05    0.08 
   1   3   5    0.13    0.10 
   1   3   6    0.23    0.15 
   1   3   6    0.15    0.13 
   1   3   7   -0.04    0.16 
   1   3   8   -0.07    0.23 
  -1  -2   8    0.07    0.24 
  -1  -2   7    2.24    0.33 
  -1  -2   6    1.09    0.23 
  -1  -2   5    0.00    0.08 
  -1  -2   5   -0.03    0.10 
  -1  -2   4    2.87    0.22 
   1   2  -4    2.83    0.19 
  -1  -2   3    1.26    0.14 
   1   2  -3    1.30    0.12 
  -1  -2   2   71.73    2.05 
   1   2  -2   73.44    2.02 
  -1  -2   1  128.61    3.45 
   1   2  -1  123.63    3.43 
  -1  -2   0    5.01    0.15 
  -1  -2   0    4.93    0.18 
   1   2   0    4.51    0.18 
   1   2   1  452.21   12.15 
   1   2   2    2.66    0.17 
   1   2   3    2.30    0.18 
   1   2   4    3.28    0.24 
   1   2   5    0.11    0.10 
   1   2   6    0.04    0.13 
   1   2   6    0.01    0.12 
   1   2   7    0.06    0.16 
   1   2   8   -0.13    0.23 
  -1  -1   8   -0.11    0.24 
  -1  -1   7    2.86    0.36 
  -1  -1   6    2.40    0.31 
  -1  -1   5    0.93    0.16 
  -1  -1   5    0.75    0.17 
  -1  -1   4    0.05    0.08 
   1   1  -4   -0.03    0.05 
  -1  -1   3   -0.07    0.05 
   1   1  -3    0.04    0.04 
  -1  -1   2   11.16    0.36 
   1   1  -2    8.92    0.34 
  -1  -1   1   40.50    1.14 
  -1  -1   0  156.37    4.01 
   1   1   0  162.29    4.32 
   1   1   1    2.96    0.14 
   1   1   2   30.23    0.92 
   1   1   3    3.27    0.20 
   1   1   4    0.79    0.13 
   1   1   5    1.45    0.23 
   1   1   5    1.66    0.19 
   1   1   6    0.23    0.15 
   1   1   7    0.65    0.23 
   1   1   8   -0.31    0.24 
  -1   0   8   -0.08    0.21 
  -1   0   7    0.06    0.17 
  -1   0   6    5.40    0.39 
  -1   0   5   -0.09    0.09 
  -1   0   5   -0.08    0.08 
  -1   0   4    0.15    0.09 
   1   0  -4    0.15    0.07 
   1   0  -3   -0.02    0.05 
   1   0  -2   12.39    0.43 
   1   0  -1   -0.01    0.03 
   1   0   1    0.04    0.03 
   1   0   2   73.08    2.05 
   1   0   3    0.02    0.05 
   1   0   4    2.38    0.18 
   1   0   4    2.82    0.26 
   1   0   5    0.00    0.08 
   1   0   5    0.05    0.10 
   1   0   6    0.03    0.12 
   1   0   7   -0.17    0.16 
   1   0   8   -0.20    0.23 
  -1   1   8   -0.17    0.23 
  -1   1   7    3.16    0.37 
  -1   1   6    2.03    0.27 
  -1   1   6    1.30    0.23 
  -1   1   5    0.83    0.16 
  -1   1   5    0.69    0.17 
   1  -1  -4    0.01    0.06 
   1  -1  -3    0.00    0.05 
   1  -1  -2   12.02    0.43 
   1  -1  -1   38.08    1.09 
   1  -1   0  183.99    5.00 
   1  -1   1    3.01    0.15 
   1  -1   1    3.20    0.12 
   1  -1   2   28.99    0.92 
   1  -1   2   29.98    0.87 
   1  -1   3    2.97    0.17 
   1  -1   3    2.85    0.21 
   1  -1   4    0.75    0.15 
   1  -1   4    0.75    0.11 
   1  -1   5    1.18    0.17 
   1  -1   5    1.32    0.21 
   1  -1   6    0.34    0.17 
   1  -1   7    0.30    0.20 
   1  -1   8   -0.19    0.24 
  -1   2   8    0.45    0.25 
  -1   2   7    1.96    0.31 
  -1   2   6    1.21    0.23 
  -1   2   6    0.84    0.20 
  -1   2   5    0.00    0.10 
   1  -2  -4    2.99    0.23 
   1  -2  -3    1.27    0.15 
   1  -2  -2   71.20    2.04 
   1  -2  -1  119.94    3.27 
   1  -2  -1  118.49    3.28 
   1  -2   0    4.91    0.18 
   1  -2   0    4.71    0.18 
   1  -2   1  428.46   11.24 
   1  -2   1  400.20   11.20 
   1  -2   2    2.93    0.19 
   1  -2   2    2.95    0.14 
   1  -2   3    2.43    0.14 
   1  -2   3    2.59    0.20 
   1  -2   4    3.50    0.27 
   1  -2   4    3.34    0.20 
   1  -2   5    0.05    0.13 
   1  -2   5    0.22    0.09 
   1  -2   6    0.18    0.14 
   1  -2   7    0.00    0.17 
   1  -2   8   -0.39    0.23 
  -1   3   8   -0.22    0.19 
  -1   3   7    2.32    0.33 
  -1   3   6    2.29    0.28 
  -1   3   5    1.26    0.21 
   1  -3  -4    0.61    0.13 
   1  -3  -3    0.76    0.13 
   1  -3  -2    0.48    0.09 
   1  -3  -1   31.98    0.93 
   1  -3  -1   31.01    0.94 
   1  -3   0  167.66    4.39 
   1  -3   0  155.76    4.41 
   1  -3   1  505.61   14.09 
   1  -3   1  526.60   13.98 
   1  -3   2   29.29    0.82 
   1  -3   2   28.67    0.91 
   1  -3   3   35.42    1.04 
   1  -3   3   36.47    1.16 
   1  -3   4    0.12    0.06 
   1  -3   4    0.01    0.09 
   1  -3   5    0.26    0.15 
   1  -3   6    0.28    0.15 
   1  -3   7    0.00    0.18 
   1  -3   8   -0.43    0.22 
  -1   4   8   -0.18    0.21 
  -1   4   7    5.57    0.44 
  -1   4   6    0.43    0.17 
  -1   4   5    2.58    0.28 
   1  -4  -4    0.10    0.08 
   1  -4  -3    2.75    0.21 
   1  -4  -2    8.79    0.38 
   1  -4  -1  172.56    4.80 
   1  -4  -1  177.77    4.79 
   1  -4   0    0.37    0.06 
   1  -4   0    0.31    0.06 
   1  -4   1   68.66    1.91 
   1  -4   1   68.96    1.96 
   1  -4   2    0.22    0.03 
   1  -4   2    0.35    0.09 
   1  -4   3    4.33    0.27 
   1  -4   3    4.81    0.18 
   1  -4   4    1.19    0.18 
   1  -4   4    1.06    0.10 
   1  -4   5    0.76    0.19 
   1  -4   6   -0.19    0.12 
   1  -4   7    0.16    0.19 
   1  -4   8   -0.34    0.22 
  -1   5   8   -0.03    0.22 
  -1   5   7    2.26    0.33 
  -1   5   6    3.37    0.35 
  -1   5   5    0.29    0.14 
   1  -5  -4    0.20    0.10 
   1  -5  -3    2.30    0.22 
   1  -5  -2    6.55    0.32 
   1  -5  -1  102.60    2.86 
   1  -5  -1  102.27    2.87 
   1  -5   0    1.01    0.09 
   1  -5   0    0.82    0.10 
   1  -5   1  538.45   14.60 
   1  -5   1  539.81   14.57 
   1  -5   2    0.28    0.09 
   1  -5   3    3.70    0.24 
   1  -5   3    3.35    0.13 
   1  -5   4    0.10    0.04 
   1  -5   4    0.23    0.12 
   1  -5   5    2.44    0.28 
   1  -5   6    1.11    0.24 
   1  -5   7   -0.13    0.16 
  -1   6   8    0.50    0.26 
  -1   6   7    0.23    0.17 
  -1   6   6    0.20    0.15 
  -1   6   5   -0.03    0.11 
   1  -6  -4    1.64    0.23 
   1  -6  -3    0.27    0.10 
   1  -6  -2   13.65    0.55 
   1  -6  -2   14.28    0.53 
   1  -6  -1   10.40    0.40 
   1  -6  -1    9.69    0.38 
   1  -6   0    0.15    0.07 
   1  -6   0    0.19    0.06 
   1  -6   1   98.98    2.71 
   1  -6   1   99.97    2.80 
   1  -6   2    0.00    0.08 
   1  -6   3    0.07    0.10 
   1  -6   4    4.81    0.33 
   1  -6   5   -0.02    0.12 
   1  -6   6    0.39    0.19 
   1  -6   7   -0.06    0.18 
  -1   7   8    0.58    0.27 
  -1   7   7    0.47    0.20 
  -1   7   6    2.56    0.33 
  -1   7   5    0.51    0.17 
   1  -7  -4    1.55    0.23 
   1  -7  -3    0.28    0.12 
   1  -7  -2    2.80    0.22 
   1  -7  -2    3.17    0.21 
   1  -7  -1    7.55    0.32 
   1  -7  -1    7.10    0.33 
   1  -7   0    0.16    0.06 
   1  -7   0    0.25    0.08 
   1  -7   1   48.07    1.41 
   1  -7   1   45.73    1.31 
   1  -7   2  238.04    6.57 
   1  -7   3    0.66    0.15 
   1  -7   4    0.51    0.16 
   1  -7   5    0.06    0.14 
   1  -7   6    0.02    0.15 
   1  -7   7    0.29    0.23 
  -1   8   7    0.05    0.17 
  -1   8   6    0.22    0.16 
  -1   8   5    1.49    0.26 
   1  -8  -4    3.80    0.35 
   1  -8  -3    4.71    0.32 
   1  -8  -2   67.59    2.04 
   1  -8  -2   68.71    2.05 
   1  -8  -1   27.65    0.90 
   1  -8  -1   28.40    0.92 
   1  -8   0    3.94    0.22 
   1  -8   0    4.25    0.15 
   1  -8   0    4.09    0.21 
   1  -8   1    3.39    0.16 
   1  -8   1    3.41    0.23 
   1  -8   2    7.21    0.37 
   1  -8   3    3.93    0.29 
   1  -8   4    4.22    0.33 
   1  -8   5    2.74    0.31 
   1  -8   6    0.07    0.16 
   1  -8   7    0.36    0.24 
  -1   9   7    0.07    0.18 
  -1   9   6    0.17    0.17 
  -1   9   5    1.11    0.24 
   1  -9  -4   -0.20    0.12 
   1  -9  -3    2.77    0.27 
   1  -9  -2    1.18    0.18 
   1  -9  -2    0.92    0.15 
   1  -9  -1    0.95    0.13 
   1  -9  -1    1.25    0.16 
   1  -9   0    6.50    0.21 
   1  -9   0    6.02    0.30 
   1  -9   0    5.92    0.28 
  -1   9  -1   19.18    0.61 
   1  -9   1   20.45    0.70 
   1  -9   2   13.39    0.54 
   1  -9   3    0.56    0.17 
   1  -9   4    1.76    0.24 
   1  -9   5   -0.05    0.15 
   1  -9   6    0.02    0.15 
   1  -9   7    0.00    0.22 
  -1  10   7    0.99    0.28 
  -1  10   6    0.13    0.15 
  -1  10   5    0.62    0.21 
   1 -10  -4    0.21    0.18 
   1 -10  -3    0.35    0.13 
   1 -10  -2    5.38    0.31 
   1 -10  -2    4.62    0.32 
   1 -10  -1   18.94    0.70 
   1 -10  -1   18.59    0.68 
   1 -10   0    0.29    0.10 
   1 -10   0    0.32    0.09 
   1 -10   0    0.33    0.05 
  -1  10  -1    1.66    0.12 
   1 -10   1    1.86    0.20 
   1 -10   2  103.21    3.00 
   1 -10   3    4.63    0.34 
   1 -10   4    2.47    0.28 
   1 -10   5    0.49    0.20 
   1 -10   6    0.03    0.18 
   1 -10   7   -0.45    0.20 
  -1  11   7   -0.13    0.20 
  -1  11   6   -0.09    0.12 
  -1  11   5    1.21    0.25 
  -1  11   4    2.10    0.28 
   1 -11  -3    0.00    0.10 
   1 -11  -2    0.92    0.18 
   1 -11  -2    1.05    0.17 
   1 -11  -1    5.20    0.30 
   1 -11  -1    4.33    0.27 
   1 -11   0    0.34    0.11 
   1 -11   0    0.36    0.10 
   1 -11   0    0.57    0.06 
  -1  11  -1   76.84    2.15 
   1 -11   1   75.45    2.25 
  -1  11  -2   74.26    1.98 
   1 -11   2   70.02    2.18 
   1 -11   3    2.43    0.27 
   1 -11   4    1.50    0.26 
   1 -11   5    1.92    0.29 
   1 -11   6    0.08    0.20 
   1 -11   7   -0.28    0.24 
  -1  12   7    1.36    0.34 
  -1  12   6   -0.02    0.15 
  -1  12   5    0.34    0.17 
  -1  12   4    3.34    0.36 
   1 -12  -3    0.46    0.16 
   1 -12  -3    0.35    0.14 
   1 -12  -2    4.03    0.29 
   1 -12  -2    3.81    0.30 
   1 -12  -1   -0.03    0.06 
   1 -12  -1   -0.02    0.07 
  -1  12   0    0.20    0.08 
   1 -12   0    0.15    0.10 
   1 -12   0    0.10    0.05 
  -1  12  -1   35.23    1.07 
   1 -12   1   36.03    1.18 
  -1  12  -2    5.66    0.20 
   1 -12   2    5.55    0.36 
   1 -12   3    0.23    0.19 
   1 -12   4    0.40    0.20 
   1 -12   5   -0.01    0.17 
   1 -12   6    0.22    0.21 
   1 -12   7   -0.18    0.22 
  -1  13   7    0.66    0.30 
  -1  13   6    1.41    0.29 
  -1  13   5    0.54    0.20 
  -1  13   4   -0.09    0.12 
  -1  13   3    0.65    0.18 
   1 -13  -3    0.24    0.15 
   1 -13  -2    0.05    0.10 
   1 -13  -2    0.08    0.07 
   1 -13  -1    4.47    0.29 
   1 -13  -1    4.43    0.30 
  -1  13   0    0.63    0.12 
   1 -13   0    0.47    0.06 
   1 -13   0    0.42    0.13 
  -1  13  -1    1.20    0.13 
   1 -13   1    1.07    0.12 
   1 -13   1    1.22    0.20 
   1 -13   2    3.87    0.33 
   1 -13   3    7.00    0.47 
   1 -13   4    2.04    0.30 
   1 -13   5    0.66    0.24 
   1 -13   6    0.31    0.22 
   1 -13   7   -0.08    0.26 
  -1  14   7    0.25    0.26 
  -1  14   6    0.50    0.23 
  -1  14   5    0.04    0.15 
  -1  14   4    0.12    0.14 
  -1  14   3    2.17    0.29 
   1 -14  -3    2.31    0.30 
  -1  14   2   -0.08    0.12 
   1 -14  -2    0.00    0.11 
  -1  14   1    0.72    0.15 
   1 -14  -1    0.51    0.13 
  -1  14   0    0.06    0.07 
   1 -14   0    0.13    0.11 
   1 -14   0    0.06    0.05 
  -1  14  -1    1.23    0.13 
   1 -14   1    0.87    0.19 
   1 -14   1    1.34    0.13 
   1 -14   2   -0.16    0.14 
   1 -14   3   23.34    0.94 
   1 -14   4    1.35    0.27 
   1 -14   5    0.24    0.21 
   1 -14   6    0.14    0.23 
  -1  15   6   -0.14    0.18 
  -1  15   5   -0.06    0.15 
  -1  15   4    0.13    0.16 
  -1  15   3    0.10    0.15 
   1 -15  -3   -0.10    0.11 
  -1  15   2    0.39    0.17 
   1 -15  -2    0.62    0.19 
  -1  15   1   -0.03    0.07 
   1 -15  -1    0.02    0.10 
  -1  15   0   18.10    0.70 
   1 -15   0   19.36    0.55 
   1 -15   0   19.08    0.76 
  -1  15  -1    0.10    0.06 
   1 -15   1   -0.06    0.11 
   1 -15   1    0.03    0.06 
   1 -15   2    0.11    0.18 
   1 -15   2    0.44    0.12 
   1 -15   3    9.95    0.56 
   1 -15   4   -0.10    0.16 
   1 -15   5    0.17    0.22 
   1 -15   6    0.76    0.30 
  -1  16   6    0.29    0.24 
  -1  16   5    0.37    0.22 
  -1  16   4    0.67    0.21 
  -1  16   3   -0.04    0.12 
   1 -16  -3    0.29    0.16 
  -1  16   2   -0.02    0.12 
   1 -16  -2    0.00    0.10 
  -1  16   1    3.73    0.28 
   1 -16  -1    3.30    0.31 
  -1  16   0    0.23    0.09 
   1 -16   0    0.08    0.12 
  -1  16  -1    1.58    0.15 
   1 -16   1    1.23    0.23 
   1 -16   1    1.34    0.14 
   1 -16   2    1.96    0.19 
   1 -16   2    1.95    0.28 
   1 -16   3    0.12    0.13 
   1 -16   3    0.51    0.21 
   1 -16   4    2.31    0.34 
   1 -16   5   -0.06    0.20 
   1 -16   6   -0.35    0.23 
  -1  17   6    0.96    0.31 
  -1  17   5    0.67    0.25 
  -1  17   4   -0.05    0.16 
  -1  17   3    0.25    0.16 
   1 -17  -3    0.42    0.19 
  -1  17   2    0.17    0.14 
   1 -17  -2    0.14    0.14 
  -1  17   1    0.87    0.19 
   1 -17  -1    1.07    0.22 
  -1  17   0    8.53    0.42 
   1 -17   0    7.73    0.46 
  -1  17  -1    2.07    0.18 
   1 -17   1    2.12    0.16 
   1 -17   1    2.08    0.28 
   1 -17   2    1.35    0.16 
   1 -17   2    1.12    0.25 
   1 -17   3    2.85    0.28 
   1 -17   3    3.30    0.37 
   1 -17   4    0.15    0.20 
   1 -17   4    0.04    0.15 
   1 -17   5    0.13    0.22 
   1 -17   5    0.38    0.18 
   1 -17   6   -0.04    0.16 
   1 -17   6    0.14    0.27 
  -1  18   6    0.16    0.26 
  -1  18   5    0.07    0.20 
  -1  18   4   -0.10    0.16 
  -1  18   3    0.89    0.23 
   1 -18  -3    0.81    0.23 
  -1  18   2    0.03    0.13 
   1 -18  -2   -0.17    0.11 
  -1  18   1   -0.03    0.13 
   1 -18  -1    0.13    0.13 
  -1  18   0    0.08    0.07 
   1 -18   0   -0.05    0.11 
   1 -18   1    4.36    0.39 
   1 -18   2    0.57    0.20 
   1 -18   2    0.85    0.13 
   1 -18   3    3.32    0.37 
   1 -18   3    2.81    0.29 
   1 -18   4    1.86    0.27 
   1 -18   4    1.70    0.32 
   1 -18   5    0.04    0.18 
   1 -18   5    0.19    0.23 
   1 -18   6    0.11    0.16 
   1 -18   6    0.10    0.28 
  -1  19   5   -0.01    0.18 
  -1  19   4    0.15    0.21 
  -1  19   3   -0.14    0.14 
   1 -19  -3   -0.11    0.14 
  -1  19   2    0.40    0.17 
   1 -19  -2    0.43    0.19 
  -1  19   1    0.89    0.20 
   1 -19  -1    0.98    0.23 
  -1  19   0    0.15    0.12 
   1 -19   0    0.17    0.14 
   1 -19   1    4.04    0.38 
   1 -19   2    0.22    0.18 
   1 -19   3    0.53    0.23 
   1 -19   3    1.03    0.21 
   1 -19   4    1.88    0.33 
   1 -19   4    1.41    0.25 
   1 -19   5   -0.16    0.21 
   1 -19   5    0.10    0.19 
  -1  20   5    0.13    0.19 
  -1  20   4   -0.05    0.17 
  -1  20   3   -0.04    0.14 
   1 -20  -3   -0.29    0.14 
  -1  20   2    0.19    0.16 
   1 -20  -2    0.12    0.13 
  -1  20   1    0.23    0.15 
   1 -20  -1    0.20    0.16 
  -1  20   0    0.44    0.15 
   1 -20   0    0.25    0.16 
   1 -20   1    3.52    0.37 
   1 -20   2    1.60    0.29 
   1 -20   3    0.88    0.26 
   1 -20   4    0.88    0.27 
   1 -20   4    0.32    0.19 
   1 -20   5   -0.25    0.15 
   1 -20   5    0.43    0.27 
  -1  21   5    0.08    0.18 
  -1  21   4    0.15    0.17 
  -1  21   3    0.37    0.20 
   1 -21  -3    0.07    0.19 
  -1  21   2    0.16    0.17 
   1 -21  -2    0.33    0.21 
  -1  21   1    0.21    0.15 
   1 -21  -1    0.07    0.15 
  -1  21   0    0.14    0.14 
   1 -21   0   -0.10    0.13 
   1 -21   1    1.05    0.25 
   1 -21   2    2.47    0.36 
   1 -21   3    0.36    0.21 
   1 -21   4    0.43    0.26 
   1 -21   5    0.27    0.26 
   1 -21   5    0.17    0.17 
  -1  22   4    0.27    0.20 
  -1  22   3    0.51    0.23 
   1 -22  -3    0.16    0.20 
  -1  22   2    0.08    0.17 
   1 -22  -2   -0.12    0.14 
  -1  22   1    0.82    0.22 
   1 -22  -1    0.97    0.27 
   1 -22   0   -0.05    0.14 
   1 -22   1    0.18    0.17 
   1 -22   2    1.74    0.33 
   1 -22   3    0.45    0.23 
   1 -22   4    0.08    0.25 
  -1  23   4    0.23    0.20 
  -1  23   3    0.16    0.19 
   1 -23  -3    0.13    0.20 
  -1  23   2   -0.07    0.17 
   1 -23  -2    0.00    0.18 
  -1  23   1   -0.19    0.13 
   1 -23  -1    0.20    0.21 
   1 -23   0   -0.09    0.16 
   1 -23   1    0.03    0.19 
   1 -23   2    2.81    0.41 
   1 -23   3    0.40    0.25 
   1 -23   4    0.25    0.27 
  -1  24   3    0.08    0.18 
   1 -24  -3   -0.16    0.15 
  -1  24   2    0.21    0.19 
   1 -24  -2   -0.10    0.17 
  -1  24   1    0.65    0.22 
   1 -24  -1    0.41    0.24 
   1 -24   0    0.11    0.20 
   1 -24   1    0.44    0.22 
   1 -24   2    1.81    0.37 
   1 -24   3    0.27    0.27 
  -1  25   3   -0.07    0.15 
   1 -25  -3    0.03    0.15 
  -1  25   2   -0.14    0.17 
   1 -25  -2    0.13    0.18 
   1 -25  -1    0.35    0.26 
   1 -25   0   -0.06    0.19 
   1 -25   1    0.70    0.27 
   1 -25   2    0.65    0.29 
   1 -25   3    0.15    0.27 
  -1  26   2   -0.06    0.20 
   1 -26  -2    0.26    0.21 
   1 -26  -1    0.23    0.25 
   1 -26   0   -0.08    0.21 
   1 -26   1    1.52    0.38 
   1 -26   2    0.19    0.26 
   1 -27  -1    0.17    0.26 
   1 -27   0    0.09    0.26 
   1 -27   1    0.18    0.26 
  -2 -27   1    0.02    0.25 
  -2 -27   0    0.13    0.27 
  -2 -26   2    0.03    0.24 
  -2 -26   1    0.35    0.30 
  -2 -26   0    0.00    0.25 
  -2 -26  -1   -0.07    0.25 
  -2 -26  -2   -0.04    0.29 
   2  26   2    0.31    0.18 
  -2 -25   3    0.42    0.27 
  -2 -25   2    0.62    0.29 
  -2 -25   1   -0.12    0.20 
  -2 -25   0    0.04    0.21 
  -2 -25  -1    0.07    0.24 
   2  25   1    0.29    0.18 
  -2 -25  -2   -0.15    0.26 
   2  25   2    0.08    0.18 
  -2 -24   4    0.49    0.27 
  -2 -24   3    0.26    0.23 
  -2 -24   2    0.33    0.23 
  -2 -24   1    0.01    0.17 
  -2 -24   0    0.06    0.20 
  -2 -24  -1    0.07    0.23 
   2  24   1   -0.14    0.13 
  -2 -24  -2    1.76    0.40 
   2  24   2    2.13    0.34 
   2  24   3    0.20    0.19 
  -2 -23   4    0.26    0.25 
  -2 -23   3    0.19    0.21 
  -2 -23   2    0.86    0.26 
  -2 -23   1    0.04    0.16 
  -2 -23   0    0.09    0.18 
  -2 -23  -1   -0.05    0.18 
   2  23   1    0.15    0.17 
  -2 -23  -2    1.32    0.34 
   2  23   2    1.27    0.27 
   2  23   3    0.31    0.20 
   2  23   4    0.41    0.20 
  -2 -22   4    0.38    0.24 
  -2 -22   3    0.28    0.21 
  -2 -22   2    0.21    0.17 
  -2 -22   1    0.13    0.17 
  -2 -22   0    0.01    0.16 
   2  22   0    0.01    0.13 
  -2 -22  -1    0.24    0.20 
   2  22   1    0.44    0.17 
  -2 -22  -2    1.79    0.38 
   2  22   2    2.15    0.34 
   2  22   3    0.10    0.17 
   2  22   4    0.77    0.23 
  -2 -21   5    0.25    0.22 
  -2 -21   5    0.85    0.30 
  -2 -21   4    0.02    0.17 
  -2 -21   4    0.75    0.25 
  -2 -21   3    0.21    0.19 
  -2 -21   2    0.41    0.19 
  -2 -21   1   -0.15    0.13 
  -2 -21   0    0.43    0.19 
   2  21   0   -0.05    0.11 
  -2 -21  -1    1.54    0.30 
   2  21   1    1.12    0.23 
  -2 -21  -2    0.53    0.24 
   2  21   2    0.60    0.20 
   2  21   3   -0.14    0.14 
   2  21   4    0.34    0.20 
  -2 -20   5    1.14    0.31 
  -2 -20   5    0.88    0.24 
  -2 -20   4    0.08    0.19 
  -2 -20   4   -0.03    0.17 
  -2 -20   3    0.06    0.15 
  -2 -20   3    0.25    0.17 
  -2 -20   2    0.65    0.20 
  -2 -20   1    0.19    0.16 
  -2 -20   0    0.02    0.12 
   2  20   0   -0.06    0.10 
  -2 -20  -1    0.25    0.15 
   2  20   1    0.04    0.13 
  -2 -20  -2    2.55    0.37 
   2  20   2    2.84    0.35 
   2  20   3    0.21    0.18 
   2  20   4    0.75    0.24 
   2  20   5    0.25    0.23 
  -2 -19   6    0.64    0.22 
  -2 -19   5    0.51    0.21 
  -2 -19   5    0.84    0.25 
  -2 -19   4    0.23    0.18 
  -2 -19   4    0.86    0.23 
  -2 -19   3    0.10    0.15 
  -2 -19   3   -0.05    0.14 
  -2 -19   2    1.62    0.27 
  -2 -19   2    1.70    0.21 
  -2 -19   1    0.17    0.14 
  -2 -19   0    0.07    0.13 
   2  19   0    0.04    0.10 
  -2 -19  -1    0.05    0.12 
   2  19   1    0.02    0.13 
  -2 -19  -2    0.70    0.22 
   2  19   2    0.90    0.21 
   2  19   3    4.70    0.45 
   2  19   4   -0.04    0.16 
   2  19   5    0.34    0.26 
  -2 -18   6    0.63    0.22 
  -2 -18   6    0.82    0.29 
  -2 -18   5    0.20    0.20 
  -2 -18   5   -0.09    0.16 
  -2 -18   4    0.52    0.19 
  -2 -18   4    0.50    0.22 
  -2 -18   3    0.41    0.18 
  -2 -18   3    0.38    0.16 
  -2 -18   2    0.57    0.20 
  -2 -18   2    0.40    0.15 
  -2 -18   1    0.80    0.11 
  -2 -18   1    0.79    0.20 
  -2 -18   0    0.18    0.13 
   2  18   0    0.20    0.12 
  -2 -18  -1    3.02    0.34 
   2  18   1    3.24    0.31 
  -2 -18  -2    1.17    0.26 
   2  18   2    1.52    0.26 
   2  18   3    1.77    0.31 
   2  18   4    1.21    0.28 
   2  18   5    0.05    0.22 
  -2 -17   6    0.85    0.23 
  -2 -17   6    0.77    0.28 
  -2 -17   5    0.64    0.22 
  -2 -17   5   -0.17    0.14 
  -2 -17   4    0.59    0.19 
  -2 -17   4    0.91    0.23 
  -2 -17   3    2.00    0.28 
  -2 -17   3    1.66    0.23 
  -2 -17   2    0.44    0.12 
  -2 -17   2    0.55    0.18 
  -2 -17   1    0.12    0.04 
  -2 -17   1    0.39    0.15 
   2  17  -1    0.17    0.06 
  -2 -17   0    0.23    0.05 
  -2 -17   0    0.05    0.11 
   2  17   0    0.17    0.08 
  -2 -17  -1    1.65    0.27 
   2  17   1    1.79    0.24 
  -2 -17  -2    2.63    0.33 
   2  17   2    3.05    0.33 
   2  17   3    5.02    0.45 
   2  17   4   10.92    0.66 
   2  17   5   -0.18    0.20 
   2  17   6    0.13    0.27 
  -2 -16   6    0.35    0.26 
  -2 -16   6   -0.04    0.19 
  -2 -16   5    0.24    0.17 
  -2 -16   5    0.22    0.19 
  -2 -16   4   -0.02    0.14 
  -2 -16   4    0.30    0.18 
  -2 -16   3    1.06    0.19 
  -2 -16   3    0.67    0.21 
  -2 -16   2    0.40    0.11 
  -2 -16   2    0.67    0.19 
  -2 -16   1    0.12    0.11 
  -2 -16   1    0.18    0.06 
   2  16  -1    0.07    0.03 
  -2 -16   0    0.28    0.07 
  -2 -16   0    0.29    0.14 
   2  16   0    0.28    0.10 
  -2 -16  -1    1.01    0.21 
   2  16   1    1.22    0.21 
  -2 -16  -2    0.42    0.18 
   2  16   2    0.19    0.14 
   2  16   3    1.66    0.28 
   2  16   4   11.26    0.66 
   2  16   5    0.16    0.21 
   2  16   6    0.30    0.27 
  -2 -15   7    0.39    0.17 
  -2 -15   6    2.88    0.36 
  -2 -15   6    3.87    0.42 
  -2 -15   5    0.00    0.14 
  -2 -15   5   -0.12    0.17 
  -2 -15   4   -0.02    0.13 
  -2 -15   4    0.00    0.15 
  -2 -15   3    0.65    0.20 
  -2 -15   3    0.38    0.14 
  -2 -15   2    0.05    0.12 
  -2 -15   2    0.05    0.09 
  -2 -15   1    0.05    0.11 
  -2 -15   1    0.16    0.08 
   2  15  -1    0.05    0.04 
  -2 -15   0    0.63    0.16 
  -2 -15   0    0.48    0.08 
   2  15   0    0.37    0.10 
  -2 -15  -1    0.53    0.15 
   2  15   1    0.42    0.14 
  -2 -15  -2    0.03    0.11 
   2  15   2    0.19    0.14 
   2  15   3    7.82    0.50 
   2  15   4    0.20    0.16 
   2  15   5    0.21    0.20 
   2  15   6    0.08    0.23 
  -2 -14   7    0.05    0.15 
  -2 -14   6    1.89    0.33 
  -2 -14   6    1.56    0.30 
  -2 -14   5    0.03    0.17 
  -2 -14   5    0.14    0.16 
  -2 -14   4    0.12    0.17 
  -2 -14   4    0.16    0.14 
  -2 -14   3    0.37    0.15 
  -2 -14   3    0.36    0.18 
  -2 -14   2    0.13    0.09 
  -2 -14   2    0.24    0.14 
   2  14  -2    0.33    0.06 
  -2 -14   1   -0.04    0.09 
  -2 -14   1    0.06    0.07 
   2  14  -1    0.00    0.03 
  -2 -14   0    0.06    0.05 
  -2 -14   0   -0.02    0.08 
   2  14   0    0.04    0.06 
  -2 -14  -1    0.40    0.15 
   2  14   1    0.73    0.14 
  -2 -14  -2    1.48    0.24 
   2  14   2    1.41    0.22 
   2  14   3   21.27    0.90 
   2  14   4    0.56    0.20 
   2  14   5    0.06    0.18 
   2  14   6    0.00    0.22 
  -2 -13   7    0.24    0.16 
  -2 -13   6    1.49    0.29 
  -2 -13   6    2.27    0.32 
  -2 -13   5    0.34    0.21 
  -2 -13   5    0.31    0.17 
  -2 -13   4    2.17    0.28 
  -2 -13   4    2.26    0.26 
  -2 -13   3    0.73    0.17 
  -2 -13   3    0.91    0.20 
  -2 -13   2    0.13    0.13 
  -2 -13   2    0.03    0.09 
   2  13  -2    0.22    0.06 
  -2 -13   1    2.65    0.24 
  -2 -13   1    3.06    0.18 
  -2 -13   0    0.67    0.14 
  -2 -13   0    0.56    0.08 
   2  13   0    0.59    0.11 
  -2 -13  -1    0.07    0.10 
   2  13   1    0.24    0.09 
  -2 -13  -2    0.18    0.12 
   2  13   2    0.30    0.14 
   2  13   3   53.13    1.77 
   2  13   4    1.90    0.29 
   2  13   5    0.29    0.18 
   2  13   6    0.37    0.22 
  -2 -12   7    0.75    0.24 
  -2 -12   6    0.30    0.18 
  -2 -12   6    0.18    0.19 
  -2 -12   5   -0.07    0.11 
  -2 -12   5    0.03    0.16 
  -2 -12   4    3.71    0.31 
  -2 -12   4    4.04    0.34 
  -2 -12   3   -0.17    0.13 
  -2 -12   3    0.20    0.11 
  -2 -12   2    5.01    0.33 
  -2 -12   2    5.05    0.27 
   2  12  -2    5.34    0.23 
  -2 -12   1    1.08    0.12 
  -2 -12   1    1.02    0.16 
  -2 -12   0    2.53    0.14 
  -2 -12   0    2.66    0.23 
   2  12   0    2.49    0.18 
  -2 -12  -1    4.68    0.31 
   2  12   1    4.44    0.28 
  -2 -12  -2    3.35    0.31 
   2  12   2    3.56    0.27 
   2  12   3   57.93    1.88 
   2  12   4    5.42    0.41 
   2  12   5    0.31    0.17 
   2  12   6    0.01    0.17 
   2  12   7    0.19    0.24 
  -2 -11   7    2.58    0.36 
  -2 -11   6    0.90    0.24 
  -2 -11   6    1.34    0.26 
  -2 -11   5    0.82    0.20 
  -2 -11   5    0.95    0.23 
  -2 -11   4   17.40    0.68 
  -2 -11   4   15.41    0.68 
  -2 -11   3    0.83    0.15 
  -2 -11   3    0.96    0.19 
  -2 -11   2    2.57    0.23 
  -2 -11   2    2.86    0.20 
   2  11  -2    2.81    0.15 
  -2 -11   1    1.32    0.16 
  -2 -11   1    1.11    0.12 
  -2 -11   0    0.56    0.12 
  -2 -11   0    0.45    0.06 
   2  11   0    0.65    0.11 
  -2 -11  -1    1.22    0.18 
   2  11   1    1.42    0.18 
   2  11   2    0.29    0.11 
   2  11   3   18.59    0.78 
   2  11   4    8.92    0.52 
   2  11   5    0.23    0.15 
   2  11   6    0.44    0.22 
   2  11   7    0.63    0.27 
  -2 -10   7    0.67    0.26 
  -2 -10   6    0.07    0.17 
  -2 -10   6    0.01    0.15 
  -2 -10   5    2.67    0.30 
  -2 -10   5    2.90    0.30 
  -2 -10   4    3.62    0.30 
  -2 -10   4    3.92    0.32 
  -2 -10   3    9.04    0.46 
  -2 -10   3    9.05    0.42 
   2  10  -3    9.64    0.31 
  -2 -10   2    9.87    0.39 
  -2 -10   2    9.83    0.43 
   2  10  -2    9.85    0.35 
  -2 -10   1   14.62    0.55 
  -2 -10   1   14.68    0.47 
  -2 -10   0    9.05    0.40 
   2  10   0    9.17    0.38 
  -2 -10  -1   28.75    0.99 
   2  10   1   28.62    0.96 
   2  10   2    3.44    0.25 
   2  10   3    2.43    0.26 
   2  10   4    0.10    0.11 
   2  10   5    0.54    0.18 
   2  10   6   -0.01    0.16 
   2  10   7    0.18    0.21 
  -2  -9   7   -0.25    0.17 
  -2  -9   7    0.04    0.19 
  -2  -9   6    0.47    0.18 
  -2  -9   6    0.11    0.17 
  -2  -9   5    2.71    0.29 
  -2  -9   4    0.96    0.19 
  -2  -9   4    0.48    0.17 
  -2  -9   3    3.45    0.27 
  -2  -9   3    3.45    0.24 
   2   9  -3    3.93    0.16 
  -2  -9   2    8.01    0.33 
  -2  -9   2    8.05    0.37 
   2   9  -2    7.54    0.29 
  -2  -9   1   40.98    1.11 
  -2  -9   1   39.45    1.23 
  -2  -9   0    4.64    0.25 
   2   9   0    4.24    0.22 
  -2  -9  -1    8.53    0.40 
   2   9   1    7.63    0.36 
   2   9   2   40.73    1.32 
   2   9   3   13.28    0.60 
   2   9   4    2.20    0.27 
   2   9   5    1.83    0.27 
   2   9   6    0.10    0.16 
   2   9   7    0.23    0.21 
  -2  -8   8    0.31    0.25 
  -2  -8   7    0.16    0.20 
  -2  -8   7    0.15    0.21 
  -2  -8   6    1.57    0.26 
  -2  -8   5   24.21    0.91 
  -2  -8   4    0.86    0.17 
  -2  -8   3    1.75    0.18 
  -2  -8   3    1.62    0.18 
   2   8  -3    1.57    0.09 
  -2  -8   2   24.60    0.80 
  -2  -8   2   23.35    0.75 
   2   8  -2   24.52    0.73 
  -2  -8   1    4.08    0.22 
  -2  -8   1    4.30    0.20 
  -2  -8   0    0.51    0.09 
  -2  -8   0    0.59    0.06 
   2   8   0    0.51    0.09 
  -2  -8  -1    2.12    0.19 
   2   8   1    2.24    0.18 
   2   8   2  169.06    4.74 
   2   8   3    1.41    0.20 
   2   8   4    0.58    0.16 
   2   8   5    1.33    0.23 
   2   8   6    0.44    0.20 
   2   8   7    0.35    0.21 
  -2  -7   8    2.86    0.39 
  -2  -7   7   -0.10    0.19 
  -2  -7   6   -0.10    0.14 
  -2  -7   5    4.09    0.33 
  -2  -7   4    0.11    0.11 
  -2  -7   3    0.02    0.10 
  -2  -7   3   -0.01    0.06 
   2   7  -3    0.10    0.03 
  -2  -7   2    2.53    0.17 
  -2  -7   2    2.54    0.19 
   2   7  -2    2.48    0.13 
  -2  -7   1    0.02    0.04 
  -2  -7   1   -0.08    0.05 
   2   7  -1    0.03    0.03 
  -2  -7   0    0.11    0.04 
  -2  -7   0    0.08    0.06 
   2   7   0    0.33    0.07 
  -2  -7  -1    4.46    0.26 
   2   7   1    3.98    0.24 
   2   7   2  337.93    9.22 
   2   7   3   -0.12    0.07 
   2   7   4    0.12    0.11 
   2   7   5    8.11    0.48 
   2   7   6   -0.07    0.12 
   2   7   7    0.24    0.21 
  -2  -6   8   -0.08    0.19 
  -2  -6   7    0.47    0.22 
  -2  -6   6    0.13    0.17 
  -2  -6   5   46.92    1.53 
  -2  -6   4    1.67    0.19 
   2   6  -4    1.70    0.11 
  -2  -6   3    0.19    0.09 
   2   6  -3    0.17    0.04 
  -2  -6   2   52.96    1.50 
  -2  -6   2   55.10    1.59 
   2   6  -2   55.98    1.54 
  -2  -6   1    3.23    0.16 
  -2  -6   1    3.33    0.18 
  -2  -6   0   12.25    0.37 
  -2  -6   0   12.47    0.44 
   2   6   0   12.32    0.43 
  -2  -6  -1    5.71    0.28 
   2   6   1    5.09    0.26 
   2   6   2    1.56    0.17 
   2   6   3    0.69    0.14 
   2   6   4    0.86    0.17 
   2   6   5    0.15    0.13 
   2   6   6    0.27    0.16 
  -2  -5   8    0.51    0.25 
  -2  -5   7    0.86    0.26 
  -2  -5   6    1.89    0.27 
  -2  -5   5   20.37    0.78 
  -2  -5   4    5.99    0.33 
   2   5  -4    6.18    0.27 
  -2  -5   3    9.00    0.38 
   2   5  -3    9.02    0.33 
  -2  -5   2   12.30    0.44 
  -2  -5   2   12.16    0.44 
   2   5  -2   12.55    0.41 
  -2  -5   1  102.74    2.66 
  -2  -5   1  104.56    2.87 
  -2  -5   0   18.48    0.59 
  -2  -5   0   18.44    0.51 
   2   5   0   18.46    0.58 
   2   5   1    9.21    0.37 
   2   5   2   26.07    0.86 
   2   5   3    3.76    0.25 
   2   5   4   -0.16    0.07 
   2   5   5    0.19    0.14 
   2   5   6    0.47    0.18 
   2   5   7    0.07    0.15 
  -2  -4   8    0.05    0.19 
  -2  -4   7    2.38    0.32 
  -2  -4   6    0.05    0.16 
  -2  -4   5    1.73    0.21 
  -2  -4   4    0.28    0.11 
   2   4  -4    0.31    0.07 
  -2  -4   3    1.30    0.13 
   2   4  -3    1.21    0.11 
  -2  -4   2    2.29    0.15 
  -2  -4   2    2.57    0.15 
   2   4  -2    2.43    0.13 
  -2  -4   1  214.90    5.40 
  -2  -4   1  214.24    5.84 
  -2  -4   0  200.67    5.51 
  -2  -4   0  201.35    5.05 
   2   4   0  202.76    5.46 
   2   4   1  326.83    8.83 
   2   4   2   40.75    1.25 
   2   4   3    7.91    0.38 
   2   4   4   26.26    0.93 
   2   4   5    0.47    0.16 
   2   4   6    0.75    0.19 
   2   4   7   -0.03    0.17 
  -2  -3   7   18.80    0.85 
  -2  -3   6   14.78    0.69 
  -2  -3   5    0.10    0.10 
   2   3  -5   -0.03    0.06 
  -2  -3   4    9.14    0.41 
   2   3  -4    9.37    0.38 
  -2  -3   3    4.86    0.24 
   2   3  -3    5.34    0.24 
  -2  -3   2    1.76    0.12 
  -2  -3   2    1.41    0.13 
   2   3  -2    1.62    0.11 
  -2  -3   1   47.35    1.32 
  -2  -3   1   46.91    1.24 
  -2  -3   0    0.16    0.04 
  -2  -3   0    0.18    0.05 
   2   3   0    0.08    0.04 
   2   3   1  269.56    7.29 
   2   3   2   13.97    0.51 
   2   3   3    0.94    0.14 
   2   3   4   10.54    0.48 
   2   3   5    0.32    0.12 
   2   3   6    0.10    0.15 
   2   3   6    0.17    0.14 
   2   3   7    0.11    0.18 
  -2  -2   7    6.13    0.45 
  -2  -2   6   11.70    0.61 
  -2  -2   5    0.02    0.09 
   2   2  -5    0.13    0.09 
  -2  -2   4    0.89    0.15 
   2   2  -4    1.10    0.14 
  -2  -2   3    3.49    0.20 
   2   2  -3    3.35    0.19 
  -2  -2   2   40.76    1.16 
  -2  -2   2   39.73    1.12 
  -2  -2   1   42.24    1.15 
  -2  -2   1   44.28    1.22 
   2   2  -1   43.91    1.24 
  -2  -2   0  166.29    4.18 
   2   2   0  167.24    4.52 
   2   2   1  164.30    4.47 
   2   2   2    2.25    0.16 
   2   2   3  144.93    4.04 
   2   2   4    9.19    0.43 
   2   2   5    0.11    0.09 
   2   2   6    0.26    0.16 
   2   2   7   -0.14    0.16 
  -2  -1   7    0.10    0.16 
  -2  -1   6   26.14    1.03 
  -2  -1   5    0.70    0.16 
   2   1  -5    0.90    0.15 
  -2  -1   4    2.20    0.20 
  -2  -1   3   -0.05    0.04 
   2   1  -3    0.01    0.03 
  -2  -1   2    0.02    0.04 
   2   1  -2    0.10    0.04 
  -2  -1   1   77.13    2.11 
  -2  -1   1   75.05    1.94 
   2   1  -1   75.41    2.10 
  -2  -1   0   33.90    0.90 
   2   1   0   35.15    0.98 
   2   1   1   41.77    1.20 
   2   1   2    3.68    0.19 
   2   1   3   93.51    2.65 
   2   1   4    8.50    0.39 
   2   1   5    0.94    0.21 
   2   1   5    1.50    0.19 
   2   1   6    0.24    0.16 
   2   1   7    0.56    0.23 
  -2   0   7   -0.03    0.15 
  -2   0   6   41.54    1.46 
  -2   0   6   42.29    1.40 
  -2   0   5   -0.03    0.09 
   2   0  -5    0.15    0.07 
  -2   0   4   -0.07    0.07 
   2   0  -4    0.06    0.06 
   2   0  -3   -0.05    0.05 
   2   0  -2    2.21    0.15 
  -2   0   1    0.02    0.03 
   2   0  -1   -0.02    0.03 
   2   0   0    5.85    0.22 
   2   0   1   -0.01    0.03 
   2   0   2    3.71    0.18 
   2   0   3    0.06    0.06 
   2   0   4    3.67    0.23 
   2   0   4    3.06    0.28 
   2   0   5   -0.08    0.11 
   2   0   5    0.10    0.09 
   2   0   6    0.39    0.17 
   2   0   7    0.04    0.18 
  -2   1   7   -0.26    0.13 
  -2   1   6   25.87    1.02 
  -2   1   5    0.70    0.16 
   2  -1  -5    0.92    0.16 
   2  -1  -4    2.58    0.22 
   2  -1  -3    0.04    0.06 
   2  -1  -2    0.49    0.09 
  -2   1   1   73.00    1.86 
   2  -1  -1   73.37    2.05 
   2  -1  -1   73.44    2.03 
   2  -1   0   20.66    0.60 
   2  -1   1   40.51    1.20 
   2  -1   1   41.96    1.16 
   2  -1   2    3.65    0.17 
   2  -1   2    3.80    0.22 
   2  -1   3   90.95    2.65 
   2  -1   3   89.47    2.52 
   2  -1   4    7.68    0.34 
   2  -1   4    8.10    0.44 
   2  -1   5    1.24    0.23 
   2  -1   5    1.27    0.16 
   2  -1   6   -0.09    0.11 
   2  -1   7    0.21    0.21 
  -2   2   7    6.57    0.47 
  -2   2   6    9.95    0.56 
   2  -2  -5    0.05    0.07 
   2  -2  -4    1.41    0.18 
   2  -2  -3    3.03    0.21 
   2  -2  -2   40.65    1.23 
  -2   2   1   43.21    1.09 
   2  -2  -1   41.47    1.23 
   2  -2   0  179.43    4.85 
   2  -2   0  178.39    4.87 
   2  -2   1  171.27    4.75 
   2  -2   1  174.81    4.68 
   2  -2   2    2.38    0.12 
   2  -2   2    2.39    0.17 
   2  -2   3  135.23    3.74 
   2  -2   3  137.74    3.89 
   2  -2   4    8.05    0.33 
   2  -2   4    8.05    0.44 
   2  -2   5    0.00    0.11 
   2  -2   6    0.34    0.17 
   2  -2   7    0.07    0.19 
  -2   3   7   18.80    0.86 
   2  -3  -6   14.91    0.72 
   2  -3  -5    0.13    0.09 
   2  -3  -4    9.90    0.48 
   2  -3  -3    4.95    0.29 
   2  -3  -2    1.60    0.16 
  -2   3   1   48.59    1.22 
   2  -3  -1   47.84    1.36 
   2  -3  -1   47.00    1.39 
   2  -3   0    0.07    0.05 
   2  -3   0    0.13    0.05 
   2  -3   1  273.46    7.36 
   2  -3   1  272.46    7.44 
   2  -3   2   13.86    0.51 
   2  -3   2   13.63    0.43 
   2  -3   3    0.77    0.16 
   2  -3   3    0.99    0.09 
   2  -3   4   12.32    0.57 
   2  -3   4   11.47    0.43 
   2  -3   5    0.23    0.16 
   2  -3   6    0.23    0.15 
   2  -3   7   -0.15    0.16 
  -2   4   7    2.37    0.34 
  -2   4   6    0.28    0.16 
   2  -4  -5    1.78    0.26 
   2  -4  -4    0.09    0.08 
   2  -4  -3    1.21    0.16 
   2  -4  -2    2.64    0.19 
  -2   4   1  213.44    5.42 
   2  -4  -1  218.53    5.88 
   2  -4  -1  214.97    5.89 
   2  -4   0  209.85    5.54 
   2  -4   0  198.38    5.57 
   2  -4   1  337.86    9.17 
   2  -4   1  343.66    9.28 
   2  -4   2   40.91    1.27 
   2  -4   2   41.91    1.16 
   2  -4   3    7.20    0.36 
   2  -4   3    6.97    0.25 
   2  -4   4   25.12    0.74 
   2  -4   4   22.17    0.89 
   2  -4   5    0.52    0.17 
   2  -4   6    1.18    0.26 
   2  -4   7   -0.16    0.16 
  -2   5   7    1.09    0.26 
  -2   5   6    2.80    0.33 
   2  -5  -5   23.76    0.96 
   2  -5  -4    5.83    0.36 
   2  -5  -3    8.50    0.42 
   2  -5  -2   11.48    0.47 
   2  -5  -2   11.40    0.44 
   2  -5  -1  101.36    2.86 
   2  -5  -1  103.55    2.88 
   2  -5   0   18.87    0.59 
   2  -5   0   18.24    0.60 
   2  -5   1   10.09    0.33 
   2  -5   1   10.51    0.40 
   2  -5   2   27.52    0.78 
   2  -5   2   27.22    0.90 
   2  -5   3    4.04    0.16 
   2  -5   3    4.05    0.27 
   2  -5   4   -0.07    0.11 
   2  -5   5    0.32    0.15 
   2  -5   6    0.15    0.15 
   2  -5   7   -0.16    0.16 
  -2   6   8   -0.04    0.18 
  -2   6   7    0.24    0.17 
  -2   6   6    0.02    0.15 
   2  -6  -5   53.30    1.79 
   2  -6  -4    1.95    0.25 
   2  -6  -3    0.24    0.09 
  -2   6   2   54.28    1.40 
   2  -6  -2   54.33    1.62 
   2  -6  -2   53.43    1.64 
   2  -6  -1    2.91    0.20 
   2  -6  -1    3.47    0.18 
   2  -6   0   12.88    0.43 
   2  -6   0   11.81    0.44 
   2  -6   1    5.00    0.26 
   2  -6   1    5.25    0.20 
   2  -6   2    1.23    0.07 
   2  -6   2    1.29    0.16 
   2  -6   3    0.69    0.15 
   2  -6   4    1.04    0.19 
   2  -6   5    0.17    0.14 
   2  -6   6    0.36    0.18 
   2  -6   7   -0.16    0.20 
  -2   7   8    3.17    0.43 
  -2   7   7    0.38    0.21 
  -2   7   6    0.13    0.16 
   2  -7  -5    4.34    0.40 
   2  -7  -4    0.29    0.12 
   2  -7  -3    0.00    0.07 
  -2   7   2    2.47    0.10 
   2  -7  -2    2.20    0.18 
   2  -7  -2    2.67    0.21 
   2  -7  -1   -0.01    0.04 
   2  -7  -1    0.08    0.07 
   2  -7   0    0.02    0.05 
   2  -7   0    0.15    0.07 
   2  -7   1    4.03    0.25 
   2  -7   1    4.31    0.18 
   2  -7   2  342.59    9.39 
   2  -7   3    0.03    0.11 
   2  -7   4    0.11    0.14 
   2  -7   5    9.36    0.53 
   2  -7   6   -0.01    0.15 
   2  -7   7    0.00    0.22 
  -2   8   7    0.03    0.17 
  -2   8   6    1.68    0.30 
   2  -8  -5   24.68    1.03 
   2  -8  -4    0.45    0.17 
   2  -8  -3    1.33    0.20 
  -2   8   2   24.04    0.62 
   2  -8  -2   22.78    0.82 
   2  -8  -2   24.44    0.86 
   2  -8  -1    4.20    0.23 
   2  -8  -1    4.12    0.25 
   2  -8   0    0.45    0.10 
   2  -8   0    0.68    0.10 
   2  -8   1    2.21    0.20 
   2  -8   1    2.48    0.14 
   2  -8   2  177.07    4.96 
   2  -8   3    1.22    0.19 
   2  -8   4    0.65    0.19 
   2  -8   5    1.32    0.25 
   2  -8   6   -0.06    0.17 
   2  -8   7    0.02    0.23 
  -2   9   7    0.15    0.19 
  -2   9   6   -0.12    0.13 
   2  -9  -5    2.74    0.36 
   2  -9  -4    0.23    0.17 
   2  -9  -3    3.51    0.31 
   2  -9  -2    7.33    0.39 
   2  -9  -2    6.71    0.35 
   2  -9  -1   37.06    1.16 
   2  -9  -1   36.74    1.18 
   2  -9   0    4.05    0.22 
   2  -9   0    4.17    0.24 
   2  -9   1    7.69    0.30 
   2  -9   1    7.95    0.39 
   2  -9   2   42.89    1.36 
   2  -9   3   14.00    0.60 
   2  -9   4    1.80    0.26 
   2  -9   5    1.67    0.27 
   2  -9   6    0.16    0.20 
   2  -9   7    0.06    0.24 
  -2  10   7    0.90    0.27 
  -2  10   6   -0.22    0.13 
   2 -10  -5    3.12    0.38 
   2 -10  -4    4.00    0.39 
   2 -10  -3    9.07    0.46 
   2 -10  -3    9.07    0.49 
   2 -10  -2   10.30    0.47 
   2 -10  -2   10.51    0.50 
   2 -10  -1   13.99    0.55 
   2 -10  -1   14.50    0.57 
   2 -10   0    8.62    0.39 
   2 -10   0    9.37    0.38 
   2 -10   1   29.34    0.90 
   2 -10   1   30.05    0.99 
   2 -10   2    3.78    0.30 
   2 -10   3    2.65    0.28 
   2 -10   4   -0.23    0.14 
   2 -10   5    0.34    0.19 
   2 -10   6    0.40    0.21 
   2 -10   7    0.25    0.28 
  -2  11   7    1.66    0.35 
  -2  11   6    1.36    0.29 
   2 -11  -5    0.88    0.27 
   2 -11  -4   16.22    0.78 
   2 -11  -3    0.52    0.13 
   2 -11  -3    0.73    0.19 
   2 -11  -2    2.64    0.26 
   2 -11  -2    2.40    0.23 
   2 -11  -1    0.95    0.14 
   2 -11  -1    1.06    0.17 
   2 -11   0    0.55    0.06 
   2 -11   0    0.70    0.12 
   2 -11   0    0.46    0.12 
   2 -11   1    1.28    0.12 
   2 -11   1    1.06    0.18 
  -2  11  -2    0.64    0.05 
   2 -11   2    0.52    0.18 
   2 -11   3   18.09    0.74 
   2 -11   4    7.61    0.48 
   2 -11   5    0.47    0.21 
   2 -11   6    0.35    0.23 
   2 -11   7    0.14    0.28 
  -2  12   7    0.44    0.24 
  -2  12   6    0.36    0.19 
  -2  12   5   -0.02    0.14 
   2 -12  -4    4.03    0.41 
   2 -12  -3    0.00    0.10 
   2 -12  -3   -0.01    0.11 
   2 -12  -2    5.23    0.33 
   2 -12  -2    5.37    0.36 
   2 -12  -1    1.13    0.16 
   2 -12  -1    0.83    0.15 
   2 -12   0    2.71    0.23 
   2 -12   0    2.76    0.13 
   2 -12   0    2.35    0.19 
   2 -12   1    4.50    0.23 
   2 -12   1    4.47    0.31 
   2 -12   2    3.53    0.31 
   2 -12   3   55.94    1.80 
   2 -12   4    5.33    0.41 
   2 -12   5    0.17    0.18 
   2 -12   6   -0.01    0.21 
   2 -12   7   -0.02    0.27 
  -2  13   7    0.29    0.25 
  -2  13   6    1.49    0.31 
  -2  13   5    0.24    0.19 
   2 -13  -4    2.04    0.32 
   2 -13  -3    0.56    0.18 
   2 -13  -3    0.85    0.20 
   2 -13  -2   -0.04    0.07 
   2 -13  -2    0.12    0.11 
   2 -13  -1    2.82    0.26 
   2 -13  -1    2.50    0.23 
   2 -13   0    0.57    0.12 
   2 -13   0    0.56    0.14 
   2 -13   0    0.80    0.07 
   2 -13   1    0.18    0.13 
   2 -13   2    0.29    0.18 
   2 -13   3   56.81    1.84 
   2 -13   4    1.89    0.29 
   2 -13   5    0.60    0.22 
   2 -13   6    0.16    0.24 
  -2  14   7    0.26    0.25 
  -2  14   6    2.05    0.37 
  -2  14   5    0.16    0.18 
   2 -14  -4    0.16    0.17 
   2 -14  -3    0.26    0.17 
   2 -14  -3    0.39    0.17 
   2 -14  -2    0.11    0.11 
   2 -14  -2    0.02    0.11 
   2 -14  -1    0.05    0.09 
   2 -14  -1    0.04    0.09 
   2 -14   0    0.13    0.04 
   2 -14   0    0.05    0.10 
   2 -14   0    0.03    0.08 
  -2  14  -1    0.58    0.10 
   2 -14   1    0.52    0.17 
   2 -14   2    1.49    0.26 
   2 -14   3   24.54    0.99 
   2 -14   4    0.70    0.24 
   2 -14   5   -0.08    0.17 
   2 -14   6    0.48    0.27 
  -2  15   6    3.98    0.49 
  -2  15   5    0.41    0.21 
  -2  15   4   -0.13    0.14 
   2 -15  -3    0.36    0.16 
   2 -15  -3    0.34    0.19 
   2 -15  -2    0.24    0.14 
   2 -15  -2   -0.02    0.09 
   2 -15  -1    0.21    0.10 
   2 -15  -1    0.40    0.14 
   2 -15   0    0.52    0.17 
   2 -15   0    0.71    0.14 
  -2  15  -1    0.70    0.11 
   2 -15   1    0.69    0.11 
   2 -15   1    0.49    0.18 
   2 -15   2    0.10    0.18 
   2 -15   3    8.37    0.53 
   2 -15   4    0.20    0.22 
   2 -15   5    0.34    0.23 
   2 -15   6   -0.42    0.22 
  -2  16   6    0.13    0.23 
  -2  16   5    0.18    0.20 
  -2  16   4    0.10    0.16 
  -2  16   3    0.53    0.20 
   2 -16  -3    0.79    0.23 
   2 -16  -3    0.87    0.22 
   2 -16  -2    0.32    0.14 
   2 -16  -2    0.34    0.16 
   2 -16  -1    0.17    0.12 
   2 -16  -1    0.10    0.11 
  -2  16   0    0.31    0.10 
   2 -16   0    0.22    0.14 
  -2  16  -1    1.17    0.14 
   2 -16   1    0.93    0.22 
   2 -16   1    0.90    0.12 
   2 -16   2    0.00    0.16 
   2 -16   3    1.45    0.27 
   2 -16   4   11.58    0.67 
   2 -16   5    0.11    0.22 
   2 -16   6   -0.06    0.27 
  -2  17   6    1.09    0.33 
  -2  17   5    0.08    0.20 
  -2  17   4    0.80    0.26 
  -2  17   3    1.46    0.27 
   2 -17  -3    1.37    0.27 
  -2  17   2    0.48    0.17 
   2 -17  -2    0.68    0.19 
  -2  17   1    0.28    0.15 
   2 -17  -1    0.59    0.17 
  -2  17   0    0.04    0.09 
   2 -17   0    0.05    0.13 
   2 -17   1    1.69    0.27 
   2 -17   2    2.99    0.22 
   2 -17   2    2.70    0.33 
   2 -17   3    5.18    0.45 
   2 -17   4   12.66    0.71 
   2 -17   5   -0.34    0.20 
   2 -17   6   -0.12    0.26 
  -2  18   6    0.22    0.25 
  -2  18   5   -0.10    0.17 
  -2  18   4    0.22    0.20 
  -2  18   3    0.53    0.21 
   2 -18  -3    0.39    0.19 
  -2  18   2    0.34    0.18 
   2 -18  -2    0.33    0.16 
  -2  18   1    0.83    0.21 
   2 -18  -1    0.58    0.18 
  -2  18   0    0.10    0.09 
   2 -18   0    0.16    0.13 
   2 -18   1    3.76    0.36 
   2 -18   2    1.87    0.30 
   2 -18   3    1.05    0.20 
   2 -18   3    1.52    0.30 
   2 -18   4    1.00    0.28 
   2 -18   5    0.18    0.26 
  -2  19   5    0.40    0.23 
  -2  19   4    0.05    0.17 
  -2  19   3    0.10    0.17 
   2 -19  -3   -0.21    0.14 
  -2  19   2    1.11    0.24 
   2 -19  -2    1.72    0.29 
  -2  19   1   -0.02    0.14 
   2 -19  -1    0.02    0.11 
  -2  19   0    0.07    0.10 
   2 -19   0   -0.05    0.12 
   2 -19   1    0.01    0.15 
   2 -19   2    0.79    0.23 
   2 -19   3    4.31    0.43 
   2 -19   3    4.44    0.33 
   2 -19   4    0.06    0.17 
   2 -19   4   -0.18    0.18 
   2 -19   5   -0.01    0.25 
   2 -19   5    0.23    0.19 
  -2  20   5    1.14    0.29 
  -2  20   4    0.04    0.19 
  -2  20   3    0.16    0.18 
   2 -20  -3   -0.07    0.16 
  -2  20   2    0.42    0.20 
   2 -20  -2    0.41    0.20 
  -2  20   1    0.05    0.14 
   2 -20  -1    0.17    0.15 
  -2  20   0    0.07    0.14 
   2 -20   0   -0.01    0.12 
   2 -20   1    0.15    0.17 
   2 -20   2    2.31    0.34 
   2 -20   3    0.55    0.25 
   2 -20   4    0.39    0.20 
   2 -20   4    1.08    0.30 
   2 -20   5    0.04    0.26 
   2 -20   5    0.25    0.20 
  -2  21   5    0.49    0.24 
  -2  21   4    0.20    0.20 
  -2  21   3    0.32    0.21 
   2 -21  -3    0.17    0.19 
  -2  21   2    0.34    0.19 
   2 -21  -2    0.24    0.19 
  -2  21   1    0.04    0.16 
   2 -21  -1   -0.01    0.15 
   2 -21   0    0.17    0.16 
   2 -21   1    1.74    0.30 
   2 -21   2    0.77    0.24 
   2 -21   3    0.19    0.21 
   2 -21   4    0.77    0.29 
  -2  22   4    0.34    0.20 
  -2  22   3    0.62    0.24 
   2 -22  -3    0.41    0.23 
  -2  22   2    0.09    0.17 
   2 -22  -2   -0.04    0.16 
  -2  22   1   -0.03    0.16 
   2 -22  -1    0.03    0.16 
   2 -22   0   -0.11    0.13 
   2 -22   1    0.25    0.19 
   2 -22   2    1.82    0.35 
   2 -22   3    0.21    0.21 
   2 -22   4    1.12    0.34 
  -2  23   4    0.27    0.20 
  -2  23   3    0.01    0.19 
   2 -23  -3   -0.02    0.19 
  -2  23   2    0.85    0.26 
   2 -23  -2    0.92    0.26 
  -2  23   1   -0.02    0.17 
   2 -23  -1    0.23    0.17 
   2 -23   0   -0.01    0.18 
   2 -23   1    0.04    0.16 
   2 -23   2    2.07    0.37 
   2 -23   3    0.15    0.25 
   2 -23   4    0.24    0.29 
  -2  24   3    0.09    0.20 
   2 -24  -3    0.31    0.20 
  -2  24   2    0.01    0.19 
   2 -24  -2    0.48    0.22 
   2 -24  -1    0.22    0.21 
   2 -24   0   -0.24    0.18 
   2 -24   1    0.14    0.21 
   2 -24   2    2.12    0.39 
   2 -24   3    0.33    0.26 
  -2  25   3    0.13    0.20 
   2 -25  -3    0.53    0.21 
  -2  25   2   -0.01    0.20 
   2 -25  -2    0.27    0.19 
   2 -25  -1    0.14    0.16 
   2 -25   0    0.00    0.23 
   2 -25   1    0.13    0.24 
   2 -25   2    0.20    0.26 
   2 -25   3    0.65    0.30 
  -2  26   2   -0.19    0.17 
   2 -26  -2    0.17    0.16 
   2 -26  -1    0.30    0.19 
   2 -26   0   -0.14    0.21 
   2 -26   1    0.02    0.24 
   2 -26   2    0.63    0.27 
   2 -27  -1    0.17    0.16 
   2 -27   0    0.26    0.27 
  -3 -26   2    0.23    0.29 
  -3 -26   1   -0.11    0.25 
  -3 -26   0   -0.14    0.25 
  -3 -26  -1    0.06    0.28 
  -3 -25   3    0.38    0.24 
  -3 -25   2    2.22    0.40 
  -3 -25   1   -0.10    0.22 
  -3 -25   0    0.24    0.26 
  -3 -25  -1    0.11    0.23 
   3  25   1   -0.09    0.16 
  -3 -25  -2    0.23    0.28 
   3  25   2    0.30    0.17 
  -3 -24   3    0.14    0.21 
  -3 -24   2    1.16    0.31 
  -3 -24   1    0.33    0.22 
  -3 -24   0    0.08    0.23 
  -3 -24  -1   -0.10    0.21 
   3  24   1    0.04    0.15 
  -3 -24  -2    0.78    0.32 
   3  24   2    0.69    0.21 
   3  24   3    0.19    0.16 
  -3 -23   4    0.44    0.25 
  -3 -23   3    0.48    0.22 
  -3 -23   2    0.12    0.20 
  -3 -23   1   -0.05    0.18 
  -3 -23   0    0.18    0.19 
  -3 -23  -1   -0.01    0.19 
   3  23   1    0.15    0.16 
  -3 -23  -2    0.41    0.27 
   3  23   2    1.06    0.26 
   3  23   3    0.42    0.19 
  -3 -22   4    0.74    0.22 
  -3 -22   4    0.64    0.25 
  -3 -22   3    0.29    0.19 
  -3 -22   2    1.37    0.28 
  -3 -22   1    2.91    0.37 
  -3 -22   0    0.14    0.17 
   3  22   0    0.26    0.14 
  -3 -22  -1    1.10    0.28 
   3  22   1    0.94    0.22 
  -3 -22  -2    0.24    0.23 
   3  22   2    0.14    0.17 
   3  22   3   -0.12    0.14 
   3  22   4    0.48    0.19 
  -3 -21   5    2.00    0.31 
  -3 -21   4    0.93    0.23 
  -3 -21   4    0.96    0.26 
  -3 -21   3    0.13    0.16 
  -3 -21   3    0.03    0.14 
  -3 -21   2    0.27    0.16 
  -3 -21   1    0.13    0.14 
  -3 -21   0    0.22    0.17 
   3  21   0    0.26    0.14 
  -3 -21  -1    1.48    0.30 
   3  21   1    1.20    0.23 
  -3 -21  -2   -0.07    0.17 
   3  21   2   -0.09    0.15 
   3  21   3    0.13    0.16 
   3  21   4   -0.31    0.14 
  -3 -20   5    0.69    0.23 
  -3 -20   5    1.02    0.29 
  -3 -20   4    1.26    0.27 
  -3 -20   4    0.51    0.21 
  -3 -20   3    0.19    0.18 
  -3 -20   3    0.02    0.14 
  -3 -20   2    0.86    0.18 
  -3 -20   2    0.68    0.20 
  -3 -20   1    0.18    0.14 
  -3 -20   0   -0.04    0.13 
   3  20   0   -0.03    0.10 
  -3 -20  -1    0.14    0.15 
   3  20   1    0.20    0.12 
  -3 -20  -2    0.85    0.26 
   3  20   2    1.36    0.25 
   3  20   3    0.16    0.18 
   3  20   4    0.47    0.21 
   3  20   5    0.67    0.29 
  -3 -19   6    0.43    0.20 
  -3 -19   5    0.14    0.23 
  -3 -19   5   -0.33    0.15 
  -3 -19   4    3.10    0.33 
  -3 -19   4    3.30    0.37 
  -3 -19   3    0.28    0.16 
  -3 -19   3    0.65    0.20 
  -3 -19   2    1.02    0.22 
  -3 -19   2    1.15    0.18 
  -3 -19   1    0.26    0.15 
   3  19  -1    0.14    0.08 
  -3 -19   0    0.03    0.13 
   3  19   0    0.02    0.11 
  -3 -19  -1    0.08    0.15 
   3  19   1    0.18    0.13 
  -3 -19  -2    0.27    0.19 
   3  19   2    0.16    0.14 
   3  19   3    2.09    0.33 
   3  19   4    2.67    0.38 
   3  19   5    0.19    0.25 
  -3 -18   6    0.83    0.23 
  -3 -18   5    0.23    0.20 
  -3 -18   5    0.24    0.19 
  -3 -18   4    0.30    0.18 
  -3 -18   4    0.67    0.21 
  -3 -18   3    0.68    0.20 
  -3 -18   3    0.58    0.17 
  -3 -18   2    0.10    0.13 
  -3 -18   2    0.12    0.13 
  -3 -18   1    0.17    0.06 
  -3 -18   1    0.10    0.12 
   3  18  -1    0.20    0.07 
  -3 -18   0    1.52    0.26 
   3  18   0    1.52    0.21 
  -3 -18  -1    0.17    0.16 
   3  18   1    0.09    0.13 
  -3 -18  -2    1.08    0.25 
   3  18   2    0.96    0.22 
   3  18   3   -0.13    0.14 
   3  18   4    7.94    0.57 
   3  18   5    0.22    0.26 
  -3 -17   6    0.33    0.20 
  -3 -17   5    1.30    0.28 
  -3 -17   5    1.27    0.26 
  -3 -17   4    1.73    0.28 
  -3 -17   4    1.27    0.24 
  -3 -17   3    9.95    0.48 
  -3 -17   3   10.53    0.55 
  -3 -17   2   -0.09    0.11 
  -3 -17   2    0.18    0.12 
  -3 -17   1    0.08    0.07 
  -3 -17   1   -0.04    0.10 
  -3 -17   0    0.99    0.11 
  -3 -17   0    0.91    0.20 
   3  17   0    0.97    0.18 
  -3 -17  -1    0.37    0.16 
   3  17   1    0.49    0.15 
  -3 -17  -2    2.11    0.31 
   3  17   2    2.56    0.31 
   3  17   3    1.77    0.31 
   3  17   4    4.33    0.46 
   3  17   5    0.11    0.24 
  -3 -16   6    0.39    0.20 
  -3 -16   5    0.22    0.18 
  -3 -16   5    0.44    0.21 
  -3 -16   4    0.14    0.15 
  -3 -16   4    0.32    0.17 
  -3 -16   3    0.29    0.14 
  -3 -16   3    0.08    0.14 
  -3 -16   2    3.06    0.30 
  -3 -16   2    3.23    0.25 
  -3 -16   1    2.25    0.18 
  -3 -16   1    2.05    0.25 
   3  16  -1    1.93    0.19 
  -3 -16   0    0.14    0.06 
  -3 -16   0    0.04    0.11 
   3  16   0    0.17    0.08 
  -3 -16  -1    0.61    0.19 
   3  16   1    0.55    0.16 
  -3 -16  -2   -0.03    0.12 
   3  16   2    0.07    0.12 
   3  16   3    0.29    0.17 
   3  16   4    0.48    0.22 
   3  16   5    0.44    0.24 
   3  16   6    0.19    0.26 
  -3 -15   7    0.14    0.15 
  -3 -15   6    2.52    0.35 
  -3 -15   5    0.35    0.20 
  -3 -15   5    0.62    0.19 
  -3 -15   4    0.81    0.22 
  -3 -15   4    1.13    0.22 
  -3 -15   3   11.53    0.56 
  -3 -15   3   11.05    0.50 
  -3 -15   2    0.00    0.09 
  -3 -15   2   -0.02    0.12 
   3  15  -2    0.12    0.06 
  -3 -15   1   -0.05    0.10 
  -3 -15   1    0.10    0.07 
   3  15  -1    0.03    0.04 
  -3 -15   0    1.82    0.24 
  -3 -15   0    1.86    0.14 
   3  15   0    2.10    0.21 
  -3 -15  -1    1.11    0.21 
   3  15   1    0.94    0.18 
  -3 -15  -2    3.15    0.34 
   3  15   2    2.39    0.29 
   3  15   3    4.68    0.37 
   3  15   4    7.42    0.52 
   3  15   5    0.14    0.20 
   3  15   6    0.24    0.27 
  -3 -14   7    0.17    0.17 
  -3 -14   6    1.93    0.32 
  -3 -14   5    0.04    0.15 
  -3 -14   5   -0.04    0.16 
  -3 -14   4    0.11    0.14 
  -3 -14   4   -0.16    0.14 
  -3 -14   3    2.99    0.27 
  -3 -14   3    3.41    0.31 
  -3 -14   2    0.56    0.12 
  -3 -14   2    0.34    0.15 
   3  14  -2    0.42    0.08 
  -3 -14   1   -0.01    0.09 
  -3 -14   1    0.08    0.07 
   3  14  -1    0.11    0.05 
  -3 -14   0    0.15    0.11 
  -3 -14   0    0.15    0.04 
   3  14   0    0.23    0.08 
  -3 -14  -1    0.51    0.16 
   3  14   1    0.61    0.13 
   3  14   2    2.07    0.27 
   3  14   3    1.46    0.26 
   3  14   4   -0.02    0.14 
   3  14   5    0.22    0.18 
   3  14   6   -0.10    0.20 
  -3 -13   7    0.24    0.20 
  -3 -13   6    0.41    0.20 
  -3 -13   6    0.06    0.21 
  -3 -13   5    0.19    0.17 
  -3 -13   5    0.04    0.17 
  -3 -13   4    1.67    0.24 
  -3 -13   4    1.31    0.23 
  -3 -13   3    0.08    0.12 
  -3 -13   3    0.03    0.13 
  -3 -13   2    2.32    0.20 
  -3 -13   2    2.24    0.23 
   3  13  -2    2.16    0.15 
  -3 -13   1    2.15    0.16 
  -3 -13   1    2.19    0.22 
   3  13  -1    2.14    0.16 
  -3 -13   0    0.04    0.09 
  -3 -13   0    0.11    0.03 
   3  13   0    0.01    0.05 
  -3 -13  -1    0.34    0.13 
   3  13   1    0.13    0.09 
   3  13   2    2.18    0.25 
   3  13   3    8.13    0.49 
   3  13   4    2.54    0.33 
   3  13   5   -0.07    0.13 
   3  13   6    0.33    0.21 
  -3 -12   7    0.06    0.16 
  -3 -12   6   -0.16    0.15 
  -3 -12   6   -0.31    0.17 
  -3 -12   5    0.35    0.18 
  -3 -12   5    0.20    0.16 
  -3 -12   4   22.85    0.81 
  -3 -12   4   19.80    0.82 
  -3 -12   3    0.10    0.14 
  -3 -12   3    0.12    0.13 
  -3 -12   2    0.33    0.11 
  -3 -12   2    0.31    0.12 
   3  12  -2    0.46    0.08 
  -3 -12   1    2.03    0.15 
  -3 -12   1    2.13    0.20 
   3  12  -1    2.01    0.15 
  -3 -12   0    1.19    0.17 
  -3 -12   0    1.26    0.11 
   3  12   0    1.18    0.15 
  -3 -12  -1    1.28    0.20 
   3  12   1    1.11    0.17 
   3  12   2    0.09    0.11 
   3  12   3    2.35    0.30 
   3  12   4    6.27    0.44 
   3  12   5    0.26    0.17 
   3  12   6    1.50    0.30 
  -3 -11   7    0.07    0.17 
  -3 -11   6    0.24    0.18 
  -3 -11   6    0.10    0.16 
  -3 -11   5    1.14    0.22 
  -3 -11   5    0.85    0.21 
  -3 -11   4   14.45    0.63 
  -3 -11   4   13.83    0.61 
  -3 -11   3    0.05    0.15 
  -3 -11   3   -0.03    0.09 
   3  11  -3    0.18    0.04 
  -3 -11   2    1.72    0.16 
  -3 -11   2    1.78    0.19 
   3  11  -2    1.63    0.13 
  -3 -11   1    5.37    0.24 
  -3 -11   1    5.49    0.30 
   3  11  -1    5.59    0.26 
  -3 -11   0    1.37    0.11 
  -3 -11   0    1.19    0.16 
   3  11   0    1.30    0.15 
  -3 -11  -1    0.02    0.08 
   3  11   1    0.08    0.07 
   3  11   2    1.73    0.21 
   3  11   3    2.46    0.29 
   3  11   4    0.87    0.20 
   3  11   5    0.47    0.18 
   3  11   6    0.05    0.16 
   3  11   7    0.03    0.21 
  -3 -10   7    0.17    0.21 
  -3 -10   6   -0.09    0.14 
  -3 -10   6   -0.20    0.16 
  -3 -10   5    8.15    0.46 
  -3 -10   5    8.32    0.45 
  -3 -10   4    1.26    0.21 
  -3 -10   4    1.33    0.22 
  -3 -10   3    1.03    0.16 
  -3 -10   3    0.83    0.17 
   3  10  -3    1.35    0.10 
  -3 -10   2   30.35    0.93 
  -3 -10   2   31.55    1.00 
   3  10  -2   30.81    0.94 
  -3 -10   1    0.98    0.13 
  -3 -10   1    0.88    0.10 
   3  10  -1    0.91    0.11 
  -3 -10   0    0.01    0.04 
  -3 -10   0    0.13    0.08 
   3  10   0    0.10    0.06 
  -3 -10  -1    0.23    0.11 
   3  10   1    0.28    0.08 
   3  10   2   22.52    0.83 
   3  10   3    2.80    0.29 
   3  10   4    0.59    0.19 
   3  10   5    5.87    0.44 
   3  10   6    1.24    0.26 
   3  10   7    0.06    0.19 
  -3  -9   7    0.31    0.20 
  -3  -9   6    0.24    0.17 
  -3  -9   6    0.35    0.18 
  -3  -9   5    4.42    0.35 
  -3  -9   5    3.91    0.31 
  -3  -9   4    7.72    0.42 
  -3  -9   4    7.90    0.42 
  -3  -9   3    1.90    0.21 
  -3  -9   3    2.05    0.20 
   3   9  -3    2.23    0.14 
  -3  -9   2   -0.05    0.07 
  -3  -9   2    0.05    0.09 
   3   9  -2    0.11    0.05 
  -3  -9   1    2.67    0.18 
  -3  -9   1    3.03    0.17 
   3   9  -1    2.79    0.17 
  -3  -9   0   16.31    0.49 
  -3  -9   0   15.24    0.59 
   3   9   0   16.10    0.57 
  -3  -9  -1    1.05    0.17 
   3   9   1    1.14    0.15 
   3   9   2    0.27    0.12 
   3   9   3    1.36    0.22 
   3   9   4    1.25    0.23 
   3   9   5    0.94    0.22 
   3   9   6    0.27    0.17 
   3   9   7    0.20    0.21 
  -3  -8   8    0.66    0.28 
  -3  -8   7    0.07    0.19 
  -3  -8   6    0.44    0.18 
  -3  -8   6    0.46    0.18 
  -3  -8   5    5.21    0.36 
  -3  -8   5    4.99    0.34 
  -3  -8   4   11.56    0.51 
  -3  -8   4   12.47    0.54 
  -3  -8   3    0.04    0.08 
  -3  -8   3    0.11    0.12 
   3   8  -3    0.06    0.04 
  -3  -8   2   21.90    0.68 
  -3  -8   2   21.45    0.71 
   3   8  -2   20.66    0.67 
  -3  -8   1   15.14    0.53 
  -3  -8   1   14.76    0.48 
   3   8  -1   15.12    0.51 
  -3  -8   0    0.21    0.08 
  -3  -8   0    0.34    0.06 
   3   8   0    0.34    0.08 
  -3  -8  -1    5.26    0.30 
   3   8   1    5.59    0.29 
   3   8   2    9.65    0.45 
   3   8   3    0.41    0.13 
   3   8   4    0.02    0.11 
   3   8   5    7.96    0.49 
   3   8   6    0.22    0.16 
   3   8   7    0.20    0.20 
  -3  -7   8   -0.02    0.22 
  -3  -7   7    0.28    0.20 
  -3  -7   6    0.06    0.14 
  -3  -7   6    0.10    0.15 
  -3  -7   5   10.81    0.53 
  -3  -7   5   11.72    0.53 
  -3  -7   4   12.30    0.54 
  -3  -7   4   12.82    0.53 
   3   7  -4   12.74    0.45 
  -3  -7   3    0.22    0.11 
  -3  -7   3    0.32    0.09 
   3   7  -3    0.15    0.05 
  -3  -7   2    6.10    0.28 
  -3  -7   2    6.23    0.27 
   3   7  -2    5.96    0.25 
  -3  -7   1    1.54    0.13 
  -3  -7   1    1.42    0.12 
   3   7  -1    1.41    0.12 
  -3  -7   0    1.03    0.09 
  -3  -7   0    0.83    0.11 
   3   7   0    0.89    0.11 
   3   7   1   17.71    0.63 
   3   7   2    0.35    0.11 
   3   7   3    4.33    0.30 
   3   7   4    1.07    0.20 
   3   7   5    0.60    0.18 
   3   7   6    0.05    0.13 
  -3  -6   8    0.19    0.22 
  -3  -6   7   -0.09    0.17 
  -3  -6   6    2.05    0.27 
  -3  -6   6    1.78    0.26 
  -3  -6   5    4.53    0.33 
  -3  -6   5    4.37    0.31 
  -3  -6   4   21.36    0.78 
  -3  -6   4   22.93    0.79 
   3   6  -4   22.66    0.73 
  -3  -6   3    5.91    0.30 
  -3  -6   3    6.02    0.29 
   3   6  -3    6.27    0.27 
  -3  -6   2   24.38    0.76 
  -3  -6   2   24.38    0.74 
   3   6  -2   24.36    0.75 
  -3  -6   1    1.30    0.11 
  -3  -6   1    1.09    0.10 
   3   6  -1    1.30    0.11 
  -3  -6   0    2.98    0.14 
  -3  -6   0    3.13    0.18 
   3   6   0    2.87    0.17 
   3   6   1    0.02    0.04 
   3   6   2   11.45    0.48 
   3   6   3    0.31    0.11 
   3   6   4    0.48    0.17 
   3   6   5    3.36    0.32 
   3   6   6    0.37    0.16 
   3   6   7    0.48    0.23 
  -3  -5   8    0.12    0.20 
  -3  -5   7    2.26    0.31 
  -3  -5   6   -0.14    0.12 
  -3  -5   6   -0.09    0.12 
  -3  -5   5    0.90    0.20 
  -3  -5   5    0.73    0.18 
  -3  -5   4    4.90    0.29 
  -3  -5   4    4.28    0.29 
   3   5  -4    4.93    0.25 
  -3  -5   3   15.94    0.57 
  -3  -5   3   15.41    0.55 
   3   5  -3   15.75    0.54 
  -3  -5   2    1.44    0.13 
  -3  -5   2    1.46    0.12 
   3   5  -2    1.33    0.11 
  -3  -5   1   45.72    1.23 
  -3  -5   1   46.15    1.32 
   3   5  -1   46.70    1.34 
  -3  -5   0   26.71    0.73 
  -3  -5   0   25.64    0.81 
   3   5   0   26.45    0.81 
   3   5   1    0.98    0.12 
   3   5   2    0.50    0.11 
   3   5   3    4.27    0.27 
   3   5   4    6.43    0.37 
   3   5   5    1.28    0.21 
   3   5   6    3.19    0.33 
   3   5   7   -0.03    0.17 
  -3  -4   8    0.23    0.24 
  -3  -4   7    0.31    0.18 
  -3  -4   6    2.52    0.29 
  -3  -4   6    2.67    0.28 
  -3  -4   5   18.83    0.70 
   3   4  -5   17.26    0.65 
  -3  -4   4    1.56    0.20 
  -3  -4   4    1.56    0.16 
   3   4  -4    1.65    0.15 
  -3  -4   3    9.83    0.41 
  -3  -4   3   10.77    0.40 
   3   4  -3   10.08    0.39 
  -3  -4   2    2.10    0.13 
  -3  -4   2    1.89    0.14 
  -3  -4   1   -0.01    0.04 
  -3  -4   1   -0.08    0.04 
   3   4  -1    0.02    0.04 
  -3  -4   0   18.34    0.52 
  -3  -4   0   18.18    0.58 
   3   4   0   17.63    0.58 
   3   4   1   15.74    0.55 
   3   4   2   14.34    0.53 
   3   4   3   17.68    0.66 
   3   4   4    2.44    0.24 
   3   4   5    1.94    0.24 
   3   4   6    2.47    0.28 
   3   4   6    2.24    0.34 
   3   4   7    0.15    0.21 
  -3  -3   8    0.14    0.21 
  -3  -3   7    0.10    0.17 
  -3  -3   6    1.97    0.26 
  -3  -3   5   11.07    0.49 
   3   3  -5   11.03    0.48 
  -3  -3   4   -0.07    0.07 
  -3  -3   4    0.05    0.10 
   3   3  -4    0.05    0.06 
  -3  -3   3   -0.02    0.06 
  -3  -3   3   -0.03    0.06 
   3   3  -3    0.11    0.05 
  -3  -3   2   14.80    0.46 
  -3  -3   2   13.92    0.47 
  -3  -3   1   12.95    0.40 
  -3  -3   1   13.44    0.40 
   3   3  -1   13.43    0.45 
  -3  -3   0    5.52    0.20 
   3   3   0    5.13    0.23 
   3   3   1   16.72    0.56 
   3   3   2    0.19    0.07 
   3   3   3    4.51    0.27 
   3   3   4    0.38    0.12 
   3   3   5    0.14    0.12 
   3   3   6   -0.04    0.14 
   3   3   6    0.24    0.14 
   3   3   7    0.04    0.19 
  -3  -2   8    0.31    0.22 
  -3  -2   7    0.55    0.19 
  -3  -2   7    0.50    0.19 
  -3  -2   6    0.14    0.14 
  -3  -2   5    0.69    0.15 
   3   2  -5    0.69    0.13 
  -3  -2   3    5.14    0.27 
  -3  -2   3    5.19    0.24 
  -3  -2   2   10.16    0.36 
  -3  -2   2   10.81    0.34 
   3   2  -2    9.75    0.38 
  -3  -2   1   68.89    1.78 
  -3  -2   1   69.78    1.92 
   3   2  -1   68.74    1.94 
  -3  -2   0    6.26    0.22 
   3   2   0    6.19    0.25 
   3   2   1   11.21    0.40 
   3   2   2    5.09    0.25 
   3   2   3   -0.01    0.06 
   3   2   4    2.83    0.23 
   3   2   5    1.19    0.18 
   3   2   5    0.73    0.19 
   3   2   6    0.03    0.15 
   3   2   7    0.27    0.22 
  -3  -1   8    0.37    0.23 
  -3  -1   7    0.20    0.16 
  -3  -1   7    0.17    0.16 
  -3  -1   6    3.73    0.34 
  -3  -1   5    0.88    0.16 
  -3  -1   4    4.69    0.27 
   3   1  -4    4.84    0.28 
  -3  -1   3   12.51    0.45 
  -3  -1   3   13.06    0.47 
   3   1  -3   12.91    0.49 
  -3  -1   2    0.00    0.03 
  -3  -1   2    0.05    0.06 
   3   1  -2    0.02    0.05 
  -3  -1   1   13.64    0.40 
   3   1  -1   13.59    0.46 
   3   1   0   82.16    2.29 
   3   1   1   30.01    0.90 
   3   1   2    3.89    0.21 
   3   1   3   -0.02    0.06 
   3   1   4    9.06    0.50 
   3   1   4    9.66    0.42 
   3   1   5    0.12    0.13 
   3   1   5    0.20    0.11 
   3   1   6    0.36    0.19 
   3   1   7    0.99    0.30 
  -3   0   8    0.06    0.18 
  -3   0   7    0.11    0.15 
  -3   0   6   24.98    0.95 
   3   0  -6   23.08    0.92 
  -3   0   5   -0.07    0.07 
   3   0  -5    0.16    0.09 
  -3   0   4   14.58    0.57 
   3   0  -4   15.59    0.60 
  -3   0   3   -0.04    0.07 
   3   0  -3    0.09    0.07 
  -3   0   2    1.38    0.11 
   3   0  -2    1.42    0.14 
  -3   0   1   -0.02    0.04 
   3   0  -1    0.02    0.04 
   3   0   0   25.22    0.76 
   3   0   1    0.05    0.04 
   3   0   2   32.75    0.99 
   3   0   3   -0.06    0.05 
   3   0   3    0.01    0.08 
   3   0   4   26.60    0.98 
   3   0   4   25.85    0.87 
   3   0   5    0.10    0.08 
   3   0   5   -0.09    0.09 
   3   0   6    1.28    0.26 
   3   0   7    0.15    0.23 
  -3   1   8    0.28    0.21 
  -3   1   7    0.35    0.16 
  -3   1   6    3.11    0.31 
   3  -1  -6    2.96    0.33 
  -3   1   5    0.68    0.15 
   3  -1  -5    0.66    0.15 
   3  -1  -4    4.69    0.29 
  -3   1   3   12.86    0.45 
   3  -1  -3   12.98    0.51 
  -3   1   2    0.06    0.05 
   3  -1  -2    0.06    0.06 
  -3   1   1   14.36    0.41 
   3  -1  -1   14.28    0.42 
   3  -1  -1   14.28    0.49 
   3  -1   0   83.93    2.34 
   3  -1   1   30.49    0.91 
   3  -1   1   31.54    0.95 
   3  -1   2    3.99    0.19 
   3  -1   2    4.05    0.24 
   3  -1   3   -0.02    0.05 
   3  -1   3    0.08    0.08 
   3  -1   4   10.17    0.42 
   3  -1   4   10.15    0.52 
   3  -1   5    0.09    0.12 
   3  -1   5    0.29    0.10 
   3  -1   6    0.56    0.21 
   3  -1   7    1.25    0.31 
  -3   2   8    0.23    0.21 
  -3   2   7    0.48    0.18 
  -3   2   6   -0.08    0.12 
   3  -2  -6   -0.03    0.15 
   3  -2  -5    0.50    0.14 
   3  -2  -4    5.35    0.32 
  -3   2   3    5.58    0.25 
   3  -2  -3    4.83    0.29 
  -3   2   2    9.48    0.31 
   3  -2  -2    9.62    0.39 
  -3   2   1   70.62    1.78 
   3  -2  -1   71.15    1.93 
   3  -2  -1   67.56    1.98 
   3  -2   0    6.57    0.27 
   3  -2   0    7.24    0.26 
   3  -2   1   11.03    0.40 
   3  -2   1   11.10    0.38 
   3  -2   2    5.03    0.27 
   3  -2   2    4.72    0.21 
   3  -2   3    0.04    0.05 
   3  -2   3    0.02    0.08 
   3  -2   4    2.75    0.18 
   3  -2   4    2.27    0.27 
   3  -2   5    1.30    0.24 
   3  -2   6   -0.11    0.14 
   3  -2   7    0.74    0.27 
  -3   3   8    0.65    0.24 
  -3   3   7    0.94    0.21 
   3  -3  -6    2.06    0.30 
   3  -3  -5   11.96    0.58 
   3  -3  -4    0.12    0.08 
  -3   3   3   -0.03    0.06 
   3  -3  -3   -0.04    0.06 
  -3   3   2   13.69    0.41 
   3  -3  -2   13.07    0.51 
  -3   3   1   14.17    0.39 
   3  -3  -1   13.95    0.50 
   3  -3   0    5.59    0.25 
   3  -3   0    6.28    0.25 
   3  -3   1   15.96    0.55 
   3  -3   1   16.42    0.51 
   3  -3   2    0.12    0.05 
   3  -3   2    0.12    0.07 
   3  -3   3    4.69    0.29 
   3  -3   3    4.55    0.21 
   3  -3   4    0.27    0.15 
   3  -3   4    0.47    0.09 
   3  -3   5   -0.09    0.11 
   3  -3   6    0.05    0.16 
   3  -3   7   -0.04    0.19 
  -3   4   7    0.63    0.17 
  -3   4   7    0.41    0.23 
  -3   4   7    0.38    0.16 
   3  -4  -6    2.31    0.33 
   3  -4  -5   17.57    0.77 
   3  -4  -4    1.90    0.23 
  -3   4   3   10.21    0.37 
   3  -4  -3   10.50    0.48 
  -3   4   2    2.03    0.11 
   3  -4  -2    1.68    0.12 
   3  -4  -2    1.95    0.18 
  -3   4   1   -0.05    0.02 
   3  -4  -1   -0.02    0.03 
   3  -4  -1    0.00    0.05 
   3  -4   0   18.25    0.59 
   3  -4   0   19.19    0.61 
   3  -4   1   16.91    0.58 
   3  -4   1   16.77    0.53 
   3  -4   2   14.21    0.46 
   3  -4   2   14.19    0.54 
   3  -4   3   17.39    0.68 
   3  -4   3   17.22    0.55 
   3  -4   4    2.73    0.17 
   3  -4   4    2.92    0.29 
   3  -4   5    1.77    0.26 
   3  -4   6    1.96    0.32 
   3  -4   7    0.14    0.22 
  -3   5   7    2.40    0.35 
  -3   5   7    2.02    0.28 
   3  -5  -6    0.03    0.15 
   3  -5  -5    0.75    0.21 
   3  -5  -4    4.49    0.31 
  -3   5   3   15.25    0.48 
   3  -5  -3   14.71    0.62 
  -3   5   2    1.36    0.08 
   3  -5  -2    1.16    0.15 
   3  -5  -2    1.36    0.13 
   3  -5  -1   45.46    1.36 
   3  -5  -1   45.28    1.32 
   3  -5   0   27.22    0.84 
   3  -5   0   26.60    0.83 
   3  -5   1    1.26    0.10 
   3  -5   1    0.91    0.12 
   3  -5   2    0.53    0.12 
   3  -5   2    0.58    0.07 
   3  -5   3    4.62    0.29 
   3  -5   3    4.46    0.20 
   3  -5   4    5.63    0.37 
   3  -5   5    0.98    0.22 
   3  -5   6    4.23    0.42 
   3  -5   7   -0.33    0.18 
  -3   6   7   -0.21    0.15 
   3  -6  -6    2.35    0.34 
   3  -6  -5    4.85    0.42 
   3  -6  -4   22.92    0.89 
  -3   6   3    6.20    0.24 
   3  -6  -3    6.10    0.36 
  -3   6   2   24.67    0.63 
   3  -6  -2   22.30    0.82 
   3  -6  -2   23.53    0.78 
   3  -6  -1    0.97    0.10 
   3  -6  -1    1.11    0.14 
   3  -6   0    3.42    0.19 
   3  -6   0    3.32    0.20 
   3  -6   1    0.02    0.07 
   3  -6   1    0.00    0.04 
   3  -6   2   11.42    0.49 
   3  -6   2   11.67    0.38 
   3  -6   3    0.50    0.14 
   3  -6   3    0.46    0.06 
   3  -6   4    0.13    0.14 
   3  -6   5    3.21    0.33 
   3  -6   6    0.34    0.19 
   3  -6   7   -0.16    0.21 
  -3   7   7    0.22    0.21 
   3  -7  -6   -0.04    0.16 
   3  -7  -5   11.80    0.63 
  -3   7   4   12.42    0.44 
   3  -7  -4   11.36    0.58 
  -3   7   3    0.17    0.06 
   3  -7  -3    0.23    0.10 
  -3   7   2    5.84    0.18 
   3  -7  -2    5.79    0.33 
   3  -7  -2    5.57    0.29 
   3  -7  -1    1.35    0.15 
   3  -7  -1    1.51    0.13 
   3  -7   0    1.23    0.12 
   3  -7   0    0.70    0.11 
   3  -7   1   19.14    0.67 
   3  -7   1   19.42    0.61 
   3  -7   2    0.59    0.06 
   3  -7   2    0.54    0.14 
   3  -7   3    4.04    0.16 
   3  -7   3    3.72    0.30 
   3  -7   4    1.25    0.23 
   3  -7   5    0.37    0.18 
   3  -7   6    0.05    0.17 
   3  -7   7    0.10    0.26 
  -3   8   7   -0.11    0.16 
   3  -8  -6    0.48    0.21 
   3  -8  -5    5.14    0.45 
  -3   8   4   12.01    0.43 
   3  -8  -4   12.53    0.62 
  -3   8   3    0.05    0.05 
   3  -8  -3    0.05    0.08 
   3  -8  -2   22.13    0.77 
   3  -8  -2   22.35    0.82 
   3  -8  -1   14.69    0.54 
   3  -8  -1   15.65    0.59 
   3  -8   0    0.16    0.09 
   3  -8   0    0.30    0.08 
   3  -8   1    5.50    0.30 
   3  -8   1    6.03    0.25 
   3  -8   2    9.90    0.46 
   3  -8   2    9.29    0.32 
   3  -8   3    0.50    0.16 
   3  -8   4   -0.05    0.14 
   3  -8   5    7.32    0.49 
   3  -8   6    0.20    0.20 
   3  -8   7   -0.19    0.23 
  -3   9   7   -0.15    0.19 
   3  -9  -6    0.47    0.21 
   3  -9  -5    4.76    0.45 
  -3   9   4    7.78    0.31 
   3  -9  -4    7.83    0.49 
  -3   9   3    1.98    0.11 
   3  -9  -3    1.44    0.22 
   3  -9  -3    2.14    0.22 
   3  -9  -2    0.07    0.06 
   3  -9  -2    0.04    0.08 
   3  -9  -1    2.60    0.22 
   3  -9  -1    2.67    0.18 
   3  -9   0   16.44    0.59 
   3  -9   0   16.56    0.61 
   3  -9   1    1.01    0.17 
   3  -9   1    1.43    0.12 
   3  -9   2    0.75    0.18 
   3  -9   2    0.58    0.06 
   3  -9   3    1.37    0.23 
   3  -9   4    1.15    0.24 
   3  -9   5    0.81    0.24 
   3  -9   6    0.13    0.21 
   3  -9   7   -0.01    0.26 
  -3  10   7   -0.05    0.17 
   3 -10  -6    0.03    0.19 
   3 -10  -5    7.58    0.53 
   3 -10  -4    1.29    0.27 
   3 -10  -3    1.20    0.18 
   3 -10  -3    1.02    0.20 
   3 -10  -2   29.44    1.04 
   3 -10  -2   29.49    1.01 
   3 -10  -1    0.70    0.12 
   3 -10  -1    0.79    0.14 
   3 -10   0    0.11    0.09 
   3 -10   0   -0.02    0.06 
   3 -10   1    0.41    0.13 
   3 -10   1    0.55    0.09 
   3 -10   2   22.81    0.68 
   3 -10   2   22.59    0.84 
   3 -10   3    2.77    0.30 
   3 -10   4    0.46    0.20 
   3 -10   5    5.06    0.40 
   3 -10   6    1.28    0.30 
   3 -10   7    0.09    0.26 
  -3  11   7    0.12    0.24 
   3 -11  -6    0.31    0.23 
   3 -11  -5    0.76    0.23 
   3 -11  -4   13.74    0.71 
   3 -11  -3    0.07    0.09 
   3 -11  -3   -0.08    0.10 
   3 -11  -2    1.89    0.20 
   3 -11  -2    2.26    0.25 
   3 -11  -1    5.72    0.33 
   3 -11  -1    6.05    0.32 
   3 -11   0    1.25    0.15 
   3 -11   0    1.32    0.17 
   3 -11   1    0.10    0.05 
   3 -11   1    0.10    0.12 
   3 -11   2    2.21    0.27 
   3 -11   2    1.79    0.11 
   3 -11   3    2.60    0.29 
   3 -11   4    0.24    0.19 
   3 -11   5    0.11    0.20 
   3 -11   6   -0.22    0.18 
   3 -11   7   -0.09    0.26 
  -3  12   7    0.24    0.25 
  -3  12   6    0.24    0.21 
   3 -12  -5    0.50    0.21 
   3 -12  -4   21.36    0.95 
   3 -12  -3    0.09    0.12 
   3 -12  -3    0.17    0.12 
   3 -12  -2    0.60    0.13 
   3 -12  -2    0.39    0.15 
   3 -12  -1    1.89    0.20 
   3 -12  -1    2.27    0.23 
   3 -12   0    1.32    0.16 
   3 -12   0    1.13    0.17 
   3 -12   1    1.58    0.22 
   3 -12   1    1.31    0.14 
   3 -12   2    0.34    0.18 
   3 -12   3    2.92    0.31 
   3 -12   4    6.35    0.46 
   3 -12   5    0.04    0.21 
   3 -12   6    1.37    0.33 
  -3  13   7    0.16    0.24 
  -3  13   6    0.42    0.23 
   3 -13  -5    0.30    0.20 
   3 -13  -4    1.49    0.29 
   3 -13  -3   -0.14    0.11 
   3 -13  -3   -0.17    0.11 
   3 -13  -2    2.38    0.28 
   3 -13  -2    2.57    0.25 
   3 -13  -1    2.05    0.22 
   3 -13  -1    2.24    0.24 
   3 -13   0    0.12    0.11 
   3 -13   0    0.10    0.08 
   3 -13   1    0.08    0.14 
   3 -13   1    0.34    0.09 
   3 -13   2    2.09    0.27 
   3 -13   3    9.13    0.54 
   3 -13   4    2.01    0.30 
   3 -13   5   -0.07    0.19 
   3 -13   6   -0.22    0.21 
  -3  14   7    0.03    0.23 
  -3  14   6    1.98    0.39 
   3 -14  -5    0.05    0.20 
   3 -14  -4    0.16    0.15 
   3 -14  -3    3.87    0.36 
   3 -14  -3    2.60    0.34 
   3 -14  -2    0.40    0.15 
   3 -14  -2    0.16    0.13 
   3 -14  -1   -0.03    0.08 
   3 -14  -1    0.00    0.11 
   3 -14   0    0.32    0.05 
   3 -14   0    0.20    0.14 
   3 -14   0    0.26    0.10 
   3 -14   1    0.66    0.12 
   3 -14   1    0.38    0.18 
   3 -14   2    1.78    0.27 
   3 -14   3    1.82    0.30 
   3 -14   4   -0.11    0.17 
   3 -14   5    0.10    0.21 
   3 -14   6    0.26    0.26 
  -3  15   6    2.18    0.40 
   3 -15  -5    0.29    0.25 
   3 -15  -4    1.00    0.24 
   3 -15  -3   10.96    0.60 
   3 -15  -3   11.41    0.64 
   3 -15  -2   -0.10    0.09 
   3 -15  -2   -0.01    0.12 
   3 -15  -1   -0.07    0.08 
   3 -15  -1    0.04    0.11 
   3 -15   0    1.95    0.25 
   3 -15   0    2.34    0.23 
   3 -15   1    0.90    0.21 
   3 -15   1    0.92    0.14 
   3 -15   2    2.97    0.34 
   3 -15   3    4.21    0.39 
   3 -15   4    8.21    0.56 
   3 -15   5    0.01    0.22 
   3 -15   6    0.42    0.29 
  -3  16   6    0.40    0.27 
  -3  16   5    0.37    0.23 
   3 -16  -4   -0.06    0.15 
   3 -16  -3    0.20    0.15 
   3 -16  -3    0.29    0.18 
   3 -16  -2    3.42    0.33 
   3 -16  -2    3.40    0.35 
   3 -16  -1    1.72    0.24 
   3 -16  -1    1.95    0.26 
   3 -16   0    0.18    0.14 
   3 -16   0    0.09    0.10 
   3 -16   1    0.55    0.21 
   3 -16   2   -0.18    0.16 
   3 -16   3    0.73    0.25 
   3 -16   4    0.17    0.24 
   3 -16   5    0.51    0.27 
   3 -16   6    0.29    0.31 
  -3  17   6    1.04    0.33 
  -3  17   5    0.33    0.24 
   3 -17  -4    1.66    0.33 
   3 -17  -3    9.56    0.58 
   3 -17  -3    8.84    0.56 
   3 -17  -2    0.01    0.12 
   3 -17  -2    0.02    0.11 
   3 -17  -1   -0.03    0.13 
   3 -17  -1    0.14    0.11 
   3 -17   0    0.83    0.17 
   3 -17   0    0.71    0.19 
   3 -17   1    0.33    0.18 
   3 -17   2    2.31    0.32 
   3 -17   3    1.76    0.31 
   3 -17   4    4.42    0.46 
   3 -17   5   -0.03    0.25 
   3 -17   6    1.66    0.40 
  -3  18   6    0.72    0.30 
  -3  18   5    0.06    0.22 
  -3  18   4    0.14    0.20 
   3 -18  -3    0.40    0.20 
   3 -18  -3    0.56    0.21 
   3 -18  -2    0.06    0.13 
   3 -18  -2   -0.01    0.12 
   3 -18  -1    0.10    0.14 
   3 -18  -1    0.00    0.11 
  -3  18   0    1.55    0.20 
   3 -18   0    1.70    0.26 
   3 -18   1    0.29    0.18 
   3 -18   2    1.53    0.28 
   3 -18   3    0.05    0.20 
   3 -18   4    7.78    0.58 
   3 -18   5    0.14    0.28 
  -3  19   5   -0.02    0.18 
  -3  19   4    2.79    0.41 
  -3  19   3    0.05    0.17 
   3 -19  -3   -0.06    0.16 
  -3  19   2    0.78    0.22 
   3 -19  -2    1.08    0.24 
   3 -19  -2    1.12    0.26 
  -3  19   1   -0.04    0.15 
   3 -19  -1    0.21    0.14 
  -3  19   0    0.02    0.13 
   3 -19   0   -0.15    0.12 
   3 -19   1    0.01    0.14 
   3 -19   2    0.23    0.20 
   3 -19   3    1.50    0.31 
   3 -19   4    3.05    0.42 
   3 -19   5    0.05    0.25 
  -3  20   5    0.88    0.27 
  -3  20   4    1.14    0.31 
  -3  20   3    0.12    0.19 
   3 -20  -3   -0.13    0.16 
  -3  20   2    0.79    0.23 
   3 -20  -2    0.63    0.23 
  -3  20   1   -0.02    0.15 
   3 -20  -1    0.50    0.20 
   3 -20   0   -0.15    0.12 
   3 -20   1   -0.14    0.14 
   3 -20   2    1.32    0.28 
   3 -20   3    0.62    0.26 
   3 -20   4    0.58    0.29 
   3 -20   5   -0.02    0.26 
   3 -20   5    0.42    0.20 
  -3  21   5    2.05    0.37 
  -3  21   4    0.68    0.26 
  -3  21   3    0.12    0.18 
   3 -21  -3    0.04    0.18 
  -3  21   2    0.25    0.19 
   3 -21  -2    0.05    0.19 
  -3  21   1    0.28    0.19 
   3 -21  -1    0.28    0.18 
   3 -21   0    0.07    0.16 
   3 -21   1    1.82    0.32 
   3 -21   2    0.14    0.19 
   3 -21   3    0.16    0.24 
   3 -21   4    0.30    0.27 
  -3  22   4    0.38    0.22 
  -3  22   3    0.53    0.24 
   3 -22  -3    0.19    0.21 
  -3  22   2    1.02    0.27 
   3 -22  -2    0.83    0.26 
  -3  22   1    2.60    0.34 
   3 -22  -1    2.37    0.36 
   3 -22   0   -0.06    0.15 
   3 -22   1    1.05    0.27 
   3 -22   2    0.31    0.23 
   3 -22   3    0.06    0.22 
   3 -22   4   -0.10    0.25 
  -3  23   4    0.21    0.19 
  -3  23   3   -0.04    0.19 
   3 -23  -3   -0.18    0.16 
  -3  23   2    0.24    0.19 
   3 -23  -2    0.49    0.23 
  -3  23   1    0.03    0.19 
   3 -23  -1    0.23    0.18 
   3 -23   0    0.15    0.18 
   3 -23   1    0.02    0.19 
   3 -23   2    0.74    0.28 
   3 -23   3    0.14    0.24 
  -3  24   3    0.04    0.17 
   3 -24  -3    0.02    0.20 
  -3  24   2    1.14    0.29 
   3 -24  -2    1.34    0.32 
   3 -24  -1    0.07    0.18 
   3 -24   0    0.02    0.19 
   3 -24   1    0.28    0.23 
   3 -24   2    0.90    0.30 
   3 -24   3    0.26    0.27 
  -3  25   3    0.14    0.20 
   3 -25  -3   -0.04    0.16 
  -3  25   2    1.83    0.35 
   3 -25  -2    1.70    0.35 
   3 -25  -1    0.17    0.20 
   3 -25   0    0.23    0.16 
   3 -25   1    0.39    0.25 
   3 -25   2    0.35    0.27 
   3 -26  -2    0.32    0.19 
   3 -26  -1    0.43    0.19 
   3 -26   0    0.39    0.20 
   3 -26   1    0.03    0.24 
  -4 -26   2    2.16    0.42 
  -4 -26   1    0.44    0.29 
  -4 -26   0    0.19    0.27 
  -4 -26  -1    0.15    0.30 
   4  26   1    0.22    0.15 
  -4 -25   3   -0.06    0.24 
  -4 -25   2    0.36    0.27 
  -4 -25   1    0.16    0.26 
  -4 -25   0    0.11    0.24 
  -4 -25  -1   -0.05    0.25 
   4  25   1    0.01    0.15 
   4  25   2    0.17    0.16 
  -4 -24   3    0.62    0.28 
  -4 -24   2    0.28    0.22 
  -4 -24   1    3.34    0.45 
  -4 -24   0    0.04    0.23 
  -4 -24  -1    0.27    0.27 
   4  24   1    0.31    0.18 
   4  24   2    0.62    0.20 
   4  24   3    0.45    0.18 
  -4 -23   3    0.43    0.22 
  -4 -23   2    4.14    0.45 
  -4 -23   1    1.01    0.28 
  -4 -23   0    1.32    0.31 
   4  23   0    1.49    0.26 
  -4 -23  -1    0.21    0.22 
   4  23   1    0.27    0.17 
   4  23   2    0.37    0.19 
   4  23   3    0.23    0.15 
  -4 -22   4    0.22    0.24 
  -4 -22   4    0.11    0.18 
  -4 -22   3    0.23    0.19 
  -4 -22   2    0.10    0.18 
  -4 -22   1    7.12    0.52 
  -4 -22   0   -0.05    0.16 
   4  22   0    0.14    0.13 
  -4 -22  -1    2.27    0.37 
   4  22   1    1.85    0.30 
   4  22   2   -0.18    0.13 
   4  22   3   -0.10    0.14 
   4  22   4    0.74    0.23 
  -4 -21   5   -0.13    0.16 
  -4 -21   4    0.42    0.23 
  -4 -21   4    0.57    0.22 
  -4 -21   3    0.13    0.15 
  -4 -21   3   -0.02    0.14 
  -4 -21   2   -0.10    0.15 
  -4 -21   1    0.68    0.21 
  -4 -21   0    0.27    0.18 
   4  21   0    0.50    0.17 
  -4 -21  -1    1.03    0.26 
   4  21   1    0.96    0.22 
   4  21   2    0.16    0.16 
   4  21   3   -0.11    0.13 
   4  21   4    0.23    0.17 
  -4 -20   5    0.22    0.18 
  -4 -20   4    0.31    0.20 
  -4 -20   4    0.88    0.25 
  -4 -20   3    1.31    0.25 
  -4 -20   3    1.26    0.22 
  -4 -20   2    1.28    0.20 
  -4 -20   2    1.55    0.26 
  -4 -20   1    0.24    0.16 
  -4 -20   0    0.58    0.21 
   4  20   0    0.32    0.15 
  -4 -20  -1    0.55    0.22 
   4  20   1    0.66    0.19 
   4  20   2    0.85    0.22 
   4  20   3   -0.07    0.14 
   4  20   4    0.46    0.19 
  -4 -19   5    0.37    0.21 
  -4 -19   4    1.41    0.26 
  -4 -19   4    0.62    0.21 
  -4 -19   3    1.12    0.24 
  -4 -19   3    1.06    0.21 
  -4 -19   2   16.07    0.75 
  -4 -19   2   15.64    0.60 
  -4 -19   1    1.87    0.19 
  -4 -19   1    1.45    0.25 
   4  19  -1    1.54    0.22 
  -4 -19   0    0.09    0.15 
   4  19   0    0.15    0.12 
  -4 -19  -1   -0.13    0.12 
   4  19   1    0.04    0.12 
   4  19   2    1.06    0.23 
   4  19   3   -0.08    0.14 
   4  19   4    0.36    0.19 
   4  19   5    0.63    0.31 
  -4 -18   6   -0.17    0.16 
  -4 -18   5    0.46    0.22 
  -4 -18   4    0.19    0.16 
  -4 -18   4    0.20    0.17 
  -4 -18   3   10.81    0.51 
  -4 -18   3   10.94    0.58 
  -4 -18   2   11.29    0.58 
  -4 -18   2   10.61    0.46 
  -4 -18   1    0.21    0.08 
  -4 -18   1    0.03    0.12 
   4  18  -1    0.08    0.10 
  -4 -18   0    1.20    0.23 
   4  18   0    1.11    0.21 
  -4 -18  -1    0.77    0.21 
   4  18   1    0.67    0.17 
   4  18   2    0.36    0.18 
   4  18   3    0.75    0.22 
   4  18   4   -0.07    0.16 
   4  18   5   -0.22    0.19 
  -4 -17   6   -0.22    0.15 
  -4 -17   5   -0.17    0.16 
  -4 -17   4    2.35    0.29 
  -4 -17   4    2.56    0.31 
  -4 -17   3    0.38    0.16 
  -4 -17   3    0.12    0.14 
  -4 -17   2    3.34    0.25 
  -4 -17   2    3.50    0.32 
  -4 -17   1    0.45    0.15 
  -4 -17   1    0.63    0.11 
   4  17  -1    0.75    0.13 
  -4 -17   0    0.24    0.05 
  -4 -17   0    0.52    0.18 
   4  17   0    0.55    0.16 
  -4 -17  -1    0.32    0.16 
   4  17   1    0.24    0.13 
   4  17   2    1.13    0.22 
   4  17   3    0.75    0.21 
   4  17   4    0.59    0.24 
   4  17   5    0.34    0.23 
  -4 -16   6    0.03    0.18 
  -4 -16   5   -0.08    0.17 
  -4 -16   4    1.49    0.24 
  -4 -16   4    1.08    0.22 
  -4 -16   3    0.08    0.14 
  -4 -16   3   -0.13    0.13 
  -4 -16   2    0.21    0.14 
  -4 -16   2    0.39    0.14 
   4  16  -2    0.62    0.11 
  -4 -16   1    0.76    0.17 
  -4 -16   1    0.60    0.12 
   4  16  -1    0.77    0.14 
  -4 -16   0    1.81    0.25 
   4  16   0    2.02    0.24 
  -4 -16  -1   -0.15    0.09 
   4  16   1    0.12    0.10 
   4  16   2    0.09    0.11 
   4  16   3    0.41    0.17 
   4  16   4    5.01    0.47 
   4  16   5    0.44    0.24 
  -4 -15   6    0.36    0.20 
  -4 -15   5    0.55    0.21 
  -4 -15   5    0.44    0.19 
  -4 -15   4    0.21    0.17 
  -4 -15   4    0.07    0.14 
  -4 -15   3    8.20    0.43 
  -4 -15   3    7.94    0.47 
  -4 -15   2    0.56    0.17 
  -4 -15   2    0.92    0.17 
   4  15  -2    0.97    0.14 
  -4 -15   1    0.04    0.07 
  -4 -15   1   -0.07    0.09 
   4  15  -1    0.16    0.07 
  -4 -15   0    0.45    0.15 
  -4 -15   0    0.56    0.09 
   4  15   0    0.51    0.12 
  -4 -15  -1    1.92    0.27 
   4  15   1    1.47    0.21 
   4  15   2    0.85    0.19 
   4  15   3    0.45    0.17 
   4  15   4    2.31    0.33 
   4  15   5    0.39    0.22 
   4  15   6    0.26    0.24 
  -4 -14   7    0.00    0.18 
  -4 -14   6   -0.07    0.17 
  -4 -14   5    0.19    0.17 
  -4 -14   5    0.09    0.16 
  -4 -14   4    0.11    0.14 
  -4 -14   4    0.12    0.15 
  -4 -14   3   97.57    2.69 
  -4 -14   3   98.45    2.90 
  -4 -14   2    2.00    0.19 
  -4 -14   2    2.14    0.23 
   4  14  -2    1.96    0.18 
  -4 -14   1    0.23    0.11 
  -4 -14   1    0.12    0.07 
   4  14  -1    0.32    0.09 
  -4 -14   0    0.32    0.08 
  -4 -14   0    0.33    0.13 
   4  14   0    0.29    0.10 
  -4 -14  -1   -0.01    0.10 
   4  14   1    0.11    0.10 
   4  14   2    0.50    0.15 
   4  14   3    1.12    0.23 
   4  14   4    0.33    0.17 
   4  14   5    1.29    0.28 
   4  14   6    0.16    0.23 
  -4 -13   7    0.22    0.17 
  -4 -13   6   -0.02    0.16 
  -4 -13   5    0.57    0.19 
  -4 -13   5    0.44    0.19 
  -4 -13   4    3.54    0.30 
  -4 -13   4    3.03    0.30 
  -4 -13   3   22.93    0.85 
  -4 -13   3   22.71    0.81 
  -4 -13   2    4.62    0.26 
  -4 -13   2    5.00    0.31 
   4  13  -2    4.39    0.25 
  -4 -13   1   -0.02    0.06 
  -4 -13   1   -0.08    0.08 
   4  13  -1    0.07    0.06 
  -4 -13   0    0.08    0.09 
  -4 -13   0    0.11    0.06 
   4  13   0    0.15    0.08 
  -4 -13  -1    0.34    0.14 
   4  13   1    0.42    0.12 
   4  13   2    2.34    0.27 
   4  13   3    1.06    0.22 
   4  13   4    0.56    0.19 
   4  13   5    0.00    0.15 
   4  13   6    0.12    0.20 
  -4 -12   7   -0.14    0.15 
  -4 -12   6   -0.24    0.13 
  -4 -12   5    0.36    0.18 
  -4 -12   5    0.07    0.15 
  -4 -12   4   -0.07    0.14 
  -4 -12   4   -0.10    0.12 
  -4 -12   3    3.70    0.29 
  -4 -12   3    3.92    0.29 
   4  12  -3    4.12    0.22 
  -4 -12   2    1.72    0.17 
  -4 -12   2    2.59    0.22 
   4  12  -2    2.17    0.17 
  -4 -12   1   -0.07    0.08 
  -4 -12   1    0.07    0.07 
   4  12  -1    0.12    0.06 
  -4 -12   0    0.25    0.11 
  -4 -12   0    0.49    0.08 
   4  12   0    0.33    0.09 
  -4 -12  -1    5.06    0.34 
   4  12   1    4.56    0.29 
   4  12   2    0.27    0.14 
   4  12   3    1.57    0.25 
   4  12   4    0.28    0.15 
   4  12   5    1.72    0.29 
   4  12   6    1.98    0.34 
  -4 -11   7    0.05    0.20 
  -4 -11   6    0.16    0.18 
  -4 -11   5    1.22    0.24 
  -4 -11   5    1.18    0.23 
  -4 -11   4   11.09    0.52 
  -4 -11   4   10.78    0.51 
  -4 -11   3    2.47    0.25 
  -4 -11   3    2.57    0.24 
   4  11  -3    2.66    0.17 
  -4 -11   2    3.53    0.25 
  -4 -11   2    3.88    0.24 
   4  11  -2    4.11    0.23 
  -4 -11   1    6.38    0.27 
  -4 -11   1    6.37    0.33 
   4  11  -1    6.14    0.30 
  -4 -11   0    0.19    0.06 
  -4 -11   0    0.08    0.08 
   4  11   0    0.14    0.07 
  -4 -11  -1    0.21    0.10 
   4  11   1    0.11    0.07 
   4  11   2    1.72    0.22 
   4  11   3    2.24    0.27 
   4  11   4    0.53    0.19 
   4  11   5    1.22    0.25 
   4  11   6    0.79    0.24 
  -4 -10   7   -0.19    0.19 
  -4 -10   6    0.11    0.16 
  -4 -10   5    3.12    0.32 
  -4 -10   5    2.48    0.26 
  -4 -10   4   41.80    1.35 
  -4 -10   4   41.23    1.30 
  -4 -10   3   17.45    0.64 
  -4 -10   3   17.33    0.65 
   4  10  -3   16.55    0.59 
  -4 -10   2    6.54    0.32 
  -4 -10   2    6.30    0.30 
   4  10  -2    6.58    0.30 
  -4 -10   1    7.79    0.36 
  -4 -10   1    7.93    0.31 
   4  10  -1    8.33    0.36 
  -4 -10   0    0.14    0.09 
  -4 -10   0    0.23    0.06 
   4  10   0    0.13    0.06 
   4  10   1    4.65    0.28 
   4  10   2    6.26    0.36 
   4  10   3    1.95    0.25 
   4  10   4    0.15    0.12 
   4  10   5    0.20    0.15 
   4  10   6    2.41    0.34 
   4  10   7    0.11    0.23 
  -4  -9   7    0.33    0.21 
  -4  -9   6    0.11    0.15 
  -4  -9   5    0.37    0.16 
  -4  -9   5    0.51    0.18 
  -4  -9   4   33.67    1.15 
  -4  -9   4   36.30    1.14 
  -4  -9   3    0.84    0.15 
  -4  -9   3    1.09    0.16 
   4   9  -3    1.09    0.12 
  -4  -9   2   39.41    1.12 
  -4  -9   2   38.45    1.18 
   4   9  -2   38.11    1.17 
  -4  -9   1    6.75    0.28 
  -4  -9   1    7.60    0.33 
   4   9  -1    7.47    0.33 
  -4  -9   0    8.94    0.41 
  -4  -9   0    9.73    0.33 
   4   9   0    9.07    0.39 
   4   9   1    7.47    0.37 
   4   9   2   -0.05    0.07 
   4   9   3    0.71    0.17 
   4   9   4    0.10    0.13 
   4   9   5    0.99    0.22 
   4   9   6    0.09    0.15 
   4   9   7    0.19    0.22 
  -4  -8   8    0.09    0.24 
  -4  -8   7    0.02    0.19 
  -4  -8   6    0.03    0.13 
  -4  -8   5    1.01    0.20 
  -4  -8   5    0.95    0.19 
  -4  -8   4   26.90    0.92 
  -4  -8   4   27.01    0.92 
   4   8  -4   27.71    0.87 
  -4  -8   3   10.88    0.45 
  -4  -8   3   11.20    0.46 
   4   8  -3   11.03    0.43 
  -4  -8   2    1.53    0.14 
  -4  -8   2    1.43    0.14 
  -4  -8   1   13.75    0.45 
  -4  -8   1   13.56    0.49 
   4   8  -1   13.73    0.50 
  -4  -8   0    0.83    0.09 
  -4  -8   0    0.82    0.12 
   4   8   0    0.84    0.12 
   4   8   1   14.53    0.57 
   4   8   2    0.85    0.15 
   4   8   3    0.41    0.14 
   4   8   4    0.54    0.15 
   4   8   5    0.70    0.19 
   4   8   6    0.61    0.20 
  -4  -7   8   -0.08    0.21 
  -4  -7   7    0.02    0.17 
  -4  -7   6    0.99    0.22 
  -4  -7   5    0.95    0.20 
  -4  -7   5    1.22    0.19 
  -4  -7   4    0.02    0.12 
  -4  -7   4    0.05    0.12 
   4   7  -4    0.08    0.05 
  -4  -7   3    0.13    0.09 
  -4  -7   3    0.40    0.12 
   4   7  -3    0.31    0.08 
  -4  -7   2   12.41    0.44 
  -4  -7   2   12.42    0.44 
  -4  -7   1    0.08    0.06 
  -4  -7   1    0.10    0.05 
   4   7  -1    0.09    0.05 
  -4  -7   0   -0.01    0.03 
  -4  -7   0   -0.04    0.05 
   4   7   0    0.03    0.05 
   4   7   1    9.92    0.43 
   4   7   2    2.35    0.21 
   4   7   3    0.33    0.12 
   4   7   4    3.17    0.30 
   4   7   5    8.50    0.49 
   4   7   6    0.19    0.17 
   4   7   7    0.24    0.26 
  -4  -6   8    0.21    0.21 
  -4  -6   7    0.34    0.21 
  -4  -6   6    0.40    0.16 
  -4  -6   5    5.29    0.35 
  -4  -6   5    5.53    0.34 
  -4  -6   4    6.10    0.35 
  -4  -6   4    5.91    0.32 
   4   6  -4    5.95    0.29 
  -4  -6   3    0.87    0.12 
  -4  -6   3    0.85    0.14 
   4   6  -3    0.84    0.11 
  -4  -6   2   65.33    1.77 
  -4  -6   2   66.22    1.87 
  -4  -6   1   13.22    0.45 
  -4  -6   1   13.63    0.43 
   4   6  -1   13.25    0.48 
  -4  -6   0    6.49    0.25 
  -4  -6   0    6.47    0.29 
   4   6   0    6.09    0.29 
   4   6   1    8.30    0.37 
   4   6   2   13.45    0.54 
   4   6   3    0.84    0.16 
   4   6   4   -0.02    0.09 
   4   6   5    2.57    0.28 
   4   6   6    0.35    0.15 
   4   6   7    0.32    0.25 
  -4  -5   8    0.04    0.21 
  -4  -5   7    0.57    0.20 
  -4  -5   6    0.94    0.20 
  -4  -5   6    1.04    0.21 
  -4  -5   5   12.65    0.55 
  -4  -5   5   12.90    0.57 
  -4  -5   4    6.40    0.36 
  -4  -5   4    7.62    0.35 
   4   5  -4    7.80    0.34 
  -4  -5   3    0.02    0.08 
  -4  -5   3    0.16    0.09 
   4   5  -3    0.12    0.06 
  -4  -5   2   46.95    1.30 
  -4  -5   2   47.93    1.34 
   4   5  -2   45.66    1.38 
  -4  -5   1   16.54    0.52 
  -4  -5   1   17.49    0.55 
   4   5  -1   17.87    0.59 
  -4  -5   0   10.83    0.35 
   4   5   0   10.51    0.41 
   4   5   1    2.99    0.20 
   4   5   2   11.42    0.47 
   4   5   3    1.77    0.20 
   4   5   4    0.02    0.10 
   4   5   5    2.90    0.29 
   4   5   6    0.00    0.12 
   4   5   7    0.00    0.20 
  -4  -4   8   -0.25    0.18 
  -4  -4   7    0.37    0.17 
  -4  -4   6    1.87    0.24 
  -4  -4   6    2.20    0.27 
  -4  -4   5   19.91    0.76 
  -4  -4   5   22.51    0.81 
   4   4  -5   21.67    0.77 
  -4  -4   4   21.30    0.76 
  -4  -4   4   21.60    0.73 
   4   4  -4   21.80    0.75 
  -4  -4   3    6.22    0.31 
  -4  -4   3    6.07    0.26 
  -4  -4   2   88.94    2.33 
  -4  -4   2   88.99    2.45 
   4   4  -2   87.82    2.51 
  -4  -4   1    8.22    0.28 
  -4  -4   1    8.13    0.29 
   4   4  -1    7.99    0.33 
  -4  -4   0    7.69    0.27 
   4   4   0    7.93    0.33 
   4   4   1    0.06    0.06 
   4   4   2    1.10    0.15 
   4   4   3    1.87    0.20 
   4   4   4    0.32    0.12 
   4   4   5    0.08    0.11 
   4   4   6    2.64    0.37 
   4   4   6    2.53    0.30 
   4   4   7    0.01    0.22 
  -4  -3   8   -0.12    0.19 
  -4  -3   7    0.32    0.17 
  -4  -3   6    0.35    0.15 
  -4  -3   6    0.31    0.15 
  -4  -3   5    1.53    0.22 
  -4  -3   5    1.86    0.20 
   4   3  -5    1.61    0.19 
  -4  -3   4    5.80    0.32 
  -4  -3   4    6.34    0.30 
  -4  -3   3   33.37    0.98 
  -4  -3   3   33.17    0.98 
   4   3  -3   32.12    1.04 
  -4  -3   2    0.04    0.06 
  -4  -3   2   -0.02    0.05 
   4   3  -2    0.13    0.06 
  -4  -3   1   15.89    0.48 
  -4  -3   1   16.38    0.49 
   4   3  -1   15.68    0.55 
  -4  -3   0    1.14    0.09 
   4   3   0    1.23    0.12 
   4   3   1   12.35    0.46 
   4   3   2   12.67    0.49 
   4   3   3   12.49    0.51 
   4   3   4    1.60    0.20 
   4   3   5    0.08    0.11 
   4   3   6    3.14    0.39 
   4   3   7    0.01    0.22 
  -4  -2   8   -0.01    0.19 
  -4  -2   7   -0.01    0.15 
  -4  -2   6    4.41    0.32 
  -4  -2   6    4.31    0.35 
  -4  -2   5    0.03    0.12 
  -4  -2   5    0.24    0.10 
   4   2  -5    0.05    0.05 
  -4  -2   4    0.31    0.11 
  -4  -2   4    0.31    0.09 
   4   2  -4    0.50    0.11 
  -4  -2   3    0.34    0.10 
  -4  -2   3    0.05    0.07 
   4   2  -3    0.17    0.08 
  -4  -2   2    4.70    0.22 
  -4  -2   2    5.03    0.17 
   4   2  -2    4.64    0.24 
  -4  -2   1    0.00    0.05 
   4   2  -1   -0.02    0.04 
   4   2   0    2.66    0.17 
   4   2   1    1.23    0.12 
   4   2   2    0.63    0.11 
   4   2   3    0.10    0.08 
   4   2   4    4.50    0.29 
   4   2   5    0.03    0.09 
   4   2   5   -0.06    0.12 
   4   2   6    1.46    0.28 
   4   2   7    3.16    0.46 
  -4  -1   8    0.06    0.19 
  -4  -1   7    1.80    0.28 
  -4  -1   6   -0.06    0.12 
  -4  -1   6    0.02    0.11 
   4   1  -6    0.10    0.07 
  -4  -1   5    0.18    0.13 
  -4  -1   5    0.09    0.09 
   4   1  -5    0.22    0.08 
  -4  -1   4    4.19    0.24 
  -4  -1   4    4.85    0.28 
   4   1  -4    4.01    0.27 
  -4  -1   3  205.91    5.16 
  -4  -1   3  198.45    5.53 
   4   1  -3  201.70    5.57 
  -4  -1   2    0.11    0.03 
  -4  -1   2    0.02    0.05 
   4   1  -2    0.13    0.06 
  -4  -1   1   15.51    0.46 
   4   1  -1   14.86    0.53 
   4   1   0    1.92    0.14 
   4   1   1    5.36    0.25 
   4   1   2    2.84    0.18 
   4   1   3    1.56    0.16 
   4   1   4    4.43    0.27 
   4   1   4    3.98    0.35 
   4   1   5    0.07    0.08 
   4   1   5    0.14    0.13 
   4   1   6    1.16    0.26 
   4   1   7    0.88    0.32 
  -4   0   8   -0.08    0.17 
  -4   0   7    0.09    0.14 
  -4   0   6    2.52    0.28 
  -4   0   6    2.66    0.28 
   4   0  -6    2.78    0.31 
  -4   0   5    0.05    0.10 
  -4   0   5    0.02    0.08 
   4   0  -5    0.07    0.08 
  -4   0   4    1.86    0.16 
  -4   0   4    1.87    0.19 
   4   0  -4    2.00    0.21 
  -4   0   3    0.24    0.09 
   4   0  -3    0.17    0.09 
  -4   0   2    0.97    0.10 
   4   0  -2    0.88    0.12 
  -4   0   1    0.03    0.04 
   4   0  -1   -0.07    0.04 
   4   0   0   35.02    1.05 
   4   0   1    0.03    0.05 
   4   0   1    0.03    0.05 
   4   0   2   18.02    0.65 
   4   0   2   16.87    0.59 
   4   0   3   -0.05    0.06 
   4   0   3    0.01    0.06 
   4   0   4    9.17    0.50 
   4   0   4    9.09    0.41 
   4   0   5   -0.11    0.11 
   4   0   5    0.11    0.08 
   4   0   6    0.44    0.21 
   4   0   7   -0.15    0.21 
  -4   1   8    0.08    0.18 
  -4   1   7    1.61    0.25 
  -4   1   6    0.08    0.12 
  -4   1   6   -0.05    0.11 
   4  -1  -6   -0.03    0.15 
  -4   1   5    0.12    0.09 
  -4   1   5   -0.10    0.10 
   4  -1  -5    0.05    0.07 
  -4   1   4    4.15    0.25 
   4  -1  -4    4.46    0.28 
  -4   1   3  199.47    5.09 
   4  -1  -3  200.72    5.54 
  -4   1   2    0.09    0.05 
   4  -1  -2    0.14    0.07 
  -4   1   1   15.55    0.45 
   4  -1  -1   15.80    0.45 
   4  -1  -1   15.09    0.55 
   4  -1   0    1.63    0.13 
   4  -1   1    5.27    0.25 
   4  -1   1    5.40    0.25 
   4  -1   2    2.86    0.17 
   4  -1   2    2.70    0.20 
   4  -1   3    1.48    0.15 
   4  -1   3    1.29    0.19 
   4  -1   4    4.34    0.25 
   4  -1   4    4.00    0.33 
   4  -1   5   -0.02    0.11 
   4  -1   6    0.93    0.25 
   4  -1   7    1.20    0.32 
  -4   2   8    0.18    0.21 
  -4   2   7   -0.06    0.12 
  -4   2   6    4.26    0.32 
  -4   2   6    4.56    0.33 
   4  -2  -6    4.91    0.39 
  -4   2   5    0.08    0.10 
   4  -2  -5    0.25    0.10 
  -4   2   4    0.34    0.10 
   4  -2  -4    0.12    0.08 
  -4   2   3    0.31    0.08 
   4  -2  -3    0.17    0.09 
  -4   2   2    4.92    0.19 
   4  -2  -2    4.14    0.25 
  -4   2   1   -0.01    0.03 
   4  -2  -1   -0.07    0.03 
   4  -2  -1   -0.03    0.04 
   4  -2   0    2.83    0.17 
   4  -2   0    2.45    0.14 
   4  -2   1    1.53    0.12 
   4  -2   1    1.24    0.13 
   4  -2   2    0.64    0.09 
   4  -2   2    0.67    0.12 
   4  -2   3    0.12    0.09 
   4  -2   3    0.16    0.07 
   4  -2   4    4.50    0.25 
   4  -2   4    4.69    0.35 
   4  -2   5   -0.09    0.10 
   4  -2   6    1.22    0.28 
   4  -2   7    3.30    0.46 
  -4   3   7    0.57    0.18 
   4  -3  -7    0.52    0.23 
  -4   3   6    0.28    0.15 
   4  -3  -6    0.22    0.18 
  -4   3   5    1.54    0.19 
   4  -3  -5    1.39    0.24 
  -4   3   4    6.27    0.30 
   4  -3  -4    6.55    0.38 
  -4   3   3   32.15    0.93 
   4  -3  -3   33.22    1.10 
  -4   3   2    0.03    0.05 
   4  -3  -2    0.01    0.05 
   4  -3  -2    0.04    0.03 
  -4   3   1   15.29    0.44 
   4  -3  -1   15.57    0.56 
   4  -3  -1   15.59    0.48 
   4  -3   0    1.53    0.12 
   4  -3   0    1.32    0.13 
   4  -3   1   12.82    0.44 
   4  -3   1   12.29    0.46 
   4  -3   2   12.86    0.51 
   4  -3   2   11.89    0.44 
   4  -3   3   12.96    0.57 
   4  -3   3   13.04    0.47 
   4  -3   4    1.91    0.26 
   4  -3   4    1.95    0.17 
   4  -3   5   -0.06    0.09 
   4  -3   6    2.69    0.38 
   4  -3   7   -0.39    0.21 
  -4   4   7    0.40    0.16 
   4  -4  -7    0.11    0.18 
  -4   4   6    2.46    0.26 
   4  -4  -6    2.69    0.34 
  -4   4   5   21.90    0.76 
   4  -4  -5   21.57    0.88 
  -4   4   4   20.16    0.66 
   4  -4  -4   20.11    0.80 
  -4   4   3    6.38    0.26 
   4  -4  -3    6.16    0.35 
  -4   4   2   86.05    2.20 
   4  -4  -2   85.76    2.50 
   4  -4  -2   86.87    2.43 
   4  -4  -1    8.54    0.37 
   4  -4   0    8.78    0.35 
   4  -4   0    8.14    0.32 
   4  -4   1    0.10    0.05 
   4  -4   1    0.10    0.07 
   4  -4   2    1.12    0.15 
   4  -4   2    1.38    0.12 
   4  -4   3    1.63    0.14 
   4  -4   3    1.59    0.20 
   4  -4   4    0.27    0.07 
   4  -4   4    0.36    0.15 
   4  -4   5    0.16    0.13 
   4  -4   6    2.24    0.36 
   4  -4   7    0.00    0.24 
   4  -5  -7    0.35    0.23 
  -4   5   6    0.91    0.17 
   4  -5  -6    1.31    0.28 
  -4   5   5   13.18    0.52 
   4  -5  -5   12.61    0.64 
  -4   5   4    8.29    0.36 
   4  -5  -4    8.42    0.46 
  -4   5   3    0.14    0.06 
   4  -5  -3    0.05    0.07 
  -4   5   2   48.08    1.23 
   4  -5  -2   45.53    1.46 
   4  -5  -1   17.99    0.64 
   4  -5  -1   18.08    0.58 
   4  -5   0   11.68    0.43 
   4  -5   0   11.00    0.42 
   4  -5   1    2.81    0.19 
   4  -5   1    2.59    0.16 
   4  -5   2   10.86    0.38 
   4  -5   2    9.84    0.44 
   4  -5   3    2.03    0.14 
   4  -5   3    1.89    0.22 
   4  -5   4    0.05    0.12 
   4  -5   5    2.54    0.31 
   4  -5   6   -0.07    0.18 
   4  -5   7    0.36    0.27 
   4  -6  -7    0.30    0.21 
  -4   6   6    0.35    0.14 
   4  -6  -6    0.10    0.18 
  -4   6   5    5.84    0.31 
   4  -6  -5    5.41    0.41 
  -4   6   4    5.68    0.27 
   4  -6  -4    5.81    0.38 
  -4   6   3    0.69    0.09 
   4  -6  -3    1.03    0.18 
  -4   6   2   63.55    1.62 
   4  -6  -2   64.10    1.92 
   4  -6  -2   62.42    1.85 
   4  -6  -1   14.04    0.54 
   4  -6  -1   13.49    0.48 
   4  -6   0    7.03    0.31 
   4  -6   0    6.88    0.31 
   4  -6   1    9.31    0.41 
   4  -6   1    9.90    0.37 
   4  -6   2   14.84    0.49 
   4  -6   2   13.96    0.57 
   4  -6   3    1.21    0.20 
   4  -6   3    1.02    0.10 
   4  -6   4   -0.06    0.12 
   4  -6   5    2.38    0.31 
   4  -6   6    0.00    0.18 
   4  -6   7    0.03    0.25 
   4  -7  -7    0.25    0.22 
   4  -7  -6    0.96    0.25 
  -4   7   5    1.08    0.15 
   4  -7  -5    1.12    0.25 
  -4   7   4    0.20    0.08 
   4  -7  -4    0.13    0.14 
  -4   7   3    0.24    0.06 
   4  -7  -3    0.15    0.09 
  -4   7   2   12.59    0.35 
   4  -7  -2   11.87    0.53 
   4  -7  -2   12.74    0.48 
   4  -7  -1    0.07    0.06 
   4  -7  -1    0.13    0.08 
   4  -7   0   -0.03    0.05 
   4  -7   0    0.03    0.07 
   4  -7   1    9.92    0.38 
   4  -7   1    9.96    0.43 
   4  -7   2    2.39    0.23 
   4  -7   2    2.88    0.16 
   4  -7   3    0.51    0.07 
   4  -7   3    0.60    0.18 
   4  -7   4    2.48    0.29 
   4  -7   5   10.72    0.61 
   4  -7   6    0.51    0.24 
   4  -7   7    0.37    0.29 
   4  -8  -7    0.18    0.23 
   4  -8  -6   -0.10    0.16 
   4  -8  -5    0.72    0.23 
  -4   8   4   26.51    0.79 
   4  -8  -4   27.66    1.05 
  -4   8   3   10.68    0.33 
   4  -8  -3   10.30    0.52 
   4  -8  -3   10.52    0.47 
   4  -8  -2    1.82    0.21 
   4  -8  -2    1.50    0.16 
   4  -8  -1   14.40    0.53 
   4  -8  -1   14.06    0.57 
   4  -8   0    0.70    0.13 
   4  -8   0    0.76    0.12 
   4  -8   1   14.17    0.51 
   4  -8   1   14.62    0.57 
   4  -8   2    0.69    0.16 
   4  -8   2    0.82    0.09 
   4  -8   3    0.65    0.17 
   4  -8   4    0.62    0.20 
   4  -8   5    0.74    0.23 
   4  -8   6    0.46    0.25 
   4  -8   7    0.19    0.28 
   4  -9  -7    0.17    0.23 
   4  -9  -6    0.38    0.21 
   4  -9  -5    0.39    0.20 
   4  -9  -4   32.26    1.21 
  -4   9   3    1.00    0.08 
   4  -9  -3    0.80    0.17 
   4  -9  -3    0.84    0.15 
   4  -9  -2   38.53    1.21 
   4  -9  -2   36.56    1.26 
   4  -9  -1    6.69    0.32 
   4  -9  -1    7.13    0.36 
   4  -9   0    9.38    0.41 
   4  -9   0    8.82    0.39 
   4  -9   1    7.39    0.38 
   4  -9   1    7.18    0.31 
   4  -9   2    0.28    0.06 
   4  -9   2    0.19    0.14 
   4  -9   3    0.74    0.19 
   4  -9   4    0.19    0.16 
   4  -9   5    1.02    0.27 
   4  -9   6    0.09    0.22 
   4  -9   7    0.27    0.30 
   4 -10  -7    0.05    0.21 
   4 -10  -6    0.48    0.24 
   4 -10  -5    3.80    0.42 
   4 -10  -4   37.01    1.36 
   4 -10  -3   17.16    0.69 
   4 -10  -3   15.92    0.72 
   4 -10  -2    5.87    0.36 
   4 -10  -2    6.20    0.33 
   4 -10  -1    8.06    0.38 
   4 -10  -1    8.60    0.42 
   4 -10   0    0.23    0.08 
   4 -10   0    0.00    0.09 
   4 -10   1    4.62    0.32 
   4 -10   1    4.48    0.24 
   4 -10   2    6.51    0.27 
   4 -10   2    6.66    0.40 
   4 -10   3    2.13    0.28 
   4 -10   4    0.04    0.15 
   4 -10   5    0.20    0.20 
   4 -10   6    3.31    0.42 
   4 -10   7   -0.01    0.27 
  -4  11   7    0.02    0.23 
   4 -11  -6    0.15    0.21 
   4 -11  -5    1.02    0.26 
   4 -11  -4   10.36    0.61 
   4 -11  -3    2.37    0.29 
   4 -11  -3    2.34    0.24 
   4 -11  -2    4.29    0.27 
   4 -11  -2    3.66    0.29 
   4 -11  -1    6.11    0.35 
   4 -11  -1    6.00    0.32 
   4 -11   0   -0.06    0.08 
   4 -11   0    0.24    0.09 
   4 -11   1    0.21    0.14 
   4 -11   1    0.27    0.08 
   4 -11   2    2.28    0.14 
   4 -11   2    1.78    0.25 
   4 -11   3    3.56    0.34 
   4 -11   4    0.23    0.19 
   4 -11   5    1.18    0.27 
   4 -11   6    1.47    0.34 
  -4  12   7    0.07    0.24 
   4 -12  -6   -0.02    0.19 
   4 -12  -5    0.12    0.19 
   4 -12  -4    0.21    0.18 
   4 -12  -3    4.46    0.39 
   4 -12  -3    3.41    0.31 
   4 -12  -2    2.33    0.23 
   4 -12  -2    1.74    0.24 
   4 -12  -1   -0.02    0.08 
   4 -12  -1    0.01    0.07 
   4 -12   0    0.41    0.11 
   4 -12   0    0.31    0.13 
   4 -12   1    4.56    0.33 
   4 -12   1    4.26    0.25 
   4 -12   2    0.32    0.19 
   4 -12   3    0.86    0.23 
   4 -12   4    0.28    0.21 
   4 -12   5    2.28    0.35 
   4 -12   6    2.47    0.41 
  -4  13   7   -0.10    0.25 
   4 -13  -6    0.18    0.23 
   4 -13  -5    0.33    0.21 
   4 -13  -4    3.58    0.40 
   4 -13  -3   22.69    0.91 
   4 -13  -3   22.43    0.95 
   4 -13  -2    4.55    0.35 
   4 -13  -2    4.22    0.30 
   4 -13  -1    0.00    0.08 
   4 -13  -1    0.07    0.09 
   4 -13   0    0.18    0.09 
   4 -13   0    0.01    0.10 
   4 -13   1    0.48    0.11 
   4 -13   1    0.40    0.19 
   4 -13   2    2.57    0.32 
   4 -13   3    0.81    0.24 
   4 -13   4    0.53    0.23 
   4 -13   5   -0.15    0.19 
   4 -13   6   -0.07    0.25 
  -4  14   7   -0.35    0.23 
   4 -14  -6    0.10    0.23 
   4 -14  -5    0.12    0.19 
   4 -14  -4   -0.15    0.11 
   4 -14  -3   99.26    3.07 
   4 -14  -3   99.09    3.02 
   4 -14  -2    2.18    0.25 
   4 -14  -2    1.54    0.25 
   4 -14  -1    0.07    0.10 
   4 -14  -1    0.13    0.14 
   4 -14   0    0.34    0.16 
   4 -14   0    0.36    0.11 
   4 -14   1   -0.17    0.16 
   4 -14   1    0.07    0.07 
   4 -14   2    0.86    0.25 
   4 -14   3    1.25    0.27 
   4 -14   4    0.59    0.24 
   4 -14   5    1.10    0.30 
   4 -14   6    0.24    0.28 
   4 -15  -6   -0.15    0.21 
   4 -15  -5    0.67    0.26 
   4 -15  -4    0.12    0.14 
   4 -15  -3    7.95    0.50 
   4 -15  -3    8.24    0.53 
   4 -15  -2    0.72    0.19 
   4 -15  -2    0.87    0.20 
   4 -15  -1   -0.02    0.10 
   4 -15  -1    0.07    0.09 
   4 -15   0    0.61    0.14 
   4 -15   0    0.46    0.17 
   4 -15   1    1.81    0.28 
   4 -15   1    2.40    0.21 
   4 -15   2    0.82    0.23 
   4 -15   3    0.32    0.22 
   4 -15   4    2.61    0.38 
   4 -15   5    0.34    0.26 
   4 -15   6    0.15    0.29 
  -4  16   6   -0.01    0.21 
   4 -16  -5   -0.08    0.18 
   4 -16  -4    0.96    0.25 
   4 -16  -4    1.01    0.27 
   4 -16  -3    0.04    0.14 
   4 -16  -3    0.09    0.14 
   4 -16  -2    0.37    0.16 
   4 -16  -2    0.39    0.16 
   4 -16  -1    0.53    0.17 
   4 -16  -1    0.59    0.16 
   4 -16   0    2.08    0.24 
   4 -16   0    1.87    0.27 
   4 -16   1    0.00    0.16 
   4 -16   2   -0.03    0.18 
   4 -16   3    0.28    0.20 
   4 -16   4    4.75    0.46 
   4 -16   5    0.49    0.28 
   4 -16   6    1.45    0.40 
  -4  17   6   -0.25    0.19 
   4 -17  -5    0.13    0.24 
   4 -17  -4    2.58    0.38 
   4 -17  -4    1.99    0.33 
   4 -17  -3    0.16    0.16 
   4 -17  -3    0.04    0.15 
   4 -17  -2    3.25    0.34 
   4 -17  -2    3.77    0.38 
   4 -17  -1    0.50    0.16 
   4 -17  -1    0.51    0.18 
   4 -17   0    0.76    0.21 
   4 -17   0    0.49    0.15 
   4 -17   1    0.34    0.19 
   4 -17   2    0.99    0.26 
   4 -17   3    0.75    0.26 
   4 -17   4    1.28    0.32 
   4 -17   5    0.50    0.30 
  -4  18   6   -0.02    0.24 
  -4  18   5    0.47    0.26 
   4 -18  -5    0.59    0.28 
   4 -18  -4    0.05    0.17 
   4 -18  -4    0.39    0.22 
   4 -18  -3    9.43    0.59 
   4 -18  -3    9.78    0.61 
   4 -18  -2   10.40    0.59 
   4 -18  -2    9.98    0.59 
   4 -18  -1   -0.09    0.10 
   4 -18  -1    0.03    0.12 
   4 -18   0    1.60    0.27 
   4 -18   0    1.16    0.20 
   4 -18   1    0.85    0.23 
   4 -18   2    0.39    0.20 
   4 -18   3    1.16    0.30 
   4 -18   4   -0.02    0.24 
   4 -18   5   -0.05    0.28 
  -4  19   5    0.40    0.25 
   4 -19  -4    0.90    0.26 
   4 -19  -4    1.28    0.31 
   4 -19  -3    0.92    0.26 
   4 -19  -3    0.93    0.24 
   4 -19  -2   16.15    0.78 
   4 -19  -2   14.18    0.74 
   4 -19  -1    1.84    0.30 
   4 -19  -1    2.16    0.30 
   4 -19   0   -0.05    0.12 
   4 -19   0    0.06    0.15 
   4 -19   1    0.00    0.18 
   4 -19   2    1.44    0.31 
   4 -19   3    0.31    0.25 
   4 -19   4    0.32    0.25 
   4 -19   5    0.77    0.35 
  -4  20   5    0.39    0.21 
  -4  20   4    0.17    0.21 
   4 -20  -4    0.11    0.19 
   4 -20  -3    1.23    0.30 
   4 -20  -3    0.89    0.24 
   4 -20  -2    1.18    0.26 
   4 -20  -2    0.87    0.26 
   4 -20  -1    0.61    0.18 
   4 -20  -1    0.31    0.20 
   4 -20   0    0.50    0.20 
   4 -20   1    0.76    0.23 
   4 -20   2    1.23    0.30 
   4 -20   3    0.33    0.24 
   4 -20   4    0.36    0.26 
  -4  21   5    0.22    0.20 
  -4  21   4    0.10    0.20 
   4 -21  -4    0.07    0.21 
  -4  21   3    0.07    0.21 
   4 -21  -3   -0.10    0.18 
   4 -21  -2    0.15    0.16 
   4 -21  -2   -0.07    0.16 
  -4  21   1    0.56    0.21 
   4 -21  -1    0.45    0.22 
   4 -21   0    0.55    0.21 
   4 -21   1    1.06    0.27 
   4 -21   2    0.24    0.21 
   4 -21   3    0.10    0.23 
   4 -21   4    0.40    0.29 
  -4  22   4    0.45    0.23 
   4 -22  -4    0.23    0.20 
  -4  22   3    0.14    0.21 
   4 -22  -3   -0.11    0.17 
  -4  22   2   -0.28    0.15 
   4 -22  -2   -0.07    0.17 
   4 -22  -1    7.72    0.56 
   4 -22   0    0.25    0.19 
   4 -22   1    2.23    0.36 
   4 -22   2    0.37    0.24 
   4 -22   3    0.33    0.27 
   4 -22   4    0.02    0.28 
  -4  23   4    1.79    0.36 
   4 -23  -4    2.09    0.38 
  -4  23   3    0.33    0.23 
   4 -23  -3    0.16    0.19 
  -4  23   2    3.38    0.42 
   4 -23  -2    3.96    0.46 
   4 -23  -1    0.63    0.24 
   4 -23   0    1.26    0.28 
   4 -23   1    0.61    0.22 
   4 -23   2    0.14    0.25 
   4 -23   3    0.31    0.25 
  -4  24   3    0.48    0.23 
   4 -24  -3    0.27    0.22 
  -4  24   2    0.46    0.24 
   4 -24  -2    0.59    0.25 
   4 -24  -1    3.33    0.43 
   4 -24   0    0.40    0.20 
   4 -24   1    0.45    0.22 
   4 -24   2    0.36    0.27 
   4 -24   3    0.27    0.27 
  -4  25   3    0.02    0.19 
   4 -25  -3    0.17    0.19 
  -4  25   2   -0.02    0.20 
   4 -25  -2    0.26    0.19 
   4 -25  -1    0.23    0.19 
   4 -25   0    0.09    0.16 
   4 -25   1    0.53    0.21 
   4 -25   2    0.07    0.23 
   4 -26  -2    2.16    0.38 
   4 -26  -1    0.30    0.17 
   4 -26   0    0.30    0.18 
   4 -26   1    0.57    0.22 
  -5 -26   1    0.15    0.32 
  -5 -26   0    0.18    0.29 
  -5 -25   2    1.79    0.40 
  -5 -25   1    5.59    0.59 
  -5 -25   0    0.22    0.27 
  -5 -25  -1   -0.24    0.27 
   5  25   1    0.02    0.15 
  -5 -24   2    0.66    0.27 
  -5 -24   1    3.44    0.47 
  -5 -24   0   -0.04    0.23 
  -5 -24  -1    0.05    0.24 
   5  24   1    0.15    0.16 
   5  24   2    0.26    0.18 
  -5 -23   3    0.09    0.23 
  -5 -23   2    0.27    0.21 
  -5 -23   1    1.82    0.36 
  -5 -23   0   -0.27    0.18 
   5  23   0   -0.05    0.14 
  -5 -23  -1    0.04    0.25 
   5  23   1    0.22    0.17 
   5  23   2    0.84    0.23 
   5  23   3    0.14    0.16 
  -5 -22   4    0.07    0.18 
  -5 -22   3   -0.03    0.18 
  -5 -22   2    0.24    0.18 
  -5 -22   1    5.75    0.51 
  -5 -22   0    0.04    0.20 
   5  22   0    0.44    0.17 
  -5 -22  -1    1.53    0.33 
   5  22   1    1.96    0.31 
   5  22   2    0.03    0.15 
   5  22   3    0.07    0.16 
  -5 -21   5    0.07    0.18 
  -5 -21   4    0.19    0.18 
  -5 -21   3    0.52    0.20 
  -5 -21   3    0.45    0.18 
  -5 -21   2    3.73    0.40 
  -5 -21   1   22.86    1.02 
  -5 -21   0    0.87    0.25 
   5  21   0    0.48    0.17 
  -5 -21  -1    0.19    0.20 
   5  21   1   -0.06    0.13 
   5  21   2    0.21    0.16 
   5  21   3    0.33    0.17 
   5  21   4    0.53    0.20 
  -5 -20   5    0.47    0.21 
  -5 -20   4   -0.04    0.15 
  -5 -20   3    0.32    0.17 
  -5 -20   3    0.30    0.16 
  -5 -20   2    7.11    0.39 
  -5 -20   2    6.31    0.46 
  -5 -20   1    1.60    0.28 
   5  20  -1    1.63    0.25 
  -5 -20   0    0.17    0.18 
   5  20   0    0.09    0.13 
  -5 -20  -1    1.88    0.32 
   5  20   1    1.62    0.27 
   5  20   2    1.13    0.26 
   5  20   3    0.10    0.15 
   5  20   4    0.66    0.22 
  -5 -19   5   -0.17    0.17 
  -5 -19   4    0.63    0.21 
  -5 -19   3   -0.03    0.13 
  -5 -19   3    0.05    0.14 
  -5 -19   2   12.66    0.53 
  -5 -19   2   10.76    0.60 
  -5 -19   1    0.21    0.12 
  -5 -19   1   -0.07    0.14 
   5  19  -1    0.23    0.14 
  -5 -19   0    3.06    0.36 
   5  19   0    3.35    0.32 
  -5 -19  -1    0.43    0.19 
   5  19   1    0.25    0.14 
   5  19   2    0.47    0.19 
   5  19   3   -0.15    0.14 
   5  19   4   -0.09    0.14 
  -5 -18   6    0.07    0.17 
  -5 -18   5    0.16    0.19 
  -5 -18   4   -0.12    0.15 
  -5 -18   3    0.19    0.15 
  -5 -18   3    0.15    0.15 
  -5 -18   2    2.56    0.31 
  -5 -18   2    3.02    0.26 
  -5 -18   1    0.19    0.15 
  -5 -18   1    0.25    0.12 
   5  18  -1    0.38    0.14 
  -5 -18   0    7.56    0.49 
  -5 -18   0    7.41    0.33 
   5  18   0    7.13    0.43 
  -5 -18  -1    0.28    0.17 
   5  18   1    0.18    0.13 
   5  18   2    0.46    0.17 
   5  18   3    0.01    0.14 
   5  18   4    0.24    0.19 
   5  18   5    0.09    0.26 
  -5 -17   6   -0.13    0.16 
  -5 -17   5    0.09    0.18 
  -5 -17   4    0.87    0.22 
  -5 -17   4    0.68    0.20 
  -5 -17   3    2.88    0.30 
  -5 -17   3    3.16    0.29 
  -5 -17   2    3.12    0.26 
  -5 -17   2    2.89    0.31 
  -5 -17   1    2.77    0.30 
  -5 -17   1    2.36    0.21 
   5  17  -1    2.43    0.25 
  -5 -17   0   15.73    0.74 
  -5 -17   0   15.78    0.55 
   5  17   0   15.67    0.68 
  -5 -17  -1    0.90    0.23 
   5  17   1    0.84    0.20 
   5  17   2   -0.01    0.12 
   5  17   3    0.10    0.15 
   5  17   4    0.02    0.20 
   5  17   5   -0.01    0.22 
  -5 -16   6    0.18    0.20 
  -5 -16   5    0.34    0.20 
  -5 -16   4    1.11    0.22 
  -5 -16   4    1.75    0.26 
  -5 -16   3    1.29    0.22 
  -5 -16   3    1.68    0.24 
  -5 -16   2    9.91    0.44 
  -5 -16   2   10.04    0.51 
   5  16  -2    9.35    0.44 
  -5 -16   1    0.30    0.14 
  -5 -16   1    0.28    0.11 
   5  16  -1    0.56    0.12 
  -5 -16   0   11.29    0.58 
  -5 -16   0   11.32    0.43 
   5  16   0   11.15    0.54 
  -5 -16  -1    1.65    0.27 
   5  16   1    0.94    0.19 
   5  16   2    0.16    0.13 
   5  16   3    0.05    0.13 
   5  16   4    0.21    0.19 
   5  16   5   -0.09    0.19 
  -5 -15   6   -0.33    0.16 
  -5 -15   5    1.32    0.26 
  -5 -15   4    0.64    0.18 
  -5 -15   4    0.63    0.18 
  -5 -15   3   16.05    0.69 
  -5 -15   3   16.72    0.65 
  -5 -15   2    0.84    0.19 
  -5 -15   2    0.80    0.16 
   5  15  -2    0.31    0.08 
  -5 -15   1    4.04    0.31 
  -5 -15   1    4.71    0.25 
   5  15  -1    4.76    0.29 
  -5 -15   0   -0.03    0.10 
  -5 -15   0    0.10    0.06 
   5  15   0    0.06    0.11 
  -5 -15  -1    0.59    0.18 
   5  15   1    0.63    0.17 
   5  15   2    0.11    0.13 
   5  15   3    0.19    0.14 
   5  15   4    0.24    0.19 
   5  15   5    0.76    0.25 
  -5 -14   7    0.33    0.19 
  -5 -14   6   -0.20    0.15 
  -5 -14   5    1.33    0.26 
  -5 -14   4    0.38    0.16 
  -5 -14   4    0.33    0.16 
  -5 -14   3    0.67    0.17 
  -5 -14   3    0.66    0.19 
  -5 -14   2    2.42    0.22 
  -5 -14   2    3.09    0.27 
  -5 -14   1    2.62    0.26 
  -5 -14   1    2.50    0.18 
   5  14  -1    2.60    0.21 
  -5 -14   0    0.63    0.16 
  -5 -14   0    0.46    0.10 
   5  14   0    0.47    0.13 
  -5 -14  -1    2.96    0.31 
   5  14   2    0.65    0.17 
   5  14   3    0.37    0.16 
   5  14   4    0.03    0.13 
   5  14   5    0.70    0.24 
   5  14   6    0.48    0.27 
  -5 -13   7    0.21    0.18 
  -5 -13   6   -0.05    0.16 
  -5 -13   5    0.08    0.17 
  -5 -13   4    1.36    0.23 
  -5 -13   4    1.59    0.22 
  -5 -13   3    0.12    0.13 
  -5 -13   3   -0.09    0.14 
  -5 -13   2    1.00    0.17 
  -5 -13   2    0.93    0.16 
  -5 -13   1    5.77    0.34 
  -5 -13   1    5.34    0.26 
   5  13  -1    5.10    0.30 
  -5 -13   0    0.45    0.15 
  -5 -13   0    0.59    0.10 
   5  13   0    0.52    0.12 
   5  13   2    0.37    0.15 
   5  13   3   -0.03    0.11 
   5  13   4    0.13    0.14 
   5  13   5    0.08    0.16 
   5  13   6    0.02    0.20 
  -5 -12   7    0.04    0.16 
  -5 -12   6    0.13    0.17 
  -5 -12   5    0.12    0.16 
  -5 -12   4    0.00    0.14 
  -5 -12   4    0.02    0.12 
  -5 -12   3    3.81    0.28 
  -5 -12   3    3.88    0.29 
   5  12  -3    3.92    0.23 
  -5 -12   2   22.85    0.80 
  -5 -12   2   22.72    0.74 
  -5 -12   1    0.60    0.14 
  -5 -12   1    0.56    0.11 
   5  12  -1    0.91    0.14 
  -5 -12   0   -0.03    0.05 
  -5 -12   0   -0.11    0.08 
   5  12   0    0.17    0.08 
   5  12   2   -0.03    0.09 
   5  12   3    0.05    0.12 
   5  12   4   -0.09    0.12 
   5  12   5   -0.16    0.13 
   5  12   6    0.08    0.20 
  -5 -11   7   -0.04    0.19 
  -5 -11   6    0.09    0.17 
  -5 -11   5    0.31    0.18 
  -5 -11   4   -0.10    0.13 
  -5 -11   4    0.02    0.13 
  -5 -11   3    1.19    0.17 
  -5 -11   3    0.89    0.18 
   5  11  -3    1.15    0.14 
  -5 -11   2   19.66    0.64 
  -5 -11   2   20.74    0.69 
   5  11  -2   16.24    0.66 
  -5 -11   1    7.48    0.37 
  -5 -11   1    7.38    0.32 
   5  11  -1    7.98    0.37 
  -5 -11   0    3.62    0.26 
  -5 -11   0    3.34    0.19 
   5  11   0    3.78    0.25 
   5  11   1    5.24    0.32 
   5  11   2    2.00    0.24 
   5  11   3    0.21    0.13 
   5  11   4    1.14    0.23 
   5  11   5    0.07    0.16 
   5  11   6    0.49    0.23 
  -5 -10   7   -0.14    0.18 
  -5 -10   6    0.64    0.21 
  -5 -10   5   -0.23    0.13 
  -5 -10   4    1.39    0.23 
  -5 -10   4    1.79    0.22 
  -5 -10   3    0.08    0.10 
  -5 -10   3    0.17    0.13 
   5  10  -3    0.10    0.06 
  -5 -10   2    0.00    0.08 
  -5 -10   2    0.09    0.08 
   5  10  -2    0.05    0.06 
  -5 -10   1    9.36    0.35 
  -5 -10   1    8.79    0.40 
   5  10  -1    8.57    0.39 
  -5 -10   0    1.33    0.13 
  -5 -10   0    1.40    0.18 
   5  10   0    1.29    0.16 
   5  10   1    0.12    0.07 
   5  10   2    7.60    0.42 
   5  10   3    0.31    0.13 
   5  10   4    0.50    0.17 
   5  10   5    0.15    0.16 
   5  10   6    0.09    0.17 
  -5  -9   7   -0.01    0.17 
  -5  -9   6    0.29    0.18 
  -5  -9   5    1.05    0.21 
  -5  -9   4    0.08    0.15 
  -5  -9   4    0.34    0.15 
   5   9  -4    0.39    0.08 
  -5  -9   3    1.77    0.17 
  -5  -9   3    1.57    0.19 
   5   9  -3    1.58    0.16 
  -5  -9   2    1.49    0.15 
  -5  -9   2    2.00    0.16 
   5   9  -2    1.71    0.16 
  -5  -9   1    0.75    0.11 
  -5  -9   1    0.85    0.13 
   5   9  -1    0.72    0.12 
  -5  -9   0    1.57    0.18 
  -5  -9   0    1.65    0.14 
   5   9   0    1.62    0.17 
   5   9   1    0.69    0.13 
   5   9   2   13.13    0.58 
   5   9   3    0.76    0.18 
   5   9   4    0.66    0.18 
   5   9   5    0.10    0.16 
   5   9   6    0.81    0.24 
  -5  -8   7   -0.06    0.19 
  -5  -8   6   -0.29    0.13 
  -5  -8   5   -0.01    0.13 
  -5  -8   4    0.49    0.18 
  -5  -8   4    0.66    0.16 
   5   8  -4    0.83    0.13 
  -5  -8   3    0.30    0.11 
  -5  -8   3    0.26    0.11 
   5   8  -3    0.28    0.09 
  -5  -8   2    1.71    0.14 
  -5  -8   2    1.40    0.15 
   5   8  -2    1.56    0.16 
  -5  -8   1   13.87    0.51 
  -5  -8   1   13.96    0.47 
   5   8  -1   13.85    0.53 
  -5  -8   0    2.12    0.19 
  -5  -8   0    2.17    0.14 
   5   8   0    2.29    0.19 
   5   8   1   12.29    0.51 
   5   8   2    1.51    0.20 
   5   8   3    1.03    0.19 
   5   8   4    0.09    0.12 
   5   8   5    1.95    0.29 
   5   8   6    0.13    0.18 
  -5  -7   8   -0.27    0.19 
  -5  -7   7   -0.04    0.16 
  -5  -7   6    0.17    0.15 
  -5  -7   5    1.05    0.21 
  -5  -7   4    3.26    0.28 
  -5  -7   4    3.34    0.25 
   5   7  -4    2.80    0.21 
  -5  -7   3    0.43    0.11 
  -5  -7   3    0.43    0.11 
   5   7  -3    0.34    0.09 
  -5  -7   2    0.32    0.07 
  -5  -7   2    0.30    0.08 
   5   7  -2    0.18    0.07 
  -5  -7   1  211.63    5.39 
  -5  -7   1  212.01    5.84 
   5   7  -1  214.26    5.85 
  -5  -7   0    0.11    0.05 
   5   7   0    0.11    0.06 
   5   7   1    3.79    0.24 
   5   7   2    0.62    0.13 
   5   7   3    0.01    0.10 
   5   7   4    1.59    0.24 
   5   7   5   -0.15    0.11 
   5   7   6   -0.05    0.15 
   5   7   7    0.11    0.23 
  -5  -6   8   -0.27    0.20 
  -5  -6   7    0.06    0.17 
  -5  -6   6   -0.03    0.14 
  -5  -6   5    0.17    0.15 
  -5  -6   5    0.45    0.14 
  -5  -6   4   -0.09    0.10 
  -5  -6   4   -0.09    0.11 
   5   6  -4    0.12    0.07 
  -5  -6   3    3.39    0.23 
  -5  -6   3    3.12    0.20 
  -5  -6   2    5.14    0.25 
  -5  -6   2    5.08    0.21 
   5   6  -2    4.40    0.25 
  -5  -6   1    0.77    0.10 
  -5  -6   1    0.84    0.10 
   5   6  -1    0.72    0.12 
  -5  -6   0    1.72    0.13 
   5   6   0    1.53    0.16 
   5   6   1   10.17    0.44 
   5   6   2    0.32    0.11 
   5   6   3    1.07    0.18 
   5   6   4    0.39    0.14 
   5   6   5    0.83    0.20 
   5   6   6    1.38    0.26 
   5   6   7    0.06    0.23 
  -5  -5   8   -0.07    0.21 
  -5  -5   7   -0.04    0.16 
  -5  -5   6   -0.01    0.14 
  -5  -5   5    0.69    0.19 
  -5  -5   5    1.06    0.16 
   5   5  -5    1.03    0.15 
  -5  -5   4    0.49    0.12 
  -5  -5   4    0.22    0.13 
   5   5  -4    0.43    0.10 
  -5  -5   3    0.66    0.13 
  -5  -5   3    0.82    0.11 
   5   5  -3    0.77    0.12 
  -5  -5   2   27.59    0.81 
  -5  -5   2   27.23    0.82 
   5   5  -2   27.52    0.90 
  -5  -5   1    0.14    0.05 
  -5  -5   1    0.09    0.06 
   5   5  -1    0.21    0.08 
  -5  -5   0   27.19    0.79 
   5   5   0   26.70    0.88 
   5   5   1    0.22    0.08 
   5   5   2    0.58    0.12 
   5   5   3    2.45    0.24 
   5   5   4    0.54    0.15 
   5   5   5    0.51    0.17 
   5   5   6    0.17    0.16 
   5   5   6    0.77    0.25 
   5   5   7   -0.16    0.22 
  -5  -4   8    0.00    0.20 
  -5  -4   7    0.01    0.16 
  -5  -4   6    0.75    0.20 
  -5  -4   5    1.60    0.19 
  -5  -4   5    1.39    0.23 
   5   4  -5    1.41    0.18 
  -5  -4   4    3.41    0.21 
  -5  -4   4    3.14    0.26 
  -5  -4   3    0.99    0.15 
  -5  -4   3    0.90    0.10 
   5   4  -3    0.85    0.13 
  -5  -4   2    5.74    0.26 
  -5  -4   2    5.70    0.20 
   5   4  -2    5.55    0.29 
  -5  -4   1    9.56    0.33 
   5   4  -1    9.05    0.38 
   5   4   0   40.84    1.25 
   5   4   1    0.84    0.13 
   5   4   2    0.69    0.12 
   5   4   3    4.71    0.30 
   5   4   4    0.03    0.10 
   5   4   5    0.91    0.19 
   5   4   6   -0.06    0.16 
   5   4   7   -0.16    0.22 
  -5  -3   8    0.28    0.22 
  -5  -3   7    0.25    0.17 
  -5  -3   6   -0.10    0.13 
  -5  -3   5   -0.01    0.12 
  -5  -3   5    0.08    0.09 
   5   3  -5   -0.01    0.05 
  -5  -3   4    0.77    0.15 
  -5  -3   4    1.02    0.12 
   5   3  -4    0.83    0.14 
  -5  -3   3   15.88    0.54 
  -5  -3   3   14.71    0.48 
   5   3  -3   14.52    0.57 
  -5  -3   2   21.31    0.65 
   5   3  -2   21.56    0.74 
  -5  -3   1    1.62    0.12 
   5   3  -1    1.76    0.15 
   5   3   0   50.77    1.51 
   5   3   1   25.41    0.84 
   5   3   2    6.26    0.32 
   5   3   3    0.03    0.07 
   5   3   4    0.45    0.13 
   5   3   5    0.81    0.22 
   5   3   5    0.75    0.17 
   5   3   6   -0.07    0.14 
   5   3   7   -0.14    0.21 
  -5  -2   8    0.18    0.22 
  -5  -2   7    0.84    0.23 
  -5  -2   6   -0.11    0.12 
  -5  -2   5    1.03    0.15 
  -5  -2   5    0.89    0.18 
   5   2  -5    1.23    0.17 
  -5  -2   4    2.22    0.16 
  -5  -2   4    2.40    0.22 
   5   2  -4    2.27    0.22 
  -5  -2   3   21.59    0.64 
  -5  -2   3   20.77    0.68 
   5   2  -3   20.23    0.75 
  -5  -2   2   81.38    2.17 
   5   2  -2   84.29    2.40 
  -5  -2   1    4.67    0.20 
   5   2  -1    4.85    0.25 
   5   2   0   46.45    1.39 
   5   2   1   -0.03    0.05 
   5   2   2    1.18    0.15 
   5   2   3    1.11    0.16 
   5   2   4    0.16    0.08 
   5   2   4    0.03    0.14 
   5   2   5    0.57    0.16 
   5   2   5    0.34    0.17 
   5   2   6   -0.05    0.15 
   5   2   7    0.78    0.31 
  -5  -1   8    0.10    0.21 
  -5  -1   7    0.14    0.17 
  -5  -1   6    0.07    0.14 
   5   1  -6    0.08    0.13 
  -5  -1   5    0.73    0.16 
  -5  -1   5    0.69    0.13 
   5   1  -5    0.67    0.14 
  -5  -1   4    3.16    0.24 
  -5  -1   4    3.15    0.19 
   5   1  -4    2.97    0.25 
  -5  -1   3    4.28    0.24 
  -5  -1   3    4.41    0.18 
   5   1  -3    4.00    0.26 
  -5  -1   2   32.05    0.90 
   5   1  -2   31.95    1.03 
  -5  -1   1    9.63    0.34 
   5   1  -1    9.74    0.40 
   5   1  -1   10.32    0.30 
   5   1   0    1.18    0.10 
   5   1   1   15.91    0.57 
   5   1   2    1.12    0.14 
   5   1   3    1.25    0.19 
   5   1   3    1.54    0.17 
   5   1   4    0.41    0.12 
   5   1   4    0.33    0.16 
   5   1   5    0.03    0.12 
   5   1   5    0.08    0.13 
   5   1   6    0.06    0.17 
   5   1   7    1.11    0.33 
  -5   0   8    0.10    0.20 
  -5   0   7   -0.22    0.14 
  -5   0   6    1.33    0.24 
   5   0  -6    1.24    0.24 
  -5   0   5    0.05    0.08 
  -5   0   5   -0.04    0.09 
   5   0  -5    0.07    0.08 
  -5   0   4    1.51    0.18 
  -5   0   4    1.76    0.14 
   5   0  -4    1.61    0.20 
  -5   0   3   -0.03    0.04 
  -5   0   3   -0.05    0.07 
   5   0  -3    0.03    0.07 
  -5   0   2    0.52    0.08 
   5   0  -2    0.39    0.10 
  -5   0   1   -0.09    0.04 
   5   0  -1   -0.06    0.03 
   5   0  -1   -0.04    0.05 
   5   0   0   17.80    0.62 
   5   0   1    0.08    0.06 
   5   0   1   -0.05    0.04 
   5   0   2    3.36    0.23 
   5   0   2    3.47    0.21 
   5   0   3    0.01    0.06 
   5   0   3    0.01    0.08 
   5   0   4    0.30    0.11 
   5   0   4    0.29    0.16 
   5   0   5   -0.10    0.11 
   5   0   5    0.01    0.08 
   5   0   6    0.30    0.20 
   5   0   7   -0.18    0.23 
  -5   1   8    0.06    0.19 
  -5   1   7   -0.03    0.13 
  -5   1   6   -0.08    0.13 
   5  -1  -6   -0.01    0.14 
  -5   1   5    0.55    0.15 
  -5   1   5    0.79    0.14 
   5  -1  -5    0.50    0.13 
  -5   1   4    3.30    0.23 
   5  -1  -4    3.12    0.27 
  -5   1   3    3.98    0.22 
   5  -1  -3    4.11    0.26 
  -5   1   2   32.91    0.91 
   5  -1  -2   32.97    1.07 
  -5   1   1    9.60    0.32 
   5  -1  -1    8.91    0.40 
   5  -1  -1   10.11    0.31 
   5  -1   0    2.03    0.16 
   5  -1   1   17.62    0.62 
   5  -1   1   17.84    0.62 
   5  -1   2    1.22    0.16 
   5  -1   2    1.24    0.14 
   5  -1   3    1.56    0.16 
   5  -1   3    1.56    0.21 
   5  -1   4    0.96    0.14 
   5  -1   4    0.35    0.18 
   5  -1   5   -0.04    0.11 
   5  -1   6    0.32    0.22 
   5  -1   7    1.36    0.36 
  -5   2   8   -0.11    0.18 
  -5   2   7    0.72    0.20 
  -5   2   6   -0.02    0.12 
   5  -2  -6    0.00    0.14 
  -5   2   5    0.80    0.16 
   5  -2  -5    1.06    0.22 
  -5   2   4    2.49    0.20 
   5  -2  -4    2.18    0.24 
  -5   2   3   20.50    0.63 
   5  -2  -3   20.43    0.77 
  -5   2   2   84.78    2.18 
   5  -2  -2   83.70    2.45 
  -5   2   1    4.66    0.19 
   5  -2  -1    4.82    0.27 
   5  -2  -1    4.88    0.19 
   5  -2   0   34.14    1.12 
   5  -2   0   43.46    1.19 
   5  -2   1    0.08    0.06 
   5  -2   1   -0.01    0.05 
   5  -2   2    1.39    0.17 
   5  -2   2    1.73    0.16 
   5  -2   3    1.83    0.22 
   5  -2   3    1.71    0.16 
   5  -2   4    0.05    0.08 
   5  -2   4    0.10    0.15 
   5  -2   5    0.64    0.19 
   5  -2   6   -0.19    0.14 
   5  -2   7    0.53    0.28 
  -5   3   7    0.35    0.17 
   5  -3  -7    0.05    0.18 
  -5   3   6    0.03    0.12 
   5  -3  -6    0.26    0.18 
  -5   3   5    0.00    0.10 
   5  -3  -5    0.02    0.13 
  -5   3   4    1.01    0.14 
   5  -3  -4    0.84    0.17 
  -5   3   3   13.68    0.46 
   5  -3  -3   14.47    0.59 
  -5   3   2   21.75    0.62 
   5  -3  -2   21.57    0.66 
   5  -3  -2   21.20    0.77 
  -5   3   1    1.90    0.11 
   5  -3  -1    1.68    0.11 
   5  -3  -1    1.84    0.17 
   5  -3   0   51.34    1.54 
   5  -3   0   52.24    1.50 
   5  -3   1   26.35    0.85 
   5  -3   1   25.99    0.84 
   5  -3   2    6.19    0.33 
   5  -3   2    6.41    0.29 
   5  -3   3    0.14    0.10 
   5  -3   3    0.08    0.07 
   5  -3   4    0.54    0.17 
   5  -3   4    0.73    0.12 
   5  -3   5    0.83    0.21 
   5  -3   6    0.10    0.19 
   5  -3   7   -0.36    0.23 
  -5   4   7   -0.05    0.13 
   5  -4  -7    0.36    0.23 
  -5   4   6    0.62    0.16 
   5  -4  -6    0.68    0.21 
  -5   4   5    1.18    0.17 
   5  -4  -5    1.10    0.23 
  -5   4   4    3.60    0.22 
   5  -4  -4    3.86    0.29 
  -5   4   3    0.81    0.10 
   5  -4  -3    0.51    0.13 
  -5   4   2    5.65    0.21 
   5  -4  -2    5.42    0.31 
   5  -4  -2    5.46    0.24 
   5  -4  -1   10.21    0.43 
   5  -4  -1    9.64    0.35 
   5  -4   0   44.51    1.30 
   5  -4   0   42.98    1.33 
   5  -4   1    1.05    0.12 
   5  -4   1    1.05    0.14 
   5  -4   2    0.72    0.13 
   5  -4   2    0.94    0.12 
   5  -4   3    4.90    0.26 
   5  -4   3    4.21    0.31 
   5  -4   4    0.29    0.15 
   5  -4   5    1.34    0.26 
   5  -4   6    0.11    0.21 
   5  -4   7   -0.15    0.23 
   5  -5  -7    0.10    0.20 
  -5   5   6   -0.17    0.10 
   5  -5  -6    0.07    0.17 
  -5   5   5    0.83    0.15 
   5  -5  -5    0.57    0.19 
  -5   5   4    0.27    0.10 
   5  -5  -4    0.30    0.12 
  -5   5   3    0.56    0.08 
   5  -5  -3    0.52    0.13 
  -5   5   2   27.28    0.75 
   5  -5  -2   27.65    0.95 
   5  -5  -2   27.53    0.86 
   5  -5  -1    0.03    0.02 
   5  -5  -1    0.07    0.08 
   5  -5   0   27.72    0.86 
   5  -5   0   26.54    0.89 
   5  -5   1    0.32    0.10 
   5  -5   1    0.25    0.07 
   5  -5   2    0.59    0.14 
   5  -5   2    0.65    0.10 
   5  -5   3    2.52    0.17 
   5  -5   3    2.12    0.25 
   5  -5   4    0.51    0.18 
   5  -5   5    0.24    0.15 
   5  -5   6    0.62    0.25 
   5  -5   7   -0.26    0.22 
   5  -6  -7    0.25    0.21 
   5  -6  -6   -0.15    0.13 
  -5   6   5    0.77    0.14 
   5  -6  -5    0.65    0.20 
  -5   6   4   -0.15    0.07 
   5  -6  -4    0.15    0.12 
  -5   6   3    3.12    0.16 
   5  -6  -3    2.49    0.26 
  -5   6   2    5.16    0.19 
   5  -6  -2    5.29    0.31 
   5  -6  -1    0.60    0.13 
   5  -6  -1    0.73    0.10 
   5  -6   0    1.62    0.16 
   5  -6   0    1.53    0.15 
   5  -6   1   10.80    0.43 
   5  -6   1   10.84    0.45 
   5  -6   2    0.48    0.13 
   5  -6   2    0.48    0.09 
   5  -6   3    1.65    0.14 
   5  -6   3    1.32    0.23 
   5  -6   4    0.34    0.15 
   5  -6   5    1.01    0.25 
   5  -6   6    1.35    0.31 
   5  -6   7    0.05    0.26 
   5  -7  -7   -0.13    0.19 
   5  -7  -6    0.28    0.19 
  -5   7   5    1.35    0.16 
   5  -7  -5    1.49    0.28 
  -5   7   4    2.63    0.18 
   5  -7  -4    3.79    0.35 
  -5   7   3    0.39    0.07 
   5  -7  -3    0.31    0.08 
   5  -7  -3    0.26    0.11 
  -5   7   2    0.20    0.04 
   5  -7  -2    0.30    0.07 
   5  -7  -2    0.27    0.10 
   5  -7  -1  199.89    5.63 
   5  -7  -1  206.11    5.60 
   5  -7   0    0.10    0.07 
   5  -7   0    0.01    0.09 
   5  -7   1    4.33    0.23 
   5  -7   1    4.16    0.27 
   5  -7   2    0.53    0.15 
   5  -7   2    0.74    0.10 
   5  -7   3   -0.05    0.12 
   5  -7   3    0.13    0.06 
   5  -7   4    1.61    0.26 
   5  -7   5    0.17    0.18 
   5  -7   6    0.14    0.20 
   5  -7   7   -0.05    0.28 
   5  -8  -7    0.31    0.22 
   5  -8  -6    0.28    0.21 
   5  -8  -5    0.08    0.15 
  -5   8   4    0.69    0.11 
   5  -8  -4    0.94    0.23 
  -5   8   3    0.35    0.06 
   5  -8  -3    0.31    0.12 
   5  -8  -3    0.31    0.09 
   5  -8  -2    1.89    0.22 
   5  -8  -2    1.60    0.16 
   5  -8  -1   13.11    0.54 
   5  -8  -1   12.92    0.49 
   5  -8   0    2.17    0.19 
   5  -8   0    2.05    0.19 
   5  -8   1   12.75    0.49 
   5  -8   1   12.92    0.53 
   5  -8   2    1.56    0.14 
   5  -8   2    1.82    0.22 
   5  -8   3    0.99    0.21 
   5  -8   4    0.16    0.17 
   5  -8   5    1.83    0.31 
   5  -8   6    0.32    0.26 
   5  -8   7   -0.13    0.27 
   5  -9  -7    0.22    0.22 
   5  -9  -6    0.75    0.25 
   5  -9  -5    1.10    0.26 
   5  -9  -4    0.13    0.15 
  -5   9   3    1.42    0.09 
   5  -9  -3    1.05    0.21 
   5  -9  -3    1.42    0.18 
   5  -9  -2    1.79    0.22 
   5  -9  -2    1.87    0.17 
   5  -9  -1    0.94    0.16 
   5  -9  -1    0.93    0.13 
   5  -9   0    1.57    0.18 
   5  -9   0    1.35    0.16 
   5  -9   1    0.73    0.12 
   5  -9   1    0.84    0.17 
   5  -9   2   13.73    0.61 
   5  -9   2   14.60    0.51 
   5  -9   3    0.77    0.22 
   5  -9   4    0.50    0.20 
   5  -9   5    0.39    0.22 
   5  -9   6    0.49    0.29 
   5 -10  -7    0.10    0.21 
   5 -10  -6    0.38    0.22 
   5 -10  -5    0.17    0.17 
   5 -10  -4    1.64    0.28 
   5 -10  -3    0.04    0.07 
   5 -10  -3   -0.18    0.09 
   5 -10  -2   -0.01    0.06 
   5 -10  -2   -0.04    0.09 
   5 -10  -1    8.85    0.40 
   5 -10  -1    8.51    0.43 
   5 -10   0    1.41    0.19 
   5 -10   0    1.87    0.19 
   5 -10   1    0.06    0.06 
   5 -10   1    0.03    0.12 
   5 -10   2    9.10    0.49 
   5 -10   2    8.38    0.35 
   5 -10   3    0.24    0.18 
   5 -10   4    0.13    0.16 
   5 -10   5    0.18    0.21 
   5 -10   6    0.14    0.24 
   5 -11  -7    0.08    0.22 
   5 -11  -6    0.20    0.21 
   5 -11  -5    0.60    0.22 
   5 -11  -4    0.01    0.14 
   5 -11  -3    1.51    0.20 
   5 -11  -3    1.07    0.21 
   5 -11  -2   19.82    0.81 
   5 -11  -2   19.29    0.73 
   5 -11  -1    7.59    0.38 
   5 -11  -1    7.25    0.40 
   5 -11   0    3.71    0.27 
   5 -11   0    3.32    0.25 
   5 -11   1    5.81    0.37 
   5 -11   1    5.24    0.29 
   5 -11   2    2.19    0.27 
   5 -11   3    0.25    0.18 
   5 -11   4    1.15    0.26 
   5 -11   5    0.25    0.23 
   5 -11   6    0.57    0.30 
   5 -12  -7    0.32    0.22 
   5 -12  -6    0.01    0.22 
   5 -12  -5    0.02    0.18 
   5 -12  -4    0.21    0.17 
   5 -12  -3    3.76    0.36 
   5 -12  -3    4.08    0.30 
   5 -12  -2   21.06    0.78 
   5 -12  -2   19.59    0.83 
   5 -12  -1    0.34    0.11 
   5 -12  -1    0.73    0.17 
   5 -12   0   -0.04    0.11 
   5 -12   0    0.02    0.07 
   5 -12   1   20.23    0.73 
   5 -12   1   21.45    0.82 
   5 -12   2    0.17    0.20 
   5 -12   3    0.41    0.21 
   5 -12   4   -0.05    0.17 
   5 -12   5   -0.03    0.22 
   5 -12   6    0.02    0.28 
   5 -13  -7    0.10    0.23 
   5 -13  -6   -0.23    0.22 
   5 -13  -5    0.08    0.19 
   5 -13  -4    1.70    0.30 
   5 -13  -3   -0.18    0.10 
   5 -13  -3   -0.03    0.11 
   5 -13  -2    1.00    0.21 
   5 -13  -2    0.82    0.16 
   5 -13  -1    5.26    0.35 
   5 -13  -1    5.13    0.32 
   5 -13   0    0.43    0.13 
   5 -13   0    0.74    0.20 
   5 -13   1    7.85    0.48 
   5 -13   1    8.63    0.40 
   5 -13   2    0.59    0.22 
   5 -13   3    0.33    0.20 
   5 -13   4    0.41    0.22 
   5 -13   5    0.11    0.22 
   5 -13   6   -0.21    0.26 
   5 -14  -7    0.00    0.19 
   5 -14  -6    0.26    0.22 
   5 -14  -5    0.96    0.30 
   5 -14  -4    0.35    0.17 
   5 -14  -4    0.34    0.17 
   5 -14  -3    0.73    0.19 
   5 -14  -3    0.55    0.18 
   5 -14  -2    2.41    0.29 
   5 -14  -2    2.74    0.27 
   5 -14  -1    2.46    0.26 
   5 -14  -1    2.53    0.27 
   5 -14   0    0.48    0.18 
   5 -14   0    0.86    0.17 
   5 -14   1    2.52    0.30 
   5 -14   1    3.13    0.23 
   5 -14   2    0.51    0.22 
   5 -14   3    0.65    0.25 
   5 -14   4    0.06    0.19 
   5 -14   5    0.98    0.32 
   5 -14   6    1.10    0.34 
   5 -15  -6   -0.11    0.21 
   5 -15  -5    1.59    0.34 
   5 -15  -4    1.14    0.26 
   5 -15  -4    0.84    0.23 
   5 -15  -3   16.14    0.74 
   5 -15  -3   15.46    0.77 
   5 -15  -2    0.72    0.19 
   5 -15  -2    0.82    0.19 
   5 -15  -1    4.53    0.33 
   5 -15  -1    3.75    0.32 
   5 -15   0   -0.07    0.15 
   5 -15   0    0.09    0.09 
   5 -15   1    0.54    0.21 
   5 -15   1    0.63    0.14 
   5 -15   2    0.02    0.19 
   5 -15   3    0.10    0.19 
   5 -15   4    0.06    0.24 
   5 -15   5    0.26    0.28 
   5 -15   6    0.50    0.31 
   5 -16  -6    0.09    0.21 
   5 -16  -5    0.03    0.21 
   5 -16  -4    1.02    0.25 
   5 -16  -4    1.57    0.28 
   5 -16  -3    1.26    0.25 
   5 -16  -3    1.29    0.26 
   5 -16  -2    9.93    0.56 
   5 -16  -2    9.02    0.51 
   5 -16  -1    0.22    0.13 
   5 -16  -1    0.28    0.15 
   5 -16   0   12.00    0.60 
   5 -16   0   11.14    0.54 
   5 -16   1    1.22    0.26 
   5 -16   2    0.09    0.18 
   5 -16   3   -0.19    0.20 
   5 -16   4    0.33    0.24 
   5 -16   5    0.26    0.24 
   5 -17  -6   -0.05    0.20 
   5 -17  -5   -0.03    0.20 
   5 -17  -4    0.26    0.19 
   5 -17  -4    0.56    0.22 
   5 -17  -3    2.82    0.34 
   5 -17  -3    2.68    0.36 
   5 -17  -2    2.56    0.33 
   5 -17  -2    2.52    0.30 
   5 -17  -1    1.84    0.26 
   5 -17  -1    2.35    0.29 
   5 -17   0   17.00    0.75 
   5 -17   0   15.29    0.69 
   5 -17   1    0.61    0.22 
   5 -17   2   -0.04    0.17 
   5 -17   3    0.15    0.22 
   5 -17   4   -0.36    0.22 
   5 -17   5    0.12    0.29 
  -5  18   6    0.03    0.26 
   5 -18  -5    0.27    0.26 
   5 -18  -4    0.15    0.19 
   5 -18  -4    0.33    0.22 
   5 -18  -3   -0.03    0.16 
   5 -18  -3    0.09    0.13 
   5 -18  -2    2.53    0.33 
   5 -18  -2    3.08    0.36 
   5 -18  -1    0.45    0.17 
   5 -18  -1    0.58    0.19 
   5 -18   0    7.22    0.44 
   5 -18   0    7.40    0.49 
   5 -18   1    0.12    0.18 
   5 -18   2    0.29    0.21 
   5 -18   3    0.08    0.21 
   5 -18   4    0.29    0.26 
   5 -18   5    0.39    0.32 
   5 -19  -5   -0.02    0.25 
   5 -19  -4    0.12    0.21 
   5 -19  -4    0.66    0.26 
   5 -19  -3    0.04    0.17 
   5 -19  -3   -0.14    0.16 
   5 -19  -2   10.97    0.63 
   5 -19  -2   10.55    0.61 
   5 -19  -1    0.03    0.11 
   5 -19  -1   -0.14    0.13 
   5 -19   0    3.24    0.37 
   5 -19   1    0.37    0.21 
   5 -19   2    0.88    0.25 
   5 -19   3    0.13    0.23 
   5 -19   4   -0.11    0.25 
   5 -20  -5    0.02    0.26 
   5 -20  -4   -0.21    0.15 
   5 -20  -4   -0.26    0.14 
   5 -20  -3   -0.02    0.15 
   5 -20  -3   -0.06    0.17 
   5 -20  -2    6.21    0.47 
   5 -20  -2    5.75    0.45 
   5 -20  -1    1.31    0.25 
   5 -20  -1    1.49    0.29 
   5 -20   0    0.23    0.19 
   5 -20   1    1.61    0.30 
   5 -20   2    0.75    0.26 
   5 -20   3    0.30    0.24 
   5 -20   4    0.34    0.25 
  -5  21   5   -0.01    0.21 
   5 -21  -4   -0.09    0.20 
   5 -21  -4    0.43    0.27 
   5 -21  -3    0.75    0.25 
   5 -21  -3    0.22    0.21 
   5 -21  -2    3.45    0.41 
   5 -21  -2    3.38    0.42 
   5 -21  -1   22.42    0.98 
   5 -21  -1   22.71    1.02 
   5 -21   0    0.81    0.25 
   5 -21   1    0.34    0.22 
   5 -21   2    0.11    0.20 
   5 -21   3    0.06    0.24 
   5 -21   4    0.09    0.28 
  -5  22   4   -0.06    0.21 
   5 -22  -4    0.04    0.19 
   5 -22  -3    0.12    0.18 
   5 -22  -3    0.05    0.21 
   5 -22  -2    0.69    0.23 
   5 -22  -2    0.09    0.20 
   5 -22  -1    6.30    0.54 
   5 -22  -1    5.61    0.49 
   5 -22   0    0.50    0.22 
   5 -22   1    2.04    0.34 
   5 -22   2   -0.11    0.17 
   5 -22   3    0.26    0.26 
  -5  23   4    0.10    0.21 
   5 -23  -4   -0.07    0.16 
  -5  23   3   -0.10    0.21 
   5 -23  -3    0.39    0.21 
  -5  23   2    0.36    0.25 
   5 -23  -2    0.11    0.18 
   5 -23  -1    1.62    0.35 
   5 -23   0    0.45    0.19 
   5 -23   1    0.75    0.25 
   5 -23   2    1.11    0.29 
   5 -23   3    0.32    0.28 
  -5  24   3   -0.14    0.18 
   5 -24  -3   -0.06    0.17 
  -5  24   2    0.29    0.24 
   5 -24  -2    0.08    0.20 
   5 -24  -1    3.12    0.43 
   5 -24   0    0.39    0.22 
   5 -24   1    0.66    0.24 
   5 -24   2    0.22    0.19 
  -5  25   2    2.03    0.37 
   5 -25  -2    2.08    0.37 
   5 -25  -1    5.88    0.55 
   5 -25   0    0.25    0.19 
   5 -25   1    0.14    0.17 
   5 -26  -1    0.54    0.19 
   5 -26   0    0.43    0.23 
  -6 -25   1    3.51    0.49 
  -6 -25   0    1.64    0.41 
   6  25   1    0.11    0.15 
  -6 -24   2    0.47    0.26 
  -6 -24   1    3.53    0.48 
  -6 -24   0    0.62    0.33 
   6  24   1    0.26    0.18 
   6  24   2    1.19    0.24 
  -6 -23   4    0.27    0.15 
  -6 -23   2    0.42    0.25 
  -6 -23   1    0.01    0.21 
  -6 -23   0    2.41    0.41 
   6  23   0    2.05    0.31 
   6  23   1    0.23    0.17 
   6  23   2    1.54    0.29 
  -6 -22   4    0.34    0.20 
  -6 -22   3    0.08    0.17 
  -6 -22   2    0.40    0.21 
  -6 -22   1   13.32    0.76 
  -6 -22   0    0.16    0.21 
   6  22   0    0.08    0.16 
   6  22   1    0.39    0.19 
   6  22   2    0.27    0.17 
   6  22   3    0.26    0.17 
  -6 -21   5    0.08    0.15 
  -6 -21   4    0.16    0.18 
  -6 -21   3    0.12    0.15 
  -6 -21   2    0.30    0.18 
  -6 -21   2    0.11    0.13 
  -6 -21   1    6.81    0.51 
  -6 -21   0    0.30    0.21 
   6  21   0    0.23    0.16 
   6  21   1    0.10    0.14 
   6  21   2    0.12    0.16 
   6  21   3    0.06    0.14 
  -6 -20   5    0.33    0.18 
  -6 -20   4    0.36    0.19 
  -6 -20   3   -0.01    0.14 
  -6 -20   2    0.43    0.17 
  -6 -20   2   -0.13    0.13 
  -6 -20   1   -0.05    0.17 
  -6 -20   1   -0.06    0.12 
   6  20  -1    0.07    0.16 
  -6 -20   0    4.03    0.43 
   6  20   0    4.40    0.39 
   6  20   1    0.00    0.14 
   6  20   2    0.53    0.21 
   6  20   3    0.06    0.16 
   6  20   4    0.52    0.20 
  -6 -19   5    0.01    0.17 
  -6 -19   4    0.04    0.16 
  -6 -19   3    0.63    0.18 
  -6 -19   2    0.73    0.21 
  -6 -19   2    0.76    0.18 
  -6 -19   1    0.06    0.12 
  -6 -19   1   -0.08    0.14 
   6  19  -1   -0.01    0.13 
  -6 -19   0   21.01    0.94 
   6  19   0   20.04    0.86 
   6  19   1    0.02    0.13 
   6  19   2   -0.06    0.13 
   6  19   3    0.11    0.16 
   6  19   4    0.24    0.15 
  -6 -18   6   -0.01    0.17 
  -6 -18   5    0.11    0.16 
  -6 -18   4    0.17    0.18 
  -6 -18   3    1.11    0.23 
  -6 -18   3    0.82    0.19 
  -6 -18   2    4.86    0.38 
  -6 -18   2    5.91    0.35 
  -6 -18   1    2.06    0.21 
  -6 -18   1    2.10    0.30 
   6  18  -1    1.95    0.26 
  -6 -18   0   17.42    0.81 
   6  18   0   15.96    0.73 
   6  18   1    6.09    0.42 
   6  18   2    0.24    0.17 
   6  18   3    0.25    0.18 
   6  18   4   -0.21    0.20 
  -6 -17   6   -0.17    0.14 
  -6 -17   5    0.12    0.17 
  -6 -17   4    0.55    0.20 
  -6 -17   3   -0.09    0.13 
  -6 -17   3    0.43    0.16 
  -6 -17   2   11.19    0.48 
  -6 -17   2   10.22    0.54 
   6  17  -2   10.11    0.50 
  -6 -17   1    0.84    0.16 
  -6 -17   1    0.71    0.20 
   6  17  -1    0.58    0.17 
  -6 -17   0    0.68    0.19 
   6  17   0    0.19    0.15 
   6  17   1    4.03    0.36 
   6  17   2    0.00    0.12 
   6  17   3   -0.06    0.14 
   6  17   4    0.07    0.22 
   6  17   5    0.13    0.28 
  -6 -16   6    0.05    0.17 
  -6 -16   5    0.02    0.17 
  -6 -16   4    0.84    0.22 
  -6 -16   3    0.48    0.16 
  -6 -16   3    0.28    0.14 
  -6 -16   2    3.88    0.33 
  -6 -16   2    3.84    0.29 
   6  16  -2    3.92    0.27 
  -6 -16   1    0.53    0.13 
  -6 -16   1    0.57    0.18 
   6  16  -1    0.54    0.16 
  -6 -16   0   20.70    0.68 
  -6 -16   0   18.21    0.83 
   6  16   0   19.49    0.80 
   6  16   1    0.96    0.21 
   6  16   2   -0.07    0.12 
   6  16   3    0.53    0.20 
   6  16   4    0.22    0.20 
   6  16   5    0.02    0.24 
  -6 -15   6   -0.05    0.16 
  -6 -15   5    0.32    0.19 
  -6 -15   4    0.46    0.17 
  -6 -15   3    0.85    0.18 
  -6 -15   3    1.17    0.19 
  -6 -15   2    0.01    0.10 
  -6 -15   2   -0.07    0.11 
   6  15  -2    0.06    0.07 
  -6 -15   1    1.97    0.20 
  -6 -15   1    1.47    0.23 
   6  15  -1    1.95    0.24 
  -6 -15   0   12.49    0.48 
  -6 -15   0   12.12    0.61 
   6  15   0   13.14    0.60 
   6  15   1   22.61    0.91 
   6  15   2    0.13    0.13 
   6  15   3   -0.04    0.12 
   6  15   4    0.18    0.19 
   6  15   5    0.08    0.22 
  -6 -14   7    0.00    0.14 
  -6 -14   6    0.08    0.19 
  -6 -14   5    0.04    0.16 
  -6 -14   4    0.43    0.18 
  -6 -14   3    0.37    0.13 
  -6 -14   3    0.29    0.15 
  -6 -14   2    1.52    0.20 
  -6 -14   2    1.00    0.17 
   6  14  -2    1.42    0.18 
  -6 -14   1    1.49    0.21 
  -6 -14   1    1.17    0.16 
   6  14  -1    1.56    0.20 
  -6 -14   0    0.56    0.17 
  -6 -14   0    0.50    0.11 
   6  14   0    0.31    0.14 
   6  14   1   16.82    0.72 
   6  14   2    0.33    0.15 
   6  14   3    0.33    0.18 
   6  14   4    0.51    0.19 
   6  14   5    0.63    0.27 
  -6 -13   7    0.27    0.19 
  -6 -13   6    0.18    0.17 
  -6 -13   5   -0.01    0.15 
  -6 -13   4    0.90    0.21 
  -6 -13   3    2.06    0.21 
  -6 -13   3    1.69    0.22 
   6  13  -3    2.02    0.19 
  -6 -13   2    2.21    0.22 
  -6 -13   2    2.42    0.22 
   6  13  -2    2.04    0.21 
  -6 -13   1    1.53    0.16 
  -6 -13   1    1.17    0.19 
   6  13  -1    1.48    0.19 
  -6 -13   0    8.68    0.47 
  -6 -13   0    8.90    0.37 
   6  13   0    9.17    0.47 
   6  13   1    1.14    0.20 
   6  13   2    1.22    0.23 
   6  13   3   -0.13    0.11 
   6  13   4    0.21    0.17 
   6  13   5    0.18    0.21 
   6  13   6   -0.12    0.22 
  -6 -12   7    0.56    0.25 
  -6 -12   6    0.00    0.17 
  -6 -12   5    0.25    0.17 
  -6 -12   4    0.34    0.16 
  -6 -12   3    1.65    0.22 
  -6 -12   3    2.12    0.20 
   6  12  -3    1.77    0.18 
  -6 -12   2    0.55    0.14 
  -6 -12   2    0.46    0.13 
   6  12  -2    0.51    0.12 
  -6 -12   1    0.11    0.08 
  -6 -12   1    0.05    0.10 
   6  12  -1    0.05    0.07 
  -6 -12   0   55.42    1.55 
  -6 -12   0   54.51    1.76 
   6  12   0   57.23    1.75 
   6  12   1    1.24    0.20 
   6  12   2    0.35    0.15 
   6  12   3    0.19    0.14 
   6  12   4   -0.08    0.14 
   6  12   5    0.00    0.16 
   6  12   6   -0.08    0.23 
  -6 -11   7    0.08    0.21 
  -6 -11   6   -0.18    0.14 
  -6 -11   5    0.14    0.15 
  -6 -11   4    0.54    0.17 
  -6 -11   3    2.48    0.21 
  -6 -11   3    2.09    0.22 
   6  11  -3    2.40    0.21 
  -6 -11   2    2.63    0.20 
  -6 -11   2    2.17    0.20 
   6  11  -2    2.71    0.21 
  -6 -11   1    8.53    0.35 
  -6 -11   1    8.15    0.40 
   6  11  -1    7.96    0.40 
  -6 -11   0    2.33    0.24 
  -6 -11   0    2.18    0.18 
   6  11   0    2.41    0.23 
   6  11   1   10.05    0.49 
   6  11   2    1.93    0.26 
   6  11   3    0.99    0.21 
   6  11   4    3.46    0.37 
   6  11   5    0.87    0.24 
   6  11   6    0.29    0.24 
  -6 -10   7    0.23    0.22 
  -6 -10   6   -0.04    0.16 
  -6 -10   5    0.05    0.15 
  -6 -10   4    2.36    0.26 
  -6 -10   3    1.30    0.16 
  -6 -10   3    1.28    0.19 
  -6 -10   2    6.94    0.32 
  -6 -10   2    6.30    0.31 
   6  10  -2    6.73    0.35 
  -6 -10   1   18.57    0.61 
  -6 -10   1   18.62    0.68 
   6  10  -1   19.26    0.71 
  -6 -10   0    2.01    0.17 
   6  10   0    1.63    0.20 
   6  10   1   12.02    0.54 
   6  10   2   13.95    0.63 
   6  10   3    0.32    0.15 
   6  10   4    1.99    0.29 
   6  10   5    1.03    0.25 
   6  10   6    0.10    0.21 
  -6  -9   7    0.19    0.21 
  -6  -9   6    0.14    0.17 
  -6  -9   5    0.24    0.15 
  -6  -9   4    0.46    0.17 
   6   9  -4    0.58    0.11 
  -6  -9   3    1.36    0.15 
  -6  -9   3    1.34    0.19 
  -6  -9   2    1.15    0.14 
  -6  -9   2    1.38    0.14 
   6   9  -2    1.22    0.16 
  -6  -9   1    8.53    0.38 
  -6  -9   1    8.73    0.35 
   6   9  -1    8.81    0.41 
  -6  -9   0   10.64    0.40 
   6   9   0   10.18    0.47 
   6   9   1    0.12    0.08 
   6   9   2    2.48    0.26 
   6   9   3    2.17    0.27 
   6   9   4    1.25    0.24 
   6   9   5    0.41    0.18 
   6   9   6    0.08    0.19 
  -6  -8   7   -0.06    0.18 
  -6  -8   6    0.08    0.16 
  -6  -8   5    2.27    0.28 
  -6  -8   4   -0.08    0.12 
   6   8  -4    0.04    0.07 
  -6  -8   3    0.17    0.09 
  -6  -8   3    0.11    0.11 
   6   8  -3    0.13    0.07 
  -6  -8   2    0.92    0.11 
  -6  -8   2    0.56    0.11 
   6   8  -2    0.94    0.14 
  -6  -8   1   25.26    0.83 
  -6  -8   1   25.78    0.78 
   6   8  -1   25.83    0.89 
  -6  -8   0    3.19    0.19 
   6   8   0    3.51    0.24 
   6   8   1    2.39    0.23 
   6   8   2    3.26    0.28 
   6   8   3    0.38    0.15 
   6   8   4   -0.01    0.11 
   6   8   5    2.50    0.33 
   6   8   6    0.12    0.17 
  -6  -7   8   -0.07    0.21 
  -6  -7   7   -0.27    0.14 
  -6  -7   6    0.15    0.16 
  -6  -7   5    0.27    0.15 
  -6  -7   4    1.07    0.19 
   6   7  -4    1.03    0.16 
  -6  -7   3    0.06    0.08 
  -6  -7   3    0.18    0.07 
   6   7  -3    0.14    0.07 
  -6  -7   2    2.92    0.16 
  -6  -7   2    2.84    0.19 
   6   7  -2    2.74    0.20 
  -6  -7   1   78.56    2.06 
  -6  -7   1   76.62    2.21 
   6   7  -1   76.45    2.26 
  -6  -7   0    0.09    0.06 
   6   7   0    0.07    0.07 
   6   7   1    0.86    0.15 
   6   7   2   24.97    0.91 
   6   7   3    0.56    0.15 
   6   7   4    3.40    0.33 
   6   7   5    0.09    0.14 
   6   7   6    0.18    0.17 
  -6  -6   8    0.74    0.27 
  -6  -6   7    0.01    0.16 
  -6  -6   6   -0.10    0.12 
  -6  -6   5   -0.09    0.12 
   6   6  -5    0.17    0.07 
  -6  -6   4    0.16    0.11 
  -6  -6   4    0.10    0.11 
   6   6  -4   -0.03    0.05 
  -6  -6   3    1.58    0.12 
  -6  -6   3    1.37    0.17 
   6   6  -3    1.39    0.17 
  -6  -6   2    0.06    0.07 
  -6  -6   2    0.21    0.05 
   6   6  -2    0.06    0.06 
  -6  -6   1    7.86    0.31 
   6   6  -1    8.31    0.39 
   6   6   0    1.42    0.17 
   6   6   1    3.65    0.25 
   6   6   2    0.59    0.13 
   6   6   3    0.95    0.18 
   6   6   4    0.83    0.19 
   6   6   5    1.10    0.22 
   6   6   6    0.42    0.19 
   6   6   6    0.48    0.23 
  -6  -5   8    0.25    0.23 
  -6  -5   7   -0.10    0.14 
  -6  -5   6   -0.01    0.13 
  -6  -5   5    0.61    0.17 
   6   5  -5    0.61    0.12 
  -6  -5   4    3.80    0.27 
  -6  -5   4    3.84    0.23 
   6   5  -4    3.60    0.25 
  -6  -5   3    1.07    0.10 
  -6  -5   3    1.15    0.15 
   6   5  -3    1.20    0.16 
  -6  -5   2    2.43    0.17 
  -6  -5   2    2.54    0.12 
   6   5  -2    2.42    0.19 
  -6  -5   1    2.12    0.15 
   6   5  -1    2.55    0.21 
   6   5   0   60.93    1.82 
   6   5   1    7.51    0.37 
   6   5   2    3.70    0.26 
   6   5   3    0.23    0.12 
   6   5   4   -0.08    0.09 
   6   5   5    0.71    0.19 
   6   5   6    0.17    0.20 
   6   5   6    0.32    0.17 
   6   5   7   -0.11    0.21 
  -6  -4   8   -0.21    0.19 
  -6  -4   7    0.13    0.16 
  -6  -4   6   -0.08    0.12 
  -6  -4   5    0.52    0.17 
   6   4  -5    0.23    0.08 
  -6  -4   4    0.90    0.12 
  -6  -4   4    0.91    0.17 
   6   4  -4    0.39    0.11 
  -6  -4   3    1.35    0.10 
  -6  -4   3    1.18    0.15 
   6   4  -3    1.34    0.17 
  -6  -4   2    4.84    0.24 
   6   4  -2    5.03    0.28 
  -6  -4   1    5.35    0.24 
   6   4  -1    5.39    0.29 
   6   4   0   15.77    0.60 
   6   4   1    1.71    0.18 
   6   4   2    0.12    0.08 
   6   4   3   -0.08    0.07 
   6   4   4    0.36    0.13 
   6   4   5    1.16    0.26 
   6   4   5    0.93    0.20 
   6   4   6   -0.09    0.17 
   6   4   7    0.17    0.24 
  -6  -3   8   -0.12    0.19 
  -6  -3   7    0.52    0.21 
  -6  -3   6    0.06    0.13 
  -6  -3   5    0.61    0.16 
   6   3  -5    0.45    0.14 
  -6  -3   4    2.39    0.16 
  -6  -3   4    1.96    0.21 
   6   3  -4    2.28    0.23 
  -6  -3   3   11.20    0.35 
  -6  -3   3   10.93    0.43 
   6   3  -3   11.15    0.49 
  -6  -3   2   18.62    0.59 
   6   3  -2   17.97    0.68 
  -6  -3   1    7.67    0.29 
   6   3  -1    7.00    0.34 
   6   3   0   18.22    0.66 
   6   3   1   77.80    2.28 
   6   3   2    0.10    0.08 
   6   3   3   -0.05    0.07 
   6   3   4    1.19    0.20 
   6   3   5    0.34    0.19 
   6   3   5    0.22    0.14 
   6   3   6    0.01    0.18 
   6   3   7   -0.18    0.23 
  -6  -2   8    0.13    0.20 
  -6  -2   7    0.01    0.15 
  -6  -2   6    0.11    0.14 
   6   2  -6   -0.01    0.13 
  -6  -2   5    0.01    0.12 
   6   2  -5    0.31    0.11 
  -6  -2   4    1.70    0.13 
  -6  -2   4    1.34    0.18 
   6   2  -4    1.15    0.18 
  -6  -2   3    0.43    0.10 
   6   2  -3    0.26    0.09 
  -6  -2   2    6.50    0.27 
   6   2  -2    6.36    0.34 
  -6  -2   1    8.11    0.31 
   6   2  -1    7.86    0.38 
   6   2  -1    8.72    0.27 
   6   2   0   76.36    2.23 
   6   2   1   41.44    1.29 
   6   2   2    0.57    0.12 
   6   2   3    0.53    0.13 
   6   2   4    0.00    0.12 
   6   2   4   -0.01    0.09 
   6   2   5   -0.27    0.12 
   6   2   5    0.10    0.12 
   6   2   6   -0.05    0.17 
   6   2   7   -0.27    0.22 
  -6  -1   8   -0.01    0.19 
  -6  -1   7    0.26    0.17 
  -6  -1   6   -0.11    0.12 
   6   1  -6    0.19    0.15 
  -6  -1   5    0.51    0.15 
   6   1  -5    0.36    0.13 
  -6  -1   4    1.19    0.17 
  -6  -1   4    1.60    0.12 
   6   1  -4    1.48    0.20 
  -6  -1   3    1.82    0.16 
  -6  -1   3    2.01    0.10 
   6   1  -3    2.15    0.21 
  -6  -1   2    4.20    0.21 
   6   1  -2    4.60    0.28 
  -6  -1   1    8.12    0.30 
   6   1  -1    7.52    0.37 
   6   1  -1    8.70    0.27 
   6   1   0   89.23    2.60 
   6   1   0   97.13    2.67 
   6   1   1    5.22    0.28 
   6   1   1    5.17    0.28 
   6   1   2    6.34    0.35 
   6   1   2    6.89    0.34 
   6   1   3    0.83    0.19 
   6   1   3    1.01    0.16 
   6   1   4    0.27    0.10 
   6   1   4    0.29    0.16 
   6   1   5    0.29    0.14 
   6   1   5    0.64    0.22 
   6   1   6    0.11    0.19 
   6   1   7    0.59    0.32 
  -6   0   8    0.16    0.19 
  -6   0   7    0.04    0.14 
  -6   0   6   -0.17    0.12 
   6   0  -6    0.02    0.14 
  -6   0   5   -0.05    0.11 
   6   0  -5    0.02    0.09 
  -6   0   4    2.87    0.17 
  -6   0   4    3.03    0.22 
   6   0  -4    2.82    0.27 
  -6   0   3    0.06    0.03 
  -6   0   3    0.07    0.07 
   6   0  -3    0.02    0.06 
  -6   0   2    1.07    0.11 
   6   0  -2    1.13    0.16 
  -6   0   1   -0.04    0.04 
   6   0  -1   -0.03    0.06 
   6   0  -1    0.00    0.04 
   6   0   0   67.87    1.79 
   6   0   0   52.26    1.70 
   6   0   1    0.00    0.06 
   6   0   1    0.04    0.06 
   6   0   2    2.30    0.18 
   6   0   2    2.35    0.22 
   6   0   3    0.00    0.07 
   6   0   3    0.13    0.12 
   6   0   4    3.41    0.34 
   6   0   4    2.97    0.24 
   6   0   5   -0.07    0.16 
   6   0   6    0.36    0.22 
   6   0   7   -0.18    0.24 
  -6   1   8    0.01    0.20 
  -6   1   7    0.10    0.15 
  -6   1   6    0.05    0.12 
   6  -1  -6    0.09    0.15 
  -6   1   5    0.32    0.14 
   6  -1  -5    0.83    0.20 
  -6   1   4    1.46    0.16 
   6  -1  -4    1.40    0.20 
  -6   1   3    1.80    0.15 
   6  -1  -3    1.79    0.21 
  -6   1   2    4.41    0.21 
   6  -1  -2    4.47    0.28 
  -6   1   1    7.78    0.29 
   6  -1  -1    8.17    0.39 
   6  -1  -1    8.44    0.28 
   6  -1   0   98.47    2.81 
   6  -1   1    5.75    0.29 
   6  -1   1    5.63    0.30 
   6  -1   2    6.67    0.33 
   6  -1   2    6.73    0.36 
   6  -1   3    1.08    0.15 
   6  -1   3    0.83    0.19 
   6  -1   4    0.22    0.10 
   6  -1   4   -0.05    0.13 
   6  -1   5    0.22    0.19 
   6  -1   6    0.19    0.22 
   6  -1   7    0.46    0.30 
  -6   2   7   -0.13    0.12 
   6  -2  -7   -0.14    0.16 
  -6   2   6   -0.13    0.11 
   6  -2  -6   -0.03    0.16 
  -6   2   5    0.25    0.12 
   6  -2  -5    0.15    0.13 
  -6   2   4    1.63    0.17 
   6  -2  -4    1.59    0.22 
  -6   2   3    0.37    0.09 
   6  -2  -3    0.41    0.12 
  -6   2   2    6.58    0.25 
   6  -2  -2    6.62    0.23 
   6  -2  -2    5.86    0.34 
  -6   2   1    7.58    0.29 
   6  -2  -1    8.75    0.29 
   6  -2  -1    8.26    0.39 
   6  -2   0   73.88    2.15 
   6  -2   1   40.98    1.30 
   6  -2   1   43.56    1.31 
   6  -2   2    0.80    0.15 
   6  -2   2    0.74    0.13 
   6  -2   3    0.72    0.13 
   6  -2   3    0.54    0.17 
   6  -2   4    0.02    0.14 
   6  -2   4    0.17    0.08 
   6  -2   5   -0.05    0.14 
   6  -2   6   -0.14    0.18 
   6  -2   7    0.16    0.27 
  -6   3   7    0.33    0.18 
   6  -3  -7    0.36    0.22 
  -6   3   6    0.24    0.13 
   6  -3  -6    0.28    0.17 
  -6   3   5    0.62    0.15 
   6  -3  -5    0.48    0.18 
  -6   3   4    2.42    0.19 
   6  -3  -4    2.08    0.26 
  -6   3   3    9.97    0.36 
   6  -3  -3   10.65    0.50 
  -6   3   2   18.27    0.55 
   6  -3  -2   17.94    0.71 
   6  -3  -2   19.22    0.58 
   6  -3  -1    7.24    0.36 
   6  -3  -1    7.36    0.28 
   6  -3   0   18.50    0.62 
   6  -3   0   18.85    0.68 
   6  -3   1   78.67    2.27 
   6  -3   1   77.50    2.26 
   6  -3   2    0.03    0.07 
   6  -3   2    0.19    0.08 
   6  -3   3    0.02    0.07 
   6  -3   3    0.01    0.11 
   6  -3   4    1.37    0.17 
   6  -3   4    1.37    0.26 
   6  -3   5    0.35    0.19 
   6  -3   6   -0.06    0.18 
   6  -3   7    0.05    0.26 
   6  -4  -7    0.08    0.19 
  -6   4   6    0.09    0.11 
   6  -4  -6    0.12    0.16 
  -6   4   5    0.49    0.13 
   6  -4  -5    0.64    0.19 
  -6   4   4    0.81    0.13 
   6  -4  -4    0.45    0.15 
  -6   4   3    1.24    0.12 
   6  -4  -3    1.38    0.20 
  -6   4   2    5.30    0.22 
   6  -4  -2    5.54    0.33 
   6  -4  -2    5.34    0.23 
   6  -4  -1    6.52    0.34 
   6  -4  -1    5.99    0.26 
   6  -4   0   15.69    0.55 
   6  -4   0   15.68    0.60 
   6  -4   1    1.95    0.19 
   6  -4   1    2.00    0.18 
   6  -4   2    0.03    0.09 
   6  -4   2    0.20    0.07 
   6  -4   3    0.04    0.13 
   6  -4   3    0.04    0.08 
   6  -4   4    0.52    0.19 
   6  -4   5    1.17    0.26 
   6  -4   6    0.19    0.22 
   6  -4   7    0.02    0.26 
   6  -5  -7   -0.18    0.19 
  -6   5   6   -0.01    0.11 
   6  -5  -6    0.08    0.15 
  -6   5   5    0.26    0.11 
   6  -5  -5    0.43    0.19 
  -6   5   4    3.76    0.21 
   6  -5  -4    3.80    0.34 
  -6   5   3    0.96    0.10 
   6  -5  -3    0.97    0.17 
  -6   5   2    2.26    0.13 
   6  -5  -2    2.54    0.15 
   6  -5  -2    2.30    0.23 
   6  -5  -1    1.50    0.12 
   6  -5  -1    2.47    0.22 
   6  -5   0   62.50    1.90 
   6  -5   0   64.75    1.86 
   6  -5   1    8.01    0.36 
   6  -5   1    7.61    0.37 
   6  -5   2    3.48    0.27 
   6  -5   2    3.99    0.23 
   6  -5   3    0.28    0.08 
   6  -5   3    0.29    0.14 
   6  -5   4    0.07    0.15 
   6  -5   5    0.34    0.21 
   6  -5   6    0.14    0.21 
   6  -5   7   -0.35    0.21 
   6  -6  -7    0.07    0.22 
   6  -6  -6   -0.08    0.14 
  -6   6   5    0.09    0.09 
   6  -6  -5    0.25    0.15 
  -6   6   4    0.17    0.08 
   6  -6  -4    0.06    0.14 
  -6   6   3    1.42    0.12 
   6  -6  -3    1.61    0.23 
   6  -6  -3    1.66    0.15 
  -6   6   2    0.07    0.04 
   6  -6  -2    0.19    0.09 
   6  -6  -2    0.14    0.05 
   6  -6  -1    6.38    0.30 
   6  -6  -1    8.12    0.39 
   6  -6   0    1.56    0.18 
   6  -6   0    1.52    0.16 
   6  -6   1    3.06    0.23 
   6  -6   1    3.25    0.22 
   6  -6   2    0.42    0.14 
   6  -6   2    0.58    0.11 
   6  -6   3    0.79    0.20 
   6  -6   3    0.88    0.13 
   6  -6   4    0.37    0.18 
   6  -6   5    1.32    0.29 
   6  -6   6    0.18    0.22 
   6  -7  -7   -0.03    0.20 
   6  -7  -6    0.01    0.17 
   6  -7  -5   -0.11    0.12 
  -6   7   4    0.92    0.12 
   6  -7  -4    1.06    0.23 
  -6   7   3    0.04    0.05 
   6  -7  -3    0.08    0.05 
   6  -7  -3    0.21    0.11 
   6  -7  -2    2.75    0.26 
   6  -7  -1   78.03    2.24 
   6  -7  -1   77.49    2.32 
   6  -7   0    0.05    0.07 
   6  -7   0   -0.01    0.09 
   6  -7   1    1.05    0.14 
   6  -7   1    0.77    0.16 
   6  -7   2   24.59    0.92 
   6  -7   2   26.53    0.86 
   6  -7   3    0.50    0.17 
   6  -7   4    2.91    0.34 
   6  -7   5    0.17    0.19 
   6  -7   6   -0.08    0.21 
   6  -8  -7    0.09    0.22 
   6  -8  -6    0.36    0.20 
   6  -8  -5    2.02    0.33 
  -6   8   4    0.04    0.07 
   6  -8  -4   -0.02    0.13 
  -6   8   3    0.20    0.06 
   6  -8  -3    0.07    0.05 
   6  -8  -3    0.16    0.12 
   6  -8  -2    0.97    0.18 
   6  -8  -2    0.74    0.12 
   6  -8  -1   24.67    0.82 
   6  -8  -1   25.34    0.90 
   6  -8   0    3.65    0.25 
   6  -8   0    3.67    0.26 
   6  -8   1    2.39    0.19 
   6  -8   1    2.42    0.23 
   6  -8   2    3.49    0.22 
   6  -8   2    3.31    0.30 
   6  -8   3    0.73    0.21 
   6  -8   4   -0.02    0.15 
   6  -8   5    2.19    0.36 
   6  -8   6    0.20    0.26 
   6  -9  -7    0.11    0.21 
   6  -9  -6    0.34    0.23 
   6  -9  -5    0.28    0.19 
   6  -9  -4    0.59    0.20 
  -6   9   3    1.16    0.09 
   6  -9  -3    1.35    0.17 
   6  -9  -3    1.39    0.24 
   6  -9  -2    1.58    0.23 
   6  -9  -2    1.50    0.16 
   6  -9  -1    8.88    0.44 
   6  -9  -1    8.78    0.39 
   6  -9   0    9.70    0.45 
   6  -9   0   10.13    0.45 
   6  -9   1    0.20    0.08 
   6  -9   1    0.15    0.14 
   6  -9   2    2.77    0.19 
   6  -9   2    2.49    0.29 
   6  -9   3    2.05    0.28 
   6  -9   4    1.18    0.26 
   6  -9   5    0.01    0.20 
   6  -9   6   -0.04    0.24 
   6 -10  -7    0.09    0.24 
   6 -10  -6   -0.13    0.18 
   6 -10  -5    0.22    0.19 
   6 -10  -4    2.28    0.32 
   6 -10  -3    1.06    0.16 
   6 -10  -3    0.93    0.21 
   6 -10  -2    6.35    0.34 
   6 -10  -2    6.43    0.40 
   6 -10  -1   18.70    0.69 
   6 -10  -1   18.60    0.74 
   6 -10   0    1.85    0.21 
   6 -10   0    1.50    0.19 
   6 -10   1   16.07    0.67 
   6 -10   1   15.48    0.60 
   6 -10   2   14.87    0.67 
   6 -10   2   15.06    0.56 
   6 -10   3    0.38    0.20 
   6 -10   4    2.18    0.32 
   6 -10   5    0.67    0.26 
   6 -10   6   -0.03    0.24 
   6 -11  -7    0.17    0.23 
   6 -11  -6   -0.03    0.17 
   6 -11  -5    0.28    0.21 
   6 -11  -4    0.73    0.24 
   6 -11  -3    2.03    0.22 
   6 -11  -3    2.00    0.28 
   6 -11  -2    2.65    0.29 
   6 -11  -2    2.50    0.22 
   6 -11  -1    8.22    0.44 
   6 -11  -1    8.32    0.40 
   6 -11   0    2.42    0.25 
   6 -11   0    2.64    0.24 
   6 -11   1   10.36    0.46 
   6 -11   1   11.42    0.56 
   6 -11   2    2.40    0.30 
   6 -11   3    0.80    0.23 
   6 -11   4    2.80    0.37 
   6 -11   5    0.49    0.26 
   6 -11   6    0.25    0.28 
   6 -12  -7    0.82    0.28 
   6 -12  -6   -0.09    0.18 
   6 -12  -5    0.18    0.21 
   6 -12  -4   -0.04    0.13 
   6 -12  -3    2.16    0.24 
   6 -12  -3    2.23    0.30 
   6 -12  -2    0.33    0.16 
   6 -12  -2    0.50    0.12 
   6 -12  -1   -0.08    0.08 
   6 -12  -1   -0.07    0.07 
   6 -12   0   56.92    1.72 
   6 -12   0   51.54    1.69 
   6 -12   1    1.39    0.26 
   6 -12   1    1.58    0.19 
   6 -12   2    0.60    0.23 
   6 -12   3    0.08    0.18 
   6 -12   4    0.04    0.20 
   6 -12   5   -0.13    0.19 
   6 -12   6    0.24    0.30 
   6 -13  -7    0.17    0.20 
   6 -13  -6   -0.11    0.19 
   6 -13  -5    0.14    0.21 
   6 -13  -4    0.68    0.21 
   6 -13  -4    1.04    0.24 
   6 -13  -3    1.79    0.29 
   6 -13  -3    1.96    0.25 
   6 -13  -2    1.95    0.27 
   6 -13  -2    1.71    0.21 
   6 -13  -1    0.92    0.18 
   6 -13  -1    1.38    0.22 
   6 -13   0    9.05    0.46 
   6 -13   0    9.68    0.50 
   6 -13   1    1.18    0.17 
   6 -13   1    0.69    0.23 
   6 -13   2    1.60    0.29 
   6 -13   3   -0.09    0.19 
   6 -13   4   -0.23    0.18 
   6 -13   5   -0.11    0.24 
   6 -13   6   -0.08    0.27 
   6 -14  -7    0.19    0.21 
   6 -14  -6   -0.05    0.23 
   6 -14  -5   -0.11    0.18 
   6 -14  -4    0.08    0.14 
   6 -14  -4    0.44    0.18 
   6 -14  -3    0.37    0.16 
   6 -14  -3   -0.04    0.13 
   6 -14  -2    0.99    0.19 
   6 -14  -2    0.92    0.20 
   6 -14  -1    1.45    0.23 
   6 -14  -1    1.05    0.20 
   6 -14   0    0.80    0.16 
   6 -14   0    0.38    0.19 
   6 -14   1   18.89    0.72 
   6 -14   1   17.75    0.79 
   6 -14   2    0.13    0.21 
   6 -14   3    0.75    0.26 
   6 -14   4    0.37    0.25 
   6 -14   5    0.24    0.26 
   6 -15  -6   -0.03    0.19 
   6 -15  -5    0.39    0.24 
   6 -15  -4    0.68    0.23 
   6 -15  -4    0.55    0.20 
   6 -15  -3    1.00    0.23 
   6 -15  -3    1.02    0.23 
   6 -15  -2   -0.06    0.11 
   6 -15  -2    0.04    0.12 
   6 -15  -1    1.57    0.24 
   6 -15  -1    1.64    0.23 
   6 -15   0   12.09    0.61 
   6 -15   0   13.26    0.59 
   6 -15   1   23.80    0.97 
   6 -15   2   -0.05    0.17 
   6 -15   3    0.33    0.22 
   6 -15   4    0.27    0.26 
   6 -15   5    0.17    0.26 
   6 -16  -6    0.52    0.26 
   6 -16  -5   -0.26    0.19 
   6 -16  -4    1.05    0.25 
   6 -16  -4    0.67    0.24 
   6 -16  -3    0.38    0.17 
   6 -16  -3    0.47    0.18 
   6 -16  -2    3.48    0.33 
   6 -16  -2    3.13    0.35 
   6 -16  -1    0.46    0.17 
   6 -16  -1    0.45    0.15 
   6 -16   0   19.67    0.82 
   6 -16   0   19.49    0.79 
   6 -16   1    0.99    0.25 
   6 -16   2    0.06    0.19 
   6 -16   3    0.12    0.23 
   6 -16   4   -0.04    0.24 
   6 -16   5    0.15    0.29 
   6 -17  -6   -0.09    0.19 
   6 -17  -5    0.26    0.23 
   6 -17  -4    0.44    0.22 
   6 -17  -4    0.62    0.23 
   6 -17  -3    0.00    0.13 
   6 -17  -3    0.04    0.14 
   6 -17  -2    9.85    0.54 
   6 -17  -2    9.03    0.55 
   6 -17  -1    1.03    0.21 
   6 -17  -1    0.67    0.19 
   6 -17   0    0.42    0.21 
   6 -17   0    0.53    0.16 
   6 -17   1    5.02    0.44 
   6 -17   2    0.08    0.21 
   6 -17   3    0.11    0.23 
   6 -17   4   -0.13    0.23 
   6 -17   5    0.15    0.29 
   6 -18  -6    0.26    0.24 
   6 -18  -5    0.20    0.25 
   6 -18  -4    0.08    0.17 
   6 -18  -4    0.25    0.18 
   6 -18  -3    0.66    0.22 
   6 -18  -3    0.80    0.22 
   6 -18  -2    4.47    0.40 
   6 -18  -2    5.11    0.41 
   6 -18  -1    1.56    0.26 
   6 -18  -1    1.20    0.24 
   6 -18   0   17.29    0.79 
   6 -18   0   16.31    0.73 
   6 -18   1    6.74    0.49 
   6 -18   2    0.24    0.20 
   6 -18   3    0.18    0.22 
   6 -18   4    0.22    0.28 
   6 -19  -5   -0.03    0.23 
   6 -19  -4    0.30    0.21 
   6 -19  -4    0.59    0.24 
   6 -19  -3    0.52    0.22 
   6 -19  -3    0.44    0.20 
   6 -19  -2    0.37    0.17 
   6 -19  -2    0.56    0.20 
   6 -19  -1    0.18    0.15 
   6 -19  -1    0.05    0.14 
   6 -19   0   21.11    0.93 
   6 -19   1    0.18    0.19 
   6 -19   2   -0.03    0.20 
   6 -19   3    0.54    0.25 
   6 -19   4   -0.11    0.24 
   6 -20  -5    0.15    0.26 
   6 -20  -4    0.31    0.22 
   6 -20  -4    0.04    0.24 
   6 -20  -3    0.18    0.19 
   6 -20  -3   -0.14    0.16 
   6 -20  -2    0.26    0.17 
   6 -20  -2    0.20    0.18 
   6 -20  -1    0.13    0.14 
   6 -20  -1   -0.09    0.16 
   6 -20   0    4.18    0.43 
   6 -20   1    0.16    0.18 
   6 -20   2    0.62    0.25 
   6 -20   3   -0.03    0.19 
   6 -20   4   -0.28    0.23 
   6 -21  -4    0.13    0.18 
   6 -21  -4    0.44    0.26 
   6 -21  -3   -0.09    0.15 
   6 -21  -3   -0.12    0.16 
   6 -21  -2    0.10    0.18 
   6 -21  -2    0.05    0.16 
   6 -21  -1    5.92    0.48 
   6 -21  -1    6.97    0.49 
   6 -21   0    0.36    0.21 
   6 -21   1    0.02    0.19 
   6 -21   2    0.41    0.22 
   6 -21   3    0.15    0.21 
   6 -22  -4    0.25    0.21 
   6 -22  -4   -0.06    0.25 
   6 -22  -3    0.04    0.22 
   6 -22  -3    0.23    0.19 
   6 -22  -2    0.36    0.22 
   6 -22  -2    0.49    0.21 
   6 -22  -1   12.11    0.71 
   6 -22   0    0.13    0.18 
   6 -22   1    0.88    0.25 
   6 -22   2    0.30    0.22 
   6 -22   3    0.23    0.23 
   6 -23  -4    0.33    0.20 
   6 -23  -3   -0.06    0.18 
   6 -23  -3    0.19    0.22 
   6 -23  -2    0.29    0.20 
   6 -23  -2   -0.05    0.17 
   6 -23  -1    0.15    0.20 
   6 -23   0    2.85    0.40 
   6 -23   1    0.31    0.21 
   6 -23   2    1.75    0.32 
  -6  24   3   -0.08    0.21 
   6 -24  -3    0.16    0.18 
   6 -24  -2    0.20    0.21 
   6 -24  -2    0.14    0.22 
   6 -24  -1    3.86    0.46 
   6 -24   0    0.96    0.25 
   6 -24   1    0.06    0.17 
   6 -24   2    1.19    0.27 
   6 -25  -2    0.15    0.19 
   6 -25  -1    3.16    0.41 
   6 -25   0    2.10    0.33 
   6 -25   1    0.42    0.20 
  -7 -25   1    0.57    0.32 
  -7 -25   0    0.22    0.30 
  -7 -24   1    0.43    0.29 
  -7 -24   0    0.22    0.28 
   7  24   0    0.54    0.19 
   7  24   1    0.12    0.15 
  -7 -23   1    0.17    0.23 
  -7 -23   0    0.44    0.26 
   7  23   0    0.16    0.19 
   7  23   1    0.10    0.17 
   7  23   2    3.13    0.39 
  -7 -22   4    0.25    0.16 
  -7 -22   3    0.17    0.16 
  -7 -22   1    2.18    0.37 
  -7 -22   0   -0.29    0.19 
   7  22   0   -0.03    0.15 
   7  22   1    0.84    0.23 
   7  22   2    0.08    0.15 
  -7 -21   4    0.06    0.18 
  -7 -21   3    0.04    0.16 
  -7 -21   2    0.12    0.15 
  -7 -21   1    0.19    0.18 
   7  21  -1    0.06    0.16 
  -7 -21   0    0.12    0.21 
   7  21   0   -0.11    0.14 
   7  21   1    0.22    0.18 
   7  21   2    0.28    0.17 
   7  21   3   -0.07    0.12 
  -7 -20   5    0.05    0.16 
  -7 -20   4   -0.06    0.15 
  -7 -20   3    0.27    0.17 
  -7 -20   2    0.65    0.22 
  -7 -20   2    1.00    0.18 
  -7 -20   1    0.06    0.17 
  -7 -20   1    0.13    0.13 
   7  20  -1    0.02    0.14 
  -7 -20   0    0.09    0.19 
   7  20   0    0.43    0.18 
   7  20   1   -0.03    0.16 
   7  20   2    0.00    0.16 
   7  20   3    0.49    0.19 
  -7 -19   5    0.23    0.20 
  -7 -19   4    0.06    0.16 
  -7 -19   3    0.13    0.17 
  -7 -19   2    0.42    0.18 
  -7 -19   2    0.16    0.13 
  -7 -19   1    0.99    0.24 
  -7 -19   1    1.03    0.19 
   7  19  -1    1.30    0.25 
  -7 -19   0    0.40    0.21 
   7  19   0    0.53    0.19 
   7  19   1    3.63    0.38 
   7  19   2    1.32    0.27 
   7  19   3    0.58    0.21 
   7  19   4    0.03    0.17 
  -7 -18   5   -0.05    0.16 
  -7 -18   4    0.04    0.16 
  -7 -18   3    0.27    0.15 
  -7 -18   2   -0.01    0.14 
  -7 -18   2    0.21    0.13 
  -7 -18   1    2.59    0.32 
  -7 -18   1    2.78    0.25 
   7  18  -1    3.15    0.32 
  -7 -18   0    3.07    0.37 
   7  18   0    2.98    0.33 
   7  18   1    1.14    0.25 
   7  18   2    0.35    0.18 
   7  18   3    1.74    0.31 
   7  18   4    0.10    0.23 
  -7 -17   6    0.30    0.18 
  -7 -17   5   -0.01    0.16 
  -7 -17   4   -0.01    0.15 
  -7 -17   3    1.26    0.21 
  -7 -17   2    1.04    0.19 
  -7 -17   2    1.15    0.22 
   7  17  -2    0.84    0.20 
  -7 -17   1    1.90    0.21 
  -7 -17   1    1.80    0.27 
   7  17  -1    1.77    0.26 
  -7 -17   0    2.95    0.34 
   7  17   0    3.03    0.32 
   7  17   1    0.10    0.14 
   7  17   2    0.08    0.15 
   7  17   3    0.07    0.16 
   7  17   4    0.10    0.21 
  -7 -16   6    2.32    0.34 
  -7 -16   5    0.29    0.19 
  -7 -16   4    0.95    0.22 
  -7 -16   3    0.20    0.14 
  -7 -16   2    0.81    0.19 
  -7 -16   2    0.72    0.16 
   7  16  -2    0.54    0.17 
  -7 -16   1    0.97    0.21 
  -7 -16   1    1.16    0.18 
   7  16  -1    1.31    0.23 
  -7 -16   0    2.41    0.30 
   7  16   0    2.39    0.30 
   7  16   1    0.02    0.12 
   7  16   2    0.31    0.18 
   7  16   3    0.46    0.20 
   7  16   4    0.07    0.19 
   7  16   5    0.11    0.24 
  -7 -15   6    1.91    0.31 
  -7 -15   5    0.11    0.18 
  -7 -15   4   -0.39    0.12 
  -7 -15   3    0.35    0.14 
  -7 -15   2    0.39    0.14 
  -7 -15   2    0.52    0.15 
   7  15  -2    0.43    0.15 
  -7 -15   1    0.21    0.14 
  -7 -15   1    0.22    0.11 
   7  15  -1    0.57    0.17 
  -7 -15   0    1.34    0.24 
   7  15   0    1.25    0.23 
   7  15   1    0.16    0.14 
   7  15   2    0.17    0.14 
   7  15   3    0.30    0.17 
   7  15   4    0.19    0.20 
   7  15   5   -0.04    0.23 
  -7 -14   6    0.88    0.23 
  -7 -14   5    0.10    0.17 
  -7 -14   4    0.08    0.14 
  -7 -14   3   -0.17    0.10 
   7  14  -3    0.12    0.06 
  -7 -14   2    0.07    0.11 
  -7 -14   2   -0.06    0.10 
   7  14  -2    0.04    0.08 
  -7 -14   1   10.43    0.43 
  -7 -14   1    9.79    0.50 
   7  14  -1    9.64    0.50 
   7  14   0    5.30    0.37 
   7  14   1   38.23    1.35 
   7  14   2    0.08    0.13 
   7  14   3    0.07    0.15 
   7  14   4    0.91    0.26 
   7  14   5    0.05    0.20 
  -7 -13   7    0.40    0.23 
  -7 -13   6    0.69    0.22 
  -7 -13   5    0.90    0.23 
  -7 -13   4    0.05    0.14 
  -7 -13   3    0.09    0.12 
   7  13  -3    0.06    0.05 
  -7 -13   2    2.53    0.24 
  -7 -13   2    2.92    0.24 
   7  13  -2    2.54    0.25 
  -7 -13   1    0.36    0.13 
  -7 -13   1    0.44    0.13 
   7  13  -1    0.65    0.17 
   7  13   0    0.09    0.12 
   7  13   1   28.30    1.06 
   7  13   2    0.00    0.11 
   7  13   3    0.89    0.22 
   7  13   4    0.02    0.15 
   7  13   5   -0.23    0.18 
  -7 -12   7    0.48    0.25 
  -7 -12   6    0.40    0.19 
  -7 -12   5    1.27    0.25 
  -7 -12   4    0.48    0.16 
  -7 -12   3    0.92    0.18 
   7  12  -3    0.88    0.15 
  -7 -12   2   -0.07    0.11 
  -7 -12   2    0.00    0.10 
   7  12  -2    0.09    0.08 
  -7 -12   1    0.50    0.14 
  -7 -12   1    0.55    0.13 
   7  12  -1    0.44    0.14 
   7  12   0    0.49    0.16 
   7  12   1    8.08    0.47 
   7  12   2    1.41    0.24 
   7  12   3    0.17    0.15 
   7  12   4    1.07    0.27 
   7  12   5    0.07    0.18 
  -7 -11   7    0.36    0.23 
  -7 -11   6    0.20    0.19 
  -7 -11   5    5.03    0.37 
  -7 -11   4    0.96    0.20 
  -7 -11   3    0.25    0.14 
   7  11  -3    0.37    0.12 
  -7 -11   2    6.20    0.32 
  -7 -11   2    6.13    0.32 
   7  11  -2    6.06    0.35 
  -7 -11   1    0.25    0.12 
  -7 -11   1    0.06    0.09 
   7  11  -1    0.23    0.09 
   7  11   0    2.00    0.24 
   7  11   1    0.48    0.16 
   7  11   2    1.73    0.26 
   7  11   3    0.35    0.14 
   7  11   4    1.20    0.24 
   7  11   5    0.43    0.22 
   7  11   6    0.01    0.22 
  -7 -10   7    0.28    0.23 
  -7 -10   6    0.30    0.20 
  -7 -10   5    1.25    0.24 
  -7 -10   4    0.38    0.14 
   7  10  -4    0.50    0.11 
  -7 -10   3    4.47    0.29 
   7  10  -3    3.62    0.25 
  -7 -10   2    4.33    0.28 
  -7 -10   2    4.27    0.25 
   7  10  -2    3.66    0.27 
  -7 -10   1    1.32    0.15 
  -7 -10   1    1.64    0.18 
   7  10  -1    1.28    0.19 
   7  10   0    3.16    0.25 
   7  10   1    0.54    0.15 
   7  10   2   28.21    1.06 
   7  10   3    5.88    0.41 
   7  10   4    0.19    0.15 
   7  10   5    0.92    0.24 
   7  10   6    0.15    0.23 
  -7  -9   7    0.77    0.24 
  -7  -9   6    0.94    0.23 
  -7  -9   5    0.64    0.19 
  -7  -9   4    1.56    0.23 
   7   9  -4    1.98    0.21 
  -7  -9   3    0.01    0.12 
   7   9  -3    0.10    0.07 
  -7  -9   2    1.92    0.19 
  -7  -9   2    2.66    0.18 
   7   9  -2    2.37    0.23 
  -7  -9   1    1.72    0.16 
   7   9  -1    1.52    0.20 
   7   9   0    1.38    0.19 
   7   9   1   -0.03    0.10 
   7   9   2   26.26    0.99 
   7   9   3    7.78    0.47 
   7   9   4    0.85    0.21 
   7   9   5    0.17    0.17 
   7   9   6   -0.12    0.18 
  -7  -8   7    0.27    0.20 
  -7  -8   6    0.02    0.16 
  -7  -8   5    0.08    0.15 
  -7  -8   4    0.34    0.15 
   7   8  -4    0.07    0.05 
  -7  -8   3    0.53    0.14 
   7   8  -3    0.37    0.11 
  -7  -8   2    0.45    0.09 
  -7  -8   2    0.41    0.11 
   7   8  -2    0.41    0.11 
  -7  -8   1    9.41    0.38 
   7   8  -1   10.27    0.47 
   7   8   0    1.21    0.18 
   7   8   1    8.59    0.45 
   7   8   2   59.81    1.90 
   7   8   3    0.09    0.12 
   7   8   4    0.19    0.13 
   7   8   5    0.21    0.15 
   7   8   6    0.06    0.18 
  -7  -7   7    1.43    0.29 
  -7  -7   6    0.23    0.18 
  -7  -7   5    0.13    0.14 
  -7  -7   4    0.81    0.18 
   7   7  -4    0.80    0.15 
  -7  -7   3   -0.03    0.09 
   7   7  -3    0.11    0.07 
  -7  -7   2    1.60    0.12 
  -7  -7   2    1.26    0.15 
   7   7  -2    1.62    0.19 
  -7  -7   1    2.38    0.17 
   7   7  -1    2.53    0.23 
   7   7   0    0.06    0.07 
   7   7   1    2.98    0.27 
   7   7   2    9.19    0.48 
   7   7   3    0.80    0.18 
   7   7   4    1.24    0.23 
   7   7   5   -0.04    0.13 
   7   7   6    0.69    0.24 
   7   7   6    0.54    0.23 
  -7  -6   8   -0.14    0.21 
  -7  -6   7    1.37    0.28 
  -7  -6   6   -0.16    0.13 
  -7  -6   5    0.28    0.15 
   7   6  -5    0.11    0.06 
  -7  -6   4   -0.06    0.10 
   7   6  -4    0.24    0.09 
  -7  -6   3   -0.04    0.08 
   7   6  -3    0.15    0.08 
  -7  -6   2    0.01    0.07 
   7   6  -2    0.03    0.07 
  -7  -6   1    0.22    0.08 
   7   6  -1    0.34    0.10 
   7   6   0    4.56    0.29 
   7   6   1   -0.01    0.07 
   7   6   2   16.07    0.67 
   7   6   3   12.26    0.59 
   7   6   4    0.07    0.12 
   7   6   5    0.07    0.14 
   7   6   6    0.04    0.18 
   7   6   6    0.22    0.18 
  -7  -5   8    0.06    0.23 
  -7  -5   7    0.92    0.26 
  -7  -5   6   -0.01    0.13 
  -7  -5   5    0.71    0.18 
   7   5  -5    0.81    0.16 
  -7  -5   4    0.47    0.16 
   7   5  -4    0.44    0.12 
  -7  -5   3    0.24    0.10 
   7   5  -3    0.17    0.09 
  -7  -5   2    0.13    0.08 
   7   5  -2    0.04    0.07 
  -7  -5   1    7.92    0.32 
   7   5  -1    8.07    0.39 
   7   5   0    2.19    0.22 
   7   5   1    0.78    0.15 
   7   5   2    4.68    0.32 
   7   5   3   39.68    1.34 
   7   5   4    0.03    0.12 
   7   5   5    0.35    0.16 
   7   5   5    0.23    0.21 
   7   5   6    0.40    0.21 
  -7  -4   8    0.93    0.29 
  -7  -4   7   -0.07    0.16 
  -7  -4   6   -0.03    0.13 
  -7  -4   5    1.34    0.22 
   7   4  -5    2.05    0.23 
  -7  -4   4   -0.01    0.11 
   7   4  -4    0.03    0.08 
  -7  -4   3    6.39    0.30 
   7   4  -3    5.61    0.34 
  -7  -4   2    0.06    0.07 
   7   4  -2    0.09    0.07 
  -7  -4   1    0.71    0.11 
   7   4  -1    0.38    0.11 
   7   4   0    7.14    0.37 
   7   4   1    3.94    0.27 
   7   4   2    9.47    0.46 
   7   4   3   36.30    1.24 
   7   4   4    0.10    0.11 
   7   4   5    3.48    0.34 
   7   4   5    2.62    0.37 
   7   4   6    0.29    0.21 
  -7  -3   8    0.31    0.23 
  -7  -3   7    0.29    0.19 
  -7  -3   6    0.43    0.17 
  -7  -3   5    1.36    0.21 
   7   3  -5    1.91    0.23 
  -7  -3   4    2.55    0.23 
   7   3  -4    3.26    0.26 
  -7  -3   3    0.93    0.14 
   7   3  -3    1.19    0.18 
  -7  -3   2   -0.08    0.05 
   7   3  -2    0.05    0.06 
  -7  -3   1   29.24    0.86 
   7   3  -1   29.21    0.99 
   7   3   0    5.91    0.33 
   7   3   1    5.16    0.31 
   7   3   2    7.63    0.40 
   7   3   3    5.62    0.35 
   7   3   4    2.53    0.34 
   7   3   4    2.49    0.27 
   7   3   5    1.70    0.32 
   7   3   5    2.17    0.28 
   7   3   6    0.27    0.20 
  -7  -2   8    0.23    0.22 
  -7  -2   7    0.35    0.19 
  -7  -2   6    1.53    0.24 
   7   2  -6    1.03    0.24 
  -7  -2   5    0.97    0.19 
   7   2  -5    0.89    0.21 
  -7  -2   4    0.12    0.11 
   7   2  -4    0.10    0.09 
  -7  -2   3    3.98    0.23 
   7   2  -3    3.62    0.27 
  -7  -2   2    0.10    0.07 
   7   2  -2    0.32    0.11 
  -7  -2   1    0.02    0.05 
   7   2  -1    0.10    0.04 
   7   2  -1    0.03    0.06 
   7   2   0    5.78    0.26 
   7   2   0    5.33    0.31 
   7   2   1    6.23    0.34 
   7   2   2    7.31    0.38 
   7   2   3    3.64    0.34 
   7   2   3    3.87    0.28 
   7   2   4    9.05    0.47 
   7   2   4    8.32    0.53 
   7   2   5    1.07    0.27 
   7   2   5    0.94    0.21 
   7   2   6   -0.10    0.16 
  -7  -1   8    0.02    0.20 
  -7  -1   7    0.00    0.16 
  -7  -1   6    1.26    0.22 
   7   1  -6    1.14    0.25 
  -7  -1   5    0.47    0.14 
   7   1  -5    0.57    0.18 
  -7  -1   4    1.22    0.17 
   7   1  -4    1.50    0.22 
  -7  -1   3    0.20    0.09 
   7   1  -3    0.18    0.10 
  -7  -1   2   -0.03    0.06 
   7   1  -2   -0.07    0.06 
  -7  -1   1    4.88    0.23 
   7   1  -1    5.03    0.19 
   7   1  -1    4.48    0.29 
   7   1   0    0.72    0.14 
   7   1   0    1.11    0.11 
   7   1   1   68.46    2.02 
   7   1   1   67.68    2.03 
   7   1   2    1.05    0.17 
   7   1   2    1.36    0.18 
   7   1   3    0.06    0.09 
   7   1   3    0.07    0.13 
   7   1   4    0.68    0.17 
   7   1   4    0.38    0.19 
   7   1   5    0.06    0.17 
   7   1   6    0.06    0.17 
  -7   0   8    0.31    0.23 
  -7   0   7    0.23    0.17 
  -7   0   6    3.62    0.32 
   7   0  -6    4.17    0.40 
  -7   0   5    0.10    0.11 
   7   0  -5   -0.17    0.12 
  -7   0   4    1.44    0.17 
   7   0  -4    1.20    0.20 
  -7   0   3    0.01    0.07 
   7   0  -3   -0.02    0.07 
  -7   0   2    2.42    0.16 
   7   0  -2    2.79    0.25 
  -7   0   1   -0.01    0.05 
   7   0  -1    0.03    0.07 
   7   0  -1    0.03    0.04 
   7   0   0    8.96    0.35 
   7   0   0    8.97    0.41 
   7   0   1    0.18    0.10 
   7   0   1   -0.10    0.08 
   7   0   2    0.40    0.12 
   7   0   2    0.39    0.11 
   7   0   3    0.08    0.08 
   7   0   3   -0.16    0.11 
   7   0   4   25.09    1.02 
   7   0   4   23.20    0.89 
   7   0   5    0.12    0.17 
   7   0   6    0.17    0.22 
  -7   1   8    0.02    0.20 
  -7   1   7    0.32    0.17 
  -7   1   6    1.59    0.23 
   7  -1  -6    1.20    0.27 
  -7   1   5    0.35    0.13 
   7  -1  -5    0.23    0.17 
  -7   1   4    1.29    0.16 
   7  -1  -4    0.97    0.19 
  -7   1   3    0.41    0.10 
   7  -1  -3    0.28    0.11 
  -7   1   2    0.06    0.06 
   7  -1  -2    0.08    0.07 
   7  -1  -1    4.41    0.19 
   7  -1  -1    4.48    0.29 
   7  -1   0    1.27    0.17 
   7  -1   1   72.14    2.12 
   7  -1   1   70.97    2.12 
   7  -1   2    1.68    0.19 
   7  -1   2    1.02    0.17 
   7  -1   3   -0.01    0.13 
   7  -1   3   -0.01    0.08 
   7  -1   4    0.29    0.20 
   7  -1   4    0.49    0.13 
   7  -1   5    0.20    0.19 
   7  -1   6    0.24    0.24 
  -7   2   7    0.32    0.16 
   7  -2  -7   -0.06    0.17 
  -7   2   6    1.18    0.20 
   7  -2  -6    1.19    0.28 
  -7   2   5    0.83    0.16 
   7  -2  -5    0.77    0.21 
  -7   2   4   -0.06    0.08 
   7  -2  -4    0.10    0.12 
  -7   2   3    3.91    0.21 
   7  -2  -3    4.29    0.31 
  -7   2   2    0.19    0.07 
   7  -2  -2    0.40    0.04 
   7  -2  -2    0.27    0.10 
   7  -2  -1   -0.01    0.06 
   7  -2  -1    0.10    0.07 
   7  -2   0    5.21    0.30 
   7  -2   1    5.77    0.32 
   7  -2   1    5.82    0.31 
   7  -2   2    6.82    0.38 
   7  -2   2    6.75    0.35 
   7  -2   3    4.51    0.29 
   7  -2   3    4.31    0.35 
   7  -2   4    9.82    0.47 
   7  -2   4    9.22    0.56 
   7  -2   5    1.05    0.26 
   7  -2   6   -0.08    0.21 
  -7   3   7   -0.03    0.14 
   7  -3  -7    0.07    0.20 
  -7   3   6    0.25    0.13 
   7  -3  -6    0.27    0.19 
  -7   3   5    1.43    0.18 
   7  -3  -5    2.04    0.29 
  -7   3   4    2.91    0.20 
   7  -3  -4    2.76    0.30 
  -7   3   3    1.10    0.12 
   7  -3  -3    1.09    0.19 
  -7   3   2    0.05    0.05 
   7  -3  -2   -0.04    0.07 
   7  -3  -2    0.07    0.03 
   7  -3  -1   30.73    0.92 
   7  -3  -1   31.13    1.06 
   7  -3   0    4.02    0.23 
   7  -3   0    5.42    0.31 
   7  -3   1    4.72    0.28 
   7  -3   1    5.16    0.29 
   7  -3   2    7.52    0.40 
   7  -3   2    7.09    0.37 
   7  -3   3    5.67    0.40 
   7  -3   3    5.35    0.32 
   7  -3   4    2.76    0.34 
   7  -3   5    2.13    0.34 
   7  -3   6   -0.22    0.21 
   7  -4  -7    0.20    0.22 
  -7   4   6    0.02    0.11 
   7  -4  -6    0.03    0.14 
  -7   4   5    1.34    0.17 
   7  -4  -5    2.24    0.31 
  -7   4   4   -0.05    0.08 
   7  -4  -4   -0.01    0.12 
  -7   4   3    6.68    0.28 
   7  -4  -3    6.82    0.40 
  -7   4   2    0.08    0.05 
   7  -4  -2    0.22    0.10 
   7  -4  -2    0.07    0.03 
   7  -4  -1    0.53    0.13 
   7  -4  -1    0.67    0.09 
   7  -4   0    8.05    0.35 
   7  -4   0    8.28    0.41 
   7  -4   1    3.66    0.24 
   7  -4   1    3.94    0.26 
   7  -4   2    9.66    0.43 
   7  -4   2    8.77    0.44 
   7  -4   3   36.86    1.20 
   7  -4   3   36.76    1.30 
   7  -4   4    0.28    0.18 
   7  -4   5    2.50    0.37 
   7  -4   6    0.21    0.24 
   7  -5  -7    0.93    0.29 
  -7   5   6    0.03    0.11 
   7  -5  -6   -0.13    0.15 
  -7   5   5    0.89    0.14 
   7  -5  -5    0.79    0.21 
  -7   5   4    0.76    0.12 
   7  -5  -4    0.43    0.18 
  -7   5   3    0.07    0.06 
   7  -5  -3    0.09    0.09 
  -7   5   2    0.03    0.05 
   7  -5  -2    0.11    0.04 
   7  -5  -2    0.07    0.08 
   7  -5  -1    8.24    0.42 
   7  -5  -1    8.65    0.35 
   7  -5   0    2.29    0.22 
   7  -5   0    2.63    0.20 
   7  -5   1    0.67    0.14 
   7  -5   1    1.04    0.16 
   7  -5   2    4.57    0.31 
   7  -5   2    4.26    0.27 
   7  -5   3   37.27    1.18 
   7  -5   3   35.10    1.26 
   7  -5   4    0.10    0.16 
   7  -5   5    0.36    0.22 
   7  -5   6    0.11    0.23 
   7  -6  -7    1.78    0.36 
   7  -6  -6   -0.22    0.14 
  -7   6   5    0.44    0.11 
   7  -6  -5    0.59    0.21 
  -7   6   4   -0.02    0.07 
   7  -6  -4   -0.14    0.12 
  -7   6   3    0.10    0.06 
   7  -6  -3    0.01    0.11 
   7  -6  -3    0.22    0.07 
   7  -6  -2   -0.05    0.08 
   7  -6  -2    0.18    0.06 
   7  -6  -1    0.14    0.09 
   7  -6  -1    0.04    0.02 
   7  -6   0    4.76    0.30 
   7  -6   0    4.84    0.28 
   7  -6   1    0.21    0.11 
   7  -6   1    0.11    0.08 
   7  -6   2   16.27    0.62 
   7  -6   2   15.07    0.66 
   7  -6   3   12.45    0.63 
   7  -6   3   12.93    0.53 
   7  -6   4    0.36    0.19 
   7  -6   5    0.32    0.22 
   7  -6   6    0.07    0.25 
   7  -7  -7    2.08    0.38 
   7  -7  -6    0.26    0.21 
   7  -7  -5   -0.10    0.15 
  -7   7   4    0.78    0.11 
   7  -7  -4    0.79    0.21 
  -7   7   3   -0.07    0.05 
   7  -7  -3    0.05    0.05 
   7  -7  -3   -0.05    0.11 
   7  -7  -2    1.89    0.23 
   7  -7  -2    1.72    0.15 
   7  -7  -1    2.43    0.19 
   7  -7  -1    2.47    0.25 
   7  -7   0    0.09    0.11 
   7  -7   0   -0.01    0.07 
   7  -7   1    3.32    0.26 
   7  -7   1    2.80    0.22 
   7  -7   2    9.49    0.44 
   7  -7   2    9.24    0.49 
   7  -7   3    0.62    0.23 
   7  -7   4    1.19    0.27 
   7  -7   5   -0.02    0.21 
   7  -7   6    0.33    0.30 
   7  -8  -7    0.18    0.23 
   7  -8  -6   -0.05    0.18 
   7  -8  -5    0.22    0.17 
   7  -8  -4    0.12    0.15 
  -7   8   3    0.40    0.07 
   7  -8  -3    0.50    0.11 
   7  -8  -3    0.21    0.13 
   7  -8  -2    0.39    0.13 
   7  -8  -1   11.29    0.53 
   7  -8  -1   10.42    0.44 
   7  -8   0    1.34    0.18 
   7  -8   0    0.95    0.17 
   7  -8   1   10.58    0.47 
   7  -8   1   10.84    0.50 
   7  -8   2   61.68    1.83 
   7  -8   2   58.66    1.90 
   7  -8   3    0.04    0.18 
   7  -8   4    0.21    0.18 
   7  -8   5   -0.04    0.18 
   7  -8   6   -0.30    0.22 
   7  -9  -7    0.39    0.26 
   7  -9  -6    0.53    0.23 
   7  -9  -5    0.85    0.26 
   7  -9  -4    1.75    0.30 
   7  -9  -3    0.03    0.04 
   7  -9  -3    0.19    0.13 
   7  -9  -2    2.32    0.26 
   7  -9  -2    2.31    0.19 
   7  -9  -1    2.07    0.24 
   7  -9  -1    1.90    0.19 
   7  -9   0    1.47    0.19 
   7  -9   0    1.52    0.20 
   7  -9   1    0.39    0.16 
   7  -9   2   27.29    1.03 
   7  -9   2   27.55    0.94 
   7  -9   3    7.27    0.48 
   7  -9   4    0.91    0.25 
   7  -9   5    0.01    0.22 
   7  -9   6   -0.05    0.25 
   7 -10  -7    0.24    0.23 
   7 -10  -6    0.21    0.21 
   7 -10  -5    1.45    0.30 
   7 -10  -4    0.49    0.21 
   7 -10  -3    3.97    0.27 
   7 -10  -3    3.70    0.36 
   7 -10  -2    4.10    0.26 
   7 -10  -2    4.01    0.35 
   7 -10  -1    1.40    0.21 
   7 -10  -1    1.43    0.18 
   7 -10   0    3.57    0.28 
   7 -10   0    3.62    0.27 
   7 -10   1    0.34    0.11 
   7 -10   1    0.12    0.18 
   7 -10   2   27.89    0.95 
   7 -10   2   28.41    1.06 
   7 -10   3    5.32    0.41 
   7 -10   4    0.57    0.25 
   7 -10   5    1.60    0.33 
   7 -10   6   -0.18    0.24 
   7 -11  -7    0.40    0.23 
   7 -11  -6    0.42    0.24 
   7 -11  -5    3.73    0.45 
   7 -11  -4    0.81    0.24 
   7 -11  -3    0.08    0.13 
   7 -11  -3    0.35    0.11 
   7 -11  -2    6.59    0.43 
   7 -11  -2    6.37    0.35 
   7 -11  -1    0.12    0.09 
   7 -11  -1    0.16    0.10 
   7 -11   0    1.87    0.22 
   7 -11   0    2.14    0.24 
   7 -11   1    0.17    0.09 
   7 -11   1    0.06    0.19 
   7 -11   2    1.62    0.28 
   7 -11   3    0.33    0.21 
   7 -11   4    1.13    0.30 
   7 -11   5    0.17    0.23 
   7 -11   6   -0.56    0.23 
   7 -12  -7    0.58    0.26 
   7 -12  -6   -0.11    0.19 
   7 -12  -5    1.32    0.30 
   7 -12  -4    0.47    0.19 
   7 -12  -4    0.57    0.18 
   7 -12  -3    0.91    0.16 
   7 -12  -3    0.95    0.23 
   7 -12  -2   -0.03    0.06 
   7 -12  -2    0.20    0.14 
   7 -12  -1    0.38    0.15 
   7 -12  -1    0.30    0.12 
   7 -12   0    0.58    0.20 
   7 -12   0    0.61    0.15 
   7 -12   1    7.93    0.40 
   7 -12   1    7.22    0.46 
   7 -12   2    1.68    0.28 
   7 -12   3    0.16    0.19 
   7 -12   4    0.83    0.27 
   7 -12   5   -0.31    0.20 
   7 -13  -7    0.30    0.23 
   7 -13  -6    0.55    0.27 
   7 -13  -5    0.58    0.27 
   7 -13  -4   -0.01    0.13 
   7 -13  -4    0.20    0.15 
   7 -13  -3    0.05    0.11 
   7 -13  -3   -0.02    0.13 
   7 -13  -2    2.80    0.32 
   7 -13  -2    2.43    0.26 
   7 -13  -1    0.48    0.15 
   7 -13  -1    0.63    0.18 
   7 -13   0    0.15    0.17 
   7 -13   0    0.26    0.12 
   7 -13   1   25.26    0.95 
   7 -13   1   29.78    1.06 
   7 -13   2    0.23    0.19 
   7 -13   3    1.45    0.29 
   7 -13   4   -0.04    0.18 
   7 -13   5   -0.10    0.25 
   7 -14  -6    0.52    0.27 
   7 -14  -5   -0.23    0.18 
   7 -14  -4    0.21    0.17 
   7 -14  -4   -0.03    0.15 
   7 -14  -3    0.01    0.12 
   7 -14  -3    0.18    0.13 
   7 -14  -2    0.06    0.11 
   7 -14  -2   -0.03    0.11 
   7 -14  -1    9.40    0.51 
   7 -14  -1    9.52    0.50 
   7 -14   0    4.96    0.39 
   7 -14   0    5.02    0.34 
   7 -14   1   38.00    1.35 
   7 -14   1   37.83    1.26 
   7 -14   2    0.17    0.21 
   7 -14   3   -0.12    0.21 
   7 -14   4    1.52    0.34 
   7 -14   5    0.34    0.29 
   7 -15  -6    2.59    0.46 
   7 -15  -5   -0.12    0.19 
   7 -15  -4    0.17    0.15 
   7 -15  -4   -0.08    0.15 
   7 -15  -3    0.50    0.17 
   7 -15  -3    0.59    0.19 
   7 -15  -2    0.36    0.16 
   7 -15  -2    0.61    0.17 
   7 -15  -1    0.40    0.15 
   7 -15  -1    0.35    0.16 
   7 -15   0    1.20    0.19 
   7 -15   0    1.14    0.24 
   7 -15   1    0.18    0.18 
   7 -15   2    0.16    0.21 
   7 -15   3    0.25    0.22 
   7 -15   4    0.50    0.26 
   7 -15   5   -0.14    0.25 
   7 -16  -6    1.68    0.36 
   7 -16  -5   -0.40    0.18 
   7 -16  -4    1.13    0.25 
   7 -16  -4    1.15    0.28 
   7 -16  -3    0.30    0.16 
   7 -16  -3    0.37    0.18 
   7 -16  -2    0.71    0.20 
   7 -16  -2    0.68    0.18 
   7 -16  -1    1.21    0.23 
   7 -16  -1    1.35    0.24 
   7 -16   0    2.28    0.30 
   7 -16   0    2.08    0.26 
   7 -16   1   -0.05    0.19 
   7 -16   2    0.73    0.25 
   7 -16   3    0.30    0.24 
   7 -16   4    0.03    0.21 
   7 -16   5   -0.15    0.27 
   7 -17  -6    0.27    0.20 
   7 -17  -5    0.04    0.22 
   7 -17  -4    0.05    0.16 
   7 -17  -4   -0.13    0.15 
   7 -17  -3    0.84    0.22 
   7 -17  -3    0.79    0.22 
   7 -17  -2    1.16    0.24 
   7 -17  -2    1.06    0.23 
   7 -17  -1    1.96    0.28 
   7 -17  -1    1.92    0.27 
   7 -17   0    2.97    0.31 
   7 -17   0    2.88    0.33 
   7 -17   1    0.23    0.20 
   7 -17   2    0.06    0.22 
   7 -17   3    0.30    0.25 
   7 -17   4   -0.09    0.20 
   7 -18  -5    0.01    0.24 
   7 -18  -4   -0.21    0.18 
   7 -18  -4    0.06    0.16 
   7 -18  -3    0.21    0.17 
   7 -18  -3    0.10    0.15 
   7 -18  -2    0.25    0.14 
   7 -18  -2    0.04    0.14 
   7 -18  -1    2.38    0.31 
   7 -18  -1    3.03    0.34 
   7 -18   0    3.43    0.37 
   7 -18   1    1.50    0.31 
   7 -18   2    0.14    0.21 
   7 -18   3    2.07    0.36 
   7 -18   4   -0.31    0.20 
   7 -19  -5    0.36    0.27 
   7 -19  -4    0.03    0.19 
   7 -19  -4   -0.10    0.17 
   7 -19  -3    0.01    0.16 
   7 -19  -3    0.11    0.19 
   7 -19  -2    0.29    0.15 
   7 -19  -2    0.28    0.18 
   7 -19  -1    0.86    0.22 
   7 -19  -1    0.97    0.23 
   7 -19   0    0.71    0.23 
   7 -19   1    3.58    0.41 
   7 -19   2    1.90    0.35 
   7 -19   3    0.81    0.27 
   7 -19   4    0.02    0.23 
   7 -20  -5   -0.21    0.26 
   7 -20  -4   -0.28    0.18 
   7 -20  -4    0.11    0.19 
   7 -20  -3    0.02    0.18 
   7 -20  -3    0.31    0.21 
   7 -20  -2    0.62    0.22 
   7 -20  -2    0.64    0.21 
   7 -20  -1   -0.03    0.13 
   7 -20  -1    0.27    0.19 
   7 -20   0    0.22    0.19 
   7 -20   1    0.24    0.22 
   7 -20   2    0.12    0.18 
   7 -20   3    0.35    0.25 
   7 -21  -4    0.09    0.20 
   7 -21  -4    0.01    0.22 
   7 -21  -3    0.04    0.17 
   7 -21  -3   -0.16    0.17 
   7 -21  -2    0.47    0.21 
   7 -21  -2    0.20    0.17 
   7 -21  -1    0.18    0.18 
   7 -21  -1    0.11    0.18 
   7 -21   0    0.47    0.23 
   7 -21   1    0.24    0.21 
   7 -21   2    0.32    0.22 
   7 -21   3    0.06    0.22 
   7 -22  -4    0.20    0.19 
   7 -22  -4    0.00    0.27 
   7 -22  -3   -0.03    0.20 
   7 -22  -3    0.02    0.18 
   7 -22  -2    0.24    0.20 
   7 -22  -2    0.35    0.20 
   7 -22  -1    2.23    0.36 
   7 -22   0    0.24    0.19 
   7 -22   1    0.96    0.28 
   7 -22   2    0.12    0.20 
   7 -23  -3   -0.14    0.20 
   7 -23  -3    0.16    0.17 
   7 -23  -2    0.95    0.29 
   7 -23  -2    0.69    0.23 
   7 -23  -1    0.29    0.19 
   7 -23   0    0.15    0.19 
   7 -23   1    0.08    0.19 
   7 -23   2    3.52    0.44 
   7 -24  -2    0.32    0.19 
   7 -24  -1    0.97    0.25 
   7 -24   0    0.47    0.18 
   7 -24   1    1.21    0.24 
   7 -25  -1    0.45    0.17 
   8  24   0   -0.03    0.15 
   8  23   0    0.11    0.18 
   8  23   1    0.30    0.17 
  -8 -22   3    0.14    0.16 
   8  22   0   -0.09    0.15 
   8  22   1    0.39    0.20 
   8  22   2    0.74    0.21 
  -8 -21   4    0.06    0.17 
  -8 -21   3    0.16    0.16 
  -8 -21   2    0.07    0.14 
   8  21  -1    0.42    0.21 
   8  21   0    0.26    0.19 
   8  21   1    0.00    0.14 
   8  21   2    0.44    0.21 
  -8 -20   4    0.08    0.15 
  -8 -20   3   -0.14    0.14 
  -8 -20   2    0.36    0.15 
  -8 -20   1    0.11    0.13 
  -8 -20   1    0.08    0.18 
   8  20  -1    0.39    0.19 
   8  20   0   -0.04    0.16 
   8  20   1    0.02    0.15 
   8  20   2    0.67    0.23 
   8  20   3    2.24    0.33 
  -8 -19   5    0.84    0.22 
  -8 -19   4    0.05    0.16 
  -8 -19   3    0.17    0.16 
  -8 -19   2    0.22    0.15 
  -8 -19   1   -0.01    0.15 
  -8 -19   1    0.11    0.12 
   8  19  -1    0.01    0.14 
   8  19   0   -0.03    0.15 
   8  19   1    0.07    0.14 
   8  19   2    0.74    0.23 
   8  19   3    0.24    0.16 
  -8 -18   5    0.83    0.23 
  -8 -18   4   -0.10    0.15 
  -8 -18   3    0.12    0.15 
  -8 -18   2    0.09    0.13 
   8  18  -2   -0.08    0.14 
  -8 -18   1    0.41    0.15 
  -8 -18   1    0.79    0.22 
   8  18  -1    0.86    0.22 
   8  18   0   -0.02    0.13 
   8  18   1    0.41    0.17 
   8  18   2    0.24    0.17 
   8  18   3    0.08    0.16 
   8  18   4    0.01    0.24 
  -8 -17   6    3.10    0.37 
  -8 -17   5    0.06    0.17 
  -8 -17   4    0.23    0.18 
  -8 -17   3    0.28    0.17 
  -8 -17   2    0.28    0.13 
   8  17  -2    0.26    0.16 
  -8 -17   1    0.27    0.17 
  -8 -17   1    0.14    0.12 
   8  17  -1    0.11    0.16 
   8  17   0    0.92    0.22 
   8  17   1    2.34    0.32 
   8  17   2   -0.07    0.13 
   8  17   3    0.98    0.27 
   8  17   4    1.94    0.38 
  -8 -16   6    1.32    0.27 
  -8 -16   5    0.33    0.20 
  -8 -16   4   -0.02    0.14 
  -8 -16   3    0.34    0.17 
  -8 -16   2   -0.03    0.10 
   8  16  -2    0.22    0.14 
  -8 -16   1    1.16    0.22 
  -8 -16   1    1.47    0.19 
   8  16  -1    1.35    0.25 
   8  16   0    1.67    0.27 
   8  16   1    0.11    0.14 
   8  16   2   -0.18    0.13 
   8  16   3    0.78    0.23 
   8  16   4    0.22    0.24 
  -8 -15   6    2.63    0.36 
  -8 -15   5    0.08    0.17 
  -8 -15   4   -0.06    0.15 
  -8 -15   3   -0.05    0.14 
  -8 -15   2    0.22    0.13 
   8  15  -2    0.23    0.14 
  -8 -15   1    0.06    0.11 
  -8 -15   1    0.00    0.12 
   8  15  -1   -0.06    0.12 
   8  15   0    0.94    0.21 
   8  15   1    6.96    0.46 
   8  15   2    0.76    0.22 
   8  15   3    0.23    0.18 
   8  15   4    5.94    0.54 
   8  15   5    0.20    0.26 
  -8 -14   6    0.11    0.19 
  -8 -14   5    1.05    0.25 
  -8 -14   4    0.05    0.16 
  -8 -14   3    0.24    0.14 
   8  14  -3    0.24    0.13 
  -8 -14   2    0.62    0.15 
   8  14  -2    0.60    0.18 
  -8 -14   1    6.44    0.34 
  -8 -14   1    6.11    0.38 
   8  14  -1    6.61    0.41 
   8  14   0    2.41    0.30 
   8  14   1    0.23    0.16 
   8  14   2   -0.18    0.12 
   8  14   3    0.20    0.18 
   8  14   4    0.41    0.24 
   8  14   5   -0.37    0.20 
  -8 -13   6    2.63    0.35 
  -8 -13   5    5.42    0.43 
  -8 -13   4    0.17    0.15 
  -8 -13   3    0.01    0.12 
   8  13  -3    0.02    0.11 
  -8 -13   2    1.81    0.21 
   8  13  -2    1.87    0.24 
  -8 -13   1    0.35    0.12 
  -8 -13   1    0.39    0.13 
   8  13  -1    0.47    0.17 
   8  13   0   -0.01    0.13 
   8  13   1    0.20    0.14 
   8  13   2    1.67    0.28 
   8  13   3    0.01    0.15 
   8  13   4    0.25    0.21 
   8  13   5   -0.04    0.22 
  -8 -12   7   -0.15    0.20 
  -8 -12   6    0.07    0.18 
  -8 -12   5    4.24    0.39 
  -8 -12   4   -0.14    0.11 
  -8 -12   3    1.03    0.19 
   8  12  -3    0.50    0.13 
  -8 -12   2    0.53    0.14 
   8  12  -2    0.26    0.14 
  -8 -12   1    0.07    0.09 
   8  12  -1    0.34    0.13 
   8  12   0    0.33    0.16 
   8  12   1    0.80    0.20 
   8  12   2    8.16    0.50 
   8  12   3    3.41    0.38 
   8  12   4    0.19    0.18 
   8  12   5    0.62    0.26 
  -8 -11   7    0.37    0.23 
  -8 -11   6    0.38    0.21 
  -8 -11   5    0.43    0.19 
  -8 -11   4    0.26    0.15 
  -8 -11   3    0.07    0.13 
   8  11  -3    0.35    0.12 
  -8 -11   2    2.34    0.22 
   8  11  -2    2.05    0.24 
  -8 -11   1    4.70    0.28 
   8  11  -1    5.21    0.35 
   8  11   0    2.58    0.28 
   8  11   1    0.40    0.16 
   8  11   2   13.28    0.66 
   8  11   3    4.61    0.41 
   8  11   4    0.24    0.18 
   8  11   5    1.47    0.30 
  -8 -10   7    1.32    0.29 
  -8 -10   6    0.11    0.19 
  -8 -10   5    3.38    0.33 
  -8 -10   4    2.62    0.28 
   8  10  -4    2.95    0.27 
  -8 -10   3   -0.02    0.12 
   8  10  -3    0.18    0.09 
  -8 -10   2    3.85    0.25 
  -8 -10   2    4.14    0.24 
   8  10  -2    3.97    0.29 
  -8 -10   1    1.17    0.16 
   8  10  -1    1.26    0.21 
   8  10   0    0.28    0.14 
   8  10   1    0.19    0.14 
   8  10   2    4.39    0.37 
   8  10   3    9.99    0.56 
   8  10   4    0.09    0.15 
   8  10   5    0.55    0.24 
  -8  -9   7    0.35    0.22 
  -8  -9   6    0.14    0.19 
  -8  -9   5    2.48    0.29 
  -8  -9   4    0.28    0.15 
   8   9  -4    0.40    0.11 
  -8  -9   3    4.67    0.30 
   8   9  -3    4.43    0.30 
  -8  -9   2    3.31    0.23 
  -8  -9   2    3.39    0.20 
   8   9  -2    2.90    0.26 
  -8  -9   1    3.55    0.24 
   8   9  -1    3.19    0.28 
   8   9   0    0.01    0.12 
   8   9   1    1.37    0.23 
   8   9   2    2.18    0.28 
   8   9   3    0.68    0.20 
   8   9   4    0.25    0.16 
   8   9   5   -0.05    0.17 
   8   9   6    0.17    0.28 
  -8  -8   7    1.15    0.28 
  -8  -8   6    0.44    0.19 
  -8  -8   5    2.79    0.30 
  -8  -8   4    4.58    0.31 
   8   8  -4    4.94    0.32 
  -8  -8   3   -0.03    0.12 
   8   8  -3    0.12    0.08 
  -8  -8   2    1.21    0.16 
   8   8  -2    1.46    0.19 
  -8  -8   1    4.18    0.25 
   8   8  -1    5.15    0.33 
   8   8   0    0.20    0.12 
   8   8   1    0.43    0.16 
   8   8   2    3.07    0.32 
   8   8   3    5.20    0.39 
   8   8   4    1.02    0.25 
   8   8   5    0.31    0.21 
   8   8   6    1.07    0.28 
   8   8   6    0.96    0.29 
  -8  -7   7   -0.01    0.19 
  -8  -7   6   -0.14    0.13 
  -8  -7   5    0.21    0.13 
   8   7  -5   -0.07    0.12 
  -8  -7   4    1.50    0.22 
   8   7  -4    1.14    0.19 
  -8  -7   3    0.20    0.12 
   8   7  -3    0.12    0.09 
  -8  -7   2    5.67    0.30 
   8   7  -2    5.88    0.35 
  -8  -7   1    0.55    0.12 
   8   7  -1    0.37    0.12 
   8   7   0    0.05    0.08 
   8   7   1   -0.06    0.10 
   8   7   2   26.78    1.01 
   8   7   3    7.06    0.45 
   8   7   4    0.87    0.22 
   8   7   5    1.28    0.28 
   8   7   6    0.10    0.20 
   8   7   6    0.53    0.21 
  -8  -6   7    0.40    0.22 
  -8  -6   6    0.40    0.17 
  -8  -6   5    0.01    0.13 
   8   6  -5    0.02    0.13 
  -8  -6   4    0.05    0.12 
   8   6  -4    0.48    0.13 
  -8  -6   3    0.66    0.15 
   8   6  -3    0.63    0.14 
  -8  -6   2    2.47    0.20 
   8   6  -2    2.35    0.24 
  -8  -6   1    0.07    0.06 
   8   6  -1    0.13    0.08 
   8   6   0    0.07    0.08 
   8   6   1    0.12    0.11 
   8   6   2    7.02    0.43 
   8   6   3   24.74    0.97 
   8   6   4    4.39    0.35 
   8   6   5    2.69    0.34 
   8   6   5    2.59    0.40 
   8   6   6    0.37    0.20 
  -8  -5   7    0.50    0.20 
  -8  -5   6    0.94    0.21 
  -8  -5   5    2.66    0.27 
   8   5  -5    3.06    0.32 
  -8  -5   4    1.54    0.20 
   8   5  -4    1.39    0.21 
  -8  -5   3    3.52    0.24 
   8   5  -3    3.68    0.31 
  -8  -5   2    4.50    0.25 
   8   5  -2    4.18    0.29 
  -8  -5   1    1.62    0.16 
   8   5  -1    1.78    0.21 
   8   5   0    1.64    0.20 
   8   5   1    0.11    0.10 
   8   5   2    7.22    0.43 
   8   5   3    6.59    0.42 
   8   5   4    2.70    0.31 
   8   5   5    1.71    0.28 
   8   5   5    2.39    0.38 
   8   5   6    0.34    0.20 
  -8  -4   7    0.42    0.21 
  -8  -4   6    1.68    0.25 
  -8  -4   5    2.85    0.27 
   8   4  -5    3.45    0.34 
  -8  -4   4    0.63    0.16 
   8   4  -4    0.60    0.16 
  -8  -4   3    0.84    0.15 
   8   4  -3    1.04    0.18 
  -8  -4   2    4.00    0.23 
   8   4  -2    3.65    0.27 
  -8  -4   1   -0.08    0.05 
   8   4  -1    0.06    0.08 
   8   4   0    2.83    0.26 
   8   4   1    0.64    0.15 
   8   4   2    0.00    0.10 
   8   4   3    9.17    0.49 
   8   4   4   -0.25    0.16 
   8   4   4    0.01    0.13 
   8   4   5    0.10    0.18 
   8   4   5   -0.04    0.14 
   8   4   6    0.40    0.19 
  -8  -3   8    0.04    0.19 
  -8  -3   7    0.57    0.21 
  -8  -3   6    0.55    0.18 
   8   3  -6    0.76    0.23 
  -8  -3   5    1.37    0.21 
   8   3  -5    1.59    0.26 
  -8  -3   4    2.22    0.22 
   8   3  -4    2.19    0.26 
  -8  -3   3    0.63    0.13 
   8   3  -3    0.51    0.14 
  -8  -3   2    2.16    0.18 
   8   3  -2    2.42    0.24 
  -8  -3   1    4.00    0.22 
   8   3  -1    4.21    0.18 
   8   3  -1    3.57    0.27 
   8   3   0    2.88    0.26 
   8   3   1    6.62    0.38 
   8   3   2    6.31    0.38 
   8   3   3   24.27    0.97 
   8   3   3   23.19    0.91 
   8   3   4   16.95    0.82 
   8   3   4   17.02    0.74 
   8   3   5    0.68    0.25 
   8   3   5    0.79    0.21 
   8   3   6   -0.02    0.18 
  -8  -2   8    0.01    0.21 
  -8  -2   7    0.07    0.15 
  -8  -2   6    0.12    0.14 
   8   2  -6    0.09    0.16 
  -8  -2   5    0.93    0.17 
   8   2  -5    0.53    0.19 
  -8  -2   4    0.04    0.11 
   8   2  -4    0.09    0.11 
  -8  -2   3    1.25    0.16 
   8   2  -3    0.94    0.18 
  -8  -2   2    1.10    0.14 
   8   2  -2    1.01    0.18 
  -8  -2   1    0.09    0.07 
   8   2  -1    0.16    0.09 
   8   2  -1    0.21    0.05 
   8   2   0    0.47    0.09 
   8   2   0    0.64    0.13 
   8   2   1   17.85    0.71 
   8   2   1   17.43    0.66 
   8   2   2    2.77    0.27 
   8   2   2    2.12    0.24 
   8   2   3   27.42    1.00 
   8   2   3   27.15    1.05 
   8   2   4    0.43    0.16 
   8   2   4   -0.05    0.18 
   8   2   5    1.31    0.31 
   8   2   5    1.19    0.24 
   8   2   6    0.48    0.23 
  -8  -1   8    0.06    0.20 
  -8  -1   7    0.04    0.17 
  -8  -1   6    0.44    0.15 
   8   1  -6    0.50    0.19 
  -8  -1   5    0.71    0.16 
   8   1  -5    0.69    0.19 
  -8  -1   4    0.27    0.11 
   8   1  -4   -0.05    0.11 
  -8  -1   3    0.15    0.08 
   8   1  -3    0.12    0.09 
  -8  -1   2    7.03    0.30 
   8   1  -2    6.69    0.39 
  -8  -1   1    2.49    0.17 
   8   1  -1    1.95    0.22 
   8   1  -1    2.42    0.13 
   8   1   0    0.18    0.06 
   8   1   0    0.21    0.10 
   8   1   1    2.40    0.21 
   8   1   1    2.29    0.23 
   8   1   2    8.81    0.46 
   8   1   2    9.14    0.45 
   8   1   3   -0.22    0.14 
   8   1   3    0.34    0.14 
   8   1   4   21.75    0.97 
   8   1   4   23.56    0.90 
   8   1   5    0.10    0.19 
   8   1   6    0.03    0.20 
  -8   0   8   -0.03    0.19 
  -8   0   7   -0.04    0.14 
  -8   0   6    9.29    0.46 
   8   0  -6    8.81    0.56 
  -8   0   5    0.08    0.11 
   8   0  -5    0.17    0.15 
  -8   0   4    0.52    0.13 
   8   0  -4    0.66    0.19 
  -8   0   3   -0.02    0.08 
   8   0  -3    0.00    0.08 
  -8   0   2    9.70    0.37 
   8   0  -2    8.88    0.47 
   8   0  -1    0.00    0.08 
   8   0  -1    0.01    0.05 
   8   0   0    3.42    0.19 
   8   0   0    2.63    0.24 
   8   0   1   -0.10    0.06 
   8   0   1   -0.03    0.08 
   8   0   2    8.80    0.44 
   8   0   2    8.92    0.46 
   8   0   3    0.06    0.10 
   8   0   3   -0.14    0.14 
   8   0   4    8.30    0.47 
   8   0   4    9.06    0.58 
   8   0   5    0.01    0.19 
   8   0   6    0.15    0.20 
  -8   1   7    0.04    0.15 
  -8   1   6    0.52    0.16 
   8  -1  -6    0.33    0.19 
  -8   1   5    0.61    0.15 
   8  -1  -5    0.56    0.20 
  -8   1   4    0.07    0.09 
   8  -1  -4   -0.08    0.11 
  -8   1   3    0.17    0.09 
   8  -1  -3    0.16    0.11 
  -8   1   2    7.28    0.30 
   8  -1  -2    7.04    0.40 
   8  -1  -1    2.20    0.14 
   8  -1  -1    2.49    0.25 
   8  -1   0    0.05    0.06 
   8  -1   0    0.25    0.11 
   8  -1   1    2.61    0.24 
   8  -1   1    2.62    0.21 
   8  -1   2    9.12    0.45 
   8  -1   2    9.00    0.47 
   8  -1   3    0.10    0.17 
   8  -1   3    0.19    0.11 
   8  -1   4   24.94    1.05 
   8  -1   4   22.91    0.90 
   8  -1   5    0.08    0.20 
   8  -1   6    0.08    0.20 
  -8   2   7   -0.07    0.13 
   8  -2  -7   -0.15    0.17 
  -8   2   6    0.25    0.13 
   8  -2  -6    0.17    0.16 
  -8   2   5    0.68    0.15 
   8  -2  -5    1.03    0.23 
  -8   2   4    0.00    0.09 
   8  -2  -4   -0.03    0.13 
  -8   2   3    1.15    0.13 
   8  -2  -3    1.35    0.22 
  -8   2   2    0.95    0.12 
   8  -2  -2    0.81    0.17 
   8  -2  -2    1.07    0.06 
   8  -2  -1    0.15    0.11 
   8  -2  -1    0.05    0.07 
   8  -2   0    0.66    0.14 
   8  -2   1   18.00    0.70 
   8  -2   1   18.10    0.67 
   8  -2   2    2.91    0.25 
   8  -2   2    2.00    0.23 
   8  -2   3   27.15    0.98 
   8  -2   3   27.28    1.05 
   8  -2   4    0.31    0.15 
   8  -2   4   -0.30    0.19 
   8  -2   5    1.33    0.31 
   8  -2   6   -0.22    0.17 
   8  -3  -7    0.27    0.23 
  -8   3   6    0.57    0.15 
   8  -3  -6    0.79    0.25 
  -8   3   5    1.26    0.17 
   8  -3  -5    1.31    0.28 
  -8   3   4    2.46    0.19 
   8  -3  -4    2.48    0.32 
  -8   3   3    0.74    0.11 
   8  -3  -3    0.51    0.17 
  -8   3   2    2.62    0.17 
   8  -3  -2    2.44    0.26 
   8  -3  -2    2.50    0.13 
   8  -3  -1    4.17    0.21 
   8  -3  -1    3.47    0.27 
   8  -3   0    1.11    0.13 
   8  -3   0    2.43    0.24 
   8  -3   1    6.77    0.37 
   8  -3   1    6.29    0.34 
   8  -3   2    5.79    0.33 
   8  -3   2    6.04    0.36 
   8  -3   3   22.83    0.93 
   8  -3   3   23.21    0.85 
   8  -3   4   18.08    0.85 
   8  -3   5    0.53    0.26 
   8  -3   6    0.25    0.23 
   8  -4  -7    0.46    0.24 
  -8   4   6    1.44    0.20 
   8  -4  -6    1.58    0.31 
  -8   4   5    3.13    0.22 
   8  -4  -5    3.63    0.39 
  -8   4   4    0.65    0.12 
   8  -4  -4    0.42    0.17 
  -8   4   3    1.15    0.13 
   8  -4  -3    1.21    0.23 
  -8   4   2    3.92    0.20 
   8  -4  -2    3.97    0.18 
   8  -4  -2    3.97    0.30 
   8  -4  -1    0.09    0.07 
   8  -4  -1    0.02    0.08 
   8  -4   0    2.40    0.19 
   8  -4   0    2.53    0.25 
   8  -4   1    0.50    0.13 
   8  -4   1    0.54    0.14 
   8  -4   2    0.13    0.14 
   8  -4   2   -0.01    0.08 
   8  -4   3    8.91    0.43 
   8  -4   3    8.87    0.52 
   8  -4   4   -0.06    0.19 
   8  -4   5   -0.02    0.20 
   8  -4   6   -0.01    0.20 
   8  -5  -7    0.30    0.23 
   8  -5  -6    0.67    0.24 
  -8   5   5    1.93    0.19 
   8  -5  -5    2.45    0.34 
  -8   5   4    1.65    0.16 
   8  -5  -4    1.56    0.27 
  -8   5   3    3.28    0.19 
   8  -5  -3    3.53    0.33 
   8  -5  -3    3.55    0.18 
   8  -5  -2    4.72    0.33 
   8  -5  -2    4.30    0.21 
   8  -5  -1    1.94    0.16 
   8  -5  -1    1.98    0.23 
   8  -5   0    1.80    0.19 
   8  -5   0    1.85    0.22 
   8  -5   1    0.21    0.11 
   8  -5   1    0.17    0.11 
   8  -5   2    7.07    0.43 
   8  -5   2    7.73    0.40 
   8  -5   3    6.91    0.37 
   8  -5   3    5.83    0.43 
   8  -5   4    2.50    0.34 
   8  -5   5    2.41    0.37 
   8  -5   6   -0.34    0.15 
   8  -6  -7    0.06    0.20 
   8  -6  -6    0.51    0.26 
  -8   6   5    0.19    0.08 
   8  -6  -5    0.52    0.20 
  -8   6   4    0.36    0.10 
   8  -6  -4    0.35    0.18 
  -8   6   3    0.58    0.10 
   8  -6  -3    0.61    0.18 
   8  -6  -3    0.62    0.10 
   8  -6  -2    2.09    0.15 
   8  -6  -2    2.33    0.27 
   8  -6  -1    0.24    0.10 
   8  -6  -1    0.12    0.09 
   8  -6   0   -0.10    0.06 
   8  -6   0    0.11    0.11 
   8  -6   1    0.13    0.10 
   8  -6   1    0.07    0.12 
   8  -6   2    7.48    0.40 
   8  -6   2    7.95    0.46 
   8  -6   3   25.29    1.01 
   8  -6   4    4.10    0.42 
   8  -6   5    2.98    0.42 
   8  -6   6    0.08    0.20 
   8  -7  -7    0.31    0.25 
   8  -7  -6    0.50    0.23 
   8  -7  -5    0.27    0.17 
  -8   7   4    1.02    0.12 
   8  -7  -4    0.99    0.26 
  -8   7   3    0.01    0.05 
   8  -7  -3    0.05    0.11 
   8  -7  -3   -0.04    0.05 
   8  -7  -2    5.01    0.37 
   8  -7  -2    6.00    0.28 
   8  -7  -1    0.39    0.13 
   8  -7  -1    0.10    0.05 
   8  -7   0    0.05    0.09 
   8  -7   0    0.21    0.12 
   8  -7   1   -0.20    0.11 
   8  -7   1    0.00    0.08 
   8  -7   2   26.96    1.01 
   8  -7   2   26.89    0.96 
   8  -7   3    6.66    0.47 
   8  -7   4    0.76    0.25 
   8  -7   5    0.70    0.28 
   8  -7   6    0.01    0.22 
   8  -8  -7    0.99    0.31 
   8  -8  -6    0.33    0.22 
   8  -8  -5    2.60    0.37 
   8  -8  -4    5.32    0.47 
  -8   8   3    0.33    0.08 
   8  -8  -3    0.05    0.06 
   8  -8  -3    0.23    0.14 
   8  -8  -2    1.35    0.22 
   8  -8  -2    1.45    0.15 
   8  -8  -1    5.49    0.36 
   8  -8  -1    5.51    0.31 
   8  -8   0    0.36    0.15 
   8  -8   0    0.40    0.12 
   8  -8   1    0.54    0.17 
   8  -8   1    0.59    0.14 
   8  -8   2    3.76    0.35 
   8  -8   2    3.16    0.27 
   8  -8   3    4.56    0.40 
   8  -8   4    0.84    0.28 
   8  -8   5    0.51    0.27 
   8  -8   6    0.81    0.31 
   8  -9  -7    0.80    0.28 
   8  -9  -6   -0.01    0.19 
   8  -9  -5    2.19    0.38 
   8  -9  -4    0.02    0.16 
   8  -9  -3    5.30    0.40 
   8  -9  -3    4.82    0.29 
   8  -9  -2    3.54    0.34 
   8  -9  -1    3.63    0.25 
   8  -9  -1    3.62    0.32 
   8  -9   0    0.20    0.13 
   8  -9   0    0.17    0.09 
   8  -9   1    1.13    0.22 
   8  -9   1    1.56    0.20 
   8  -9   2    1.99    0.28 
   8  -9   2    2.53    0.24 
   8  -9   3    0.43    0.22 
   8  -9   4    0.19    0.21 
   8  -9   5    0.03    0.21 
   8  -9   6   -0.11    0.23 
   8 -10  -7    1.44    0.36 
   8 -10  -6    0.31    0.22 
   8 -10  -5    3.41    0.44 
   8 -10  -4    2.36    0.35 
   8 -10  -3   -0.04    0.12 
   8 -10  -3    0.14    0.05 
   8 -10  -2    4.27    0.37 
   8 -10  -2    3.70    0.24 
   8 -10  -1    1.18    0.17 
   8 -10  -1    1.01    0.19 
   8 -10   0    0.23    0.11 
   8 -10   0    0.40    0.16 
   8 -10   1    0.12    0.19 
   8 -10   1    0.25    0.10 
   8 -10   2    3.56    0.35 
   8 -10   3    8.94    0.56 
   8 -10   4   -0.10    0.20 
   8 -10   5   -0.04    0.22 
   8 -11  -7    0.43    0.24 
   8 -11  -6    0.73    0.27 
   8 -11  -5    0.59    0.26 
   8 -11  -4    0.09    0.15 
   8 -11  -3    0.30    0.16 
   8 -11  -3    0.13    0.08 
   8 -11  -2    2.40    0.22 
   8 -11  -2    2.48    0.30 
   8 -11  -1    4.76    0.35 
   8 -11  -1    5.09    0.32 
   8 -11   0    3.14    0.30 
   8 -11   0    2.76    0.27 
   8 -11   1    0.77    0.23 
   8 -11   1    0.80    0.16 
   8 -11   2   14.65    0.70 
   8 -11   3    4.82    0.43 
   8 -11   4    0.51    0.25 
   8 -11   5    0.90    0.29 
   8 -12  -7    0.26    0.23 
   8 -12  -6    0.12    0.21 
   8 -12  -5    3.74    0.47 
   8 -12  -4    0.01    0.12 
   8 -12  -4   -0.12    0.13 
   8 -12  -3    0.61    0.12 
   8 -12  -3    0.66    0.19 
   8 -12  -2    0.47    0.11 
   8 -12  -2    0.39    0.16 
   8 -12  -1   -0.01    0.11 
   8 -12  -1    0.16    0.12 
   8 -12   0    0.13    0.17 
   8 -12   0    0.18    0.11 
   8 -12   1    1.00    0.25 
   8 -12   1    1.05    0.18 
   8 -12   2    8.90    0.54 
   8 -12   3    3.24    0.38 
   8 -12   4    0.04    0.21 
   8 -12   5    0.34    0.23 
   8 -13  -6    2.45    0.43 
   8 -13  -5    4.89    0.53 
   8 -13  -4    0.31    0.17 
   8 -13  -4    0.27    0.17 
   8 -13  -3   -0.02    0.12 
   8 -13  -3    0.16    0.13 
   8 -13  -2    1.77    0.22 
   8 -13  -2    2.18    0.30 
   8 -13  -1    0.29    0.16 
   8 -13  -1    0.69    0.19 
   8 -13   0    0.18    0.10 
   8 -13   0   -0.07    0.15 
   8 -13   1    0.38    0.12 
   8 -13   1    0.03    0.17 
   8 -13   2    1.76    0.31 
   8 -13   3    0.46    0.23 
   8 -13   4    0.07    0.21 
   8 -13   5   -0.25    0.21 
   8 -14  -6    0.24    0.22 
   8 -14  -5    1.35    0.34 
   8 -14  -4    0.28    0.17 
   8 -14  -4    0.28    0.19 
   8 -14  -3    0.17    0.15 
   8 -14  -3    0.31    0.16 
   8 -14  -2    0.70    0.17 
   8 -14  -2    0.84    0.22 
   8 -14  -1    6.12    0.41 
   8 -14  -1    6.40    0.40 
   8 -14   0    2.88    0.31 
   8 -14   0    2.68    0.29 
   8 -14   1    0.58    0.22 
   8 -14   2    0.21    0.22 
   8 -14   3    0.29    0.24 
   8 -14   4    0.44    0.27 
   8 -14   5   -0.04    0.23 
   8 -15  -6    2.99    0.47 
   8 -15  -5   -0.19    0.20 
   8 -15  -4    0.16    0.18 
   8 -15  -4    0.04    0.14 
   8 -15  -3   -0.01    0.12 
   8 -15  -3    0.37    0.18 
   8 -15  -2    0.11    0.13 
   8 -15  -2    0.31    0.17 
   8 -15  -1   -0.02    0.12 
   8 -15  -1   -0.07    0.12 
   8 -15   0    1.06    0.21 
   8 -15   0    0.80    0.22 
   8 -15   1    6.60    0.47 
   8 -15   2    0.69    0.25 
   8 -15   3    0.28    0.25 
   8 -15   4    5.50    0.53 
   8 -15   5   -0.02    0.24 
   8 -16  -6    0.87    0.29 
   8 -16  -5    0.00    0.21 
   8 -16  -4   -0.02    0.16 
   8 -16  -4    0.10    0.16 
   8 -16  -3    0.39    0.17 
   8 -16  -3    0.51    0.20 
   8 -16  -2    0.02    0.12 
   8 -16  -2    0.01    0.11 
   8 -16  -1    1.38    0.25 
   8 -16  -1    1.30    0.24 
   8 -16   0    1.75    0.28 
   8 -16   0    1.57    0.25 
   8 -16   1    0.07    0.20 
   8 -16   2    0.20    0.22 
   8 -16   3    0.95    0.29 
   8 -16   4    0.11    0.25 
   8 -17  -5    0.20    0.25 
   8 -17  -4    0.07    0.16 
   8 -17  -4    0.14    0.20 
   8 -17  -3    0.20    0.16 
   8 -17  -3    0.35    0.17 
   8 -17  -2    0.24    0.16 
   8 -17  -2    0.13    0.14 
   8 -17  -1    0.06    0.14 
   8 -17  -1   -0.03    0.11 
   8 -17   0    1.07    0.25 
   8 -17   0    0.99    0.22 
   8 -17   1    2.99    0.37 
   8 -17   2    0.29    0.22 
   8 -17   3    0.90    0.29 
   8 -17   4    2.00    0.40 
   8 -18  -5    0.54    0.31 
   8 -18  -4   -0.10    0.17 
   8 -18  -4    0.02    0.17 
   8 -18  -3    0.17    0.15 
   8 -18  -3    0.28    0.17 
   8 -18  -2   -0.16    0.12 
   8 -18  -2   -0.04    0.14 
   8 -18  -1    0.47    0.20 
   8 -18  -1    1.12    0.23 
   8 -18   0    0.20    0.18 
   8 -18   1    0.52    0.24 
   8 -18   2    0.42    0.23 
   8 -18   3    0.24    0.25 
   8 -18   4   -0.01    0.23 
   8 -19  -5    0.34    0.29 
   8 -19  -4    0.02    0.17 
   8 -19  -4   -0.10    0.20 
   8 -19  -3    0.04    0.17 
   8 -19  -3    0.17    0.16 
   8 -19  -2    0.24    0.17 
   8 -19  -2    0.12    0.14 
   8 -19  -1    0.12    0.15 
   8 -19  -1    0.17    0.14 
   8 -19   0    0.15    0.20 
   8 -19   1    0.20    0.22 
   8 -19   2    1.53    0.33 
   8 -19   3    0.41    0.23 
   8 -20  -4    0.10    0.25 
   8 -20  -4    0.08    0.18 
   8 -20  -3    0.34    0.22 
   8 -20  -3    0.18    0.18 
   8 -20  -2    0.41    0.19 
   8 -20  -2   -0.03    0.16 
   8 -20  -1    0.23    0.18 
   8 -20  -1    0.26    0.17 
   8 -20   0    0.48    0.23 
   8 -20   1    0.37    0.23 
   8 -20   2    0.61    0.25 
   8 -20   3    2.24    0.39 
   8 -21  -4   -0.06    0.26 
   8 -21  -4    0.03    0.18 
   8 -21  -3   -0.13    0.16 
   8 -21  -3    0.21    0.20 
   8 -21  -2    0.11    0.17 
   8 -21  -2    0.02    0.16 
   8 -21  -1    0.48    0.21 
   8 -21   0    0.43    0.22 
   8 -21   1    0.32    0.21 
   8 -21   2    0.74    0.28 
   8 -22  -3    0.22    0.25 
   8 -22  -3    0.06    0.21 
   8 -22  -2    0.14    0.18 
   8 -22  -2    0.22    0.20 
   8 -22  -1    1.42    0.29 
   8 -22   0    0.24    0.18 
   8 -22   1    0.47    0.20 
   8 -22   2    0.86    0.24 
   8 -23  -3    0.26    0.19 
   8 -23  -3    0.28    0.26 
   8 -23  -2    0.24    0.18 
   8 -23  -2    0.08    0.20 
   8 -23  -1    0.37    0.20 
   8 -23   0    0.47    0.21 
   8 -23   1    0.32    0.19 
   8 -24  -2    0.43    0.19 
   8 -24  -1    0.97    0.24 
   8 -24   0    0.24    0.16 
   9  23   0    0.26    0.18 
  -9 -22   3    0.33    0.17 
   9  22   0    0.12    0.18 
   9  22   1    0.31    0.18 
  -9 -21   4    0.35    0.17 
  -9 -21   3    0.14    0.16 
  -9 -21   2    0.01    0.14 
   9  21  -1   -0.21    0.17 
   9  21   0    0.00    0.16 
   9  21   1    0.33    0.18 
   9  21   2    0.21    0.16 
  -9 -20   4    1.13    0.23 
  -9 -20   3    0.20    0.15 
  -9 -20   2    0.27    0.15 
  -9 -20   1   -0.06    0.13 
   9  20  -1   -0.29    0.15 
   9  20   0    0.32    0.19 
   9  20   1    0.23    0.18 
   9  20   2    0.11    0.17 
  -9 -19   5    0.71    0.20 
  -9 -19   4    0.12    0.18 
  -9 -19   3    0.08    0.16 
  -9 -19   2    0.22    0.16 
  -9 -19   1   -0.05    0.11 
   9  19  -1    0.01    0.17 
   9  19   0    0.12    0.17 
   9  19   1    0.45    0.20 
   9  19   2    0.25    0.17 
   9  19   3    0.32    0.17 
  -9 -18   5   -0.09    0.16 
  -9 -18   4    0.15    0.18 
  -9 -18   3    0.62    0.19 
  -9 -18   2    0.11    0.14 
   9  18  -2    0.21    0.15 
  -9 -18   1   -0.03    0.11 
   9  18  -1   -0.06    0.14 
   9  18   0    0.12    0.16 
   9  18   1    0.14    0.16 
   9  18   2    1.38    0.29 
   9  18   3    0.55    0.20 
  -9 -17   5    0.75    0.22 
  -9 -17   4    0.17    0.16 
  -9 -17   3    0.36    0.16 
  -9 -17   2    0.37    0.15 
   9  17  -2    0.26    0.17 
  -9 -17   1    1.47    0.22 
   9  17  -1    1.43    0.28 
   9  17   0    1.09    0.25 
   9  17   1    0.84    0.24 
   9  17   2    0.01    0.16 
   9  17   3    0.29    0.18 
   9  17   4    0.52    0.31 
  -9 -16   6    1.99    0.30 
  -9 -16   5    0.17    0.18 
  -9 -16   4    0.02    0.16 
  -9 -16   3    0.24    0.16 
  -9 -16   2    0.03    0.11 
   9  16  -2   -0.16    0.12 
  -9 -16   1    0.23    0.13 
   9  16  -1    0.38    0.18 
   9  16   0    0.73    0.20 
   9  16   1    0.02    0.15 
   9  16   2    0.16    0.16 
   9  16   3   -0.12    0.18 
   9  16   4    0.03    0.25 
  -9 -15   6    0.71    0.24 
  -9 -15   5    0.82    0.24 
  -9 -15   4    0.30    0.18 
  -9 -15   3    0.10    0.14 
   9  15  -3   -0.08    0.12 
  -9 -15   2    0.45    0.15 
   9  15  -2    0.01    0.13 
  -9 -15   1    0.06    0.10 
   9  15  -1    0.27    0.16 
   9  15   0   -0.19    0.12 
   9  15   1    0.05    0.13 
   9  15   2    0.95    0.24 
   9  15   3    0.01    0.19 
   9  15   4    2.06    0.41 
  -9 -14   6    0.36    0.21 
  -9 -14   5    0.42    0.20 
  -9 -14   4   -0.22    0.13 
  -9 -14   3    0.20    0.13 
   9  14  -3    0.02    0.13 
  -9 -14   2    0.46    0.15 
   9  14  -2    0.26    0.15 
  -9 -14   1    2.13    0.23 
   9  14  -1    2.39    0.31 
   9  14   0    0.23    0.16 
   9  14   1   -0.15    0.12 
   9  14   2    0.83    0.22 
   9  14   3    0.61    0.23 
   9  14   4    3.04    0.45 
  -9 -13   6    0.17    0.19 
  -9 -13   5    3.33    0.36 
  -9 -13   4    0.71    0.21 
  -9 -13   3    0.56    0.17 
   9  13  -3    0.49    0.16 
  -9 -13   2    2.76    0.26 
   9  13  -2    2.93    0.30 
  -9 -13   1    1.10    0.18 
   9  13  -1    1.25    0.24 
   9  13   0    0.32    0.17 
   9  13   1    0.02    0.15 
   9  13   2    0.01    0.15 
   9  13   3    0.06    0.17 
   9  13   4    0.43    0.23 
   9  13   5   -0.01    0.24 
  -9 -12   6    0.34    0.23 
  -9 -12   5    4.96    0.40 
  -9 -12   4   -0.02    0.13 
  -9 -12   3    3.79    0.30 
   9  12  -3    3.04    0.31 
  -9 -12   2    5.69    0.33 
   9  12  -2    5.00    0.37 
  -9 -12   1    0.27    0.12 
   9  12  -1    0.07    0.14 
   9  12   0    0.09    0.14 
   9  12   1    2.05    0.29 
   9  12   2    0.57    0.20 
   9  12   3    0.18    0.17 
   9  12   4    0.12    0.21 
   9  12   5    0.38    0.28 
  -9 -11   7   -0.06    0.22 
  -9 -11   6    1.64    0.30 
  -9 -11   5    3.11    0.34 
  -9 -11   4    1.08    0.21 
   9  11  -4    1.40    0.25 
  -9 -11   3    1.13    0.19 
   9  11  -3    0.84    0.20 
  -9 -11   2    0.59    0.15 
   9  11  -2    0.50    0.17 
  -9 -11   1    0.32    0.12 
   9  11  -1    0.23    0.14 
   9  11   0    0.12    0.13 
   9  11   1    1.32    0.25 
   9  11   2    1.30    0.25 
   9  11   3    0.48    0.20 
   9  11   4    0.12    0.19 
   9  11   5    0.25    0.23 
  -9 -10   7   -0.12    0.22 
  -9 -10   6   -0.13    0.16 
  -9 -10   5    1.98    0.29 
  -9 -10   4    0.23    0.16 
   9  10  -4    0.58    0.19 
  -9 -10   3    0.61    0.16 
   9  10  -3    0.89    0.19 
  -9 -10   2    0.87    0.17 
   9  10  -2    1.13    0.20 
  -9 -10   1    4.41    0.27 
   9  10  -1    3.62    0.34 
   9  10   0    0.04    0.13 
   9  10   1    3.51    0.35 
   9  10   2    2.16    0.31 
   9  10   3    0.25    0.17 
   9  10   4   -0.06    0.14 
   9  10   5    2.28    0.38 
  -9  -9   7   -0.08    0.21 
  -9  -9   6   -0.19    0.15 
  -9  -9   5    0.22    0.18 
  -9  -9   4    1.93    0.25 
   9   9  -4    1.71    0.27 
  -9  -9   3    2.10    0.24 
   9   9  -3    1.96    0.25 
  -9  -9   2    3.55    0.25 
   9   9  -2    3.78    0.32 
  -9  -9   1    0.11    0.10 
   9   9  -1    0.00    0.10 
   9   9   0    1.94    0.27 
   9   9   1    0.16    0.14 
   9   9   2    4.00    0.37 
   9   9   3    0.65    0.19 
   9   9   4    0.97    0.24 
   9   9   5    0.72    0.25 
  -9  -8   7   -0.17    0.19 
  -9  -8   6    0.02    0.16 
  -9  -8   5   -0.05    0.13 
  -9  -8   4   14.88    0.62 
   9   8  -4   15.27    0.70 
  -9  -8   3    0.17    0.12 
   9   8  -3    0.36    0.15 
  -9  -8   2    2.75    0.23 
   9   8  -2    3.04    0.30 
  -9  -8   1    0.51    0.13 
   9   8  -1    0.46    0.15 
   9   8   0    0.15    0.12 
   9   8   1    0.19    0.14 
   9   8   2    0.89    0.21 
   9   8   3    4.10    0.40 
   9   8   4    0.25    0.18 
   9   8   5    0.46    0.22 
  -9  -7   7    0.34    0.21 
  -9  -7   6   -0.17    0.15 
  -9  -7   5    0.28    0.16 
   9   7  -5    0.66    0.20 
  -9  -7   4   52.92    1.58 
   9   7  -4   53.10    1.76 
  -9  -7   3    0.07    0.11 
   9   7  -3    0.09    0.12 
  -9  -7   2    1.46    0.18 
   9   7  -2    1.82    0.25 
  -9  -7   1    0.24    0.10 
   9   7  -1    0.18    0.12 
   9   7   0    0.81    0.18 
   9   7   1    0.65    0.18 
   9   7   2    1.33    0.25 
   9   7   3    3.40    0.35 
   9   7   4    0.18    0.16 
   9   7   5    0.24    0.20 
   9   7   5    0.21    0.22 
  -9  -6   7   -0.02    0.19 
  -9  -6   6    0.24    0.16 
  -9  -6   5    0.18    0.14 
   9   6  -5    0.30    0.16 
  -9  -6   4    0.78    0.18 
   9   6  -4    0.27    0.19 
  -9  -6   3    1.77    0.20 
   9   6  -3    1.99    0.26 
  -9  -6   2    3.20    0.22 
   9   6  -2    2.92    0.29 
  -9  -6   1    0.53    0.13 
   9   6  -1    0.34    0.13 
   9   6   0   -0.11    0.10 
   9   6   1    1.31    0.23 
   9   6   2   -0.01    0.12 
   9   6   3    7.83    0.48 
   9   6   4    2.11    0.30 
   9   6   5    0.08    0.18 
   9   6   5    0.18    0.18 
   9   6   6    0.70    0.26 
  -9  -5   7    0.57    0.24 
  -9  -5   6    0.26    0.16 
  -9  -5   5    1.22    0.21 
   9   5  -5    1.33    0.27 
  -9  -5   4    0.95    0.17 
   9   5  -4    0.54    0.20 
  -9  -5   3    5.75    0.32 
   9   5  -3    6.12    0.41 
  -9  -5   2    0.00    0.08 
   9   5  -2    0.06    0.10 
  -9  -5   1    1.30    0.16 
   9   5  -1    0.89    0.18 
   9   5   0   -0.07    0.09 
   9   5   1    0.68    0.17 
   9   5   2   13.66    0.64 
   9   5   3    7.42    0.46 
   9   5   4    0.72    0.24 
   9   5   4    1.31    0.25 
   9   5   5    1.81    0.34 
   9   5   5    1.47    0.29 
   9   5   6    0.71    0.27 
  -9  -4   7   -0.16    0.17 
  -9  -4   6    0.07    0.16 
  -9  -4   5    0.15    0.14 
   9   4  -5    0.26    0.17 
  -9  -4   4    1.55    0.20 
   9   4  -4    1.87    0.28 
  -9  -4   3    7.84    0.38 
   9   4  -3    8.04    0.47 
  -9  -4   2    1.20    0.16 
   9   4  -2    1.59    0.22 
  -9  -4   1    3.94    0.24 
   9   4  -1    3.67    0.28 
   9   4  -1    4.31    0.19 
   9   4   0    0.12    0.11 
   9   4   1    0.91    0.19 
   9   4   2    4.27    0.34 
   9   4   3    1.09    0.23 
   9   4   3    1.38    0.24 
   9   4   4    0.23    0.14 
   9   4   4    0.20    0.18 
   9   4   5    7.96    0.51 
   9   4   5    7.40    0.58 
   9   4   6    0.21    0.18 
  -9  -3   7    0.06    0.18 
  -9  -3   6    0.53    0.18 
   9   3  -6    0.57    0.22 
  -9  -3   5    1.40    0.21 
   9   3  -5    1.26    0.26 
  -9  -3   4    0.72    0.15 
   9   3  -4    1.59    0.27 
  -9  -3   3   22.59    0.76 
   9   3  -3   23.87    0.93 
  -9  -3   2    0.90    0.14 
   9   3  -2    1.17    0.20 
  -9  -3   1    7.31    0.34 
   9   3  -1    7.08    0.41 
   9   3  -1    7.26    0.28 
   9   3   0    3.54    0.28 
   9   3   0    3.77    0.22 
   9   3   1    8.76    0.42 
   9   3   1    8.85    0.47 
   9   3   2    0.08    0.13 
   9   3   2    0.15    0.13 
   9   3   3    0.12    0.12 
   9   3   3    0.11    0.15 
   9   3   4    2.44    0.30 
   9   3   4    1.80    0.32 
   9   3   5    9.02    0.56 
   9   3   5   10.13    0.66 
   9   3   6    0.38    0.21 
  -9  -2   7   -0.01    0.16 
  -9  -2   6    0.82    0.19 
   9   2  -6    0.58    0.22 
  -9  -2   5    4.44    0.31 
   9   2  -5    4.56    0.41 
  -9  -2   4    1.54    0.19 
   9   2  -4    2.39    0.31 
  -9  -2   3   16.33    0.58 
   9   2  -3   16.29    0.73 
  -9  -2   2   22.99    0.73 
   9   2  -2   22.06    0.88 
   9   2  -1    0.11    0.05 
   9   2  -1    0.25    0.11 
   9   2   0    0.87    0.12 
   9   2   0    0.99    0.18 
   9   2   1    3.85    0.30 
   9   2   1    3.13    0.24 
   9   2   2    0.20    0.13 
   9   2   2    0.27    0.15 
   9   2   3    3.03    0.33 
   9   2   3    2.51    0.30 
   9   2   4    5.07    0.38 
   9   2   4    4.96    0.46 
   9   2   5    2.56    0.42 
   9   2   6    0.34    0.22 
  -9  -1   7   -0.25    0.14 
  -9  -1   6    0.23    0.15 
   9   1  -6    0.83    0.25 
  -9  -1   5    1.80    0.22 
   9   1  -5    1.77    0.30 
  -9  -1   4    4.45    0.28 
   9   1  -4    4.81    0.40 
  -9  -1   3    1.68    0.18 
   9   1  -3    2.23    0.28 
  -9  -1   2    6.11    0.29 
   9   1  -2    5.38    0.37 
   9   1  -1    0.65    0.15 
   9   1  -1    0.86    0.09 
   9   1   0    0.27    0.10 
   9   1   0   -0.02    0.05 
   9   1   1    0.55    0.16 
   9   1   1    0.50    0.12 
   9   1   2    6.83    0.41 
   9   1   2    6.53    0.41 
   9   1   3    5.18    0.40 
   9   1   3    5.30    0.37 
   9   1   4   10.19    0.63 
   9   1   4    9.93    0.55 
   9   1   5   -0.18    0.23 
   9   1   6   -0.08    0.19 
  -9   0   7   -0.03    0.15 
  -9   0   6    0.35    0.16 
   9   0  -6    0.58    0.22 
  -9   0   5   -0.01    0.11 
   9   0  -5   -0.17    0.14 
  -9   0   4    0.94    0.16 
   9   0  -4    0.67    0.20 
  -9   0   3    0.16    0.09 
   9   0  -3   -0.16    0.10 
  -9   0   2   13.16    0.48 
   9   0  -2   13.58    0.62 
   9   0  -1   -0.06    0.08 
   9   0  -1    0.06    0.06 
   9   0   0    1.01    0.13 
   9   0   0    1.21    0.19 
   9   0   1   -0.04    0.06 
   9   0   1    0.08    0.09 
   9   0   2    9.17    0.48 
   9   0   2    8.94    0.49 
   9   0   3    0.23    0.17 
   9   0   3    0.19    0.14 
   9   0   4   43.71    1.53 
   9   0   4   47.19    1.68 
   9   0   5   -0.39    0.20 
   9   0   6    0.08    0.22 
  -9   1   7   -0.10    0.15 
   9  -1  -7    0.13    0.21 
  -9   1   6    0.70    0.18 
   9  -1  -6    0.69    0.23 
  -9   1   5    1.46    0.19 
   9  -1  -5    1.42    0.28 
  -9   1   4    4.21    0.26 
   9  -1  -4    4.78    0.42 
  -9   1   3    2.00    0.18 
   9  -1  -3    1.68    0.27 
  -9   1   2    5.79    0.28 
   9  -1  -2    5.43    0.38 
   9  -1  -1    0.80    0.10 
   9  -1  -1    0.62    0.15 
   9  -1   0   -0.05    0.06 
   9  -1   0   -0.02    0.08 
   9  -1   1    0.41    0.11 
   9  -1   1    0.54    0.14 
   9  -1   2    5.86    0.37 
   9  -1   2    5.95    0.39 
   9  -1   3    6.31    0.40 
   9  -1   3    6.73    0.45 
   9  -1   4    8.82    0.59 
   9  -1   4   10.21    0.54 
   9  -1   5   -0.18    0.21 
   9  -1   6   -0.17    0.19 
  -9   2   7   -0.23    0.14 
   9  -2  -7    0.17    0.22 
  -9   2   6    0.90    0.18 
   9  -2  -6    1.04    0.27 
  -9   2   5    3.57    0.26 
   9  -2  -5    5.29    0.45 
  -9   2   4    1.53    0.18 
   9  -2  -4    1.78    0.29 
  -9   2   3   14.49    0.52 
   9  -2  -3   15.30    0.70 
  -9   2   2   22.99    0.69 
   9  -2  -2   18.72    0.83 
   9  -2  -1    0.17    0.08 
   9  -2  -1    0.02    0.08 
   9  -2   0    0.54    0.10 
   9  -2   0    0.98    0.18 
   9  -2   1    3.81    0.26 
   9  -2   1    3.82    0.29 
   9  -2   2    0.12    0.14 
   9  -2   2    0.31    0.12 
   9  -2   3    2.24    0.30 
   9  -2   3    2.64    0.28 
   9  -2   4    4.37    0.44 
   9  -2   5    2.66    0.41 
   9  -2   6    0.07    0.21 
   9  -3  -7    0.60    0.26 
  -9   3   6    0.71    0.17 
   9  -3  -6    0.67    0.24 
  -9   3   5    1.19    0.17 
   9  -3  -5    1.63    0.30 
  -9   3   4    0.88    0.15 
   9  -3  -4    1.12    0.25 
  -9   3   3   21.64    0.70 
   9  -3  -3   22.15    0.91 
  -9   3   2    1.38    0.15 
   9  -3  -2    1.40    0.23 
   9  -3  -2    1.35    0.09 
   9  -3  -1    7.54    0.32 
   9  -3  -1    6.99    0.42 
   9  -3   1    8.42    0.42 
   9  -3   1    8.31    0.45 
   9  -3   2    0.04    0.09 
   9  -3   2    0.17    0.15 
   9  -3   3    0.15    0.16 
   9  -3   3   -0.02    0.10 
   9  -3   4    1.77    0.32 
   9  -3   5   10.01    0.67 
   9  -3   6    0.02    0.21 
   9  -4  -7    0.08    0.21 
  -9   4   6    0.46    0.15 
   9  -4  -6    0.33    0.21 
  -9   4   5    0.30    0.11 
   9  -4  -5    0.27    0.19 
  -9   4   4    1.59    0.16 
   9  -4  -4    1.78    0.29 
  -9   4   3    7.91    0.33 
   9  -4  -3    7.22    0.49 
   9  -4  -2    1.57    0.24 
   9  -4  -2    1.62    0.11 
   9  -4  -1    4.50    0.25 
   9  -4  -1    4.58    0.33 
   9  -4   0   -0.04    0.09 
   9  -4   0    0.12    0.10 
   9  -4   1    1.25    0.20 
   9  -4   1    1.22    0.19 
   9  -4   2    4.19    0.33 
   9  -4   2    4.60    0.31 
   9  -4   3    1.46    0.26 
   9  -4   3    1.56    0.22 
   9  -4   4   -0.06    0.18 
   9  -4   5    8.31    0.59 
   9  -4   6    0.67    0.27 
   9  -5  -7    0.66    0.27 
   9  -5  -6    0.13    0.20 
  -9   5   5    0.96    0.15 
   9  -5  -5    0.90    0.26 
  -9   5   4    0.65    0.12 
   9  -5  -4    0.59    0.21 
  -9   5   3    6.32    0.29 
   9  -5  -3    5.91    0.43 
   9  -5  -2    0.05    0.10 
   9  -5  -2    0.06    0.05 
   9  -5  -1    1.32    0.22 
   9  -5  -1    1.23    0.14 
   9  -5   0   -0.06    0.11 
   9  -5   0   -0.04    0.08 
   9  -5   1    0.44    0.15 
   9  -5   1    0.56    0.16 
   9  -5   2   12.04    0.56 
   9  -5   2   13.02    0.61 
   9  -5   3    8.08    0.44 
   9  -5   3    8.24    0.51 
   9  -5   4    0.78    0.26 
   9  -5   5    1.15    0.32 
   9  -5   6    1.03    0.29 
   9  -6  -7    0.17    0.23 
   9  -6  -6    0.47    0.24 
   9  -6  -5    0.17    0.18 
  -9   6   4    0.49    0.11 
   9  -6  -4    0.44    0.20 
  -9   6   3    1.93    0.16 
   9  -6  -3    2.40    0.32 
   9  -6  -2    3.30    0.32 
   9  -6  -2    3.28    0.19 
   9  -6  -1    0.43    0.15 
   9  -6  -1    0.49    0.11 
   9  -6   0    0.02    0.11 
   9  -6   0   -0.07    0.07 
   9  -6   1    1.36    0.21 
   9  -6   1    1.20    0.19 
   9  -6   2   -0.11    0.08 
   9  -6   2   -0.16    0.15 
   9  -6   3    8.74    0.54 
   9  -6   4    1.77    0.33 
   9  -6   5   -0.47    0.19 
   9  -6   6    0.02    0.22 
   9  -7  -7    0.41    0.23 
   9  -7  -6   -0.06    0.18 
   9  -7  -5    0.44    0.21 
   9  -7  -4   48.00    1.71 
  -9   7   3    0.02    0.07 
   9  -7  -3   -0.05    0.11 
   9  -7  -2    2.37    0.29 
   9  -7  -2    1.85    0.16 
   9  -7  -1    0.16    0.07 
   9  -7  -1    0.30    0.13 
   9  -7   0    0.61    0.14 
   9  -7   0    0.77    0.18 
   9  -7   1    0.75    0.17 
   9  -7   1    0.95    0.20 
   9  -7   2    1.40    0.24 
   9  -7   2    1.60    0.22 
   9  -7   3    3.15    0.35 
   9  -7   4    0.57    0.26 
   9  -7   5   -0.31    0.20 
   9  -8  -7    0.43    0.23 
   9  -8  -6    0.16    0.21 
   9  -8  -5    0.03    0.16 
   9  -8  -4   14.15    0.76 
   9  -8  -3    0.25    0.15 
   9  -8  -2    3.05    0.20 
   9  -8  -2    2.50    0.30 
   9  -8  -1    0.31    0.13 
   9  -8  -1    0.34    0.11 
   9  -8   0    0.03    0.13 
   9  -8   0    0.24    0.10 
   9  -8   1    0.13    0.10 
   9  -8   1    0.12    0.17 
   9  -8   2    0.91    0.17 
   9  -8   2    0.63    0.22 
   9  -8   3    3.99    0.40 
   9  -8   4   -0.04    0.22 
   9  -8   5    0.14    0.24 
   9  -9  -7    0.25    0.22 
   9  -9  -6   -0.06    0.20 
   9  -9  -5    0.35    0.22 
   9  -9  -4    1.71    0.31 
   9  -9  -3    1.97    0.30 
   9  -9  -2    3.78    0.24 
   9  -9  -2    4.42    0.38 
   9  -9  -1    0.15    0.11 
   9  -9  -1    0.07    0.09 
   9  -9   0    1.74    0.24 
   9  -9   0    1.79    0.23 
   9  -9   1    0.27    0.12 
   9  -9   1    0.05    0.17 
   9  -9   2    4.41    0.31 
   9  -9   2    4.71    0.39 
   9  -9   3    0.54    0.24 
   9  -9   4    0.75    0.28 
   9  -9   5    0.50    0.27 
   9 -10  -7    0.21    0.20 
   9 -10  -6    0.05    0.21 
   9 -10  -5    1.50    0.33 
   9 -10  -4    0.05    0.17 
   9 -10  -3    0.78    0.13 
   9 -10  -3    1.15    0.24 
   9 -10  -2    1.40    0.25 
   9 -10  -1    4.33    0.29 
   9 -10  -1    4.42    0.34 
   9 -10   0    0.24    0.17 
   9 -10   0    0.35    0.13 
   9 -10   1    4.21    0.37 
   9 -10   1    4.49    0.32 
   9 -10   2    1.92    0.30 
   9 -10   3    0.29    0.21 
   9 -10   4    0.05    0.19 
   9 -10   5    2.77    0.44 
   9 -11  -7    0.17    0.22 
   9 -11  -6    1.70    0.37 
   9 -11  -5    3.24    0.45 
   9 -11  -4    1.65    0.31 
   9 -11  -3    0.73    0.13 
   9 -11  -3    0.72    0.21 
   9 -11  -2    0.63    0.12 
   9 -11  -2    0.68    0.19 
   9 -11  -1    0.44    0.14 
   9 -11  -1    0.20    0.11 
   9 -11   0    0.34    0.14 
   9 -11   0    0.34    0.20 
   9 -11   1    2.12    0.24 
   9 -11   1    1.81    0.28 
   9 -11   2    1.31    0.27 
   9 -11   3    0.27    0.22 
   9 -11   4    0.19    0.25 
   9 -11   5    0.29    0.28 
   9 -12  -6    0.62    0.27 
   9 -12  -5    5.20    0.54 
   9 -12  -4    0.03    0.15 
   9 -12  -3    3.68    0.26 
   9 -12  -3    3.76    0.40 
   9 -12  -2    5.03    0.40 
   9 -12  -2    4.72    0.30 
   9 -12  -1   -0.06    0.09 
   9 -12  -1    0.16    0.14 
   9 -12   0    0.14    0.10 
   9 -12   0   -0.05    0.15 
   9 -12   1    2.43    0.26 
   9 -12   1    2.45    0.32 
   9 -12   2    0.33    0.22 
   9 -12   3    0.24    0.23 
   9 -12   4    0.18    0.22 
   9 -12   5    0.40    0.29 
   9 -13  -6    0.47    0.25 
   9 -13  -5    3.78    0.49 
   9 -13  -4    0.72    0.23 
   9 -13  -3    0.81    0.22 
   9 -13  -3    0.53    0.18 
   9 -13  -2    2.87    0.35 
   9 -13  -2    2.32    0.25 
   9 -13  -1    1.29    0.24 
   9 -13  -1    1.41    0.22 
   9 -13   0    0.38    0.14 
   9 -13   0    0.51    0.20 
   9 -13   1    0.09    0.19 
   9 -13   1    0.53    0.15 
   9 -13   2    0.00    0.20 
   9 -13   3    0.19    0.21 
   9 -13   4    0.85    0.25 
   9 -13   5    0.04    0.25 
   9 -14  -6    0.43    0.22 
   9 -14  -5    0.31    0.22 
   9 -14  -4   -0.17    0.16 
   9 -14  -3   -0.13    0.12 
   9 -14  -3   -0.09    0.12 
   9 -14  -2    0.74    0.18 
   9 -14  -2    0.31    0.17 
   9 -14  -1    1.90    0.29 
   9 -14  -1    1.92    0.25 
   9 -14   0    0.11    0.12 
   9 -14   0    0.19    0.17 
   9 -14   1    0.05    0.19 
   9 -14   2    1.23    0.30 
   9 -14   3    0.41    0.26 
   9 -14   4    2.27    0.38 
   9 -15  -6    0.69    0.25 
   9 -15  -5    1.22    0.33 
   9 -15  -4    0.53    0.22 
   9 -15  -3    0.28    0.17 
   9 -15  -3    0.09    0.13 
   9 -15  -2    0.09    0.14 
   9 -15  -2    0.13    0.13 
   9 -15  -1    0.10    0.15 
   9 -15  -1    0.24    0.15 
   9 -15   0    0.48    0.17 
   9 -15   0    0.04    0.17 
   9 -15   1    0.37    0.22 
   9 -15   2    0.89    0.29 
   9 -15   3    0.08    0.24 
   9 -15   4    1.67    0.36 
   9 -16  -6    1.88    0.38 
   9 -16  -5    0.09    0.24 
   9 -16  -4    0.06    0.19 
   9 -16  -3    0.02    0.15 
   9 -16  -3    0.34    0.17 
   9 -16  -2    0.21    0.15 
   9 -16  -2    0.33    0.17 
   9 -16  -1    0.01    0.13 
   9 -16  -1    0.12    0.15 
   9 -16   0    0.79    0.21 
   9 -16   0    0.77    0.23 
   9 -16   1   -0.03    0.20 
   9 -16   2    0.09    0.22 
   9 -16   3    0.05    0.23 
   9 -16   4   -0.15    0.23 
   9 -17  -5    0.56    0.29 
   9 -17  -4   -0.03    0.19 
   9 -17  -3    0.46    0.20 
   9 -17  -3    0.15    0.16 
   9 -17  -2    0.18    0.15 
   9 -17  -2    0.47    0.17 
   9 -17  -1    1.23    0.25 
   9 -17  -1    1.56    0.27 
   9 -17   0    1.08    0.26 
   9 -17   1    0.77    0.26 
   9 -17   2    0.37    0.25 
   9 -17   3    0.29    0.27 
   9 -17   4    0.29    0.25 
   9 -18  -5    0.02    0.27 
   9 -18  -4    0.53    0.26 
   9 -18  -3    0.35    0.21 
   9 -18  -3    0.58    0.22 
   9 -18  -2    0.38    0.18 
   9 -18  -2    0.12    0.16 
   9 -18  -1    0.09    0.15 
   9 -18  -1    0.00    0.15 
   9 -18   0    0.41    0.21 
   9 -18   1   -0.02    0.21 
   9 -18   2    1.45    0.30 
   9 -18   3    0.31    0.24 
   9 -19  -5    0.40    0.28 
   9 -19  -4   -0.03    0.22 
   9 -19  -3   -0.08    0.19 
   9 -19  -3    0.19    0.19 
   9 -19  -2    0.04    0.16 
   9 -19  -2   -0.02    0.14 
   9 -19  -1    0.15    0.16 
   9 -19  -1    0.20    0.16 
   9 -19   0    0.15    0.19 
   9 -19   1    0.14    0.21 
   9 -19   2    0.46    0.25 
   9 -19   3    0.18    0.22 
   9 -20  -4    0.74    0.33 
   9 -20  -3    0.24    0.18 
   9 -20  -3   -0.07    0.20 
   9 -20  -2    0.17    0.19 
   9 -20  -2    0.26    0.20 
   9 -20  -1   -0.08    0.14 
   9 -20   0    0.27    0.21 
   9 -20   1    0.43    0.23 
   9 -20   2    0.23    0.20 
   9 -21  -4    0.33    0.28 
   9 -21  -3    0.21    0.19 
   9 -21  -3   -0.03    0.23 
   9 -21  -2   -0.06    0.15 
   9 -21  -2   -0.18    0.17 
   9 -21  -1    0.04    0.17 
   9 -21   0    0.07    0.19 
   9 -21   1    0.43    0.22 
   9 -21   2    0.37    0.22 
   9 -22  -3    0.32    0.19 
   9 -22  -3    0.40    0.28 
   9 -22  -2    0.01    0.17 
   9 -22  -2    0.03    0.23 
   9 -22  -1    0.27    0.18 
   9 -22   0    0.25    0.19 
   9 -22   1    0.28    0.19 
   9 -23  -2    0.33    0.18 
   9 -23  -1    0.57    0.21 
   9 -23   0    0.82    0.20 
 -10 -22   2    0.22    0.13 
  10  22   0    0.22    0.17 
 -10 -21   3    0.47    0.16 
 -10 -21   2   -0.01    0.14 
  10  21  -1    0.17    0.20 
  10  21   0    0.83    0.24 
  10  21   1    0.82    0.23 
 -10 -20   4    0.11    0.14 
 -10 -20   3    1.95    0.27 
 -10 -20   2    0.03    0.14 
  10  20  -1    0.29    0.21 
  10  20   0    0.37    0.21 
  10  20   1   -0.05    0.16 
  10  20   2    0.66    0.19 
 -10 -19   4    0.18    0.16 
 -10 -19   3    1.38    0.25 
 -10 -19   2    0.21    0.15 
  10  19  -1    0.11    0.19 
  10  19   0    0.54    0.22 
  10  19   1    0.02    0.16 
  10  19   2    0.18    0.16 
 -10 -18   5    0.60    0.19 
 -10 -18   4    0.06    0.16 
 -10 -18   3    1.69    0.27 
 -10 -18   2    0.84    0.19 
  10  18  -2    0.79    0.23 
  10  18  -1   -0.30    0.15 
  10  18   0    0.28    0.20 
  10  18   1    0.56    0.22 
  10  18   2    0.63    0.23 
  10  18   3    0.20    0.20 
 -10 -17   5    0.79    0.22 
 -10 -17   4    0.19    0.16 
 -10 -17   3    0.19    0.15 
 -10 -17   2    2.79    0.29 
  10  17  -2    3.05    0.34 
 -10 -17   1    0.06    0.13 
  10  17  -1    0.03    0.16 
  10  17   0    0.21    0.18 
  10  17   1    0.12    0.17 
  10  17   2    0.27    0.19 
  10  17   3    0.30    0.17 
 -10 -16   5    0.21    0.18 
 -10 -16   4   -0.12    0.14 
 -10 -16   3    0.98    0.22 
 -10 -16   2    0.95    0.20 
  10  16  -2    0.49    0.19 
 -10 -16   1    0.56    0.16 
  10  16  -1    0.48    0.20 
  10  16   0    0.13    0.18 
  10  16   1    0.42    0.20 
  10  16   2   -0.07    0.15 
  10  16   3    0.47    0.27 
 -10 -15   6    0.51    0.19 
 -10 -15   5    1.28    0.27 
 -10 -15   4    0.37    0.19 
 -10 -15   3    0.55    0.18 
  10  15  -3    0.17    0.15 
 -10 -15   2    1.59    0.23 
  10  15  -2    1.56    0.27 
 -10 -15   1    0.20    0.14 
  10  15  -1    0.19    0.16 
  10  15   0    0.23    0.17 
  10  15   1    0.67    0.22 
  10  15   2   -0.05    0.14 
  10  15   3    0.33    0.24 
  10  15   4    0.36    0.28 
 -10 -14   6    0.30    0.19 
 -10 -14   5    1.69    0.29 
 -10 -14   4    0.21    0.18 
 -10 -14   3    0.96    0.21 
  10  14  -3    1.04    0.23 
 -10 -14   2    2.89    0.28 
  10  14  -2    3.47    0.36 
 -10 -14   1   -0.12    0.10 
  10  14  -1   -0.04    0.13 
  10  14   0    0.34    0.17 
  10  14   1    0.36    0.18 
  10  14   2   -0.21    0.13 
  10  14   3    0.06    0.20 
  10  14   4    0.51    0.28 
 -10 -13   6    0.31    0.20 
 -10 -13   5    0.79    0.23 
 -10 -13   4   -0.03    0.17 
 -10 -13   3    2.10    0.26 
  10  13  -3    1.89    0.28 
 -10 -13   2    0.67    0.17 
  10  13  -2    0.57    0.18 
 -10 -13   1    0.12    0.12 
  10  13  -1    0.06    0.14 
  10  13   0    0.51    0.19 
  10  13   1    0.42    0.19 
  10  13   2    0.27    0.20 
  10  13   3   -0.03    0.18 
  10  13   4    0.04    0.23 
 -10 -12   6    0.28    0.22 
 -10 -12   5    0.08    0.16 
 -10 -12   4    0.24    0.17 
 -10 -12   3    4.21    0.31 
  10  12  -3    4.45    0.39 
 -10 -12   2    0.88    0.18 
  10  12  -2    1.12    0.23 
 -10 -12   1    0.13    0.11 
  10  12  -1    0.29    0.17 
  10  12   0    0.11    0.14 
  10  12   1    0.29    0.18 
  10  12   2    1.03    0.25 
  10  12   3    0.43    0.23 
  10  12   4   -0.09    0.20 
 -10 -11   6    0.32    0.20 
 -10 -11   5    0.29    0.18 
 -10 -11   4    2.09    0.28 
  10  11  -4    1.63    0.29 
 -10 -11   3    3.08    0.28 
  10  11  -3    3.59    0.34 
 -10 -11   2    0.15    0.12 
  10  11  -2    0.12    0.13 
 -10 -11   1    1.09    0.18 
  10  11  -1    1.54    0.27 
  10  11   0    0.21    0.15 
  10  11   1    0.02    0.12 
  10  11   2    0.70    0.22 
  10  11   3    0.43    0.23 
  10  11   4   -0.33    0.18 
 -10 -10   7   -0.27    0.17 
 -10 -10   6    0.26    0.20 
 -10 -10   5    0.08    0.16 
 -10 -10   4    8.12    0.46 
  10  10  -4    9.36    0.54 
 -10 -10   3    0.10    0.13 
  10  10  -3    0.26    0.15 
 -10 -10   2    3.78    0.28 
  10  10  -2    3.73    0.35 
 -10 -10   1    0.42    0.14 
  10  10  -1    0.47    0.18 
  10  10   0    0.00    0.14 
  10  10   1    0.74    0.21 
  10  10   2    0.04    0.13 
  10  10   3    0.31    0.20 
  10  10   4    0.24    0.20 
  10  10   5    0.20    0.24 
 -10  -9   7   -0.13    0.19 
 -10  -9   6   -0.21    0.15 
 -10  -9   5    0.22    0.17 
 -10  -9   4    1.08    0.21 
  10   9  -4    1.79    0.28 
 -10  -9   3    9.27    0.45 
  10   9  -3    9.00    0.52 
 -10  -9   2    1.06    0.18 
  10   9  -2    1.16    0.22 
 -10  -9   1    5.05    0.31 
  10   9  -1    5.51    0.39 
  10   9   0    0.00    0.12 
  10   9   1    0.01    0.12 
  10   9   2    0.46    0.17 
  10   9   3    0.12    0.16 
  10   9   4    0.00    0.16 
  10   9   5    0.06    0.23 
 -10  -8   7    0.15    0.23 
 -10  -8   6    0.05    0.18 
 -10  -8   5    0.71    0.19 
 -10  -8   4    6.73    0.39 
  10   8  -4    7.46    0.48 
 -10  -8   3    0.33    0.13 
  10   8  -3    0.56    0.17 
 -10  -8   2    0.28    0.13 
  10   8  -2    0.12    0.14 
 -10  -8   1    2.33    0.23 
  10   8  -1    2.32    0.29 
  10   8   0    1.94    0.28 
  10   8   1    0.24    0.15 
  10   8   2    0.09    0.13 
  10   8   3    0.47    0.18 
  10   8   4    0.11    0.18 
  10   8   5    0.23    0.19 
  10   8   5   -0.18    0.20 
 -10  -7   7   -0.05    0.21 
 -10  -7   6    0.05    0.16 
 -10  -7   5    0.28    0.16 
  10   7  -5    0.04    0.17 
 -10  -7   4    2.75    0.27 
  10   7  -4    3.77    0.37 
 -10  -7   3    0.45    0.14 
  10   7  -3    0.35    0.18 
 -10  -7   2    0.88    0.16 
  10   7  -2    1.18    0.22 
 -10  -7   1    2.41    0.23 
  10   7  -1    1.83    0.26 
  10   7   0    2.65    0.31 
  10   7   1    1.19    0.23 
  10   7   2    0.21    0.14 
  10   7   3    0.11    0.15 
  10   7   4    0.44    0.20 
  10   7   5    0.65    0.26 
  10   7   5    0.85    0.26 
 -10  -6   7   -0.12    0.21 
 -10  -6   6    0.06    0.15 
 -10  -6   5    0.00    0.12 
  10   6  -5    0.04    0.16 
 -10  -6   4    2.18    0.25 
  10   6  -4    2.60    0.33 
 -10  -6   3    7.09    0.37 
  10   6  -3    7.48    0.48 
 -10  -6   2    1.07    0.17 
  10   6  -2    1.06    0.22 
  10   6  -1    0.97    0.21 
  10   6   0    0.06    0.12 
  10   6   1    0.98    0.21 
  10   6   2    1.11    0.23 
  10   6   3    0.13    0.14 
  10   6   4    0.01    0.14 
  10   6   4    0.02    0.17 
  10   6   5    1.24    0.29 
  10   6   5    1.23    0.29 
 -10  -5   7    0.23    0.21 
 -10  -5   6    0.15    0.15 
 -10  -5   5    0.48    0.16 
  10   5  -5    0.21    0.17 
 -10  -5   4    2.19    0.24 
  10   5  -4    2.30    0.32 
 -10  -5   3   42.75    1.28 
  10   5  -3   42.96    1.50 
 -10  -5   2    0.18    0.11 
  10   5  -2    0.18    0.14 
  10   5  -1    1.15    0.21 
  10   5   0    0.44    0.15 
  10   5   1    0.05    0.12 
  10   5   2    0.07    0.13 
  10   5   3    0.61    0.20 
  10   5   3    0.40    0.18 
  10   5   4    0.26    0.16 
  10   5   4    0.15    0.20 
  10   5   5    3.52    0.44 
  10   5   5    3.31    0.40 
 -10  -4   7    0.04    0.18 
 -10  -4   6    0.20    0.16 
  10   4  -6    0.27    0.18 
 -10  -4   5    0.27    0.14 
  10   4  -5    0.22    0.17 
 -10  -4   4    1.75    0.22 
  10   4  -4    2.09    0.31 
 -10  -4   3   11.35    0.48 
  10   4  -3   11.37    0.61 
 -10  -4   2   18.66    0.65 
  10   4  -2   17.85    0.79 
  10   4  -1    3.79    0.34 
  10   4   0    0.28    0.14 
  10   4   0    0.28    0.08 
  10   4   1    3.82    0.27 
  10   4   1    4.02    0.36 
  10   4   2    3.19    0.33 
  10   4   2    3.03    0.31 
  10   4   3    1.25    0.24 
  10   4   3    1.15    0.24 
  10   4   4    1.43    0.26 
  10   4   4    1.37    0.28 
  10   4   5    3.46    0.40 
  10   4   5    3.20    0.43 
 -10  -3   7    0.20    0.20 
 -10  -3   6    0.04    0.14 
  10   3  -6    0.10    0.16 
 -10  -3   5    2.23    0.25 
  10   3  -5    2.67    0.36 
 -10  -3   4    2.00    0.23 
  10   3  -4    1.73    0.29 
 -10  -3   3    2.01    0.20 
  10   3  -3    2.18    0.31 
 -10  -3   2   15.98    0.59 
  10   3  -2   16.23    0.74 
  10   3  -1    0.29    0.14 
  10   3   0    0.91    0.20 
  10   3   0    1.40    0.15 
  10   3   1    3.91    0.27 
  10   3   1    4.11    0.35 
  10   3   2    1.67    0.26 
  10   3   2    1.64    0.24 
  10   3   3    0.80    0.21 
  10   3   3    0.57    0.18 
  10   3   4    1.03    0.27 
  10   3   4    0.62    0.21 
  10   3   5    0.17    0.24 
 -10  -2   7   -0.18    0.15 
 -10  -2   6   -0.19    0.11 
  10   2  -6   -0.04    0.15 
 -10  -2   5    0.35    0.14 
  10   2  -5    0.38    0.20 
 -10  -2   4    0.62    0.14 
  10   2  -4    0.73    0.22 
 -10  -2   3   32.15    0.99 
  10   2  -3   31.03    1.19 
 -10  -2   2    0.68    0.15 
  10   2  -2    0.61    0.20 
  10   2  -1    0.63    0.19 
  10   2   0    0.65    0.12 
  10   2   0    0.31    0.14 
  10   2   1    1.03    0.16 
  10   2   1    0.87    0.19 
  10   2   2    1.17    0.22 
  10   2   2    1.44    0.25 
  10   2   3    2.55    0.32 
  10   2   3    1.93    0.28 
  10   2   4    0.51    0.19 
  10   2   4    0.13    0.20 
  10   2   5    4.01    0.49 
 -10  -1   7   -0.21    0.16 
 -10  -1   6    0.02    0.12 
  10   1  -6    0.22    0.20 
 -10  -1   5    0.14    0.13 
  10   1  -5    0.12    0.17 
 -10  -1   4    0.52    0.14 
  10   1  -4    0.73    0.22 
 -10  -1   3   10.61    0.44 
  10   1  -3   10.95    0.61 
 -10  -1   2    3.76    0.25 
  10   1  -2    3.83    0.36 
  10   1  -1    1.23    0.22 
  10   1   0    0.49    0.10 
  10   1   0    0.40    0.14 
  10   1   1    2.12    0.27 
  10   1   1    2.64    0.24 
  10   1   2    3.37    0.33 
  10   1   2    3.20    0.32 
  10   1   3    0.03    0.13 
  10   1   3    0.24    0.16 
  10   1   4    0.35    0.23 
  10   1   4    0.28    0.17 
  10   1   5    2.03    0.38 
 -10   0   7    0.07    0.16 
 -10   0   6    0.10    0.13 
  10   0  -6    0.35    0.21 
 -10   0   5   -0.07    0.11 
  10   0  -5    0.07    0.16 
 -10   0   4    1.85    0.20 
  10   0  -4    1.75    0.30 
 -10   0   3    0.03    0.09 
  10   0  -3   -0.19    0.12 
 -10   0   2   47.99    1.41 
  10   0  -2   50.43    1.67 
  10   0  -1    0.02    0.07 
  10   0  -1    0.24    0.12 
  10   0   0    0.76    0.13 
  10   0   0    0.76    0.18 
  10   0   1   -0.01    0.08 
  10   0   1    0.03    0.10 
  10   0   2    4.07    0.35 
  10   0   2    4.11    0.35 
  10   0   3   -0.04    0.15 
  10   0   3    0.03    0.12 
  10   0   4    9.08    0.54 
  10   0   4   10.14    0.63 
  10   0   5   -0.27    0.16 
 -10   1   7   -0.09    0.15 
  10  -1  -7    0.34    0.23 
 -10   1   6    0.07    0.12 
  10  -1  -6    0.05    0.17 
 -10   1   5    0.29    0.12 
  10  -1  -5    0.15    0.16 
 -10   1   4    0.76    0.14 
  10  -1  -4    0.59    0.21 
 -10   1   3   10.00    0.42 
  10  -1  -3   10.93    0.60 
 -10   1   2    2.95    0.22 
  10  -1  -2    3.29    0.35 
  10  -1  -1    1.58    0.24 
  10  -1  -1    1.69    0.14 
  10  -1   0    0.30    0.13 
  10  -1   0    0.40    0.11 
  10  -1   1    2.35    0.27 
  10  -1   1    2.48    0.23 
  10  -1   2    3.17    0.32 
  10  -1   2    2.90    0.30 
  10  -1   3    0.27    0.14 
  10  -1   3    0.12    0.14 
  10  -1   4    0.26    0.21 
  10  -1   5    1.73    0.36 
  10  -2  -7    0.20    0.24 
 -10   2   6    0.07    0.11 
  10  -2  -6   -0.16    0.18 
 -10   2   5    0.22    0.12 
  10  -2  -5    0.49    0.20 
 -10   2   4    0.89    0.14 
  10  -2  -4    0.46    0.20 
 -10   2   3   30.50    0.94 
  10  -2  -3   30.81    1.19 
  10  -2  -2    0.44    0.17 
  10  -2  -1    0.75    0.12 
  10  -2  -1    0.69    0.18 
  10  -2   0    0.45    0.16 
  10  -2   0    0.41    0.12 
  10  -2   1    0.63    0.16 
  10  -2   1    0.88    0.16 
  10  -2   2    1.01    0.22 
  10  -2   2    1.23    0.22 
  10  -2   3    2.43    0.29 
  10  -2   3    2.37    0.32 
  10  -2   4    0.35    0.24 
  10  -2   5    4.05    0.48 
  10  -3  -7    0.17    0.24 
 -10   3   6    0.06    0.12 
  10  -3  -6    0.20    0.18 
 -10   3   5    2.46    0.23 
  10  -3  -5    2.60    0.37 
 -10   3   4    1.73    0.17 
  10  -3  -4    1.48    0.29 
 -10   3   3    2.14    0.19 
  10  -3  -3    2.16    0.33 
  10  -3  -2   16.26    0.75 
  10  -3  -1    0.25    0.10 
  10  -3  -1    0.24    0.12 
  10  -3   0    0.99    0.19 
  10  -3   0    0.37    0.09 
  10  -3   1    3.78    0.33 
  10  -3   1    4.18    0.29 
  10  -3   2    1.71    0.24 
  10  -3   2    1.73    0.24 
  10  -3   3    0.49    0.20 
  10  -3   3    0.75    0.18 
  10  -3   4    0.75    0.26 
  10  -3   5    0.51    0.26 
  10  -4  -7    0.05    0.21 
  10  -4  -6    0.18    0.19 
 -10   4   5    0.39    0.12 
  10  -4  -5    0.23    0.18 
 -10   4   4    1.67    0.17 
  10  -4  -4    1.50    0.29 
 -10   4   3   10.54    0.42 
  10  -4  -3    9.94    0.59 
  10  -4  -2   20.23    0.87 
  10  -4  -1    3.81    0.35 
  10  -4  -1    3.56    0.23 
  10  -4   0    0.36    0.15 
  10  -4   0    0.08    0.08 
  10  -4   1    3.80    0.33 
  10  -4   1    3.81    0.29 
  10  -4   2    3.34    0.32 
  10  -4   2    3.10    0.31 
  10  -4   3    0.92    0.23 
  10  -4   3    1.11    0.21 
  10  -4   4    0.85    0.27 
  10  -4   5    3.43    0.45 
  10  -5  -7   -0.22    0.17 
  10  -5  -6    0.22    0.21 
 -10   5   5    0.21    0.11 
  10  -5  -5    0.57    0.23 
 -10   5   4    2.31    0.20 
  10  -5  -4    2.44    0.35 
 -10   5   3   39.08    1.15 
  10  -5  -3   39.95    1.46 
  10  -5  -2    0.13    0.15 
  10  -5  -1    0.72    0.19 
  10  -5  -1    0.95    0.14 
  10  -5   0    0.46    0.15 
  10  -5   0    0.07    0.12 
  10  -5   1   -0.07    0.10 
  10  -5   1   -0.01    0.12 
  10  -5   2    0.02    0.15 
  10  -5   2    0.14    0.12 
  10  -5   3    0.17    0.18 
  10  -5   4    0.28    0.23 
  10  -5   5    3.95    0.49 
  10  -6  -7    0.47    0.26 
  10  -6  -6    0.36    0.24 
  10  -6  -5    0.04    0.18 
 -10   6   4    2.44    0.20 
  10  -6  -4    2.46    0.35 
 -10   6   3    8.51    0.37 
  10  -6  -3    8.69    0.55 
  10  -6  -2    1.28    0.24 
  10  -6  -1    1.16    0.22 
  10  -6  -1    0.92    0.15 
  10  -6   0    0.22    0.14 
  10  -6   0    0.09    0.11 
  10  -6   1    0.67    0.17 
  10  -6   1    0.77    0.20 
  10  -6   2    0.83    0.18 
  10  -6   2    0.84    0.22 
  10  -6   3    0.03    0.18 
  10  -6   4    0.03    0.20 
  10  -6   5    1.60    0.37 
  10  -7  -7   -0.09    0.19 
  10  -7  -6   -0.12    0.18 
  10  -7  -5    0.14    0.21 
  10  -7  -4    4.04    0.44 
  10  -7  -3    0.52    0.19 
  10  -7  -2    0.95    0.22 
  10  -7  -1    2.53    0.30 
  10  -7  -1    2.59    0.22 
  10  -7   0    3.35    0.33 
  10  -7   0    3.21    0.28 
  10  -7   1    1.08    0.22 
  10  -7   1    1.17    0.21 
  10  -7   2   -0.05    0.16 
  10  -7   2    0.38    0.14 
  10  -7   3   -0.04    0.18 
  10  -7   4   -0.31    0.18 
  10  -7   5    0.34    0.27 
  10  -8  -7    0.02    0.19 
  10  -8  -6    0.04    0.22 
  10  -8  -5    0.41    0.23 
  10  -8  -4    6.18    0.53 
  10  -8  -3    0.51    0.18 
  10  -8  -2    0.11    0.13 
  10  -8  -1    2.13    0.29 
  10  -8   0    1.69    0.25 
  10  -8   0    1.45    0.22 
  10  -8   1    0.44    0.19 
  10  -8   1    0.50    0.15 
  10  -8   2    0.37    0.19 
  10  -8   2    0.17    0.13 
  10  -8   3   -0.05    0.18 
  10  -8   4    0.10    0.22 
  10  -8   5    0.22    0.25 
  10  -9  -7    0.03    0.19 
  10  -9  -6    0.04    0.20 
  10  -9  -5    0.25    0.21 
  10  -9  -4    1.46    0.31 
  10  -9  -3    9.03    0.55 
  10  -9  -2    1.22    0.14 
  10  -9  -2    1.46    0.26 
  10  -9  -1    5.25    0.32 
  10  -9  -1    5.15    0.39 
  10  -9   0    0.34    0.14 
  10  -9   0    0.28    0.17 
  10  -9   1   -0.08    0.16 
  10  -9   1    0.13    0.10 
  10  -9   2    0.42    0.21 
  10  -9   3    0.48    0.24 
  10  -9   4   -0.22    0.19 
  10  -9   5   -0.09    0.22 
  10 -10  -6    0.02    0.21 
  10 -10  -5    0.12    0.18 
  10 -10  -4    9.02    0.61 
  10 -10  -3    0.29    0.15 
  10 -10  -2    3.67    0.23 
  10 -10  -2    3.23    0.36 
  10 -10  -1    0.83    0.16 
  10 -10  -1    0.73    0.20 
  10 -10   0    0.02    0.11 
  10 -10   0   -0.05    0.16 
  10 -10   1    0.44    0.15 
  10 -10   1    0.70    0.22 
  10 -10   2    0.15    0.20 
  10 -10   3    0.73    0.27 
  10 -10   4    0.08    0.21 
  10 -10   5   -0.09    0.22 
  10 -11  -6   -0.11    0.19 
  10 -11  -5    0.29    0.23 
  10 -11  -4    2.05    0.36 
  10 -11  -3    3.92    0.42 
  10 -11  -2    0.02    0.13 
  10 -11  -1    1.49    0.22 
  10 -11  -1    1.40    0.25 
  10 -11   0    0.12    0.15 
  10 -11   0    0.09    0.10 
  10 -11   1   -0.05    0.18 
  10 -11   1    0.00    0.10 
  10 -11   2    0.51    0.23 
  10 -11   3    0.57    0.26 
  10 -11   4   -0.15    0.19 
  10 -11   5    0.30    0.27 
  10 -12  -6   -0.28    0.18 
  10 -12  -5   -0.20    0.18 
  10 -12  -4    0.18    0.17 
  10 -12  -3    4.52    0.46 
  10 -12  -2    1.10    0.23 
  10 -12  -2    0.97    0.18 
  10 -12  -1    0.54    0.17 
  10 -12  -1    0.41    0.16 
  10 -12   0   -0.09    0.15 
  10 -12   0    0.03    0.11 
  10 -12   1    0.32    0.15 
  10 -12   1    0.50    0.23 
  10 -12   2    0.81    0.26 
  10 -12   3    0.50    0.25 
  10 -12   4   -0.37    0.20 
  10 -13  -6    0.02    0.19 
  10 -13  -5    0.63    0.28 
  10 -13  -4    0.10    0.19 
  10 -13  -3    1.97    0.33 
  10 -13  -2    0.56    0.15 
  10 -13  -2    0.97    0.22 
  10 -13  -1    0.19    0.12 
  10 -13  -1    0.00    0.14 
  10 -13   0    0.51    0.15 
  10 -13   0    0.75    0.23 
  10 -13   1    0.54    0.23 
  10 -13   2    1.09    0.30 
  10 -13   3   -0.04    0.21 
  10 -13   4   -0.02    0.23 
  10 -14  -6    0.37    0.22 
  10 -14  -5    1.46    0.37 
  10 -14  -4    0.25    0.20 
  10 -14  -3    0.93    0.25 
  10 -14  -2    3.38    0.39 
  10 -14  -2    3.02    0.30 
  10 -14  -1    0.18    0.15 
  10 -14  -1    0.04    0.15 
  10 -14   0    0.41    0.20 
  10 -14   0    0.18    0.13 
  10 -14   1    0.43    0.22 
  10 -14   2    0.00    0.22 
  10 -14   3    0.17    0.24 
  10 -14   4    0.49    0.26 
  10 -15  -5    1.59    0.39 
  10 -15  -4    0.68    0.27 
  10 -15  -3    0.35    0.21 
  10 -15  -2    1.56    0.29 
  10 -15  -2    1.28    0.23 
  10 -15  -1    0.23    0.16 
  10 -15  -1    0.20    0.15 
  10 -15   0    0.47    0.21 
  10 -15   0    0.14    0.15 
  10 -15   1    0.95    0.28 
  10 -15   2    0.23    0.24 
  10 -15   3    0.50    0.27 
  10 -15   4    0.39    0.26 
  10 -16  -5   -0.06    0.22 
  10 -16  -4   -0.05    0.18 
  10 -16  -3    0.89    0.26 
  10 -16  -2    0.97    0.22 
  10 -16  -2    1.04    0.25 
  10 -16  -1    0.64    0.19 
  10 -16  -1    0.57    0.19 
  10 -16   0    0.15    0.18 
  10 -16   0    0.05    0.15 
  10 -16   1    0.80    0.28 
  10 -16   2    0.15    0.23 
  10 -16   3    0.54    0.26 
  10 -17  -5    0.62    0.30 
  10 -17  -4    0.00    0.19 
  10 -17  -3   -0.02    0.16 
  10 -17  -2    2.99    0.34 
  10 -17  -2    2.91    0.40 
  10 -17  -1    0.05    0.16 
  10 -17  -1    0.05    0.15 
  10 -17   0   -0.04    0.18 
  10 -17   1    0.38    0.24 
  10 -17   2    0.20    0.24 
  10 -17   3   -0.22    0.19 
  10 -18  -5    0.35    0.27 
  10 -18  -4   -0.07    0.20 
  10 -18  -3    1.90    0.36 
  10 -18  -2    0.57    0.22 
  10 -18  -2    0.72    0.23 
  10 -18  -1    0.18    0.16 
  10 -18  -1    0.18    0.17 
  10 -18   0    0.50    0.23 
  10 -18   1    0.74    0.26 
  10 -18   2    0.95    0.28 
  10 -18   3    0.14    0.22 
  10 -19  -4    0.22    0.25 
  10 -19  -3    1.68    0.37 
  10 -19  -2    0.21    0.19 
  10 -19  -2    0.35    0.19 
  10 -19  -1    0.11    0.16 
  10 -19  -1   -0.10    0.15 
  10 -19   0    0.29    0.20 
  10 -19   1    0.34    0.23 
  10 -19   2    0.06    0.19 
  10 -20  -4    0.34    0.29 
  10 -20  -3    1.96    0.39 
  10 -20  -2   -0.04    0.17 
  10 -20  -2   -0.09    0.17 
  10 -20  -1    0.51    0.22 
  10 -20   0    0.41    0.21 
  10 -20   1    0.29    0.21 
  10 -20   2    0.47    0.22 
  10 -21  -3   -0.27    0.23 
  10 -21  -2    0.22    0.18 
  10 -21  -2    0.06    0.20 
  10 -21  -1    0.37    0.20 
  10 -21   0    0.72    0.24 
  10 -21   1    0.94    0.23 
  10 -22  -2    0.19    0.17 
  10 -22  -2    0.08    0.21 
  10 -22  -1    0.88    0.23 
  10 -22   0    0.50    0.19 
 -11 -21   2    0.07    0.14 
  11  21  -1    0.32    0.19 
  11  21   0    0.25    0.18 
 -11 -20   3    0.31    0.16 
 -11 -20   2    0.23    0.16 
  11  20  -1    1.26    0.31 
  11  20   0   -0.04    0.17 
  11  20   1    0.32    0.16 
 -11 -19   4    0.19    0.14 
 -11 -19   3    0.07    0.15 
 -11 -19   2    0.84    0.20 
  11  19  -2    0.55    0.21 
  11  19  -1    0.61    0.24 
  11  19   0    1.46    0.31 
  11  19   1    0.10    0.15 
 -11 -18   4    0.98    0.22 
 -11 -18   3   -0.03    0.14 
 -11 -18   2    0.76    0.20 
  11  18  -2    0.39    0.21 
  11  18  -1    0.40    0.22 
  11  18   0    1.01    0.28 
  11  18   1    0.31    0.19 
  11  18   2    0.66    0.21 
 -11 -17   4    0.21    0.17 
 -11 -17   3    0.41    0.17 
 -11 -17   2   -0.05    0.13 
  11  17  -2    0.09    0.18 
  11  17  -1    0.03    0.19 
  11  17   0    0.33    0.20 
  11  17   1    0.22    0.18 
  11  17   2    0.57    0.19 
 -11 -16   5    0.02    0.15 
 -11 -16   4    0.09    0.14 
 -11 -16   3    0.15    0.15 
 -11 -16   2    0.03    0.15 
  11  16  -2   -0.13    0.14 
  11  16  -1    0.06    0.16 
  11  16   0    0.31    0.22 
  11  16   1    0.40    0.21 
  11  16   2    0.27    0.18 
  11  16   3    0.03    0.23 
 -11 -15   5    0.15    0.19 
 -11 -15   4    0.22    0.16 
 -11 -15   3    0.40    0.16 
  11  15  -3    0.13    0.16 
 -11 -15   2    0.55    0.18 
  11  15  -2    0.64    0.22 
  11  15  -1   -0.13    0.15 
  11  15   0    0.11    0.17 
  11  15   1    0.37    0.21 
  11  15   2    0.30    0.19 
  11  15   3   -0.05    0.21 
 -11 -14   5    0.22    0.18 
 -11 -14   4    0.27    0.18 
 -11 -14   3   -0.06    0.14 
  11  14  -3    0.08    0.15 
 -11 -14   2    6.23    0.39 
  11  14  -2    6.27    0.46 
  11  14  -1    0.19    0.16 
  11  14   0    0.77    0.24 
  11  14   1    2.59    0.37 
  11  14   2    0.01    0.16 
  11  14   3    0.26    0.24 
 -11 -13   6    0.11    0.21 
 -11 -13   5    0.41    0.21 
 -11 -13   4    0.01    0.14 
 -11 -13   3    0.02    0.13 
  11  13  -3   -0.09    0.14 
 -11 -13   2    0.33    0.15 
  11  13  -2    0.25    0.16 
  11  13  -1    0.42    0.19 
  11  13   0    0.08    0.15 
  11  13   1    0.81    0.24 
  11  13   2   -0.01    0.18 
  11  13   3   -0.17    0.19 
  11  13   4   -0.15    0.20 
 -11 -12   6   -0.03    0.21 
 -11 -12   5    0.21    0.17 
 -11 -12   4    0.08    0.13 
  11  12  -4    0.29    0.17 
 -11 -12   3    0.20    0.14 
  11  12  -3    0.18    0.16 
 -11 -12   2    0.07    0.13 
  11  12  -2    0.14    0.14 
  11  12  -1    0.55    0.20 
  11  12   0    0.86    0.25 
  11  12   1    1.51    0.30 
  11  12   2    0.15    0.18 
  11  12   3    0.12    0.19 
  11  12   4   -0.02    0.26 
 -11 -11   6   -0.20    0.19 
 -11 -11   5    0.93    0.24 
 -11 -11   4    0.16    0.17 
  11  11  -4    0.16    0.18 
 -11 -11   3    0.98    0.20 
  11  11  -3    1.20    0.24 
 -11 -11   2   -0.03    0.12 
  11  11  -2    0.10    0.13 
  11  11  -1    1.71    0.29 
  11  11   0    1.02    0.25 
  11  11   1    0.08    0.17 
  11  11   2   -0.05    0.15 
  11  11   3    0.07    0.19 
  11  11   4   -0.24    0.20 
 -11 -10   6   -0.10    0.18 
 -11 -10   5    1.27    0.25 
 -11 -10   4    0.07    0.13 
  11  10  -4    0.18    0.17 
 -11 -10   3    0.43    0.17 
  11  10  -3    0.58    0.20 
 -11 -10   2    0.36    0.15 
  11  10  -2    0.42    0.18 
  11  10  -1    0.54    0.19 
  11  10   0   12.16    0.66 
  11  10   1    2.72    0.37 
  11  10   2    0.08    0.17 
  11  10   3    0.76    0.24 
  11  10   4    0.35    0.24 
 -11  -9   6    0.07    0.17 
 -11  -9   5    0.61    0.21 
 -11  -9   4    1.78    0.25 
  11   9  -4    1.76    0.31 
 -11  -9   3   -0.08    0.12 
  11   9  -3    0.28    0.17 
 -11  -9   2    0.46    0.14 
  11   9  -2    0.41    0.18 
  11   9  -1    9.25    0.55 
  11   9   0    8.44    0.54 
  11   9   1    0.52    0.19 
  11   9   2    0.06    0.16 
  11   9   3   -0.17    0.15 
  11   9   4    0.21    0.22 
 -11  -8   7    0.00    0.19 
 -11  -8   6    0.20    0.17 
 -11  -8   5    0.23    0.17 
  11   8  -5    0.33    0.19 
 -11  -8   4    0.46    0.15 
  11   8  -4    0.59    0.22 
 -11  -8   3    0.65    0.16 
  11   8  -3    0.75    0.21 
 -11  -8   2    0.32    0.13 
  11   8  -2    0.49    0.18 
  11   8  -1    0.17    0.15 
  11   8   0    9.82    0.57 
  11   8   1    0.55    0.18 
  11   8   2    0.05    0.14 
  11   8   3   -0.06    0.14 
  11   8   4    0.10    0.20 
  11   8   4    0.08    0.18 
 -11  -7   7   -0.09    0.20 
 -11  -7   6    0.28    0.19 
 -11  -7   5   -0.02    0.13 
  11   7  -5    0.14    0.16 
 -11  -7   4    0.86    0.18 
  11   7  -4    1.03    0.25 
 -11  -7   3    0.38    0.15 
  11   7  -3    0.31    0.18 
 -11  -7   2    2.73    0.25 
  11   7  -2    3.03    0.34 
  11   7  -1    0.78    0.21 
  11   7   0    2.97    0.34 
  11   7   1    0.64    0.20 
  11   7   2    0.08    0.14 
  11   7   3    0.03    0.16 
  11   7   4    0.35    0.22 
  11   7   4    0.10    0.21 
  11   7   5    0.47    0.23 
  11   7   5   -0.19    0.20 
 -11  -6   7    0.33    0.22 
 -11  -6   6    0.23    0.18 
 -11  -6   5    0.31    0.15 
  11   6  -5    0.20    0.20 
 -11  -6   4   -0.01    0.11 
  11   6  -4    0.00    0.15 
 -11  -6   3    0.59    0.16 
  11   6  -3    0.83    0.22 
 -11  -6   2    4.35    0.28 
  11   6  -2    3.56    0.36 
  11   6  -1   14.75    0.71 
  11   6   0    1.73    0.27 
  11   6   1    1.27    0.24 
  11   6   2   -0.03    0.12 
  11   6   3    0.62    0.20 
  11   6   3    0.60    0.20 
  11   6   4   -0.18    0.16 
  11   6   4    0.41    0.21 
  11   6   5    0.51    0.23 
  11   6   5    0.69    0.28 
 -11  -5   7   -0.09    0.18 
 -11  -5   6   -0.16    0.13 
 -11  -5   5    0.23    0.15 
  11   5  -5    0.39    0.20 
 -11  -5   4    4.21    0.30 
  11   5  -4    3.87    0.41 
 -11  -5   3    2.56    0.25 
  11   5  -3    2.86    0.35 
 -11  -5   2    0.43    0.13 
  11   5  -2    0.67    0.21 
  11   5  -1   47.13    1.63 
  11   5   0    0.61    0.19 
  11   5   0    0.45    0.09 
  11   5   1    0.86    0.21 
  11   5   1    1.11    0.17 
  11   5   2   -0.26    0.11 
  11   5   2    0.16    0.15 
  11   5   3    0.38    0.20 
  11   5   3    0.30    0.17 
  11   5   4    0.52    0.23 
  11   5   4    0.24    0.21 
  11   5   5   -0.09    0.17 
  11   5   5    0.32    0.26 
 -11  -4   7    0.24    0.23 
 -11  -4   6    0.08    0.15 
  11   4  -6    0.12    0.20 
 -11  -4   5   -0.12    0.11 
  11   4  -5   -0.03    0.15 
 -11  -4   4    5.09    0.32 
  11   4  -4    4.69    0.44 
 -11  -4   3    4.94    0.31 
  11   4  -3    5.83    0.43 
 -11  -4   2    0.63    0.15 
  11   4  -2    0.72    0.21 
  11   4  -1   15.78    0.74 
  11   4   0    2.50    0.31 
  11   4   0    3.38    0.22 
  11   4   1    2.94    0.25 
  11   4   1    2.32    0.30 
  11   4   2    2.65    0.30 
  11   4   2    3.42    0.36 
  11   4   3    1.10    0.25 
  11   4   3    1.04    0.23 
  11   4   4    0.55    0.21 
  11   4   4    0.42    0.21 
  11   4   5    1.00    0.30 
 -11  -3   7    0.07    0.19 
 -11  -3   6    0.19    0.16 
  11   3  -6    0.15    0.19 
 -11  -3   5    2.56    0.29 
  11   3  -5    2.47    0.36 
 -11  -3   4    1.83    0.21 
  11   3  -4    1.59    0.31 
 -11  -3   3   13.44    0.54 
  11   3  -3   13.33    0.70 
 -11  -3   2    0.63    0.15 
  11   3  -2    0.94    0.22 
  11   3  -1    0.34    0.16 
  11   3   0    0.12    0.12 
  11   3   0    0.14    0.07 
  11   3   1    1.57    0.20 
  11   3   1    1.94    0.27 
  11   3   2    0.62    0.19 
  11   3   2    0.78    0.21 
  11   3   3    0.48    0.21 
  11   3   3    0.87    0.22 
  11   3   4    0.73    0.23 
  11   3   4    0.80    0.27 
  11   3   5    0.83    0.28 
 -11  -2   7    0.26    0.19 
 -11  -2   6    0.43    0.17 
  11   2  -6    0.21    0.18 
 -11  -2   5    0.07    0.13 
  11   2  -5    0.24    0.20 
 -11  -2   4    0.58    0.14 
  11   2  -4    0.80    0.23 
 -11  -2   3    0.49    0.14 
  11   2  -3    0.50    0.21 
 -11  -2   2    7.75    0.38 
  11   2  -2    7.17    0.50 
  11   2  -1    0.19    0.13 
  11   2   0    0.08    0.07 
  11   2   0   -0.03    0.10 
  11   2   1    0.03    0.08 
  11   2   1   -0.01    0.11 
  11   2   2   -0.01    0.13 
  11   2   2   -0.03    0.13 
  11   2   3   -0.16    0.15 
  11   2   3    0.06    0.13 
  11   2   4    0.91    0.25 
  11   2   4    0.97    0.29 
  11   2   5    0.04    0.22 
 -11  -1   7    0.11    0.17 
 -11  -1   6    0.09    0.13 
  11   1  -6    0.23    0.20 
 -11  -1   5    0.44    0.15 
  11   1  -5    0.95    0.26 
 -11  -1   4    0.23    0.11 
  11   1  -4    0.18    0.17 
 -11  -1   3    4.42    0.28 
  11   1  -3    4.52    0.42 
 -11  -1   2    6.59    0.37 
  11   1  -2    6.37    0.50 
  11   1  -1   -0.11    0.09 
  11   1   0    0.03    0.11 
  11   1   0    0.13    0.08 
  11   1   1    6.35    0.36 
  11   1   1    5.38    0.38 
  11   1   2    0.24    0.13 
  11   1   2    0.13    0.15 
  11   1   3   -0.03    0.13 
  11   1   3    0.17    0.18 
  11   1   4    0.15    0.18 
  11   1   4    0.16    0.22 
  11   1   5    0.53    0.26 
 -11   0   7    0.28    0.18 
 -11   0   6    0.87    0.19 
  11   0  -6    0.53    0.24 
 -11   0   5    0.13    0.11 
  11   0  -5    0.05    0.18 
 -11   0   4    2.83    0.24 
  11   0  -4    3.76    0.40 
 -11   0   3   -0.01    0.08 
  11   0  -3   -0.10    0.13 
  11   0  -2  125.32    3.75 
  11   0  -1   -0.07    0.10 
  11   0   0    1.40    0.24 
  11   0   0    1.81    0.18 
  11   0   1    0.07    0.09 
  11   0   1   -0.12    0.11 
  11   0   2    4.81    0.36 
  11   0   2    4.65    0.37 
  11   0   3    0.04    0.12 
  11   0   3   -0.23    0.14 
  11   0   4    0.84    0.23 
  11   0   4    0.99    0.30 
  11   0   5    0.33    0.24 
 -11   1   7   -0.05    0.16 
  11  -1  -7   -0.28    0.18 
 -11   1   6    0.10    0.12 
  11  -1  -6    0.15    0.21 
 -11   1   5    0.50    0.14 
  11  -1  -5    1.05    0.27 
 -11   1   4    0.23    0.11 
  11  -1  -4    0.31    0.18 
 -11   1   3    4.53    0.27 
  11  -1  -3    4.30    0.42 
  11  -1  -2    5.86    0.46 
  11  -1  -1   -0.11    0.09 
  11  -1   0    0.02    0.10 
  11  -1   0    0.04    0.11 
  11  -1   1    5.87    0.34 
  11  -1   1    5.56    0.40 
  11  -1   2    0.04    0.15 
  11  -1   2    0.31    0.14 
  11  -1   3   -0.16    0.15 
  11  -1   3    0.00    0.12 
  11  -1   4    0.20    0.21 
  11  -1   5    0.74    0.29 
  11  -2  -7   -0.14    0.19 
 -11   2   6    0.20    0.14 
  11  -2  -6    0.05    0.21 
 -11   2   5    0.14    0.10 
  11  -2  -5    0.06    0.18 
 -11   2   4    0.54    0.13 
  11  -2  -4    0.54    0.21 
 -11   2   3    0.23    0.10 
  11  -2  -3    0.65    0.22 
  11  -2  -2    7.42    0.49 
  11  -2  -1    0.22    0.13 
  11  -2   0    0.10    0.09 
  11  -2   0    0.10    0.12 
  11  -2   1   -0.05    0.10 
  11  -2   1    0.05    0.12 
  11  -2   2    0.15    0.16 
  11  -2   2    0.24    0.14 
  11  -2   3    0.05    0.18 
  11  -2   3   -0.29    0.10 
  11  -2   4    1.05    0.29 
  11  -2   5   -0.33    0.18 
  11  -3  -7   -0.07    0.21 
  11  -3  -6   -0.10    0.21 
 -11   3   5    2.35    0.22 
  11  -3  -5    1.88    0.35 
 -11   3   4    1.88    0.19 
  11  -3  -4    1.58    0.31 
 -11   3   3   11.88    0.48 
  11  -3  -3   12.45    0.68 
  11  -3  -2    1.17    0.25 
  11  -3  -1    0.26    0.15 
  11  -3   0    0.19    0.12 
  11  -3   0    0.03    0.10 
  11  -3   1    1.81    0.26 
  11  -3   1    1.54    0.23 
  11  -3   2    0.54    0.20 
  11  -3   2    0.71    0.17 
  11  -3   3    0.64    0.20 
  11  -3   3    0.70    0.21 
  11  -3   4    0.90    0.28 
  11  -3   5    0.75    0.27 
  11  -4  -7    0.16    0.23 
  11  -4  -6    0.12    0.21 
 -11   4   5    0.07    0.10 
  11  -4  -5   -0.09    0.15 
 -11   4   4    4.95    0.28 
  11  -4  -4    5.09    0.48 
 -11   4   3    5.17    0.29 
  11  -4  -3    5.83    0.49 
  11  -4  -2    0.58    0.20 
  11  -4  -1   17.29    0.80 
  11  -4   0    2.88    0.33 
  11  -4   1    2.81    0.32 
  11  -4   1    3.31    0.30 
  11  -4   2    2.75    0.31 
  11  -4   2    2.89    0.32 
  11  -4   3    0.70    0.19 
  11  -4   3    0.55    0.22 
  11  -4   4    0.21    0.22 
  11  -4   5    0.92    0.29 
  11  -5  -7    0.06    0.20 
  11  -5  -6   -0.11    0.20 
  11  -5  -5    0.20    0.20 
 -11   5   4    3.62    0.23 
  11  -5  -4    3.82    0.43 
  11  -5  -3    2.40    0.35 
  11  -5  -2    0.69    0.19 
  11  -5  -1   49.48    1.71 
  11  -5   0    0.55    0.17 
  11  -5   0    0.18    0.11 
  11  -5   1    0.92    0.21 
  11  -5   1    1.23    0.23 
  11  -5   2    0.08    0.12 
  11  -5   2    0.00    0.17 
  11  -5   3    0.51    0.24 
  11  -5   4    0.18    0.23 
  11  -5   5    0.09    0.22 
  11  -6  -7    0.37    0.24 
  11  -6  -6    0.00    0.20 
  11  -6  -5    0.04    0.20 
 -11   6   4    0.17    0.09 
  11  -6  -4   -0.07    0.16 
  11  -6  -3    0.87    0.22 
  11  -6  -2    4.64    0.42 
  11  -6  -1   16.74    0.79 
  11  -6   0    1.72    0.26 
  11  -6   0    1.56    0.21 
  11  -6   1    1.63    0.26 
  11  -6   1    2.13    0.27 
  11  -6   2    0.43    0.15 
  11  -6   2   -0.09    0.15 
  11  -6   3    0.38    0.24 
  11  -6   4    0.02    0.21 
  11  -6   5    1.11    0.30 
  11  -7  -7    0.10    0.20 
  11  -7  -6    0.14    0.19 
  11  -7  -5    0.08    0.20 
  11  -7  -4    0.54    0.23 
  11  -7  -3    0.48    0.18 
  11  -7  -2    2.84    0.35 
  11  -7  -1    0.75    0.21 
  11  -7  -1    0.64    0.15 
  11  -7   0    2.86    0.27 
  11  -7   0    3.09    0.34 
  11  -7   1    0.38    0.19 
  11  -7   1    0.59    0.18 
  11  -7   2    0.15    0.18 
  11  -7   2   -0.05    0.11 
  11  -7   3    0.18    0.21 
  11  -7   4   -0.05    0.21 
  11  -7   5   -0.40    0.19 
  11  -8  -6    0.22    0.23 
  11  -8  -5    0.00    0.19 
  11  -8  -4    0.04    0.18 
  11  -8  -3    0.94    0.24 
  11  -8  -2    0.52    0.19 
  11  -8  -1    0.07    0.10 
  11  -8  -1    0.12    0.14 
  11  -8   0    8.43    0.47 
  11  -8   0    8.12    0.50 
  11  -8   1    1.03    0.21 
  11  -8   1    0.71    0.22 
  11  -8   2   -0.11    0.17 
  11  -8   2    0.00    0.12 
  11  -8   3   -0.12    0.19 
  11  -8   4    0.20    0.25 
  11  -9  -6    0.19    0.21 
  11  -9  -5    0.66    0.26 
  11  -9  -4    1.69    0.34 
  11  -9  -3    0.16    0.12 
  11  -9  -2    0.76    0.22 
  11  -9  -1   10.62    0.60 
  11  -9   0    8.99    0.54 
  11  -9   0    9.87    0.52 
  11  -9   1    0.44    0.16 
  11  -9   1    0.55    0.21 
  11  -9   2    0.13    0.20 
  11  -9   3   -0.11    0.21 
  11  -9   4    0.36    0.25 
  11 -10  -6   -0.08    0.20 
  11 -10  -5    0.85    0.29 
  11 -10  -4    0.17    0.20 
  11 -10  -3    0.65    0.20 
  11 -10  -2    0.48    0.18 
  11 -10  -1    0.63    0.16 
  11 -10  -1    0.14    0.15 
  11 -10   0   12.47    0.64 
  11 -10   0   11.80    0.59 
  11 -10   1    2.95    0.34 
  11 -10   1    2.97    0.32 
  11 -10   2    0.01    0.18 
  11 -10   3    0.74    0.27 
  11 -10   4   -0.07    0.23 
  11 -11  -6    0.51    0.26 
  11 -11  -5    0.81    0.28 
  11 -11  -4    0.46    0.24 
  11 -11  -3    1.63    0.30 
  11 -11  -2    0.44    0.18 
  11 -11  -1    1.50    0.26 
  11 -11  -1    1.36    0.22 
  11 -11   0    1.45    0.25 
  11 -11   0    0.90    0.21 
  11 -11   1    0.04    0.12 
  11 -11   1    0.25    0.21 
  11 -11   2    0.00    0.20 
  11 -11   3   -0.20    0.20 
  11 -11   4   -0.16    0.22 
  11 -12  -6    0.29    0.22 
  11 -12  -5    0.42    0.24 
  11 -12  -4    0.23    0.19 
  11 -12  -3    0.20    0.18 
  11 -12  -2    0.11    0.15 
  11 -12  -1    0.66    0.19 
  11 -12  -1    0.60    0.18 
  11 -12   0    0.80    0.23 
  11 -12   0    0.83    0.20 
  11 -12   1    1.71    0.30 
  11 -12   2    0.05    0.22 
  11 -12   3    0.00    0.24 
  11 -12   4   -0.14    0.22 
  11 -13  -6    0.69    0.26 
  11 -13  -5    0.19    0.25 
  11 -13  -4   -0.03    0.18 
  11 -13  -3    0.05    0.17 
  11 -13  -2    0.00    0.14 
  11 -13  -1    0.37    0.18 
  11 -13  -1    0.39    0.15 
  11 -13   0    0.08    0.12 
  11 -13   0    0.21    0.20 
  11 -13   1    1.12    0.28 
  11 -13   2    0.00    0.22 
  11 -13   3    0.15    0.24 
  11 -13   4    0.21    0.24 
  11 -14  -5    0.09    0.24 
  11 -14  -4    0.43    0.24 
  11 -14  -3    0.08    0.17 
  11 -14  -2    5.69    0.50 
  11 -14  -1    0.20    0.17 
  11 -14  -1   -0.02    0.13 
  11 -14   0    1.05    0.23 
  11 -14   0    0.96    0.24 
  11 -14   1    2.61    0.35 
  11 -14   2   -0.01    0.22 
  11 -14   3   -0.39    0.22 
  11 -15  -5   -0.27    0.24 
  11 -15  -4    0.06    0.23 
  11 -15  -3   -0.08    0.15 
  11 -15  -2    0.82    0.24 
  11 -15  -1    0.18    0.16 
  11 -15  -1    0.16    0.16 
  11 -15   0   -0.04    0.19 
  11 -15   0    0.05    0.13 
  11 -15   1    0.71    0.26 
  11 -15   2    0.10    0.25 
  11 -15   3   -0.18    0.23 
  11 -16  -5    0.11    0.25 
  11 -16  -4   -0.01    0.23 
  11 -16  -3   -0.09    0.19 
  11 -16  -2    0.07    0.18 
  11 -16  -1    0.31    0.18 
  11 -16  -1    0.31    0.17 
  11 -16   0    0.21    0.20 
  11 -16   1    0.80    0.28 
  11 -16   2    0.41    0.24 
  11 -16   3    0.30    0.25 
  11 -17  -4   -0.17    0.20 
  11 -17  -3    0.56    0.25 
  11 -17  -2   -0.10    0.18 
  11 -17  -1    0.43    0.22 
  11 -17  -1    0.08    0.18 
  11 -17   0    0.36    0.21 
  11 -17   1   -0.15    0.20 
  11 -17   2    0.67    0.26 
  11 -18  -4    0.82    0.33 
  11 -18  -3   -0.26    0.17 
  11 -18  -2    1.12    0.29 
  11 -18  -1    1.20    0.29 
  11 -18  -1    0.99    0.25 
  11 -18   0    0.70    0.26 
  11 -18   1    0.66    0.26 
  11 -18   2    0.70    0.25 
  11 -19  -3    0.12    0.24 
  11 -19  -2    0.52    0.25 
  11 -19  -1    0.59    0.23 
  11 -19   0    1.37    0.31 
  11 -19   1    0.30    0.22 
  11 -20  -3   -0.17    0.25 
  11 -20  -2    0.12    0.23 
  11 -20  -1    0.77    0.24 
  11 -20   0    0.66    0.24 
  11 -20   1    0.65    0.22 
  11 -21  -2   -0.33    0.20 
  11 -21  -1    0.19    0.17 
  11 -21   0    0.68    0.21 
  12  20  -1    0.43    0.22 
 -12 -19   3    0.43    0.15 
 -12 -19   2    0.18    0.16 
  12  19  -2    0.21    0.17 
  12  19  -1    1.08    0.29 
  12  19   0    1.54    0.32 
 -12 -18   3    0.11    0.16 
 -12 -18   2    0.23    0.16 
  12  18  -2    0.05    0.18 
  12  18  -1   -0.06    0.18 
  12  18   0    0.32    0.18 
  12  18   1    0.10    0.16 
 -12 -17   4    0.52    0.18 
 -12 -17   3    0.15    0.14 
 -12 -17   2    1.25    0.23 
  12  17  -2    1.31    0.30 
  12  17  -1    0.56    0.23 
  12  17   0    0.41    0.23 
  12  17   1    5.14    0.53 
  12  17   2    0.27    0.17 
 -12 -16   4    0.16    0.17 
 -12 -16   3    0.34    0.17 
 -12 -16   2    0.76    0.19 
  12  16  -2    0.57    0.22 
  12  16  -1    0.15    0.20 
  12  16   0    0.48    0.22 
  12  16   1    0.00    0.18 
  12  16   2    0.56    0.22 
 -12 -15   5    0.52    0.17 
 -12 -15   4    0.41    0.17 
 -12 -15   3    0.39    0.17 
  12  15  -3    0.38    0.23 
 -12 -15   2    1.74    0.26 
  12  15  -2    1.42    0.28 
  12  15  -1    0.42    0.22 
  12  15   0    0.12    0.18 
  12  15   1   10.28    0.68 
  12  15   2    0.12    0.16 
 -12 -14   5    0.14    0.15 
 -12 -14   4    0.30    0.17 
 -12 -14   3    0.14    0.16 
  12  14  -3    0.18    0.19 
 -12 -14   2   -0.03    0.13 
  12  14  -2   -0.05    0.15 
  12  14  -1    0.33    0.21 
  12  14   0   -0.09    0.18 
  12  14   1    1.03    0.28 
  12  14   2    0.74    0.27 
  12  14   3   -0.17    0.22 
 -12 -13   5    0.32    0.17 
 -12 -13   4    0.25    0.16 
 -12 -13   3    0.09    0.14 
  12  13  -3   -0.03    0.16 
 -12 -13   2   -0.02    0.13 
  12  13  -2    0.31    0.18 
  12  13  -1    0.11    0.18 
  12  13   0    0.19    0.21 
  12  13   1    1.17    0.30 
  12  13   2    0.65    0.27 
  12  13   3   -0.03    0.23 
 -12 -12   5    0.04    0.16 
 -12 -12   4    0.25    0.16 
  12  12  -4    0.22    0.19 
 -12 -12   3    0.13    0.15 
  12  12  -3    0.33    0.19 
 -12 -12   2    0.42    0.16 
  12  12  -2    0.45    0.21 
  12  12  -1    2.10    0.34 
  12  12   0    9.49    0.63 
  12  12   1    1.28    0.31 
  12  12   2    2.78    0.42 
  12  12   3   -0.01    0.23 
 -12 -11   6    0.15    0.21 
 -12 -11   5    0.06    0.18 
 -12 -11   4    0.21    0.16 
  12  11  -4    0.30    0.20 
 -12 -11   3    0.18    0.15 
  12  11  -3    0.10    0.17 
 -12 -11   2    0.04    0.12 
  12  11  -2    0.22    0.17 
  12  11  -1    1.41    0.29 
  12  11   0   13.09    0.73 
  12  11   1    1.19    0.29 
  12  11   2    0.93    0.28 
  12  11   3    0.26    0.26 
 -12 -10   6    0.29    0.21 
 -12 -10   5   -0.05    0.16 
 -12 -10   4    0.03    0.13 
  12  10  -4    0.05    0.17 
 -12 -10   3    0.17    0.14 
  12  10  -3    0.22    0.18 
 -12 -10   2    0.08    0.12 
  12  10  -2    0.11    0.16 
  12  10  -1    1.93    0.32 
  12  10   0    5.02    0.48 
  12  10   1    0.64    0.24 
  12  10   2   -0.07    0.17 
  12  10   3   -0.05    0.18 
  12  10   4   -0.04    0.24 
 -12  -9   6   -0.30    0.18 
 -12  -9   5   -0.04    0.17 
 -12  -9   4    0.58    0.18 
  12   9  -4    0.50    0.21 
 -12  -9   3    0.56    0.16 
  12   9  -3    0.47    0.21 
 -12  -9   2    0.60    0.16 
  12   9  -2    1.07    0.26 
  12   9  -1    0.89    0.23 
  12   9   0    0.24    0.18 
  12   9   1    1.88    0.32 
  12   9   2   -0.08    0.16 
  12   9   3    0.69    0.26 
  12   9   4    0.60    0.21 
  12   9   4   -0.12    0.22 
 -12  -8   6    0.12    0.19 
 -12  -8   5   -0.17    0.14 
  12   8  -5    0.26    0.20 
 -12  -8   4    0.31    0.16 
  12   8  -4    0.36    0.21 
 -12  -8   3    0.28    0.13 
  12   8  -3    0.33    0.17 
 -12  -8   2    0.12    0.13 
  12   8  -2    0.15    0.15 
  12   8  -1    3.48    0.38 
  12   8   0    5.45    0.47 
  12   8   1    1.65    0.30 
  12   8   2   -0.02    0.15 
  12   8   3    0.42    0.23 
  12   8   3    0.82    0.27 
  12   8   4    0.09    0.24 
  12   8   4    0.26    0.18 
 -12  -7   6    0.17    0.19 
 -12  -7   5    0.24    0.16 
  12   7  -5    0.43    0.23 
 -12  -7   4    0.18    0.13 
  12   7  -4    0.28    0.18 
 -12  -7   3    1.16    0.19 
  12   7  -3    1.19    0.26 
 -12  -7   2    0.23    0.12 
  12   7  -2    0.15    0.15 
  12   7  -1    5.27    0.45 
  12   7   0   23.52    1.01 
  12   7   1    0.13    0.17 
  12   7   2    0.39    0.19 
  12   7   2    0.46    0.20 
  12   7   3    0.14    0.19 
  12   7   3    0.16    0.19 
  12   7   4    0.01    0.23 
  12   7   4    0.17    0.18 
 -12  -6   6   -0.14    0.14 
 -12  -6   5    0.10    0.15 
  12   6  -5    0.09    0.17 
 -12  -6   4   -0.05    0.11 
  12   6  -4    0.02    0.16 
 -12  -6   3    0.08    0.11 
  12   6  -3    0.19    0.17 
 -12  -6   2   -0.14    0.09 
  12   6  -2    0.16    0.14 
  12   6  -1    6.98    0.48 
  12   6   0    2.32    0.33 
  12   6   1    0.57    0.17 
  12   6   1    0.53    0.19 
  12   6   2    0.01    0.15 
  12   6   2    0.07    0.15 
  12   6   3   -0.05    0.17 
  12   6   3    0.35    0.20 
  12   6   4    0.73    0.29 
  12   6   4    0.88    0.27 
 -12  -5   6    0.05    0.18 
 -12  -5   5   -0.09    0.11 
  12   5  -5    0.28    0.21 
 -12  -5   4   -0.24    0.08 
  12   5  -4    0.18    0.17 
 -12  -5   3   -0.03    0.09 
  12   5  -3   -0.11    0.13 
 -12  -5   2    0.03    0.10 
  12   5  -2    0.27    0.16 
  12   5  -1    2.30    0.34 
  12   5   0    0.11    0.13 
  12   5   1    0.08    0.14 
  12   5   1    0.22    0.15 
  12   5   2   -0.06    0.14 
  12   5   2    0.19    0.16 
  12   5   3   -0.05    0.15 
  12   5   3   -0.03    0.18 
  12   5   4    0.09    0.20 
  12   5   4    0.32    0.23 
 -12  -4   7    0.02    0.20 
 -12  -4   6    0.14    0.18 
  12   4  -6    0.18    0.21 
 -12  -4   5    0.28    0.15 
  12   4  -5    0.82    0.24 
 -12  -4   4    1.87    0.24 
  12   4  -4    1.84    0.32 
 -12  -4   3    0.03    0.10 
  12   4  -3   -0.10    0.13 
 -12  -4   2    0.16    0.12 
  12   4  -2    0.37    0.18 
  12   4  -1    1.79    0.30 
  12   4   0    1.06    0.23 
  12   4   1    1.63    0.23 
  12   4   1    1.28    0.26 
  12   4   2    0.05    0.13 
  12   4   2    0.06    0.14 
  12   4   3   -0.14    0.16 
  12   4   3    0.02    0.15 
  12   4   4   -0.09    0.18 
  12   4   4    0.10    0.20 
 -12  -3   7   -0.04    0.19 
 -12  -3   6   -0.07    0.16 
  12   3  -6    0.14    0.20 
 -12  -3   5    0.67    0.18 
  12   3  -5    0.56    0.24 
 -12  -3   4    0.28    0.12 
  12   3  -4    0.10    0.15 
 -12  -3   3    0.31    0.12 
  12   3  -3   -0.03    0.14 
 -12  -3   2    3.54    0.26 
  12   3  -2    3.64    0.39 
  12   3  -1    5.08    0.44 
  12   3   0    3.64    0.38 
  12   3   1    0.16    0.13 
  12   3   1    0.30    0.15 
  12   3   2    0.82    0.22 
  12   3   2    1.34    0.26 
  12   3   3    0.10    0.17 
  12   3   3   -0.01    0.16 
  12   3   4    0.09    0.19 
  12   3   4    0.60    0.26 
 -12  -2   7    0.14    0.19 
 -12  -2   6    0.21    0.17 
  12   2  -6   -0.05    0.20 
 -12  -2   5    0.20    0.13 
  12   2  -5   -0.13    0.18 
 -12  -2   4    0.79    0.16 
  12   2  -4    0.81    0.24 
 -12  -2   3    0.37    0.12 
  12   2  -3    0.42    0.17 
  12   2  -2    0.19    0.18 
  12   2  -1    7.70    0.50 
  12   2   0    1.07    0.22 
  12   2   1    2.65    0.32 
  12   2   1    3.27    0.30 
  12   2   2    0.15    0.15 
  12   2   2    0.22    0.17 
  12   2   3    0.15    0.14 
  12   2   3    0.19    0.20 
  12   2   4   -0.35    0.19 
  12   2   4   -0.20    0.15 
 -12  -1   7    0.01    0.17 
 -12  -1   6    0.07    0.15 
  12   1  -6    0.12    0.20 
 -12  -1   5    1.34    0.20 
  12   1  -5    1.48    0.32 
 -12  -1   4    0.65    0.16 
  12   1  -4    0.42    0.21 
 -12  -1   3    0.21    0.11 
  12   1  -3    0.22    0.16 
  12   1  -2    6.71    0.48 
  12   1  -1    0.15    0.13 
  12   1   0    0.10    0.13 
  12   1   1    0.90    0.19 
  12   1   1    0.71    0.18 
  12   1   2    0.14    0.15 
  12   1   2   -0.03    0.15 
  12   1   3   -0.03    0.18 
  12   1   3    0.08    0.14 
  12   1   4   -0.07    0.18 
  12   1   4   -0.41    0.18 
 -12   0   7    0.00    0.16 
  12   0  -7    0.08    0.18 
 -12   0   6    0.16    0.14 
  12   0  -6    0.44    0.24 
 -12   0   5    0.11    0.11 
  12   0  -5    0.21    0.20 
 -12   0   4    1.63    0.20 
  12   0  -4    1.21    0.30 
 -12   0   3   -0.07    0.08 
  12   0  -3   -0.07    0.15 
  12   0  -2   -0.02    0.17 
  12   0  -1   -0.10    0.10 
  12   0   0    1.55    0.27 
  12   0   1   -0.13    0.09 
  12   0   1   -0.10    0.13 
  12   0   2    0.46    0.16 
  12   0   2    0.09    0.16 
  12   0   3    0.06    0.17 
  12   0   3   -0.13    0.12 
  12   0   4    0.07    0.21 
  12  -1  -7    0.42    0.24 
 -12   1   6    0.10    0.13 
  12  -1  -6   -0.05    0.19 
 -12   1   5    1.20    0.19 
  12  -1  -5    1.50    0.33 
 -12   1   4    0.65    0.14 
  12  -1  -4    0.70    0.23 
 -12   1   3    0.37    0.12 
  12  -1  -3    0.12    0.17 
  12  -1  -2    6.38    0.47 
  12  -1  -1    0.14    0.13 
  12  -1   0    0.01    0.11 
  12  -1   1    0.76    0.19 
  12  -1   1    0.88    0.21 
  12  -1   2   -0.06    0.15 
  12  -1   2    0.24    0.15 
  12  -1   3    0.04    0.18 
  12  -1   3    0.38    0.16 
  12  -1   4   -0.13    0.20 
  12  -2  -7    0.03    0.22 
 -12   2   6   -0.02    0.12 
  12  -2  -6   -0.15    0.19 
 -12   2   5    0.11    0.10 
  12  -2  -5    0.34    0.22 
 -12   2   4    1.09    0.17 
  12  -2  -4    0.76    0.25 
 -12   2   3    0.37    0.12 
  12  -2  -3    0.35    0.17 
  12  -2  -2   -0.06    0.11 
  12  -2  -1    8.55    0.54 
  12  -2   0    0.90    0.22 
  12  -2   1    3.60    0.36 
  12  -2   1    2.90    0.30 
  12  -2   2    0.50    0.16 
  12  -2   2    0.31    0.18 
  12  -2   3    0.16    0.14 
  12  -2   3   -0.15    0.18 
  12  -2   4   -0.15    0.20 
  12  -3  -7    0.18    0.21 
  12  -3  -6   -0.03    0.23 
 -12   3   5    0.70    0.15 
  12  -3  -5    0.21    0.22 
 -12   3   4    0.24    0.11 
  12  -3  -4    0.09    0.17 
  12  -3  -3    0.22    0.18 
  12  -3  -2    3.90    0.41 
  12  -3  -1    5.07    0.44 
  12  -3   0    3.90    0.39 
  12  -3   1    0.18    0.16 
  12  -3   1    0.23    0.15 
  12  -3   2    1.04    0.24 
  12  -3   2    1.55    0.26 
  12  -3   3    0.32    0.17 
  12  -3   3    0.03    0.20 
  12  -3   4    0.29    0.24 
  12  -4  -7    0.33    0.23 
  12  -4  -6    0.15    0.23 
 -12   4   5    0.71    0.14 
  12  -4  -5    0.35    0.23 
 -12   4   4    1.61    0.19 
  12  -4  -4    1.17    0.29 
  12  -4  -3    0.40    0.20 
  12  -4  -2    0.43    0.18 
  12  -4  -1    1.75    0.29 
  12  -4   0    1.46    0.26 
  12  -4   1    1.84    0.28 
  12  -4   1    1.44    0.24 
  12  -4   2    0.01    0.16 
  12  -4   2    0.17    0.12 
  12  -4   3   -0.21    0.18 
  12  -4   4   -0.15    0.22 
  12  -5  -6    0.49    0.26 
  12  -5  -5   -0.19    0.16 
 -12   5   4    0.09    0.09 
  12  -5  -4   -0.23    0.14 
  12  -5  -3    0.06    0.13 
  12  -5  -2    0.18    0.12 
  12  -5  -1    3.11    0.37 
  12  -5   0   -0.07    0.05 
  12  -5   0   -0.02    0.13 
  12  -5   1    0.60    0.18 
  12  -5   1   -0.05    0.16 
  12  -5   2    0.08    0.13 
  12  -5   2    0.00    0.17 
  12  -5   3   -0.12    0.19 
  12  -5   4   -0.01    0.22 
  12  -6  -6   -0.15    0.18 
  12  -6  -5    0.02    0.21 
  12  -6  -4    0.03    0.16 
  12  -6  -3    0.06    0.14 
  12  -6  -2    0.14    0.13 
  12  -6  -1    8.87    0.56 
  12  -6   0    1.85    0.29 
  12  -6   0    1.06    0.18 
  12  -6   1    0.11    0.12 
  12  -6   1    0.31    0.20 
  12  -6   2    0.13    0.14 
  12  -6   2    0.25    0.20 
  12  -6   3   -0.05    0.20 
  12  -6   4    0.46    0.26 
  12  -7  -6    0.21    0.22 
  12  -7  -5    0.29    0.23 
  12  -7  -4    0.07    0.18 
  12  -7  -3    1.43    0.29 
  12  -7  -2    0.15    0.12 
  12  -7  -1    5.14    0.40 
  12  -7   0   23.23    1.02 
  12  -7   0   24.90    0.92 
  12  -7   1    0.37    0.16 
  12  -7   1    0.34    0.21 
  12  -7   2    0.90    0.22 
  12  -7   2    0.37    0.22 
  12  -7   3   -0.15    0.19 
  12  -7   4    0.00    0.23 
  12  -8  -6    0.13    0.19 
  12  -8  -5   -0.22    0.21 
  12  -8  -4    0.57    0.24 
  12  -8  -3    0.22    0.18 
  12  -8  -2    0.38    0.17 
  12  -8  -1    3.81    0.40 
  12  -8   0    5.81    0.44 
  12  -8   0    4.94    0.37 
  12  -8   1    1.54    0.26 
  12  -8   1    1.86    0.28 
  12  -8   2   -0.18    0.17 
  12  -8   3    0.74    0.26 
  12  -8   4   -0.28    0.21 
  12  -9  -6    0.07    0.20 
  12  -9  -5    0.07    0.21 
  12  -9  -4    0.41    0.24 
  12  -9  -3    0.36    0.17 
  12  -9  -2    1.05    0.25 
  12  -9  -1    1.02    0.23 
  12  -9   0    0.16    0.14 
  12  -9   0    0.13    0.20 
  12  -9   1    2.23    0.31 
  12  -9   1    2.04    0.29 
  12  -9   2   -0.21    0.18 
  12  -9   3    0.26    0.25 
  12  -9   4   -0.11    0.22 
  12 -10  -6    0.19    0.20 
  12 -10  -5    0.17    0.23 
  12 -10  -4   -0.05    0.18 
  12 -10  -3    0.01    0.14 
  12 -10  -2    0.07    0.15 
  12 -10  -1    1.20    0.26 
  12 -10   0    5.40    0.41 
  12 -10   0    5.38    0.42 
  12 -10   1    0.73    0.19 
  12 -10   1    0.84    0.24 
  12 -10   2    0.48    0.23 
  12 -10   3    0.37    0.25 
  12 -10   4   -0.07    0.22 
  12 -11  -6    0.44    0.23 
  12 -11  -5    0.38    0.22 
  12 -11  -4    0.34    0.26 
  12 -11  -3    0.34    0.18 
  12 -11  -2    0.09    0.14 
  12 -11  -1    1.52    0.28 
  12 -11   0   14.27    0.68 
  12 -11   0   13.16    0.70 
  12 -11   1    1.29    0.29 
  12 -11   1    1.38    0.26 
  12 -11   2    1.17    0.29 
  12 -11   3   -0.07    0.21 
  12 -12  -5    0.24    0.20 
  12 -12  -4    0.56    0.25 
  12 -12  -3    0.22    0.18 
  12 -12  -2    0.26    0.17 
  12 -12  -1    1.71    0.29 
  12 -12   0   10.24    0.58 
  12 -12   0   10.13    0.60 
  12 -12   1    1.19    0.29 
  12 -12   2    1.88    0.35 
  12 -12   3   -0.27    0.20 
  12 -13  -5   -0.12    0.24 
  12 -13  -4    0.21    0.23 
  12 -13  -3   -0.01    0.19 
  12 -13  -2    0.11    0.14 
  12 -13  -1    0.29    0.15 
  12 -13   0    0.05    0.19 
  12 -13   0    0.11    0.14 
  12 -13   1    0.84    0.27 
  12 -13   2    0.59    0.27 
  12 -13   3   -0.20    0.22 
  12 -14  -5    0.10    0.28 
  12 -14  -4   -0.06    0.21 
  12 -14  -3    0.50    0.25 
  12 -14  -2    0.17    0.17 
  12 -14  -1    0.12    0.13 
  12 -14   0    0.22    0.20 
  12 -14   0    0.13    0.15 
  12 -14   1    0.98    0.27 
  12 -14   2    1.10    0.31 
  12 -14   3   -0.07    0.24 
  12 -15  -5    0.29    0.30 
  12 -15  -4   -0.01    0.24 
  12 -15  -3    0.16    0.23 
  12 -15  -2    1.77    0.36 
  12 -15  -1    0.40    0.19 
  12 -15   0    0.38    0.22 
  12 -15   1   10.05    0.64 
  12 -15   2    0.00    0.24 
  12 -16  -4    0.33    0.28 
  12 -16  -3   -0.08    0.20 
  12 -16  -2    0.48    0.22 
  12 -16  -1    0.28    0.21 
  12 -16   0    0.14    0.22 
  12 -16   1    0.76    0.27 
  12 -16   2    0.28    0.24 
  12 -17  -4    0.02    0.26 
  12 -17  -3    0.09    0.22 
  12 -17  -2    0.97    0.29 
  12 -17  -1    0.83    0.27 
  12 -17   0    0.45    0.23 
  12 -17   1    5.77    0.52 
  12 -17   2    0.58    0.24 
  12 -18  -3    0.32    0.26 
  12 -18  -2   -0.09    0.20 
  12 -18   0    0.02    0.19 
  12 -18   1    0.43    0.24 
  12 -19  -3   -0.26    0.23 
  12 -19  -2    0.37    0.26 
  12 -19   0    1.43    0.31 
  13  18  -2    0.32    0.18 
  13  18  -1    0.24    0.18 
  13  18   0    0.03    0.19 
 -13 -17   3   -0.11    0.12 
  13  17  -2    0.83    0.25 
  13  17  -1    0.30    0.21 
  13  17   0    0.01    0.17 
  13  17   1    0.97    0.25 
 -13 -16   4    0.69    0.17 
 -13 -16   3    0.25    0.14 
  13  16  -3    0.30    0.19 
 -13 -16   2    0.30    0.16 
  13  16  -2    0.12    0.18 
  13  16  -1    0.19    0.19 
  13  16   0    0.08    0.18 
  13  16   1    0.14    0.19 
 -13 -15   4    0.08    0.11 
 -13 -15   3    0.10    0.14 
  13  15  -3    0.04    0.20 
 -13 -15   2   -0.02    0.13 
  13  15  -2    0.30    0.19 
  13  15  -1    0.56    0.23 
  13  15   0    0.41    0.22 
  13  15   1    0.52    0.23 
  13  15   2    0.58    0.23 
 -13 -14   4    0.18    0.13 
 -13 -14   3    0.40    0.17 
  13  14  -3    0.53    0.23 
 -13 -14   2    0.03    0.15 
  13  14  -2   -0.06    0.15 
  13  14  -1    0.41    0.21 
  13  14   0    0.78    0.26 
  13  14   1    5.72    0.56 
  13  14   2   -0.14    0.23 
 -13 -13   5   -0.11    0.16 
 -13 -13   4   -0.09    0.13 
 -13 -13   3    0.14    0.16 
  13  13  -3    0.24    0.20 
 -13 -13   2    0.92    0.21 
  13  13  -2    0.69    0.24 
  13  13  -1    0.95    0.28 
  13  13   0    0.03    0.19 
  13  13   1    5.09    0.53 
  13  13   2    0.49    0.29 
 -13 -12   5    0.55    0.21 
 -13 -12   4   -0.03    0.14 
  13  12  -4   -0.06    0.20 
 -13 -12   3    0.18    0.14 
  13  12  -3    0.05    0.18 
 -13 -12   2    0.22    0.16 
  13  12  -2    0.14    0.21 
  13  12  -1   -0.01    0.17 
  13  12   0    0.18    0.21 
  13  12   1    4.85    0.53 
  13  12   2    0.44    0.26 
  13  12   3    0.12    0.28 
 -13 -11   5    0.07    0.18 
 -13 -11   4   -0.05    0.15 
  13  11  -4    0.33    0.22 
 -13 -11   3    0.18    0.15 
  13  11  -3    0.03    0.16 
 -13 -11   2    0.28    0.14 
  13  11  -2    0.00    0.16 
  13  11  -1    0.08    0.18 
  13  11   0    0.03    0.18 
  13  11   1    0.29    0.20 
  13  11   2    1.01    0.31 
  13  11   3    0.44    0.29 
 -13 -10   5    0.54    0.22 
 -13 -10   4    0.19    0.15 
  13  10  -4    0.07    0.21 
 -13 -10   3    0.05    0.14 
  13  10  -3    0.07    0.17 
 -13 -10   2    0.44    0.18 
  13  10  -2    0.53    0.22 
  13  10  -1    3.16    0.39 
  13  10   0    1.06    0.28 
  13  10   1    0.29    0.20 
  13  10   2    2.88    0.44 
  13  10   3    0.52    0.29 
 -13  -9   6    0.10    0.19 
 -13  -9   5    0.46    0.19 
 -13  -9   4    0.08    0.16 
  13   9  -4    0.05    0.19 
 -13  -9   3    0.22    0.14 
  13   9  -3    0.25    0.20 
 -13  -9   2    0.07    0.13 
  13   9  -2    0.25    0.19 
  13   9  -1    1.34    0.28 
  13   9   0    3.42    0.43 
  13   9   1    0.02    0.16 
  13   9   2    0.92    0.29 
  13   9   3    0.16    0.25 
  13   9   3    0.16    0.21 
 -13  -8   6   -0.07    0.19 
 -13  -8   5   -0.05    0.14 
  13   8  -5   -0.21    0.17 
 -13  -8   4    0.13    0.14 
  13   8  -4    0.06    0.18 
 -13  -8   3    0.08    0.14 
  13   8  -3   -0.10    0.16 
 -13  -8   2    0.39    0.15 
  13   8  -2    0.70    0.22 
  13   8  -1    1.33    0.31 
  13   8   0    3.03    0.41 
  13   8   1   -0.03    0.16 
  13   8   2   -0.06    0.17 
  13   8   3    0.61    0.24 
  13   8   3    0.54    0.29 
 -13  -7   6    0.18    0.22 
 -13  -7   5    0.14    0.15 
  13   7  -5    0.20    0.22 
 -13  -7   4    0.25    0.15 
  13   7  -4    0.19    0.20 
 -13  -7   3    0.20    0.13 
  13   7  -3    0.06    0.15 
  13   7  -2    0.45    0.21 
  13   7  -1   -0.17    0.14 
  13   7   0    4.59    0.46 
  13   7   1   -0.05    0.14 
  13   7   2    0.13    0.20 
  13   7   3    4.93    0.48 
  13   7   3    6.55    0.58 
 -13  -6   6    0.06    0.18 
 -13  -6   5    0.07    0.15 
  13   6  -5    0.14    0.20 
 -13  -6   4   -0.10    0.10 
  13   6  -4    0.08    0.17 
 -13  -6   3    0.71    0.16 
  13   6  -3    0.68    0.25 
  13   6  -2    0.53    0.21 
  13   6  -1    2.06    0.33 
  13   6   0    0.38    0.17 
  13   6   1    0.09    0.14 
  13   6   2   -0.13    0.16 
  13   6   2    0.03    0.16 
  13   6   3    1.24    0.30 
  13   6   3    1.11    0.29 
  13   6   4    0.25    0.26 
  13   6   4    0.51    0.21 
 -13  -5   6    0.18    0.19 
 -13  -5   5    0.12    0.16 
  13   5  -5    0.11    0.22 
 -13  -5   4    0.07    0.11 
  13   5  -4   -0.07    0.17 
 -13  -5   3    0.17    0.12 
  13   5  -3   -0.05    0.17 
  13   5  -2   -0.14    0.15 
  13   5  -1    0.04    0.16 
  13   5   0    1.09    0.24 
  13   5   1    0.59    0.21 
  13   5   2    0.60    0.23 
  13   5   2    0.50    0.20 
  13   5   3    0.46    0.22 
  13   5   3    0.62    0.26 
  13   5   4    0.09    0.19 
  13   5   4   -0.23    0.22 
 -13  -4   6    0.48    0.21 
  13   4  -6    0.66    0.28 
 -13  -4   5   -0.08    0.13 
  13   4  -5    0.15    0.20 
 -13  -4   4    1.27    0.21 
  13   4  -4    1.42    0.31 
 -13  -4   3    0.60    0.15 
  13   4  -3    0.27    0.19 
  13   4  -2    3.66    0.42 
  13   4  -1    6.38    0.49 
  13   4   0    0.02    0.14 
  13   4   1    0.87    0.22 
  13   4   2    3.49    0.37 
  13   4   2    3.69    0.42 
  13   4   3    0.35    0.21 
  13   4   3    0.71    0.25 
  13   4   4    0.33    0.24 
  13   4   4    0.76    0.27 
 -13  -3   6    0.36    0.19 
  13   3  -6   -0.01    0.21 
 -13  -3   5    0.08    0.12 
  13   3  -5    0.00    0.18 
 -13  -3   4    0.12    0.11 
  13   3  -4    0.30    0.20 
 -13  -3   3    0.76    0.17 
  13   3  -3    0.80    0.25 
  13   3  -2    1.29    0.28 
  13   3  -1    0.94    0.23 
  13   3   0    0.15    0.14 
  13   3   1   -0.14    0.11 
  13   3   2    1.25    0.27 
  13   3   2    0.95    0.24 
  13   3   3    0.52    0.22 
  13   3   3    0.57    0.24 
  13   3   4   -0.10    0.18 
  13   3   4   -0.02    0.21 
 -13  -2   6    0.27    0.18 
  13   2  -6    0.27    0.21 
 -13  -2   5    0.55    0.16 
  13   2  -5    0.75    0.28 
 -13  -2   4    0.12    0.11 
  13   2  -4    0.18    0.19 
 -13  -2   3    0.99    0.19 
  13   2  -3    0.98    0.27 
  13   2  -2    2.70    0.38 
  13   2  -1   -0.09    0.12 
  13   2   0    0.32    0.16 
  13   2   1    2.69    0.35 
  13   2   2    0.98    0.24 
  13   2   2    1.07    0.24 
  13   2   3   -0.08    0.19 
  13   2   3    0.05    0.16 
  13   2   4    0.89    0.29 
  13   2   4    0.78    0.27 
 -13  -1   6    0.82    0.20 
  13   1  -6    1.02    0.33 
 -13  -1   5    1.06    0.20 
  13   1  -5    0.91    0.29 
 -13  -1   4    0.08    0.10 
  13   1  -4    0.04    0.18 
 -13  -1   3    0.33    0.12 
  13   1  -3    0.20    0.20 
  13   1  -2    1.58    0.30 
  13   1  -1    0.73    0.21 
  13   1   0    0.33    0.15 
  13   1   1    4.38    0.43 
  13   1   2   -0.23    0.14 
  13   1   2   -0.16    0.12 
  13   1   3    0.04    0.20 
  13   1   3    0.51    0.20 
  13   1   4    0.15    0.21 
 -13   0   6    0.37    0.17 
  13   0  -6    0.26    0.23 
 -13   0   5    0.05    0.12 
  13   0  -5    0.04    0.20 
 -13   0   4    1.20    0.19 
  13   0  -4    1.42    0.31 
 -13   0   3   -0.23    0.08 
  13   0  -3   -0.02    0.16 
  13   0  -2    0.15    0.19 
  13   0  -1    0.09    0.13 
  13   0   0    2.05    0.31 
  13   0   1    0.07    0.14 
  13   0   2    0.69    0.20 
  13   0   2    0.46    0.20 
  13   0   3    0.22    0.21 
  13   0   3    0.15    0.16 
  13   0   4    0.14    0.22 
 -13   1   6    1.20    0.22 
  13  -1  -6    1.11    0.32 
 -13   1   5    1.06    0.19 
  13  -1  -5    1.35    0.34 
 -13   1   4    0.17    0.10 
  13  -1  -4    0.10    0.21 
  13  -1  -3    0.35    0.20 
  13  -1  -2    1.69    0.30 
  13  -1  -1    1.02    0.25 
  13  -1   0   -0.09    0.10 
  13  -1   1    4.33    0.42 
  13  -1   2   -0.12    0.16 
  13  -1   2    0.26    0.16 
  13  -1   3    0.40    0.24 
  13  -1   3    0.51    0.19 
  13  -1   4    0.14    0.22 
  13  -2  -6    0.11    0.23 
 -13   2   5    0.60    0.15 
  13  -2  -5    0.61    0.27 
 -13   2   4    0.32    0.11 
  13  -2  -4   -0.05    0.18 
  13  -2  -3    0.74    0.24 
  13  -2  -2    2.72    0.37 
  13  -2  -1    0.18    0.14 
  13  -2   0    0.43    0.17 
  13  -2   1    2.07    0.31 
  13  -2   2    0.64    0.22 
  13  -2   2    1.23    0.25 
  13  -2   3    0.15    0.17 
  13  -2   3   -0.20    0.17 
  13  -2   4    1.11    0.29 
  13  -3  -6    0.01    0.22 
 -13   3   5    0.11    0.12 
  13  -3  -5    0.09    0.20 
 -13   3   4    0.15    0.09 
  13  -3  -4    0.12    0.23 
  13  -3  -3    0.85    0.27 
  13  -3  -2    1.31    0.28 
  13  -3  -1    1.00    0.24 
  13  -3   0    0.51    0.19 
  13  -3   1   -0.08    0.11 
  13  -3   2    0.78    0.24 
  13  -3   2    1.06    0.23 
  13  -3   3   -0.16    0.21 
  13  -3   4   -0.24    0.21 
  13  -4  -6    0.41    0.26 
  13  -4  -5    0.13    0.21 
 -13   4   4    0.71    0.16 
  13  -4  -4    0.82    0.27 
  13  -4  -3    0.53    0.22 
  13  -4  -2    3.65    0.42 
  13  -4  -1    6.34    0.47 
  13  -4   0    0.05    0.13 
  13  -4   1    1.11    0.23 
  13  -4   1    0.99    0.23 
  13  -4   2    3.75    0.39 
  13  -4   2    2.92    0.35 
  13  -4   3    0.42    0.24 
  13  -4   4    0.72    0.28 
  13  -5  -6   -0.07    0.18 
  13  -5  -5    0.23    0.23 
  13  -5  -4    0.19    0.21 
  13  -5  -3    0.15    0.16 
  13  -5  -2    0.26    0.15 
  13  -5  -1    0.12    0.15 
  13  -5   0    1.43    0.27 
  13  -5   1    0.58    0.21 
  13  -5   1    0.95    0.23 
  13  -5   2    1.01    0.23 
  13  -5   2    0.68    0.24 
  13  -5   3    0.97    0.30 
  13  -5   4   -0.29    0.20 
  13  -6  -6    0.08    0.21 
  13  -6  -5   -0.11    0.17 
  13  -6  -4    0.11    0.19 
  13  -6  -3    0.82    0.24 
  13  -6  -2    0.55    0.19 
  13  -6  -1    1.85    0.31 
  13  -6   0    0.18    0.14 
  13  -6   1    0.26    0.15 
  13  -6   1   -0.08    0.17 
  13  -6   2    0.36    0.18 
  13  -6   2    0.20    0.21 
  13  -6   3    1.16    0.32 
  13  -6   4    0.28    0.24 
  13  -7  -6    0.24    0.21 
  13  -7  -5    0.09    0.21 
  13  -7  -4   -0.21    0.14 
  13  -7  -3    0.21    0.19 
  13  -7  -2    0.33    0.18 
  13  -7  -1    0.12    0.14 
  13  -7   0    4.91    0.46 
  13  -7   1    0.33    0.15 
  13  -7   1   -0.20    0.17 
  13  -7   2    0.01    0.20 
  13  -7   3    5.65    0.51 
  13  -8  -6    0.40    0.22 
  13  -8  -5   -0.08    0.19 
  13  -8  -4    0.06    0.20 
  13  -8  -3   -0.09    0.14 
  13  -8  -2    0.71    0.24 
  13  -8  -1    0.61    0.22 
  13  -8   0    3.55    0.40 
  13  -8   1    0.21    0.15 
  13  -8   1    0.12    0.20 
  13  -8   2    0.06    0.21 
  13  -8   3    0.43    0.27 
  13  -9  -6    0.30    0.20 
  13  -9  -5    0.43    0.27 
  13  -9  -4   -0.05    0.17 
  13  -9  -3    0.10    0.17 
  13  -9  -2    0.21    0.14 
  13  -9  -1    1.86    0.33 
  13  -9   0    2.24    0.34 
  13  -9   1    0.33    0.15 
  13  -9   1    0.16    0.20 
  13  -9   2    0.79    0.27 
  13  -9   3   -0.02    0.23 
  13 -10  -5    0.54    0.24 
  13 -10  -4   -0.20    0.18 
  13 -10  -3    0.36    0.19 
  13 -10  -2    0.53    0.21 
  13 -10  -1    2.85    0.38 
  13 -10   0    1.42    0.27 
  13 -10   1    0.35    0.18 
  13 -10   1    0.55    0.25 
  13 -10   2    2.61    0.37 
  13 -10   3    0.65    0.28 
  13 -11  -5    0.17    0.19 
  13 -11  -4   -0.01    0.22 
  13 -11  -3    0.50    0.22 
  13 -11  -2    0.19    0.18 
  13 -11  -1    0.36    0.18 
  13 -11   0    0.19    0.15 
  13 -11   1    0.63    0.27 
  13 -11   2    1.23    0.32 
  13 -11   3    0.13    0.23 
  13 -12  -5    0.58    0.32 
  13 -12  -4    0.13    0.26 
  13 -12  -3   -0.19    0.16 
  13 -12  -2    0.60    0.22 
  13 -12  -1    0.06    0.15 
  13 -12   0    0.24    0.15 
  13 -12   1    4.56    0.45 
  13 -12   2    0.56    0.29 
  13 -12   3    0.14    0.24 
  13 -13  -5   -0.18    0.24 
  13 -13  -4    0.45    0.28 
  13 -13  -3    0.22    0.22 
  13 -13  -2    1.14    0.29 
  13 -13  -1    1.07    0.25 
  13 -13   0    0.23    0.16 
  13 -13   1    4.19    0.44 
  13 -13   2    0.41    0.27 
  13 -14  -4    0.12    0.27 
  13 -14  -3    0.48    0.29 
  13 -14  -2   -0.08    0.16 
  13 -14  -1    0.11    0.18 
  13 -14   1    5.23    0.49 
  13 -14   2    0.28    0.25 
  13 -15  -4   -0.16    0.23 
  13 -15  -3    0.18    0.24 
  13 -15  -2    0.02    0.20 
  13 -15  -1    0.80    0.25 
  13 -15   1    0.90    0.29 
  13 -15   2    0.32    0.25 
  13 -16  -4   -0.04    0.26 
  13 -16  -3    0.39    0.28 
  13 -16  -2    0.43    0.26 
  13 -16  -1    0.27    0.24 
  13 -16   1    0.34    0.23 
  13 -17  -3    0.02    0.25 
  13 -17  -2    0.95    0.32 
  13 -17  -1    0.64    0.27 
  13 -17   1    1.04    0.27 
  13 -18  -2   -0.25    0.22 
  14  16  -2    0.41    0.20 
  14  16  -1    0.37    0.19 
  14  16   0    0.34    0.20 
 -14 -15   3    0.20    0.14 
  14  15  -3    0.30    0.21 
  14  15  -2    0.38    0.22 
  14  15  -1    0.55    0.23 
  14  15   0    0.46    0.19 
 -14 -14   4    0.35    0.15 
 -14 -14   3    0.21    0.13 
  14  14  -3    0.22    0.23 
  14  14  -2   -0.11    0.16 
  14  14  -1    0.14    0.18 
  14  14   0    0.13    0.19 
  14  14   1    1.01    0.27 
 -14 -13   4    0.29    0.15 
 -14 -13   3    0.37    0.16 
  14  13  -3    0.26    0.23 
  14  13  -2    0.62    0.25 
  14  13  -1    0.21    0.16 
  14  13   0    0.08    0.19 
  14  13   1    0.35    0.18 
 -14 -12   4    0.39    0.17 
  14  12  -4    0.26    0.23 
 -14 -12   3    0.10    0.14 
  14  12  -3    0.07    0.20 
  14  12  -2    0.73    0.26 
  14  12  -1    0.29    0.18 
  14  12   0    0.44    0.23 
  14  12   1    0.12    0.19 
  14  12   2    2.46    0.44 
 -14 -11   5   -0.03    0.18 
 -14 -11   4    0.21    0.18 
  14  11  -4    0.45    0.25 
 -14 -11   3    0.34    0.16 
  14  11  -3    0.37    0.23 
  14  11  -2    0.69    0.25 
  14  11  -1    0.34    0.22 
  14  11   0   -0.07    0.17 
  14  11   1    0.11    0.23 
  14  11   2    0.17    0.25 
 -14 -10   5   -0.09    0.19 
 -14 -10   4    0.19    0.17 
  14  10  -4    0.57    0.26 
 -14 -10   3    0.28    0.17 
  14  10  -3    0.22    0.21 
  14  10  -2    0.62    0.25 
  14  10  -1    0.50    0.23 
  14  10   0    0.72    0.27 
  14  10   1    0.72    0.30 
  14  10   2   -0.17    0.23 
 -14  -9   5    0.23    0.20 
  14   9  -5    0.69    0.24 
 -14  -9   4    0.74    0.23 
  14   9  -4    1.22    0.31 
 -14  -9   3   -0.01    0.13 
  14   9  -3    0.38    0.22 
  14   9  -2   -0.08    0.19 
  14   9  -1    0.03    0.19 
  14   9   0    0.26    0.21 
  14   9   1    0.01    0.19 
  14   9   2   -0.05    0.22 
 -14  -8   5    0.11    0.17 
  14   8  -5   -0.24    0.18 
 -14  -8   4   -0.13    0.13 
  14   8  -4    0.01    0.19 
 -14  -8   3    0.15    0.16 
  14   8  -3    0.52    0.24 
  14   8  -2    0.37    0.21 
  14   8  -1    0.24    0.20 
  14   8   0    0.43    0.21 
  14   8   1   -0.03    0.18 
  14   8   2    0.00    0.21 
  14   8   3    1.61    0.37 
 -14  -7   5   -0.01    0.17 
  14   7  -5    0.26    0.23 
 -14  -7   4    0.01    0.14 
  14   7  -4    0.16    0.19 
 -14  -7   3    0.18    0.15 
  14   7  -3   -0.06    0.19 
  14   7  -2    0.19    0.20 
  14   7  -1    0.19    0.19 
  14   7   0    0.14    0.20 
  14   7   1    0.18    0.20 
  14   7   2   -0.23    0.16 
  14   7   3    2.79    0.45 
 -14  -6   6    1.50    0.28 
 -14  -6   5    0.14    0.17 
  14   6  -5    0.06    0.20 
 -14  -6   4   -0.03    0.13 
  14   6  -4   -0.02    0.20 
 -14  -6   3    0.40    0.16 
  14   6  -3    0.52    0.24 
  14   6  -2    0.06    0.16 
  14   6  -1    0.00    0.16 
  14   6   0   -0.09    0.14 
  14   6   1    0.35    0.21 
  14   6   2    0.21    0.21 
  14   6   3   -0.01    0.22 
 -14  -5   6    0.18    0.21 
  14   5  -6    0.61    0.22 
 -14  -5   5    0.24    0.18 
  14   5  -5    0.11    0.21 
 -14  -5   4    0.46    0.16 
  14   5  -4   -0.06    0.20 
 -14  -5   3    0.29    0.14 
  14   5  -3    0.00    0.20 
  14   5  -2    0.10    0.18 
  14   5  -1   -0.12    0.16 
  14   5   0   -0.03    0.16 
  14   5   1    0.26    0.20 
  14   5   2   -0.14    0.16 
  14   5   3    0.27    0.24 
 -14  -4   6    0.69    0.23 
  14   4  -6    0.55    0.27 
 -14  -4   5    0.75    0.21 
  14   4  -5    0.94    0.31 
 -14  -4   4    0.38    0.16 
  14   4  -4    0.01    0.19 
 -14  -4   3    0.20    0.12 
  14   4  -3    0.15    0.19 
  14   4  -2   -0.19    0.14 
  14   4  -1    0.48    0.21 
  14   4   0   -0.18    0.12 
  14   4   1    0.73    0.25 
  14   4   2    0.26    0.20 
  14   4   3    0.49    0.22 
  14   4   3    0.33    0.23 
 -14  -3   6   -0.09    0.16 
  14   3  -6   -0.07    0.20 
 -14  -3   5    0.26    0.15 
  14   3  -5    0.40    0.22 
 -14  -3   4   -0.02    0.11 
  14   3  -4   -0.02    0.16 
 -14  -3   3    0.00    0.11 
  14   3  -3    0.04    0.19 
  14   3  -2    0.48    0.22 
  14   3  -1   -0.08    0.16 
  14   3   0    0.11    0.16 
  14   3   1    1.22    0.27 
  14   3   2    0.25    0.18 
  14   3   3    0.27    0.24 
  14   3   3    0.35    0.23 
 -14  -2   6    0.24    0.18 
  14   2  -6    0.00    0.20 
 -14  -2   5   -0.03    0.13 
  14   2  -5    0.35    0.25 
 -14  -2   4    0.12    0.11 
  14   2  -4    0.04    0.19 
  14   2  -3    0.20    0.19 
  14   2  -2    0.11    0.16 
  14   2  -1    2.31    0.36 
  14   2   0   -0.09    0.12 
  14   2   1   -0.17    0.11 
  14   2   2    1.33    0.28 
  14   2   3   -0.37    0.17 
  14   2   3    0.01    0.18 
 -14  -1   6    0.16    0.17 
  14   1  -6    0.22    0.21 
 -14  -1   5    2.10    0.27 
  14   1  -5    1.87    0.39 
 -14  -1   4   -0.08    0.10 
  14   1  -4    0.22    0.21 
  14   1  -3    0.01    0.19 
  14   1  -2    0.31    0.22 
  14   1  -1    0.21    0.16 
  14   1   0    0.73    0.21 
  14   1   1   -0.02    0.14 
  14   1   2    0.29    0.19 
  14   1   3    0.07    0.17 
  14   1   3   -0.15    0.20 
 -14   0   6    0.01    0.16 
  14   0  -6    0.18    0.22 
 -14   0   5    0.36    0.16 
  14   0  -5    0.17    0.22 
 -14   0   4    0.07    0.10 
  14   0  -4    0.20    0.19 
  14   0  -3    0.10    0.19 
  14   0  -2    0.57    0.25 
  14   0  -1   -0.17    0.11 
  14   0   0    0.05    0.14 
  14   0   1    0.00    0.13 
  14   0   2    1.19    0.27 
  14   0   3   -0.15    0.21 
  14   0   3    0.10    0.19 
 -14   1   6    0.29    0.16 
  14  -1  -6    0.49    0.23 
 -14   1   5    1.53    0.23 
  14  -1  -5    1.46    0.34 
 -14   1   4    0.04    0.11 
  14  -1  -4   -0.09    0.20 
  14  -1  -3   -0.12    0.19 
  14  -1  -2    0.00    0.15 
  14  -1  -1    0.27    0.18 
  14  -1   0    0.87    0.23 
  14  -1   1   -0.02    0.15 
  14  -1   2    0.37    0.20 
  14  -1   3    0.22    0.21 
  14  -1   3   -0.28    0.20 
  14  -2  -6    0.35    0.24 
 -14   2   5    0.32    0.14 
  14  -2  -5   -0.02    0.18 
 -14   2   4    0.12    0.11 
  14  -2  -4    0.05    0.19 
  14  -2  -3    0.10    0.18 
  14  -2  -2    0.07    0.16 
  14  -2  -1    1.37    0.29 
  14  -2   0    0.08    0.15 
  14  -2   1    0.15    0.15 
  14  -2   2    0.79    0.23 
  14  -2   3   -0.08    0.21 
  14  -3  -6    0.22    0.23 
  14  -3  -5    0.19    0.22 
  14  -3  -4    0.09    0.19 
  14  -3  -3    0.00    0.18 
  14  -3  -2    0.62    0.22 
  14  -3  -1    0.27    0.19 
  14  -3   0    0.09    0.14 
  14  -3   1    1.20    0.26 
  14  -3   2    0.04    0.15 
  14  -3   3    0.45    0.25 
  14  -4  -6    1.05    0.30 
  14  -4  -5    1.22    0.30 
  14  -4  -4   -0.20    0.17 
  14  -4  -3    0.54    0.24 
  14  -4  -2    0.21    0.16 
  14  -4  -1    0.69    0.22 
  14  -4   0    0.16    0.18 
  14  -4   1    0.62    0.21 
  14  -4   2    0.16    0.17 
  14  -4   3    0.65    0.28 
  14  -5  -6    0.21    0.23 
  14  -5  -5    0.11    0.22 
  14  -5  -4    0.64    0.25 
  14  -5  -3    0.42    0.21 
  14  -5  -2    0.09    0.14 
  14  -5  -1    0.30    0.17 
  14  -5   0    0.12    0.15 
  14  -5   1    0.50    0.19 
  14  -5   2    0.62    0.23 
  14  -5   3    0.03    0.22 
  14  -6  -6    1.79    0.37 
  14  -6  -5    0.39    0.24 
  14  -6  -4    0.06    0.19 
  14  -6  -3    0.25    0.20 
  14  -6  -2    0.06    0.15 
  14  -6  -1    0.25    0.17 
  14  -6   0    0.11    0.15 
  14  -6   1    0.77    0.23 
  14  -6   2   -0.06    0.21 
  14  -6   3   -0.16    0.23 
  14  -7  -5    0.23    0.23 
  14  -7  -4   -0.11    0.17 
  14  -7  -3    0.19    0.18 
  14  -7  -2    0.42    0.19 
  14  -7  -1    0.13    0.15 
  14  -7   0    0.46    0.19 
  14  -7   1    0.15    0.16 
  14  -7   2    0.04    0.22 
  14  -7   3    2.30    0.37 
  14  -8  -5    0.08    0.20 
  14  -8  -4    0.22    0.21 
  14  -8  -3    0.02    0.18 
  14  -8  -2    0.13    0.18 
  14  -8  -1    0.08    0.16 
  14  -8   0    0.86    0.24 
  14  -8   1    0.06    0.17 
  14  -8   2   -0.04    0.22 
  14  -8   3    2.00    0.37 
  14  -9  -5    0.20    0.23 
  14  -9  -4    0.64    0.30 
  14  -9  -3    0.02    0.17 
  14  -9  -2   -0.01    0.15 
  14  -9  -1    0.05    0.14 
  14  -9   0    0.72    0.23 
  14  -9   1    0.16    0.17 
  14  -9   2   -0.17    0.21 
  14 -10  -5    0.32    0.25 
  14 -10  -4    0.89    0.34 
  14 -10  -3    0.18    0.20 
  14 -10  -2    0.38    0.20 
  14 -10  -1    1.04    0.27 
  14 -10   0    0.82    0.26 
  14 -10   2    0.15    0.24 
  14 -11  -5    0.15    0.22 
  14 -11  -4   -0.06    0.25 
  14 -11  -3    0.37    0.24 
  14 -11  -2    0.76    0.26 
  14 -11  -1    0.64    0.22 
  14 -11   0    0.02    0.15 
  14 -11   2    0.24    0.26 
  14 -12  -4    0.76    0.35 
  14 -12  -3   -0.21    0.19 
  14 -12  -2    0.54    0.25 
  14 -12  -1    0.07    0.18 
  14 -12   0    0.20    0.17 
  14 -12   2    2.56    0.40 
  14 -13  -4    0.05    0.30 
  14 -13  -3    0.10    0.25 
  14 -13  -2    0.83    0.30 
  14 -13  -1   -0.01    0.16 
  14 -13   0    0.08    0.17 
  14 -14  -4   -0.04    0.28 
  14 -14  -3    0.16    0.28 
  14 -14  -2    0.00    0.21 
  14 -14  -1    0.24    0.21 
  14 -15  -3    0.16    0.29 
  14 -15  -2    0.27    0.26 
  14 -15  -1    0.36    0.24 
  14 -16  -2    0.02    0.28 
  14 -16  -1    0.40    0.26 
  15  14  -2    0.56    0.21 
  15  14  -1    1.20    0.28 
 -15 -13   3    0.40    0.16 
  15  13  -3   -0.06    0.18 
  15  13  -2    0.62    0.25 
  15  13  -1    0.23    0.20 
  15  13   0    0.77    0.23 
 -15 -12   3   -0.06    0.13 
  15  12  -3    0.39    0.21 
  15  12  -2    0.30    0.19 
  15  12  -1    0.29    0.20 
  15  12   0    0.24    0.19 
  15  12   1    0.26    0.22 
 -15 -11   4    0.59    0.22 
  15  11  -4    0.42    0.25 
 -15 -11   3    0.35    0.17 
  15  11  -3    0.13    0.20 
  15  11  -2    0.17    0.19 
  15  11  -1    0.24    0.20 
  15  11   0   -0.04    0.16 
  15  11   1   -0.02    0.23 
 -15 -10   4    0.73    0.21 
  15  10  -4    0.96    0.30 
 -15 -10   3    1.17    0.27 
  15  10  -3    1.67    0.35 
  15  10  -2    0.10    0.18 
  15  10  -1   -0.18    0.16 
  15  10   0    0.39    0.18 
  15  10   1   -0.13    0.24 
 -15  -9   4    2.22    0.31 
  15   9  -4    2.52    0.42 
 -15  -9   3    0.01    0.16 
  15   9  -3    0.32    0.21 
  15   9  -2    0.15    0.19 
  15   9  -1    0.20    0.20 
  15   9   0    0.74    0.26 
  15   9   1    0.35    0.28 
  15   9   2    0.65    0.30 
 -15  -8   5    0.30    0.19 
  15   8  -5    0.17    0.19 
 -15  -8   4    0.46    0.20 
  15   8  -4    0.39    0.23 
 -15  -8   3    0.72    0.21 
  15   8  -3    1.00    0.31 
  15   8  -2    0.19    0.21 
  15   8  -1    0.28    0.19 
  15   8   0   -0.06    0.21 
  15   8   1   -0.14    0.20 
  15   8   2    0.45    0.29 
 -15  -7   5    0.37    0.20 
  15   7  -5    0.78    0.24 
 -15  -7   4   -0.06    0.17 
  15   7  -4    0.02    0.20 
 -15  -7   3    0.08    0.14 
  15   7  -3    0.19    0.19 
  15   7  -2   -0.05    0.18 
  15   7  -1    0.14    0.22 
  15   7   0    0.08    0.21 
  15   7   1   -0.03    0.19 
  15   7   2   -0.13    0.24 
 -15  -6   5   -0.03    0.18 
  15   6  -5    0.13    0.20 
 -15  -6   4    0.61    0.20 
  15   6  -4    0.67    0.27 
  15   6  -3    0.25    0.22 
  15   6  -2    0.12    0.19 
  15   6  -1   -0.27    0.15 
  15   6   0   -0.01    0.18 
  15   6   1   -0.42    0.16 
  15   6   2    0.16    0.29 
 -15  -5   5    0.06    0.19 
  15   5  -5   -0.01    0.18 
 -15  -5   4    1.40    0.25 
  15   5  -4    1.26    0.34 
  15   5  -3    1.02    0.30 
  15   5  -2   -0.03    0.19 
  15   5  -1    0.00    0.18 
  15   5   0    0.13    0.22 
  15   5   1    0.12    0.21 
  15   5   2    0.10    0.22 
 -15  -4   5   -0.20    0.14 
  15   4  -5    0.21    0.22 
 -15  -4   4    0.83    0.21 
  15   4  -4    1.08    0.31 
  15   4  -3    0.99    0.32 
  15   4  -2    0.58    0.25 
  15   4  -1    0.01    0.17 
  15   4   0    0.49    0.25 
  15   4   1    0.32    0.21 
  15   4   2    0.19    0.24 
 -15  -3   5    0.11    0.17 
  15   3  -5    0.29    0.22 
 -15  -3   4   -0.05    0.14 
  15   3  -4   -0.12    0.20 
  15   3  -3    0.13    0.23 
  15   3  -2    0.49    0.25 
  15   3  -1   -0.13    0.16 
  15   3   0    0.35    0.21 
  15   3   1    0.04    0.20 
  15   3   2    0.91    0.30 
 -15  -2   5    0.40    0.18 
  15   2  -5    0.16    0.24 
 -15  -2   4    0.05    0.15 
  15   2  -4    0.16    0.19 
  15   2  -3    0.23    0.20 
  15   2  -2    0.61    0.26 
  15   2  -1    0.08    0.15 
  15   2   0    0.12    0.18 
  15   2   1    0.15    0.20 
  15   2   2    0.15    0.22 
 -15  -1   5    2.09    0.29 
  15   1  -5    2.04    0.40 
 -15  -1   4    0.16    0.14 
  15   1  -4    0.18    0.19 
  15   1  -3    0.43    0.25 
  15   1  -2    0.13    0.19 
  15   1  -1    0.33    0.22 
  15   1   0    0.29    0.19 
  15   1   1    0.85    0.27 
  15   1   2    0.69    0.27 
 -15   0   5    0.31    0.16 
  15   0  -5    0.17    0.21 
 -15   0   4   -0.09    0.12 
  15   0  -4   -0.14    0.18 
  15   0  -3   -0.05    0.20 
  15   0  -2    0.57    0.25 
  15   0  -1   -0.15    0.16 
  15   0   0    0.00    0.17 
  15   0   1    0.26    0.22 
  15   0   2    0.04    0.21 
 -15   1   5    1.59    0.25 
  15  -1  -5    1.55    0.36 
  15  -1  -4    0.45    0.25 
  15  -1  -3    0.34    0.23 
  15  -1  -2   -0.28    0.14 
  15  -1  -1    0.52    0.23 
  15  -1   0    0.30    0.19 
  15  -1   1    1.22    0.30 
  15  -1   2    1.08    0.28 
 -15   2   5    0.18    0.15 
  15  -2  -5    0.01    0.22 
  15  -2  -4   -0.13    0.17 
  15  -2  -3   -0.11    0.19 
  15  -2  -2    0.47    0.23 
  15  -2  -1   -0.20    0.14 
  15  -2   0   -0.17    0.15 
  15  -2   1    0.22    0.19 
  15  -2   2   -0.01    0.19 
  15  -3  -5    0.48    0.26 
  15  -3  -4    0.23    0.23 
  15  -3  -3    0.03    0.20 
  15  -3  -2    0.44    0.23 
  15  -3  -1    0.36    0.20 
  15  -3   0    0.07    0.17 
  15  -3   1   -0.11    0.17 
  15  -3   2    1.19    0.31 
  15  -4  -5    0.12    0.19 
  15  -4  -4    0.62    0.26 
  15  -4  -3    1.47    0.34 
  15  -4  -2    0.72    0.27 
  15  -4  -1    0.02    0.16 
  15  -4   0    0.56    0.24 
  15  -4   1    0.46    0.23 
  15  -4   2    0.18    0.22 
  15  -5  -5    0.25    0.21 
  15  -5  -4    1.24    0.34 
  15  -5  -3    0.52    0.23 
  15  -5  -2    0.03    0.16 
  15  -5  -1    0.11    0.15 
  15  -5   0    0.42    0.20 
  15  -5   1    0.31    0.22 
  15  -6  -5    0.20    0.19 
  15  -6  -4    0.19    0.22 
  15  -6  -3    0.01    0.20 
  15  -6  -2    0.06    0.19 
  15  -6  -1   -0.01    0.14 
  15  -6   0    0.34    0.20 
  15  -6   1    0.02    0.17 
  15  -7  -5    0.45    0.23 
  15  -7  -4   -0.16    0.22 
  15  -7  -3    0.14    0.25 
  15  -7  -2   -0.04    0.16 
  15  -7  -1   -0.24    0.13 
  15  -7   0    0.39    0.23 
  15  -7   1    0.17    0.19 
  15  -8  -5    0.33    0.20 
  15  -8  -4    0.57    0.29 
  15  -8  -3    1.17    0.35 
  15  -8  -2    0.12    0.21 
  15  -8  -1   -0.14    0.14 
  15  -8   0    0.31    0.20 
  15  -8   1    0.14    0.23 
  15  -9  -4    1.62    0.41 
  15  -9  -3    0.09    0.22 
  15  -9  -2   -0.03    0.20 
  15  -9  -1    0.34    0.21 
  15  -9   0    0.26    0.20 
  15 -10  -4    0.35    0.28 
  15 -10  -3    1.34    0.35 
  15 -10  -2    0.06    0.20 
  15 -10  -1   -0.15    0.17 
  15 -10   0   -0.06    0.21 
  15 -11  -4    0.04    0.30 
  15 -11  -3    0.31    0.28 
  15 -11  -2    0.02    0.22 
  15 -11  -1   -0.12    0.19 
  15 -11   0    0.10    0.21 
  15 -12  -3   -0.05    0.23 
  15 -12  -2   -0.05    0.20 
  15 -12  -1    0.07    0.21 
  15 -12   0    0.38    0.23 
  15 -13  -3   -0.40    0.25 
  15 -13  -2    0.98    0.34 
  15 -13  -1   -0.11    0.20 
  15 -14  -2    0.01    0.25 
  15 -14  -1    0.57    0.28 
  16  11  -2    0.48    0.20 
  16  11  -1    1.65    0.32 
  16  10  -3    1.13    0.28 
  16  10  -2    0.15    0.17 
  16  10  -1    0.19    0.19 
  16  10   0    0.51    0.22 
  16   9  -3    0.63    0.24 
  16   9  -2   -0.19    0.16 
  16   9  -1    0.55    0.22 
  16   9   0    0.63    0.24 
 -16  -8   4   -0.09    0.18 
  16   8  -4    0.19    0.18 
  16   8  -3    0.46    0.24 
  16   8  -2    0.06    0.18 
  16   8  -1   -0.04    0.18 
  16   8   0    0.04    0.22 
  16   8   1    0.43    0.27 
 -16  -7   4   -0.19    0.16 
  16   7  -4    0.46    0.24 
  16   7  -3    5.45    0.58 
  16   7  -2    0.03    0.18 
  16   7  -1    0.49    0.22 
  16   7   0    0.30    0.27 
  16   7   1   -0.09    0.23 
 -16  -6   4    0.43    0.21 
  16   6  -4   -0.01    0.20 
  16   6  -3    1.84    0.36 
  16   6  -2   -0.16    0.19 
  16   6  -1    0.15    0.18 
  16   6   0   -0.09    0.21 
  16   6   1    0.65    0.29 
 -16  -5   4   -0.03    0.18 
  16   5  -4   -0.24    0.20 
  16   5  -3    0.48    0.25 
  16   5  -2    0.34    0.21 
  16   5  -1    0.29    0.21 
  16   5   0    0.48    0.28 
  16   5   1    0.39    0.27 
 -16  -4   4    0.66    0.22 
  16   4  -4    0.66    0.27 
  16   4  -3    0.07    0.22 
  16   4  -2    0.95    0.30 
  16   4  -1    0.21    0.22 
  16   4   0   -0.18    0.17 
  16   4   1    0.42    0.27 
  16   3  -4    0.49    0.25 
  16   3  -3    0.51    0.25 
  16   3  -2    1.88    0.39 
  16   3  -1    0.60    0.28 
  16   3   0    0.35    0.22 
  16   3   1    0.21    0.27 
 -16  -2   5    0.02    0.17 
  16   2  -4    0.28    0.21 
  16   2  -3    0.26    0.22 
  16   2  -2    1.77    0.36 
  16   2  -1    0.77    0.28 
  16   2   0    0.28    0.22 
  16   2   1    0.56    0.28 
  16   2   2    0.12    0.24 
 -16  -1   5    0.20    0.18 
  16   1  -5    0.40    0.23 
  16   1  -4    0.11    0.21 
  16   1  -3    0.63    0.26 
  16   1  -2    1.74    0.38 
  16   1  -1    0.64    0.28 
  16   1   0    0.40    0.25 
  16   1   1    0.14    0.22 
  16   1   2    0.73    0.29 
 -16   0   5   -0.02    0.18 
  16   0  -5    0.12    0.21 
  16   0  -4    0.21    0.20 
  16   0  -3    0.17    0.20 
  16   0  -2    0.14    0.22 
  16   0  -1   -0.09    0.20 
  16   0   0   -0.04    0.19 
  16   0   1    0.02    0.22 
  16   0   2    0.67    0.30 
 -16   1   5    0.08    0.16 
  16  -1  -5    0.83    0.26 
  16  -1  -4    0.13    0.20 
  16  -1  -3    0.00    0.19 
  16  -1  -2    1.76    0.39 
  16  -1  -1    1.20    0.33 
  16  -1   0    0.28    0.24 
  16  -1   1    0.23    0.24 
  16  -1   2    0.39    0.26 
  16  -2  -4    0.91    0.30 
  16  -2  -3    0.01    0.20 
  16  -2  -2    1.48    0.37 
  16  -2  -1    0.82    0.29 
  16  -2   0   -0.18    0.18 
  16  -2   1    0.96    0.31 
  16  -2   2   -0.01    0.23 
  16  -3  -4    0.19    0.21 
  16  -3  -3    0.29    0.26 
  16  -3  -2    1.16    0.34 
  16  -3  -1    0.53    0.26 
  16  -3   0    0.25    0.24 
  16  -3   1    0.30    0.25 
  16  -4  -4    0.37    0.26 
  16  -4  -3   -0.13    0.24 
  16  -4  -2    0.79    0.29 
  16  -4  -1    0.17    0.22 
  16  -4   0   -0.15    0.17 
  16  -4   1    0.23    0.23 
  16  -5  -4    0.30    0.22 
  16  -5  -3    0.24    0.27 
  16  -5  -2    0.13    0.22 
  16  -5  -1    0.08    0.21 
  16  -5   0    0.61    0.26 
  16  -5   1   -0.15    0.19 
  16  -6  -4    0.07    0.19 
  16  -6  -3    0.67    0.30 
  16  -6  -2   -0.05    0.23 
  16  -6  -1    0.41    0.25 
  16  -6   0    0.44    0.25 
  16  -6   1    0.67    0.28 
  16  -7  -4   -0.03    0.24 
  16  -7  -3    4.73    0.58 
  16  -7  -2    0.03    0.24 
  16  -7  -1   -0.10    0.19 
  16  -7   0    0.09    0.21 
  16  -7   1    0.14    0.23 
  16  -8  -4   -0.09    0.23 
  16  -8  -3    0.11    0.28 
  16  -8  -2   -0.39    0.20 
  16  -8  -1    0.32    0.24 
  16  -8   0    0.07    0.21 
  16  -9  -3   -0.09    0.25 
  16  -9  -2   -0.03    0.23 
  16  -9  -1   -0.04    0.20 
  16  -9   0    0.41    0.27 
  16 -10  -3    0.17    0.28 
  16 -10  -2    0.11    0.25 
  16 -10  -1   -0.03    0.22 
  16 -10   0    0.18    0.25 
  16 -11  -2   -0.04    0.26 
  16 -11  -1    1.46    0.39 
  17   7  -2    0.46    0.23 
  17   7  -1    1.00    0.27 
  17   6  -3    0.49    0.21 
  17   6  -2    0.69    0.24 
  17   6  -1    0.36    0.23 
  17   5  -3    0.33    0.20 
  17   5  -2    0.66    0.24 
  17   5  -1    0.18    0.25 
  17   5   0   -0.26    0.24 
  17   4  -3    0.52    0.23 
  17   4  -2    0.01    0.18 
  17   4  -1    2.53    0.46 
  17   4   0   -0.01    0.28 
  17   3  -3    0.02    0.18 
  17   3  -2    0.29    0.19 
  17   3  -1    1.19    0.35 
  17   3   0    0.10    0.25 
  17   2  -3    0.29    0.20 
  17   2  -2    1.17    0.31 
  17   2  -1    1.03    0.33 
  17   2   0    0.09    0.25 
  17   1  -3    0.11    0.18 
  17   1  -2    0.89    0.34 
  17   1  -1    0.47    0.28 
  17   1   0   -0.34    0.21 
  17   0  -3   -0.06    0.16 
  17   0  -2    2.52    0.47 
  17   0  -1   -0.12    0.24 
  17   0   0    0.13    0.27 
  17  -1  -3    0.10    0.20 
  17  -1  -2    0.25    0.26 
  17  -1  -1   -0.08    0.25 
  17  -1   0    0.26    0.26 
  17  -2  -3    0.00    0.20 
  17  -2  -2    0.86    0.35 
  17  -2  -1    0.97    0.33 
  17  -2   0   -0.28    0.22 
  17  -3  -3    0.17    0.25 
  17  -3  -2   -0.18    0.21 
  17  -3  -1    0.94    0.33 
  17  -3   0    0.49    0.28 
  17  -4  -3    0.07    0.27 
  17  -4  -2    0.27    0.30 
  17  -4  -1    2.77    0.47 
  17  -4   0    0.10    0.26 
  17  -5  -3    0.06    0.23 
  17  -5  -2    0.14    0.28 
  17  -5  -1    0.42    0.30 
  17  -5   0    0.44    0.29 
  17  -6  -3   -0.07    0.26 
  17  -6  -2    0.10    0.26 
  17  -6  -1    0.05    0.27 
  17  -7  -2   -0.07    0.23 
  17  -7  -1    0.12    0.27 
   0   0   0    0.00    0.00 
;
_shelx_hkl_checksum              21785
loop_
_space_group_symop_operation_xyz
'x, y, z'
'-x, y+1/2, -z+1/2'
'-x, -y, -z'
'x, -y-1/2, z-1/2'
loop_
_atom_site_label
_atom_site_type_symbol
_atom_site_fract_x
_atom_site_fract_y
_atom_site_fract_z
_atom_site_U_iso_or_equiv
_atom_site_adp_type
_atom_site_occupancy
_atom_site_site_symmetry_order
_atom_site_calc_flag
_atom_site_refinement_flags_posn
_atom_site_refinement_flags_adp
C1 C 0.70827(12) 0.03296(8) 0.1394(3) 0.0447(4) Uani 1 1 d . .
C2 C 0.67360(13) -0.01120(9) -0.0333(3) 0.0522(5) Uani 1 1 d . .
H2 H 0.6065 -0.0263 -0.0563 0.063 Uiso 1 1 calc R U
C3 C 0.73587(14) -0.03177(9) -0.1652(3) 0.0564(5) Uani 1 1 d . .
H3 H 0.7116 -0.0608 -0.2774 0.068 Uiso 1 1 calc R U
C4 C 0.83660(14) -0.00938(9) -0.1329(3) 0.0560(5) Uani 1 1 d . .
H4 H 0.8791 -0.0236 -0.2245 0.067 Uiso 1 1 calc R U
C5 C 0.87356(14) 0.03292(8) 0.0306(3) 0.0512(5) Uani 1 1 d . .
H5 H 0.9411 0.0470 0.0493 0.061 Uiso 1 1 calc R U
C6 C 0.81106(12) 0.05595(8) 0.1732(3) 0.0436(4) Uani 1 1 d . .
C7 C 0.84581(12) 0.10022(8) 0.3450(3) 0.0441(4) Uani 1 1 d . .
C8 C 0.77936(12) 0.12111(8) 0.4778(3) 0.0434(4) Uani 1 1 d . .
C9 C 0.67637(12) 0.09737(8) 0.4441(3) 0.0433(4) Uani 1 1 d . .
C10 C 0.64457(13) 0.05404(8) 0.2760(3) 0.0473(4) Uani 1 1 d . .
H10 H 0.5778 0.0383 0.2533 0.057 Uiso 1 1 calc R U
C11 C 0.60855(13) 0.11952(8) 0.5865(3) 0.0452(4) Uani 1 1 d . .
C12 C 0.64548(14) 0.16449(8) 0.7530(3) 0.0479(4) Uani 1 1 d . .
C13 C 0.74822(14) 0.18776(8) 0.7782(3) 0.0533(5) Uani 1 1 d . .
H13 H 0.7719 0.2181 0.8868 0.064 Uiso 1 1 calc R U
C14 C 0.81165(14) 0.16745(8) 0.6511(3) 0.0503(5) Uani 1 1 d . .
H14 H 0.8782 0.1836 0.6749 0.060 Uiso 1 1 calc R U
C15 C 0.58071(15) 0.18590(9) 0.8894(3) 0.0569(5) Uani 1 1 d . .
H15 H 0.6058 0.2157 0.9989 0.068 Uiso 1 1 calc R U
C16 C 0.48129(16) 0.16455(9) 0.8673(3) 0.0565(5) Uani 1 1 d . .
C17 C 0.44655(15) 0.11949(9) 0.7039(3) 0.0569(5) Uani 1 1 d . .
H17 H 0.3799 0.1038 0.6865 0.068 Uiso 1 1 calc R U
C18 C 0.50768(14) 0.09764(9) 0.5682(3) 0.0536(5) Uani 1 1 d . .
H18 H 0.4816 0.0674 0.4609 0.064 Uiso 1 1 calc R U
C19 C 0.41211(17) 0.18955(10) 1.0131(4) 0.0771(6) Uani 1 1 d . .
H19A H 0.4494 0.1912 1.1603 0.116 Uiso 1 1 calc R U
H19B H 0.3545 0.1608 1.0041 0.116 Uiso 1 1 calc R U
H19C H 0.3885 0.2326 0.9674 0.116 Uiso 1 1 calc R U
C20 C 0.95423(13) 0.12304(8) 0.3867(3) 0.0465(4) Uani 1 1 d . .
C21 C 0.98810(16) 0.16796(9) 0.2530(3) 0.0645(6) Uani 1 1 d . .
H21 H 0.9425 0.1845 0.1338 0.077 Uiso 1 1 calc R U
C22 C 1.08824(17) 0.18860(10) 0.2936(4) 0.0738(6) Uani 1 1 d . .
H22 H 1.1096 0.2190 0.2019 0.089 Uiso 1 1 calc R U
C23 C 1.15647(15) 0.16482(10) 0.4670(4) 0.0664(6) Uani 1 1 d . .
H23 H 1.2241 0.1790 0.4940 0.080 Uiso 1 1 calc R U
C24 C 1.12473(14) 0.11995(10) 0.6011(3) 0.0639(5) Uani 1 1 d . .
H24 H 1.1710 0.1034 0.7193 0.077 Uiso 1 1 calc R U
C25 C 1.02470(13) 0.09941(9) 0.5611(3) 0.0559(5) Uani 1 1 d . .
H25 H 1.0039 0.0689 0.6533 0.067 Uiso 1 1 calc R U
loop_
_atom_site_aniso_label
_atom_site_aniso_U_11
_atom_site_aniso_U_22
_atom_site_aniso_U_33
_atom_site_aniso_U_23
_atom_site_aniso_U_13
_atom_site_aniso_U_12
C1 0.0438(10) 0.0446(9) 0.0426(10) -0.0003(8) 0.0007(7) 0.0014(8)
C2 0.0439(10) 0.0599(11) 0.0498(11) -0.0073(9) 0.0019(8) -0.0045(8)
C3 0.0569(12) 0.0622(11) 0.0481(11) -0.0117(9) 0.0054(9) -0.0034(9)
C4 0.0566(12) 0.0619(11) 0.0507(11) -0.0036(10) 0.0135(9) -0.0002(9)
C5 0.0460(10) 0.0544(10) 0.0527(11) 0.0051(9) 0.0080(8) -0.0032(8)
C6 0.0439(10) 0.0414(9) 0.0431(10) 0.0065(8) 0.0027(7) 0.0010(8)
C7 0.0431(10) 0.0401(9) 0.0453(10) 0.0059(8) -0.0001(8) -0.0004(8)
C8 0.0443(10) 0.0382(9) 0.0433(9) 0.0054(8) -0.0020(7) 0.0009(7)
C9 0.0446(10) 0.0406(9) 0.0416(9) 0.0035(8) 0.0005(7) 0.0017(7)
C10 0.0384(9) 0.0521(10) 0.0482(10) -0.0032(9) 0.0005(8) -0.0035(8)
C11 0.0484(10) 0.0411(9) 0.0428(10) 0.0017(8) 0.0008(8) 0.0036(8)
C12 0.0547(11) 0.0413(9) 0.0440(10) 0.0025(8) 0.0009(8) 0.0053(8)
C13 0.0576(12) 0.0462(10) 0.0499(11) -0.0059(9) -0.0041(9) -0.0027(9)
C14 0.0475(11) 0.0449(9) 0.0530(11) -0.0001(9) -0.0038(9) -0.0034(8)
C15 0.0696(13) 0.0492(10) 0.0497(11) -0.0052(9) 0.0064(9) 0.0026(10)
C16 0.0642(13) 0.0539(11) 0.0518(12) -0.0008(9) 0.0126(9) 0.0061(9)
C17 0.0519(11) 0.0590(11) 0.0600(12) -0.0050(10) 0.0115(9) -0.0001(9)
C18 0.0501(11) 0.0557(11) 0.0532(11) -0.0106(9) 0.0058(9) -0.0007(9)
C19 0.0830(16) 0.0769(14) 0.0775(15) -0.0151(12) 0.0306(12) 0.0005(12)
C20 0.0452(10) 0.0420(9) 0.0498(10) 0.0014(8) 0.0032(8) -0.0014(8)
C21 0.0617(13) 0.0627(12) 0.0636(13) 0.0182(11) -0.0009(10) -0.0119(10)
C22 0.0693(14) 0.0666(13) 0.0853(16) 0.0155(12) 0.0142(12) -0.0219(11)
C23 0.0478(12) 0.0640(12) 0.0859(16) -0.0098(12) 0.0099(11) -0.0126(10)
C24 0.0488(11) 0.0695(12) 0.0680(13) 0.0021(11) -0.0018(9) -0.0017(10)
C25 0.0477(11) 0.0596(11) 0.0578(12) 0.0123(10) 0.0038(9) -0.0030(9)
loop_
_atom_type_symbol
_atom_type_description
_atom_type_scat_dispersion_real
_atom_type_scat_dispersion_imag
_atom_type_scat_source
C C 0.0033 0.0016 'International Tables Vol C Tables 4.2.6.8 and 6.1.1.4'
H H 0.0000 0.0000 'International Tables Vol C Tables 4.2.6.8 and 6.1.1.4'
loop_
_geom_angle_atom_site_label_1
_geom_angle_atom_site_label_2
_geom_angle_atom_site_label_3
_geom_angle
C10 C1 C2 121.63(15)
C10 C1 C6 119.46(15)
C2 C1 C6 118.91(15)
C3 C2 C1 121.44(16)
C3 C2 H2 119.3
C1 C2 H2 119.3
C2 C3 C4 119.88(17)
C2 C3 H3 120.1
C4 C3 H3 120.1
C5 C4 C3 120.95(17)
C5 C4 H4 119.5
C3 C4 H4 119.5
C4 C5 C6 121.23(16)
C4 C5 H5 119.4
C6 C5 H5 119.4
C7 C6 C5 123.35(15)
C7 C6 C1 119.07(15)
C5 C6 C1 117.58(15)
C8 C7 C6 120.03(15)
C8 C7 C20 120.31(15)
C6 C7 C20 119.64(14)
C7 C8 C9 120.60(15)
C7 C8 C14 121.43(15)
C9 C8 C14 117.97(15)
C10 C9 C8 118.19(15)
C10 C9 C11 122.24(15)
C8 C9 C11 119.57(15)
C9 C10 C1 122.64(15)
C9 C10 H10 118.7
C1 C10 H10 118.7
C18 C11 C12 117.37(15)
C18 C11 C9 123.31(15)
C12 C11 C9 119.32(15)
C15 C12 C11 119.47(17)
C15 C12 C13 121.34(17)
C11 C12 C13 119.19(16)
C14 C13 C12 122.28(17)
C14 C13 H13 118.9
C12 C13 H13 118.9
C13 C14 C8 121.66(16)
C13 C14 H14 119.2
C8 C14 H14 119.2
C16 C15 C12 122.40(18)
C16 C15 H15 118.8
C12 C15 H15 118.8
C15 C16 C17 117.34(17)
C15 C16 C19 121.43(18)
C17 C16 C19 121.23(18)
C18 C17 C16 121.73(18)
C18 C17 H17 119.1
C16 C17 H17 119.1
C17 C18 C11 121.68(17)
C17 C18 H18 119.2
C11 C18 H18 119.2
C16 C19 H19A 109.5
C16 C19 H19B 109.5
H19A C19 H19B 109.5
C16 C19 H19C 109.5
H19A C19 H19C 109.5
H19B C19 H19C 109.5
C21 C20 C25 117.59(17)
C21 C20 C7 121.58(16)
C25 C20 C7 120.83(15)
C22 C21 C20 120.94(19)
C22 C21 H21 119.5
C20 C21 H21 119.5
C23 C22 C21 120.53(19)
C23 C22 H22 119.7
C21 C22 H22 119.7
C22 C23 C24 119.55(19)
C22 C23 H23 120.2
C24 C23 H23 120.2
C23 C24 C25 119.98(19)
C23 C24 H24 120.0
C25 C24 H24 120.0
C24 C25 C20 121.41(17)
C24 C25 H25 119.3
C20 C25 H25 119.3
loop_
_geom_bond_atom_site_label_1
_geom_bond_atom_site_label_2
_geom_bond_distance
C1 C10 1.389(2)
C1 C2 1.417(2)
C1 C6 1.423(2)
C2 C3 1.349(2)
C2 H2 0.9300
C3 C4 1.394(2)
C3 H3 0.9300
C4 C5 1.359(2)
C4 H4 0.9300
C5 C6 1.418(2)
C5 H5 0.9300
C6 C7 1.415(2)
C7 C8 1.397(2)
C7 C20 1.491(2)
C8 C9 1.431(2)
C8 C14 1.443(2)
C9 C10 1.379(2)
C9 C11 1.463(2)
C10 H10 0.9300
C11 C18 1.399(2)
C11 C12 1.407(2)
C12 C15 1.400(2)
C12 C13 1.428(2)
C13 C14 1.338(2)
C13 H13 0.9300
C14 H14 0.9300
C15 C16 1.375(3)
C15 H15 0.9300
C16 C17 1.389(3)
C16 C19 1.510(3)
C17 C18 1.364(2)
C17 H17 0.9300
C18 H18 0.9300
C19 H19A 0.9600
C19 H19B 0.9600
C19 H19C 0.9600
C20 C21 1.379(2)
C20 C25 1.381(2)
C21 C22 1.374(3)
C21 H21 0.9300
C22 C23 1.363(3)
C22 H22 0.9300
C23 C24 1.368(3)
C23 H23 0.9300
C24 C25 1.372(2)
C24 H24 0.9300
C25 H25 0.9300
loop_
_geom_torsion_atom_site_label_1
_geom_torsion_atom_site_label_2
_geom_torsion_atom_site_label_3
_geom_torsion_atom_site_label_4
_geom_torsion
C10 C1 C2 C3 -179.72(17)
C6 C1 C2 C3 0.1(3)
C1 C2 C3 C4 -0.1(3)
C2 C3 C4 C5 0.2(3)
C3 C4 C5 C6 -0.3(3)
C4 C5 C6 C7 -179.69(15)
C4 C5 C6 C1 0.2(2)
C10 C1 C6 C7 -0.4(2)
C2 C1 C6 C7 179.77(14)
C10 C1 C6 C5 179.69(15)
C2 C1 C6 C5 -0.1(2)
C5 C6 C7 C8 179.49(15)
C1 C6 C7 C8 -0.4(2)
C5 C6 C7 C20 -2.0(2)
C1 C6 C7 C20 178.05(14)
C6 C7 C8 C9 1.0(2)
C20 C7 C8 C9 -177.51(14)
C6 C7 C8 C14 -178.48(14)
C20 C7 C8 C14 3.1(2)
C7 C8 C9 C10 -0.7(2)
C14 C8 C9 C10 178.79(14)
C7 C8 C9 C11 179.44(14)
C14 C8 C9 C11 -1.1(2)
C8 C9 C10 C1 -0.2(2)
C11 C9 C10 C1 179.72(15)
C2 C1 C10 C9 -179.47(15)
C6 C1 C10 C9 0.7(3)
C10 C9 C11 C18 1.7(3)
C8 C9 C11 C18 -178.45(15)
C10 C9 C11 C12 -179.13(15)
C8 C9 C11 C12 0.8(2)
C18 C11 C12 C15 -0.9(2)
C9 C11 C12 C15 179.86(15)
C18 C11 C12 C13 179.61(15)
C9 C11 C12 C13 0.4(2)
C15 C12 C13 C14 179.33(16)
C11 C12 C13 C14 -1.2(3)
C12 C13 C14 C8 0.8(3)
C7 C8 C14 C13 179.78(16)
C9 C8 C14 C13 0.3(2)
C11 C12 C15 C16 0.0(3)
C13 C12 C15 C16 179.53(16)
C12 C15 C16 C17 0.8(3)
C12 C15 C16 C19 -178.55(17)
C15 C16 C17 C18 -0.8(3)
C19 C16 C17 C18 178.56(18)
C16 C17 C18 C11 -0.1(3)
C12 C11 C18 C17 0.9(3)
C9 C11 C18 C17 -179.87(16)
C8 C7 C20 C21 -107.1(2)
C6 C7 C20 C21 74.4(2)
C8 C7 C20 C25 73.3(2)
C6 C7 C20 C25 -105.18(19)
C25 C20 C21 C22 -0.4(3)
C7 C20 C21 C22 179.95(19)
C20 C21 C22 C23 0.2(3)
C21 C22 C23 C24 0.2(3)
C22 C23 C24 C25 -0.3(3)
C23 C24 C25 C20 0.1(3)
C21 C20 C25 C24 0.3(3)
C7 C20 C25 C24 179.91(17)
