#------------------------------------------------------------------------------
#$Date: 2017-11-30 01:07:11 +0200 (Thu, 30 Nov 2017) $
#$Revision: 203792 $
#$URL: file:///home/coder/svn-repositories/cod/cif/4/00/28/4002876.cif $
#------------------------------------------------------------------------------
#
# This file is available in the Crystallography Open Database (COD),
# http://www.crystallography.net/
#
# All data on this site have been placed in the public domain by the
# contributors.
#
data_4002876
loop_
_publ_author_name
'Verchenko, Valeriy Yu.'
'Wei, Zheng'
'Tsirlin, Alexander A.'
'Callaert, Carolien'
'Jesche, Anton'
'Hadermann, Joke'
'Dikarev, Evgeny V.'
'Shevelkov, Andrei V.'
_publ_section_title
;
 Crystal Growth of the Nowotny Chimney Ladder Phase Fe2Ge3: Exploring New
 Fe-Based Narrow-Gap Semiconductor with Promising Thermoelectric
 Performance
;
_journal_name_full               'Chemistry of Materials'
_journal_paper_doi               10.1021/acs.chemmater.7b03300
_journal_year                    2017
_chemical_formula_moiety         'Fe2 Ge3'
_chemical_formula_sum            'Fe2 Ge3'
_chemical_formula_weight         329.47
_space_group_crystal_system      tetragonal
_space_group_IT_number           116
_space_group_name_Hall           'P -4 -2c'
_space_group_name_H-M_alt        'P -4 c 2'
_symmetry_space_group_name_Hall  'P -4 -2c'
_symmetry_space_group_name_H-M   'P -4 c 2'
_atom_sites_solution_primary     direct
_atom_sites_solution_secondary   difmap
_audit_creation_method           SHELXL-2016/6
_cell_angle_alpha                90
_cell_angle_beta                 90
_cell_angle_gamma                90
_cell_formula_units_Z            4
_cell_length_a                   5.5848(8)
_cell_length_b                   5.5848(8)
_cell_length_c                   8.9400(18)
_cell_measurement_reflns_used    9981
_cell_measurement_temperature    100(2)
_cell_measurement_theta_max      36.29
_cell_measurement_theta_min      3.65
_cell_volume                     278.84(8)
_computing_cell_refinement       'SAINT V.8.37A (Bruker AXS Inc., 2016)'
_computing_data_collection       'APEX3 v.2016.9-0 (Bruker AXS Inc., 2016)'
_computing_data_reduction        'SAINT V.8.37A (Bruker AXS Inc., 2016)'
_computing_molecular_graphics    'Xshell v.6.3.1 (Bruker AXS Inc., 2016)'
_computing_publication_material  'APEX3 v.2016.9-0 (Bruker AXS Inc., 2016)'
_computing_structure_refinement  'SHELXL-2016/6 (Sheldrick, 2016)'
_computing_structure_solution    'SHELXS-2016/6 (Sheldrick, 2016)'
_diffrn_ambient_temperature      100(2)
_diffrn_measured_fraction_theta_full 1.000
_diffrn_measured_fraction_theta_max 0.998
_diffrn_measurement_device_type  'Bruker D8 Venture PHOTON 100 CMOS'
_diffrn_measurement_method       'omega and phi scans'
_diffrn_radiation_monochromator  graphite
_diffrn_radiation_source         'fine-focus sealed tube'
_diffrn_radiation_type           MoK\a
_diffrn_radiation_wavelength     0.71073
_diffrn_reflns_av_R_equivalents  0.0496
_diffrn_reflns_av_unetI/netI     0.0152
_diffrn_reflns_Laue_measured_fraction_full 1.000
_diffrn_reflns_Laue_measured_fraction_max 0.998
_diffrn_reflns_limit_h_max       9
_diffrn_reflns_limit_h_min       -9
_diffrn_reflns_limit_k_max       9
_diffrn_reflns_limit_k_min       -9
_diffrn_reflns_limit_l_max       14
_diffrn_reflns_limit_l_min       -14
_diffrn_reflns_number            15306
_diffrn_reflns_point_group_measured_fraction_full 1.000
_diffrn_reflns_point_group_measured_fraction_max 0.999
_diffrn_reflns_theta_full        25.242
_diffrn_reflns_theta_max         36.300
_diffrn_reflns_theta_min         3.648
_exptl_absorpt_coefficient_mu    41.773
_exptl_absorpt_correction_T_max  0.7471
_exptl_absorpt_correction_T_min  0.4078
_exptl_absorpt_correction_type   multi-scan
_exptl_absorpt_process_details
;
SADABS-2014/5 (Bruker,2014/5) was 
used for absorption correction. 
Krause, L., Herbst-Irmer, R., 
Sheldrick G.M. & Stalke D.,
 J. Appl. Cryst. 48 (2015) 3-10
;
_exptl_crystal_colour            'metallic silver'
_exptl_crystal_density_diffrn    7.848
_exptl_crystal_density_meas      ?
_exptl_crystal_density_method    none
_exptl_crystal_description       needle
_exptl_crystal_F_000             592
_exptl_crystal_size_max          0.120
_exptl_crystal_size_mid          0.060
_exptl_crystal_size_min          0.040
_refine_diff_density_max         1.785
_refine_diff_density_min         -1.951
_refine_diff_density_rms         0.389
_refine_ls_abs_structure_details
;
 Refined as an inversion twin.
;
_refine_ls_abs_structure_Flack   0.50(8)
_refine_ls_extinction_method     none
_refine_ls_goodness_of_fit_ref   1.357
_refine_ls_hydrogen_treatment    undef
_refine_ls_matrix_type           full
_refine_ls_number_parameters     26
_refine_ls_number_reflns         685
_refine_ls_number_restraints     0
_refine_ls_restrained_S_all      1.357
_refine_ls_R_factor_all          0.0284
_refine_ls_R_factor_gt           0.0276
_refine_ls_shift/su_max          0.000
_refine_ls_shift/su_mean         0.000
_refine_ls_structure_factor_coef Fsqd
_refine_ls_weighting_details
'w=1/[\s^2^(Fo^2^)+(0.0122P)^2^+5.9657P] where P=(Fo^2^+2Fc^2^)/3'
_refine_ls_weighting_scheme      calc
_refine_ls_wR_factor_gt          0.0691
_refine_ls_wR_factor_ref         0.0695
_reflns_Friedel_coverage         0.712
_reflns_Friedel_fraction_full    1.000
_reflns_Friedel_fraction_max     1.000
_reflns_number_gt                674
_reflns_number_total             685
_reflns_threshold_expression     'I > 2\s(I)'
_cod_data_source_file            cm7b03300_si_001.cif
_cod_data_source_block           fe2ge3
_cod_depositor_comments
;
The following automatic conversions were performed:

'_exptl_crystal_density_meas' value 'not measured' was changed to '?'
- the value is perceived as not measured.

Automatic conversion script
Id: cif_fix_values 4973 2017-02-22 13:04:09Z antanas 
;
_cod_original_cell_volume        278.84(10)
_cod_database_code               4002876
_shelx_shelxl_version_number     2016/6
_shelx_space_group_comment
;
The symmetry employed for this shelxl refinement is uniquely defined
by the following loop, which should always be used as a source of
symmetry information in preference to the above space-group names.
They are only intended as comments.
;
_shelx_estimated_absorpt_t_min   0.082
_shelx_estimated_absorpt_t_max   0.286
_shelx_res_file
;
TITL xl in P-4c2
    xl.res
    created by SHELXL-2016/6 at 10:05:51 on 11-Jul-2017
CELL 0.71073   5.5848   5.5848   8.9400  90.000  90.000  90.000
ZERR    4.00   0.0008   0.0008   0.0018   0.000   0.000   0.000
LATT -1
SYMM -X, -Y, Z
SYMM Y, -X, -Z
SYMM -Y, X, -Z
SYMM X, -Y, 0.5+Z
SYMM -X, Y, 0.5+Z
SYMM Y, X, 0.5-Z
SYMM -Y, -X, 0.5-Z
SFAC FE GE
UNIT 8 12
L.S. 9
BOND
ACTA
FMAP 2
PLAN -20
TWIN
SIZE 0.12 0.06 0.04
TEMP -173.15
WGHT    0.012200    5.965700
BASF   0.49942
FVAR       0.39154
MOLE   1
GE1   2    0.654689    0.220117    0.084966    11.00000    0.00164    0.01069 =
         0.00586   -0.00508    0.00023   -0.00082
GE2   2    0.176816    0.176816    0.250000    10.50000    0.00209    0.00209 =
         0.00307    0.00163   -0.00163   -0.00165
FE1   1    0.000000    0.500000    0.125908    10.50000    0.00153    0.00205 =
         0.00312    0.00000    0.00000   -0.00021
FE2   1    0.500000    0.500000    0.250000    10.25000    0.00206    0.00206 =
         0.00464    0.00000    0.00000   -0.00124
FE3   1    0.000000    0.000000    0.000000    10.25000    0.00212    0.00212 =
         0.00249    0.00000    0.00000    0.00000
MOLE   2
HKLF 4




REM  xl in P-4c2
REM R1 =  0.0276 for     674 Fo > 4sig(Fo)  and  0.0284 for all     685 data
REM     26 parameters refined using      0 restraints

END

WGHT      0.0122      5.9655

REM Highest difference peak  1.785,  deepest hole -1.951,  1-sigma level  0.389
Q1    1   0.8057 -0.1156  0.2518  11.00000  0.05    1.78
Q2    1   0.2515  0.2515  0.2500  10.50000  0.05    1.57
Q3    1   0.6631  0.1597 -0.2305  11.00000  0.05    1.30
Q4    1   0.5763  0.3118  0.2545  11.00000  0.05    1.28
Q5    1   0.2409  0.0012  0.1938  11.00000  0.05    1.20
Q6    1   0.4239  0.4239  0.2500  10.50000  0.05    1.19
Q7    1   0.6728  0.0312  0.0966  11.00000  0.05    1.12
Q8    1   0.6197  0.2828  0.1153  11.00000  0.05    1.10
Q9    1   0.5763  0.1494  0.0887  11.00000  0.05    1.10
Q10   1   0.7840  0.1026  0.0824  11.00000  0.05    1.06
Q11   1   0.8930  0.3725  0.0953  11.00000  0.05    1.05
Q12   1   0.2035  0.0333  0.0310  11.00000  0.05    1.01
Q13   1   1.0168  0.2779  0.2007  11.00000  0.05    0.98
Q14   1   1.0046  0.1146  0.2390  11.00000  0.05    0.97
Q15   1   0.9393  0.1234  0.0746  11.00000  0.05    0.93
Q16   1   1.0554  0.3377  0.1021  11.00000  0.05    0.91
Q17   1   0.5870  0.5013 -0.0047  11.00000  0.05    0.91
Q18   1   0.5433  0.1735  0.2435  11.00000  0.05    0.89
Q19   1   0.9652  0.1172  0.1285  11.00000  0.05    0.87
Q20   1   0.2975  0.1031  0.0188  11.00000  0.05    0.86
;
_shelx_res_checksum              29169
_shelx_hkl_file
;
   0   1   0 6.09529 1.45935   7
   0   1   0 4.67747 1.69141   8
   0  -1   0 8.72216 1.61520   9
   0   1   0 7.85686 2.40727   1
   0   1   0 6.95315 1.57336   6
   0  -1   0 11.3775 1.48809   4
   1   1   0 5.24464 1.97769   8
   1   1   0 1.23369 1.71955   7
   1   1   0 8.82560 3.11782   3
  -1  -1   0 2.72583 1.67176   2
  -1  -1   0 3.02544 2.00807   4
  -1  -1   0 6.90389 2.53396   5
   1   1   0 -0.2901 1.57023   2
  -1  -1   0 2.27724 2.11270   6
  -1  -1   0 -0.6770 1.65628   7
  -1   1   0 3.00332 2.31783   1
  -1   1   0 2.99553 2.56192   3
  -1   1   0 4.75233 1.84253   4
  -1   1   0 0.35486 1.83068   6
  -1   1   0 -0.1036 1.66494   7
  -1   1   0 1.20403 1.95640   8
   1  -1   0 2.84229 2.27277   2
   1  -1   0 -1.7560 1.50592   5
   1  -1   0 2.62942 2.00336   7
   1  -1   0 5.63830 2.35437   9
   2   1   0 45.9111 3.71840   7
   2   1   0 36.8676 3.55516   9
  -1   2   0 42.9786 4.78009   1
  -1   2   0 44.5025 4.12141   3
   1  -2   0 45.5825 4.18643   7
  -2  -1   0 44.7927 3.68563   6
  -1   2   0 39.5766 3.81545   4
  -1   2   0 45.8729 4.36368   6
  -1   2   0 42.0596 3.89424   7
   1  -2   0 42.5229 3.95876   4
   1  -2   0 50.9922 3.99332   5
   1  -2   0 47.9474 4.18850   6
   2   1   0 43.4713 3.12687   2
   2   1   0 42.7469 3.57422   6
   1  -2   0 43.7617 4.14894   9
   0  -2   0 159.786 9.43992   2
   0  -2   0 168.554 9.00993   9
   0   2   0 138.854 9.35129   1
   0   2   0 146.345 9.40722   6
   0   2   0 160.782 9.30112   7
   0   2   0 140.484 9.61942   8
   0  -2   0 148.441 9.24776   7
  -2   0   0 160.024 8.89150   7
  -2   0   0 150.643 8.65683   5
  -2   0   0 148.578 8.82525   6
   0  -2   0 150.604 9.18496   6
   2   0   0 158.485 8.88022   6
   2   0   0 154.999 8.82908   7
  -2   0   0 156.888 9.22605   4
   0   2   0 151.970 8.85658   9
   2   0   0 136.415 9.48280   3
   0  -2   0 142.651 8.82643   4
   0  -2   0 167.752 9.38932   5
   2   0   0 149.413 9.21675   9
  -2   1   0 47.0697 3.37418   8
  -2   1   0 51.2785 3.75181   7
   2  -1   0 48.6486 3.89337   6
  -2   1   0 39.3643 4.45773   1
  -2   1   0 46.6216 3.78141   6
  -1  -2   0 48.6943 4.61365   2
  -1  -2   0 51.1700 4.16088   6
   1   2   0 41.8508 3.95401   6
   1   2   0 45.3746 3.32325   9
   2  -1   0 39.1261 3.70526   2
  -1  -2   0 38.2642 3.93117   4
   2  -1   0 35.6645 3.17888   5
   2  -1   0 45.2528 3.74983   7
  -2  -2   0 8963.63 436.200   5
   2  -2   0 8020.89 435.936   7
   2  -2   0 8242.43 435.857   2
  -2   2   0 8072.87 435.645   4
  -2   2   0 7885.50 436.233   6
   2  -2   0 8443.17 435.933   6
  -2   2   0 8242.27 435.536   3
   2  -2   0 8059.29 436.154   9
   2   2   0 8412.19 436.584   3
   2   2   0 7171.44 435.989   6
   2   2   0 8497.79 435.743   7
   2   2   0 8314.40 436.124   8
  -2  -2   0 8935.11 435.477   2
  -2  -2   0 8134.90 435.822   7
   2  -2   0 8283.08 435.562   3
   2  -2   0 8407.29 435.539   5
  -2  -2   0 9051.52 435.794   4
  -2   2   0 7491.40 435.949   1
  -2   2   0 8729.53 435.967   8
   2   2   0 7793.08 435.530   9
  -2   3   0 13.2445 3.76437   1
  -3  -2   0 17.5334 4.84596   5
  -3  -2   0 5.66105 2.32279   7
  -2   3   0 10.1781 2.88217   8
   2  -3   0 10.5254 3.38569   2
  -3  -2   0 10.0363 2.86257   6
  -3  -2   0 8.11214 2.48755   4
  -2   3   0 7.63279 3.05203   4
  -2   3   0 11.2729 2.46963   3
   3   2   0 10.3718 2.34509   2
   3   2   0 9.51493 4.25228   3
   3   2   0 13.6163 2.72129   6
   3   2   0 13.1976 2.89042   7
   3   2   0 7.00684 2.43779   8
   3   2   0 5.70461 2.19306   9
  -3  -2   0 13.1356 2.35667   2
   2  -3   0 7.73392 3.03685   9
  -2   3   0 9.27418 3.07178   6
  -2   3   0 9.85726 2.54031   7
   2  -3   0 13.0566 2.81225   5
   2  -3   0 11.4900 2.97589   6
   2  -3   0 10.9046 3.35782   7
   1  -3   0 -2.6041 2.96944   6
   1  -3   0 3.66158 2.19208   5
  -1   3   0 4.24392 3.06651   6
  -1   3   0 7.07552 2.45304   7
  -3  -1   0 6.11425 2.04487   6
  -3  -1   0 0.62029 1.58427   7
  -1   3   0 -2.4838 2.71861   8
   1  -3   0 -1.4458 2.14639   4
  -1   3   0 -2.0213 2.98915   3
  -3  -1   0 2.31407 2.05161   5
   1  -3   0 1.97077 2.19229   7
   3   1   0 5.56977 2.06036   7
  -1   3   0 0.59413 3.38239   1
  -1   3   0 2.51548 2.58021   4
  -3  -1   0 1.52134 1.67800   1
  -3  -1   0 -0.3282 2.39056   4
   3   1   0 1.01230 1.33537   2
   3   1   0 1.26019 2.43274   3
   3   1   0 4.48137 2.11909   6
   3   1   0 4.06782 1.68999   8
   3   1   0 2.08459 1.73148   9
  -3   0   0 348.341 19.1420   6
  -3   0   0 342.639 18.9799   5
   0  -3   0 323.533 18.9800   4
   0  -3   0 352.550 19.4672   5
   0   3   0 317.944 19.6255   1
   0   3   0 304.523 19.9980   3
  -3   0   0 315.510 19.0622   7
   0  -3   0 357.295 19.6091   2
   3   0   0 334.995 19.4410   9
   3   0   0 365.318 19.1514   7
   0   3   0 339.684 19.8438   6
  -3   0   0 337.189 19.4141   4
  -3   0   0 347.061 19.1742   1
   0  -3   0 348.647 19.1164   9
   0  -3   0 315.817 19.4877   7
   3   0   0 343.933 18.7434   2
  -3   1   0 6.76462 2.61341   4
   1   3   0 5.13050 1.64311   9
  -3   1   0 -1.2130 2.24277   1
  -3   1   0 -0.4036 1.95551   6
  -3   1   0 2.39704 1.73625   7
  -1  -3   0 8.50734 3.43513   6
  -1  -3   0 1.06102 2.74305   2
  -1  -3   0 -0.4917 2.07316   4
  -1  -3   0 5.53953 2.99663   5
   1   3   0 -3.4026 2.73451   7
   1   3   0 -0.9751 3.24420   3
   3  -1   0 4.19559 1.91176   2
   3  -1   0 3.85631 2.07467   3
  -3   1   0 0.41230 1.38795   5
   3  -1   0 -0.4744 1.35828   5
   1   3   0 3.42768 2.80983   6
   3  -1   0 3.60860 2.40232   6
   3  -1   0 2.42558 1.85979   7
   3  -1   0 -1.3560 1.98357   9
  -3   1   0 2.39939 1.16358   8
  -1  -3   0 2.16389 2.23119   7
   2   3   0 13.2302 4.29425   3
  -2  -3   0 14.0584 3.25061   6
  -2  -3   0 9.10234 2.59319   7
  -3   2   0 15.5291 3.70215   1
  -3   2   0 18.1206 3.63697   4
   3  -2   0 14.6792 3.05702   7
  -3   2   0 16.9155 3.34990   7
  -2  -3   0 8.31038 3.33504   5
  -2  -3   0 13.2733 3.26786   2
   3  -2   0 5.02140 2.30578   3
   3  -2   0 8.35484 2.08569   5
  -3   2   0 9.05332 2.21773   8
   2   3   0 7.17393 1.98651   9
   2   3   0 11.9713 3.10251   6
  -3   2   0 11.9041 2.82300   6
  -2  -3   0 9.55086 2.77239   4
   3  -2   0 16.9236 3.00129   6
   2   3   0 7.51100 3.14300   8
   2   3   0 16.5540 3.46151   7
  -3  -3   0 0.93989 2.93773   4
   3  -3   0 5.80673 3.63108   6
  -3   3   0 4.46801 3.98646   4
  -3   3   0 6.69055 4.03355   1
   3   3   0 0.17017 3.54694   6
  -3  -3   0 0.58794 3.25987   5
   3  -3   0 5.38804 3.51934   7
   3  -3   0 2.40312 2.39257   5
   3  -3   0 3.09638 3.24725   9
   3   3   0 1.15614 4.64806   3
   3   3   0 8.05967 3.83392   8
   3  -3   0 4.10424 3.06847   2
  -3   3   0 5.94440 3.39192   6
  -3  -3   0 5.63623 3.42625   6
  -3  -3   0 1.13076 2.81869   7
  -3   3   0 3.35657 2.71617   7
  -3   3   0 0.62259 2.44013   3
  -3  -3   0 4.16252 3.14845   2
   3   3   0 2.18891 2.01946   9
   3   3   0 7.00867 3.86458   7
  -3   4   0 1225.22 66.4747   7
   3  -4   0 1243.85 66.7627   6
   4   3   0 1076.94 66.6422   8
   4   3   0 1184.08 65.8873   9
  -4  -3   0 1210.30 67.4684   5
   4   3   0 1299.89 66.3716   6
   4   3   0 1270.74 66.3757   7
  -3   4   0 1373.36 66.9710   8
  -3   4   0 1145.94 65.5836   3
  -3   4   0 1217.94 66.7082   6
   3  -4   0 1239.77 66.7781   2
   3  -4   0 1172.74 65.8736   5
  -4  -3   0 1258.90 65.6457   2
  -4  -3   0 1194.68 66.4708   4
   3  -4   0 1254.53 66.9246   7
  -3   4   0 1221.05 67.2610   1
  -4  -3   0 1223.66 66.1527   6
   3  -4   0 1226.00 65.8628   3
   4   3   0 1155.52 68.3408   3
  -4  -3   0 1206.89 66.3210   7
  -3   4   0 1254.53 66.2007   4
   3  -4   0 1276.60 67.2250   9
  -4  -2   0 3684.62 192.305   5
  -4  -2   0 3731.88 191.090   2
  -2   4   0 3884.30 192.915   8
  -2   4   0 3681.84 192.199   7
   2  -4   0 3682.22 191.817   5
   2  -4   0 3699.28 192.401   6
   4   2   0 3313.88 191.826   9
  -2   4   0 3752.46 191.606   3
  -4  -2   0 3814.28 192.000   7
   2  -4   0 3563.15 192.263   2
   2  -4   0 3368.56 192.291   7
  -4  -2   0 3554.47 192.005   4
   4   2   0 3413.22 191.874   8
  -4  -2   0 3660.16 191.742   6
   2  -4   0 3459.53 192.277   9
  -2   4   0 3448.74 192.350   1
   4   2   0 3638.55 191.804   7
   4   2   0 3760.14 191.135   2
   4   2   0 3492.01 193.143   3
   4   2   0 3689.21 191.815   6
  -2   4   0 3614.18 191.507   4
  -2   4   0 3603.40 192.362   6
   4   1   0 381.151 21.8039   9
  -1   4   0 394.674 22.6320   6
   1  -4   0 349.191 22.0215   6
   4   1   0 414.142 21.6756   6
  -1   4   0 327.159 22.1702   3
  -1   4   0 373.951 22.6461   1
   4   1   0 423.766 21.7474   7
   4   1   0 371.202 21.2748   8
   1  -4   0 363.569 21.6881   5
  -4  -1   0 387.637 21.6027   7
   1  -4   0 369.931 22.1661   7
  -1   4   0 373.175 21.5354   4
   1  -4   0 393.763 22.1373   2
  -1   4   0 385.300 22.0413   7
  -1   4   0 378.074 22.4975   8
   1  -4   0 374.485 21.7307   9
  -4  -1   0 411.610 21.3388   1
  -4  -1   0 386.218 21.9503   4
   1  -4   0 345.720 21.4180   4
  -4  -1   0 415.384 23.7560   5
   4   1   0 366.436 20.7887   2
  -4  -1   0 381.925 21.5130   6
   4   1   0 371.686 22.6510   3
  -4   0   0 1351.30 71.7509   8
  -4   0   0 1311.33 72.4788   4
   4   0   0 1401.29 71.8255   8
   0   4   0 1413.88 72.7023   7
   0  -4   0 1245.65 71.8581   4
   0  -4   0 1394.15 72.7878   7
   0  -4   0 1385.83 72.1469   9
  -4   0   0 1326.41 72.1754   1
   0   4   0 1412.56 73.6015   8
   4   0   0 1201.55 71.6412   2
   0   4   0 1420.93 73.1564   6
   0  -4   0 1305.58 72.5386   6
  -4   0   0 1351.01 72.2480   6
   4   0   0 1227.72 72.6720   3
   4   0   0 1363.92 72.2636   7
  -4   0   0 1332.44 72.2529   7
   0   4   0 1306.48 72.6336   1
   0  -4   0 1371.73 72.6012   2
   0  -4   0 1341.88 72.5015   5
   4   0   0 1442.23 72.3982   6
   4   0   0 1366.82 72.7723   9
  -4   0   0 1380.28 72.0849   5
  -1  -4   0 380.216 21.8384   6
  -1  -4   0 356.698 21.0537   4
   1   4   0 421.741 22.0255   7
   4  -1   0 379.804 21.4729   7
  -4   1   0 395.740 21.8817   4
  -1  -4   0 376.431 21.0095   9
  -4   1   0 367.589 21.3736   6
   1   4   0 331.035 22.5827   3
   1   4   0 381.133 22.0412   6
  -1  -4   0 380.585 21.8318   2
   4  -1   0 379.192 21.8416   9
  -1  -4   0 368.650 21.7874   5
  -4   1   0 418.917 20.8246   8
  -1  -4   0 358.280 21.7899   7
   1   4   0 338.393 20.9239   9
   4  -1   0 386.226 21.6883   2
  -4   1   0 364.695 21.5620   1
   4  -1   0 393.241 21.5661   6
   4  -1   0 362.406 21.6269   3
  -4   1   0 362.942 21.2856   7
   1   4   0 395.193 22.5428   8
  -4   1   0 356.396 20.7986   5
  -4   2   0 3884.57 191.240   8
  -2  -4   0 3723.18 191.643   2
   4  -2   0 3518.76 191.396   3
  -2  -4   0 3538.31 192.191   5
   2   4   0 3566.30 191.669   6
  -2  -4   0 3649.23 191.661   6
  -4   2   0 3475.35 191.472   6
  -4   2   0 3756.33 191.829   4
  -4   2   0 3391.48 191.702   1
   4  -2   0 3887.07 191.497   2
   4  -2   0 3617.50 191.755   7
   2   4   0 3860.62 191.807   7
   2   4   0 3443.22 192.704   8
   2   4   0 3401.08 190.930   9
   4  -2   0 3724.10 191.705   6
   2   4   0 3371.23 192.749   3
   4  -2   0 3467.60 190.839   5
  -2  -4   0 4033.32 191.338   4
   4  -2   0 3577.69 192.292   9
  -4   2   0 3574.53 191.554   7
  -4   2   0 3572.82 190.860   5
  -2  -4   0 3331.54 191.724   7
   4  -3   0 1159.48 66.4738   5
   3   4   0 1221.18 68.6025   8
  -4   3   0 1290.89 67.6172   4
  -3  -4   0 1257.70 67.3861   6
  -4   3   0 1206.08 67.4538   6
  -3  -4   0 1272.80 67.2737   2
  -4   3   0 1193.67 67.9376   1
  -3  -4   0 1217.73 68.2479   5
  -4   3   0 1294.50 67.4156   7
  -3  -4   0 1268.77 67.1222   4
   3   4   0 1213.25 69.4300   3
   3   4   0 1363.56 67.6656   7
   4  -3   0 1125.53 68.7442   2
   4  -3   0 1178.97 66.8900   3
   3   4   0 1257.57 67.4474   6
  -4   3   0 1338.30 67.2426   8
   4  -3   0 1257.95 67.6248   7
  -3  -4   0 1285.22 67.6629   7
   4  -3   0 1223.85 67.4763   6
   4  -3   0 1224.96 68.4851   9
  -4  -4   0 165.632 12.3635   2
  -4  -4   0 142.871 11.1753   4
  -4   4   0 155.170 12.3058   6
  -4  -4   0 151.982 13.4106   5
   4  -4   0 161.037 12.3488   6
   4   4   0 126.579 15.9419   3
   4   4   0 117.030 14.4040   6
   4   4   0 142.981 14.9013   8
   4   4   0 142.905 10.0162   9
  -4   4   0 162.159 11.9106   7
   4  -4   0 137.279 12.7775   7
   4  -4   0 123.919 11.2643   3
  -4   4   0 153.356 13.7108   4
   4  -4   0 122.294 10.4144   5
   4  -4   0 154.597 12.4824   2
   4  -4   0 156.613 14.1054   9
  -4  -4   0 155.169 13.5525   7
  -4  -4   0 131.750 17.8387   6
  -4   4   0 166.019 14.5641   8
  -4   4   0 161.815 14.1021   1
   5   4   0 293.794 19.3495   9
  -5  -4   0 345.069 22.5576   5
   4  -5   0 316.899 21.4754   2
   4  -5   0 312.674 22.7324   9
   5   4   0 263.037 23.0600   8
  -4   5   0 340.747 23.2024   1
  -5  -4   0 307.229 20.2476   4
   5   4   0 268.983 25.6196   3
  -4   5   0 371.458 21.5441   8
  -4   5   0 330.141 23.9801   4
   3  -5   0 3.39655 5.06593   5
  -3   5   0 -2.1981 6.06306   8
   3  -5   0 5.95827 5.35031   2
   3  -5   0 6.44765 5.40915   3
  -3   5   0 8.38178 6.57208   6
  -5  -3   0 4.13604 5.60138   6
  -5  -3   0 -0.5266 4.55346   2
   3  -5   0 -0.5309 5.93980   9
  -5  -3   0 5.79551 4.91292   4
   5   3   0 2.22715 7.89456   3
  -3   5   0 -8.0037 6.63269   4
   5   3   0 10.8538 6.39993   7
   3  -5   0 4.78238 6.15323   6
   5   3   0 -9.4219 5.43421   8
   5   3   0 -0.7024 4.42935   9
  -5  -3   0 3.56288 6.20822   5
  -3   5   0 0.58035 7.98427   1
   3  -5   0 6.43641 6.36934   7
   5   2   0 197.039 13.6829   6
   5   2   0 183.757 16.3605   3
   5   2   0 232.019 17.7040   7
   2  -5   0 218.810 14.9000   6
  -2   5   0 212.011 14.4379   7
   5   2   0 196.543 14.2336   9
  -2   5   0 188.542 15.3835   3
  -2   5   0 202.540 16.5566   4
   5   2   0 178.429 13.4131   8
  -5  -2   0 214.160 14.1861   4
  -5  -2   0 194.573 16.7599   5
  -5  -2   0 212.216 12.7867   2
  -2   5   0 220.978 16.5764   1
  -5  -2   0 213.644 14.3730   6
  -2   5   0 226.825 15.6295   8
   2  -5   0 220.370 15.0345   2
   5   2   0 203.059 12.7169   2
   2  -5   0 211.100 14.1695   9
   2  -5   0 223.340 13.8550   5
  -5  -2   0 180.723 13.2314   7
  -5  -1   0 12.9602 4.54437   5
  -1   5   0 -0.1659 4.88108   4
   5   1   0 16.7616 4.66460   7
   1  -5   0 7.47466 4.63186   7
  -5  -1   0 6.54312 4.38120   4
   5   1   0 5.04398 2.80783   2
  -5  -1   0 4.63145 3.17430   7
   1  -5   0 3.56689 4.38839   6
   5   1   0 13.6092 4.07854   6
  -1   5   0 3.36278 5.54789   6
  -1   5   0 -1.0521 6.60305   1
  -5  -1   0 9.22245 3.62499   1
   1  -5   0 5.37340 4.66121   2
   1  -5   0 6.66382 3.70850   9
   5   1   0 -3.5616 5.54017   3
   1  -5   0 -0.6450 3.93056   4
  -5  -1   0 7.79088 3.82432   6
   5   1   0 2.48420 3.94600   9
  -1   5   0 8.15287 6.85584   8
   1  -5   0 4.84475 3.96724   5
   5   1   0 2.49572 2.90213   8
   0   5   0 1205.11 66.9460   1
   0   5   0 1121.94 66.6324   7
  -5   0   0 1239.59 66.4212   6
   0   5   0 1300.05 67.4321   6
   0  -5   0 1283.22 67.0631   2
  -5   0   0 1224.39 66.1911   5
   0   5   0 1073.39 67.1542   3
   0  -5   0 1147.48 65.8116   4
  -5   0   0 1253.53 65.7493   8
   5   0   0 1151.21 67.0586   3
   0  -5   0 1256.22 66.9585   7
   5   0   0 1289.88 67.2466   9
   5   0   0 1310.05 66.5744   6
   0   5   0 1256.08 68.1757   8
   5   0   0 1136.75 65.5744   2
  -5   0   0 1202.57 66.3433   7
  -5   0   0 1262.04 66.9166   4
   0  -5   0 1241.58 66.8314   6
   5   0   0 1277.72 66.4574   7
   0  -5   0 1176.12 66.7492   5
   0  -5   0 1231.73 66.0761   9
   5   0   0 1263.04 65.8184   8
  -5   0   0 1365.64 66.4971   1
   1   5   0 3.97733 6.88666   8
   5  -1   0 3.90083 4.54528   3
  -5   1   0 6.38776 4.54678   4
  -5   1   0 9.60358 4.97018   1
   1   5   0 6.54176 6.84246   3
   5  -1   0 8.65026 4.21975   6
   1   5   0 2.01829 6.86614   1
   5  -1   0 8.04780 4.49304   7
  -5   1   0 5.68433 3.09213   7
  -1  -5   0 -3.0677 3.98377   6
  -5   1   0 4.04413 2.30634   8
  -1  -5   0 4.44818 3.31409   9
   1   5   0 4.59711 6.24821   6
   5  -1   0 2.81769 3.07345   2
  -1  -5   0 8.46378 5.77443   2
  -5   1   0 0.00243 3.61142   6
   5  -1   0 9.35935 4.97928   9
  -1  -5   0 -1.1395 3.70706   7
  -1  -5   0 2.93275 3.58182   4
  -1  -5   0 7.21815 4.35784   5
  -2  -5   0 212.225 14.9178   2
  -2  -5   0 203.951 14.7219   5
   2   5   0 214.303 17.1835   8
  -5   2   0 200.161 13.6725   7
   2   5   0 222.258 15.5983   6
  -2  -5   0 213.436 14.9127   7
   2   5   0 197.307 15.1247   7
  -5   2   0 199.951 15.2272   1
  -2  -5   0 222.614 13.9212   4
   2   5   0 197.912 13.3395   9
   2   5   0 193.984 17.3309   3
  -5   2   0 207.865 19.1059   6
  -5   2   0 239.686 15.6776   5
   5  -2   0 234.496 14.5814   6
   5  -2   0 196.535 14.7361   3
  -5   2   0 211.124 15.2772   4
   5  -2   0 213.843 15.6251   9
  -5   2   0 230.039 13.0524   8
   3   5   0 -7.0370 8.45953   3
  -5   3   0 11.2376 6.79899   1
   5  -3   0 8.94666 5.64552   3
   5  -3   0 1.35521 5.85223   9
   5  -3   0 0.44499 4.12920   5
   3   5   0 -3.4665 8.05549   8
   3   5   0 1.25599 4.06039   9
  -5   3   0 11.3493 4.39855   5
  -5   3   0 1.39883 5.54062   6
  -5   3   0 14.4823 6.68162   4
   5  -3   0 8.87120 5.68110   6
   5  -3   0 3.63117 4.82078   2
  -3  -5   0 1.27837 8.68383   6
  -5   3   0 0.80616 3.31516   8
  -3  -5   0 -1.8549 5.90246   5
  -3  -5   0 2.32119 7.48814   7
   3   5   0 -7.4031 7.44075   6
  -3  -5   0 6.03749 6.00259   2
  -3  -5   0 1.31317 4.64130   4
  -4  -5   0 331.422 22.8220   5
   4   5   0 316.270 20.0204   9
  -5   4   0 338.385 22.6076   4
   5  -4   0 313.762 21.5599   2
  -5   4   0 349.468 21.0939   8
  -4  -5   0 332.547 20.7581   4
   4   5   0 314.572 26.3452   3
  -5   4   0 346.782 23.4471   1
   5  -4   0 321.823 23.9932   9
  -5  -5   0 21.6792 7.15585   4
  -5   5   0 20.4035 11.0282   1
   5  -5   0 11.7012 7.35554   2
  -5  -5   0 17.1949 9.45293   5
   5   5   0 14.0349 13.1103   3
   5  -5   0 10.2581 9.71065   9
  -5   5   0 8.61737 7.10439   8
  -5   5   0 1.13238 10.3717   4
   5   5   0 9.34732 11.7869   8
   6   5   0 522.201 42.6757   3
  -6  -5   0 650.258 38.4100   5
  -5   6   0 633.830 40.1703   1
  -5   6   0 611.875 36.6110   8
   5  -6   0 564.374 38.4542   9
   5  -6   0 542.956 36.7653   2
  -6  -4   0 1821.08 92.9753   5
  -4   6   0 1844.75 93.2270   1
   6   4   0 1501.71 94.7476   3
   6   4   0 1510.00 90.4133   9
   4  -6   0 1527.67 91.5103   2
  -4   6   0 1826.89 92.4497   8
   4  -6   0 1711.81 92.3459   9
  -6  -4   0 1625.57 91.0978   4
  -3   6   0 1484.22 73.5791   8
  -6  -3   0 1313.73 72.0265   4
  -6  -3   0 1408.79 73.1982   5
   3  -6   0 1184.74 71.2473   5
   6   3   0 1166.34 73.7503   8
   3  -6   0 1284.48 72.2997   2
   6   3   0 1169.57 71.5495   9
   3  -6   0 1398.26 72.7570   9
  -3   6   0 1442.93 73.9456   1
   6   3   0 1252.01 74.9394   3
   2  -6   0 23.9979 6.44334   5
   6   2   0 25.3764 8.80484   3
   2  -6   0 13.8799 6.72538   2
  -2   6   0 21.3709 7.98714   8
  -6  -2   0 28.8096 6.39722   4
  -2   6   0 28.3571 10.2181   1
   6   2   0 24.2122 6.26233   9
   2  -6   0 16.1002 6.34522   9
  -6  -2   0 37.9738 7.56990   5
   1  -6   0 345.387 20.3538   9
  -6  -1   0 318.519 20.5210   6
   6   1   0 309.664 23.3234   3
  -1   6   0 332.708 21.9474   3
   6   1   0 314.152 18.9890   2
  -6  -1   0 354.269 21.4293   4
  -1   6   0 353.766 23.2971   8
   1  -6   0 338.065 21.2447   2
  -1   6   0 328.736 23.0871   1
  -6  -1   0 330.505 20.0307   1
   1  -6   0 329.318 20.4777   5
   6   1   0 316.631 21.0104   9
  -1   6   0 295.810 21.0866   4
  -6  -1   0 350.676 20.7908   5
  -1   6   0 337.924 22.5033   6
   0  -6   0 4569.62 238.767   2
   0   6   0 4816.79 240.671   8
   0  -6   0 4272.68 237.890   9
  -6   0   0 4655.97 238.361   1
   0   6   0 4383.13 239.300   6
  -6   0   0 4471.29 239.055   4
  -6   0   0 4301.78 238.363   6
   0  -6   0 5098.74 243.244   7
   0  -6   0 4351.22 238.571   5
   6   0   0 4482.15 239.601   3
   0   6   0 4506.56 238.901   1
   6   0   0 4102.67 237.409   2
  -6   0   0 4554.72 238.373   5
   6   0   0 5048.49 239.962   7
   0  -6   0 4293.02 237.629   4
   0   6   0 3949.17 239.407   3
   6   0   0 4509.38 239.332   9
  -1  -6   0 328.698 19.4247   4
  -1  -6   0 332.768 20.6830   2
  -6   1   0 340.040 19.8129   5
   6  -1   0 329.379 21.7677   3
  -6   1   0 303.868 20.5158   6
   1   6   0 292.896 22.5333   8
   6  -1   0 335.227 21.4698   9
   6  -1   0 295.481 18.9068   2
  -6   1   0 309.541 20.6052   1
  -1  -6   0 322.671 20.2984   5
   1   6   0 353.676 23.0197   6
  -6   1   0 342.093 21.2024   4
   1   6   0 337.468 23.1710   3
   6  -2   0 18.3959 5.21103   2
  -2  -6   0 24.0776 6.16983   5
  -6   2   0 27.8723 7.31622   4
   2   6   0 25.1831 9.76886   8
   2   6   0 30.8647 10.5285   3
  -2  -6   0 21.4330 5.65181   4
   6  -2   0 19.1753 7.49340   9
  -6   2   0 30.3486 7.72979   1
  -2  -6   0 36.8858 7.46954   2
  -3  -6   0 1357.27 72.3535   5
  -3  -6   0 1369.74 71.5764   2
  -6   3   0 1299.84 72.2970   4
  -6   3   0 1298.74 72.6336   1
  -3  -6   0 1298.24 70.9637   4
   3   6   0 1141.56 74.0067   3
   6  -3   0 1315.97 71.2062   2
   6  -3   0 1361.02 73.5648   9
   3   6   0 1302.28 74.1570   8
   6  -4   0 1646.36 88.1433   2
  -6   4   0 1555.29 88.5541   4
  -4  -6   0 1618.82 87.4007   4
   6  -4   0 1612.86 90.1686   9
  -6   4   0 1733.09 89.7872   1
   4   6   0 1394.33 90.2020   8
  -4  -6   0 1710.60 89.1252   5
   4   6   0 1616.99 91.9055   3
  -5  -6   0 616.891 36.5271   5
   5   6   0 633.565 43.1473   3
  -5  -6   0 562.080 34.9830   4
   6  -5   0 584.584 36.2475   2
  -6   5   0 559.294 38.5979   1
   6  -5   0 479.743 49.3665   9
   6  -6   0 676.727 44.5194   2
  -6   6   0 769.200 48.1697   1
   6  -6   0 677.837 46.4220   9
   6   6   0 659.241 51.5388   3
  -6  -6   0 801.973 45.2014   5
  -6  -6   0 726.396 43.6403   4
  -7  -6   0 43.9341 14.0771   4
  -6   7   0 -0.2237 17.8592   1
   6  -7   0 -3.2243 13.0395   2
  -7  -6   0 33.4657 15.4100   5
   7   6   0 25.8411 22.0255   3
   6  -7   0 27.9685 19.5280   9
  -5   7   0 10.4156 11.2116   8
  -5   7   0 57.5723 16.9874   1
   5  -7   0 45.9200 11.9771   2
   5  -7   0 8.76399 16.7848   9
  -7  -5   0 38.3248 11.1055   4
   7   5   0 34.0536 19.1386   3
   7   4   0 2.19986 15.6709   3
   4  -7   0 0.81826 8.56566   2
  -7  -4   0 5.22870 8.45655   4
  -7  -4   0 -3.4026 12.3525   5
   4  -7   0 33.1517 18.5038   9
   7   4   0 7.11577 10.2217   9
  -4   7   0 3.35534 9.50411   8
  -4   7   0 3.64218 14.2834   1
  -7  -3   0 23.5563 11.3510   5
   3  -7   0 23.2210 8.58086   2
   3  -7   0 17.9929 7.89908   5
  -3   7   0 11.6966 9.97938   8
   7   3   0 8.25608 8.10960   9
  -7  -3   0 18.0931 8.25232   4
   7   3   0 28.6352 19.6140   3
  -3   7   0 37.5603 13.5977   1
  -7  -2   0 410.377 26.3005   5
   7   2   0 362.601 29.7864   3
  -2   7   0 419.616 29.4853   1
   2  -7   0 354.456 24.0997   5
   7   2   0 395.009 25.3118   9
  -2   7   0 372.478 26.7522   8
   2  -7   0 379.949 25.1740   2
  -7  -2   0 374.278 25.0430   4
   1  -7   0 14.2405 6.72509   2
  -1   7   0 24.5055 9.32810   8
  -1   7   0 31.1034 11.2726   1
   1  -7   0 16.4533 6.43064   5
  -7  -1   0 11.3758 6.65557   4
  -7  -1   0 6.44195 6.14104   1
   7   1   0 22.3883 7.01289   9
  -7  -1   0 16.5139 8.24984   5
   7   1   0 9.45094 10.0007   3
  -7   0   0 930.265 52.8875   4
   7   0   0 998.539 53.2880   9
  -7   0   0 954.874 51.8552   1
   0   7   0 924.906 54.5752   8
   0   7   0 947.271 53.9326   1
   7   0   0 879.673 54.6273   3
   0  -7   0 926.812 51.9619   5
   0   7   0 815.468 53.0893   3
   0  -7   0 1006.88 52.4721   2
   7  -1   0 6.29525 9.62732   3
   7  -1   0 18.2522 5.84770   2
   1   7   0 10.1788 10.4073   8
  -7   1   0 21.9041 7.96053   4
   7  -1   0 13.8197 6.89057   9
   1   7   0 30.3183 11.4628   3
  -1  -7   0 18.2359 6.56271   5
  -1  -7   0 26.0372 7.40922   2
  -7   1   0 16.2284 7.59376   1
   2   7   0 347.819 27.1581   8
   7  -2   0 355.330 25.5733   9
   7  -2   0 320.087 22.3000   2
  -2  -7   0 399.259 24.0243   2
  -7   2   0 360.686 25.1135   1
  -7   2   0 356.448 25.6319   4
  -2  -7   0 379.516 23.6018   5
   2   7   0 412.913 29.2071   3
   3   7   0 24.4826 14.7631   8
  -7   3   0 47.2727 11.0746   4
  -3  -7   0 27.3378 7.76861   5
  -3  -7   0 19.4959 8.32756   2
   3   7   0 31.9076 14.6611   3
   7  -3   0 18.0965 9.46779   9
   7  -3   0 24.7780 7.17158   2
  -4  -7   0 10.4130 8.45595   5
   7  -4   0 -6.0498 10.3471   9
   4   7   0 5.56930 16.3549   3
   4   7   0 -21.771 12.8781   8
  -7   4   0 18.7303 12.7323   1
   7  -4   0 -4.1371 9.03964   2
  -7   4   0 15.5301 12.7093   4
   5   7   0 -12.516 16.2581   8
   7  -5   0 8.50179 10.2842   2
   5   7   0 18.4229 19.5031   3
  -5  -7   0 28.2162 10.5198   5
   7  -5   0 0.83812 13.0558   9
  -7   5   0 4.69902 14.1435   1
  -6  -7   0 40.1543 13.5262   5
   7  -6   0 21.2735 15.2335   9
   6   7   0 28.6528 23.4607   3
   7  -6   0 19.1607 12.6396   2
  -7   6   0 16.9092 18.0889   1
   8   4   0 691.968 54.5695   3
  -4   8   0 775.856 51.7606   1
  -8  -4   0 871.733 51.6235   5
  -4   8   0 763.780 48.2417   8
   4  -8   0 822.808 47.5075   2
  -8  -4   0 793.020 47.4540   4
   8   3   0 151.460 19.0130   9
  -3   8   0 234.546 26.1439   1
  -8  -3   0 187.411 17.9797   4
   3  -8   0 208.638 18.9615   2
  -3   8   0 167.401 18.5273   8
   8   3   0 166.858 29.0129   3
  -8  -3   0 229.340 29.8353   5
  -2   8   0 964.280 58.1813   1
   2  -8   0 947.304 53.5936   5
  -2   8   0 936.364 56.2758   8
  -8  -2   0 938.062 54.8385   4
   8   2   0 885.704 59.5870   3
   2  -8   0 1008.35 54.7451   2
   8   2   0 961.627 55.1065   9
   8   1   0 45.1517 10.4444   9
   1  -8   0 67.3886 9.52326   5
   8   1   0 50.3085 15.1583   3
  -1   8   0 29.7161 16.9736   1
  -1   8   0 38.7914 11.7212   8
  -8  -1   0 56.8162 10.3307   4
   1  -8   0 57.0610 10.2550   2
  -8   0   0 262.529 19.9234   1
  -8   0   0 241.871 20.7286   4
   0  -8   0 275.592 19.4645   5
   0   8   0 215.020 22.4087   8
   8   0   0 222.893 26.7469   3
   0  -8   0 288.113 20.5838   2
   8   0   0 280.288 20.8104   9
  -1  -8   0 66.4404 10.4917   2
  -1  -8   0 65.9425 9.73247   5
   1   8   0 56.7971 12.8354   8
  -8   1   0 46.6792 9.58420   1
  -8   1   0 58.4391 12.0541   4
   8  -1   0 48.5979 10.8916   9
  -2  -8   0 991.397 54.6947   5
   2   8   0 816.411 57.9781   8
  -8   2   0 958.540 55.7544   1
   8  -2   0 977.607 56.7567   9
  -2  -8   0 1056.08 54.8393   2
  -8   2   0 951.619 56.3025   4
   2   8   0 927.341 58.6786   3
   3   8   0 154.171 24.3493   8
   3   8   0 211.007 28.0641   3
  -8   3   0 182.547 22.9554   4
  -8   3   0 156.119 22.3934   1
  -3  -8   0 176.727 16.9937   5
   8  -3   0 162.063 20.9106   9
   4   8   0 698.307 52.3948   3
   8  -4   0 666.676 47.4842   9
  -8   4   0 693.043 48.4560   4
  -4  -8   0 827.683 44.6717   5
  -8   4   0 730.778 47.7346   1
   9   2   0 30.7474 14.3341   9
   2  -9   0 55.6765 12.4135   2
   9   2   0 58.8356 22.8884   3
  -9  -2   0 61.4875 13.2784   4
   1  -9   0 33.2575 11.1858   2
  -9  -1   0 18.5975 12.0626   4
   9   1   0 23.7188 12.6686   9
  -1   9   0 2.64079 13.7992   8
   1  -9   0 26.2318 10.5238   5
   9   1   0 59.7122 21.9563   3
   0  -9   0 96.1184 13.7093   2
   0  -9   0 112.775 15.5751   5
   0   9   0 65.9191 14.4752   8
  -9   0   0 87.4430 14.1965   4
   9   0   0 88.2777 14.2032   9
  -1  -9   0 36.2392 12.2529   2
  -9   1   0 35.2242 11.8496   1
  -9   1   0 13.9982 12.5504   4
   1   9   0 18.0481 14.6996   8
   9  -1   0 42.4672 12.4579   9
  -1  -9   0 31.0861 11.0877   5
   2   9   0 30.2848 16.6295   8
   9  -2   0 45.2127 13.7251   9
  -9   2   0 8.99012 14.5629   4
  -2  -9   0 67.3159 11.7765   5
  -9   2   0 40.7861 12.9850   1
   0   1  -1 0.64361 1.78552   3
  -1   0  -1 3.48725 1.20284   4
   1   0  -1 2.79776 0.79906   5
   1   0  -1 -0.2789 0.82626   2
   0   1  -1 1.41210 1.11837   7
   0  -1  -1 3.03591 0.98455   7
  -1   0  -1 1.12666 1.09242   5
   1   0  -1 0.39467 0.82122   7
   0  -1  -1 0.84394 1.44621   4
  -1   0  -1 2.84223 0.68476   7
   0   1  -1 4.68390 1.27615   7
  -1   0  -1 4.42500 0.90912   7
   0   1  -1 -0.0970 1.35947   8
  -1   0  -1 1.45561 1.12336   1
   0  -1  -1 3.15426 1.44027   5
   1   0  -1 1.07021 1.11277   9
   0  -1  -1 1.80796 1.09742   2
   0   1   1 1.98201 0.86094   3
   1   0   1 2.77098 0.82874   7
  -1   0   1 1.03418 0.77152   5
   0  -1   1 0.65457 1.01521   5
   1   0   1 0.93251 0.66893   5
  -1   0   1 1.82362 0.75667   6
   1   0   1 2.70844 0.88795   6
   1   0   1 -0.5328 1.02207   9
   0  -1   1 -0.2055 0.86973   7
   1   0   1 1.58890 1.03521   3
   0   1   1 0.58896 1.11505   6
   1   0   1 2.63542 0.91901   6
   0  -1   1 1.44109 1.20536   6
   0   1   1 1.47910 0.78510   7
   0  -1   1 1.62182 1.21535   2
   1  -1  -1 0.33295 1.00949   7
   1  -1  -1 -1.0167 1.25923   2
  -1   1  -1 1.60650 1.15194   3
  -1   1  -1 4.08217 1.17256   8
   1   1  -1 0.00483 2.28295   3
   1   1  -1 1.75920 0.99468   9
   1  -1  -1 2.33981 1.09065   5
   1   1  -1 0.17641 1.59132   8
  -1   1  -1 3.05070 1.21118   7
  -1  -1  -1 -0.4959 0.92190   7
   1   1  -1 -1.1683 1.43332   7
   1  -1  -1 0.37817 1.29690   7
  -1  -1  -1 0.39160 1.11126   1
   1   1  -1 0.97943 1.11830   6
   1  -1  -1 0.81083 1.49000   4
   1  -1  -1 2.40606 1.08061   6
  -1   1  -1 2.12474 1.07091   6
  -1  -1  -1 1.80017 1.50257   4
  -1  -1  -1 3.64890 1.24958   6
  -1   1  -1 1.70803 1.53887   4
  -1   1  -1 1.91965 1.83212   1
   1   1  -1 0.46326 0.93840   2
  -1  -1  -1 -0.9292 2.02136   5
   1  -1  -1 0.91862 1.37181   9
   1   1   1 3.16228 1.18322   6
  -1  -1   1 2.08953 1.07813   2
   1   1   1 0.46087 1.06453   8
  -1  -1   1 2.21459 0.99659   6
  -1   1   1 1.08428 1.25809   6
  -1  -1   1 0.55701 1.09798   6
   1  -1   1 1.48591 1.49439   9
  -1  -1   1 1.76799 1.23114   5
   1   1   1 1.08922 1.40889   3
  -1  -1   1 1.28790 1.20862   4
   1  -1   1 0.47561 1.02706   6
  -1   1   1 -0.6449 1.99552   1
  -1   1   1 1.82689 1.14463   6
  -1   1   1 -2.4913 1.25670   8
  -1  -1   1 -0.3025 1.13605   7
   1  -1   1 3.63972 1.79934   2
   1  -1   1 0.80440 1.06441   7
  -1   1   1 0.98303 1.00334   7
   1  -1   1 3.61938 1.32157   6
   1   1   1 1.07409 1.01437   6
   1   1   1 -0.1174 1.37145   7
   2   1  -1 3438.32 176.525   6
  -2  -1  -1 3652.00 176.636   7
   1  -2  -1 3471.95 176.707   6
   2   1  -1 2846.82 176.533   9
   1  -2  -1 3327.99 176.655   4
  -2  -1  -1 3544.43 176.714   4
   1  -2  -1 3142.31 176.834   7
  -1   2  -1 3321.32 176.712   7
   2   1  -1 3305.56 176.471   7
  -1   2  -1 3230.80 176.711   3
   2   1  -1 3315.76 176.253   2
  -2  -1  -1 3704.35 176.655   8
  -2  -1  -1 3743.62 176.438   1
   1  -2  -1 3300.23 176.678   2
  -1   2  -1 3038.26 176.675   1
   2   1  -1 3192.52 176.515   8
  -1   2  -1 3417.37 176.978   8
   1  -2  -1 3523.47 176.640   5
   2   1   1 3112.42 176.744   9
   1  -2   1 2988.97 176.644   7
  -1   2   1 3000.75 176.540   4
  -1   2   1 2917.54 176.772   1
  -2  -1   1 3305.06 176.586   4
  -1   2   1 3270.79 176.843   6
  -2  -1   1 3410.77 176.462   6
   1  -2   1 3374.56 176.927   9
   2   1   1 3578.89 176.624   8
   2   1   1 3246.62 176.945   3
  -2  -1   1 3601.11 176.682   5
   2   1   1 3398.27 176.486   6
   1  -2   1 3353.80 176.826   2
  -1   2   1 3795.31 176.805   7
   2   1   1 3136.55 176.567   7
   1  -2   1 3403.16 176.810   6
   1  -2   1 3379.65 176.462   5
  -1   2   1 3399.93 177.034   8
   0   2  -1 -0.6419 2.34628   9
   2   0  -1 1.79605 1.14564   5
   0   2  -1 0.33647 2.59866   6
  -2   0  -1 -0.0874 1.68159   4
   0  -2  -1 -0.5393 1.85545   2
   0  -2  -1 -0.9696 1.61743   7
   0  -2  -1 -0.9523 1.89204   4
  -2   0  -1 0.44006 1.48566   6
  -2   0  -1 0.94659 1.14520   7
   0   2  -1 6.46363 2.80682   3
   2   0  -1 0.31060 1.18593   7
  -2   0  -1 -0.3161 1.30680   5
  -2   0  -1 -0.1920 1.56277   1
   2   0  -1 2.47171 2.02544   3
   2   0  -1 0.60798 1.50924   6
   0  -2  -1 3.70531 2.14929   5
   0  -2  -1 -0.6934 1.74632   6
   2   0  -1 0.87249 1.15896   2
   0   2  -1 -0.7686 2.17053   8
   2   0   1 -1.3709 1.29701   3
  -2   0   1 0.63875 1.49387   1
   0   2   1 0.39346 2.17487   6
   0  -2   1 1.31762 2.07723   7
  -2   0   1 0.97186 1.11707   5
   2   0   1 3.06046 1.44080   9
  -2   0   1 5.08474 2.04237   4
   0  -2   1 -0.9062 2.79351   9
   0  -2   1 0.83307 1.92984   5
  -2   0   1 0.95414 1.19418   7
   2   0   1 1.02430 1.11860   2
   0   2   1 0.93637 1.73811   7
   2   0   1 0.47430 1.73849   7
   0  -2   1 -0.9595 2.10140   2
   0   2   1 0.26890 1.61663   8
   0   2   1 2.93673 2.08880   3
   0   2   1 1.65223 2.14087   1
  -1  -2  -1 3602.77 181.795   5
   2  -1  -1 3285.20 181.643   9
   2  -1  -1 3619.77 181.384   6
  -2   1  -1 3483.09 181.393   4
  -2   1  -1 3518.42 181.396   7
  -2   1  -1 3246.32 181.455   1
  -1  -2  -1 3762.12 181.675   6
  -1  -2  -1 3274.27 181.312   7
   1   2  -1 3250.32 181.242   9
   2  -1  -1 3384.91 181.346   2
  -1  -2  -1 3272.19 181.182   1
  -1  -2  -1 3575.35 181.382   4
  -2   1  -1 3675.56 181.378   8
   2  -1  -1 3452.77 181.434   7
   1   2  -1 3382.21 181.316   7
   1   2  -1 3205.94 181.850   6
   2  -1  -1 3410.61 181.150   5
  -2   1  -1 3266.61 181.328   3
  -2   1   1 3248.34 181.363   4
   2  -1   1 3378.34 181.230   2
  -2   1   1 2931.37 181.373   1
  -2   1   1 3467.08 181.357   6
   2  -1   1 3192.03 181.644   9
  -1  -2   1 3419.20 181.323   6
   2  -1   1 3179.52 181.311   7
   2  -1   1 3516.67 181.404   6
   1   2   1 3465.51 181.714   3
   2  -1   1 3487.67 181.450   3
  -2   1   1 3597.78 181.104   8
   1   2   1 3681.10 181.744   8
  -1  -2   1 3750.21 181.147   4
  -2   1   1 3487.61 181.382   7
  -1  -2   1 3578.58 181.310   2
   1   2   1 3355.24 181.335   6
  -1  -2   1 3629.11 181.623   5
  -2   2  -1 1269.78 69.9895   7
   2   2  -1 1293.58 69.7836   9
  -2  -2  -1 1378.48 70.5277   5
  -2  -2  -1 1286.28 69.8376   6
   2  -2  -1 1299.54 70.2072   7
  -2   2  -1 1215.84 69.9000   6
  -2   2  -1 1296.50 69.8356   3
  -2  -2  -1 1354.18 69.6450   1
   2  -2  -1 1279.04 70.2812   9
  -2   2  -1 1202.92 70.1350   1
   2   2  -1 1373.57 69.6537   2
  -2  -2  -1 1319.17 69.9176   7
   2  -2  -1 1356.50 70.0393   6
  -2  -2  -1 1259.91 69.6015   2
   2   2  -1 1365.56 69.8713   7
  -2  -2  -1 1410.96 70.0248   4
   2  -2  -1 1365.33 69.4569   3
   2  -2  -1 1273.40 69.7517   5
   2  -2  -1 1358.78 70.0196   2
  -2   2  -1 1341.90 69.7984   4
  -2   2  -1 1344.69 70.0917   8
  -2  -2   1 1349.18 70.1900   5
   2  -2   1 1258.53 70.0019   2
  -2  -2   1 1334.20 69.8149   6
   2   2   1 1139.98 70.3558   3
  -2   2   1 1305.21 69.8563   7
  -2  -2   1 1397.21 69.6515   2
   2   2   1 1279.70 69.7741   6
   2  -2   1 1351.20 70.1055   6
   2  -2   1 1262.23 69.4899   5
  -2   2   1 1344.18 70.0790   8
  -2  -2   1 1344.19 70.0216   7
   2  -2   1 1326.06 70.0297   7
   2   2   1 1394.08 69.9698   7
  -2  -2   1 1435.57 69.8703   4
  -2   2   1 1268.42 69.8798   4
  -2   2   1 1166.04 70.1785   1
   2   2   1 1250.43 70.1179   8
  -2   2   1 1218.41 69.9678   6
   2  -2   1 1335.07 70.4436   9
  -2   3  -1 699.748 38.9497   4
  -2   3  -1 700.754 39.6292   8
   2  -3  -1 749.933 39.6015   2
   3   2  -1 740.481 38.8161   2
   3   2  -1 716.570 39.6402   8
  -3  -2  -1 765.684 39.4742   4
   2  -3  -1 725.315 39.7878   7
   3   2  -1 719.346 39.1293   6
  -2   3  -1 725.100 39.2479   3
   3   2  -1 649.946 39.1156   9
  -3  -2  -1 721.216 39.1832   6
   2  -3  -1 717.692 39.4733   6
  -2   3  -1 735.613 40.1964   6
  -3  -2  -1 741.008 39.8911   5
   2  -3  -1 723.148 39.7612   9
   3   2  -1 711.693 39.1263   7
   2  -3  -1 720.538 39.2127   5
  -2   3  -1 673.624 39.6926   1
   3   2  -1 600.605 40.3904   3
  -3  -2  -1 769.821 38.9374   1
  -3  -2  -1 773.052 39.3224   7
  -2   3  -1 765.396 39.5964   7
  -3  -2  -1 764.663 38.8094   2
   2  -3   1 708.981 39.6144   2
  -2   3   1 712.013 39.6206   6
  -3  -2   1 720.564 39.3038   7
   2  -3   1 685.916 38.9524   5
  -3  -2   1 699.350 39.4957   5
  -3  -2   1 737.655 39.7575   4
   3   2   1 705.397 39.3950   8
   3   2   1 755.047 40.3239   3
  -3  -2   1 725.677 39.1662   6
  -2   3   1 733.061 39.2997   7
  -2   3   1 751.058 38.6441   3
   3   2   1 670.681 38.9611   9
   2  -3   1 765.676 39.7614   6
  -2   3   1 694.740 39.2306   4
   3   2   1 731.529 39.1820   6
  -2   3   1 759.335 39.9246   8
   3   2   1 790.205 39.7224   7
  -3  -2   1 738.751 38.7993   2
  -2   3   1 629.776 39.7156   1
  -1   3  -1 731.719 39.5033   8
  -3  -1  -1 739.682 38.6305   8
   1  -3  -1 777.225 38.9968   5
   1  -3  -1 675.535 38.7561   4
   3   1  -1 755.369 38.2858   2
   3   1  -1 811.656 40.0828   3
   3   1  -1 733.390 38.6203   6
  -1   3  -1 685.715 39.1395   6
  -3  -1  -1 701.383 38.5794   6
  -3  -1  -1 730.444 39.0024   4
  -3  -1  -1 729.417 38.9661   5
   1  -3  -1 721.566 38.8608   9
  -1   3  -1 646.349 39.0715   3
   1  -3  -1 616.517 38.9852   7
   3   1  -1 721.770 38.6313   7
  -3  -1  -1 696.350 38.6835   7
  -1   3  -1 715.561 38.9673   7
  -1   3  -1 650.848 39.0155   1
   1  -3  -1 701.753 39.0593   2
   1  -3  -1 700.701 39.0000   6
   3   1  -1 721.012 38.8977   9
   3   1   1 709.611 38.6582   8
  -3  -1   1 780.592 38.7912   7
   1  -3   1 672.273 39.0208   7
  -1   3   1 668.585 39.1361   1
   1  -3   1 713.617 38.7249   5
   3   1   1 742.227 38.6842   7
   3   1   1 667.275 38.7778   9
   3   1   1 732.175 38.6462   6
  -3  -1   1 734.232 38.8583   4
   1  -3   1 749.978 39.1007   9
  -3  -1   1 734.781 38.7820   5
  -3  -1   1 743.576 38.6409   6
  -1   3   1 746.184 39.4763   8
   1  -3   1 700.139 39.1099   6
  -1   3   1 640.262 38.6369   3
   1  -3   1 737.639 39.1723   2
  -1   3   1 710.641 38.8597   7
  -1   3   1 744.050 39.4744   6
  -3   0  -1 1.48740 1.95404   5
  -3   0  -1 1.57848 1.25578   8
  -3   0  -1 1.81130 2.38284   4
   0   3  -1 4.62652 3.42569   3
   0  -3  -1 6.93446 2.48115   5
   0  -3  -1 -1.3550 2.59292   2
   3   0  -1 -1.3393 1.81879   6
   3   0  -1 -1.0551 1.45940   2
   0   3  -1 -1.8842 2.10492   9
   0   3  -1 2.54369 2.83206   8
   3   0  -1 0.98895 1.98323   9
   0   3  -1 5.21239 3.66006   6
   3   0  -1 2.45487 2.89747   3
   0  -3  -1 -1.6439 2.25358   4
   0  -3  -1 -1.5527 1.98676   7
   0   3  -1 -1.5894 3.43748   1
   0   3  -1 -2.1504 2.76353   7
   0  -3  -1 -0.5496 2.24295   6
  -3   0  -1 1.94639 1.98213   1
  -3   0  -1 4.49340 2.09869   6
  -3   0  -1 1.78951 1.62043   7
   3   0   1 0.58372 2.08128   7
   3   0   1 1.99299 1.85348   6
   0  -3   1 3.58333 1.99510   4
  -3   0   1 -2.0972 1.48523   7
  -3   0   1 2.01774 1.66694   5
   0   3   1 -2.6043 2.30992   7
  -3   0   1 -2.0246 1.59964   6
   0   3   1 3.09654 3.40831   1
   0  -3   1 1.22543 2.09919   9
   3   0   1 0.01664 1.84522   3
   0   3   1 -2.2000 2.84042   3
  -3   0   1 -0.8111 2.18720   4
   0   3   1 2.02992 2.72030   6
   0  -3   1 0.02557 2.30155   7
   0  -3   1 -1.8239 2.24451   5
   0   3   1 3.35751 2.66558   8
   0  -3   1 4.72028 2.74725   2
   0  -3   1 -3.9250 2.03676   6
   3   0   1 3.99426 1.76749   9
  -3   0   1 2.04747 1.95771   1
   1   3  -1 656.329 40.4539   3
  -3   1  -1 705.334 39.6939   1
  -3   1  -1 701.110 38.9248   5
   3  -1  -1 699.242 39.1471   5
  -1  -3  -1 729.111 40.0073   5
   3  -1  -1 837.762 39.7113   3
   1   3  -1 749.931 39.3722   9
   1   3  -1 780.097 40.4713   8
   1   3  -1 806.720 39.7141   7
  -1  -3  -1 740.006 39.8386   2
  -1  -3  -1 725.681 39.4930   1
   3  -1  -1 774.746 40.0473   9
  -3   1  -1 818.150 39.4091   8
  -3   1  -1 736.576 39.7234   4
  -3   1  -1 725.837 39.5794   7
  -3   1  -1 707.244 39.4546   6
  -1  -3  -1 796.201 39.5497   4
   3  -1  -1 803.015 39.4668   2
   3  -1  -1 750.451 39.5810   7
   1   3  -1 733.533 39.9108   6
  -1  -3  -1 618.712 39.5012   7
   3  -1  -1 744.827 39.5378   6
   3  -1   1 674.319 39.9464   9
   1   3   1 740.439 39.6612   6
   1   3   1 762.290 39.8330   7
   1   3   1 641.467 40.0141   3
  -3   1   1 660.588 39.5622   1
  -1  -3   1 710.033 39.6615   6
  -3   1   1 722.459 39.2281   5
   3  -1   1 756.904 39.5793   6
   1   3   1 757.317 39.4922   1
  -1  -3   1 737.541 39.9702   5
   3  -1   1 720.903 39.2556   2
   1   3   1 620.831 39.9208   8
   3  -1   1 722.791 39.5041   7
  -1  -3   1 798.416 39.7739   2
  -1  -3   1 640.854 39.0706   4
   3  -1   1 667.122 39.5015   3
  -1  -3   1 763.279 39.9280   7
  -3   1   1 726.317 39.6393   4
  -3   1   1 747.321 39.4594   7
  -3   1   1 744.617 39.5688   6
   3  -2  -1 698.769 39.7115   5
  -2  -3  -1 742.356 40.1972   6
  -2  -3  -1 667.079 40.6905   4
  -2  -3  -1 726.227 39.8008   1
   2   3  -1 688.092 39.7638   9
   3  -2  -1 767.425 40.1314   2
   3  -2  -1 741.096 40.6989   9
  -2  -3  -1 767.262 40.1969   2
  -3   2  -1 729.588 40.2686   4
   2   3  -1 752.684 40.1209   7
   3  -2  -1 770.329 40.4222   7
  -3   2  -1 661.105 40.3879   1
  -2  -3  -1 731.903 40.8004   5
   2   3  -1 721.796 40.1721   6
  -3   2  -1 740.621 40.1532   7
  -3   2  -1 763.549 40.1107   8
   3  -2  -1 749.135 40.1771   6
  -2  -3  -1 748.513 40.1897   7
   2   3  -1 751.651 41.1458   8
  -3   2  -1 769.082 40.7825   6
   2   3   1 654.327 40.8215   3
   3  -2   1 697.189 40.6253   9
  -3   2   1 750.037 40.0708   7
   3  -2   1 741.714 40.1399   3
  -2  -3   1 774.527 39.8941   4
  -3   2   1 767.240 39.8586   8
  -2  -3   1 747.488 40.6185   5
   2   3   1 743.202 40.1505   6
  -2  -3   1 749.492 40.1339   6
  -3   2   1 676.517 40.4110   1
  -2  -3   1 783.049 40.0422   2
   2   3   1 788.617 40.3335   7
   3  -2   1 740.285 40.2313   6
   3  -2   1 736.356 40.0666   2
  -2  -3   1 718.305 40.3114   7
   2   3   1 807.659 40.8332   8
  -3   2   1 732.027 40.2039   6
  -3  -3  -1 42.4190 6.51490   5
  -3  -3  -1 42.4032 6.06520   6
   3  -3  -1 49.6373 7.20774   5
  -3   3  -1 49.3024 5.95164   6
  -3   3  -1 51.0219 5.17990   8
  -3   3  -1 43.1148 5.25820   7
   3   3  -1 24.7879 8.18256   8
  -3  -3  -1 36.6602 4.99345   7
   3   3  -1 36.3441 6.09067   6
  -3   3  -1 50.2565 7.06323   1
   3   3  -1 42.7006 5.43061   7
   3  -3  -1 32.0444 5.02652   2
   3   3  -1 29.6145 6.95074   3
  -3   3   1 45.9979 5.37384   8
   3   3   1 47.2199 5.50983   6
   3   3   1 47.1985 4.03614   9
  -3  -3   1 38.0755 5.61253   6
   3  -3   1 34.2034 6.34623   7
  -3   3   1 58.5909 6.93173   4
   3  -3   1 45.2032 5.87361   6
  -3   3   1 48.4335 7.13089   1
   3   3   1 42.7814 6.66457   7
   3  -3   1 45.7764 5.37940   3
  -3   3   1 46.4211 5.67186   6
   3  -3   1 43.3275 5.53022   9
   3  -3   1 38.4409 4.38625   5
   4   3  -1 292.467 17.2670   6
  -3   4  -1 285.124 17.4867   4
  -4  -3  -1 252.769 17.1659   6
   4   3  -1 281.698 16.9257   7
   3  -4  -1 278.434 17.8360   7
   4   3  -1 282.231 16.4480   9
   3  -4  -1 282.187 17.8163   2
   4   3  -1 224.355 20.3045   3
  -3   4  -1 257.590 17.4692   6
  -3   4  -1 268.153 16.9391   7
  -3   4  -1 268.165 18.8027   1
   3  -4  -1 262.429 16.4889   5
   3  -4  -1 287.256 17.6282   6
   3  -4  -1 284.960 18.0449   9
  -4  -3  -1 273.906 16.7333   7
  -4  -3  -1 284.963 17.1415   4
  -4  -3  -1 274.830 16.5587   2
   4   3  -1 288.837 18.5433   8
  -3   4   1 298.993 16.9612   7
  -4  -3   1 283.031 17.7670   5
  -4  -3   1 277.203 17.2306   7
  -4  -3   1 276.191 16.9681   6
   4   3   1 290.356 17.3789   8
   3  -4   1 277.700 16.4112   5
   4   3   1 285.432 16.9519   6
  -3   4   1 288.278 17.7072   4
   4   3   1 241.859 15.9643   9
   3  -4   1 266.313 17.7457   2
  -4  -3   1 280.801 16.3038   2
   3  -4   1 256.882 17.7827   7
   4   3   1 261.797 19.3371   3
   4   3   1 294.465 17.5199   7
  -3   4   1 295.252 17.6500   6
   3  -4   1 235.226 21.0888   6
  -3   4   1 271.207 18.5409   1
   4   2  -1 1335.74 70.0048   6
   2  -4  -1 1355.26 70.1293   5
  -2   4  -1 1309.55 70.3751   7
   2  -4  -1 1308.12 70.5054   6
  -2   4  -1 1247.68 70.3978   6
   4   2  -1 1202.15 71.7514   3
  -4  -2  -1 1287.81 70.6903   5
  -2   4  -1 1319.80 69.6217   4
  -4  -2  -1 1386.42 69.6132   1
   2  -4  -1 1283.80 70.4946   2
  -2   4  -1 1349.82 70.1513   3
   4   2  -1 1235.76 70.1384   8
  -4  -2  -1 1234.20 70.1974   4
  -2   4  -1 1430.09 71.0407   8
  -4  -2  -1 1325.51 69.9334   6
   4   2  -1 1329.30 69.4697   2
   4   2  -1 1192.12 69.9870   9
   2  -4  -1 1177.27 70.5174   7
  -2   4  -1 1225.66 70.6075   1
  -2   4   1 1413.19 71.4194   6
   4   2   1 1248.86 70.0672   8
   2  -4   1 1347.43 70.4808   2
  -4  -2   1 1350.44 70.1365   7
  -4  -2   1 1327.94 70.3563   5
   4   2   1 1351.21 70.0585   7
   2  -4   1 1326.93 70.6019   9
  -2   4   1 1151.08 71.5957   7
   4   2   1 1308.85 69.9173   6
  -4  -2   1 1355.90 69.3798   2
  -4  -2   1 1321.74 70.1210   4
   4   2   1 1260.52 71.0861   3
  -2   4   1 1286.26 70.6599   1
   2  -4   1 1189.11 69.7394   5
  -4  -2   1 1343.96 69.9667   6
   2  -4   1 1267.41 70.4633   7
  -2   4   1 1371.87 71.0535   8
   2  -4   1 1338.72 70.6186   6
  -2   4   1 1315.62 69.3803   3
  -4  -1  -1 1787.54 93.4183   4
  -1   4  -1 1644.70 93.4564   1
   4   1  -1 1652.67 93.3228   9
  -4  -1  -1 1754.15 92.9295   6
  -1   4  -1 1751.68 93.3438   7
   1  -4  -1 1747.47 93.6038   7
   1  -4  -1 1696.23 93.0965   9
  -4  -1  -1 1843.31 93.1515   7
  -1   4  -1 1721.10 93.6855   6
   1  -4  -1 1690.32 92.9340   4
  -4  -1  -1 1825.33 92.8444   1
   4   1  -1 1593.34 92.3726   2
   1  -4  -1 1630.39 93.3716   2
  -4  -1  -1 1794.98 93.3063   5
   1  -4  -1 1754.90 93.3120   5
   4   1  -1 1522.80 94.0635   3
  -1   4  -1 1666.51 94.0499   8
   4   1  -1 1830.65 93.0850   7
  -4  -1   1 1732.01 93.1980   4
   1  -4   1 1853.00 93.4885   2
   4   1   1 1794.94 92.9042   8
   4   1   1 1801.49 93.0136   6
   1  -4   1 1505.87 93.2954   7
  -1   4   1 1930.82 93.2449   3
   4   1   1 1624.17 92.1337   2
   1  -4   1 1756.25 93.1211   5
  -1   4   1 1822.58 93.8568   6
  -4  -1   1 1817.22 93.1320   5
  -1   4   1 1935.30 94.2196   8
  -4  -1   1 1778.22 92.9648   6
   1  -4   1 1680.45 93.4707   6
   4   1   1 1745.56 92.9944   7
  -1   4   1 1714.27 93.5399   1
   4   1   1 1766.80 93.7762   3
   4   1   1 1780.69 93.3330   9
   4   0  -1 5.44129 2.57953   7
   0   4  -1 -2.7431 4.76477   6
   0  -4  -1 6.20425 3.07582   5
   0  -4  -1 -0.1698 3.43290   2
  -4   0  -1 -0.0155 1.60221   8
   4   0  -1 1.78616 4.80183   3
  -4   0  -1 1.93074 2.94975   4
  -4   0  -1 0.25006 2.87777   5
  -4   0  -1 5.98240 2.70565   6
  -4   0  -1 -1.0054 1.88016   7
   0   4  -1 -0.2868 4.64892   3
   0   4  -1 -1.9245 3.74161   8
   0  -4  -1 0.35683 2.64378   4
   4   0  -1 2.96888 1.94913   2
   4   0  -1 1.51547 2.79507   6
   0  -4  -1 -0.8978 2.75569   7
   0  -4  -1 -0.9162 3.38037   6
   0   4  -1 -3.6337 4.97756   1
  -4   0  -1 2.61239 2.84242   1
   0   4   1 3.03032 3.32829   8
   0   4   1 4.92607 4.62379   1
   0  -4   1 2.08361 2.60400   4
  -4   0   1 4.74261 3.09580   4
   4   0   1 1.88647 1.84172   2
   0   4   1 2.05278 4.46034   3
  -4   0   1 1.59127 2.25125   7
   0  -4   1 3.38405 2.89146   9
   0  -4   1 4.73786 3.11409   5
  -4   0   1 1.47187 2.45939   5
   0  -4   1 0.37899 3.06053   2
   4   0   1 -1.3238 2.92410   7
   0  -4   1 -3.8190 2.49085   6
   4   0   1 1.82592 2.43147   9
  -4   0   1 -0.2207 2.43571   6
  -4   0   1 1.19112 2.92029   1
   0   4   1 -2.0385 4.08604   6
   0   4   1 0.00129 4.20169   7
   0  -4   1 1.30408 2.88414   7
   4   0   1 0.99652 2.38769   6
  -4   1  -1 1713.47 95.3136   6
  -4   1  -1 1809.87 94.8338   5
   4  -1  -1 1790.70 95.6921   7
   1   4  -1 1921.48 96.6971   8
   4  -1  -1 1830.06 96.0576   9
   1   4  -1 1678.57 95.1663   9
  -1  -4  -1 1764.76 95.7575   7
  -4   1  -1 1804.96 95.5815   1
  -1  -4  -1 1967.70 95.7496   2
   1   4  -1 1827.01 95.6468   7
  -4   1  -1 1821.07 95.6812   4
  -1  -4  -1 1806.25 95.8025   5
   1   4  -1 1821.29 95.9996   6
  -4   1  -1 1800.09 95.4877   7
  -4   1  -1 1889.94 95.1465   8
   4  -1  -1 1750.68 95.0611   5
   4  -1  -1 1717.92 95.0940   2
   4  -1  -1 1928.41 95.7738   3
   4  -1   1 1812.63 95.5061   6
   4  -1   1 1830.91 95.0556   2
   4  -1   1 1777.84 96.0475   9
  -4   1   1 1748.31 95.6788   4
   1   4   1 1864.91 96.6361   8
   1   4   1 1707.78 96.1918   3
  -4   1   1 1755.34 95.0110   5
   4  -1   1 1745.34 95.6457   3
  -1  -4   1 1782.70 95.7611   7
   1   4   1 1815.60 95.8083   6
  -1  -4   1 1703.69 95.6314   2
  -1  -4   1 1751.28 94.8827   4
  -1  -4   1 1641.80 95.7777   5
  -4   1   1 1751.44 95.3888   6
  -4   1   1 1558.42 95.3078   1
   4  -1   1 1832.20 95.4485   7
   4  -2  -1 1409.77 71.0903   6
  -4   2  -1 1235.01 71.0043   1
  -2  -4  -1 1319.18 71.0584   6
  -4   2  -1 1253.86 70.6965   6
   2   4  -1 1312.20 71.0866   6
   4  -2  -1 1279.41 70.9567   7
  -2  -4  -1 1383.09 70.6492   4
   4  -2  -1 1284.99 70.6401   3
  -4   2  -1 1236.52 69.8591   5
  -2  -4  -1 1255.98 71.2462   5
  -4   2  -1 1348.42 71.1059   4
   2   4  -1 1293.06 70.4323   9
   4  -2  -1 1320.74 70.6750   2
  -4   2  -1 1444.06 70.7003   8
   4  -2  -1 1271.10 71.3209   9
  -2  -4  -1 1255.85 70.9050   2
   2   4  -1 1365.54 72.5046   3
  -4   2  -1 1297.43 70.8752   7
  -2  -4   1 1411.85 71.0066   2
  -2  -4   1 1347.90 71.0083   6
   2   4   1 1449.37 71.2103   1
  -2  -4   1 1296.89 71.4384   5
  -4   2   1 1358.17 71.0847   4
   2   4   1 1325.94 71.0299   7
   4  -2   1 1359.34 70.9819   6
   2   4   1 1122.55 71.4183   8
   2   4   1 1121.20 71.7828   3
   4  -2   1 1183.46 69.8890   5
  -4   2   1 1468.74 70.3097   8
   4  -2   1 1341.41 71.6652   9
   4  -2   1 1323.66 70.5705   2
  -4   2   1 1197.55 70.9420   1
   2   4   1 1360.66 70.9738   6
  -4   2   1 1530.14 72.5127   7
   4  -2   1 1288.15 70.8415   7
  -2  -4   1 1250.70 70.3565   4
  -2  -4   1 1334.04 71.2484   7
  -4   3  -1 262.395 17.0516   6
   4  -3  -1 280.567 16.5857   3
   3   4  -1 304.368 17.2693   7
  -3  -4  -1 258.535 18.0492   5
  -4   3  -1 274.686 17.9693   4
   4  -3  -1 267.462 17.0629   2
   4  -3  -1 279.483 17.0009   6
  -4   3  -1 259.393 18.0107   1
   3   4  -1 255.361 15.9774   9
  -3  -4  -1 286.251 17.7634   4
  -3  -4  -1 254.884 17.6283   6
  -3  -4  -1 282.385 17.3917   2
   3   4  -1 275.668 17.3780   6
   4  -3  -1 258.798 17.2715   7
   3   4  -1 301.677 18.8860   8
  -4   3  -1 287.967 16.7231   7
   3   4  -1 255.993 20.8458   3
  -3  -4  -1 243.993 16.7851   7
   4  -3  -1 291.250 21.5436   9
  -4   3  -1 293.117 16.6304   8
   4  -3  -1 240.491 15.9236   5
  -4   3   1 272.056 16.6079   7
   3   4   1 269.969 19.5250   3
  -3  -4   1 273.595 17.8454   5
  -3  -4   1 286.308 16.5727   4
   4  -3   1 255.591 15.6048   5
  -4   3   1 273.989 17.6542   4
   4  -3   1 271.237 17.4009   7
   4  -3   1 279.043 18.6298   9
   3   4   1 257.275 15.5500   9
  -3  -4   1 259.315 17.2893   7
   4  -3   1 260.626 16.8686   3
  -4   3   1 288.090 17.1369   6
   3   4   1 282.843 17.1292   6
   4  -3   1 276.342 21.3252   6
  -3  -4   1 295.766 17.1364   2
  -4   3   1 269.369 18.2783   1
   3   4   1 283.632 17.5855   7
  -4   3   1 293.748 16.3684   8
  -3  -4   1 274.292 17.2745   6
   4  -4  -1 1089.73 63.7417   9
   4  -4  -1 1145.79 63.1617   7
   4  -4  -1 1052.58 61.7508   5
  -4   4  -1 1179.63 62.7584   8
  -4  -4  -1 1115.37 62.2917   4
   4  -4  -1 1117.67 62.6751   2
  -4  -4  -1 1101.14 62.5190   7
   4   4  -1 1272.40 62.7472   9
  -4   4  -1 1132.18 62.5014   7
  -4   4  -1 1206.25 63.2134   6
  -4  -4  -1 1062.02 62.2467   2
  -4   4  -1 1088.72 63.4248   1
  -4  -4  -1 1090.23 63.4603   5
   4   4  -1 1194.38 62.5699   7
   4   4  -1 1261.96 66.1552   3
  -4   4  -1 1152.88 62.7591   4
   4  -4   1 1140.28 62.7170   2
  -4  -4   1 1124.80 62.0774   4
   4   4   1 1173.79 62.6003   6
   4  -4   1 1185.40 62.3454   3
  -4  -4   1 1133.71 62.3205   6
   4   4   1 937.122 64.1415   3
   4  -4   1 1178.84 62.8574   6
  -4   4   1 1241.89 62.5629   8
  -4   4   1 1127.45 63.6000   1
   4  -4   1 1127.36 63.8191   9
  -4   4   1 1096.71 62.6442   4
  -4   4   1 1150.97 62.8371   6
   4   4   1 1137.20 63.7437   8
  -4  -4   1 1209.25 62.0872   2
  -4  -4   1 1151.95 63.3867   5
   4  -5  -1 37.2589 6.80812   5
   5   4  -1 28.1945 10.1212   8
   5   4  -1 55.2134 8.61077   7
   5   4  -1 38.5420 12.0580   3
  -5  -4  -1 43.6271 9.79584   5
  -4   5  -1 30.7273 10.7036   1
   5   4  -1 36.8172 6.75767   9
   4  -5  -1 40.7847 9.56565   9
  -5  -4  -1 41.6030 7.18152   4
  -4   5  -1 45.8693 7.68268   8
  -4   5  -1 39.3321 12.2073   4
   4  -5  -1 38.0669 7.63283   2
  -4   5   1 47.9321 9.03263   4
  -4   5   1 23.7413 10.5102   1
   5   4   1 42.5577 9.57272   8
  -5  -4   1 37.2582 7.00424   4
   5   4   1 37.3090 8.57489   6
   4  -5   1 44.8665 8.81429   9
   5   4   1 40.5205 10.7955   3
   5   4   1 31.5656 6.48936   9
  -5  -4   1 38.6932 8.28406   6
   4  -5   1 34.6778 7.35671   2
  -5  -4   1 33.3457 8.82168   5
   4  -5   1 51.9190 12.2087   6
  -5  -3  -1 247.806 16.9534   4
  -3   5  -1 266.774 19.6719   1
   5   3  -1 243.785 22.1559   3
  -5  -3  -1 242.387 16.2355   7
   3  -5  -1 251.850 18.1844   7
   3  -5  -1 241.290 16.6141   5
   5   3  -1 241.298 18.2482   8
  -3   5  -1 303.575 18.2874   8
  -3   5  -1 261.932 18.9235   4
   5   3  -1 246.596 16.7827   7
  -3   5  -1 253.977 16.5338   3
  -5  -3  -1 268.099 18.7359   5
   3  -5  -1 255.915 18.0150   2
  -3   5  -1 252.712 16.8960   7
   5   3  -1 221.562 16.4203   9
  -3   5   1 287.481 18.1982   4
   5   3   1 245.851 19.8665   3
   3  -5   1 238.230 17.7093   2
  -3   5   1 247.678 17.9968   6
  -5  -3   1 252.164 15.8542   2
   5   3   1 262.460 16.7073   6
  -3   5   1 276.730 19.7160   1
  -5  -3   1 276.310 17.6852   5
   5   3   1 264.460 22.7485   8
  -3   5   1 267.536 18.4398   8
  -5  -3   1 252.661 16.8461   6
  -5  -3   1 252.179 16.9211   4
   3  -5   1 258.293 17.7409   6
   3  -5   1 265.642 18.3946   9
   3  -5   1 234.204 16.1275   5
   5   2  -1 11.1881 3.74081   2
  -5  -2  -1 11.3211 4.19756   1
  -5  -2  -1 30.4147 5.61859   6
   5   2  -1 4.63778 5.09567   8
  -2   5  -1 19.4862 6.02744   6
  -2   5  -1 2.86860 6.28061   8
   2  -5  -1 32.6660 7.01375   6
  -5  -2  -1 19.1898 6.32712   5
   5   2  -1 11.9648 4.60861   7
   2  -5  -1 20.4990 5.49819   9
  -2   5  -1 9.05287 4.82674   7
  -5  -2  -1 14.3328 5.17380   4
  -2   5  -1 16.5197 5.53450   3
   2  -5  -1 10.9496 4.40959   5
   5   2  -1 22.0487 8.05430   3
   2  -5  -1 14.8403 5.64220   2
  -2   5  -1 18.4640 8.26785   1
   2  -5  -1 21.3060 5.42529   7
   5   2  -1 16.6618 5.56238   6
  -5  -2  -1 9.04872 3.55408   7
  -2   5   1 22.3266 4.65941   3
   2  -5   1 13.5582 4.66216   5
   5   2   1 27.3493 7.23909   7
  -5  -2   1 15.5237 4.83390   5
   5   2   1 16.5830 6.37446   3
  -2   5   1 23.1275 5.91568   4
  -2   5   1 17.1642 7.21709   1
   5   2   1 13.5678 4.04685   8
  -5  -2   1 17.2694 4.93928   4
  -2   5   1 15.6923 5.58627   6
   5   2   1 20.9070 4.92383   6
   2  -5   1 15.4669 4.39972   9
  -2   5   1 21.9444 7.27447   8
  -5  -2   1 15.7584 4.78256   6
   2  -5   1 22.9947 5.43129   6
   2  -5   1 29.3332 6.93213   7
   2  -5   1 20.8940 5.15947   2
   5   1  -1 1157.85 59.3114   7
  -1   5  -1 1228.62 61.4381   8
  -5  -1  -1 1092.35 59.8508   4
   5   1  -1 1106.99 58.4525   2
   5   1  -1 1111.07 59.1902   6
   1  -5  -1 1020.00 59.5927   6
  -5  -1  -1 1163.91 59.7464   5
  -5  -1  -1 1065.70 59.1713   6
  -1   5  -1 1061.93 60.1178   1
  -5  -1  -1 1066.94 59.2751   7
  -1   5  -1 962.316 59.8918   3
  -1   5  -1 1116.29 59.6812   7
   1  -5  -1 1067.99 58.9800   4
   1  -5  -1 1116.08 59.6618   5
   1  -5  -1 1126.17 59.2666   9
   1  -5  -1 1144.17 59.9416   7
   1  -5  -1 1083.88 59.9575   2
   5   1  -1 1125.20 59.9381   9
  -5  -1  -1 1197.77 59.1481   1
  -1   5  -1 1053.56 60.1757   6
   5   1   1 1134.99 59.4139   6
  -1   5   1 1027.99 59.4621   3
   1  -5   1 1137.51 59.7252   2
   1  -5   1 1102.96 60.0144   7
  -1   5   1 1030.58 60.5901   1
  -5  -1   1 1142.04 59.7977   4
   1  -5   1 1046.92 59.1651   5
  -5  -1   1 1113.94 59.2017   6
  -5  -1   1 1111.70 59.2310   7
   5   1   1 1092.99 59.0077   8
  -1   5   1 933.556 59.3347   7
   5   1   1 924.740 58.0580   2
  -1   5   1 1068.52 59.1478   4
  -1   5   1 1165.99 60.3861   6
   5   1   1 1116.65 59.3431   7
   5   1   1 985.168 59.7529   9
  -5  -1   1 1116.34 59.3826   5
   5   1   1 1079.28 60.3171   3
   1  -5   1 1133.93 59.3891   9
   1  -5   1 1003.31 59.8496   6
  -1   5   1 1230.96 61.1583   8
   0   5  -1 5.25324 4.63727   7
   0   5  -1 3.33492 6.44145   3
   5   0  -1 1.31460 3.62757   7
   5   0  -1 -1.6586 3.97023   6
   0   5  -1 6.35921 6.71356   6
   5   0  -1 0.80753 2.72513   2
  -5   0  -1 12.0231 5.26189   1
   0  -5  -1 4.97687 3.85225   5
   0   5  -1 -4.0820 7.05764   1
   5   0  -1 -1.6639 3.74268   9
   0   5  -1 4.68857 6.40607   8
  -5   0  -1 3.61480 3.57337   6
  -5   0  -1 0.71942 2.12895   8
   0  -5  -1 -2.4708 4.22356   6
  -5   0  -1 9.10576 4.23670   5
  -5   0  -1 0.78576 2.81283   7
   0  -5  -1 3.58788 3.48837   7
  -5   0  -1 8.54866 4.46937   4
   5   0  -1 2.80234 5.83296   3
   5   0   1 5.15729 4.48851   3
   0  -5   1 -2.1729 3.32078   4
  -5   0   1 0.00732 4.13915   4
  -5   0   1 2.29009 3.84634   1
   0   5   1 -6.4792 6.31551   8
   0   5   1 -5.3029 5.84323   3
   0   5   1 7.33331 6.34497   6
   0   5   1 -10.677 5.95076   1
  -5   0   1 -0.0267 3.25490   6
   0  -5   1 8.37502 4.36879   7
   0  -5   1 -0.9253 3.43636   9
   5   0   1 0.76309 5.00326   6
   0  -5   1 1.03867 4.56769   2
   5   0   1 4.11114 4.49306   9
   5   0   1 1.92154 2.61331   2
   0  -5   1 0.35260 4.74311   6
   0   5   1 -1.1826 4.84203   7
   5   0   1 -0.1377 4.30837   7
   5   0   1 2.06458 2.97118   8
  -5   0   1 0.35551 3.06733   7
  -5   0   1 0.49285 3.41818   5
   5  -1  -1 1141.31 60.3935   6
  -5   1  -1 1117.90 60.5623   1
   1   5  -1 1070.09 61.0914   6
  -5   1  -1 1103.48 59.7002   5
  -5   1  -1 1130.13 60.9134   4
   1   5  -1 1182.79 60.7803   7
  -5   1  -1 1130.44 60.3750   7
  -1  -5  -1 1018.73 60.5751   7
   5  -1  -1 1134.18 61.2628   9
   1   5  -1 1111.54 60.1092   9
  -1  -5  -1 1130.15 60.5633   2
   1   5  -1 1157.80 62.3210   8
  -5   1  -1 1039.07 60.2171   6
  -5   1  -1 1170.43 59.8332   8
  -1  -5  -1 1035.77 60.4031   6
   5  -1  -1 1170.67 61.2040   3
  -1  -5  -1 1165.74 59.9916   4
   5  -1  -1 1192.00 59.9300   2
  -1  -5  -1 1028.84 60.5505   5
   5  -1  -1 1150.11 60.5022   7
   1   5   1 1094.91 61.5165   3
   1   5   1 1120.01 60.7945   1
   1   5   1 1190.40 62.3706   8
   1   5   1 991.073 60.6003   7
  -5   1   1 1139.49 59.9274   5
   5  -1   1 1091.62 60.3380   7
  -1  -5   1 1139.12 60.7139   2
  -1  -5   1 1086.21 60.6753   5
   5  -1   1 1128.31 61.2403   9
  -1  -5   1 1170.87 60.0964   9
   5  -1   1 1095.83 60.5539   6
  -1  -5   1 1012.70 59.5011   4
   5  -1   1 1014.58 59.5852   2
  -5   1   1 1099.13 60.7934   4
   1   5   1 1153.36 61.1196   6
  -5   1   1 1085.02 60.1141   7
  -1  -5   1 1127.96 60.6609   6
  -1  -5   1 1156.48 60.8014   7
   5  -1   1 1050.56 60.6708   3
  -5   1   1 1103.81 60.3009   6
   5  -2  -1 18.3283 4.21919   2
  -5   2  -1 26.4039 6.18296   1
  -2  -5  -1 22.1493 4.56421   4
  -5   2  -1 34.3851 6.26265   4
  -2  -5  -1 25.9338 5.44885   5
   2   5  -1 29.1912 8.71431   3
  -5   2  -1 15.4199 3.83019   5
   2   5  -1 14.7712 7.20953   6
   5  -2  -1 18.4414 7.16099   3
   5  -2  -1 20.4762 5.25248   7
   5  -2  -1 27.2966 5.81168   9
  -5   2  -1 16.4085 3.83537   7
   2   5  -1 18.7549 5.93655   7
  -5   2  -1 32.8086 4.83772   8
  -5   2  -1 16.9889 5.08448   6
   2   5  -1 21.3544 8.40510   8
  -2  -5  -1 19.9693 5.50468   6
   5  -2  -1 26.9445 5.76027   6
  -2  -5  -1 30.7436 6.17933   2
  -2  -5  -1 20.6387 4.95786   7
  -5   2   1 35.8334 6.26794   4
   5  -2   1 20.7504 5.26752   3
  -2  -5   1 19.9706 4.50177   4
   5  -2   1 13.6932 4.97412   6
  -5   2   1 31.0979 4.35438   8
   2   5   1 22.6296 6.86841   1
  -5   2   1 17.6632 3.97021   5
   5  -2   1 21.7769 4.83296   2
  -2  -5   1 7.74264 5.51817   5
  -2  -5   1 18.7118 5.45929   2
   2   5   1 10.7278 7.05168   3
   5  -2   1 20.4430 5.86170   7
   2   5   1 19.2852 7.57693   8
  -5   2   1 21.5018 5.98542   1
   2   5   1 33.2781 6.95236   6
   5  -2   1 15.4626 5.46779   9
  -3  -5  -1 266.001 17.4078   7
  -5   3  -1 248.479 18.5266   1
   3   5  -1 289.407 22.2529   3
   3   5  -1 262.249 17.4574   7
  -3  -5  -1 258.498 17.8184   2
   5  -3  -1 255.727 19.1569   9
  -5   3  -1 244.978 16.6872   7
   3   5  -1 251.702 15.9853   9
  -5   3  -1 286.524 18.2772   4
   5  -3  -1 238.423 16.1066   5
   3   5  -1 246.524 20.1288   8
   5  -3  -1 281.103 17.7529   7
  -3  -5  -1 263.921 18.0719   5
   5  -3  -1 269.324 16.9789   2
  -3  -5  -1 261.195 16.8196   4
   3   5   1 259.728 20.1096   8
  -3  -5   1 244.999 18.4248   6
  -5   3   1 260.857 18.5076   4
  -5   3   1 256.159 18.8464   1
  -3  -5   1 273.363 17.9946   2
  -5   3   1 271.436 15.8237   8
  -5   3   1 268.483 16.1920   5
   3   5   1 251.642 18.1795   6
   5  -3   1 256.907 17.7842   3
  -3  -5   1 264.262 18.4806   5
  -5   3   1 254.605 17.4490   6
   3   5   1 267.244 21.6026   3
   5  -3   1 273.800 17.4296   6
   5  -3   1 272.796 19.2959   9
   5  -3   1 258.203 17.3005   2
   5  -4  -1 40.0237 9.23911   9
  -4  -5  -1 39.3474 7.12103   4
   5  -4  -1 37.1592 7.57369   2
  -5   4  -1 22.7715 9.19266   1
   4   5  -1 52.6519 9.63990   7
   5  -4  -1 35.7004 6.84968   5
  -5   4  -1 44.6798 7.05853   8
   4   5  -1 38.4759 10.9609   8
   4   5  -1 31.2816 6.21578   9
   4   5  -1 16.8050 11.0384   3
  -5   4  -1 43.5778 9.03144   4
  -4  -5  -1 41.9122 8.54770   5
  -4  -5  -1 57.4196 11.2030   7
   5  -4   1 36.4416 7.89519   3
  -5   4   1 55.9802 9.16024   8
  -5   4   1 35.8962 9.71265   1
  -4  -5   1 29.7217 8.59240   5
   4   5   1 44.9431 11.0161   8
   4   5   1 42.5094 12.3026   3
   5  -4   1 31.0896 10.0300   6
  -4  -5   1 53.8963 8.20809   2
  -4  -5   1 35.4294 8.85456   6
  -4  -5   1 47.6749 6.96670   4
  -5   4   1 38.6306 9.52101   4
   5  -4   1 44.2173 7.75531   2
   4   5   1 36.4931 9.21797   6
   5  -4   1 52.7006 9.17449   9
  -5  -5  -1 375.617 23.8411   4
  -5   5  -1 414.181 24.7933   8
  -5  -5  -1 412.196 25.7679   5
  -5   5  -1 374.764 27.8692   1
   5  -5  -1 381.135 27.0664   9
   5  -5  -1 368.124 25.3348   2
   5   5  -1 297.739 22.7616   9
  -5   5   1 384.171 27.4265   1
   5   5   1 286.189 27.2695   8
  -5   5   1 386.241 26.1834   4
   5  -5   1 354.822 26.5450   9
   5   5   1 371.781 30.3306   3
   5  -5   1 376.505 24.7298   2
  -5  -5   1 372.370 25.8785   5
  -5  -5   1 382.297 23.4748   4
  -5   6  -1 233.977 25.0187   1
   5  -6  -1 259.932 23.2046   9
  -6  -5  -1 274.896 24.5809   5
  -5   6  -1 260.951 20.9398   8
   6   5  -1 172.544 28.7445   3
  -6  -5  -1 235.224 19.3879   4
   5  -6  -1 208.090 21.5657   2
   5  -6   1 291.094 22.9953   9
   5  -6   1 264.380 20.2396   2
  -6  -5   1 256.022 22.0016   5
  -6  -5   1 202.443 21.7356   4
  -5   6   1 270.089 21.0841   8
   6   5   1 207.530 28.0501   3
  -5   6   1 247.782 24.6516   1
   6   5   1 180.204 24.9751   8
   4  -6  -1 237.268 18.8712   5
  -6  -4  -1 257.942 18.9597   4
   6   4  -1 215.824 26.4282   3
  -4   6  -1 270.905 19.9968   8
  -4   6  -1 245.713 23.8743   1
   4  -6  -1 267.661 20.2642   2
  -6  -4  -1 275.936 21.9815   5
   4  -6  -1 245.402 21.7170   9
   4  -6   1 268.251 21.3797   9
  -6  -4   1 281.276 21.0357   5
   4  -6   1 251.134 20.1276   2
  -4   6   1 268.937 23.5017   1
  -6  -4   1 257.397 18.8242   4
  -4   6   1 269.600 20.5807   8
   6   4   1 263.023 25.0258   3
  -6  -3  -1 98.1286 14.1403   5
  -3   6  -1 81.8723 11.8718   8
   3  -6  -1 72.8190 10.5388   5
  -6  -3  -1 78.2043 10.8190   4
   6   3  -1 70.0886 14.0900   3
  -3   6  -1 101.550 16.2396   1
   6   3  -1 64.4117 10.1062   9
   3  -6  -1 89.3703 12.5809   2
  -3   6   1 83.4563 11.3763   8
   3  -6   1 86.5113 10.1394   5
   6   3   1 60.8242 9.59277   8
   3  -6   1 76.7773 12.0395   2
  -3   6   1 104.010 13.3820   6
  -3   6   1 87.1953 12.4775   1
  -6  -3   1 68.4959 10.7856   4
  -3   6   1 76.1173 10.2829   4
   6   3   1 78.9949 12.0359   3
   6   3   1 71.4664 10.3072   9
   3  -6   1 89.2081 12.5920   9
   6   2  -1 352.453 24.9851   9
   6   2  -1 387.955 29.5088   3
  -2   6  -1 340.149 31.0138   3
  -6  -2  -1 438.481 26.3804   5
  -6  -2  -1 442.896 27.1557   7
   6   2  -1 372.434 24.9334   7
  -2   6  -1 412.462 26.8465   8
   2  -6  -1 422.859 25.7337   2
  -6  -2  -1 428.161 24.0929   1
   2  -6  -1 339.292 26.5268   7
   2  -6  -1 376.911 24.5176   5
  -6  -2  -1 402.606 25.2550   4
   6   2  -1 387.789 23.6442   2
   2  -6  -1 450.684 25.5047   9
  -2   6  -1 421.024 28.1224   1
   6   2   1 395.140 27.6436   3
   2  -6   1 414.802 25.3021   2
  -6  -2   1 409.640 25.1924   6
  -6  -2   1 408.943 23.7100   2
   6   2   1 416.561 24.8372   9
  -6  -2   1 429.177 25.1667   4
  -2   6   1 445.971 27.2789   1
  -6  -2   1 429.559 25.3421   5
   6   2   1 411.623 24.7142   6
   2  -6   1 398.787 24.3018   5
   2  -6   1 410.706 25.7509   6
   2  -6   1 431.690 25.4580   9
  -2   6   1 379.428 25.2511   4
  -2   6   1 459.361 27.1813   8
   6   1  -1 20.8964 8.67901   3
   6   1  -1 25.6421 6.26194   9
  -6  -1  -1 28.4408 6.69409   4
  -1   6  -1 27.9128 8.60223   8
  -6  -1  -1 14.5960 4.52630   7
   6   1  -1 25.8523 4.38078   2
   1  -6  -1 27.9994 6.18352   5
  -6  -1  -1 20.7192 7.53271   5
   1  -6  -1 36.0517 6.41114   7
  -6  -1  -1 21.7257 5.15275   1
  -1   6  -1 27.0830 6.36385   7
  -1   6  -1 25.4446 7.83810   3
   1  -6  -1 19.0026 5.07579   4
  -1   6  -1 53.7472 10.0633   1
   1  -6   1 27.3882 5.31788   5
   6   1   1 24.2397 6.30363   9
  -1   6   1 29.0764 7.18825   4
   6   1   1 11.7363 7.40871   3
  -6  -1   1 15.8231 5.60162   5
   1  -6   1 27.7852 5.98840   2
  -1   6   1 36.7356 8.48329   8
  -1   6   1 36.4116 8.31165   6
   6   1   1 46.9247 7.53385   6
  -1   6   1 22.9147 8.67392   1
  -1   6   1 22.8442 7.84358   3
  -6  -1   1 26.3717 5.63947   6
   6   1   1 22.6618 4.74112   8
   1  -6   1 18.4406 5.86445   6
  -6  -1   1 32.4536 5.91591   4
   6   0  -1 -4.0646 4.96483   7
   0   6  -1 10.5110 7.48099   3
  -6   0  -1 1.90020 6.03120   5
   0  -6  -1 10.8144 4.66320   5
   6   0  -1 -1.9524 4.98984   9
  -6   0  -1 5.24306 4.39708   1
   0  -6  -1 12.7939 4.63850   4
   0  -6  -1 9.86397 5.86720   2
   0  -6  -1 7.52613 4.54991   7
   0   6  -1 -5.7230 5.60858   7
  -6   0  -1 1.64955 3.16998   8
   6   0  -1 0.94604 3.86085   2
   0   6  -1 3.26593 7.59493   8
   6   0  -1 0.95425 8.13136   3
  -6   0  -1 4.45284 6.07900   4
  -6   0  -1 -5.0214 3.97048   7
   6   0   1 -3.3492 5.41893   9
   0   6   1 16.1209 7.91000   1
   0  -6   1 0.22566 4.25499   9
   0   6   1 2.28823 7.86445   3
  -6   0   1 -0.8554 4.39586   6
   6   0   1 4.43258 3.77012   8
  -6   0   1 20.2983 5.97416   4
  -6   0   1 0.12399 5.15827   1
   6   0   1 0.14024 5.71608   3
   6   0   1 -1.7588 4.49510   6
   6   0   1 8.12891 3.86579   2
   0   6   1 -2.2461 7.94617   6
   0  -6   1 1.43918 5.30429   2
   0  -6   1 3.41288 4.99734   6
  -6   0   1 2.65313 4.72820   5
   0  -6   1 0.52309 4.22622   5
   0   6   1 -4.2550 7.40073   8
   6  -1  -1 31.3269 6.28619   9
  -1  -6  -1 29.8124 6.40167   2
  -6   1  -1 21.6213 6.43151   1
   1   6  -1 36.1353 9.03958   8
   6  -1  -1 27.5218 6.11626   7
   1   6  -1 20.9605 8.81400   3
  -1  -6  -1 24.6232 5.86796   5
  -1  -6  -1 21.3081 5.73058   7
   6  -1  -1 25.8949 4.64947   2
  -6   1  -1 45.7386 7.21271   7
  -6   1  -1 26.9784 6.92345   4
  -6   1  -1 29.6926 5.14126   8
  -1  -6   1 19.9786 5.41852   6
   6  -1   1 16.3576 6.36829   3
  -1  -6   1 37.0067 6.52771   2
   6  -1   1 14.3690 5.66836   6
  -6   1   1 27.9517 6.39721   5
   1   6   1 23.6000 8.87601   6
  -1  -6   1 36.3489 5.98351   5
  -6   1   1 41.3121 6.81462   1
   1   6   1 32.6728 8.71538   8
   6  -1   1 32.8170 4.86388   2
  -6   1   1 29.3801 6.17290   6
  -6   1   1 34.7701 6.95466   4
   1   6   1 38.8329 8.43979   1
   6  -1   1 26.3911 6.93176   9
   1   6   1 19.6743 8.94605   3
  -6   2  -1 431.511 23.8998   8
  -2  -6  -1 426.125 25.2038   2
   6  -2  -1 384.545 24.2252   2
   2   6  -1 410.253 27.6533   9
  -6   2  -1 387.600 26.3427   4
  -2  -6  -1 419.801 25.5536   5
   6  -2  -1 415.459 27.9222   3
   6  -2  -1 443.201 26.7937   9
  -6   2  -1 431.365 26.0991   1
   2   6  -1 398.581 27.9795   8
  -2  -6  -1 443.610 26.0172   7
  -2  -6  -1 414.923 24.5142   4
   2   6  -1 390.739 29.2340   3
   2   6   1 459.480 28.5199   3
  -2  -6   1 411.244 24.4551   4
  -2  -6   1 440.706 25.9189   6
   6  -2   1 371.232 24.0679   2
   6  -2   1 389.572 26.0746   3
   2   6   1 359.483 27.5162   8
  -2  -6   1 431.739 25.6903   2
  -2  -6   1 410.217 24.2320   9
   2   6   1 445.393 27.3173   6
   6  -2   1 449.829 25.6814   6
  -6   2   1 382.445 26.0818   1
  -6   2   1 427.289 26.2752   4
  -2  -6   1 392.471 25.3874   5
   6  -2   1 405.390 26.8457   9
  -3  -6  -1 96.0600 11.5120   2
   6  -3  -1 89.0419 10.0013   2
   3   6  -1 61.8315 13.1870   8
  -3  -6  -1 99.3529 10.8790   5
  -6   3  -1 99.4290 13.4910   4
   6  -3  -1 85.3065 13.7910   9
  -6   3  -1 79.1379 9.67261   8
   3   6  -1 83.8528 14.6837   3
  -3  -6  -1 69.6930 10.2555   4
  -6   3  -1 83.4303 10.9448   1
  -3  -6   1 93.2511 11.4266   5
   6  -3   1 86.2995 10.4395   2
  -6   3   1 78.2545 11.2338   1
  -3  -6   1 87.4621 10.3771   4
   3   6   1 69.4190 12.8884   3
   6  -3   1 77.8643 12.4901   3
   6  -3   1 81.3258 13.8165   9
  -6   3   1 84.1542 11.3394   4
  -6   3   1 81.8094 12.5121   6
  -3  -6   1 88.0600 12.2318   2
   3   6   1 69.3898 13.1241   8
  -6   4  -1 227.453 20.9537   4
   6  -4  -1 256.340 18.5643   2
  -6   4  -1 244.943 21.8523   1
   4   6  -1 244.733 26.7952   3
  -6   4  -1 277.582 18.1032   8
   6  -4  -1 274.097 22.3325   9
  -4  -6  -1 268.331 18.5791   4
  -4  -6  -1 274.239 19.5381   5
  -4  -6   1 251.280 19.9026   2
   6  -4   1 224.014 22.1120   9
  -6   4   1 260.306 22.3233   1
  -4  -6   1 241.823 18.1421   4
  -6   4   1 264.008 21.7548   4
   4   6   1 205.790 24.0591   3
  -4  -6   1 255.332 20.0321   5
   6  -4   1 249.285 18.8572   2
  -6   5  -1 214.779 23.9288   1
   6  -5  -1 224.003 19.6941   2
  -5  -6  -1 245.674 19.0989   4
  -5  -6  -1 246.019 20.7925   5
   5   6  -1 234.446 29.0267   3
  -6   5   1 287.954 24.6306   1
   5   6   1 243.333 29.4949   3
   5   6   1 172.091 24.7614   8
  -5  -6   1 230.291 21.4746   5
   6  -5   1 225.018 23.4085   9
   6  -5   1 220.533 28.5321   2
  -5  -6   1 253.220 19.2823   4
  -6   5   1 283.905 23.7361   4
   6   6  -1 26.9545 20.3801   3
  -6  -6  -1 28.5908 12.8401   5
   6  -6  -1 26.0524 13.0028   9
  -6  -6  -1 13.1597 10.9745   4
  -6   6  -1 23.3978 15.4358   1
   6  -6  -1 16.1346 11.9430   2
  -6   6   1 29.9127 15.8939   1
   6   6   1 23.0117 19.6921   3
  -6  -6   1 51.1411 11.6325   4
  -6  -6   1 25.9392 12.6722   5
   6  -6   1 8.10699 12.5657   9
   6   6   1 12.1090 17.0003   8
  -7  -6  -1 142.527 21.9906   5
   7   6  -1 89.9205 25.0468   3
   6  -7  -1 65.4274 15.7727   2
  -7  -6  -1 49.4118 14.5409   4
  -6   7   1 110.234 20.9464   1
  -7  -6   1 114.273 15.9175   4
   7   6   1 47.4938 23.7251   3
  -7  -6   1 97.5161 17.4707   5
   6  -7   1 92.0433 17.4901   9
  -7  -5  -1 245.030 23.3953   5
   7   5  -1 153.594 25.0299   3
  -7  -5  -1 180.595 19.7163   4
  -5   7  -1 220.421 21.4211   8
   5  -7  -1 156.741 22.3280   2
   5  -7   1 224.423 24.5921   9
   7   5   1 137.570 22.7418   3
  -7  -5   1 214.656 23.7189   5
  -7  -5   1 193.043 19.0445   4
  -5   7   1 200.676 26.6593   1
   5  -7   1 216.036 20.6414   2
  -7  -4  -1 144.982 28.3432   5
  -7  -4  -1 146.459 15.9372   4
   4  -7  -1 155.613 17.7296   2
   7   4  -1 133.107 20.5331   3
  -4   7  -1 135.498 16.9934   8
  -4   7  -1 183.371 23.7249   1
   7   4  -1 130.501 16.0205   9
   4  -7   1 118.542 19.2196   9
  -7  -4   1 157.904 19.2318   5
  -7  -4   1 134.483 15.7017   4
  -4   7   1 172.847 22.6698   1
   4  -7   1 166.617 16.8014   2
  -4   7   1 154.408 18.3123   8
   7   4   1 145.655 20.2625   3
  -7  -3  -1 20.9464 12.6334   5
  -3   7  -1 31.4427 14.0499   1
   3  -7  -1 30.1052 9.52778   2
   3  -7  -1 21.8583 8.31573   5
   7   3  -1 29.1567 9.49208   9
  -7  -3  -1 28.6364 8.79352   4
  -3   7   1 34.3902 10.5129   8
   7   3   1 46.5141 13.5898   3
  -7  -3   1 36.3076 11.1753   5
  -7  -3   1 43.9594 8.66024   4
   3  -7   1 21.4356 9.38453   9
   3  -7   1 30.7581 8.37189   2
   7   3   1 23.7261 8.43515   9
  -7  -2  -1 181.482 15.4184   4
   7   2  -1 192.377 16.2486   9
  -2   7  -1 180.351 17.5874   8
   2  -7  -1 175.312 14.4796   5
  -2   7  -1 181.159 21.9718   1
   2  -7  -1 193.045 16.3571   2
  -7  -2  -1 162.100 18.3852   5
   7   2  -1 161.807 23.0235   3
  -2   7   1 208.454 19.9257   1
   7   2   1 136.021 19.5199   3
   2  -7   1 177.719 15.4145   2
   7   2   1 141.160 15.2023   9
   2  -7   1 173.246 17.8319   9
  -7  -2   1 175.994 16.1100   5
  -7  -2   1 164.529 15.0555   4
  -2   7   1 169.480 17.1660   8
   2  -7   1 160.439 14.6091   5
  -1   7  -1 346.719 26.6889   1
  -1   7  -1 349.114 24.4432   8
  -7  -1  -1 343.297 21.6426   1
   7   1  -1 301.816 27.4966   3
  -1   7  -1 336.974 23.3577   3
   1  -7  -1 349.330 21.7110   5
  -7  -1  -1 319.358 22.3796   4
   7   1  -1 314.916 22.6820   9
   1  -7  -1 348.226 23.0681   2
   1  -7   1 318.249 21.0779   5
  -1   7   1 343.708 24.4201   8
  -7  -1   1 330.019 22.3435   4
   7   1   1 344.715 22.7271   9
  -1   7   1 346.662 25.5348   1
   1  -7   1 331.512 22.1739   2
  -7  -1   1 339.276 22.2237   5
   7   1   1 271.057 24.8744   3
   7   0  -1 1.10343 4.66154   2
   0  -7  -1 17.2234 6.42970   5
   0   7  -1 -4.1446 9.90039   8
   7   0  -1 -0.2902 6.41166   9
   0  -7  -1 10.9667 7.11045   2
   7   0  -1 4.13835 10.6087   3
  -7   0  -1 -4.6073 6.90408   4
  -7   0  -1 6.91872 5.79455   1
   0   7  -1 -11.912 8.94600   3
  -7   0   1 8.54419 7.43259   5
   0  -7   1 -5.7080 6.40584   2
   0   7   1 11.2301 11.5463   1
  -7   0   1 0.71972 6.01526   1
   7   0   1 -0.4573 6.51030   9
   7   0   1 -8.5662 8.17700   3
   0  -7   1 3.90334 5.79693   5
  -7   0   1 -4.8742 6.92300   4
   0   7   1 5.23348 9.13481   8
   7  -1  -1 290.949 26.0418   3
   7  -1  -1 270.891 19.4427   2
  -7   1  -1 317.343 21.4124   1
   1   7  -1 333.851 24.9916   8
   7  -1  -1 325.867 22.0677   9
  -1  -7  -1 349.093 21.7108   2
  -1  -7  -1 338.072 20.7319   5
   1   7  -1 307.591 25.6516   3
  -7   1  -1 308.479 22.4440   4
   7  -1   1 283.180 23.0960   3
  -7   1   1 316.186 22.2117   4
  -7   1   1 315.424 22.0660   1
   1   7   1 325.688 24.5679   3
   1   7   1 355.170 24.2534   1
  -1  -7   1 310.110 20.4441   5
   7  -1   1 315.326 22.2842   9
  -1  -7   1 331.014 21.3312   2
   1   7   1 299.922 23.3651   8
  -7   2  -1 168.157 16.9419   4
   2   7  -1 143.591 20.7268   3
  -2  -7  -1 173.064 14.5390   5
   7  -2  -1 158.358 13.3999   2
   2   7  -1 136.607 18.9737   8
  -7   2  -1 158.723 16.5355   1
   7  -2  -1 154.324 16.4333   9
  -2  -7  -1 213.879 15.6648   2
  -2  -7   1 187.212 15.7518   2
   7  -2   1 155.205 18.1604   3
  -7   2   1 184.039 16.8686   4
   2   7   1 112.141 20.4967   3
  -7   2   1 174.321 16.9046   1
  -2  -7   1 170.837 14.2196   5
   7  -2   1 173.533 16.8475   9
   7  -2   1 176.642 14.8488   2
   2   7   1 149.642 18.0748   8
  -7   3  -1 25.6438 11.2843   4
  -3  -7  -1 33.2654 8.85906   5
   3   7  -1 14.4776 13.3172   8
   7  -3  -1 19.4530 7.72074   2
  -3  -7  -1 33.6168 8.46102   4
   7  -3  -1 37.3846 11.0243   9
   3   7  -1 25.5592 16.4530   3
  -7   3  -1 29.0414 10.9584   1
   3   7   1 29.7196 22.7760   8
  -7   3   1 36.9567 10.9628   4
   7  -3   1 35.0682 8.09055   2
  -3  -7   1 34.4599 9.39668   2
  -3  -7   1 46.3576 8.84809   5
   7  -3   1 35.2325 11.0783   9
   3   7   1 32.7799 15.5616   3
   4   7  -1 113.026 18.3478   8
   7  -4  -1 112.958 15.3315   2
  -4  -7  -1 168.120 15.8384   5
  -7   4  -1 149.716 18.0354   4
   4   7  -1 167.687 27.7383   3
  -4  -7  -1 163.985 15.9676   4
  -7   4  -1 143.773 20.4384   1
   7  -4  -1 129.471 20.6385   9
  -7   4   1 135.884 21.5078   1
   4   7   1 119.453 17.7343   8
   7  -4   1 137.467 20.2297   9
   4   7   1 139.840 20.7156   3
  -4  -7   1 125.877 15.7750   5
  -7   4   1 169.464 21.4512   4
   7  -5  -1 152.862 23.8789   9
  -5  -7  -1 185.634 19.6373   4
   7  -5  -1 167.896 19.0859   2
  -7   5  -1 194.314 24.6770   1
   5   7  -1 152.541 25.9914   3
  -5  -7  -1 214.200 19.1986   5
  -7   5   1 173.756 25.6213   1
   7  -5   1 151.978 23.6020   9
   5   7   1 218.254 31.7163   3
   7  -5   1 204.731 19.7015   2
  -7   5   1 200.158 26.3025   4
  -5  -7   1 198.460 19.3399   5
   7  -6  -1 65.3613 17.3948   9
   6   7  -1 73.3235 25.6709   3
  -6  -7  -1 65.2140 14.2191   4
  -7   6  -1 67.7346 19.0478   1
  -6  -7  -1 110.676 15.6021   5
   7  -6  -1 77.6018 14.6873   2
  -7   6   1 29.3917 19.0841   1
   7  -6   1 79.9686 16.3468   9
  -6  -7   1 84.0802 14.4792   5
   7  -6   1 53.6604 14.7401   2
   6   7   1 90.5496 25.0851   3
  -4   8  -1 225.594 23.8093   8
  -8  -4  -1 297.607 23.8574   4
   8   4  -1 247.252 36.6019   3
   4  -8  -1 357.512 25.2108   2
  -4   8   1 265.125 24.7991   8
  -4   8   1 276.797 29.8338   1
   8   4   1 264.326 33.0900   3
   4  -8   1 252.475 23.1479   2
  -8  -4   1 321.805 28.8269   5
  -8  -4   1 302.341 23.2672   4
  -8  -3  -1 203.209 18.9867   4
   3  -8  -1 221.358 19.4856   2
  -3   8  -1 185.324 20.0692   8
   8   3  -1 168.732 19.1787   9
  -3   8  -1 172.028 27.6081   1
   8   3  -1 183.196 29.8345   3
   8   3   1 200.906 27.8134   3
  -8  -3   1 165.952 18.3807   4
  -8  -3   1 221.186 24.0400   5
   8   3   1 157.493 19.3427   9
  -3   8   1 179.051 25.7101   1
  -3   8   1 165.169 19.8084   8
   3  -8   1 217.202 18.7544   2
   2  -8  -1 227.838 19.3688   2
  -2   8  -1 210.801 26.8743   1
  -8  -2  -1 210.594 19.0186   4
  -2   8  -1 158.102 19.5280   8
   8   2  -1 166.120 20.4125   9
   8   2  -1 184.749 29.6790   3
   2  -8  -1 228.447 17.2636   5
   8   2   1 219.753 25.7283   3
   2  -8   1 207.136 18.2358   2
  -2   8   1 168.137 19.6988   8
  -8  -2   1 171.771 26.0117   5
   8   2   1 202.059 18.8997   9
  -2   8   1 210.366 26.1437   1
  -8  -2   1 216.811 18.2499   4
   8   1  -1 411.491 28.2279   9
  -8  -1  -1 437.315 28.4969   4
   8   1  -1 362.031 47.4250   3
   1  -8  -1 449.087 28.0649   2
   1  -8  -1 424.934 26.8425   5
  -1   8  -1 365.604 29.7313   8
  -8  -1  -1 439.889 26.9789   1
  -1   8  -1 351.332 46.0761   1
   1  -8   1 436.366 27.9998   5
  -8  -1   1 443.958 28.2359   4
  -1   8   1 382.514 29.7237   8
   1  -8   1 438.199 27.5713   2
   8   1   1 450.921 28.2500   9
   8   1   1 355.462 31.6511   3
  -8   0  -1 -4.4086 8.86426   4
   0   8  -1 -1.4302 9.92816   8
   0  -8  -1 -9.1095 8.35988   2
   0  -8  -1 6.49679 7.70879   5
   8   0  -1 -0.3981 16.5763   3
   8   0  -1 -0.0269 8.31159   9
  -8   0   1 16.7264 9.62213   4
   8   0   1 13.5481 9.26226   9
   0  -8   1 5.25162 7.96635   2
   0   8   1 -2.0417 14.9646   1
   0   8   1 2.63884 10.7873   8
   0  -8   1 10.5615 7.73150   5
  -8   0   1 2.77219 8.00901   1
   1   8  -1 367.369 32.1591   3
  -8   1  -1 437.769 28.3641   1
  -8   1  -1 432.908 29.5356   4
   8  -1  -1 471.095 30.0583   9
  -1  -8  -1 458.331 27.7838   5
   1   8  -1 406.613 32.1199   8
  -1  -8  -1 498.345 34.0300   2
  -1  -8   1 460.569 28.3961   2
  -1  -8   1 435.420 27.4160   5
   8  -1   1 389.884 33.3638   3
   8  -1   1 442.397 29.9686   9
   1   8   1 373.169 31.3142   8
  -8   1   1 469.480 29.9278   4
  -8   2  -1 195.557 19.3003   1
  -2  -8  -1 244.854 17.2998   5
   2   8  -1 192.046 24.2270   8
   2   8  -1 181.587 25.0338   3
   8  -2  -1 213.818 20.1459   9
  -8   2  -1 179.565 21.0721   4
  -8   2   1 176.287 22.3500   4
  -8   2   1 182.312 20.8311   1
  -2  -8   1 201.092 17.1895   5
   2   8   1 154.994 21.6078   8
   8  -2   1 195.068 20.4754   9
  -2  -8   1 240.084 18.8265   2
  -8   3  -1 184.428 22.5788   1
   8  -3  -1 214.169 18.9881   2
  -3  -8  -1 198.418 18.0593   5
   3   8  -1 192.473 26.0305   8
   3   8  -1 165.606 28.2693   3
  -8   3  -1 146.672 23.1300   4
   8  -3  -1 196.874 22.7850   9
   3   8   1 135.528 22.6871   8
   8  -3   1 189.528 21.9911   9
  -3  -8   1 228.111 20.7376   2
  -8   3   1 187.859 23.7377   4
  -3  -8   1 206.422 18.3176   5
  -8   3   1 213.604 23.1315   1
   3   8   1 191.436 29.0455   3
   8  -4  -1 262.787 28.1310   9
   4   8  -1 334.028 35.0607   3
  -4  -8  -1 303.350 22.7004   5
  -8   4  -1 246.869 27.9659   1
   4   8  -1 219.273 30.4533   8
   8  -4  -1 242.701 22.5502   2
  -4  -8   1 289.639 21.6793   5
  -8   4   1 259.671 28.7053   1
   4   8   1 242.814 35.6439   3
   8  -4   1 207.850 26.4311   9
   4   8   1 186.432 28.1673   8
  -8   4   1 300.887 29.6659   4
   9   2  -1 82.4781 25.6238   3
   2  -9  -1 133.001 19.8467   5
  -9  -2  -1 159.725 18.9615   4
  -2   9  -1 135.286 18.7747   8
   2  -9  -1 132.356 19.7408   2
  -2   9   1 117.975 19.5595   8
   9   2   1 196.923 32.3497   3
  -2   9   1 87.0093 22.6023   1
   9   2   1 167.580 21.8130   9
  -9  -2   1 138.858 18.5030   4
   2  -9   1 170.880 18.0617   2
   9   1  -1 153.116 32.8140   3
  -9  -1  -1 194.559 20.9509   4
   1  -9  -1 176.290 17.9938   5
  -1   9  -1 191.523 21.5100   8
   9   1  -1 225.571 22.4148   9
  -1   9   1 168.116 21.9010   8
   1  -9   1 196.919 19.7314   2
   9   1   1 205.897 22.0965   9
   9   1   1 235.530 33.0784   3
  -9  -1   1 209.872 20.4846   4
   1  -9   1 153.923 19.0303   5
   9   0  -1 7.08015 12.0787   9
   0   9  -1 -22.986 12.8508   8
   0  -9  -1 9.29118 9.74397   5
   0  -9  -1 2.31072 11.5032   2
   0  -9   1 8.73527 10.2441   5
   0   9   1 -17.651 12.5877   8
   0  -9   1 9.03272 10.3208   2
   9   0   1 3.48213 19.4286   3
  -9   0   1 -0.0168 11.6106   4
   9   0   1 5.60298 11.7506   9
   1   9  -1 166.224 23.9555   8
  -9   1  -1 185.487 21.9785   4
  -1  -9  -1 209.879 19.2108   5
   9  -1  -1 214.426 22.1448   9
  -9   1  -1 195.161 21.7147   1
  -1  -9  -1 223.872 23.1059   2
  -1  -9   1 231.839 19.0409   5
   1   9   1 160.232 23.9597   8
  -9   1   1 178.057 23.2170   4
   9  -1   1 200.865 22.6356   9
  -1  -9   1 225.861 21.5160   2
   9  -2  -1 158.184 21.8628   9
  -9   2  -1 131.720 20.0311   1
   2   9  -1 105.804 19.5153   8
  -9   2  -1 104.319 17.3431   4
   2   9   1 112.222 19.2291   8
  -2  -9   1 170.886 20.3487   2
   9  -2   1 104.495 16.8739   9
  -9   2   1 154.694 22.8486   4
  -9   2   1 130.067 21.4563   1
   0   0  -2 4.59762 0.86386   5
   0   0  -2 5.91652 1.50792   4
   0   0  -2 4.80713 0.92408   8
   0   0  -2 4.90995 1.11231   1
   0   0  -2 4.63751 1.15879   9
   0   0  -2 5.77762 1.27886   3
   0   0  -2 4.64665 0.81561   2
   1   0  -2 104.079 6.03816   2
   0   1  -2 101.562 6.19356   8
   0  -1  -2 109.212 6.70032   4
   0  -1  -2 105.219 6.19626   5
   0   1  -2 101.488 6.98558   3
  -1   0  -2 97.9242 6.29480   3
  -1   0  -2 112.243 6.35223   4
   1   0  -2 101.035 6.16098   9
  -1   0  -2 111.686 6.22373   1
  -1   0  -2 109.420 6.18368   8
   0  -1  -2 119.856 6.39579   1
   1   0  -2 104.284 6.01985   5
   0  -1  -2 107.036 6.11716   2
   0   1  -2 102.613 6.83512   9
  -1   0  -2 95.0706 5.76772   5
   0   1   2 100.653 6.04220   6
  -1   0   2 96.7935 5.78294   6
   0   1   2 106.727 6.09336   8
   0  -1   2 105.883 6.24096   6
   0   1   2 106.719 6.49704   1
   0   1   2 101.587 5.98734   6
   0  -1   2 89.1328 6.15021   6
   1   0   2 96.7083 6.24817   3
   1   0   2 101.360 6.26942   9
  -1   0   2 110.677 5.95415   6
  -1   0   2 89.6803 6.09409   4
   0   1   2 106.329 5.93788   3
   1   0   2 111.711 5.88785   6
   0  -1   2 99.8635 5.91715   5
   1   0   2 102.551 5.91600   6
   0  -1   2 98.4194 6.10022   2
   1   1  -2 139.367 8.29664   9
   1  -1  -2 143.515 8.34583   7
  -1   1  -2 165.002 8.99283   1
  -1   1  -2 126.083 8.01587   6
   1   1  -2 142.468 8.03530   2
  -1   1  -2 149.358 8.39540   8
  -1  -1  -2 150.446 8.34304   8
  -1  -1  -2 159.213 8.30489   1
   1   1  -2 120.070 8.13961   6
  -1  -1  -2 154.033 8.03839   7
   1  -1  -2 143.639 8.63351   4
   1   1  -2 132.143 7.95907   7
   1  -1  -2 152.398 8.27334   5
  -1  -1  -2 137.354 8.14929   6
  -1   1  -2 144.233 8.21206   7
  -1   1  -2 150.032 8.54964   3
  -1   1   2 140.543 8.22277   6
  -1  -1   2 127.720 7.98936   6
   1  -1   2 154.699 8.95510   9
  -1   1   2 138.113 8.82994   1
  -1   1   2 145.862 8.07099   6
   1   1   2 137.401 8.07087   6
  -1  -1   2 143.771 8.02825   6
   1   1   2 162.666 8.39960   8
  -1   1   2 139.529 8.46331   4
   1  -1   2 125.503 8.02969   6
   1   1   2 141.893 7.97794   6
   1  -1   2 149.809 8.28135   6
   2   1  -2 4739.73 243.165   2
  -1   2  -2 4540.54 243.545   7
   1  -2  -2 4526.09 243.443   2
  -2  -1  -2 5098.51 243.643   4
   2   1  -2 4490.79 243.527   9
   1  -2  -2 4727.63 243.674   4
  -2  -1  -2 5186.02 243.369   1
   1  -2  -2 4400.29 243.362   9
  -1   2  -2 4270.31 243.460   1
  -2  -1  -2 4773.39 243.730   5
  -1   2  -2 4634.95 243.735   8
   1  -2  -2 4930.90 243.544   5
  -2  -1  -2 4357.77 243.309   7
  -1   2  -2 4572.33 243.745   3
  -2  -1  -2 4760.11 243.507   8
   1  -2  -2 4407.50 243.619   7
   2   1  -2 4619.32 243.259   7
   2   1   2 4565.66 243.756   3
   1  -2   2 4449.81 243.292   7
  -1   2   2 4784.53 243.515   6
   2   1   2 4143.39 243.503   9
   1  -2   2 4375.36 243.185   5
   2   1   2 4745.31 243.510   8
   2   1   2 4505.57 243.424   6
   1  -2   2 4518.52 243.634   6
  -2  -1   2 4729.45 243.255   6
  -2  -1   2 4039.28 243.129   6
  -1   2   2 4428.18 243.757   1
  -2  -1   2 4677.84 243.429   4
  -2  -1   2 4495.04 243.275   7
   2   1   2 4798.99 243.269   7
  -1   2   2 4486.04 243.666   6
  -2  -1   2 5014.20 243.536   5
  -1   2   2 4334.16 243.143   7
  -1   2   2 4941.25 243.855   8
   1  -2   2 4892.73 243.756   2
   2   1   2 4587.54 243.258   6
   1  -2   2 4514.16 243.889   9
   2   0  -2 348.754 19.0239   5
   2   0  -2 367.794 19.0307   7
   0  -2  -2 328.483 19.3605   1
   2   0  -2 344.428 18.9662   7
   0   2  -2 296.540 19.9443   3
   0   2  -2 345.918 19.5560   8
   2   0  -2 328.427 18.9382   2
   0   2  -2 364.794 19.1263   7
   0   2  -2 333.207 19.3284   9
   0  -2  -2 360.600 19.4151   4
  -2   0  -2 371.945 19.2027   1
  -2   0  -2 389.725 19.2064   8
   0  -2  -2 359.537 19.1124   7
   2   0  -2 295.273 19.2149   9
  -2   0  -2 394.343 19.1365   7
   0  -2   2 356.876 19.3203   2
  -2   0   2 332.158 18.9936   5
   2   0   2 373.837 19.0553   6
   2   0   2 329.126 19.0103   6
  -2   0   2 315.303 19.1373   4
   0   2   2 358.912 19.3744   8
   0   2   2 359.037 19.3650   1
  -2   0   2 360.420 19.0130   6
  -2   0   2 337.710 18.9607   6
   2   0   2 316.762 19.3032   3
   2   0   2 321.232 19.2395   9
   0   2   2 367.862 19.2954   6
   2  -1  -2 4935.68 244.727   7
  -1  -2  -2 4376.75 244.360   2
   1   2  -2 4474.09 245.027   8
   1   2  -2 4566.24 244.653   9
  -2   1  -2 4392.65 244.547   7
   2  -1  -2 4659.90 244.928   9
  -2   1  -2 4580.37 244.725   1
   1   2  -2 4720.77 244.467   7
   2  -1  -2 5110.33 244.674   2
  -1  -2  -2 4503.03 244.900   5
   1   2  -2 4629.03 245.707   3
  -2   1  -2 5061.49 244.733   8
  -1  -2  -2 4733.82 244.526   1
  -2   1  -2 4785.41 244.770   3
  -2   1  -2 4713.72 244.574   4
  -1  -2  -2 4989.10 244.787   4
   2  -1  -2 4820.34 244.513   5
  -1  -2  -2 4513.42 244.476   7
  -1  -2   2 4215.76 244.575   7
   1   2   2 4568.59 244.785   3
  -2   1   2 4325.03 244.608   4
  -1  -2   2 4015.57 244.594   6
   2  -1   2 4700.30 244.822   3
   2  -1   2 4699.51 245.075   9
   1   2   2 4625.29 244.501   6
  -2   1   2 4739.54 244.566   6
  -1  -2   2 4814.49 244.256   4
   2  -1   2 4668.64 244.607   6
   1   2   2 4770.04 244.671   6
  -1  -2   2 4893.84 244.542   2
   2  -1   2 4615.33 244.425   7
   1   2   2 4524.47 244.839   8
  -2   1   2 4334.37 244.346   7
  -2   1   2 4087.08 244.657   1
   2  -1   2 4344.46 244.465   2
  -2   1   2 4637.85 244.494   6
  -1  -2   2 4751.95 244.513   6
  -1  -2   2 5018.70 244.798   5
  -2   2  -2 1.29799 3.27418   4
   2  -2  -2 3.73634 1.65744   5
   2  -2  -2 -0.5360 1.84779   7
   2   2  -2 5.32917 3.58582   3
   2   2  -2 2.63230 1.46442   9
  -2  -2  -2 4.71442 1.70437   1
   2   2  -2 6.33283 2.87714   8
   2   2  -2 2.46786 1.60882   2
  -2  -2  -2 2.19861 2.28111   4
  -2   2  -2 1.95683 1.50348   8
   2   2  -2 -3.1222 2.36672   6
  -2   2  -2 0.12258 2.59536   1
  -2  -2  -2 4.00941 1.26280   7
   2  -2  -2 3.14708 2.10893   2
  -2   2  -2 5.69969 2.17052   6
   2  -2  -2 6.04260 2.05416   6
   2   2  -2 1.31048 1.41155   7
   2  -2  -2 1.91748 2.18653   9
  -2   2  -2 6.49648 1.65185   7
  -2   2  -2 3.22219 2.01832   3
  -2  -2  -2 5.42779 2.73777   6
  -2  -2  -2 12.2326 3.21588   5
   2  -2   2 7.17848 1.91716   6
  -2  -2   2 1.40314 1.79216   6
   2   2   2 8.82631 2.43349   3
  -2   2   2 0.61440 2.13334   8
  -2  -2   2 2.41017 2.02728   4
   2   2   2 3.09976 2.60192   7
   2   2   2 2.17695 1.63737   6
  -2   2   2 6.63210 1.80139   6
  -2   2   2 -3.3445 2.90742   1
  -2   2   2 4.19988 2.19711   4
   2   2   2 0.28853 1.34938   8
   2  -2   2 -0.4162 2.48097   2
  -2  -2   2 2.08191 1.67398   2
   2  -2   2 6.11080 2.07954   7
  -2  -2   2 -0.4637 1.92040   5
  -2   2   2 2.22094 1.73520   7
  -2  -2   2 0.51192 2.10342   7
   2  -3  -2 89.3816 6.39948   5
   2  -3  -2 89.3838 7.35010   9
  -2   3  -2 88.3991 7.93838   1
  -2   3  -2 70.1021 6.64660   6
   3   2  -2 88.2521 5.87447   9
  -3  -2  -2 86.8275 6.69728   6
  -2   3  -2 85.8283 6.20685   8
   3   2  -2 81.6316 5.97075   7
  -3  -2  -2 77.3750 8.04436   5
   2  -3  -2 89.0094 9.22153   4
   2  -3  -2 74.4957 6.66104   7
   3   2  -2 82.7378 9.16302   3
  -3  -2  -2 83.8421 6.72850   4
   3   2  -2 80.5121 7.65606   8
  -2   3  -2 83.6087 6.76931   3
   3   2  -2 82.0106 5.68288   2
   2  -3  -2 81.7207 6.88784   6
  -3  -2  -2 92.7900 6.26383   1
   2  -3  -2 77.7635 6.62547   2
  -2   3   2 76.6260 6.88341   8
   2  -3   2 70.1497 5.90457   5
  -3  -2   2 84.9535 6.65043   7
  -2   3   2 61.6630 7.52020   1
  -3  -2   2 71.4445 6.13474   5
  -2   3   2 65.8757 9.60493   4
  -3  -2   2 82.0143 5.80510   2
  -3  -2   2 83.8008 6.89509   4
   3   2   2 82.5049 5.93216   6
   2  -3   2 97.2347 7.54153   7
   3   2   2 79.4365 7.21555   3
   2  -3   2 62.4474 6.56637   9
   2  -3   2 72.7501 6.80455   2
  -2   3   2 79.7032 6.68196   6
  -2   3   2 77.7210 6.08443   7
   3   2   2 68.4105 5.66793   9
   3   2   2 83.6673 6.04120   8
   2  -3   2 91.1984 6.95243   6
  -3  -2   2 85.7423 6.09589   6
   1  -3  -2 486.604 28.8874   9
  -3  -1  -2 552.253 28.5778   7
  -3  -1  -2 518.372 28.5499   8
   1  -3  -2 522.210 28.9222   7
  -1   3  -2 526.822 28.8414   7
  -3  -1  -2 589.218 28.6182   1
   3   1  -2 528.867 28.4451   7
   3   1  -2 500.709 28.2026   2
   1  -3  -2 491.264 28.8835   5
   3   1  -2 514.857 28.4777   6
  -3  -1  -2 523.939 28.5297   6
   1  -3  -2 476.093 28.8039   4
   1  -3  -2 520.273 28.8463   6
  -1   3  -2 472.115 29.2690   3
  -1   3  -2 464.036 29.1503   8
  -1   3  -2 505.275 29.1992   6
  -3  -1  -2 601.133 29.6836   4
  -1   3   2 532.909 29.2033   6
  -3  -1   2 500.792 28.8060   4
  -3  -1   2 504.486 28.6639   5
   1  -3   2 506.989 28.5229   5
  -1   3   2 564.235 29.4222   8
  -3  -1   2 533.422 28.4925   6
   1  -3   2 609.426 29.9346   2
   3   1   2 527.546 28.7097   9
   1  -3   2 504.315 29.0083   6
   3   1   2 526.634 28.5877   8
   1  -3   2 532.569 29.0966   9
   3   1   2 511.463 28.4714   6
   0  -3  -2 8560.70 476.702   2
  -3   0  -2 8890.48 476.651   7
   0  -3  -2 9209.99 476.690   4
   0   3  -2 9384.14 477.525   8
   0   3  -2 9137.68 476.739   7
   3   0  -2 9147.17 476.582   7
   0  -3  -2 8565.82 476.785   7
  -3   0  -2 9956.77 476.663   8
   0   3  -2 8828.94 476.786   9
   3   0  -2 9541.46 476.580   5
  -3   0  -2 9567.87 476.675   1
   0   3  -2 8313.19 476.945   6
  -3   0  -2 9329.89 476.874   4
  -3   0  -2 7782.71 476.349   5
  -3   0  -2 8892.89 476.461   6
   0  -3  -2 8858.32 476.948   5
   0  -3  -2 8054.18 476.704   6
   3   0  -2 8800.81 477.184   9
   3   0  -2 9209.35 476.379   2
   3   0  -2 8909.92 476.470   6
  -3   0   2 9448.20 476.524   7
   0  -3   2 7966.59 476.657   7
   0  -3   2 8868.02 476.820   9
   0   3   2 9999.99 476.774   3
   0  -3   2 8900.97 476.793   5
   0   3   2 9080.85 476.833   1
  -3   0   2 9435.19 476.913   4
   3   0   2 9222.20 476.477   7
   3   0   2 8757.01 476.954   3
   0   3   2 8623.78 476.584   7
   3   0   2 8847.21 476.969   9
  -3   0   2 9225.71 476.540   6
   0   3   2 9767.94 477.357   8
   0  -3   2 9840.18 477.067   2
  -3   0   2 9393.20 476.558   5
   0   3   2 8498.37 476.863   6
   3   0   2 9315.34 476.599   6
   0  -3   2 9015.76 476.880   6
  -3   1  -2 569.228 29.0430   8
   1   3  -2 563.577 29.0865   7
  -1  -3  -2 546.786 29.1779   4
  -3   1  -2 554.171 29.4577   1
  -1  -3  -2 533.192 29.0241   7
   3  -1  -2 529.701 28.7882   5
  -3   1  -2 551.725 29.0470   7
   3  -1  -2 525.226 29.0217   7
   3  -1  -2 515.925 28.9316   2
  -1  -3  -2 556.011 29.8082   5
   1   3  -2 479.722 29.8073   8
   1   3  -2 502.729 28.9717   9
  -1  -3  -2 530.952 29.0631   1
  -1  -3  -2 525.885 29.3222   6
   3  -1   2 503.352 28.9066   7
   1   3   2 564.072 29.6585   8
   3  -1   2 548.581 30.0575   9
   1   3   2 519.810 29.0518   6
  -3   1   2 526.238 28.9392   6
   3  -1   2 528.244 28.7488   2
   3  -1   2 562.418 29.1147   6
  -1  -3   2 525.671 29.3210   5
  -3   1   2 561.015 29.6995   4
   3  -1   2 491.579 29.2349   3
   1   3   2 530.303 29.0520   1
  -1  -3   2 475.093 29.1171   2
  -1  -3   2 547.228 29.2346   6
  -3   1   2 465.657 29.0990   1
  -3   2  -2 76.7674 6.50939   6
  -2  -3  -2 86.7884 7.39165   5
   2   3  -2 71.4623 6.64850   7
  -2  -3  -2 78.9599 6.47048   1
  -3   2  -2 78.8280 6.40096   3
   3  -2  -2 82.6427 6.50901   7
  -2  -3  -2 89.9329 6.53558   4
  -3   2  -2 93.5513 7.46005   1
  -2  -3  -2 101.803 11.7015   6
  -2  -3  -2 81.1067 7.31595   2
   2   3  -2 97.3471 7.83867   8
   2   3  -2 64.3229 9.31272   3
   3  -2  -2 85.1941 6.53841   6
  -3   2  -2 79.8829 7.64245   4
   2   3  -2 93.7747 6.49954   9
   3  -2  -2 80.7971 6.43866   2
   3  -2  -2 88.4784 6.01053   5
   3  -2  -2 76.2714 6.96776   9
   2   3  -2 90.9480 9.15451   6
  -3   2  -2 88.0328 6.19945   8
  -3   2   2 85.1807 6.43539   6
   2   3   2 93.9130 6.50508   8
  -3   2   2 82.6042 5.81007   8
   3  -2   2 94.0041 6.63032   6
  -2  -3   2 88.2561 6.25059   4
   3  -2   2 87.3977 6.89163   2
   2   3   2 90.0899 6.37461   6
  -2  -3   2 79.0663 6.50251   6
  -2  -3   2 84.2836 7.35375   7
  -2  -3   2 83.6948 6.79430   5
   2   3   2 80.1623 7.51462   3
  -2  -3   2 86.1513 6.40245   2
   3  -2   2 89.9024 7.25695   9
   3  -2   2 90.0919 6.87400   7
  -3   2   2 81.9409 7.32401   1
  -3   2   2 82.1035 6.89007   4
   3  -2   2 78.7903 6.61056   3
  -3   2   2 82.2861 6.07130   7
   2   3   2 80.4689 7.48585   7
  -3  -3  -2 1702.47 91.8886   1
  -3   3  -2 1713.56 92.7606   1
  -3   3  -2 1776.05 92.6071   8
  -3  -3  -2 1703.37 92.1882   6
   3   3  -2 1744.75 92.3005   6
  -3  -3  -2 1723.53 92.2314   7
   3   3  -2 1522.57 92.0239   9
   3  -3  -2 1701.12 92.3302   6
  -3   3  -2 1763.10 92.4726   7
  -3  -3  -2 1699.72 92.9970   5
  -3   3  -2 1602.54 92.2559   6
   3   3  -2 1788.97 92.2035   7
  -3   3  -2 1650.58 92.2148   3
   3  -3  -2 1809.18 93.0307   9
   3  -3  -2 1845.48 92.9542   7
  -3  -3  -2 1829.10 92.4899   4
   3   3  -2 1822.75 93.2673   8
   3  -3  -2 1765.88 92.4613   2
   3  -3  -2 1742.18 92.1678   5
   3  -3   2 1567.43 91.3942   5
   3  -3   2 1754.37 92.5201   3
  -3  -3   2 1659.62 92.6250   5
  -3   3   2 1900.64 92.5512   8
  -3   3   2 1860.15 92.3346   7
  -3  -3   2 1673.25 92.0027   4
   3  -3   2 1665.94 93.0901   9
   3  -3   2 1651.59 92.4289   2
   3  -3   2 1641.99 92.2958   7
  -3  -3   2 1759.17 91.9354   2
   3   3   2 1784.27 92.2156   6
  -3   3   2 1649.42 92.8708   1
  -3   3   2 1716.51 92.3578   4
   3  -3   2 1757.61 92.6631   6
   3   3   2 1771.65 92.7762   8
  -3   3   2 1706.40 92.4567   6
   3   3   2 1771.46 92.4025   7
  -3  -3   2 1707.61 92.1129   6
   3   3   2 1608.94 91.5269   9
  -4  -3  -2 1197.28 73.1521   5
  -3   4  -2 1261.14 70.4446   3
   4   3  -2 1339.81 70.0157   2
   3  -4  -2 1350.96 71.4454   9
  -4  -3  -2 1288.64 70.4482   7
  -3   4  -2 1291.75 71.1654   6
   4   3  -2 1342.65 70.4949   7
  -3   4  -2 1308.14 70.4010   4
  -3   4  -2 1281.90 71.4207   1
   4   3  -2 1141.09 73.1344   3
   3  -4  -2 1300.98 70.9221   2
   4   3  -2 1314.81 72.7976   8
  -3   4  -2 1348.42 70.8262   7
   3  -4  -2 1310.69 70.4249   5
   3  -4  -2 1293.78 71.2938   7
  -4  -3  -2 1242.51 70.6815   4
  -3   4  -2 1423.17 71.4148   8
  -4  -3  -2 1375.56 70.0984   1
   3  -4   2 1234.83 70.8565   2
  -4  -3   2 1305.29 70.3776   6
   3  -4   2 1255.04 69.7916   5
   3  -4   2 1330.94 71.0967   6
   4   3   2 1401.97 71.7461   8
   3  -4   2 1236.59 71.5122   9
  -3   4   2 1245.22 71.4829   1
  -3   4   2 1331.53 71.0053   6
  -4  -3   2 1289.52 71.0158   5
   4   3   2 1242.66 71.8954   3
  -4  -3   2 1361.37 69.9919   2
   4   3   2 1285.59 70.3312   6
  -3   4   2 1423.30 71.2098   8
  -3   4   2 1338.34 70.6835   4
  -4  -2  -2 542.492 27.5850   1
  -2   4  -2 477.551 29.0209   1
  -2   4  -2 448.707 28.1957   6
  -2   4  -2 529.388 28.6961   8
   4   2  -2 519.691 27.7623   7
  -2   4  -2 497.874 28.1886   7
   2  -4  -2 422.460 27.8893   4
  -4  -2  -2 494.675 29.1618   5
   4   2  -2 491.356 27.2564   2
  -4  -2  -2 493.003 27.9572   6
  -4  -2  -2 489.284 27.7429   7
   2  -4  -2 508.684 28.5933   7
   2  -4  -2 550.626 28.1497   5
   4   2  -2 495.712 27.9561   9
   4   2  -2 502.198 27.8163   6
   4   2  -2 423.904 30.4277   3
   2  -4  -2 529.518 28.6296   9
   4   2  -2 435.195 28.3039   8
  -2   4  -2 465.243 28.2098   3
   2  -4   2 425.473 27.9972   7
  -2   4   2 524.367 28.3096   4
  -2   4   2 525.200 28.5267   6
   2  -4   2 487.692 30.4090   2
   2  -4   2 463.704 27.5443   5
  -4  -2   2 515.334 28.1037   5
   4   2   2 500.838 27.6866   9
  -4  -2   2 509.881 27.8023   6
   4   2   2 500.436 27.9235   8
  -4  -2   2 501.681 27.9506   4
   4   2   2 506.243 27.7088   6
   2  -4   2 490.876 28.4299   9
  -2   4   2 570.235 29.0192   8
   2  -4   2 510.748 28.5729   6
  -1   4  -2 539.738 31.9230   1
  -4  -1  -2 575.344 30.7875   8
   4   1  -2 573.885 30.7800   7
  -4  -1  -2 563.616 30.8385   7
  -1   4  -2 579.794 31.9827   8
   1  -4  -2 544.106 31.4215   2
  -4  -1  -2 529.923 30.7657   6
   4   1  -2 593.735 31.4000   9
  -4  -1  -2 615.378 30.9869   1
  -1   4  -2 469.519 31.6824   3
   1  -4  -2 565.656 31.3848   7
   1  -4  -2 570.109 31.1165   4
  -1   4  -2 499.975 31.3662   6
  -4  -1  -2 537.881 31.6280   5
   1  -4  -2 537.664 31.3922   6
   4   1  -2 538.908 30.3336   2
   1  -4  -2 562.521 31.2918   5
  -4  -1  -2 550.000 31.3724   4
   4   1  -2 580.126 30.9022   6
  -1   4  -2 580.840 31.2376   7
   1  -4   2 533.926 30.9664   5
   1  -4   2 586.458 31.3309   9
   4   1   2 545.317 30.9727   7
  -1   4   2 577.594 30.8933   3
  -1   4   2 623.062 31.9503   8
   4   1   2 562.747 30.8564   6
  -1   4   2 520.246 31.0721   7
  -4  -1   2 561.641 31.0814   4
   1  -4   2 572.499 31.3851   2
  -1   4   2 606.636 31.8775   6
   4   1   2 567.357 30.8501   8
  -4  -1   2 565.137 31.8014   7
  -4  -1   2 569.947 30.9542   5
   1  -4   2 493.293 31.2030   7
  -1   4   2 543.174 31.5532   1
   1  -4   2 536.503 31.5445   6
  -4  -1   2 580.304 30.8416   6
   4   1   2 529.960 31.5004   3
   4   1   2 584.279 31.2082   9
   0  -4  -2 1452.95 76.6810   7
  -4   0  -2 1406.77 76.1593   6
   0   4  -2 1495.80 76.5950   7
   0  -4  -2 1428.00 76.7421   5
   4   0  -2 1474.00 76.3078   7
   0   4  -2 1247.01 77.2210   8
   0   4  -2 1369.49 76.4435   9
  -4   0  -2 1475.70 76.3407   1
   0   4  -2 1438.91 77.1115   6
   0  -4  -2 1447.52 76.6487   6
   0  -4  -2 1350.19 76.6540   2
   4   0  -2 1290.65 75.8289   2
  -4   0  -2 1498.30 76.4435   7
   4   0  -2 1493.03 77.7772   3
  -4   0  -2 1468.37 76.7932   4
   0  -4  -2 1482.80 76.3352   4
   4   0  -2 1389.81 76.8616   9
   4   0  -2 1430.51 76.4382   6
  -4   0   2 1426.48 76.2075   5
   0   4   2 1413.60 76.7317   1
   4   0   2 1390.84 76.7961   3
  -4   0   2 1329.05 76.5226   4
   4   0   2 1393.80 76.2044   7
   0   4   2 1516.08 77.4258   8
   0  -4   2 1309.17 76.4379   5
   0   4   2 1502.03 76.9273   6
   4   0   2 1410.57 76.7591   9
   4   0   2 1396.47 75.4711   2
  -4   0   2 1450.11 76.2783   6
   0  -4   2 1416.04 76.7218   2
   0  -4   2 1532.90 76.6858   9
   4  -1  -2 570.656 31.0870   2
   1   4  -2 590.973 31.5461   7
   1   4  -2 526.000 33.1245   3
  -4   1  -2 524.558 31.1732   6
  -1  -4  -2 518.003 34.5480   2
   1   4  -2 582.413 32.6084   8
  -1  -4  -2 560.027 31.4986   7
   4  -1  -2 576.263 31.0413   5
  -4   1  -2 576.872 31.5795   1
  -4   1  -2 568.448 31.3962   7
  -1  -4  -2 560.558 31.6092   6
   1   4  -2 550.018 31.2760   9
   4  -1  -2 561.891 31.4030   7
   4  -1  -2 597.076 31.9772   9
   4  -1  -2 590.194 31.3720   6
  -4   1  -2 581.976 31.1126   8
   1   4  -2 589.949 32.2952   6
  -1  -4  -2 603.517 31.4053   4
  -4   1  -2 574.282 31.9459   4
  -1  -4  -2 550.834 31.7790   5
  -4   1   2 571.650 31.0283   5
  -4   1   2 575.117 31.7603   4
  -4   1   2 493.458 31.3850   1
   4  -1   2 548.632 31.3120   7
  -1  -4   2 590.997 31.7784   7
   1   4   2 597.824 31.8573   6
  -4   1   2 581.396 31.3709   6
   4  -1   2 550.597 31.7268   3
  -4   1   2 544.293 31.0702   7
  -1  -4   2 528.782 30.6333   4
  -1  -4   2 567.099 31.8585   5
   1   4   2 580.632 31.7197   1
   4  -1   2 500.640 31.7594   6
   1   4   2 580.016 32.1795   8
  -1  -4   2 597.604 31.7836   2
   4  -1   2 590.736 32.0501   9
   4  -1   2 594.467 30.9815   2
   1   4   2 552.685 33.3073   3
  -2  -4  -2 524.061 28.5437   4
   2   4  -2 520.570 28.6263   7
  -2  -4  -2 501.003 28.5181   7
   2   4  -2 561.847 30.1296   8
  -4   2  -2 558.619 29.3338   4
   4  -2  -2 514.997 28.7222   7
   2   4  -2 507.340 29.2414   6
  -4   2  -2 543.228 28.3874   8
  -2  -4  -2 476.826 30.1597   5
   4  -2  -2 504.059 28.0719   5
   2   4  -2 478.212 28.1439   9
  -4   2  -2 501.602 28.4800   7
   4  -2  -2 542.926 29.1014   3
  -4   2  -2 483.220 28.4761   6
  -2  -4  -2 520.087 28.5367   1
   4  -2  -2 546.278 29.1868   9
   4  -2  -2 498.485 28.2440   2
   2   4   2 494.953 28.5225   1
  -4   2   2 476.415 28.9032   1
   4  -2   2 526.460 28.6669   6
   4  -2   2 459.965 28.3530   7
  -2  -4   2 502.512 28.7445   6
   2   4   2 504.671 29.7014   3
   2   4   2 512.201 29.1299   7
   2   4   2 521.926 28.6577   6
   2   4   2 479.580 30.1986   8
  -4   2   2 491.328 28.7540   4
  -4   2   2 507.571 28.4967   6
   4  -2   2 525.213 28.3378   2
  -2  -4   2 497.278 28.6605   2
  -2  -4   2 523.449 27.9850   4
   4  -2   2 484.981 28.7018   3
  -2  -4   2 453.241 28.6580   7
  -2  -4   2 497.799 31.8920   5
   3   4  -2 1334.66 70.8421   7
  -3  -4  -2 1347.81 70.5116   1
  -4   3  -2 1386.51 71.1422   4
   3   4  -2 1255.01 70.4687   9
   4  -3  -2 1327.80 70.9668   2
  -3  -4  -2 1287.17 71.5968   5
  -3  -4  -2 1254.56 70.7664   4
  -3  -4  -2 1239.36 70.8373   7
  -3  -4  -2 1362.06 70.6194   2
  -4   3  -2 1280.08 71.5546   1
  -4   3  -2 1303.04 70.9402   7
   4  -3  -2 1326.67 71.3628   7
   4  -3  -2 1151.26 70.2566   5
  -4   3  -2 1228.97 70.9143   6
   4  -3  -2 1317.17 75.6056   9
  -4   3  -2 1409.12 71.0477   8
   3   4  -2 1415.13 73.8853   3
   3   4  -2 1351.60 72.2272   8
  -3  -4   2 1306.54 70.3801   4
   4  -3   2 1282.65 72.1510   9
  -3  -4   2 1281.96 71.5253   5
   3   4   2 1301.45 70.4753   1
  -4   3   2 1431.53 70.5078   8
   4  -3   2 1367.95 71.2479   6
  -4   3   2 1226.93 71.4440   4
   4  -3   2 1314.56 71.0378   3
  -3  -4   2 1379.21 70.7268   2
   3   4   2 1364.52 72.1289   8
  -4   3   2 1245.43 71.6042   1
   3   4   2 1173.77 72.0563   3
  -4   3   2 1330.58 71.0887   6
  -3  -4   2 1302.41 70.8234   6
   3   4   2 1331.37 70.9163   6
   4  -3   2 1302.62 71.2721   2
  -4   4  -2 209.278 17.1876   1
  -4  -4  -2 210.785 16.2581   5
   4   4  -2 223.054 14.3206   9
  -4   4  -2 210.664 16.7227   4
   4  -4  -2 200.001 14.1273   5
  -4  -4  -2 208.218 14.8873   4
  -4   4  -2 194.689 14.5499   7
   4  -4  -2 200.867 17.3926   9
   4  -4  -2 204.529 15.7654   2
  -4  -4  -2 245.304 15.8468   7
  -4   4  -2 223.070 15.3563   8
   4   4   2 173.609 17.5132   3
  -4  -4   2 232.763 15.0778   6
   4   4   2 254.615 15.2852   6
  -4   4   2 240.013 15.0077   8
   4  -4   2 217.393 15.5852   2
   4  -4   2 235.025 15.7521   3
   4  -4   2 194.739 16.8101   9
  -4  -4   2 215.657 14.4852   4
   4  -4   2 238.672 15.7870   6
  -4  -4   2 210.937 15.8513   5
   4   4   2 186.129 16.2431   8
  -5  -4  -2 683.975 42.0672   7
  -5  -4  -2 755.654 43.5916   5
   4  -5  -2 717.805 43.6877   7
   4  -5  -2 675.134 41.7916   5
  -4   5  -2 788.432 43.1678   8
   5   4  -2 778.982 48.0954   3
  -4   5  -2 754.017 44.4498   1
   5   4  -2 720.179 41.9486   9
  -4   5  -2 683.382 41.8931   3
   4  -5  -2 721.507 43.9452   9
  -5  -4  -2 726.623 42.4303   4
   4  -5  -2 745.415 43.1752   2
  -4   5  -2 746.161 42.7243   7
   5   4  -2 771.982 42.8516   7
   4  -5   2 761.148 44.0675   9
  -5  -4   2 713.575 41.6771   2
   5   4   2 736.908 45.3913   3
   5   4   2 738.273 43.4429   8
  -4   5   2 785.513 43.1943   6
   4  -5   2 738.341 42.5701   3
   5   4   2 747.138 42.6002   6
   4  -5   2 721.562 42.7023   2
  -4   5   2 830.514 43.0289   8
  -5  -4   2 710.483 42.2588   6
  -5  -4   2 772.792 43.3983   5
  -4   5   2 811.374 42.7922   4
  -4   5   2 794.740 44.4238   1
   4  -5   2 739.979 43.4143   6
  -5  -4   2 720.685 41.9469   4
   3  -5  -2 822.805 46.1483   7
  -3   5  -2 789.192 46.6153   1
  -5  -3  -2 783.159 45.1741   4
   5   3  -2 798.999 45.0620   2
  -3   5  -2 744.611 45.6832   7
   5   3  -2 779.082 44.8998   9
   5   3  -2 738.511 49.1043   3
   3  -5  -2 787.254 45.5025   2
  -3   5  -2 793.920 44.8828   3
   3  -5  -2 815.486 45.9042   9
  -3   5  -2 853.507 46.0189   8
  -5  -3  -2 843.873 44.2953   1
  -5  -3  -2 816.189 46.4395   5
   5   3  -2 742.083 45.5408   8
   3  -5  -2 805.748 44.7735   5
   5   3  -2 816.712 45.1813   7
  -3   5   2 863.466 46.8493   6
  -3   5   2 862.736 45.0803   4
   5   3   2 746.004 44.1467   9
   5   3   2 791.642 45.2366   8
   5   3   2 809.588 47.1214   3
   3  -5   2 800.230 45.3847   2
  -5  -3   2 808.494 44.8120   4
  -3   5   2 844.299 46.4670   1
   3  -5   2 799.367 45.7564   6
  -3   5   2 897.161 46.2166   8
  -5  -3   2 833.134 45.5902   5
   3  -5   2 728.632 44.0862   5
   3  -5   2 801.640 45.9039   9
   2  -5  -2 1604.87 80.6315   7
   5   2  -2 1424.40 78.0620   2
  -2   5  -2 1235.06 79.0449   3
   2  -5  -2 1298.13 79.3171   2
  -2   5  -2 1511.02 80.0425   1
   5   2  -2 1349.74 81.7482   3
   2  -5  -2 1400.04 78.7139   4
   5   2  -2 1514.53 79.5485   9
  -2   5  -2 1553.02 80.3569   8
   2  -5  -2 1391.57 79.2311   9
  -5  -2  -2 1470.07 80.0528   5
  -2   5  -2 1441.12 79.1446   7
   5   2  -2 1577.97 79.0803   7
  -5  -2  -2 1399.38 78.7957   7
   2  -5  -2 1416.89 79.0391   5
  -5  -2  -2 1387.85 79.3412   4
   5   2   2 1418.44 80.0347   3
   2  -5   2 1352.10 78.3946   5
   2  -5   2 1524.30 79.5471   9
  -2   5   2 1559.42 78.9914   4
  -5  -2   2 1494.84 79.2354   5
   2  -5   2 1458.86 79.5415   6
  -2   5   2 1453.09 79.9101   1
  -5  -2   2 1468.76 78.7777   6
  -2   5   2 1622.55 80.4490   8
   5   2   2 1570.93 79.0256   8
   2  -5   2 1493.43 79.2657   2
   5   2   2 1440.68 78.7101   6
  -5  -2   2 1465.59 78.9889   4
  -2   5   2 1492.62 79.5718   6
   5   1  -2 230.689 14.6703   2
  -5  -1  -2 246.266 14.9142   8
  -5  -1  -2 254.645 17.2381   1
   1  -5  -2 245.586 15.7228   4
  -5  -1  -2 251.483 15.2750   7
   1  -5  -2 224.928 17.0245   2
  -5  -1  -2 261.045 17.3961   5
   1  -5  -2 273.896 16.3912   5
  -1   5  -2 269.521 18.0684   8
  -1   5  -2 252.260 16.0272   7
   1  -5  -2 253.644 15.9272   7
  -5  -1  -2 233.257 16.4976   4
   5   1  -2 257.527 16.8557   9
   5   1  -2 262.965 15.4468   7
  -1   5  -2 206.868 17.2801   3
  -1   5  -2 284.014 18.9866   1
  -1   5   2 245.527 17.5337   1
   1  -5   2 254.260 15.5448   5
  -1   5   2 264.198 16.9182   6
  -1   5   2 251.475 16.3187   3
   1  -5   2 240.048 16.5023   2
  -5  -1   2 264.032 16.0326   4
  -1   5   2 249.900 17.3985   8
  -5  -1   2 259.012 15.9243   5
   5   1   2 229.858 16.9003   9
   5   1   2 270.465 15.5798   6
  -5  -1   2 251.054 15.4736   6
   5   1   2 250.228 16.9117   3
   5   1   2 249.615 15.1800   8
   1  -5   2 234.477 15.6712   9
   1  -5   2 243.153 16.3489   6
   5   0  -2 25.2657 5.52028   9
   5   0  -2 39.9344 5.55052   7
  -5   0  -2 42.9509 6.52982   1
  -5   0  -2 29.0421 6.23360   5
   0   5  -2 11.3960 9.76302   3
   5   0  -2 26.2987 8.95320   3
   0  -5  -2 34.1047 4.95407   4
  -5   0  -2 35.0295 6.21120   4
  -5   0  -2 18.1823 5.91145   6
   0  -5  -2 48.1384 7.04724   5
  -5   0  -2 44.9311 4.48094   8
   0   5  -2 34.5611 7.45976   8
   5   0  -2 45.6043 5.38231   2
   0  -5  -2 25.1741 4.61582   7
   0   5   2 34.6852 7.14863   6
   5   0   2 35.8514 4.34119   2
   5   0   2 31.0934 4.96469   6
   0  -5   2 29.3564 5.80110   2
  -5   0   2 42.2446 5.72663   5
   0   5   2 27.9760 7.12635   8
   5   0   2 47.9465 8.02347   9
   0  -5   2 39.4416 6.59019   6
   0   5   2 43.5733 8.38656   3
   5   0   2 26.6718 5.56021   3
  -5   0   2 34.1127 5.79121   6
  -5   0   2 28.3029 5.04752   1
  -5   0   2 30.5862 5.56333   4
   0  -5   2 37.5596 6.13095   9
  -1  -5  -2 249.567 16.5040   5
   1   5  -2 238.105 15.9387   9
   1   5  -2 261.692 16.5133   7
  -5   1  -2 271.246 15.2687   8
   5  -1  -2 253.894 17.0158   9
  -1  -5  -2 260.354 15.8647   4
  -5   1  -2 264.833 17.2388   4
   1   5  -2 287.973 19.3203   8
  -1  -5  -2 247.081 16.4477   7
  -5   1  -2 257.921 16.6570   1
   5  -1  -2 234.965 15.8362   7
  -1  -5  -2 277.733 17.1782   2
  -5   1  -2 252.323 15.6907   7
  -1  -5   2 253.358 15.7708   9
   1   5   2 269.414 17.0711   6
   1   5   2 279.882 17.7383   1
   1   5   2 272.072 18.5208   8
   5  -1   2 243.577 15.1675   2
  -1  -5   2 227.746 16.5115   5
   5  -1   2 254.866 15.8986   6
  -1  -5   2 280.303 16.4602   6
  -5   1   2 239.552 15.4571   5
  -5   1   2 246.260 16.5532   4
   5  -1   2 235.389 17.1115   9
  -5   1   2 248.588 15.8956   6
   1   5   2 262.641 17.8529   3
  -1  -5   2 241.205 16.9006   2
   5  -2  -2 1563.89 80.9009   3
   2   5  -2 1443.94 79.6422   9
  -2  -5  -2 1309.21 80.1849   5
   5  -2  -2 1585.18 81.3853   7
  -5   2  -2 1514.25 80.1170   7
  -5   2  -2 1609.93 79.8481   8
   5  -2  -2 1491.44 79.6475   2
  -2  -5  -2 1458.23 80.2162   7
   5  -2  -2 1480.41 81.0224   9
  -5   2  -2 1450.94 81.1463   4
   2   5  -2 1492.85 80.1729   7
   2   5  -2 1509.66 82.0830   8
  -5   2  -2 1464.37 80.3728   1
   5  -2  -2 1454.62 79.4739   5
  -2  -5  -2 1599.61 80.1554   2
  -2  -5  -2 1487.14 79.7231   4
  -2  -5   2 1416.41 80.1309   2
  -5   2   2 1495.12 80.0220   6
   5  -2   2 1454.17 81.2269   9
   2   5   2 1449.88 81.5783   8
   2   5   2 1453.74 81.3089   3
   2   5   2 1469.97 80.0264   1
   5  -2   2 1451.99 79.5256   2
  -5   2   2 1475.01 80.4874   4
  -2  -5   2 1437.03 80.7096   5
  -5   2   2 1514.38 79.4997   5
  -5   2   2 1341.41 80.2070   1
  -2  -5   2 1486.11 79.3374   4
   2   5   2 1488.31 80.3741   6
   5  -2   2 1524.70 80.2655   6
   3   5  -2 940.587 50.3329   7
  -3  -5  -2 814.050 47.4245   5
  -5   3  -2 896.444 46.9079   8
  -3  -5  -2 916.705 49.1795   7
   5  -3  -2 874.992 48.4117   9
  -3  -5  -2 854.910 46.7611   4
   3   5  -2 796.610 48.9677   8
   5  -3  -2 803.966 46.2634   5
   3   5  -2 842.113 51.0302   3
  -5   3  -2 813.436 48.2515   4
  -5   3  -2 803.086 47.8433   1
   5  -3  -2 783.697 46.5271   2
   3   5  -2 864.528 47.1492   9
  -3  -5  -2 908.859 46.8953   2
   5  -3  -2 825.791 47.5609   7
  -3  -5   2 846.352 47.9140   5
   3   5   2 840.033 48.8301   8
  -5   3   2 853.682 47.6426   4
   3   5   2 851.342 49.3399   3
   5  -3   2 793.651 48.5872   9
  -3  -5   2 770.650 46.8389   2
  -5   3   2 830.910 47.8493   1
  -5   3   2 896.601 48.4893   6
   5  -3   2 831.941 46.6805   2
  -3  -5   2 808.162 46.1215   4
   5  -3   2 840.642 47.1679   6
   4   5  -2 745.920 42.3864   9
   4   5  -2 728.542 43.6922   7
   5  -4  -2 788.845 45.0222   9
   4   5  -2 795.562 48.1522   3
  -4  -5  -2 769.143 42.9063   4
  -4  -5  -2 784.918 43.9706   5
  -5   4  -2 777.370 43.4638   4
  -5   4  -2 725.228 43.1811   7
   5  -4  -2 740.682 43.0522   2
   5  -4  -2 695.395 42.1051   5
  -5   4  -2 799.562 43.1847   8
  -5   4  -2 759.529 44.6493   1
   5  -4  -2 735.790 44.1939   7
  -4  -5  -2 742.472 43.4923   7
   4   5   2 780.945 43.6607   6
   5  -4   2 759.063 45.0919   9
  -4  -5   2 720.135 43.1043   6
  -4  -5   2 763.828 42.2548   4
   5  -4   2 741.806 42.9371   2
  -4  -5   2 714.795 42.8186   2
   5  -4   2 758.708 43.7703   6
   4   5   2 814.264 46.9019   3
  -4  -5   2 785.537 44.2390   5
   4   5   2 752.646 45.1625   8
  -5   4   2 798.001 43.8608   4
  -5   4   2 767.611 44.8352   1
  -5   4   2 747.683 43.4180   6
   5  -4   2 711.609 42.8687   3
  -5  -5  -2 146.212 14.0787   4
  -5   5  -2 137.392 18.9211   1
   5   5  -2 100.580 15.5427   8
   5  -5  -2 154.262 13.2527   5
   5   5  -2 146.528 20.2043   3
   5  -5  -2 144.396 18.4686   9
  -5   5  -2 154.562 14.6530   8
   5   5  -2 127.459 13.2188   9
  -5  -5  -2 149.848 15.8598   5
   5  -5  -2 139.954 14.9334   2
   5  -5   2 113.562 14.4598   2
  -5  -5   2 152.365 23.2939   6
   5   5   2 162.318 21.9090   3
  -5   5   2 140.065 16.2465   6
  -5  -5   2 111.471 14.4610   2
  -5  -5   2 128.045 13.3137   4
  -5   5   2 160.012 18.8594   1
  -5   5   2 139.025 17.0829   4
   5   5   2 106.642 16.7942   8
  -5  -5   2 146.457 15.6726   5
   5  -5   2 112.562 16.7918   9
   5  -6  -2 52.8718 11.8052   2
   5  -6  -2 93.3318 13.8037   9
   6   5  -2 65.0484 18.4985   3
  -6  -5  -2 92.8331 14.1545   4
  -6  -5  -2 95.9285 19.6763   5
  -5   6  -2 70.4706 17.0545   8
   6   5  -2 60.4067 10.7195   9
  -5   6  -2 79.6749 15.7935   1
   6   5   2 56.8587 16.5705   3
  -6  -5   2 82.1153 13.7469   5
   5  -6   2 63.4540 12.6795   9
   6   5   2 67.5708 14.3846   8
   5  -6   2 57.9848 11.1041   2
  -5   6   2 69.0798 15.4603   1
  -5   6   2 68.7698 14.6961   4
  -6  -5   2 60.8354 10.7257   4
   6   4  -2 191.542 26.6324   3
   4  -6  -2 211.575 19.4613   2
   6   4  -2 204.175 16.9679   9
  -4   6  -2 225.796 18.5805   8
  -6  -4  -2 255.652 17.9652   4
  -6  -4  -2 259.330 20.3403   5
  -4   6  -2 222.277 23.0470   1
   4  -6  -2 243.196 20.6756   9
   4  -6  -2 216.139 17.5817   5
   4  -6   2 226.310 18.0532   2
   6   4   2 217.561 23.5730   3
   4  -6   2 217.858 20.1183   9
  -4   6   2 261.230 19.4201   4
  -4   6   2 175.243 20.3271   6
  -4   6   2 219.549 22.2083   1
  -4   6   2 245.565 18.8025   8
  -6  -4   2 207.676 17.4054   4
  -6  -4   2 217.289 19.0300   5
   6   4   2 213.414 19.3136   8
   6   3  -2 784.615 55.3567   3
   3  -6  -2 835.151 50.5650   5
   6   3  -2 896.818 49.7243   2
  -3   6  -2 941.757 52.2176   8
  -6  -3  -2 898.728 49.9810   1
  -6  -3  -2 888.022 51.0955   4
  -3   6  -2 971.927 53.4459   1
   3  -6  -2 995.357 52.5768   9
  -6  -3  -2 875.862 51.0151   7
   3  -6  -2 972.103 52.2339   7
  -6  -3  -2 974.695 52.8563   5
   3  -6  -2 794.665 51.2494   2
  -3   6  -2 807.118 50.4862   3
   6   3  -2 924.659 51.3127   7
   6   3  -2 846.010 50.8285   9
  -3   6   2 928.492 51.6129   6
  -6  -3   2 936.267 51.4502   5
   6   3   2 895.758 50.8377   6
   3  -6   2 941.450 51.5080   9
   6   3   2 1014.31 54.2368   3
   6   3   2 822.928 50.8638   8
  -3   6   2 970.276 50.7022   4
   6   3   2 796.240 50.0732   9
  -6  -3   2 861.666 50.5856   6
  -3   6   2 972.030 52.7502   1
  -6  -3   2 897.126 49.6351   2
  -6  -3   2 907.588 50.6756   4
  -3   6   2 974.341 52.1711   8
   3  -6   2 889.125 51.9780   6
   3  -6   2 913.226 51.0355   2
  -6  -2  -2 336.985 23.2988   5
  -2   6  -2 359.839 24.9673   1
   6   2  -2 327.997 22.1869   9
   6   2  -2 334.984 19.7928   2
   2  -6  -2 330.418 20.7912   4
   6   2  -2 305.185 28.0853   3
  -2   6  -2 304.096 21.2398   7
  -6  -2  -2 318.976 21.8774   4
  -2   6  -2 307.038 22.6617   8
  -6  -2  -2 304.687 20.8952   7
  -6  -2  -2 351.544 20.4677   1
   2  -6  -2 313.853 20.9380   5
   6   2  -2 341.459 21.6619   7
   2  -6  -2 351.155 22.6517   7
   2  -6  -2 334.451 22.5987   2
  -2   6  -2 300.501 22.0128   3
   6   2   2 346.685 21.1572   9
   6   2   2 326.914 21.0294   6
   2  -6   2 325.780 22.1704   6
  -6  -2   2 333.337 21.3390   5
   6   2   2 341.419 20.8907   8
   2  -6   2 331.535 21.7473   9
  -6  -2   2 317.910 19.9616   2
  -2   6   2 345.600 23.6061   1
   2  -6   2 323.589 21.3667   2
  -2   6   2 368.513 23.4012   8
  -2   6   2 331.230 22.3808   6
  -6  -2   2 341.577 21.1493   6
   2  -6   2 308.619 20.2031   5
   6   2   2 334.750 23.8358   3
  -6  -2   2 335.288 21.2263   4
  -2   6   2 363.704 21.3518   4
  -1   6  -2 343.290 25.7071   3
   6   1  -2 413.921 24.5572   7
   1  -6  -2 412.715 25.5614   2
  -1   6  -2 375.007 26.0988   7
  -6  -1  -2 395.315 25.2485   4
  -1   6  -2 416.044 27.5501   1
  -6  -1  -2 431.261 24.2278   1
   6   1  -2 392.050 22.9052   2
  -6  -1  -2 424.686 26.3495   5
   6   1  -2 436.290 25.4587   9
  -1   6  -2 411.546 26.8651   8
   1  -6  -2 400.093 24.6588   5
   1  -6  -2 407.101 25.0750   7
   6   1  -2 430.382 29.6301   3
  -6  -1  -2 357.207 24.8894   7
   1  -6  -2 390.387 23.6524   4
  -1   6   2 433.099 26.3718   8
   1  -6   2 395.676 23.6674   5
   6   1   2 375.565 25.6945   3
  -6  -1   2 394.265 24.7993   4
  -6  -1   2 384.589 24.1183   6
   6   1   2 375.594 25.3176   8
  -1   6   2 418.397 26.0189   6
  -6  -1   2 418.103 24.3449   5
   6   1   2 420.770 24.9455   9
   1  -6   2 398.734 24.6222   2
   1  -6   2 403.913 24.4542   9
  -1   6   2 433.374 24.4798   4
  -1   6   2 403.582 26.0044   1
   0  -6  -2 893.569 49.4042   5
   6   0  -2 1033.57 52.8844   3
   6   0  -2 868.389 48.0216   2
   0  -6  -2 961.888 49.8732   2
   0   6  -2 791.217 50.4190   3
   6   0  -2 926.500 49.9990   9
   6   0  -2 899.592 49.1298   7
  -6   0  -2 912.969 48.9630   1
   0  -6  -2 882.474 48.4461   4
   0   6  -2 896.477 51.4262   8
  -6   0  -2 878.770 49.9055   4
   0  -6  -2 871.383 49.3933   7
   0   6   2 893.512 50.8201   8
   6   0   2 899.471 49.8941   9
   6   0   2 804.872 49.8011   3
   0   6   2 978.485 49.9861   3
  -6   0   2 876.305 48.6243   1
  -6   0   2 874.368 48.7586   5
   0   6   2 913.101 50.2829   6
  -6   0   2 862.152 48.8068   6
   0  -6   2 875.356 48.9517   9
   0   6   2 873.352 49.8028   1
   0  -6   2 797.062 48.6530   5
  -6   0   2 892.646 49.4933   4
   0  -6   2 881.543 49.3500   2
   6   0   2 751.550 48.4438   8
   1   6  -2 397.377 27.9193   3
  -1  -6  -2 411.651 24.4553   5
   6  -1  -2 406.534 25.3333   9
  -6   1  -2 399.278 25.6248   4
  -1  -6  -2 415.635 25.1551   2
  -1  -6  -2 408.962 23.6832   4
   6  -1  -2 403.631 24.9171   7
   1   6  -2 471.264 26.4289   7
   6  -1  -2 444.498 29.5737   3
  -6   1  -2 406.958 24.7037   8
   1   6  -2 414.786 27.7056   8
  -1  -6  -2 421.830 24.9558   7
   6  -1  -2 364.523 23.2831   2
  -6   1  -2 398.100 24.7259   1
   1   6   2 401.996 26.3258   3
   6  -1   2 412.173 25.8318   9
  -1  -6   2 386.612 24.4288   5
  -6   1   2 376.551 24.7309   1
   1   6   2 417.682 26.2234   6
   6  -1   2 370.036 22.9906   2
   1   6   2 385.549 25.6619   1
  -6   1   2 403.880 25.1440   4
   1   6   2 434.176 27.0763   8
  -6   1   2 392.270 24.4238   6
  -6   1   2 391.208 23.6726   5
   6  -1   2 368.696 25.3089   3
  -1  -6   2 402.164 24.8865   2
  -2  -6  -2 359.658 20.5155   4
  -6   2  -2 322.710 22.1220   4
   2   6  -2 312.887 25.2573   3
   2   6  -2 295.219 22.2014   7
  -6   2  -2 314.396 20.6930   7
   2   6  -2 340.882 24.8662   8
  -2  -6  -2 320.752 20.9815   5
  -2  -6  -2 321.923 21.8885   7
  -6   2  -2 322.671 21.9041   1
  -6   2  -2 340.408 19.8493   8
   2   6  -2 293.894 21.0214   9
   6  -2  -2 303.905 19.7883   2
  -2  -6  -2 360.127 21.3883   2
   6  -2  -2 345.014 22.1154   7
   6  -2  -2 331.138 22.2870   9
   2   6   2 355.828 23.0700   6
   6  -2   2 297.965 21.5732   3
  -6   2   2 329.576 21.9326   4
  -2  -6   2 330.412 21.5198   2
   6  -2   2 307.657 19.6725   2
  -2  -6   2 304.295 20.3816   9
   2   6   2 307.939 23.5775   8
  -6   2   2 313.070 21.9638   1
  -2  -6   2 332.101 21.3502   5
   6  -2   2 316.746 22.6432   9
   6  -2   2 363.001 21.8885   6
  -2  -6   2 304.342 21.8273   6
  -6   2   2 303.477 21.0627   6
  -6   2   2 335.267 19.9612   5
   2   6   2 324.442 22.3520   1
   2   6   2 349.071 23.8028   3
   6  -3  -2 959.233 52.8684   9
   6  -3  -2 875.972 50.1620   5
  -6   3  -2 956.168 50.4767   8
   3   6  -2 865.124 50.4525   9
  -3  -6  -2 922.630 51.2956   5
  -6   3  -2 884.141 51.6843   1
  -6   3  -2 866.938 51.6852   4
   6  -3  -2 927.521 52.1367   7
   3   6  -2 824.008 53.6475   8
  -3  -6  -2 912.169 51.6887   7
  -3  -6  -2 902.198 50.3296   4
   3   6  -2 901.292 51.8029   7
   3   6  -2 1020.55 55.8423   3
   6  -3  -2 904.744 50.3085   2
  -3  -6   2 891.107 51.6885   5
   6  -3   2 899.484 50.4036   2
  -6   3   2 892.732 51.8555   1
   3   6   2 887.335 51.8925   6
   6  -3   2 876.915 51.3797   3
  -6   3   2 906.927 49.9707   5
  -6   3   2 882.167 51.1755   6
  -3  -6   2 907.546 51.2030   2
   6  -3   2 924.291 51.6829   6
  -6   3   2 948.516 52.1003   4
   3   6   2 907.424 53.7486   8
   6  -3   2 928.655 53.1369   9
   3   6   2 830.166 53.4541   3
  -4  -6  -2 247.522 18.0493   5
  -6   4  -2 200.267 20.1016   1
  -4  -6  -2 213.343 17.1179   4
   6  -4  -2 213.081 20.8124   9
   6  -4  -2 226.697 16.9174   2
  -6   4  -2 195.346 23.1356   4
   4   6  -2 184.738 21.9526   8
  -6   4   2 203.845 18.6785   6
   4   6   2 176.277 21.7561   8
  -4  -6   2 240.358 18.7451   2
   4   6   2 207.560 23.1949   3
   6  -4   2 244.819 21.3416   9
   6  -4   2 186.801 18.1130   2
  -4  -6   2 228.383 18.5201   5
  -6   4   2 210.587 21.5697   4
  -6   4   2 242.409 21.4189   1
   6  -5  -2 71.2937 11.2811   2
  -5  -6  -2 87.8569 12.1457   5
  -6   5  -2 65.6850 10.8761   8
   5   6  -2 69.1520 20.4512   3
   5   6  -2 58.8551 16.9191   8
  -5  -6  -2 76.4449 11.3979   4
  -6   5  -2 66.8822 14.7451   1
  -5  -6   2 99.3139 15.8623   4
  -5  -6   2 88.2237 13.7553   5
   5   6   2 64.3204 17.1036   3
  -6   5   2 78.5598 16.1482   4
   6  -5   2 93.3625 13.6837   9
  -6   5   2 86.2781 16.6822   1
  -6   6  -2 399.499 27.0889   8
   6   6  -2 295.328 37.5852   3
   6  -6  -2 339.677 27.2358   2
  -6  -6  -2 340.409 26.0181   4
  -6   6  -2 311.769 32.4299   1
  -6  -6  -2 419.364 27.8235   5
   6  -6  -2 341.203 31.1091   9
  -6  -6   2 380.419 28.9732   5
   6  -6   2 366.216 28.3223   2
   6   6   2 314.353 34.7349   3
  -6   6   2 342.910 32.7474   1
   6  -6   2 397.627 30.9523   9
  -7  -6  -2 605.269 39.2252   4
  -6   7  -2 563.771 45.7728   1
   6  -7  -2 577.213 41.3224   2
   6  -7   2 577.160 40.5812   2
  -6   7   2 669.687 53.7174   1
  -5   7  -2 146.393 19.6967   8
   7   5  -2 200.181 33.1755   3
  -7  -5  -2 188.327 22.5200   5
  -5   7  -2 95.2370 20.5212   1
  -7  -5  -2 173.674 18.6289   4
   5  -7  -2 136.853 17.1117   2
   5  -7   2 153.833 18.2811   2
   5  -7   2 150.433 21.2907   9
   7   5   2 124.311 22.2214   3
  -7  -5   2 189.273 21.7849   5
  -7  -5   2 116.426 17.4239   4
  -5   7   2 194.217 25.3513   1
   4  -7  -2 133.689 19.7842   2
  -4   7  -2 146.134 17.2053   8
  -7  -4  -2 213.369 31.7563   5
  -7  -4  -2 161.595 16.5377   4
   4  -7  -2 127.923 16.7909   5
   7   4  -2 113.070 16.3936   9
   7   4   2 162.360 23.7243   3
  -7  -4   2 132.573 18.6606   5
  -4   7   2 161.239 22.1444   8
   4  -7   2 158.854 22.3697   9
   4  -7   2 142.481 16.5044   2
  -7  -4   2 140.390 15.8462   4
  -4   7   2 131.828 19.1660   1
  -7  -3  -2 400.736 28.6670   5
  -7  -3  -2 379.518 25.5198   4
   7   3  -2 359.542 26.0684   9
  -3   7  -2 353.274 26.4214   8
   3  -7  -2 396.987 26.3586   2
   3  -7  -2 342.940 24.7594   5
  -3   7  -2 449.739 30.8746   1
  -7  -3   2 374.216 24.8238   4
  -7  -3   2 405.772 26.1808   5
   3  -7   2 356.273 26.0518   9
   7   3   2 360.385 29.7170   3
   3  -7   2 379.302 25.0625   2
  -3   7   2 392.171 29.4131   1
  -3   7   2 323.449 26.6423   8
  -7  -2  -2 1113.08 61.6907   4
   2  -7  -2 1044.11 60.0878   5
   7   2  -2 1175.38 61.6767   9
   2  -7  -2 1082.88 61.1723   2
  -7  -2  -2 1085.21 59.4559   1
  -2   7  -2 1175.54 63.1833   1
   7   2  -2 1039.30 66.0865   3
  -2   7  -2 1080.89 62.0249   8
   7   2   2 1031.66 62.9341   3
   7   2   2 907.348 59.8928   9
  -2   7   2 1104.67 61.8730   1
   2  -7   2 1065.45 60.4520   9
  -7  -2   2 1054.39 60.3855   4
  -2   7   2 1109.52 62.1154   8
  -7  -2   2 1146.08 60.9006   5
   2  -7   2 1047.43 59.3809   5
   2  -7   2 1092.04 61.2838   2
  -1   7  -2 85.0409 13.2374   8
   7   1  -2 102.651 17.4011   3
  -7  -1  -2 104.616 13.0848   4
  -1   7  -2 132.423 20.7973   1
   7   1  -2 120.007 13.8541   9
   7   1  -2 93.6265 10.1163   2
  -1   7  -2 107.200 14.7648   3
   1  -7  -2 121.327 14.3116   2
   1  -7  -2 97.2895 11.8234   5
  -7  -1  -2 105.041 11.5854   1
  -1   7   2 130.718 16.7997   1
  -1   7   2 94.5935 15.9350   6
   1  -7   2 128.925 12.6119   9
  -7  -1   2 91.3530 12.4093   5
  -7  -1   2 104.145 12.6253   6
  -1   7   2 99.1960 14.9662   8
   7   1   2 72.7413 12.3696   3
   7   1   2 106.479 12.9473   9
  -7  -1   2 126.755 12.7599   4
   1  -7   2 109.967 10.8256   5
   1  -7   2 104.583 12.2440   2
   7   0  -2 130.478 14.1815   9
   0  -7  -2 118.766 11.1049   4
  -7   0  -2 152.750 14.4093   4
   0   7  -2 121.495 16.8352   3
   7   0  -2 147.275 23.0405   3
   0   7  -2 133.876 15.9836   8
   0  -7  -2 142.421 14.9939   2
   7   0  -2 112.938 10.6494   2
   7   0  -2 152.409 17.2047   7
   0  -7  -2 140.998 13.0906   5
   7   0   2 144.731 14.0731   9
   0   7   2 145.169 16.8939   6
   0  -7   2 173.935 14.6311   9
  -7   0   2 146.900 13.5358   1
   0  -7   2 124.617 11.9812   5
   7   0   2 116.309 15.3411   3
   0   7   2 162.954 17.1030   1
  -7   0   2 156.684 12.9583   5
   0   7   2 125.598 15.5832   8
  -7   0   2 123.471 13.2052   6
  -7   0   2 134.273 14.0220   4
   0  -7   2 140.569 13.2289   2
  -7   1  -2 94.9414 13.7440   4
   7  -1  -2 112.684 13.5036   9
   1   7  -2 80.0375 13.5762   8
  -1  -7  -2 112.046 13.7004   2
   7  -1  -2 120.850 10.7759   2
  -1  -7  -2 110.703 11.2868   4
   1   7  -2 110.535 17.7053   3
  -1  -7  -2 95.8769 11.4207   5
  -7   1  -2 101.704 12.3562   1
  -7   1   2 96.8922 11.7076   5
  -7   1   2 102.769 13.5421   4
   1   7   2 96.9320 15.0552   8
  -7   1   2 105.874 13.5283   1
   1   7   2 107.379 16.7214   1
  -1  -7   2 116.238 13.1196   2
   7  -1   2 89.7689 14.7716   3
   1   7   2 93.8848 16.1566   6
   1   7   2 146.824 17.9947   3
  -1  -7   2 111.920 11.2286   5
   7  -1   2 96.3461 13.6208   9
  -7   1   2 82.1847 12.9129   6
   2   7  -2 1031.60 62.7594   3
  -2  -7  -2 1193.15 59.9829   2
   2   7  -2 907.175 62.6263   8
  -2  -7  -2 1078.67 60.0598   5
  -7   2  -2 980.348 60.6124   4
   7  -2  -2 1098.33 58.9466   2
  -7   2  -2 1058.31 60.2322   1
   7  -2  -2 1114.82 61.3834   9
  -2  -7  -2 1105.35 58.7950   4
  -2  -7   2 1083.27 59.7636   2
   7  -2   2 1014.15 60.8082   3
   2   7   2 1029.21 62.0384   3
  -2  -7   2 1060.48 59.6211   5
  -7   2   2 1043.08 60.5837   4
  -7   2   2 1066.76 60.5690   1
   7  -2   2 1157.33 63.1142   9
   2   7   2 1091.83 62.7101   8
   7  -3  -2 366.740 23.3251   2
   3   7  -2 354.654 34.8926   3
   3   7  -2 315.204 29.4891   8
  -7   3  -2 290.083 26.3124   4
  -3  -7  -2 362.526 24.2041   5
  -3  -7  -2 372.269 23.3092   4
  -7   3  -2 319.717 26.1998   1
   7  -3  -2 374.303 27.2028   9
   3   7   2 291.242 27.3819   8
  -3  -7   2 380.350 24.3488   5
  -3  -7   2 391.858 24.9270   2
   3   7   2 346.503 30.0329   3
   7  -3   2 386.219 27.6899   9
   7  -4  -2 108.743 14.4060   2
  -4  -7  -2 134.172 15.7763   5
   7  -4  -2 149.366 21.1788   9
  -4  -7  -2 183.641 18.5139   4
   4   7  -2 81.4078 18.1297   8
  -7   4  -2 134.528 20.2417   1
   4   7  -2 89.7058 20.3679   3
  -4  -7   2 164.294 18.0060   2
  -4  -7   2 154.002 16.6660   5
   4   7   2 122.960 21.9051   8
  -7   4   2 137.196 21.9382   1
  -7   4   2 127.667 16.8184   4
   4   7   2 102.223 19.1373   3
   7  -4   2 138.156 20.4338   9
   7  -4   2 119.774 17.1165   2
   7  -5  -2 108.205 14.6089   2
  -5  -7  -2 127.440 17.3705   4
  -7   5  -2 133.355 17.6651   1
   5   7  -2 122.151 24.9196   3
   7  -5  -2 143.844 19.0390   9
  -5  -7  -2 158.990 18.0813   5
   7  -5   2 141.087 22.4486   9
   5   7   2 98.3045 19.7624   8
  -7   5   2 140.168 20.7006   1
  -7   5   2 115.893 19.3354   4
  -5  -7   2 177.215 18.1165   5
   7  -5   2 123.879 18.9143   2
   5   7   2 140.923 22.5897   3
  -6  -7  -2 626.923 38.9031   4
  -7   6  -2 482.123 46.5525   1
   7  -6  -2 571.461 38.8104   2
   7  -6   2 586.764 40.3106   2
  -7   6   2 612.516 48.8602   1
   4  -8  -2 17.3306 12.7022   2
  -8  -4  -2 55.8035 13.3066   4
   8   4  -2 39.4125 13.8731   9
   8   4  -2 17.1649 20.7837   3
  -4   8  -2 24.4380 20.4230   1
  -4   8  -2 27.8219 12.5739   8
  -8  -4   2 35.0638 12.1376   4
  -8  -4   2 16.2003 16.5789   5
   4  -8   2 48.8461 11.3911   2
  -4   8   2 57.7102 18.3451   1
   8   4   2 39.9499 20.1692   3
  -4   8   2 23.6227 13.9216   8
   8   3  -2 166.080 19.1642   9
   8   3  -2 218.574 32.8526   3
   3  -8  -2 240.524 21.5325   2
   3  -8  -2 207.916 18.5416   5
  -3   8  -2 160.398 19.8054   8
  -8  -3  -2 200.135 19.3908   4
  -8  -3   2 222.692 23.0329   5
   3  -8   2 195.550 18.6751   2
  -3   8   2 194.923 20.1553   8
  -8  -3   2 179.070 18.2949   4
   8   3   2 214.640 27.9932   3
  -3   8   2 247.661 26.5597   1
   2  -8  -2 99.1158 13.2815   5
   2  -8  -2 78.7681 12.0885   2
   8   2  -2 66.9099 13.0313   9
  -2   8  -2 70.3020 12.5490   8
  -8  -2  -2 78.5036 12.6520   4
  -2   8  -2 112.342 28.2796   1
   8   2  -2 95.2203 20.4680   3
   8   2   2 76.2216 11.8659   9
   8   2   2 56.5293 15.1571   3
   2  -8   2 68.7890 10.2033   2
  -2   8   2 136.391 21.3844   1
  -2   8   2 76.4335 13.2333   8
  -8  -2   2 88.2745 11.9118   4
  -8  -2   2 65.9784 12.9412   5
  -1   8  -2 450.212 33.0934   8
  -8  -1  -2 488.988 31.9397   4
   1  -8  -2 464.104 30.2331   5
   1  -8  -2 552.099 32.2929   2
  -8  -1  -2 493.846 34.0989   1
   8   1  -2 513.211 32.1987   9
  -8  -1   2 520.712 31.9002   5
  -1   8   2 493.526 34.8752   1
   1  -8   2 499.019 30.6013   2
  -1   8   2 455.513 33.2689   8
   8   1   2 411.997 34.4912   3
   8   1   2 459.937 31.1376   9
  -8  -1   2 488.324 31.7548   4
   8   0  -2 290.109 23.0213   9
   0   8  -2 249.856 23.9647   3
   0  -8  -2 343.763 22.8533   2
  -8   0  -2 282.741 22.4867   4
   0   8  -2 214.496 23.6178   8
   0  -8  -2 304.656 20.5011   5
   8   0   2 225.635 25.6533   3
   0  -8   2 295.085 19.8443   5
   8   0   2 251.029 21.8259   9
   0  -8   2 280.383 20.7073   2
   0   8   2 355.056 31.5424   1
  -8   0   2 284.157 21.8636   4
   0   8   2 257.777 23.6291   8
   1   8  -2 428.790 33.9159   3
  -1  -8  -2 500.598 29.8078   5
  -8   1  -2 488.652 30.3153   1
  -8   1  -2 467.765 31.3682   4
   8  -1  -2 500.338 31.4863   9
   1   8  -2 395.431 33.1011   8
   1   8   2 397.787 31.8929   8
  -1  -8   2 480.829 29.3674   5
  -1  -8   2 507.862 29.9857   2
  -8   1   2 464.191 32.1409   4
   8  -1   2 482.091 31.6226   9
   2   8  -2 55.1599 16.8976   3
   8  -2  -2 66.6425 10.6412   2
  -8   2  -2 69.3230 11.5956   1
  -8   2  -2 79.6541 13.9409   4
   8  -2  -2 88.1453 13.6258   9
  -2  -8  -2 103.479 13.4355   5
   2   8  -2 92.4209 17.6465   8
  -2  -8   2 94.4352 12.1507   2
   8  -2   2 70.0748 13.2972   9
  -8   2   2 131.718 18.2809   4
  -2  -8   2 80.7392 11.5939   5
  -8   2   2 97.8437 13.3966   1
   2   8   2 79.9435 15.7736   8
  -3  -8  -2 260.499 18.6197   5
   3   8  -2 203.503 28.5888   3
   8  -3  -2 243.189 23.6937   9
  -8   3  -2 160.723 23.2587   4
   3   8  -2 145.406 25.9508   8
  -8   3  -2 175.360 21.8774   1
   8  -3  -2 180.961 19.1052   2
   3   8   2 178.939 24.0852   3
  -3  -8   2 230.869 18.3220   5
  -8   3   2 195.506 24.0271   1
  -3  -8   2 200.593 20.5465   2
  -8   3   2 254.015 24.4803   4
   8  -3   2 213.554 22.0796   9
  -4  -8  -2 21.6143 11.2168   5
  -8   4  -2 26.2276 15.1019   1
   4   8  -2 21.5509 21.1875   3
   8  -4  -2 31.2565 11.7908   2
   4   8  -2 41.0594 19.2136   8
   8  -4  -2 41.2506 15.5842   9
  -4  -8   2 38.1665 10.8275   5
  -8   4   2 43.8137 16.4043   4
   8  -4   2 21.0850 14.1702   9
   4   8   2 53.9159 22.1600   3
   4   8   2 32.4516 17.1863   8
  -8   4   2 49.0104 16.6679   1
  -9  -2  -2 28.5678 13.9618   4
   2  -9  -2 48.5798 12.8275   2
   9   2  -2 21.2053 14.1044   9
  -2   9   2 40.7470 21.6353   1
  -9  -2   2 23.0097 13.6043   4
  -1   9  -2 43.1427 12.0878   8
   1  -9  -2 56.2590 13.3711   2
   1  -9  -2 62.6186 11.2809   5
   9   1  -2 43.4322 14.5505   9
  -9  -1  -2 61.3063 12.9892   4
   9   1   2 49.8808 19.4579   3
  -1   9   2 46.8381 14.4872   8
   1  -9   2 63.5479 11.4888   2
  -1   9   2 63.2939 20.4063   1
   9   1   2 35.9873 12.7618   9
  -9  -1   2 52.8159 12.9514   4
   0  -9  -2 1191.64 64.4366   5
   0   9  -2 974.646 66.5678   8
  -9   0  -2 1144.22 66.1313   4
  -9   0  -2 1101.75 64.2719   1
   0  -9  -2 1335.02 66.1932   2
   9   0  -2 1188.98 66.3174   9
   0  -9   2 1244.22 64.7469   2
  -9   0   2 1201.92 66.2607   4
   9   0   2 1078.08 65.8926   9
   0   9   2 956.820 66.4379   8
   9   0   2 972.633 70.1984   3
   0  -9   2 1178.54 64.1187   5
  -9   1  -2 34.6598 12.1611   1
   1   9  -2 26.3472 15.4333   8
  -1  -9  -2 70.5245 11.8626   5
   9  -1  -2 41.9222 13.6141   9
  -9   1  -2 23.6749 14.2659   4
   9  -1   2 51.2556 13.4248   9
  -9   1   2 54.6227 14.0482   4
   1   9   2 74.5732 15.9414   8
  -1  -9   2 53.2407 11.9504   5
  -1  -9   2 64.2728 11.8705   2
  -9   2  -2 -7.9998 15.6057   4
  -9   2  -2 36.8028 12.4895   1
  -9   2   2 13.0305 18.7229   1
  -9   2   2 47.4200 15.5693   4
   0   0  -3 -5.1005 1.21765   2
   0   0  -3 1.34289 2.34842   3
   0   0  -3 -0.8048 1.65851   8
   0   0  -3 -1.1018 2.10955   9
   0   0  -3 -0.8985 1.59036   5
   0   0  -3 -2.8855 1.63250   1
  -1   0  -3 -0.1293 1.07203   2
   1   0  -3 2.59140 2.18783   3
   0   1  -3 1.98133 1.84982   9
   0   1  -3 0.79893 1.47139   4
   0  -1  -3 1.10759 1.32914   3
   1   0  -3 -0.8999 1.26168   2
  -1   0  -3 0.67560 1.58531   3
   1   0  -3 -1.0023 0.86888   8
   0  -1  -3 0.02200 1.37982   5
  -1   0  -3 -0.2805 1.22272   8
   0   1  -3 -0.8857 1.28309   8
  -1   0  -3 6.41675 4.04359   4
   1   0  -3 -0.8237 1.19400   5
   0  -1  -3 0.36670 1.36177   2
  -1   0  -3 0.86483 1.53412   1
   1   0  -3 -0.9024 1.31048   9
   0  -1  -3 2.82176 1.80858   1
   0  -1  -3 -0.9279 1.15584   8
   1   0  -3 -1.8312 1.73237   4
   0  -1  -3 1.10677 2.21674   4
   0  -1  -3 3.08317 1.34285   9
   1   0   3 -0.3532 1.15935   2
   1   0   3 -1.6548 1.41742   3
   1   0   3 3.73624 2.04897   9
   0   1   3 -0.7275 1.24015   3
   0  -1   3 -1.1222 1.19463   4
   0  -1   3 -0.2343 1.04973   5
   0  -1   3 1.38678 1.37918   2
  -1   0   3 1.40649 1.57582   4
  -1  -1  -3 8982.90 467.215   5
  -1   1  -3 9373.61 467.235   1
  -1  -1  -3 9259.03 467.398   8
   1  -1  -3 9306.62 467.345   5
  -1  -1  -3 9541.18 467.266   1
   1  -1  -3 9369.20 467.250   2
  -1   1  -3 9708.94 467.498   8
   1   1  -3 9127.03 467.160   8
   1   1  -3 8579.61 467.064   2
   1  -1  -3 8769.16 467.515   4
  -1   1  -3 9092.96 467.574   3
   1   1  -3 7985.31 467.315   9
  -1   1  -3 8667.24 467.059   4
   1   1  -3 9923.14 468.132   3
  -1  -1  -3 9633.26 467.566   4
   1   1   3 8501.29 466.969   6
   1   1   3 8762.52 467.051   9
  -1   1   3 8682.55 467.465   8
  -1  -1   3 8414.77 467.154   6
   1  -1   3 8510.73 467.702   9
  -1   1   3 8551.97 467.413   1
   1   1   3 9275.66 467.388   3
  -1  -1   3 9107.59 467.270   5
   1   1   3 9324.58 467.402   8
   1  -1   3 7861.50 466.968   6
  -1  -1   3 8223.04 467.017   4
  -1  -1   3 8043.85 466.974   6
   1  -1   3 8300.94 467.124   6
   1  -1   3 9513.76 467.243   2
   1   1   3 8181.00 467.278   6
  -1   1   3 8617.62 467.433   4
  -1   1   3 8274.85 467.091   6
  -2  -1  -3 21.2401 3.02245   1
  -1   2  -3 27.8843 3.96761   3
  -2  -1  -3 18.6782 3.11188   4
  -1   2  -3 29.3660 3.11492   8
  -2  -1  -3 17.1213 2.83841   5
  -2  -1  -3 24.9888 2.33467   7
   2   1  -3 15.5209 4.03826   3
  -1   2  -3 21.1044 3.27908   6
  -2  -1  -3 18.6291 2.35447   8
  -2  -1  -3 14.8377 2.51417   7
   2   1  -3 21.5220 2.27293   7
   1  -2  -3 28.4611 3.18704   5
   1  -2  -3 22.8438 3.19301   4
   1  -2  -3 18.5193 2.71501   9
   2   1  -3 21.5390 2.92507   9
   1  -2  -3 31.3336 3.49155   2
   2   1  -3 20.3096 2.51947   2
   1  -2  -3 25.3591 3.06256   7
  -2  -1   3 18.7087 2.73993   5
  -1   2   3 18.2865 2.73066   8
  -2  -1   3 15.1884 2.31673   6
   2   1   3 20.7251 2.85877   9
  -2  -1   3 19.9650 3.10825   4
   2   1   3 18.2661 2.88283   6
  -1   2   3 22.6812 2.71915   6
   1  -2   3 27.2470 3.03340   6
  -1   2   3 21.0316 3.49479   1
   2   1   3 19.2117 3.12528   3
  -1   2   3 22.5679 2.97117   6
   2   1   3 21.8563 2.43102   8
   2   1   3 24.7126 2.24143   6
   1  -2   3 27.3903 3.15445   5
  -2  -1   3 19.1544 2.37244   6
   2   0  -3 1.22030 1.50275   7
   0   2  -3 2.04338 1.84139   8
   0   2  -3 2.62454 2.05762   9
  -2   0  -3 0.39932 1.05033   8
  -2   0  -3 3.04775 1.76530   1
  -2   0  -3 -0.9586 2.25318   4
   2   0  -3 2.53198 1.21139   7
   0   2  -3 1.54035 2.98839   3
   2   0  -3 1.24130 1.30810   5
   2   0  -3 2.98179 1.54142   9
   2   0  -3 0.41289 1.39873   2
   0   2  -3 1.35176 1.41712   7
   0  -2  -3 3.46307 1.85213   5
   0  -2  -3 4.36546 2.32287   4
   0  -2  -3 -0.2005 1.11470   7
  -2   0  -3 3.90617 1.15381   7
   0  -2  -3 1.70869 2.21270   1
   0  -2  -3 2.79417 1.95625   2
   2   0  -3 2.17810 3.24760   3
   0  -2   3 1.29618 2.21717   6
   0   2   3 2.16642 2.13529   1
   0   2   3 4.49434 1.51157   3
   2   0   3 -0.9905 1.56220   9
  -2   0   3 0.35497 1.68649   4
  -2   0   3 5.52147 1.37927   6
   2   0   3 6.63726 1.73162   6
   0   2   3 1.81207 1.13700   8
   0   2   3 0.40620 1.62924   6
  -2   0   3 1.46973 1.24271   6
   2   0   3 0.71053 1.58550   3
  -2   0   3 2.07329 1.38643   5
   2   0   3 1.11474 1.23767   6
   0   2   3 5.35211 2.34273   6
   0  -2   3 2.28230 1.64910   5
   0  -2   3 1.76220 1.76168   2
  -1  -2  -3 24.6373 3.49904   5
  -2   1  -3 19.1412 2.76519   7
   2  -1  -3 22.5804 2.55311   5
   1   2  -3 18.2541 4.30634   3
   2  -1  -3 19.2062 2.80879   7
   2  -1  -3 15.7122 2.95463   9
  -1  -2  -3 22.6499 2.13276   7
   1   2  -3 12.2753 3.42080   7
   2  -1  -3 21.7895 2.81962   2
  -2   1  -3 20.2787 2.49434   8
  -2   1  -3 23.8690 2.56150   7
  -1  -2  -3 25.7242 3.94752   4
   1   2  -3 21.3654 2.79540   9
  -2   1  -3 23.8571 3.77967   1
   1   2  -3 20.6019 2.31421   7
  -1  -2  -3 26.7811 3.38697   1
  -1  -2  -3 21.5333 3.16125   2
  -1  -2  -3 29.2477 5.03860   7
   1   2  -3 18.2272 2.98592   2
  -2   1  -3 24.2106 3.33323   3
  -2   1  -3 25.0842 3.14795   6
   2  -1   3 12.3188 2.90385   2
   2  -1   3 23.2042 3.32637   3
  -1  -2   3 18.3859 2.93782   2
   1   2   3 18.4035 2.55612   8
   2  -1   3 26.5486 3.03837   6
   2  -1   3 20.1982 2.50147   6
   2  -1   3 16.6415 2.74776   9
  -1  -2   3 16.0407 2.59273   4
  -1  -2   3 19.4533 2.60025   6
   1   2   3 24.1633 3.38507   3
   1   2   3 27.0263 2.47898   6
  -2   1   3 23.0520 2.67842   6
  -2   1   3 25.5508 2.48961   6
   1   2   3 22.5977 3.49752   6
  -1  -2   3 16.4850 2.61332   5
  -2   2  -3 0.39325 2.46895   8
   2   2  -3 2.38692 2.88758   7
  -2   2  -3 -1.4634 3.04120   6
  -2  -2  -3 2.66556 2.84099   5
  -2   2  -3 1.42131 2.03248   3
   2  -2  -3 0.27425 2.32593   2
  -2  -2  -3 1.17842 2.63326   4
  -2  -2  -3 2.66233 2.85218   6
   2  -2  -3 2.39247 1.78292   5
  -2  -2  -3 5.93560 2.12098   1
   2   2  -3 6.96775 1.93635   2
   2   2  -3 7.68615 2.91171   8
  -2   2  -3 -2.6175 2.81415   1
   2   2  -3 1.95432 1.96941   9
   2  -2  -3 -0.5505 2.23910   6
   2   2  -3 5.62372 2.98660   6
   2  -2  -3 -1.1878 2.37957   7
   2  -2   3 2.74077 3.10293   6
  -2  -2   3 1.11656 1.68749   6
  -2  -2   3 0.51163 2.26665   5
  -2   2   3 5.04001 2.19891   6
  -2  -2   3 -1.5878 1.81633   6
   2  -2   3 1.07637 1.82160   6
  -2  -2   3 1.55622 1.80100   2
   2   2   3 3.15062 1.60421   6
   2   2   3 -1.9384 2.14476   3
  -2   2   3 -0.1986 1.66915   6
  -2  -2   3 -0.6923 2.13001   4
  -2   2   3 -0.4444 3.63396   1
   2  -2   3 -3.5662 2.77237   2
   2   2   3 7.66159 2.29170   8
   2  -2   3 1.29361 2.72741   9
   2   2   3 -0.3187 2.42115   6
   3   2  -3 410.750 24.0906   2
   2  -3  -3 484.787 24.7669   5
   3   2  -3 429.648 24.5496   9
  -2   3  -3 443.473 24.6811   7
   2  -3  -3 436.635 24.8136   9
   2  -3  -3 420.320 24.9258   4
   2  -3  -3 421.890 24.8094   7
  -2   3  -3 425.404 25.0120   3
   3   2  -3 388.714 24.6743   8
   3   2  -3 473.461 24.3019   7
  -3  -2  -3 424.243 24.8339   4
   2  -3  -3 467.957 24.8472   2
  -3  -2  -3 423.699 25.3471   5
  -2   3  -3 433.783 24.8608   8
  -3  -2  -3 446.601 24.3993   1
   3   2  -3 447.323 26.8895   3
  -3  -2  -3 448.415 24.3544   7
  -2   3  -3 477.412 25.5980   1
   2  -3   3 490.767 25.0875   6
  -3  -2   3 442.252 24.6830   5
  -3  -2   3 469.011 24.3899   6
  -2   3   3 461.352 25.0391   8
  -3  -2   3 461.574 24.2348   2
   2  -3   3 361.545 24.9779   5
   3   2   3 424.256 24.1109   9
   2  -3   3 400.952 24.9142   9
   2  -3   3 434.924 24.9530   2
  -2   3   3 419.599 25.4028   1
  -3  -2   3 416.107 24.4630   4
  -2   3   3 462.949 24.9933   4
   3   2   3 458.881 24.3160   6
   3   2   3 429.175 25.1329   3
   3   2   3 437.751 24.6552   8
  -2   3   3 447.256 24.7916   6
   3   1  -3 417.506 22.4367   9
  -3  -1  -3 359.864 22.4232   5
  -3  -1  -3 396.107 22.0093   8
  -3  -1  -3 444.298 22.1206   1
   1  -3  -3 379.175 22.4279   4
   1  -3  -3 412.371 22.3289   5
  -1   3  -3 357.500 22.9162   3
  -1   3  -3 406.118 22.6521   8
   1  -3  -3 405.397 22.3293   2
  -1   3  -3 390.663 22.8033   1
   3   1  -3 400.596 21.7212   2
  -3  -1  -3 424.077 22.5483   4
   1  -3  -3 341.758 22.0491   6
   3   1  -3 386.296 21.8946   6
  -3  -1  -3 418.660 21.9270   7
   3   1  -3 403.995 21.7687   7
   1  -3  -3 394.291 22.1914   7
   3   1   3 413.965 22.7495   3
   1  -3   3 387.340 22.5329   9
   1  -3   3 331.516 22.4395   7
   3   1   3 381.087 22.1091   9
  -1   3   3 394.028 22.5255   6
  -3  -1   3 411.046 22.3378   4
   1  -3   3 374.612 21.9758   5
  -1   3   3 422.608 22.6643   8
  -1   3   3 395.883 22.9060   1
   3   1   3 369.149 22.1308   6
  -3  -1   3 417.802 21.9391   6
   3   1   3 389.048 22.0519   8
  -3  -1   3 399.996 22.0774   5
   1  -3   3 414.280 22.7012   2
   0  -3  -3 1.90931 2.57344   5
  -3   0  -3 2.77485 1.47556   8
   0  -3  -3 4.44701 2.83624   2
   3   0  -3 2.70856 2.61032   6
   0  -3  -3 0.68170 1.60097   7
   0   3  -3 -0.3110 2.00681   7
   3   0  -3 2.91900 1.85842   2
   0  -3  -3 7.98574 3.22724   6
   0   3  -3 3.58906 3.72579   3
  -3   0  -3 0.79273 2.19253   1
   0  -3  -3 -1.8533 4.35160   4
   0   3  -3 1.25350 2.49857   8
  -3   0  -3 -0.4242 2.95596   4
   3   0  -3 0.68417 1.99918   9
   3   0  -3 -0.5004 1.72595   5
   3   0  -3 -3.4441 4.90640   3
  -3   0  -3 -1.4413 1.34344   7
   0  -3   3 4.02807 2.80593   2
   3   0   3 -0.6640 1.89625   3
   0   3   3 1.79228 2.64248   1
  -3   0   3 0.04392 1.59432   5
   0   3   3 -0.5155 2.60633   3
   0  -3   3 8.43802 2.41847   6
   0  -3   3 1.20287 2.51589   5
  -3   0   3 3.52612 2.34168   4
   0   3   3 -0.4040 1.94977   8
   3   0   3 0.91477 2.04441   9
   3  -1  -3 408.654 22.5083   5
   3  -1  -3 421.855 22.6763   7
  -3   1  -3 418.566 23.0804   1
   1   3  -3 412.901 22.5249   7
  -3   1  -3 449.895 23.3488   4
  -3   1  -3 413.135 22.6077   7
  -3   1  -3 432.647 22.7836   8
  -1  -3  -3 408.180 22.7461   1
  -1  -3  -3 388.498 23.1264   5
   1   3  -3 403.862 23.4743   8
   3  -1  -3 388.132 22.5278   6
   3  -1  -3 402.247 23.1320   9
  -1  -3  -3 372.945 22.6829   2
  -1  -3  -3 380.362 22.8812   6
  -1  -3  -3 424.283 22.5344   7
   3  -1  -3 409.371 22.6194   2
   1   3  -3 421.632 23.2091   9
  -1  -3  -3 403.411 22.8580   4
  -1  -3   3 404.246 23.0244   5
  -3   1   3 346.354 22.8821   1
  -3   1   3 408.564 22.5345   6
   1   3   3 401.942 22.9685   3
   3  -1   3 417.634 23.3348   9
   1   3   3 421.758 23.0791   8
   1   3   3 407.492 22.8317   1
  -1  -3   3 428.693 23.3864   6
   3  -1   3 348.743 22.4776   7
   3  -1   3 404.924 22.4189   2
  -1  -3   3 440.433 22.8429   2
   1   3   3 426.242 22.7908   6
   3  -1   3 394.665 23.0808   3
   3  -2  -3 432.158 24.3110   5
   2   3  -3 434.168 24.4455   9
   2   3  -3 457.975 24.2308   7
  -2  -3  -3 439.520 24.4221   1
   3  -2  -3 434.508 24.5203   2
  -2  -3  -3 439.915 24.6905   4
  -3   2  -3 430.889 24.3792   7
   2   3  -3 454.185 25.5972   8
  -3   2  -3 456.731 24.5590   8
  -2  -3  -3 436.277 25.1166   5
   3  -2  -3 472.878 24.6876   7
   3  -2  -3 437.991 25.0750   9
   2   3  -3 381.705 26.6606   3
  -3   2  -3 426.135 24.8743   1
  -3   2  -3 471.211 25.0992   4
  -2  -3  -3 437.407 24.1995   7
  -3   2  -3 430.322 24.7266   3
   3  -2   3 426.076 24.8146   3
   3  -2   3 427.000 24.5894   2
  -2  -3   3 455.367 24.4163   6
  -2  -3   3 452.353 24.0611   4
  -3   2   3 458.349 24.5235   6
  -3   2   3 405.575 24.5292   4
   2   3   3 411.762 24.9915   3
   3  -2   3 435.392 25.2250   9
  -3   2   3 424.076 25.1153   1
  -2  -3   3 462.695 24.3610   2
   3  -2   3 439.072 24.5575   6
   2   3   3 456.577 24.3899   6
  -2  -3   3 433.603 24.7205   5
   2   3   3 448.997 24.7912   8
   3  -2   3 389.380 24.2670   7
  -3   3  -3 92.6645 7.80283   3
   3  -3  -3 87.9760 7.69222   7
  -3   3  -3 87.4017 7.04462   8
  -3  -3  -3 89.5122 6.63774   7
  -3  -3  -3 87.6451 9.25010   6
   3  -3  -3 97.8089 8.76577   9
  -3  -3  -3 91.3273 8.89481   5
   3   3  -3 93.6128 6.82280   7
   3   3  -3 92.4690 7.27343   2
   3  -3  -3 88.3212 7.03553   5
  -3   3  -3 100.516 7.36167   7
  -3   3  -3 66.6809 9.51564   4
  -3  -3  -3 98.0684 7.59373   1
   3   3  -3 84.7628 6.79284   9
   3   3  -3 70.5384 9.89218   8
  -3   3  -3 101.244 9.34773   1
  -3   3  -3 73.6412 7.81524   6
   3  -3   3 100.115 8.62294   3
   3   3   3 88.6712 7.14157   6
  -3   3   3 72.0175 10.6405   1
  -3   3   3 106.134 8.53408   4
  -3   3   3 110.896 7.78549   6
  -3  -3   3 96.1021 7.20046   2
   3  -3   3 85.4574 8.46115   2
  -3  -3   3 100.394 7.55551   4
   3  -3   3 81.3684 10.3248   9
  -3  -3   3 81.2229 7.20795   6
   3   3   3 105.436 7.25553   8
   3   3   3 84.9556 8.55195   3
  -3   3   3 100.161 8.04563   8
  -3   4  -3 171.189 12.4465   3
  -3   4  -3 169.457 15.1428   1
  -4  -3  -3 168.981 12.6616   4
   3  -4  -3 174.320 12.1673   5
   3  -4  -3 180.919 13.1010   9
   4   3  -3 175.640 12.4508   7
  -4  -3  -3 166.612 13.8666   7
   4   3  -3 185.427 18.4071   3
   3  -4  -3 171.118 13.3955   7
   3  -4  -3 178.900 13.2462   2
  -3   4  -3 169.657 12.7606   8
  -4  -3  -3 160.703 19.2880   5
   4   3  -3 167.008 12.2007   9
   4   3   3 166.397 11.5914   6
   4   3   3 160.287 14.1801   3
   3  -4   3 152.846 13.5444   9
  -4  -3   3 166.995 12.4358   5
   4   3   3 176.416 12.6254   8
  -4  -3   3 179.112 13.0548   6
  -3   4   3 174.734 13.1561   4
  -3   4   3 178.031 14.5842   1
   3  -4   3 168.426 12.9741   2
  -3   4   3 176.576 12.8219   8
   3  -4   3 171.274 12.7695   6
  -2   4  -3 9.55913 4.34982   3
  -2   4  -3 6.03638 3.22735   7
  -4  -2  -3 -1.0889 5.41374   5
   2  -4  -3 2.70962 3.25027   7
   4   2  -3 10.3905 2.86968   2
  -2   4  -3 4.55361 3.98404   8
  -4  -2  -3 3.44673 2.28387   7
   2  -4  -3 7.64195 4.04297   4
  -4  -2  -3 5.54169 4.40892   4
  -4  -2  -3 3.53911 3.33557   1
   4   2  -3 1.07389 7.99282   3
  -2   4  -3 3.83361 6.31612   1
   2  -4  -3 6.12134 4.00851   9
   2  -4  -3 4.95766 4.20426   2
   2  -4  -3 4.81744 4.65754   5
   4   2   3 0.39013 2.55594   8
  -4  -2   3 8.27254 3.38327   5
   2  -4   3 2.73557 3.70813   6
  -2   4   3 -3.0865 4.46285   4
  -4  -2   3 1.47221 3.23315   6
  -2   4   3 3.21265 5.66922   1
   2  -4   3 -0.4927 4.59398   2
   2  -4   3 6.06693 4.60295   9
   4   2   3 3.61355 2.83423   9
  -4  -2   3 -1.4547 3.28012   4
   2  -4   3 3.11221 3.36623   5
   4   2   3 0.46379 4.01128   3
   4   2   3 3.66986 3.03804   6
  -2   4   3 8.76357 4.14465   8
  -2   4   3 2.26775 3.81111   6
  -1   4  -3 415.400 25.9920   1
   4   1  -3 385.401 23.8592   2
   1  -4  -3 443.126 24.6725   7
  -1   4  -3 366.464 25.6334   3
  -4  -1  -3 435.880 24.2535   7
   4   1  -3 447.843 24.1759   7
  -1   4  -3 458.485 24.7726   7
  -4  -1  -3 394.483 24.4272   6
   4   1  -3 410.928 24.7178   9
   1  -4  -3 461.952 24.9661   5
  -1   4  -3 425.006 25.3026   8
  -4  -1  -3 443.406 24.3373   8
  -4  -1  -3 437.255 25.0215   4
   4   1  -3 487.838 28.2446   3
  -4  -1  -3 471.325 24.5299   1
  -4  -1  -3 390.670 25.3242   5
   1  -4  -3 444.045 24.8163   4
   1  -4  -3 432.809 25.0519   2
   1  -4   3 387.073 24.2064   5
   4   1   3 422.739 24.5601   9
  -1   4   3 472.954 25.4085   8
   4   1   3 434.580 24.2356   6
  -4  -1   3 444.681 24.2640   6
   4   1   3 441.783 24.4084   8
  -4  -1   3 423.662 24.6396   4
  -4  -1   3 444.387 24.5116   5
  -1   4   3 463.565 25.2931   6
   4   1   3 417.078 25.1001   3
   1  -4   3 461.800 24.9426   9
   1  -4   3 426.970 24.9578   2
  -1   4   3 432.962 25.1772   1
   1  -4   3 444.504 24.9712   6
   0   4  -3 7.98302 3.38743   8
   0  -4  -3 0.63044 2.53708   7
  -4   0  -3 1.48345 1.82249   7
   0   4  -3 -2.2728 3.21232   9
   4   0  -3 -1.6855 2.10728   7
   0  -4  -3 1.09544 3.40573   5
   0   4  -3 -6.5742 3.13732   7
   4   0  -3 -3.0537 2.95825   9
   4   0  -3 -1.8582 2.14075   2
   0  -4  -3 -2.3304 4.24406   2
  -4   0  -3 3.02790 2.66119   1
   4   0  -3 0.17164 7.27585   3
   0  -4  -3 -2.1384 2.92975   4
  -4   0  -3 1.11469 1.88507   8
   0   4  -3 -1.6250 4.90186   6
  -4   0  -3 3.76203 4.02358   4
   0   4  -3 4.54288 4.73361   3
  -4   0  -3 5.67710 3.34400   6
   0  -4   3 -1.2052 2.75447   6
   0  -4   3 -1.9300 3.27594   2
   4   0   3 2.75759 2.55022   6
  -4   0   3 1.86942 2.42588   6
   0   4   3 2.21326 3.53625   6
   0  -4   3 -1.2981 3.53028   5
  -4   0   3 1.68865 2.32533   5
   0   4   3 -0.5855 4.22533   3
   4   0   3 1.75444 2.60260   3
   0   4   3 -3.0339 2.79154   8
   4   0   3 3.70424 2.53324   9
  -4   0   3 -3.1383 2.89039   4
   0   4   3 0.39667 4.04575   1
   0  -4   3 3.62986 2.87809   9
  -4   1  -3 450.413 24.8437   7
   1   4  -3 439.767 24.9537   9
   4  -1  -3 439.125 25.2661   9
  -1  -4  -3 459.442 24.9948   4
  -4   1  -3 381.310 24.5921   6
  -1  -4  -3 406.325 25.3864   2
  -1  -4  -3 447.573 24.7723   7
   4  -1  -3 497.808 27.1521   3
   4  -1  -3 441.301 24.5275   2
  -1  -4  -3 422.161 25.2977   5
  -4   1  -3 464.968 24.7147   8
   4  -1  -3 433.548 24.5685   5
   1   4  -3 365.820 26.6400   3
   1   4  -3 474.701 24.8720   7
   4  -1  -3 441.977 24.7209   7
   1   4  -3 435.912 26.2068   6
   1   4  -3 399.226 25.7821   8
  -4   1  -3 480.601 25.3540   1
  -4   1  -3 459.871 25.9206   4
  -4   1   3 406.421 25.0187   1
   4  -1   3 437.702 25.3627   9
   1   4   3 449.419 26.6862   3
  -4   1   3 434.022 24.5724   5
  -1  -4   3 480.862 25.2610   2
   1   4   3 471.922 25.6236   8
   4  -1   3 405.344 25.1169   3
   4  -1   3 429.071 24.2598   2
   4  -1   3 444.790 24.8189   6
  -1  -4   3 401.221 25.1351   5
   1   4   3 463.620 25.2128   1
   1   4   3 458.301 25.1853   6
  -4   1   3 420.534 25.2088   4
  -4   1   3 460.954 24.7624   6
   4  -2  -3 2.59826 3.61623   9
   2   4  -3 -3.0230 5.66683   8
   4  -2  -3 0.67841 3.25567   2
  -2  -4  -3 4.31544 2.86259   7
   2   4  -3 -6.6626 6.74637   3
  -2  -4  -3 -1.1837 3.42950   1
  -4   2  -3 3.06662 4.49955   1
  -4   2  -3 4.69574 5.74796   4
  -2  -4  -3 3.61581 4.15870   5
  -2  -4  -3 4.78140 4.53679   2
   4  -2  -3 1.17968 3.14257   7
   2   4  -3 6.92732 3.10308   9
   4  -2  -3 8.19069 2.90721   5
   2   4  -3 3.82611 3.43311   7
  -4   2  -3 2.21408 2.48025   7
  -4   2  -3 7.16863 2.34627   8
   4  -2   3 2.47229 3.55964   2
  -2  -4   3 4.05123 4.21913   5
  -2  -4   3 5.96593 4.68259   2
   2   4   3 1.35946 4.31683   8
  -2  -4   3 4.70527 3.22226   4
   2   4   3 6.17754 4.57714   1
  -4   2   3 2.92035 2.95275   6
   4  -2   3 3.65419 3.61744   3
  -4   2   3 2.76127 4.77147   1
   2   4   3 1.63618 4.07058   6
   4  -2   3 3.64927 3.03757   6
  -2  -4   3 5.73367 4.14408   6
  -4   2   3 2.85761 4.14554   4
   2   4   3 3.60596 4.71418   3
   4  -2   3 1.93660 4.15935   9
   4  -3  -3 165.411 14.6329   9
   3   4  -3 173.394 12.6006   9
   3   4  -3 181.200 18.4558   3
  -4   3  -3 184.609 14.3963   1
  -3  -4  -3 160.948 12.7892   7
   4  -3  -3 179.467 13.5280   7
  -3  -4  -3 177.030 13.2683   5
   3   4  -3 150.966 14.4381   8
  -4   3  -3 167.918 13.9671   3
  -4   3  -3 161.479 14.3921   4
   4  -3  -3 149.312 12.1612   5
  -3  -4  -3 167.068 14.0492   1
   3   4  -3 176.676 12.6615   7
   4  -3  -3 174.886 12.1339   2
  -3  -4  -3 159.277 12.2384   4
  -4   3  -3 174.196 12.1155   8
   4  -3   3 172.893 13.7437   9
   3   4   3 179.140 14.4687   3
  -3  -4   3 170.176 11.7644   4
   3   4   3 155.259 12.5095   6
   3   4   3 180.622 13.2992   8
  -3  -4   3 166.877 12.0901   2
   4  -3   3 189.359 14.3916   2
   4  -3   3 158.193 12.8219   3
  -3  -4   3 160.291 12.4739   5
   4  -3   3 190.019 12.2146   6
  -4   3   3 162.534 13.1119   4
  -3  -4   3 171.038 12.8809   6
  -4   3   3 182.883 14.2781   1
  -4   3   3 178.824 11.2452   8
   4   4  -3 -8.6496 8.73789   8
  -4   4  -3 9.58181 7.64135   1
   4   4  -3 9.71482 6.07137   7
  -4   4  -3 -13.186 11.1534   4
   4  -4  -3 -1.2532 4.35615   5
   4   4  -3 -2.9241 9.91571   3
  -4   4  -3 4.61157 4.80539   3
  -4  -4  -3 6.23244 5.37085   4
   4  -4  -3 0.93614 6.08308   7
  -4   4  -3 -5.1539 4.79470   7
  -4  -4  -3 3.47163 6.45538   5
   4  -4  -3 -1.6828 6.87612   9
  -4   4  -3 -2.1162 4.52016   8
   4  -4  -3 4.49983 4.90015   2
  -4  -4  -3 3.06929 4.92004   1
   4   4  -3 -0.1983 4.55543   9
  -4  -4  -3 -0.0307 4.48569   7
  -4   4   3 2.17822 5.04940   8
  -4   4   3 -9.4070 6.76985   4
   4   4   3 5.56957 5.88953   8
   4   4   3 0.03217 6.20374   6
  -4  -4   3 0.35525 5.02953   6
  -4  -4   3 -3.1415 4.32772   4
   4   4   3 1.48328 7.22580   3
  -4  -4   3 4.54708 4.75145   2
   4  -4   3 6.39990 5.76906   6
  -4  -4   3 5.28279 5.79052   5
  -4   4   3 6.76922 7.75814   1
   4  -4   3 -3.4422 5.29851   2
   4  -4   3 4.32936 5.24205   3
  -4   4   3 0.88434 5.08232   6
   4  -4   3 9.51343 6.01595   9
  -5  -4  -3 1137.11 63.7969   7
  -5  -4  -3 1216.49 63.4141   1
  -4   5  -3 1215.94 66.1670   1
  -5  -4  -3 1240.08 65.1097   5
  -5  -4  -3 1107.21 63.9753   4
  -4   5  -3 1210.77 64.8476   8
   5   4  -3 1026.41 68.4904   3
   4  -5  -3 1165.39 64.5638   2
   5   4  -3 1128.82 63.9013   7
  -4   5  -3 1144.12 63.8744   3
   4  -5  -3 1109.93 65.0912   9
  -4   5  -3 1126.78 64.1673   7
   4  -5  -3 1199.06 63.7235   5
   5   4  -3 1051.51 63.5165   9
   4  -5  -3 1102.08 64.6855   7
  -5  -4   3 1211.08 64.7264   5
   4  -5   3 1164.60 65.1907   9
   5   4   3 1159.32 64.0344   6
  -4   5   3 1303.79 64.7346   4
   4  -5   3 1155.44 64.8479   6
  -4   5   3 1199.67 64.4467   6
  -5  -4   3 1123.97 63.6846   6
   5   4   3 1064.72 64.4789   8
  -4   5   3 1306.99 64.5640   8
  -5  -4   3 1110.33 63.0771   2
   4  -5   3 1174.09 64.1789   3
   5   4   3 1039.73 65.7104   3
  -4   5   3 1207.64 65.3981   1
   4  -5   3 1128.11 64.1121   2
  -5  -4   3 1149.46 63.4450   4
  -5  -3  -3 599.310 34.7821   5
  -3   5  -3 565.823 33.7375   7
   3  -5  -3 576.726 34.2137   7
  -5  -3  -3 624.981 32.9003   1
  -5  -3  -3 548.262 33.6182   4
   5   3  -3 580.366 33.2853   7
   3  -5  -3 567.384 33.2433   5
  -3   5  -3 611.117 34.4119   8
   3  -5  -3 550.117 34.2522   2
  -3   5  -3 607.920 33.9507   3
   5   3  -3 562.370 32.5603   2
   5   3  -3 575.294 33.5934   9
   3  -5  -3 544.380 33.9805   9
  -3   5  -3 602.239 35.9856   1
   5   3  -3 535.966 38.5910   3
  -5  -3  -3 576.883 33.1509   7
  -5  -3   3 545.473 33.0192   4
   3  -5   3 555.963 34.2126   9
  -5  -3   3 558.978 32.4967   2
   3  -5   3 589.644 34.5005   6
  -3   5   3 583.569 35.0254   1
   5   3   3 486.912 32.1303   9
   5   3   3 604.979 35.4831   3
  -5  -3   3 607.159 33.8681   5
   5   3   3 593.363 33.1911   6
   5   3   3 587.915 33.7902   8
  -3   5   3 611.074 34.6410   8
   3  -5   3 595.611 33.6404   2
  -5  -3   3 579.706 33.1679   6
  -3   5   3 594.048 33.8765   6
  -3   5   3 596.446 33.6800   4
  -5  -2  -3 1082.34 62.3892   4
   2  -5  -3 1107.80 62.4945   2
   2  -5  -3 1187.41 62.6860   7
   2  -5  -3 1159.22 62.2591   5
  -5  -2  -3 1133.09 63.0200   5
  -5  -2  -3 1174.30 61.4977   1
   2  -5  -3 1083.11 63.7136   9
  -2   5  -3 1162.85 63.2131   8
   5   2  -3 1187.68 61.8841   7
  -2   5  -3 1114.94 62.6431   3
   2  -5  -3 1136.97 61.9451   4
   5   2  -3 1057.70 65.5697   3
  -5  -2  -3 1146.60 61.8570   7
   5   2  -3 1138.29 61.1299   2
  -2   5  -3 1180.09 62.3732   7
   5   2  -3 1162.75 62.6620   9
  -2   5  -3 1193.50 63.4013   1
   2  -5   3 1053.58 61.2014   5
  -5  -2   3 1137.38 62.0675   5
  -2   5   3 1220.39 63.1010   8
   2  -5   3 1119.11 62.0678   2
   2  -5   3 1016.53 65.5574   6
   2  -5   3 1132.74 62.4041   9
  -2   5   3 1218.67 62.0973   4
  -5  -2   3 1112.32 61.9199   4
  -5  -2   3 1144.13 61.6813   6
   5   2   3 1045.33 61.9082   6
   5   2   3 1126.66 62.0301   8
  -2   5   3 1116.96 62.6542   1
   5   2   3 1106.50 62.9275   3
   5   2   3 1149.36 62.3698   9
  -2   5   3 1146.57 62.5174   6
  -5  -1  -3 720.428 46.3881   5
  -1   5  -3 785.640 45.5638   1
  -5  -1  -3 771.308 44.6554   7
   1  -5  -3 787.907 44.3404   5
   5   1  -3 830.089 44.7763   9
   1  -5  -3 823.241 44.3063   7
   1  -5  -3 794.068 45.5514   4
  -5  -1  -3 734.974 44.4381   4
  -1   5  -3 893.079 46.0756   7
   5   1  -3 827.440 43.7077   7
   1  -5  -3 765.172 44.6317   2
  -5  -1  -3 834.584 43.7266   1
  -1   5  -3 679.900 44.9013   3
   5   1  -3 817.507 43.1465   2
  -1   5  -3 825.304 45.4962   8
   1  -5   3 783.237 44.1166   2
   5   1   3 741.950 44.6947   3
  -5  -1   3 826.148 43.8454   5
  -5  -1   3 789.370 44.0114   4
  -1   5   3 768.805 44.6467   1
   1  -5   3 817.320 44.2274   9
   5   1   3 842.378 43.9726   6
   5   1   3 785.455 44.4642   9
   1  -5   3 845.270 44.4565   6
  -1   5   3 852.271 45.2117   8
   5   1   3 678.536 45.2120   8
   1  -5   3 742.077 43.3604   5
  -5   0  -3 -1.9662 6.64629   5
   5   0  -3 4.89808 4.14953   7
   5   0  -3 -5.2725 9.68890   3
  -5   0  -3 -6.7912 5.37227   4
  -5   0  -3 -0.8274 2.22158   8
   0  -5  -3 2.54140 4.03777   7
   0   5  -3 2.21033 6.87593   3
  -5   0  -3 -2.1993 3.73731   1
   0  -5  -3 5.69015 4.67098   5
   5   0  -3 -1.6331 4.76544   9
   0   5  -3 -0.3199 6.19320   8
   5   0  -3 -2.1764 3.20446   2
  -5   0   3 7.33721 3.60358   5
   5   0   3 5.08762 3.69408   6
   5   0   3 -2.8474 4.35346   9
   5   0   3 1.25255 4.21603   3
   0   5   3 10.7372 5.92485   1
   0   5   3 0.10782 5.66870   8
   0  -5   3 -2.4877 3.45568   6
  -5   0   3 7.56339 4.18284   4
   0   5   3 -4.6963 6.18610   3
   0  -5   3 1.18903 4.65736   2
   1   5  -3 901.370 45.5982   7
  -1  -5  -3 826.880 45.0291   7
   1   5  -3 713.195 46.8202   3
  -5   1  -3 791.807 46.2283   7
   5  -1  -3 841.622 45.6283   9
  -1  -5  -3 860.068 44.5405   4
   5  -1  -3 748.206 43.9673   2
  -1  -5  -3 784.477 45.1566   2
   5  -1  -3 809.000 44.7613   7
  -1  -5  -3 762.072 44.9649   5
   1   5  -3 818.873 46.6606   8
   5  -1  -3 841.669 44.3999   5
  -5   1  -3 852.358 45.0054   1
  -5   1  -3 816.994 45.5242   4
   5  -1   3 752.851 45.1213   3
   1   5   3 811.029 45.1042   1
   5  -1   3 816.832 44.7711   6
   1   5   3 845.587 45.6277   3
   1   5   3 846.596 46.2855   8
  -1  -5   3 755.823 45.4640   6
  -1  -5   3 751.383 44.9954   5
  -5   1   3 887.642 44.4341   5
   5  -1   3 767.876 43.5556   2
  -1  -5   3 748.755 44.9209   2
   5  -1   3 804.339 45.7403   9
  -5   1   3 794.113 45.0866   4
  -2  -5  -3 1181.51 62.8410   7
   2   5  -3 1104.17 64.6208   8
  -5   2  -3 1170.20 62.7675   7
  -2  -5  -3 1094.50 62.5759   2
   5  -2  -3 1081.96 62.0859   2
   2   5  -3 1098.23 62.4191   9
   2   5  -3 986.835 64.9000   3
  -2  -5  -3 1191.67 62.4049   4
  -2  -5  -3 1149.04 63.1405   5
   2   5  -3 1165.02 62.8218   7
   5  -2  -3 1112.23 62.1476   5
  -5   2  -3 1197.64 62.5008   8
   5  -2  -3 1155.74 62.9222   7
  -5   2  -3 1163.43 63.1076   1
   5  -2  -3 1187.03 63.7677   9
  -5   2  -3 996.992 65.7970   4
  -5   2   3 1184.45 63.1475   4
  -2  -5   3 1128.37 63.2069   5
   2   5   3 1173.32 62.9069   6
  -5   2   3 1145.06 62.4849   6
   2   5   3 1282.66 64.1068   3
   2   5   3 1154.11 62.5711   1
   5  -2   3 1124.33 62.9943   3
   5  -2   3 1177.13 62.0096   2
  -2  -5   3 1124.16 62.6951   2
   5  -2   3 1164.46 64.1255   9
  -2  -5   3 1108.50 63.0289   6
  -5   2   3 1080.88 62.8493   1
  -5   2   3 1162.33 62.1300   5
   2   5   3 1202.80 64.1337   8
  -2  -5   3 1217.26 62.9756   4
  -5   3  -3 578.777 34.5588   1
   5  -3  -3 567.802 33.1949   2
   3   5  -3 536.290 36.2375   8
   3   5  -3 593.634 34.0658   7
   5  -3  -3 607.766 35.3552   9
  -3  -5  -3 591.764 33.8329   7
   5  -3  -3 584.956 34.3434   7
   3   5  -3 597.151 33.3819   9
  -5   3  -3 613.054 33.5071   8
  -3  -5  -3 593.820 34.2377   5
  -3  -5  -3 582.353 33.6465   1
   5  -3  -3 576.166 32.9575   5
  -3  -5  -3 589.480 33.5937   4
  -5   3  -3 581.278 33.6831   7
   3   5  -3 627.998 38.8439   3
  -3  -5   3 548.509 33.8046   6
  -3  -5   3 574.258 32.6918   4
   5  -3   3 556.117 35.3611   9
  -3  -5   3 548.439 33.6150   2
   3   5   3 609.335 35.9221   3
  -3  -5   3 575.473 34.4111   5
   5  -3   3 554.990 33.8239   3
   5  -3   3 544.384 33.7380   6
  -5   3   3 550.389 33.5624   6
   3   5   3 589.152 34.0043   6
  -5   3   3 631.327 34.5524   4
  -5   3   3 553.164 34.8862   1
   5  -3   3 572.769 33.2347   2
   3   5   3 635.364 35.6624   8
   3   5   3 584.735 33.6273   1
   5  -4  -3 1108.29 62.9744   2
  -4  -5  -3 1242.38 64.1093   5
   4   5  -3 1098.61 67.9121   3
  -5   4  -3 1204.67 63.4600   8
   4   5  -3 963.389 64.9246   8
   4   5  -3 1096.96 62.6830   9
   4   5  -3 1166.87 63.4652   7
   5  -4  -3 1080.83 62.4490   5
   5  -4  -3 1200.43 65.0965   9
  -5   4  -3 1082.01 63.1168   7
   5  -4  -3 1190.09 64.0827   7
  -4  -5  -3 1097.67 62.5650   1
  -5   4  -3 1154.58 64.5401   1
  -4  -5  -3 1102.89 62.9422   4
  -4  -5  -3 1070.74 63.0709   7
  -5   4   3 1202.97 63.5831   6
  -5   4   3 1270.79 64.0291   4
  -4  -5   3 1132.42 62.2021   4
  -4  -5   3 1137.08 63.1506   6
   4   5   3 1074.65 65.1873   3
   5  -4   3 1132.46 63.3672   3
   4   5   3 1180.38 62.8635   1
  -4  -5   3 1156.35 62.9294   2
   4   5   3 1182.52 65.0056   8
   5  -4   3 1091.92 62.9778   2
   5  -4   3 1100.18 64.9980   9
   4   5   3 1178.69 63.5628   6
  -5   4   3 1202.30 64.8873   1
  -4  -5   3 1174.62 64.1570   5
   5  -4   3 1159.18 63.7754   6
  -5  -5  -3 142.987 15.1907   5
   5  -5  -3 115.083 18.8768   9
  -5   5  -3 127.579 14.2672   8
   5   5  -3 135.674 16.2344   7
  -5   5  -3 119.946 19.2965   1
   5   5  -3 130.981 14.1767   9
  -5  -5  -3 141.408 13.9996   4
   5  -5  -3 126.091 14.4550   2
   5  -5  -3 145.932 13.3106   5
  -5  -5  -3 139.333 14.7331   7
   5   5  -3 127.780 21.0773   3
   5  -5  -3 119.499 19.0363   7
  -5  -5  -3 135.170 14.7483   1
  -5  -5   3 131.770 14.0152   2
   5   5   3 147.051 19.5840   3
  -5  -5   3 136.646 15.2878   5
   5  -5   3 140.629 16.3878   3
  -5   5   3 140.242 16.6024   1
  -5  -5   3 119.607 14.3680   4
  -5  -5   3 108.084 15.6279   6
  -5   5   3 111.875 15.6544   6
   5   5   3 124.577 16.5517   8
  -5   5   3 143.034 16.9545   4
   5  -5   3 113.989 18.9765   6
   5  -5   3 120.401 16.9129   9
   5  -5   3 113.742 14.6644   2
   5   5   3 169.009 17.4874   6
   6   5  -3 153.284 18.4148   9
   6   5  -3 161.832 24.6831   3
   5  -6  -3 170.698 18.6881   2
   5  -6  -3 171.635 16.9160   5
  -6  -5  -3 150.103 17.2427   4
  -6  -5  -3 193.137 20.3894   5
  -5   6  -3 183.215 18.0626   8
  -5   6  -3 141.813 19.8413   1
  -6  -5   3 173.973 16.8800   4
   5  -6   3 190.349 19.4274   9
   6   5   3 161.550 24.8704   3
  -5   6   3 165.461 20.5593   4
  -5   6   3 140.956 19.1038   1
   5  -6   3 169.175 17.8261   2
  -6  -5   3 195.269 18.7146   5
   4  -6  -3 4.97880 9.25426   7
   6   4  -3 8.78780 15.0538   3
  -4   6  -3 -4.4920 12.4557   1
  -4   6  -3 4.32378 7.64104   8
  -6  -4  -3 14.1400 10.2829   5
   6   4  -3 9.82133 9.95387   7
   6   4  -3 -3.1421 8.01535   9
  -6  -4  -3 -1.4688 8.92304   4
  -6  -4  -3 7.33340 7.36577   1
   4  -6  -3 -4.7696 7.51632   5
  -6  -4   3 -2.3972 7.07189   2
  -4   6   3 -2.6610 9.23763   6
  -4   6   3 6.70228 9.87794   8
  -6  -4   3 -7.7020 6.70310   4
   4  -6   3 -5.6304 7.66945   2
   4  -6   3 6.29560 14.7479   6
   6   4   3 -10.538 10.1937   6
   4  -6   3 -5.2281 7.49217   9
  -6  -4   3 14.4335 8.68131   5
  -6  -4   3 2.72719 8.10753   6
   6   4   3 -1.6437 9.08887   8
  -3   6  -3 31.7381 13.1324   1
   6   3  -3 27.2599 8.98451   7
   6   3  -3 28.8615 7.67779   9
   6   3  -3 27.1050 6.86129   2
  -3   6  -3 28.5193 7.81843   7
  -6  -3  -3 30.5200 10.1372   5
  -3   6  -3 12.2575 7.51232   3
  -6  -3  -3 28.1353 6.50755   1
  -3   6  -3 26.8836 8.46957   8
   6   3  -3 2.06719 13.7956   3
  -6  -3  -3 28.3882 8.13612   4
  -6  -3  -3 30.8885 7.01223   7
   3  -6  -3 34.1300 8.86892   2
   3  -6  -3 28.2811 7.40105   5
   3  -6  -3 42.8627 8.42840   7
  -3   6   3 22.4468 10.6556   1
  -6  -3   3 42.2355 6.62844   2
  -6  -3   3 26.1249 6.76336   4
  -6  -3   3 31.0738 7.65851   5
   6   3   3 24.9594 7.51564   8
   6   3   3 36.4014 8.65203   6
  -3   6   3 22.5228 9.01901   4
  -3   6   3 31.3556 10.1828   8
   3  -6   3 30.0826 9.16238   6
   3  -6   3 23.2575 7.68003   9
   6   3   3 23.7015 6.43709   9
  -3   6   3 33.5695 8.19647   6
  -6  -3   3 27.8624 7.12506   6
   6   3   3 22.8779 9.44727   3
   3  -6   3 22.7200 6.95063   2
  -6  -2  -3 16.7381 7.02773   4
   2  -6  -3 23.5725 7.07613   2
  -2   6  -3 5.96127 7.20149   8
   2  -6  -3 8.57009 6.23024   7
   6   2  -3 8.23163 7.22617   9
   2  -6  -3 14.3088 5.80415   4
  -2   6  -3 16.5846 6.39251   7
   6   2  -3 27.9584 13.5126   3
  -2   6  -3 14.2729 7.51213   3
  -6  -2  -3 19.4813 5.07027   1
  -2   6  -3 52.6823 12.0487   1
   2  -6  -3 29.8708 6.70082   5
   6   2  -3 12.3986 5.11545   2
  -6  -2  -3 15.0396 5.20796   7
  -6  -2  -3 21.8871 9.54348   5
   6   2  -3 15.6150 7.11187   7
   6   2   3 26.7724 7.11560   6
  -6  -2   3 8.32269 6.21975   5
  -6  -2   3 32.8106 6.59920   4
   2  -6   3 24.1250 6.19197   9
   6   2   3 16.0752 5.62668   8
   6   2   3 13.9587 7.70895   3
  -6  -2   3 21.7534 6.18332   6
  -2   6   3 9.56322 7.67180   4
  -2   6   3 30.5117 7.68952   6
   2  -6   3 13.6692 7.04862   6
   2  -6   3 5.20495 5.74501   2
   2  -6   3 15.0050 5.53722   5
   6   2   3 22.5496 6.09316   9
  -2   6   3 17.8267 8.44768   8
  -2   6   3 19.1614 9.58910   1
   6   1  -3 903.782 55.2488   3
  -1   6  -3 852.655 49.8383   7
  -6  -1  -3 870.627 49.5379   7
   1  -6  -3 871.646 49.1675   4
  -1   6  -3 906.062 51.6503   8
  -1   6  -3 908.087 51.1668   3
  -6  -1  -3 966.508 49.5223   1
   1  -6  -3 886.622 50.6842   2
   1  -6  -3 891.520 50.1056   5
   6   1  -3 910.655 49.5753   7
   6   1  -3 848.565 48.5687   2
   1  -6  -3 873.960 49.8719   7
   6   1  -3 887.194 50.6294   9
  -6  -1  -3 887.277 50.7462   4
  -1   6  -3 964.583 52.1274   1
  -6  -1   3 857.861 49.7612   4
   1  -6   3 928.896 50.3061   6
  -1   6   3 889.270 50.7217   1
  -1   6   3 922.035 49.6201   4
   6   1   3 853.866 50.8452   3
  -6  -1   3 886.547 49.3940   6
  -6  -1   3 910.152 49.6693   5
   6   1   3 908.986 49.5389   6
   6   1   3 838.208 49.2857   8
   1  -6   3 889.265 49.8194   9
   6   1   3 904.726 50.0942   9
  -1   6   3 931.290 50.6556   6
  -1   6   3 914.511 50.9765   8
   1  -6   3 862.414 49.8864   2
   1  -6   3 849.460 48.9945   5
   0  -6  -3 8.30117 7.45746   2
   0   6  -3 8.69967 7.09134   7
  -6   0  -3 -0.1942 3.37565   8
   6   0  -3 3.90752 13.5230   3
   6   0  -3 -1.9878 5.69910   7
   0   6  -3 -0.7960 8.15829   3
  -6   0  -3 15.9456 5.54873   1
   0  -6  -3 1.21276 4.77781   4
   0  -6  -3 2.27018 5.73044   5
  -6   0  -3 2.06684 4.47587   7
   0   6  -3 -10.040 6.91624   8
   6   0  -3 -5.9457 3.81936   2
  -6   0  -3 -7.7920 6.48581   4
   0  -6  -3 6.42826 4.99205   7
   6   0  -3 4.92500 6.93710   9
   0  -6   3 -4.7651 4.99034   9
   6   0   3 2.83205 5.88209   3
   0  -6   3 0.70355 4.49716   5
  -6   0   3 13.2334 5.22234   5
   0   6   3 4.25441 8.38247   6
  -6   0   3 -2.3645 5.38771   4
   0   6   3 14.5189 8.29329   1
  -6   0   3 -1.9614 4.58542   6
   0  -6   3 2.91997 5.43807   6
   6   0   3 -2.8424 4.20334   8
   6   0   3 4.66091 5.23339   6
   0   6   3 -4.1135 7.12429   8
   6   0   3 -1.8361 5.83255   9
   0  -6   3 5.98404 5.75943   2
   1   6  -3 868.464 50.6339   7
  -1  -6  -3 974.242 50.8499   2
  -1  -6  -3 908.209 49.4954   4
  -6   1  -3 869.194 51.0117   4
   1   6  -3 829.125 52.1264   8
  -6   1  -3 931.374 50.3134   1
  -6   1  -3 935.664 49.5974   8
  -1  -6  -3 908.053 50.4435   5
  -1  -6  -3 912.329 50.5041   7
  -6   1  -3 858.659 49.9611   7
   1   6  -3 924.333 50.3805   9
   6  -1  -3 965.727 51.3252   9
   6  -1  -3 939.989 50.3917   7
   6  -1  -3 859.605 49.1951   2
  -6   1   3 857.924 50.0792   1
   1   6   3 938.873 51.0287   6
   1   6   3 896.535 51.0362   3
  -1  -6   3 891.128 49.9251   9
   6  -1   3 900.940 51.3150   9
   1   6   3 909.446 50.7087   1
  -1  -6   3 857.146 50.0540   5
  -1  -6   3 863.620 50.3545   2
  -1  -6   3 899.447 50.2691   6
   6  -1   3 810.877 50.6362   3
  -6   1   3 890.846 50.6124   4
   1   6   3 930.068 52.2435   8
  -6   1   3 898.163 49.9624   6
   6  -1   3 901.127 50.0848   6
  -6   1   3 899.574 49.6997   5
  -2  -6  -3 17.6810 5.88653   5
  -2  -6  -3 13.0601 6.57067   7
  -2  -6  -3 15.3618 7.93333   2
   6  -2  -3 23.7940 7.41699   9
   2   6  -3 3.09657 10.1661   8
   2   6  -3 20.9656 7.98673   7
   2   6  -3 19.4194 7.45963   9
  -6   2  -3 16.9548 7.47531   1
   6  -2  -3 17.6284 4.89209   2
  -2  -6  -3 18.6327 5.57605   4
  -6   2  -3 7.92117 8.37354   4
   2   6  -3 16.1168 10.8315   3
  -6   2  -3 16.9124 4.85092   8
   6  -2  -3 7.69993 7.06413   7
   6  -2  -3 10.2693 5.83279   5
  -2  -6   3 20.1107 6.44758   9
  -6   2   3 7.62650 7.71929   4
  -6   2   3 26.2659 8.25138   1
  -2  -6   3 16.8457 6.95663   2
  -6   2   3 5.55655 5.33233   5
   2   6   3 22.1202 9.59495   8
   2   6   3 9.62418 8.59489   1
   2   6   3 9.76367 9.14208   6
  -2  -6   3 14.0955 6.83124   5
   2   6   3 -0.8830 8.77338   3
   6  -2   3 10.6200 6.59931   3
   6  -2   3 19.2399 5.52486   2
  -2  -6   3 13.7498 7.18955   6
  -6   2   3 9.79648 6.10163   6
   6  -2   3 18.8490 7.30137   9
   6  -2   3 13.9144 6.90404   6
   3   6  -3 26.9209 12.3244   8
  -3  -6  -3 25.2529 7.54325   7
  -3  -6  -3 29.0992 6.88276   4
  -6   3  -3 19.1238 6.05216   7
  -3  -6  -3 28.2191 7.86688   5
   6  -3  -3 15.2881 5.88044   2
   6  -3  -3 29.9484 9.28115   9
   3   6  -3 45.2193 13.0568   3
  -6   3  -3 10.9832 9.54618   4
   6  -3  -3 19.9369 9.10549   7
   3   6  -3 35.8802 9.67600   7
  -6   3  -3 32.4098 6.46361   8
  -6   3  -3 28.7130 9.01737   1
   3   6  -3 37.0382 8.48136   9
   6  -3  -3 37.5752 7.63589   5
   3   6   3 26.8883 9.67416   1
  -3  -6   3 30.0988 8.56080   5
   3   6   3 27.3530 11.1413   3
   6  -3   3 14.8403 7.70073   3
  -6   3   3 34.4072 7.61458   6
  -6   3   3 25.1601 9.99277   1
   3   6   3 24.7713 10.5091   8
  -6   3   3 29.6190 6.68278   5
   3   6   3 24.3921 10.3796   6
   6  -3   3 34.1804 8.55453   6
   6  -3   3 8.84844 6.73956   2
  -6   3   3 28.6075 10.2980   4
  -3  -6   3 24.0251 8.01311   2
   6  -3   3 32.8364 8.48061   9
   4   6  -3 -11.224 13.6490   8
  -4  -6  -3 -6.2988 6.69529   4
  -6   4  -3 -2.8689 6.72449   8
   4   6  -3 -6.5449 8.17824   9
   6  -4  -3 -1.0278 6.97797   2
   4   6  -3 5.31117 11.8557   7
  -4  -6  -3 1.99511 8.50874   7
  -4  -6  -3 2.40725 8.25894   5
   6  -4  -3 -0.6273 10.2502   9
   6  -4  -3 10.6601 7.35037   5
   6  -4  -3 -6.5396 9.63997   7
   4   6   3 35.9427 11.6024   6
   4   6   3 -6.9918 11.3621   8
   6  -4   3 4.46476 9.00266   3
   4   6   3 -7.7624 12.1327   3
  -6   4   3 -3.8247 7.30150   5
  -4  -6   3 5.11850 8.23193   2
  -4  -6   3 1.78956 14.6596   5
  -4  -6   3 9.42314 9.67239   6
  -6   4   3 -5.6456 10.9472   1
  -6   4   3 4.42785 10.8724   4
   6  -4   3 -3.7682 10.6906   9
   6  -4   3 2.74131 8.17056   2
  -6   4   3 12.3291 8.65190   6
   5   6  -3 179.737 30.4790   3
  -5  -6  -3 160.508 16.5629   4
  -5  -6  -3 172.124 18.3814   5
  -6   5  -3 151.088 22.2292   1
  -6   5  -3 152.172 18.4698   8
   6  -5  -3 177.092 16.8379   2
   6  -5   3 180.595 27.5954   2
  -5  -6   3 179.894 18.2788   2
   6  -5   3 166.129 20.2779   9
  -5  -6   3 169.154 18.4174   5
  -6   5   3 154.413 23.1415   1
   5   6   3 114.216 18.4764   8
  -6   5   3 176.508 30.8488   4
   5   6   3 147.112 24.3622   3
  -6   6  -3 50.8390 17.0217   1
  -6  -6  -3 48.8442 11.3180   4
  -6  -6  -3 79.7801 14.0347   5
  -6   6  -3 24.9870 11.7595   8
   6  -6  -3 58.6090 12.2144   2
   6   6  -3 63.5165 23.2352   3
  -6   6   3 48.7862 18.7011   1
  -6  -6   3 46.0882 13.9010   5
  -6   6   3 50.6881 18.1977   4
   6  -6   3 57.5080 13.0505   2
   6   6   3 36.4346 17.4359   8
   6   6   3 52.8623 19.6954   3
   7   5  -3 2.71196 21.9023   3
   5  -7  -3 64.3611 13.9069   2
  -7  -5  -3 55.0047 13.0660   4
  -7  -5  -3 67.8970 15.1768   5
  -5   7  -3 46.7110 19.4486   1
  -5   7  -3 41.9737 13.0107   8
   7   5  -3 40.6146 13.6109   9
   7   5   3 63.9626 19.6350   3
  -7  -5   3 59.3545 11.4611   4
   5  -7   3 53.0688 13.5440   9
  -5   7   3 81.0660 17.5549   1
  -7  -5   3 51.3969 14.5341   5
   5  -7   3 45.5424 11.6086   2
   4  -7  -3 476.794 34.4381   2
  -4   7  -3 498.965 33.6961   8
   4  -7  -3 437.705 32.3392   5
  -7  -4  -3 509.245 33.1252   4
   7   4  -3 487.018 32.9168   9
   7   4  -3 512.308 43.8966   3
  -7  -4   3 527.688 32.0203   4
  -4   7   3 571.090 40.0396   8
   4  -7   3 523.101 33.9799   9
  -7  -4   3 566.205 34.6100   5
   7   4   3 513.796 38.0224   3
  -4   7   3 575.080 36.8702   1
   7   4   3 433.315 39.6687   8
   4  -7   3 498.409 32.3037   2
   3  -7  -3 121.192 14.9636   5
   3  -7  -3 164.704 18.3678   2
  -3   7  -3 106.599 15.5892   8
  -7  -3  -3 135.250 15.1606   1
   7   3  -3 122.388 21.9938   3
   7   3  -3 167.152 16.0585   9
  -7  -3  -3 131.345 15.3476   4
  -3   7  -3 139.260 18.9863   1
  -7  -3   3 133.873 16.1201   5
  -7  -3   3 107.604 14.0689   4
  -3   7   3 133.123 17.9265   6
   3  -7   3 134.581 15.9796   9
  -3   7   3 139.825 17.1245   8
  -3   7   3 123.267 19.9498   1
   7   3   3 110.582 15.6136   8
   3  -7   3 123.810 14.3467   2
   7   3   3 127.004 16.8891   3
  -2   7  -3 480.440 34.9195   1
   2  -7  -3 505.975 30.1883   7
   7   2  -3 452.750 39.3438   3
  -2   7  -3 413.213 34.7521   8
   7   2  -3 488.581 30.7623   9
   2  -7  -3 450.281 28.7620   5
  -2   7  -3 421.398 29.6796   3
   2  -7  -3 503.408 30.4651   2
   7   2  -3 448.857 27.5540   2
   7   2  -3 468.778 29.6055   7
  -7  -2  -3 478.676 28.3277   1
   2  -7   3 463.318 29.5455   9
  -7  -2   3 455.309 27.7731   2
   7   2   3 428.729 31.3247   6
  -2   7   3 467.826 29.0266   4
   7   2   3 467.547 28.8929   9
   2  -7   3 427.585 30.0452   2
  -2   7   3 496.707 30.8508   6
  -2   7   3 516.869 31.0729   8
   7   2   3 435.359 29.0280   8
  -7  -2   3 433.178 29.2722   6
  -7  -2   3 500.877 29.6293   5
  -2   7   3 487.645 31.4305   1
  -7  -2   3 448.967 33.9988   4
   1  -7  -3 535.238 32.4069   2
  -7  -1  -3 522.152 30.4184   1
  -1   7  -3 460.531 32.5138   8
   7   1  -3 516.893 40.5774   3
   1  -7  -3 519.629 31.4916   7
  -7  -1  -3 523.853 32.0359   4
  -7  -1  -3 455.988 31.5456   7
   1  -7  -3 509.050 30.7897   5
  -1   7  -3 505.708 33.1399   7
  -1   7  -3 428.553 31.9354   3
   7   1  -3 567.432 32.7481   9
   1  -7  -3 529.239 29.9804   4
   7   1  -3 499.252 31.3297   7
  -1   7   3 542.271 32.5541   6
   7   1   3 534.426 31.3112   8
   7   1   3 523.721 31.5636   9
   1  -7   3 517.122 31.3895   6
  -7  -1   3 516.999 31.4139   4
  -7  -1   3 497.476 30.6499   6
   7   1   3 435.667 32.3968   3
   1  -7   3 412.422 33.9232   5
   1  -7   3 501.641 30.8109   2
  -1   7   3 528.704 33.2010   1
   1  -7   3 519.042 30.9167   9
  -1   7   3 519.951 30.6412   4
  -7  -1   3 519.087 31.1174   5
   7   1   3 532.036 31.0289   6
  -1   7   3 524.906 32.4270   8
  -7   0  -3 -10.444 8.00179   4
   0   7  -3 -16.886 9.03782   8
   7   0  -3 2.15995 7.46589   9
   0   7  -3 0.77727 7.95914   7
   7   0  -3 3.44733 17.3625   3
  -7   0  -3 5.06866 5.01827   8
   7   0  -3 6.18053 8.23139   7
   0  -7  -3 -3.6815 6.24854   7
  -7   0  -3 5.09982 6.62928   7
   0  -7  -3 5.88589 8.74232   2
   0  -7  -3 -6.1237 5.22860   4
   0  -7  -3 16.4607 7.24552   5
   7   0  -3 -0.1043 4.89056   2
  -7   0  -3 -3.1499 6.52002   1
   0   7  -3 9.21591 10.2535   3
   0  -7   3 12.1577 7.44163   6
   0   7   3 -1.4034 10.6023   1
   7   0   3 -3.6121 7.52810   3
   0   7   3 1.48732 9.29726   8
   7   0   3 0.75410 6.13680   8
   7   0   3 5.66333 7.35212   6
   7   0   3 -12.205 6.97256   9
   0  -7   3 -1.8413 5.87924   5
  -7   0   3 9.73280 7.19809   4
  -7   0   3 3.88836 7.05755   5
   0  -7   3 1.78946 6.63002   9
   0   7   3 9.20929 10.4768   6
   0  -7   3 -1.9842 6.72862   2
  -7   0   3 -9.3702 6.07339   6
   1   7  -3 489.615 34.3879   8
  -7   1  -3 511.346 30.2369   8
  -7   1  -3 511.136 31.0663   1
  -1  -7  -3 517.921 31.6998   7
   7  -1  -3 562.373 32.9034   9
  -1  -7  -3 526.573 30.2550   4
  -1  -7  -3 534.654 31.3693   5
   7  -1  -3 499.312 32.2102   7
  -1  -7  -3 568.771 32.4965   2
   1   7  -3 417.070 33.8800   3
  -7   1  -3 500.172 32.7592   4
   7  -1  -3 474.376 29.7253   2
  -7   1   3 532.449 30.7208   5
  -1  -7   3 499.837 30.3810   5
  -1  -7   3 501.767 31.3780   6
  -7   1   3 516.618 31.9400   4
   7  -1   3 489.882 32.8547   3
   7  -1   3 551.492 32.8185   9
  -1  -7   3 506.950 31.2204   2
   1   7   3 525.351 33.0897   1
   1   7   3 546.420 33.4466   8
   7  -1   3 514.463 32.6470   6
  -7   1   3 505.520 31.4375   1
   7  -1   3 429.710 31.8960   8
  -7   1   3 525.053 31.1378   6
  -1  -7   3 497.233 31.2927   9
   1   7   3 517.174 33.9671   6
  -2  -7  -3 448.941 30.0395   5
   7  -2  -3 420.478 27.0355   2
   7  -2  -3 484.224 30.1030   7
  -7   2  -3 444.573 30.1779   4
  -2  -7  -3 453.158 27.3234   4
  -2  -7  -3 462.552 30.4164   7
   2   7  -3 375.071 31.1408   8
   2   7  -3 407.127 33.0486   3
  -2  -7   3 460.443 30.1381   6
  -2  -7   3 480.390 28.8306   2
   7  -2   3 425.567 30.2810   3
   2   7   3 443.452 30.8352   1
  -7   2   3 464.533 27.9863   5
   2   7   3 436.726 34.3799   8
  -2  -7   3 456.520 28.2587   5
  -7   2   3 459.324 28.9984   6
   2   7   3 458.300 32.2202   3
   2   7   3 482.453 31.5558   6
  -7   2   3 443.637 29.9666   1
  -7   2   3 421.366 35.3784   4
   7  -3  -3 142.350 18.8603   9
   3   7  -3 111.610 20.7739   8
  -7   3  -3 147.054 16.2664   4
   7  -3  -3 125.874 15.2912   2
   3   7  -3 104.641 18.9277   3
  -7   3  -3 120.589 17.6261   1
  -3  -7  -3 168.610 14.5017   5
  -3  -7  -3 138.552 14.4825   4
  -7   3   3 172.713 19.1649   4
   7  -3   3 123.332 18.6515   3
  -3  -7   3 136.667 14.9522   5
  -3  -7   3 153.096 16.0523   2
  -7   3   3 103.569 17.9862   6
  -7   3   3 206.460 23.9622   1
   7  -3   3 114.106 17.8952   9
   3   7   3 113.653 19.3218   8
   3   7   3 151.246 22.3791   3
  -7   4  -3 469.316 34.9958   1
  -4  -7  -3 500.183 31.6585   4
   7  -4  -3 475.648 31.6211   2
   7  -4  -3 505.780 36.2179   9
  -4  -7  -3 565.839 33.1549   5
   4   7  -3 483.764 41.1607   3
  -7   4   3 539.353 35.2498   4
   7  -4   3 465.895 35.6049   9
   4   7   3 507.501 38.8118   3
  -4  -7   3 509.050 33.3969   2
  -7   4   3 524.732 36.3987   1
  -4  -7   3 520.298 33.3258   5
  -7   5  -3 45.8464 15.8342   1
  -5  -7  -3 55.5893 11.4795   4
   5   7  -3 55.2865 22.5044   3
  -5  -7  -3 34.0374 12.7054   5
   7  -5  -3 60.9937 16.4008   9
   7  -5  -3 42.3437 10.8291   2
   5   7   3 29.1362 18.2742   8
   7  -5   3 34.3885 13.9369   9
  -5  -7   3 51.8368 13.6189   5
  -7   5   3 70.4717 18.3056   1
  -7   5   3 71.6904 17.9463   4
   5   7   3 20.6208 19.7065   3
   8   4  -3 13.3349 13.9976   9
  -4   8  -3 -11.113 21.7128   1
  -8  -4  -3 14.5187 12.3683   4
  -4   8  -3 4.96029 12.2166   8
   8   4  -3 18.7029 23.4692   3
   4  -8  -3 -0.2905 12.7021   2
  -8  -4   3 -10.752 15.1091   5
  -8  -4   3 15.4569 11.6987   4
   4  -8   3 20.1373 10.4497   2
   8   4   3 38.1354 18.2276   3
   3  -8  -3 104.596 15.3513   5
   3  -8  -3 73.1448 14.0220   2
  -3   8  -3 24.6657 21.0045   1
   8   3  -3 55.3610 21.1469   3
   8   3  -3 74.3532 13.8076   9
  -8  -3  -3 82.3997 12.8766   4
  -3   8  -3 59.9100 13.5331   8
  -3   8   3 46.3684 14.0777   8
   8   3   3 76.6313 16.7007   3
  -8  -3   3 95.3611 14.6172   5
  -8  -3   3 77.5533 12.2889   4
   3  -8   3 59.6536 10.9274   2
  -3   8   3 80.0336 17.2041   1
   2  -8  -3 66.6935 12.5796   2
  -8  -2  -3 64.7712 12.3201   4
  -8  -2  -3 93.8470 14.4881   1
  -2   8  -3 43.7329 11.6864   8
   8   2  -3 47.6505 12.2992   9
   8   2  -3 4.95761 21.0995   3
   8   2   3 39.4407 14.5695   3
  -8  -2   3 45.6717 12.4605   5
   8   2   3 56.7768 11.1406   9
   2  -8   3 91.8939 13.5318   2
  -8  -2   3 56.2570 10.8819   4
  -2   8   3 41.9046 12.9150   8
  -2   8   3 56.8029 15.3862   1
   1  -8  -3 329.979 22.5898   5
  -1   8  -3 276.783 24.7337   8
   1  -8  -3 369.133 24.9764   2
   8   1  -3 313.723 25.5286   9
  -8  -1  -3 336.789 22.9790   1
  -8  -1  -3 312.184 24.7425   4
  -8  -1   3 332.569 24.1333   4
  -1   8   3 304.973 25.4930   8
  -8  -1   3 348.291 24.7316   5
   8   1   3 284.299 27.5803   3
  -1   8   3 323.252 27.8695   1
   1  -8   3 339.023 22.9618   2
   8   1   3 323.327 24.1465   9
   0   8  -3 16.2331 10.8344   8
  -8   0  -3 -5.2581 8.23341   1
   8   0  -3 8.27604 10.1724   9
   0  -8  -3 -5.2876 8.15796   5
   0  -8  -3 -5.0215 10.3831   2
   0   8  -3 -11.936 11.9661   3
  -8   0  -3 3.43312 10.9023   4
   0  -8   3 2.70019 7.70408   2
   0  -8   3 6.78413 7.73110   5
   0   8   3 -10.856 11.0243   8
  -8   0   3 0.51466 11.4577   5
   8   0   3 9.35404 11.4498   3
   0   8   3 7.05101 14.1608   1
  -8   0   3 2.32036 9.91907   4
   8   0   3 0.33255 9.22413   9
  -8   1  -3 324.351 25.0207   4
   8  -1  -3 299.203 21.8346   2
   1   8  -3 289.307 27.7876   3
   8  -1  -3 341.288 25.3219   9
  -8   1  -3 301.002 23.4365   1
  -1  -8  -3 353.384 23.1605   5
  -8   1   3 355.160 25.1393   4
   1   8   3 271.412 24.9682   8
  -1  -8   3 315.959 21.9249   5
   1   8   3 325.168 29.4005   1
   8  -1   3 332.544 24.7631   9
   8  -1   3 312.024 26.8119   3
  -1  -8   3 322.207 23.2765   2
   2   8  -3 48.5680 16.1326   3
   8  -2  -3 66.9956 12.6283   9
   2   8  -3 49.5275 15.1642   8
  -2  -8  -3 96.2195 14.1677   5
  -8   2  -3 56.4942 11.3912   1
  -8   2  -3 49.7668 13.5281   4
   8  -2  -3 55.2215 10.3467   2
  -2  -8   3 101.108 15.3931   2
  -8   2   3 61.8464 12.8796   4
  -2  -8   3 91.7268 12.8142   5
  -8   2   3 64.4188 13.4479   1
   8  -2   3 58.2183 14.4785   3
   2   8   3 51.4416 14.6718   8
   8  -2   3 49.1419 11.8979   9
  -8   3  -3 52.0784 12.7293   1
   3   8  -3 62.1337 16.9485   8
   3   8  -3 61.0950 19.3149   3
   8  -3  -3 79.5560 14.7905   9
   8  -3  -3 65.6317 11.7183   2
  -3  -8  -3 88.1177 12.0126   5
  -8   3   3 74.4226 15.6008   1
  -8   3   3 80.4998 15.0799   4
   3   8   3 59.3462 15.7686   8
  -3  -8   3 71.4909 12.7972   2
   8  -3   3 59.2296 14.2211   9
  -3  -8   3 102.592 14.4678   5
   8  -4  -3 37.7503 16.8126   9
   8  -4  -3 17.5297 11.4721   2
   4   8  -3 35.3539 21.0022   3
  -8   4  -3 11.5843 13.6544   1
  -4  -8  -3 27.8130 11.1866   5
   4   8  -3 8.05127 18.6938   8
  -8   4   3 47.7251 18.0853   4
   4   8   3 17.7716 16.7384   8
  -4  -8   3 14.7331 11.8446   5
   4   8   3 18.4140 22.4547   3
   8  -4   3 -11.580 13.6945   9
  -8   4   3 12.4142 17.5609   1
   1  -9  -3 25.7676 10.9132   5
   9   1  -3 19.4757 14.2938   9
  -9  -1  -3 48.7438 13.6179   4
   1  -9  -3 78.7863 14.7433   2
  -1   9  -3 51.3748 13.0038   8
  -1   9   3 50.5347 15.1146   8
  -9  -1   3 40.8238 12.7410   4
  -1   9   3 29.2752 19.7065   1
   9   1   3 16.2497 17.7083   3
   9   1   3 54.6869 13.6926   9
   1  -9   3 56.7981 10.7150   2
   0   9  -3 -13.622 11.6307   8
   0  -9  -3 -8.1786 9.95369   5
  -9   0  -3 -17.757 11.0033   1
   9   0  -3 -3.2931 13.2995   9
  -9   0  -3 2.42022 12.9716   4
  -9   0   3 -2.0754 12.3881   4
   9   0   3 -16.567 17.2930   3
   0   9   3 -3.5100 13.9621   8
   0  -9   3 8.45929 9.70576   2
   9   0   3 13.1721 13.0959   9
   1   9  -3 64.2018 15.2936   8
   9  -1  -3 53.2016 14.6359   9
  -1  -9  -3 59.4891 11.8862   5
  -9   1  -3 21.3342 12.8384   1
  -9   1  -3 30.6477 15.2168   4
   9  -1   3 43.0042 13.8954   9
   9  -1   3 23.5438 24.4979   3
  -1  -9   3 61.3254 11.9898   2
   1   9   3 53.7990 15.5949   8
  -9   1   3 44.3542 14.2342   4
  -1  -9   3 95.7715 14.6911   5
   0   0  -4 1.06921 1.27158   5
   0   0  -4 1.26626 1.76125   1
   0   0  -4 4.49557 1.30696   2
   0   0  -4 7.67469 1.89950   9
   0   0  -4 9.56600 2.51859   4
   0   0  -4 5.77477 1.93988   3
   0   0  -4 3.33000 1.29566   8
   0  -1  -4 1245.86 65.6710   2
  -1   0  -4 1304.32 66.1958   4
   1   0  -4 1156.44 66.0217   9
   0  -1  -4 1291.69 65.9688   5
  -1   0  -4 1235.68 66.1563   3
   0   1  -4 1207.07 65.7186   5
   1   0  -4 1292.13 65.6799   8
   0  -1  -4 1236.20 66.2838   4
   0   1  -4 1270.21 66.0173   8
   0  -1  -4 1355.27 66.0153   8
   0  -1  -4 1250.41 65.9681   1
   0   1  -4 1157.31 65.6831   4
  -1   0  -4 1165.96 65.5884   5
   0  -1  -4 1332.22 65.8647   3
  -1   0  -4 1349.32 66.1704   8
  -1   0  -4 1108.35 66.1182   9
   1   0  -4 1235.60 65.7660   2
   1   0  -4 1209.70 65.8490   5
   0   1  -4 1206.95 65.7410   2
  -1   0  -4 1176.69 65.5160   2
   0   1  -4 1149.80 66.2371   9
   0  -1  -4 1148.42 65.8387   9
   1   0  -4 1297.87 66.1639   3
  -1   0  -4 1301.44 65.9143   1
   0   1  -4 1259.88 66.4630   3
   1   0  -4 1177.50 65.8930   1
   1   0  -4 1216.49 66.0839   4
   1   0   4 1247.61 66.3445   9
  -1   0   4 1083.96 65.8654   4
   1   0   4 1301.12 66.2437   3
   1   0   4 1229.02 65.5453   2
   0  -1   4 1229.01 65.7622   2
   0  -1   4 1134.16 65.6868   5
   0   1   4 1334.91 65.9774   8
   0   1   4 1345.29 65.8806   3
  -1   1  -4 4796.33 248.457   1
   1   1  -4 5038.39 249.329   3
  -1   1  -4 4863.48 248.815   8
  -1   1  -4 4130.17 248.894   9
   1   1  -4 4725.00 248.497   5
  -1  -1  -4 4806.45 248.870   4
   1  -1  -4 4447.85 248.482   9
   1   1  -4 4459.77 248.312   2
  -1  -1  -4 4530.54 248.411   5
  -1  -1  -4 4878.22 248.690   8
   1   1  -4 4979.98 248.446   8
  -1   1  -4 4589.98 248.906   3
   1  -1  -4 4637.26 248.868   4
   1   1  -4 4284.21 248.698   9
  -1   1  -4 4913.33 248.393   4
   1  -1  -4 4903.93 248.621   5
   1  -1  -4 5110.84 248.219   3
   1  -1  -4 4778.63 248.455   2
  -1  -1  -4 4873.13 248.544   1
  -1  -1  -4 4405.02 247.983   2
   1  -1   4 4480.40 249.120   9
   1  -1   4 4808.37 248.409   2
  -1  -1   4 4147.94 248.221   4
  -1   1   4 4437.69 248.606   1
  -1  -1   4 4757.65 248.508   5
   1  -1   4 4693.38 248.066   5
   1   1   4 4941.05 248.722   3
   1   1   4 4809.84 248.483   9
   1   1   4 4851.06 248.684   8
  -1   1   4 4975.69 248.363   8
   2   1  -4 536.877 30.3647   7
  -2  -1  -4 502.758 30.2561   7
  -2  -1  -4 627.151 31.7360   8
   2   1  -4 598.478 32.3123   3
  -2  -1  -4 602.503 31.1967   4
  -1   2  -4 596.159 33.1943   9
   1  -2  -4 577.216 30.3748   7
  -1   2  -4 565.701 31.3615   7
  -1   2  -4 577.035 30.8377   1
  -2  -1  -4 533.597 30.4963   5
   1  -2  -4 579.416 30.8162   2
   1  -2  -4 572.721 30.5222   9
  -2  -1   4 496.247 30.4942   4
   1  -2   4 506.976 30.6096   6
   2   1   4 557.208 31.0602   3
   1  -2   4 595.885 30.9550   2
  -1   2   4 550.720 30.6342   8
  -2  -1   4 490.412 30.2171   6
   2   1   4 646.500 32.0590   8
   2   1   4 548.048 30.3613   6
   2   1   4 563.911 30.6603   9
  -2   0  -4 245.477 15.2190   7
   0   2  -4 307.041 17.1405   3
   0   2  -4 284.110 16.0799   8
  -2   0  -4 287.668 15.9074   1
   2   0  -4 275.572 15.9724   9
   2   0  -4 277.618 15.7058   5
   0   2  -4 267.900 15.5623   7
  -2   0  -4 315.654 16.4389   4
   0  -2  -4 278.908 16.4267   4
  -2   0  -4 286.167 15.2391   5
   0   2  -4 276.500 15.3193   7
  -2   0  -4 276.160 16.1419   3
   0  -2  -4 312.672 15.9060   2
   0   2  -4 261.476 16.2280   9
   2   0  -4 321.363 16.9267   3
  -2   0  -4 282.389 15.4095   7
   0  -2  -4 282.144 15.9345   5
  -2   0  -4 295.744 15.9748   8
   2   0  -4 278.540 15.6604   2
   0  -2  -4 281.045 16.0658   1
   2   0  -4 280.632 15.3502   7
   2   0   4 282.469 16.2814   3
  -2   0   4 258.836 15.3612   6
   0  -2   4 260.979 15.5466   5
   0   2   4 280.921 15.7829   8
   0   2   4 266.734 16.1829   6
   0   2   4 294.881 15.6896   3
   0  -2   4 247.805 16.0492   6
   2   0   4 272.894 15.4466   6
  -2   0   4 285.962 15.7678   5
   2   0   4 295.552 15.6097   6
   0   2   4 279.954 16.1056   1
  -2   0   4 266.870 15.3983   6
   2   0   4 257.322 15.9976   9
   0  -2   4 285.116 15.8140   2
   0   2   4 260.273 15.5755   6
  -2   0   4 251.703 15.7465   4
   2  -1  -4 613.748 31.2162   3
  -1  -2  -4 523.610 31.3180   7
  -2   1  -4 586.868 32.4220   7
   1   2  -4 546.325 31.6018   8
  -2   1  -4 564.860 31.5806   1
   2  -1  -4 647.043 32.1068   5
   2  -1  -4 637.414 32.8014   2
   1   2  -4 501.523 31.6356   7
  -2   1  -4 622.118 31.8091   4
   1   2  -4 627.821 32.0932   2
   2  -1  -4 592.795 31.1337   7
   2  -1  -4 540.268 31.6171   9
   1   2  -4 560.906 31.7715   7
  -1  -2  -4 556.062 31.6392   5
   2  -1   4 533.965 31.9838   9
  -1  -2   4 562.744 31.4713   5
   1   2   4 541.949 32.9567   8
   1   2   4 603.970 31.6895   3
   2  -1   4 512.509 31.1831   6
  -1  -2   4 486.730 31.3456   6
   1   2   4 587.570 31.5667   6
  -1  -2   4 649.243 32.3698   2
   2  -1   4 595.927 31.7351   2
   1   2   4 663.813 32.3817   6
  -2   1   4 586.707 33.5105   4
   2   2  -4 1.20116 1.93670   2
  -2   2  -4 0.54582 2.23931   3
   2   2  -4 1.44807 1.87483   9
  -2  -2  -4 -4.4882 2.22176   7
  -2   2  -4 -1.7843 1.75156   7
   2   2  -4 1.90025 1.62232   7
   2   2  -4 6.29259 5.19900   3
  -2  -2  -4 2.80588 2.88995   4
   2  -2  -4 0.56743 2.13568   7
  -2   2  -4 -1.8885 2.42938   7
   2   2  -4 -6.4204 2.97564   7
  -2  -2  -4 -0.2528 2.16907   1
  -2  -2  -4 4.54555 2.86152   5
  -2   2  -4 2.82624 3.00890   1
   2  -2  -4 -0.8331 2.66285   4
   2  -2  -4 4.42074 2.47355   9
   2  -2  -4 3.65059 2.43602   2
  -2  -2  -4 -0.7592 1.38914   7
  -2   2  -4 1.40050 1.81352   8
   2  -2  -4 1.84044 1.96039   5
   2   2   4 -1.2422 1.66720   6
   2  -2   4 3.43845 2.93208   9
  -2   2   4 0.21820 3.11478   1
   2  -2   4 -3.4015 2.19638   6
   2  -2   4 -0.8344 3.49835   2
  -2  -2   4 -0.7941 1.63696   6
  -2   2   4 0.91575 2.23482   6
   2   2   4 -1.6276 2.18858   3
  -2   2   4 -0.0644 2.59913   4
   2  -2   4 -2.2404 1.85467   6
   2   2   4 -0.5349 1.74120   8
  -2  -2   4 -2.1398 1.93955   6
  -2   2   4 2.73789 2.22552   8
   2   2   4 2.39717 2.62349   6
  -2  -2   4 -0.4061 1.99626   2
  -2  -2   4 -1.4734 2.32244   4
  -2  -2   4 -0.9690 1.96152   5
  -2   2   4 -3.0868 1.72863   6
  -3  -2  -4 1507.43 82.0584   4
   3   2  -4 1477.20 81.8897   9
   2  -3  -4 1546.99 81.9172   2
  -2   3  -4 1557.86 82.2628   1
  -3  -2  -4 1588.81 81.5370   7
  -2   3  -4 1510.77 81.8385   7
   3   2  -4 1524.53 81.3709   7
  -2   3  -4 1510.42 82.3156   3
   2  -3  -4 1502.62 82.2319   4
   2  -3  -4 1611.87 81.9338   5
  -3  -2  -4 1609.29 81.6405   1
  -2   3  -4 1588.08 82.3148   8
   3   2  -4 1527.77 81.3702   2
   2  -3  -4 1464.36 81.6307   9
   3   2  -4 1334.18 83.6778   3
   2  -3  -4 1430.63 81.9118   7
   2  -3   4 1491.84 82.5045   9
  -3  -2   4 1539.98 81.4168   6
  -2   3   4 1656.51 82.2447   8
   2  -3   4 1455.74 81.9385   2
  -3  -2   4 1511.24 81.8786   5
   3   2   4 1615.56 82.0342   8
  -3  -2   4 1574.54 81.4285   2
  -2   3   4 1498.13 82.0356   4
   3   2   4 1550.96 81.3167   9
   2  -3   4 1539.68 82.0499   6
  -3  -2   4 1472.82 81.5291   4
   3   2   4 1590.47 82.3416   3
  -2   3   4 1524.37 81.8255   6
  -2   3   4 1419.14 82.2157   1
   3   2   4 1524.85 81.3864   6
  -1   3  -4 566.471 31.2345   7
  -3  -1  -4 597.985 31.1976   1
   3   1  -4 572.702 30.7879   7
   3   1  -4 567.305 30.8282   2
  -1   3  -4 587.033 31.6722   1
   1  -3  -4 577.817 31.2360   7
   1  -3  -4 620.745 31.5508   2
  -3  -1  -4 578.804 30.9253   7
  -3  -1  -4 599.453 31.2577   8
   3   1  -4 586.866 31.5178   9
   1  -3  -4 544.705 31.5687   4
  -1   3  -4 593.526 31.7283   8
  -1   3  -4 588.821 32.2491   3
   1  -3  -4 608.306 31.5307   5
  -3  -1  -4 522.698 30.9576   5
  -3  -1  -4 553.523 31.6219   4
  -3  -1   4 549.382 31.2306   4
   1  -3   4 527.629 30.9682   5
  -1   3   4 541.092 31.5940   8
  -1   3   4 556.144 31.4221   6
   1  -3   4 556.417 31.6980   9
  -3  -1   4 534.896 30.7778   6
  -3  -1   4 565.009 30.8140   6
   1  -3   4 509.969 31.6280   6
   1  -3   4 584.824 31.5999   2
   3   1   4 566.578 31.2126   8
   1  -3   4 544.878 31.3561   6
   3   1   4 543.743 31.1745   9
  -3  -1   4 584.340 31.2289   5
   3   1   4 574.646 30.8348   6
  -1   3   4 559.752 31.3098   6
   3   1   4 554.460 31.6786   3
  -1   3   4 582.743 31.8776   1
   3   1   4 538.113 30.9636   6
  -3   0  -4 3293.82 158.517   4
  -3   0  -4 3083.67 157.971   7
   0  -3  -4 3111.46 158.428   5
   3   0  -4 2876.92 157.776   2
   3   0  -4 2885.63 157.941   5
  -3   0  -4 3178.26 158.196   1
   0   3  -4 2943.30 158.456   9
   0   3  -4 3016.15 157.896   7
   3   0  -4 2987.68 158.487   9
  -3   0  -4 3071.09 158.190   8
   0   3  -4 2890.74 158.563   8
   0  -3  -4 2916.06 158.229   1
   0  -3  -4 3013.34 157.893   7
   3   0  -4 3038.37 157.732   7
   0  -3  -4 3038.40 158.348   4
   0  -3  -4 2685.67 157.915   7
   0  -3  -4 3137.58 158.074   2
   3   0  -4 2856.01 157.731   7
   0  -3   4 2832.26 158.403   9
  -3   0   4 2770.76 158.012   4
   0   3   4 2791.12 158.032   6
   0  -3   4 3143.09 158.239   2
   3   0   4 2877.26 157.778   6
  -3   0   4 2916.04 157.742   6
   0  -3   4 2755.04 157.865   5
   0  -3   4 2894.51 158.113   6
   0   3   4 3042.13 158.334   8
   3   0   4 2812.35 157.715   6
   0   3   4 3106.48 158.526   6
  -3   0   4 2794.08 157.647   6
   3   0   4 2974.56 158.506   3
  -3   0   4 2883.37 157.946   5
   3   0   4 3161.02 158.967   9
   0   3   4 3432.23 157.780   3
   0   3   4 2929.19 158.152   1
   1   3  -4 590.768 31.5224   7
  -3   1  -4 580.412 32.0237   1
  -1  -3  -4 575.720 32.3032   5
   1   3  -4 595.342 32.5226   8
  -1  -3  -4 590.596 31.6646   2
  -1  -3  -4 600.982 31.9451   1
  -3   1  -4 570.643 31.6546   7
   3  -1  -4 570.228 31.6962   2
   3  -1  -4 603.617 31.7575   7
   3  -1  -4 591.799 31.7397   5
   3  -1  -4 598.405 32.3577   9
  -3   1  -4 625.133 32.0274   8
  -3   1  -4 583.269 32.2467   3
   1   3  -4 578.427 32.0439   9
  -1  -3  -4 581.368 31.5102   7
   3  -1  -4 522.898 33.7146   3
  -3   1  -4 592.834 32.4357   4
  -1  -3  -4 630.368 32.2858   4
  -3   1   4 584.331 31.5566   6
  -1  -3   4 555.365 31.8730   5
  -3   1   4 509.718 32.7935   1
   1   3   4 607.622 32.6686   6
   3  -1   4 581.548 31.6418   6
   3  -1   4 542.525 31.6979   6
   1   3   4 569.009 31.6316   6
  -3   1   4 572.168 31.5572   6
   1   3   4 563.428 31.8762   3
  -1  -3   4 483.912 31.9646   6
  -1  -3   4 607.188 31.9024   2
   3  -1   4 579.063 32.3546   3
   3  -1   4 569.308 31.5170   2
   3  -1   4 593.064 32.4996   9
  -3   1   4 565.321 32.0640   4
   1   3   4 579.460 31.8767   1
   1   3   4 613.963 32.1702   8
  -1  -3   4 556.778 31.6885   6
   2   3  -4 1421.28 83.7223   3
  -2  -3  -4 1571.94 82.0423   4
   3  -2  -4 1575.95 81.6622   5
  -3   2  -4 1572.79 82.1199   1
   2   3  -4 1644.93 83.4758   8
   3  -2  -4 1493.22 82.1040   9
  -2  -3  -4 1437.45 82.1062   5
  -3   2  -4 1533.21 81.8293   4
   2   3  -4 1497.86 81.8205   9
  -2  -3  -4 1554.45 81.4387   7
   2   3  -4 1499.02 81.3295   7
  -3   2  -4 1576.85 82.1319   3
   3  -2  -4 1631.49 81.7906   2
  -3   2  -4 1542.06 81.6729   7
  -2  -3  -4 1528.60 81.6042   1
  -3   2  -4 1630.08 82.0928   8
   3  -2  -4 1603.41 81.9773   7
  -2  -3   4 1435.85 81.3853   6
   2   3   4 1577.02 82.1302   8
   3  -2   4 1476.80 82.2069   3
  -3   2   4 1524.54 81.5927   6
   2   3   4 1494.99 81.4153   6
  -3   2   4 1333.71 82.0141   1
   3  -2   4 1397.66 83.4262   2
  -2  -3   4 1515.58 81.8923   5
  -2  -3   4 1472.62 81.0612   4
   2   3   4 1584.46 82.1536   3
  -2  -3   4 1557.19 81.5359   2
   3  -2   4 1487.13 81.6947   6
  -3   2   4 1508.71 81.9750   4
   3  -2   4 1561.51 82.6693   9
   3  -3  -4 6384.65 347.952   9
  -3   3  -4 7042.34 348.156   3
   3   3  -4 6141.95 347.807   8
   3  -3  -4 6692.68 347.691   2
   3  -3  -4 6544.01 348.021   7
   3   3  -4 6046.50 347.416   7
   3   3  -4 6430.24 349.994   3
  -3  -3  -4 5863.41 347.896   5
  -3   3  -4 7059.69 348.213   8
  -3  -3  -4 6368.95 347.802   4
   3   3   4 6705.04 348.067   8
  -3  -3   4 6770.07 347.930   5
   3   3   4 7297.95 347.748   6
   3  -3   4 6245.00 347.527   2
  -3   3   4 6314.65 348.125   1
   3  -3   4 6821.26 348.317   3
  -3   3   4 6884.31 347.629   8
   3  -3   4 6330.60 348.551   9
  -3   3   4 6805.12 347.941   4
   3  -3   4 6763.48 347.918   6
  -3  -3   4 6425.88 347.065   4
  -3   4  -4 64.4485 8.49364   7
   4   3  -4 73.4390 7.90092   2
   4   3  -4 67.0927 13.4876   3
   3  -4  -4 88.8483 9.30102   2
  -4  -3  -4 66.8047 7.43620   7
  -3   4  -4 84.5173 9.06809   8
   3  -4  -4 78.9071 9.80055   9
   4   3  -4 83.3828 7.99520   7
   3  -4  -4 84.0183 8.41810   5
  -3   4  -4 81.4567 13.3915   1
   4   3  -4 65.3455 8.38787   9
  -4  -3  -4 95.1602 9.13045   4
   3  -4  -4 77.6979 9.81588   7
  -4  -3  -4 94.1534 8.50042   1
  -3   4  -4 71.3109 9.54824   3
   4   3   4 81.4997 10.4345   3
   3  -4   4 69.9840 9.42583   2
  -4  -3   4 74.5439 7.92240   2
  -4  -3   4 86.9253 8.66738   4
  -3   4   4 79.8954 11.5426   1
  -3   4   4 101.364 10.1574   4
   4   3   4 91.2820 8.26898   6
   4   3   4 83.8668 8.47925   8
   3  -4   4 81.7967 10.1599   9
   3  -4   4 72.7115 9.62756   6
  -4  -3   4 90.6166 8.25220   6
  -4  -3   4 70.8905 8.46519   5
  -3   4   4 90.8753 8.64886   6
   4   2  -4 438.170 25.7149   9
   4   2  -4 423.845 24.6086   2
  -2   4  -4 470.933 27.2731   1
   2  -4  -4 432.241 25.6862   7
   4   2  -4 441.004 24.9133   7
  -4  -2  -4 416.870 25.7846   4
  -4  -2  -4 455.113 25.0090   7
  -2   4  -4 466.189 26.2254   8
   2  -4  -4 473.607 25.7223   5
   2  -4  -4 420.572 25.8222   2
  -4  -2  -4 454.951 25.0117   1
   2  -4  -4 399.159 25.5927   4
  -4  -2  -4 356.151 25.6405   5
  -2   4  -4 477.084 25.6890   7
   4   2   4 452.352 26.2643   3
   2  -4   4 445.159 26.0556   9
  -2   4   4 423.108 25.7587   6
   4   2   4 431.158 24.6543   9
   4   2   4 463.561 25.5071   8
   2  -4   4 452.785 25.7899   2
  -2   4   4 451.231 25.7906   4
  -4  -2   4 437.239 25.2723   5
  -2   4   4 465.906 25.7496   8
   2  -4   4 371.557 24.2939   5
  -2   4   4 427.509 26.3023   1
  -1   4  -4 54.6063 8.39952   3
  -1   4  -4 66.9933 7.69633   8
  -4  -1  -4 59.7529 5.24135   8
   1  -4  -4 66.2670 7.80993   2
   1  -4  -4 63.3002 6.89587   4
   1  -4  -4 73.0677 7.15081   5
   4   1  -4 55.3248 10.0049   3
  -4  -1  -4 63.0535 7.23913   5
   4   1  -4 54.7998 7.81864   9
   4   1  -4 57.9569 5.53221   2
  -4  -1   4 58.3088 7.47185   4
   4   1   4 62.9395 7.67424   3
   1  -4   4 64.6860 6.73316   6
   1  -4   4 64.5194 8.07136   2
   4   1   4 64.9082 5.59747   8
  -1   4   4 82.8064 8.75102   1
   1  -4   4 50.6286 6.47083   5
  -1   4   4 70.1098 6.91649   8
  -4  -1   4 65.6934 6.36216   5
  -1   4   4 76.8396 6.99140   6
   4   1   4 62.1862 6.51632   9
  -4  -1   4 63.4160 5.49256   6
   4   1   4 62.3904 5.41782   6
   0   4  -4 1399.80 68.7628   7
   0  -4  -4 1115.29 69.2126   5
   0   4  -4 1246.62 68.6260   9
   0  -4  -4 1204.10 68.4563   2
   4   0  -4 1317.08 68.6935   5
   4   0  -4 1339.96 68.1565   2
   0  -4  -4 1332.62 68.5744   4
   4   0  -4 1260.37 71.6754   3
  -4   0  -4 1322.20 68.3942   7
  -4   0  -4 1236.20 68.9568   4
  -4   0  -4 1317.39 68.3954   8
   0   4  -4 1416.55 70.6033   8
   0   4  -4 1178.98 73.2349   3
   4   0   4 1247.07 68.0511   6
   0   4   4 1438.23 68.3324   3
   0   4   4 1331.98 68.9755   8
   0  -4   4 1095.68 69.1930   2
  -4   0   4 1301.51 68.4391   5
  -4   0   4 1284.06 68.0730   6
   4   0   4 1232.56 68.7598   9
   0  -4   4 1118.48 68.2905   5
   0  -4   4 1220.77 68.3748   6
   0   4   4 1211.74 68.4623   6
   0  -4   4 1230.95 68.6048   9
   4  -1  -4 60.7009 6.43612   2
   4  -1  -4 46.7489 6.37595   5
   1   4  -4 66.9570 6.50916   9
   1   4  -4 74.1824 8.31504   8
   1   4  -4 54.4517 9.08961   3
  -1  -4  -4 62.9687 7.97351   5
   4  -1  -4 80.7248 11.1730   3
  -4   1  -4 70.5761 9.67246   4
  -4   1  -4 70.7196 5.60221   8
  -4   1  -4 65.2616 7.40362   1
  -1  -4   4 65.9785 7.46297   2
   1   4   4 69.4700 7.70372   3
  -1  -4   4 65.2456 6.97882   5
  -4   1   4 52.9262 7.65362   1
   4  -1   4 63.7001 5.92890   6
   4  -1   4 70.9548 6.29923   2
  -4   1   4 67.1720 7.38960   4
  -4   1   4 59.1065 5.94202   5
  -4   1   4 61.0099 5.75583   6
   1   4   4 62.1790 7.61863   8
   1   4   4 71.4266 6.68277   6
   1   4   4 47.1124 9.28258   1
   2   4  -4 403.339 28.4147   3
   2   4  -4 454.348 24.7713   7
  -2  -4  -4 431.025 24.6479   7
  -4   2  -4 468.878 25.0079   8
  -2  -4  -4 391.179 24.3893   2
   4  -2  -4 383.496 29.6173   9
   4  -2  -4 449.899 24.5781   5
  -2  -4  -4 426.082 24.9662   4
  -4   2  -4 430.820 26.2618   4
  -2  -4  -4 435.206 24.9155   1
   2   4  -4 390.371 25.4641   9
  -4   2  -4 425.106 24.6688   7
  -2  -4  -4 430.083 25.5839   5
   4  -2  -4 405.144 24.4768   2
   4  -2  -4 447.434 25.1743   7
   2   4  -4 447.023 26.3339   8
  -4   2  -4 442.471 25.6827   1
  -2  -4   4 419.000 25.1018   5
  -4   2   4 425.155 24.8054   6
  -4   2   4 420.204 25.3205   4
   4  -2   4 421.547 24.5696   2
   2   4   4 440.051 25.6897   3
   2   4   4 459.506 25.6945   8
  -2  -4   4 453.194 24.9453   2
   4  -2   4 433.409 26.2184   9
  -2  -4   4 410.495 23.8275   4
   2   4   4 420.284 25.7005   1
   4  -2   4 448.139 25.6364   3
  -3  -4  -4 77.7063 10.1496   5
  -4   3  -4 72.0344 11.0851   1
   4  -3  -4 92.5567 11.5167   9
  -3  -4  -4 82.8650 8.08959   7
   3   4  -4 87.0940 11.4545   8
   3   4  -4 86.9137 8.39864   7
  -4   3  -4 76.2205 8.21269   8
  -4   3  -4 69.2240 7.96653   7
   4  -3  -4 82.3408 8.22457   2
  -4   3  -4 78.6817 8.55697   3
   3   4  -4 69.6114 8.41210   9
  -4   3  -4 74.3196 12.3421   4
   3   4  -4 50.6518 11.8530   3
  -3  -4  -4 79.9049 8.93893   4
   4  -3  -4 73.4382 9.43853   7
  -3  -4  -4 85.3631 8.79245   1
   4  -3  -4 88.9722 7.90860   5
   3   4   4 91.1571 9.03332   8
  -4   3   4 91.9117 11.6066   1
  -4   3   4 70.0478 8.30944   6
   3   4   4 98.4095 9.38006   6
  -3  -4   4 74.3222 8.95083   5
  -3  -4   4 86.0696 8.17082   4
   4  -3   4 73.9469 11.2906   9
  -3  -4   4 83.8782 8.44747   2
  -4   3   4 85.8624 9.94452   4
   4  -3   4 71.7877 8.98975   3
  -3  -4   4 84.7357 8.76322   6
   4  -3   4 65.6094 9.00807   6
   3   4   4 73.7039 11.2253   3
   4   4  -4 156.499 12.6653   7
  -4  -4  -4 161.321 12.6670   1
   4   4  -4 148.946 12.4976   9
   4   4  -4 121.597 21.2570   3
  -4   4  -4 167.210 13.3318   3
  -4   4  -4 162.993 12.6515   7
   4  -4  -4 135.730 12.0014   5
   4  -4  -4 145.007 15.3543   9
  -4   4  -4 162.411 12.9412   8
   4  -4   4 138.253 14.9518   9
   4   4   4 169.191 15.9360   3
   4  -4   4 157.792 13.3451   3
  -4  -4   4 152.182 12.1857   2
  -4   4   4 158.409 15.6154   1
  -4  -4   4 146.674 11.8301   4
  -4  -4   4 158.378 12.4594   6
   4  -4   4 164.185 13.8887   6
   4  -5  -4 46.2243 10.3485   9
  -4   5  -4 45.1790 8.40315   3
   5   4  -4 64.2582 17.0647   3
  -5  -4  -4 46.5513 7.65092   1
  -4   5  -4 62.2675 10.6287   8
   4  -5  -4 45.4258 8.95579   2
   4  -5  -4 49.6321 8.04998   5
  -5  -4  -4 50.8712 7.55344   7
   5   4  -4 41.8632 8.79867   7
  -5  -4  -4 58.3383 8.77976   4
   5   4  -4 63.8734 10.0985   9
  -4   5  -4 57.2601 12.3270   1
  -5  -4  -4 47.9179 10.2435   5
  -4   5  -4 42.8818 7.74677   7
   4  -5  -4 34.4163 8.83335   7
  -5  -4   4 46.3592 7.94293   6
   5   4   4 41.5972 8.07911   8
   4  -5   4 45.9379 9.17305   9
  -4   5   4 50.4280 8.22048   6
  -5  -4   4 53.3067 9.06804   5
   4  -5   4 53.6051 9.40430   6
   4  -5   4 50.4827 8.86383   3
   5   4   4 31.2842 10.3591   3
  -4   5   4 58.2234 10.4782   4
   5   4   4 59.0841 9.51368   6
  -4   5   4 50.9421 11.7500   8
  -5  -4   4 49.7432 7.27866   2
   4  -5   4 55.3800 8.60269   2
  -5  -4   4 46.9380 7.38454   4
  -4   5   4 53.5135 11.4517   1
   5   3  -4 144.955 11.8325   2
   3  -5  -4 150.982 13.9672   2
   3  -5  -4 148.957 13.8557   7
  -5  -3  -4 140.326 13.0737   4
   3  -5  -4 137.148 12.4784   5
  -5  -3  -4 153.121 13.9078   5
  -3   5  -4 124.495 12.5012   7
  -3   5  -4 160.569 13.0843   8
  -3   5  -4 172.806 18.6306   1
   5   3  -4 104.069 17.3619   3
   5   3  -4 147.221 12.2420   7
   5   3  -4 118.641 12.5111   9
  -5  -3  -4 140.811 11.5086   7
   3  -5  -4 144.044 13.9616   9
  -3   5  -4 133.648 13.7852   3
   3  -5   4 139.888 12.8704   2
  -3   5   4 181.652 14.5179   8
  -3   5   4 163.667 13.0298   6
  -3   5   4 181.036 14.4224   4
   5   3   4 148.803 12.4578   6
  -3   5   4 158.050 15.7491   1
   5   3   4 139.442 12.1357   8
  -5  -3   4 149.525 12.2540   6
  -5  -3   4 147.678 11.9446   4
  -5  -3   4 150.590 11.8021   2
   3  -5   4 132.069 13.5824   9
  -5  -3   4 146.797 12.5862   5
   3  -5   4 173.448 15.1809   6
   5   3   4 164.910 14.8446   3
   2  -5  -4 125.459 11.1445   5
  -2   5  -4 126.714 11.7400   8
  -5  -2  -4 126.072 11.7521   4
   5   2  -4 108.054 10.2650   7
  -5  -2  -4 129.564 10.3918   1
   2  -5  -4 108.974 10.8160   7
   2  -5  -4 113.641 10.8722   4
   5   2  -4 135.863 19.6950   3
  -2   5  -4 121.743 10.8751   7
   5   2  -4 111.546 9.25007   2
  -2   5  -4 102.398 16.2413   1
   2  -5  -4 114.576 12.3232   2
   5   2  -4 121.193 11.3857   9
  -2   5  -4 96.1522 11.7953   3
  -5  -2  -4 114.020 9.52926   7
  -2   5   4 105.772 13.0435   1
   2  -5   4 103.742 11.3311   2
  -5  -2   4 112.668 10.1646   5
   2  -5   4 110.036 9.39779   5
   2  -5   4 114.592 11.8403   6
   5   2   4 119.589 10.2015   8
   2  -5   4 112.066 11.7381   9
  -2   5   4 111.912 11.3334   8
  -2   5   4 137.943 11.7793   6
   5   2   4 136.970 10.7011   9
  -2   5   4 138.513 11.7338   4
   5   2   4 115.592 11.8793   3
   5   2   4 115.755 9.99164   6
  -5  -2   4 119.044 10.1804   6
  -5  -2   4 114.157 10.1745   4
  -1   5  -4 2385.95 130.747   3
  -1   5  -4 2395.02 130.822   8
   1  -5  -4 2334.00 130.018   2
  -5  -1  -4 2397.94 129.407   7
   1  -5  -4 2284.17 129.635   7
   1  -5  -4 2264.93 129.903   5
   5   1  -4 2414.98 129.270   7
  -1   5  -4 2500.70 129.790   7
   5   1  -4 2638.32 130.775   9
  -5  -1  -4 2416.05 129.390   1
  -5  -1  -4 2254.40 130.124   4
   5   1  -4 2468.14 128.879   2
   1  -5  -4 2489.99 129.597   4
  -5  -1  -4 2358.44 129.456   8
  -1   5  -4 2624.55 130.575   1
   1  -5   4 2215.41 128.853   5
   5   1   4 2480.52 129.799   9
   5   1   4 2475.45 129.288   6
   5   1   4 2404.69 129.544   8
  -5  -1   4 2427.94 129.566   5
   5   1   4 2331.60 130.333   3
   1  -5   4 2477.37 130.018   9
  -1   5   4 2511.57 130.199   6
  -1   5   4 2329.27 129.910   1
  -5  -1   4 2439.11 129.695   4
   1  -5   4 2502.87 129.979   6
  -1   5   4 2489.32 130.609   8
   1  -5   4 2418.75 129.795   2
  -5  -1   4 2476.74 129.254   6
   5   0  -4 418.831 24.1546   2
  -5   0  -4 442.815 24.6385   8
   0  -5  -4 422.621 24.7811   4
   5   0  -4 426.338 24.6289   7
   0  -5  -4 406.543 24.9815   7
   0   5  -4 404.145 25.2813   7
   0  -5  -4 449.756 26.3177   2
  -5   0  -4 407.384 24.5687   7
   5   0  -4 434.619 26.0498   9
   0   5  -4 428.049 25.6796   9
   0   5  -4 400.810 26.5692   8
  -5   0  -4 426.600 25.1006   1
  -5   0  -4 403.812 26.0334   4
   0  -5  -4 434.685 25.6723   5
   5   0   4 424.290 24.6520   6
  -5   0   4 434.949 24.5162   6
   0  -5   4 404.712 25.1422   9
   5   0   4 414.154 25.8407   3
  -5   0   4 414.482 24.5604   5
  -5   0   4 426.243 25.3274   4
   0   5   4 439.670 25.8409   6
   5   0   4 418.681 25.6501   9
   0   5   4 432.699 26.2537   8
   0  -5   4 397.278 25.4762   2
   0  -5   4 414.111 24.9488   6
   0   5   4 426.175 26.0930   1
   0   5   4 488.840 25.4378   3
   1   5  -4 2309.70 131.486   8
  -5   1  -4 2493.71 130.134   7
   5  -1  -4 2479.79 129.863   5
   5  -1  -4 2456.31 131.088   9
  -1  -5  -4 2209.61 129.968   2
  -1  -5  -4 2279.88 130.018   7
  -1  -5  -4 2388.19 130.595   5
  -5   1  -4 2468.07 129.923   8
   1   5  -4 2270.89 131.826   3
  -5   1  -4 2465.43 130.151   1
  -5   1  -4 2248.38 130.535   4
   5  -1  -4 2475.18 129.555   2
   5  -1  -4 2338.28 131.728   3
  -1  -5  -4 2435.88 129.817   4
   1   5  -4 2497.55 130.144   7
   5  -1  -4 2431.07 130.028   7
   1   5  -4 2472.36 130.279   9
   5  -1   4 2399.80 131.040   9
   1   5   4 2459.42 130.322   6
  -1  -5   4 2442.12 130.299   2
   1   5   4 2509.94 130.227   1
   1   5   4 2515.98 131.134   8
   5  -1   4 2440.41 129.917   6
  -1  -5   4 2543.85 130.319   6
  -1  -5   4 2299.68 130.180   5
  -1  -5   4 2461.05 130.198   9
  -5   1   4 2527.76 129.881   6
  -5   1   4 2501.94 129.822   5
   1   5   4 2634.44 130.426   3
   5  -1   4 2365.14 130.667   3
  -5   1   4 2449.33 130.428   4
   5  -2  -4 117.614 9.53620   2
  -5   2  -4 142.537 9.67764   8
   2   5  -4 124.069 11.0946   9
  -2  -5  -4 102.304 10.1852   7
  -5   2  -4 124.146 9.93523   7
   2   5  -4 104.520 16.5758   3
  -2  -5  -4 106.824 10.5357   4
   5  -2  -4 141.809 13.1604   9
  -2  -5  -4 99.8156 12.2582   2
   5  -2  -4 140.480 10.9650   7
  -2  -5  -4 118.923 11.5127   5
   5  -2  -4 126.222 9.70340   5
   2   5  -4 118.920 10.8650   7
  -5   2  -4 114.257 12.0603   1
  -5   2  -4 112.403 14.0574   4
   2   5  -4 122.578 14.5719   8
   2   5   4 131.726 12.2776   8
   2   5   4 112.373 11.9171   1
  -5   2   4 111.470 9.71823   5
   2   5   4 127.932 12.7493   3
   2   5   4 127.817 11.5339   6
  -2  -5   4 113.324 11.1530   5
  -2  -5   4 89.8821 11.1811   2
  -2  -5   4 111.646 11.9347   6
  -5   2   4 93.6045 12.1768   1
  -5   2   4 136.947 11.9224   4
   5  -2   4 110.534 11.0142   3
  -5   2   4 120.680 10.3110   6
   5  -2   4 106.894 10.9154   6
   5  -2   4 93.4019 10.0267   2
   5  -2   4 110.304 13.1439   9
   3   5  -4 163.222 20.1583   3
  -3  -5  -4 142.917 13.6584   5
   5  -3  -4 149.711 15.2270   9
   3   5  -4 161.418 12.8060   9
   3   5  -4 109.350 16.4156   8
  -3  -5  -4 169.818 12.8124   7
  -5   3  -4 143.089 12.1454   7
  -5   3  -4 147.892 14.7463   1
   5  -3  -4 168.048 13.8886   7
  -5   3  -4 156.316 12.0440   8
  -3  -5  -4 153.219 12.6140   4
   5  -3  -4 149.419 11.7060   5
  -3  -5  -4 127.237 13.3091   1
   3   5  -4 129.297 13.0582   7
   5  -3  -4 136.249 11.0724   2
  -3  -5   4 142.590 13.5929   6
  -5   3   4 142.035 15.1720   1
   5  -3   4 157.479 13.4137   3
   3   5   4 171.426 14.7747   8
   3   5   4 166.244 13.7067   6
  -3  -5   4 137.745 12.8875   5
   5  -3   4 131.811 12.2510   2
  -5   3   4 152.469 12.7427   6
   5  -3   4 140.071 15.4362   9
   5  -3   4 151.329 13.3045   6
   3   5   4 158.758 13.8530   1
   3   5   4 150.048 15.2183   3
  -3  -5   4 145.558 12.7130   2
  -5   3   4 144.976 14.2135   4
   4   5  -4 41.2990 7.91634   9
  -4  -5  -4 45.3764 7.96266   4
   5  -4  -4 50.7673 9.97212   7
  -4  -5  -4 54.1149 9.99609   5
  -5   4  -4 66.8064 11.9902   1
  -5   4  -4 51.5367 7.89718   7
   5  -4  -4 63.7418 11.2387   9
   5  -4  -4 51.3184 7.89234   2
   4   5  -4 40.5749 14.2151   3
   5  -4  -4 47.9697 7.40300   5
   4   5  -4 67.7682 11.4090   7
   4   5  -4 47.4056 12.5634   8
  -4  -5  -4 48.8539 7.85108   7
  -5   4  -4 46.3631 7.34043   8
  -4  -5  -4 51.4877 7.96958   1
   4   5   4 85.5411 12.2143   1
   5  -4   4 44.2029 8.48163   3
   4   5   4 38.4402 10.0087   8
  -4  -5   4 51.5828 9.49525   5
  -5   4   4 62.3125 10.2480   4
   4   5   4 48.1057 10.9017   3
  -4  -5   4 54.4031 7.76929   4
   5  -4   4 44.5424 10.2755   9
   5  -4   4 66.9962 10.0123   6
  -5   4   4 70.4871 11.0418   6
   4   5   4 66.8444 10.0621   6
   5  -4   4 52.6106 8.06746   2
  -5   4   4 41.9242 11.1259   1
  -4  -5   4 48.0556 7.79604   2
  -4  -5   4 68.4890 11.3750   6
   5  -5  -4 1463.82 82.7050   5
  -5   5  -4 1544.75 83.8263   8
   5   5  -4 1443.65 83.3861   7
   5  -5  -4 1485.58 84.4620   7
   5   5  -4 1540.32 83.3083   9
   5  -5  -4 1602.98 85.3584   9
  -5  -5  -4 1481.95 83.2580   7
  -5  -5  -4 1470.48 84.6950   4
  -5  -5  -4 1662.51 84.5522   5
  -5  -5  -4 1466.60 82.6723   1
  -5   5  -4 1438.90 85.2503   1
  -5   5  -4 1532.61 83.6287   7
  -5  -5   4 1460.10 83.2517   6
   5  -5   4 1627.88 88.2632   9
   5   5   4 1537.74 82.9666   1
   5   5   4 1502.18 84.6835   8
   5  -5   4 1507.60 83.8661   3
   5   5   4 1577.62 83.8723   6
   5  -5   4 1383.24 83.0694   2
  -5  -5   4 1469.70 82.8215   2
   5  -5   4 1521.26 84.5283   6
  -5  -5   4 1490.23 82.3694   4
   5   5   4 1514.71 86.0570   3
  -5   5   4 1588.62 83.8562   6
  -5   6  -4 96.1400 18.3636   1
  -5   6  -4 121.146 16.3086   8
   6   5  -4 106.417 23.2813   3
   6   5  -4 127.906 16.8867   9
   5  -6  -4 106.096 13.7050   2
   5  -6  -4 122.971 15.7706   5
  -6  -5  -4 123.571 16.1209   5
  -6  -5  -4 93.8032 12.8955   4
   5  -6   4 111.831 16.3002   2
  -6  -5   4 103.187 12.7453   2
  -5   6   4 115.705 17.8839   1
  -6  -5   4 111.832 15.6755   6
  -5   6   4 137.777 18.7235   4
  -6  -5   4 110.640 16.1676   5
   6   5   4 96.1856 17.7611   3
  -6  -5   4 92.5643 19.6848   4
   6   5   4 109.314 18.8322   8
  -5   6   4 89.1826 14.6581   6
   5  -6   4 109.143 18.5224   9
   6   4  -4 146.456 16.1067   9
  -6  -4  -4 183.792 16.3419   4
  -6  -4  -4 194.096 18.9400   5
  -6  -4  -4 182.130 17.0690   1
  -4   6  -4 139.238 16.6013   3
   4  -6  -4 162.556 17.7282   7
  -6  -4  -4 171.885 16.1104   7
   6   4  -4 154.490 17.9629   7
   4  -6  -4 184.553 18.1595   2
   4  -6  -4 188.532 16.1338   5
  -4   6  -4 156.593 16.3379   7
  -4   6  -4 165.133 23.2914   1
   4  -6   4 165.334 17.4366   3
   6   4   4 149.919 17.4089   6
  -4   6   4 194.370 20.0738   1
   4  -6   4 178.544 18.7499   6
   4  -6   4 150.258 16.7266   9
  -6  -4   4 159.569 16.3288   6
  -4   6   4 172.034 17.0172   6
  -6  -4   4 156.017 15.9888   5
  -6  -4   4 151.732 15.0594   2
  -6  -4   4 151.735 15.1974   4
  -4   6   4 214.662 18.7229   4
   6   4   4 152.741 19.8782   3
   6   4   4 150.776 16.2793   8
  -3   6  -4 81.3752 13.8234   3
  -6  -3  -4 94.4836 11.4333   7
  -6  -3  -4 107.903 13.4626   4
   3  -6  -4 83.7963 12.5102   5
   6   3  -4 117.103 12.9446   7
   3  -6  -4 117.097 13.4183   7
   6   3  -4 108.480 13.4164   9
   6   3  -4 106.690 11.9048   2
   6   3  -4 93.0364 18.9110   3
  -3   6  -4 126.080 16.3513   1
  -3   6  -4 102.674 13.5208   8
  -6  -3  -4 116.190 12.5736   1
  -3   6  -4 77.1132 12.5240   7
   3  -6  -4 91.7374 12.6455   2
  -6  -3  -4 114.147 14.4888   5
   3  -6   4 109.775 13.3897   9
  -3   6   4 118.277 14.6363   8
   6   3   4 89.7532 13.2658   3
   3  -6   4 126.093 15.0869   6
   6   3   4 108.655 12.5589   6
  -3   6   4 117.979 13.3527   6
  -6  -3   4 105.845 12.1516   4
   6   3   4 80.1558 12.1777   8
  -6  -3   4 116.251 12.3253   6
  -6  -3   4 118.482 11.7380   2
  -3   6   4 138.752 14.2622   4
  -3   6   4 130.138 16.1224   1
  -6  -3   4 112.782 12.5997   5
   3  -6   4 127.327 12.7369   2
  -6  -2  -4 269.920 20.6831   4
  -2   6  -4 294.054 19.8303   7
  -6  -2  -4 307.476 19.3019   1
   2  -6  -4 264.099 21.6640   2
  -2   6  -4 277.877 21.1476   8
   6   2  -4 295.589 29.6216   3
   6   2  -4 279.187 20.7307   9
   6   2  -4 311.971 18.6502   2
  -6  -2  -4 288.677 18.9809   7
  -2   6  -4 258.977 21.0243   3
   2  -6  -4 304.883 19.4596   4
  -2   6  -4 293.445 26.1444   1
   2  -6  -4 288.085 20.2287   7
   2  -6  -4 268.696 19.5458   5
   6   2  -4 271.361 19.3924   7
  -2   6   4 321.885 21.0772   8
   2  -6   4 292.609 19.8205   2
   6   2   4 278.193 19.4605   9
   6   2   4 287.546 19.5024   8
  -6  -2   4 292.388 19.6403   5
   6   2   4 289.883 19.1065   6
   2  -6   4 309.120 20.7134   6
   6   2   4 262.085 21.1679   3
  -6  -2   4 298.816 19.3317   6
  -2   6   4 305.530 21.7971   1
  -2   6   4 304.069 20.1816   4
  -6  -2   4 272.966 19.5573   4
   2  -6   4 306.199 20.2878   9
  -2   6   4 311.470 20.5316   6
  -6  -1  -4 26.1583 6.02208   1
  -6  -1  -4 24.8994 4.77988   8
  -1   6  -4 32.7693 7.12483   7
  -1   6  -4 35.1070 8.84727   3
   1  -6  -4 28.1318 6.02661   4
   1  -6  -4 42.1656 8.54751   2
  -1   6  -4 30.4620 8.18425   8
   6   1  -4 33.2633 5.57462   2
   1  -6  -4 27.7727 5.90616   7
   6   1  -4 34.9311 6.82976   7
   6   1  -4 17.4614 8.78483   9
   1  -6  -4 32.8132 6.63260   5
  -6  -1  -4 30.4666 5.83331   7
   6   1  -4 34.7790 15.4444   3
  -6  -1  -4 34.7014 8.26540   4
  -6  -1   4 31.9178 6.70788   4
   6   1   4 22.8213 5.66753   8
   1  -6   4 32.2061 5.62337   5
   1  -6   4 31.3765 6.89334   6
   1  -6   4 26.7621 6.46337   9
  -6  -1   4 29.9134 6.20523   5
   6   1   4 34.6954 7.04459   9
  -1   6   4 39.6918 8.84636   1
  -1   6   4 31.6220 7.41953   4
  -1   6   4 28.0035 8.44555   8
  -6  -1   4 35.0535 6.00752   6
   1  -6   4 32.7303 6.95422   2
   6   1   4 35.4351 7.08764   6
   6   1   4 25.2999 7.22219   3
  -1   6   4 41.9982 8.07899   6
  -6   0  -4 691.698 42.2446   4
   6   0  -4 732.063 40.8689   7
   0  -6  -4 717.081 41.6625   5
   0  -6  -4 689.229 41.8476   2
   6   0  -4 795.266 42.6775   9
   0  -6  -4 730.465 40.6395   4
  -6   0  -4 751.301 40.9545   7
  -6   0  -4 708.331 40.3787   8
   6   0  -4 771.414 47.2998   3
  -6   0  -4 738.033 41.2535   1
   0  -6  -4 735.871 41.2015   7
   6   0  -4 678.413 39.9284   2
   0   6  -4 699.085 43.4360   3
   0   6  -4 638.545 42.6943   8
  -6   0   4 735.466 40.8607   5
  -6   0   4 727.420 40.6528   6
   0  -6   4 736.642 41.2686   6
   0  -6   4 713.629 41.3928   2
  -6   0   4 721.067 41.6020   4
   6   0   4 739.084 41.9466   9
   0  -6   4 682.361 40.5790   5
   0   6   4 725.176 42.0489   1
   0   6   4 767.468 42.8484   8
   6   0   4 712.754 42.1964   3
   0   6   4 755.521 42.0632   6
   6   0   4 728.916 40.8627   6
   6   0   4 666.139 40.4835   8
   0  -6   4 735.798 41.2275   9
  -6   1  -4 30.2168 6.38502   1
   1   6  -4 30.3498 10.6971   3
   1   6  -4 33.8323 7.99165   7
  -1  -6  -4 33.8212 7.32188   5
  -6   1  -4 27.3320 5.90898   7
  -1  -6  -4 30.7068 6.77925   7
   6  -1  -4 30.4360 5.60873   2
   6  -1  -4 24.6864 8.20879   9
   1   6  -4 35.3553 8.46749   9
  -1  -6  -4 30.3985 6.14751   4
   6  -1  -4 23.9883 7.27115   7
  -6   1  -4 26.4481 5.05378   8
  -6   1  -4 30.5591 8.98652   4
  -1  -6  -4 24.7318 8.32020   2
   1   6  -4 10.6181 9.11089   8
  -6   1   4 25.0483 6.01083   5
   1   6   4 37.3279 9.54519   1
  -6   1   4 37.6763 6.47987   6
   6  -1   4 52.1540 8.55538   9
   1   6   4 34.1929 9.12496   6
   6  -1   4 25.3691 6.99011   3
   1   6   4 39.2691 10.0983   3
  -1  -6   4 32.9202 7.19829   5
   1   6   4 25.6471 8.66622   8
  -6   1   4 25.5276 7.76708   1
  -1  -6   4 27.3271 6.57568   9
  -1  -6   4 39.9445 6.83063   6
  -1  -6   4 32.7945 7.14085   2
  -6   1   4 26.4677 7.32984   4
   6  -1   4 26.9147 6.76938   6
   6  -2  -4 272.839 19.0773   5
   6  -2  -4 299.399 18.7075   2
   2   6  -4 303.654 20.6188   9
  -2  -6  -4 302.310 20.2907   5
   2   6  -4 276.112 20.5042   7
  -6   2  -4 277.816 20.5051   1
  -6   2  -4 289.536 19.2088   7
   6  -2  -4 279.834 20.4310   7
  -6   2  -4 247.284 22.1078   4
  -6   2  -4 294.286 18.7433   8
  -2  -6  -4 328.961 20.4994   7
   2   6  -4 307.014 25.4763   3
   6  -2  -4 326.538 22.1469   9
   2   6  -4 231.257 23.0614   8
  -2  -6  -4 293.562 19.1305   4
   6  -2   4 292.573 20.3802   6
   6  -2   4 314.151 22.0034   9
  -6   2   4 288.090 18.9838   5
  -2  -6   4 279.950 20.1944   5
  -2  -6   4 269.959 20.4726   6
   6  -2   4 273.726 20.7489   3
   2   6   4 307.477 21.6265   6
   2   6   4 291.008 21.9842   8
  -6   2   4 323.265 21.6189   4
  -6   2   4 260.030 20.8100   1
  -2  -6   4 278.120 20.3381   2
  -6   2   4 294.424 19.6607   6
  -2  -6   4 299.104 20.2048   9
   2   6   4 290.563 22.5876   3
   2   6   4 293.636 21.2722   1
   6  -3  -4 97.3646 14.1150   7
   3   6  -4 95.5279 15.6283   3
  -6   3  -4 95.1226 14.9477   1
   6  -3  -4 128.122 16.0797   9
  -6   3  -4 72.3185 13.5493   4
  -6   3  -4 104.779 11.8256   7
  -6   3  -4 114.291 10.9786   8
  -3  -6  -4 108.483 12.9342   7
  -3  -6  -4 114.782 13.0327   5
   3   6  -4 74.8221 14.5149   8
  -3  -6  -4 90.9548 11.9062   4
   3   6  -4 103.812 14.3739   7
   6  -3  -4 113.977 12.3508   5
   3   6  -4 107.072 13.6444   9
   6  -3  -4 98.0216 11.1007   2
  -6   3   4 128.799 16.2446   1
   3   6   4 101.129 15.4063   8
   6  -3   4 108.599 15.6505   9
   6  -3   4 73.3513 12.9205   2
   6  -3   4 117.152 14.1081   6
  -6   3   4 120.876 15.4581   4
  -3  -6   4 121.521 13.5616   5
  -6   3   4 102.118 12.5732   6
   6  -3   4 95.4736 14.2377   3
   3   6   4 102.941 17.6230   3
  -6   3   4 107.663 11.6145   5
  -3  -6   4 90.3126 13.1416   2
   3   6   4 120.024 15.4940   6
   3   6   4 114.515 15.3798   1
   6  -4  -4 179.008 18.5498   7
   4   6  -4 119.932 18.5270   8
   6  -4  -4 216.428 21.4185   9
  -4  -6  -4 190.591 16.9615   7
   4   6  -4 146.662 16.5802   9
  -4  -6  -4 159.377 21.9872   5
   4   6  -4 222.508 27.5645   3
   6  -4  -4 170.427 15.0502   2
  -6   4  -4 191.446 15.3892   8
   6  -4  -4 155.050 15.7446   5
  -6   4  -4 157.111 19.6884   1
  -4  -6  -4 134.940 16.7181   4
  -6   4  -4 168.076 15.9516   7
   4   6  -4 147.600 17.5224   7
  -4  -6   4 176.185 17.0178   5
  -4  -6   4 161.387 18.6336   6
  -6   4   4 142.701 19.7622   4
   4   6   4 209.350 23.3907   3
   4   6   4 200.743 24.5782   8
   4   6   4 169.697 18.9984   1
   6  -4   4 146.801 17.6618   6
   6  -4   4 167.161 16.8605   2
  -6   4   4 181.712 16.7996   6
  -4  -6   4 162.086 16.1686   2
  -6   4   4 164.748 15.1322   5
   6  -4   4 179.214 17.6533   3
   6  -4   4 132.002 19.4080   9
  -6   5  -4 116.783 16.8895   1
   6  -5  -4 91.0795 12.3010   2
   6  -5  -4 90.2987 17.5713   5
  -6   5  -4 99.9091 14.8670   8
  -5  -6  -4 106.773 17.1868   5
   5   6  -4 102.591 22.2251   3
  -5  -6  -4 114.451 15.2083   4
   6  -5  -4 132.263 24.2133   9
   5   6   4 105.969 18.8354   8
  -6   5   4 120.492 17.6300   1
   6  -5   4 108.085 13.7394   2
   6  -5   4 93.5543 14.6236   9
  -6   5   4 121.319 17.1428   4
   5   6   4 96.1851 18.3285   3
  -6   5   4 113.398 15.9254   6
  -5  -6   4 108.181 16.6718   5
   6   6  -4 195.663 31.3320   3
   6  -6  -4 268.033 23.7220   2
  -6   6  -4 264.849 23.5036   8
  -6  -6  -4 308.315 25.9625   5
   6   6   4 230.316 27.8557   8
  -6   6   4 348.148 29.3797   1
  -6   6   4 237.373 28.6916   4
   6   6   4 258.702 31.7847   3
  -6  -6   4 274.891 24.8236   5
   6  -6   4 224.549 25.4292   9
  -7  -5  -4 857.109 51.0198   4
   5  -7  -4 770.026 50.9430   2
   7   5  -4 832.385 51.3789   9
  -5   7  -4 828.784 52.1565   8
   7   5  -4 782.095 62.5539   3
  -5   7  -4 785.715 55.9348   1
  -7  -5   4 830.415 51.2451   4
   5  -7   4 864.175 51.8990   9
   5  -7   4 839.534 50.4144   2
  -7  -5   4 930.485 52.6049   5
  -5   7   4 910.338 54.1729   1
   7   5   4 900.570 56.8315   3
   4  -7  -4 224.359 22.8976   2
   4  -7  -4 221.125 20.5983   5
  -4   7  -4 237.778 31.1338   1
  -7  -4  -4 282.740 21.5690   4
  -4   7  -4 230.500 22.1019   8
   7   4  -4 209.849 36.2098   3
   7   4  -4 211.374 20.9677   9
  -7  -4   4 253.773 20.9887   5
   4  -7   4 226.967 21.7368   9
  -7  -4   4 223.639 19.3128   4
   7   4   4 249.074 26.3947   3
  -4   7   4 253.419 25.1136   1
   4  -7   4 226.636 20.3143   2
  -4   7   4 215.696 24.0197   4
   7   4   4 181.165 22.9266   8
   7   3  -4 841.016 62.1007   3
   3  -7  -4 981.610 54.1067   7
   7   3  -4 917.136 54.1217   9
   3  -7  -4 897.797 55.1519   2
  -3   7  -4 895.110 55.0020   8
  -3   7  -4 984.358 58.3619   1
   7   3  -4 925.456 54.2081   7
   7   3  -4 792.279 53.5733   2
   3  -7  -4 875.665 53.3173   5
  -7  -3  -4 932.572 53.3364   1
  -7  -3  -4 993.897 54.7371   4
   3  -7   4 977.637 58.4185   9
  -7  -3   4 987.978 54.0994   5
  -7  -3   4 929.549 52.3676   2
  -7  -3   4 908.515 53.2961   6
   7   3   4 845.329 53.6144   8
  -3   7   4 997.101 55.4717   1
   3  -7   4 965.354 53.3247   2
  -3   7   4 934.675 53.8613   6
  -3   7   4 997.430 53.6246   4
  -3   7   4 953.952 56.1848   8
   7   3   4 898.356 56.2891   3
  -7  -3   4 920.982 53.1198   4
   7   3   4 1015.03 55.4914   6
  -2   7  -4 167.182 20.6547   1
  -7  -2  -4 180.925 15.2867   1
   2  -7  -4 169.579 15.5244   4
   7   2  -4 180.951 14.8924   2
   2  -7  -4 172.983 20.1018   5
  -2   7  -4 146.560 15.3546   7
   7   2  -4 172.391 16.9682   7
  -2   7  -4 146.287 17.2049   8
  -2   7  -4 153.100 17.9895   3
   2  -7  -4 164.940 16.7331   7
  -7  -2  -4 160.107 17.5726   4
   7   2  -4 200.486 32.2090   3
  -7  -2  -4 156.897 15.4035   7
   7   2  -4 139.342 17.4094   9
  -7  -2   4 153.521 14.8060   2
   7   2   4 150.692 19.1729   3
   2  -7   4 171.140 16.6007   9
  -2   7   4 160.005 16.9763   4
   2  -7   4 157.624 15.2417   2
  -7  -2   4 156.787 16.9206   5
  -2   7   4 181.536 19.3967   1
   7   2   4 196.044 16.4921   6
  -7  -2   4 156.065 15.9733   6
   2  -7   4 146.843 17.0491   6
   7   2   4 160.231 15.6491   9
   7   2   4 149.311 15.5069   8
  -7  -2   4 181.562 16.1395   4
  -2   7   4 190.877 17.9547   8
  -2   7   4 181.513 17.9304   6
   7   1  -4 675.589 37.5555   2
  -1   7  -4 626.495 38.8773   7
  -1   7  -4 627.995 40.3818   3
   1  -7  -4 689.039 38.0732   4
  -7  -1  -4 666.654 38.6814   7
   1  -7  -4 726.816 40.8186   2
   1  -7  -4 674.113 40.2503   5
   1  -7  -4 643.442 39.0095   7
   7   1  -4 667.727 49.1886   3
  -7  -1  -4 664.322 40.6937   4
  -1   7  -4 557.698 46.1639   8
  -7  -1  -4 666.204 38.4611   1
   7   1  -4 681.468 38.7622   7
   1  -7   4 660.396 39.1050   9
   1  -7   4 654.094 39.0047   6
   7   1   4 610.835 38.2975   8
   7   1   4 625.284 39.1005   9
   1  -7   4 664.780 37.6256   5
   7   1   4 657.611 38.4320   6
  -1   7   4 679.771 40.3882   1
  -7  -1   4 719.805 38.9215   5
   1  -7   4 542.457 42.6765   2
  -7  -1   4 666.564 38.5445   6
  -1   7   4 694.115 38.8689   4
  -1   7   4 698.726 40.0764   6
  -1   7   4 659.965 39.9964   8
   7   1   4 694.300 42.8541   3
   0  -7  -4 348.234 22.5848   2
   7   0  -4 285.924 20.8288   7
   0  -7  -4 284.493 20.4413   7
  -7   0  -4 290.438 19.9325   7
   0   7  -4 261.239 23.6091   3
   0   7  -4 251.226 22.5160   8
  -7   0  -4 296.917 20.3021   1
   0  -7  -4 271.604 18.8591   4
  -7   0  -4 284.164 19.0138   8
   0  -7  -4 285.724 21.6000   5
  -7   0  -4 300.304 22.3230   4
   0   7  -4 249.223 21.2345   7
   7   0  -4 291.848 18.5556   2
   0  -7   4 299.684 20.4908   9
   7   0   4 293.336 20.2360   6
  -7   0   4 263.713 19.7522   6
   0   7   4 292.195 22.6664   6
   7   0   4 288.408 21.2842   9
   0  -7   4 301.838 21.0637   6
   0   7   4 304.299 23.2687   1
   7   0   4 275.105 19.6534   8
   7   0   4 273.581 22.5090   3
   0  -7   4 292.611 19.3475   5
   0  -7   4 304.959 21.4107   2
  -7   0   4 297.726 19.9964   5
  -7   0   4 268.538 26.5317   4
   0   7   4 267.604 21.7713   8
  -1  -7  -4 759.097 40.5763   2
   1   7  -4 683.410 42.4829   3
  -1  -7  -4 699.831 38.3583   4
   7  -1  -4 636.291 37.8107   2
   1   7  -4 605.482 41.8392   8
  -7   1  -4 658.656 41.3042   4
  -7   1  -4 630.010 38.8381   7
   7  -1  -4 667.902 39.7019   7
  -1  -7  -4 688.606 39.5462   7
  -7   1  -4 658.039 41.2810   1
  -7   1  -4 686.832 38.2907   8
  -1  -7  -4 595.094 42.6737   5
  -7   1   4 684.384 39.0096   5
  -1  -7   4 673.345 39.0921   9
  -7   1   4 558.313 44.0866   4
   1   7   4 663.321 40.7106   1
  -7   1   4 651.918 39.4016   1
  -1  -7   4 662.282 39.2068   6
   7  -1   4 635.954 40.6949   3
   7  -1   4 677.912 39.6888   6
   7  -1   4 702.149 40.8269   9
  -1  -7   4 697.568 40.3263   2
   1   7   4 667.141 41.4949   6
   7  -1   4 658.765 38.8583   8
  -7   1   4 694.329 39.1414   6
  -1  -7   4 652.583 38.6628   5
   2   7  -4 170.983 18.5752   9
  -2  -7  -4 170.755 14.6587   4
   2   7  -4 109.672 17.9464   7
   2   7  -4 153.432 24.7743   3
  -2  -7  -4 151.470 16.7643   7
  -7   2  -4 163.653 13.5310   8
  -2  -7  -4 149.095 15.8373   5
  -7   2  -4 172.773 16.8002   1
   7  -2  -4 211.979 20.2351   9
  -7   2  -4 157.807 19.5353   4
   7  -2  -4 160.356 14.7382   2
   2   7  -4 113.407 20.4754   8
   7  -2  -4 166.366 18.2534   7
  -7   2  -4 140.965 15.1495   7
  -2  -7   4 143.733 16.1578   9
  -7   2   4 176.847 18.3146   4
   2   7   4 177.279 19.7939   1
   7  -2   4 148.017 17.8100   3
  -7   2   4 172.205 16.2796   6
   7  -2   4 174.072 18.2627   6
   2   7   4 191.988 20.2568   6
  -7   2   4 169.753 15.3317   5
  -7   2   4 135.841 18.9735   1
  -2  -7   4 168.281 17.0261   6
   7  -2   4 153.757 18.3465   9
   2   7   4 148.210 19.4547   8
   7  -3  -4 1017.59 57.2722   9
   3   7  -4 1043.88 60.5356   3
  -7   3  -4 994.221 54.1741   8
  -3  -7  -4 1043.46 55.2959   5
   7  -3  -4 981.720 53.9591   2
  -7   3  -4 923.634 55.5647   1
   7  -3  -4 1010.96 56.5430   7
  -3  -7  -4 973.517 54.0361   4
   3   7   4 854.621 57.4929   8
  -3  -7   4 893.893 55.6854   6
  -7   3   4 942.497 56.5322   1
  -7   3   4 910.542 54.2324   5
  -7   3   4 940.868 55.1805   6
   3   7   4 905.614 57.5334   3
   7  -3   4 964.044 57.6142   9
   3   7   4 966.224 56.6762   6
  -3  -7   4 952.950 54.9510   2
   3   7   4 896.894 56.0166   1
   7  -3   4 918.522 56.1959   3
  -3  -7   4 924.342 55.0913   5
  -7   3   4 984.488 56.3430   4
   4   7  -4 241.634 32.5921   3
  -7   4  -4 226.201 19.1763   8
  -4  -7  -4 215.700 19.1158   4
   4   7  -4 166.473 23.1402   8
  -4  -7  -4 277.566 20.9426   5
   7  -4  -4 291.310 26.3293   9
   7  -4  -4 240.789 19.1476   2
  -7   4  -4 195.494 22.7544   1
  -7   4   4 215.779 25.7973   4
   4   7   4 167.353 25.1062   8
   4   7   4 194.062 29.3497   3
   7  -4   4 227.627 24.4759   9
  -4  -7   4 224.902 21.1454   5
  -4  -7   4 234.315 21.5619   2
  -5  -7  -4 1017.34 54.1188   5
   7  -5  -4 865.176 56.6664   9
  -5  -7  -4 870.722 52.4038   4
  -7   5  -4 794.630 55.4211   1
   7  -5  -4 857.710 52.3909   2
   5   7  -4 759.817 61.8936   3
  -7   5   4 1031.24 57.5287   1
  -5  -7   4 934.497 54.2621   5
   5   7   4 909.641 61.2945   3
  -7   5   4 872.598 56.9202   4
   7  -5   4 869.930 55.8048   9
  -4   8  -4 9.16514 13.2466   8
   4  -8  -4 36.1898 13.2273   5
  -4   8  -4 12.9772 23.9666   1
   8   4  -4 26.5551 14.5862   9
  -8  -4  -4 25.2485 14.1165   4
   8   4  -4 22.4792 27.0083   3
   4  -8  -4 19.6595 13.9770   2
   4  -8   4 3.56362 12.8637   9
   8   4   4 56.4472 21.0032   3
  -4   8   4 21.2960 18.8900   1
  -8  -4   4 4.68626 14.6799   5
  -8  -4   4 8.47543 11.8146   4
   4  -8   4 2.27038 10.9290   2
   8   3  -4 195.584 31.6320   3
  -8  -3  -4 229.411 22.3922   4
   8   3  -4 222.283 22.7561   9
   3  -8  -4 194.018 23.4623   2
   3  -8  -4 198.840 20.4824   5
  -3   8  -4 181.803 21.0704   8
   3  -8   4 216.034 19.3471   2
  -3   8   4 207.515 21.9888   8
  -3   8   4 244.326 25.6411   1
  -8  -3   4 202.656 19.6078   4
   3  -8   4 239.879 21.9805   9
   8   3   4 148.211 26.4422   3
  -8  -3   4 213.645 21.5797   5
  -8  -2  -4 50.7302 10.3870   1
   2  -8  -4 58.0629 10.9396   5
  -2   8  -4 40.4066 11.9824   8
   2  -8  -4 46.5808 13.4501   2
   8   2  -4 53.6796 25.4954   3
  -8  -2  -4 57.0613 12.5001   4
   8   2  -4 56.6253 12.4175   9
   2  -8   4 69.9497 15.4459   9
  -2   8   4 39.5729 14.0617   8
  -8  -2   4 47.0448 11.0999   4
   2  -8   4 59.7381 10.0775   2
   8   2   4 44.6805 14.7647   3
  -8  -2   4 51.2121 13.0652   5
  -2   8   4 67.8828 15.7042   1
   8   1  -4 52.2631 13.2338   9
  -8  -1  -4 52.4603 9.43728   1
   1  -8  -4 99.3928 14.6240   2
  -1   8  -4 52.3748 12.5189   8
   1  -8  -4 63.2265 10.7072   5
  -8  -1  -4 64.8255 12.7994   4
  -1   8  -4 45.6072 13.1354   3
  -8  -1   4 71.5774 11.7614   4
  -8  -1   4 38.1279 12.3408   5
  -1   8   4 78.0213 13.9261   8
   8   1   4 64.7084 14.0317   3
   1  -8   4 58.5170 9.85121   2
   8   1   4 56.0609 11.8002   9
  -1   8   4 55.2681 15.4835   1
   0  -8  -4 272.671 22.9684   2
  -8   0  -4 221.705 18.4907   1
   0   8  -4 187.925 22.4604   3
   8   0  -4 207.732 17.3290   2
   8   0  -4 210.535 21.4217   9
   0   8  -4 175.055 20.4063   8
   0  -8  -4 176.708 17.7683   5
  -8   0   4 215.862 20.5058   4
   8   0   4 216.174 20.5161   9
   0   8   4 170.037 20.3893   8
   8   0   4 196.651 22.7179   3
  -8   0   4 253.604 19.6265   5
   0  -8   4 185.657 17.0442   5
   0  -8   4 208.758 18.0115   2
   0   8   4 241.311 23.8217   1
   1   8  -4 45.9052 13.5762   8
  -1  -8  -4 65.8912 10.8873   5
   8  -1  -4 74.1232 13.5649   9
  -8   1  -4 64.9770 14.1407   4
  -8   1  -4 45.1100 10.3924   1
   1   8  -4 66.3504 15.1405   3
   8  -1  -4 52.0115 9.81913   2
   1   8   4 62.4060 16.1313   1
  -8   1   4 66.8456 12.2398   5
   8  -1   4 58.9978 11.9201   9
   8  -1   4 53.5807 13.9951   3
  -1  -8   4 67.1637 10.2801   5
   1   8   4 42.7357 13.3690   8
  -8   1   4 71.7372 12.3262   4
  -1  -8   4 67.0412 10.5844   2
   2   8  -4 23.8217 15.7530   3
  -2  -8  -4 68.5976 11.2959   4
  -8   2  -4 48.3912 14.2295   4
  -2  -8  -4 54.4900 10.7453   5
   8  -2  -4 62.6509 14.0336   9
   2   8  -4 37.4535 14.1337   8
  -8   2  -4 55.6577 11.1999   1
   8  -2  -4 31.1982 10.0820   2
   2   8   4 35.2693 13.2097   8
   2   8   4 73.6806 20.0760   1
   8  -2   4 39.5891 14.2733   3
   8  -2   4 43.6855 12.0689   9
  -8   2   4 56.5036 13.4545   4
  -8   2   4 23.3072 14.7043   1
  -2  -8   4 50.1748 10.7099   2
  -2  -8   4 40.3581 9.62321   5
   8  -3  -4 239.854 27.9699   9
  -3  -8  -4 230.704 20.7129   5
   8  -3  -4 212.655 20.1903   2
   3   8  -4 205.336 29.6633   3
   3   8  -4 146.504 26.3958   8
  -8   3  -4 174.943 21.7286   1
  -3  -8  -4 225.752 19.1471   4
   3   8   4 164.793 24.7536   8
  -8   3   4 245.980 25.1792   4
  -8   3   4 204.573 27.6314   1
  -3  -8   4 260.579 21.8389   2
  -3  -8   4 217.381 19.8705   5
   8  -3   4 181.943 24.7925   9
  -8   4  -4 24.2069 15.6824   1
  -4  -8  -4 42.5895 13.4899   5
   8  -4  -4 21.9123 12.3768   2
   8  -4  -4 19.5822 18.5800   9
  -4  -8  -4 13.1211 11.3301   4
   4   8  -4 37.5181 22.4786   3
  -8   4   4 5.94028 18.0741   4
  -8   4   4 -21.628 19.1928   1
   8  -4   4 16.1092 16.3077   9
  -4  -8   4 29.3408 12.6165   5
   4   8   4 17.0794 17.7983   8
  -4  -8   4 19.6610 14.1117   2
   0   0  -5 6.17690 2.16747   3
   0   0  -5 -0.8846 2.43922   4
   0   0  -5 -0.6620 1.14959   8
   0   0  -5 1.53191 1.33472   2
   0   0  -5 1.47016 1.39198   5
   0   0  -5 5.08030 2.22622   9
   0   0  -5 3.44736 2.19851   1
   0  -1  -5 0.07254 1.94243   9
   0  -1  -5 3.05633 1.71179   5
   0   1  -5 4.59189 1.70554   2
  -1   0  -5 4.38057 2.70448   9
  -1   0  -5 0.87064 1.76407   3
   0  -1  -5 0.03604 1.26974   8
  -1   0  -5 2.56253 1.45356   2
  -1   0  -5 4.58793 1.52581   5
   0   1  -5 4.12551 1.61111   5
   1   0  -5 1.48482 1.38557   5
  -1   0  -5 2.58638 1.90080   1
   1   0  -5 1.70037 2.34968   4
   0  -1  -5 1.92391 1.46810   2
   0   1  -5 1.59497 2.64989   3
   1   0  -5 -0.2918 2.48587   1
  -1   0  -5 0.24803 1.18958   8
   1   0  -5 -1.4497 2.49990   3
   0  -1  -5 5.94644 1.97489   3
   1   0  -5 1.06109 1.36666   2
   0   1  -5 -0.3697 1.43675   8
   1   0  -5 -0.8757 1.78857   9
   0  -1  -5 4.20111 2.75120   4
   1   0  -5 3.23622 1.32284   8
  -1   0  -5 5.46231 2.98603   4
   0  -1   5 2.45587 1.59349   5
   0   1   5 -0.1900 1.11461   8
   1   0   5 -0.2010 1.65719   3
   1   0   5 0.26936 2.82985   9
   0   1   5 2.24471 1.67141   3
   0  -1   5 2.55745 1.72944   2
  -1   0   5 1.50441 1.86872   4
  -1   0   5 3.87099 2.28506   1
   1  -1  -5 6.41237 1.88781   3
  -1  -1  -5 6.33527 1.98588   5
   1   1  -5 5.07013 1.82246   5
   1   1  -5 5.86312 1.66654   8
   1  -1  -5 6.81253 2.06186   9
   1   1  -5 11.2003 3.65435   3
   1   1  -5 1.08544 2.57885   2
  -1   1  -5 9.93557 2.39163   1
  -1   1  -5 6.82468 2.22684   3
  -1  -1  -5 5.09229 2.55381   1
  -1   1  -5 10.2234 3.07760   9
  -1   1  -5 16.7648 3.18572   4
   1  -1  -5 11.2408 3.13386   1
  -1  -1  -5 7.41831 2.46246   8
  -1  -1  -5 4.62527 1.36066   2
   1  -1  -5 4.10957 2.53555   5
   1  -1  -5 8.36713 1.95421   2
  -1  -1  -5 9.24255 3.00905   4
   1   1  -5 7.08277 3.89853   9
   1  -1   5 8.79977 2.30433   2
  -1  -1   5 6.37149 1.84197   5
   1   1   5 3.34377 1.94124   3
   1  -1   5 8.61306 2.85693   9
  -1  -1   5 3.40532 2.02529   4
   1   1   5 3.26142 2.59629   9
  -1   1   5 9.39607 2.59335   1
   1  -2  -5 2529.49 121.938   2
  -2  -1  -5 2420.01 121.901   1
   2   1  -5 2278.68 121.633   2
  -1   2  -5 2230.88 121.517   7
   1  -2  -5 2177.77 121.602   9
  -1   2  -5 2229.79 122.566   9
   2   1  -5 2139.35 122.075   9
  -1   2  -5 2254.28 122.612   3
  -2  -1  -5 2348.75 122.367   4
   2   1  -5 2330.21 121.888   5
   1  -2  -5 2364.66 122.461   4
   2   1  -5 2284.28 121.307   7
  -1   2  -5 2397.93 121.791   1
  -1   2  -5 2305.46 122.238   8
  -2  -1  -5 2424.44 122.156   8
  -2  -1  -5 2344.50 121.432   7
  -2  -1  -5 2203.43 121.526   5
   1  -2  -5 2526.76 122.142   5
   1  -2   5 2154.30 121.305   5
  -2  -1   5 2324.00 121.911   5
   1  -2   5 2170.53 121.820   6
  -1   2   5 2253.24 122.120   1
  -2  -1   5 2148.29 121.661   4
   2   1   5 2448.74 122.171   8
   2   1   5 2300.22 121.821   9
  -1   2   5 2223.80 121.774   6
   2   1   5 2360.70 122.196   3
  -1   2   5 2409.16 121.810   8
  -2  -1   5 2277.60 121.369   6
   1  -2   5 2344.23 122.781   9
  -1   2   5 2389.65 121.623   6
   2   1   5 2230.29 121.385   6
   2   1   5 2264.76 121.384   6
   1  -2   5 2105.53 121.635   6
  -2  -1   5 2003.06 121.242   6
   1  -2   5 2333.59 122.081   2
   2   0  -5 -0.6038 3.72025   3
   0   2  -5 0.42837 2.66715   9
   0  -2  -5 -0.0637 2.20609   2
   2   0  -5 1.00637 1.73073   2
   0   2  -5 6.81168 3.55275   3
  -2   0  -5 0.31474 2.10785   1
  -2   0  -5 2.74531 2.17475   3
   0   2  -5 -1.3945 3.17547   8
  -2   0  -5 -1.2533 1.35036   8
   0  -2  -5 -0.7853 2.29812   1
   2   0  -5 1.22700 1.69499   5
  -2   0  -5 1.83396 1.60881   5
  -2   0  -5 8.16702 3.46834   4
   2   0  -5 2.19547 2.04196   9
   0  -2  -5 4.86365 2.05186   5
   0  -2  -5 1.56756 2.99330   4
   0  -2   5 2.26889 2.02711   2
   2   0   5 4.42546 2.18316   3
   0  -2   5 -3.7857 2.21548   6
   2   0   5 -2.6229 2.40066   9
   2   0   5 -0.0701 1.33796   6
  -2   0   5 3.47389 2.40203   4
   0   2   5 -0.3488 1.79416   6
   0   2   5 5.21972 2.90091   1
   0   2   5 1.12374 1.94010   3
   0  -2   5 0.91071 1.81934   5
  -2   0   5 2.16126 1.89769   5
   0   2   5 1.55728 2.24488   8
   2   0   5 1.88505 2.00557   6
  -1  -2  -5 2508.66 122.894   4
  -2   1  -5 2396.24 122.658   8
   2  -1  -5 2385.48 122.699   9
   2  -1  -5 2337.20 122.333   5
   2  -1  -5 2232.19 122.613   4
  -2   1  -5 2364.95 122.807   3
   1   2  -5 2122.69 123.303   3
  -2   1  -5 2439.99 122.431   1
   1   2  -5 2024.47 122.099   7
  -1  -2  -5 2361.03 122.489   5
  -2   1  -5 2537.07 122.456   4
  -1  -2  -5 2398.25 122.402   1
  -1  -2  -5 2175.26 121.650   2
   1   2  -5 2366.52 122.435   8
   1   2  -5 2296.70 122.140   2
   2  -1  -5 2376.76 122.269   2
   1   2  -5 2196.15 122.656   9
  -2   1   5 2249.36 121.902   6
   2  -1   5 2311.72 122.032   6
   2  -1   5 2143.70 121.878   6
  -1  -2   5 2053.79 122.004   6
  -1  -2   5 2208.85 121.856   6
  -2   1   5 2255.77 121.825   6
  -2   1   5 2018.41 122.520   1
   1   2   5 2224.17 121.822   6
   1   2   5 2443.39 122.123   6
  -1  -2   5 2129.65 121.690   4
   1   2   5 2510.49 122.625   8
   1   2   5 2484.27 122.455   3
  -1  -2   5 2369.72 122.467   5
   2  -1   5 2472.34 122.310   2
  -2   1   5 2122.91 122.413   4
  -1  -2   5 2336.20 122.174   2
   2  -1   5 2323.00 122.896   3
   2  -1   5 2352.02 123.113   9
   2   2  -5 708.903 40.7040   9
   2  -2  -5 792.368 40.0941   7
  -2  -2  -5 800.924 40.6083   1
   2   2  -5 739.545 40.2493   2
   2  -2  -5 753.662 40.5715   5
  -2  -2  -5 777.485 40.0211   7
  -2   2  -5 745.799 40.6925   1
  -2  -2  -5 732.667 40.6606   8
   2   2  -5 718.856 40.2277   8
  -2   2  -5 743.184 40.8026   8
   2  -2  -5 740.069 41.0788   4
  -2   2  -5 700.593 40.9844   3
   2  -2  -5 745.465 40.4963   2
   2  -2  -5 789.058 40.6760   9
   2   2  -5 753.423 40.5722   7
  -2  -2  -5 761.802 41.0705   4
   2  -2  -5 752.050 40.4659   7
  -2  -2  -5 830.008 41.0138   5
  -2   2  -5 749.098 40.3380   7
   2   2  -5 723.103 39.8721   7
   2   2  -5 696.781 42.1906   3
  -2  -2   5 737.759 39.9943   6
  -2  -2   5 755.265 40.2631   2
  -2  -2   5 692.783 40.4550   5
   2   2   5 773.259 40.7272   8
  -2  -2   5 700.984 40.1189   4
  -2   2   5 669.592 40.9860   1
   2  -2   5 677.940 41.2192   9
   2  -2   5 734.283 40.4266   6
  -2   2   5 729.401 40.8168   4
   2   2   5 730.710 40.8065   3
  -2   2   5 704.570 40.1283   6
  -2   2   5 778.701 40.2817   8
   2   2   5 743.295 39.9572   6
   2  -2   5 807.146 41.7738   2
  -2   3  -5 520.875 28.6547   1
   2  -3  -5 482.677 29.1904   4
  -3  -2  -5 507.551 28.0266   8
  -3  -2  -5 472.397 27.1556   7
  -2   3  -5 498.338 28.2107   8
   2  -3  -5 496.255 27.9621   7
   3   2  -5 543.526 31.1106   3
   3   2  -5 502.567 28.1325   9
  -2   3  -5 475.581 27.8288   7
   2  -3  -5 514.351 27.9484   5
  -3  -2  -5 462.229 28.8957   4
  -3  -2  -5 487.620 27.7444   5
   2  -3  -5 466.614 27.2985   9
   3   2  -5 478.321 27.0924   7
   2  -3  -5 496.280 28.9314   2
   3   2  -5 410.988 28.7437   2
  -2   3   5 435.673 28.4973   4
   2  -3   5 493.161 29.0285   9
  -3  -2   5 504.435 27.7891   5
   2  -3   5 538.736 28.3306   2
   3   2   5 526.650 28.4938   8
  -3  -2   5 471.352 27.3680   4
  -2   3   5 472.591 28.8271   8
  -3  -1  -5 483.445 27.0108   8
   1  -3  -5 537.996 27.4825   5
  -1   3  -5 466.442 28.0987   3
   3   1  -5 436.868 29.2809   3
   1  -3  -5 495.406 26.8814   7
   3   1  -5 467.603 26.6222   2
  -3  -1  -5 456.679 26.4965   5
   1  -3  -5 508.653 27.3060   2
  -1   3  -5 512.138 27.4817   8
  -3  -1  -5 512.002 27.7467   4
   3   1  -5 477.383 27.2872   9
  -3  -1  -5 516.440 27.0717   1
  -3  -1  -5 495.948 26.5890   7
   1  -3  -5 471.121 27.5277   4
  -1   3  -5 512.122 26.9281   7
   3   1  -5 482.969 26.4485   7
  -1   3  -5 475.814 27.6921   9
   1  -3   5 447.427 26.6252   5
   3   1   5 487.370 27.0893   9
  -1   3   5 473.710 27.1053   6
  -3  -1   5 459.210 26.9664   5
  -3  -1   5 449.767 26.9818   4
   3   1   5 507.473 27.6412   3
  -1   3   5 498.472 27.1247   8
  -1   3   5 516.826 27.7972   1
   1  -3   5 447.506 27.0176   6
   1  -3   5 474.460 27.6847   9
  -3  -1   5 500.847 26.5077   6
  -3  -1   5 429.078 26.4113   6
   3   1   5 494.546 26.4926   6
   1  -3   5 518.313 27.4849   2
   3   1   5 477.894 26.7324   6
  -1   3   5 477.021 27.0578   6
   3   1   5 529.368 27.1341   8
   1  -3   5 414.483 27.3744   6
   0   3  -5 4.66718 2.22405   7
   3   0  -5 -0.0958 2.22987   7
   0   3  -5 1.84427 2.93313   9
   0   3  -5 7.17258 4.30295   3
  -3   0  -5 1.53908 4.46013   4
   3   0  -5 2.76351 2.26862   2
   0  -3  -5 8.58498 2.74006   5
   0  -3  -5 -1.7940 1.85938   7
  -3   0  -5 0.82696 1.58088   7
   0  -3  -5 1.42997 3.10057   1
   3   0  -5 -1.2222 2.12543   5
  -3   0  -5 1.15445 1.62302   8
   0  -3  -5 0.17030 3.24915   4
   3   0  -5 -0.3173 1.66024   7
  -3   0  -5 1.65619 2.69759   1
   0   3   5 0.31002 2.50782   3
   0  -3   5 10.9337 2.93005   2
   3   0   5 2.65657 2.80497   9
   3   0   5 -4.8474 2.73792   6
   0  -3   5 3.27275 2.13289   6
   0   3   5 2.60994 2.00757   8
   0   3   5 -0.4840 3.44798   1
  -3   0   5 1.34747 2.25193   5
   3   0   5 0.20596 2.73470   3
   0   3   5 8.28925 6.80034   6
   0  -3   5 -0.2308 2.74900   9
   0  -3   5 0.12218 2.64261   5
   3   0   5 0.64310 1.61169   6
  -3   0   5 -2.2662 2.46412   6
   0   3   5 0.55137 2.46568   6
  -3   0   5 1.48130 1.67941   6
   0  -3   5 3.47618 3.69547   6
   3  -1  -5 545.789 27.1816   3
  -3   1  -5 532.546 27.4743   1
  -3   1  -5 466.358 27.5226   3
   3  -1  -5 501.074 26.8268   7
  -3   1  -5 441.797 27.9869   4
  -1  -3  -5 499.500 26.5900   7
  -1  -3  -5 503.162 27.5235   5
   3  -1  -5 455.450 26.8911   2
  -1  -3  -5 485.840 27.2476   1
   1   3  -5 500.386 27.7172   8
  -3   1  -5 485.447 26.7902   7
   1   3  -5 485.372 26.5748   7
   3  -1  -5 519.176 27.7259   9
  -3   1  -5 485.941 27.1498   8
   3  -1  -5 487.908 27.0002   5
  -1  -3  -5 516.325 26.7587   2
  -1  -3  -5 514.259 27.6426   4
   1   3  -5 482.049 27.3739   9
   3  -1   5 501.942 26.9620   2
   3  -1   5 479.251 26.7146   6
  -3   1   5 417.373 27.3910   1
  -1  -3   5 474.528 26.8492   6
   1   3   5 532.161 28.0672   6
   1   3   5 501.065 26.7757   6
   3  -1   5 456.610 26.8739   6
  -1  -3   5 404.544 27.1527   6
   3  -1   5 461.590 27.7038   3
  -3   1   5 493.549 26.6820   6
  -1  -3   5 454.351 27.0560   5
  -1  -3   5 486.439 27.0904   2
   1   3   5 504.886 27.2245   3
   1   3   5 507.124 27.3048   8
  -3   1   5 419.105 27.0502   4
  -3   2  -5 458.950 28.5314   4
   3  -2  -5 520.213 28.2891   7
   2   3  -5 500.379 27.6138   7
   3  -2  -5 448.694 28.8943   5
  -2  -3  -5 515.711 27.6771   7
  -2  -3  -5 501.096 28.5166   5
  -2  -3  -5 493.780 28.5356   4
  -3   2  -5 501.661 28.7274   8
   3  -2  -5 522.125 28.0410   2
  -3   2  -5 503.080 28.0872   7
   3  -2  -5 508.494 28.4455   9
   2   3  -5 519.061 28.4353   8
   3  -2   5 465.724 30.3661   9
   2   3   5 533.434 28.4874   8
  -3   2   5 456.123 28.7324   1
  -2  -3   5 504.839 28.1677   2
   3  -2   5 459.093 28.2097   2
   2   3   5 551.647 28.4996   3
  -2  -3   5 513.021 28.4335   5
  -3   2   5 502.680 28.5901   4
  -2  -3   5 458.001 27.2284   4
  -3   3  -5 25.0691 5.10118   3
   3   3  -5 25.3567 4.62569   2
  -3  -3  -5 29.3417 5.86700   4
   3  -3  -5 33.3013 5.42536   9
   3   3  -5 38.4714 5.22016   7
  -3  -3  -5 29.6835 5.81841   5
  -3   3  -5 21.8408 4.59573   7
  -3  -3  -5 40.9866 6.49423   1
   3   3  -5 48.1547 10.4513   3
   3   3  -5 46.5672 7.96396   8
   3  -3  -5 28.4354 5.16617   2
   3  -3  -5 33.8439 5.70512   7
  -3   3  -5 37.6892 5.98356   8
   3  -3  -5 42.8614 5.83466   5
  -3  -3  -5 27.6763 4.76760   7
   3   3  -5 24.2953 5.14309   9
  -3   3  -5 34.0373 7.02686   1
   3  -3   5 40.2326 6.20898   2
  -3  -3   5 31.9399 5.17906   5
   3   3   5 21.0457 5.32072   3
  -3  -3   5 34.3938 4.83875   4
   3   3   5 34.6489 6.11486   8
   3  -3   5 32.3367 6.20857   9
   3  -3   5 20.2486 5.29156   3
  -3  -3   5 35.6539 5.89226   6
  -3   3   5 44.1043 6.68804   8
  -3   3   5 42.3834 5.83714   6
   3  -3   5 31.2263 4.89955   6
  -3   3   5 23.3302 6.49991   1
  -3  -3   5 30.8016 4.58186   2
   3   3   5 33.5218 5.06720   6
  -3   3   5 25.5927 5.74262   4
  -3   4  -5 193.110 14.0485   7
   3  -4  -5 182.279 14.4172   9
  -4  -3  -5 211.214 13.8414   1
   4   3  -5 189.252 14.1463   9
   3  -4  -5 200.400 13.8459   5
   4   3  -5 200.248 13.2554   7
  -4  -3  -5 189.613 14.7280   4
  -4  -3  -5 200.296 13.1865   7
  -3   4  -5 184.124 14.3648   8
   3  -4  -5 192.433 14.1271   2
  -4  -3  -5 185.187 15.1361   5
  -3   4  -5 189.275 17.5400   1
   4   3  -5 210.660 22.4071   3
   3  -4  -5 191.712 14.7040   7
  -3   4  -5 187.526 15.0243   3
   4   3  -5 210.505 13.7294   2
  -4  -3   5 196.477 13.3052   2
  -3   4   5 193.421 13.6868   6
  -3   4   5 220.230 14.3746   8
  -4  -3   5 191.106 13.3310   6
   3  -4   5 201.156 15.8591   9
   4   3   5 190.890 15.2156   3
   3  -4   5 190.275 14.4783   2
  -3   4   5 201.522 16.1498   1
   4   3   5 217.694 14.3194   8
  -3   4   5 189.750 14.9102   4
   4   3   5 211.440 13.5081   6
  -4  -3   5 181.534 13.5316   4
   3  -4   5 199.174 14.8945   6
  -4  -3   5 194.772 14.0705   5
  -4  -2  -5 712.981 44.5522   5
  -4  -2  -5 827.621 44.4902   1
   2  -4  -5 744.183 45.0173   4
   2  -4  -5 862.972 45.0022   5
   4   2  -5 801.344 45.1494   9
   2  -4  -5 705.830 43.9149   9
   4   2  -5 714.735 48.5340   3
  -2   4  -5 787.045 45.7108   3
   2  -4  -5 818.054 45.0456   2
  -2   4  -5 823.191 45.5095   8
  -2   4  -5 854.105 44.9636   7
   2  -4  -5 830.055 44.9589   7
   4   2  -5 797.576 44.0691   2
  -4  -2  -5 762.087 45.1313   4
  -4  -2  -5 849.358 44.3385   7
  -2   4  -5 864.444 47.1081   1
   4   2  -5 819.796 44.1680   7
  -4  -2   5 795.164 44.4452   4
  -4  -2   5 787.329 44.6854   5
   4   2   5 821.051 44.2248   6
   2  -4   5 800.480 44.9583   2
  -2   4   5 814.696 45.0286   4
   4   2   5 812.880 44.1027   9
  -2   4   5 814.430 44.7904   6
   2  -4   5 838.648 45.3459   6
   4   2   5 843.047 44.9224   8
  -4  -2   5 842.709 44.2506   6
   2  -4   5 785.357 45.5333   9
  -2   4   5 789.313 45.3990   1
  -2   4   5 867.981 45.1654   8
   4   2   5 817.307 45.4989   3
   4   1  -5 1365.73 74.2423   7
  -4  -1  -5 1411.88 74.4755   7
  -4  -1  -5 1416.02 74.8120   8
   1  -4  -5 1384.56 75.0826   4
  -1   4  -5 1304.41 75.9754   3
   4   1  -5 1427.59 75.5520   9
  -4  -1  -5 1339.74 75.3987   4
  -4  -1  -5 1298.02 74.0087   5
   4   1  -5 1372.63 74.2202   2
  -1   4  -5 1451.60 75.7569   8
   1  -4  -5 1477.77 75.2705   5
  -4  -1  -5 1419.39 74.6605   1
   1  -4  -5 1366.52 74.7082   7
   1  -4   5 1407.35 75.1798   2
  -4  -1   5 1387.01 74.8030   4
  -1   4   5 1387.71 75.3950   1
  -1   4   5 1333.07 75.0008   6
   4   1   5 1430.39 74.8784   8
   1  -4   5 1159.44 75.6906   5
  -4  -1   5 1375.69 74.2738   6
   4   1   5 1391.99 74.3251   6
   1  -4   5 1399.44 75.1151   6
  -1   4   5 1532.04 75.7485   8
  -4  -1   5 1369.33 74.6673   5
   1  -4   5 1351.58 75.3143   9
   4   1   5 1439.08 74.9037   9
   4   1   5 1361.68 75.4743   3
   0   4  -5 1.49049 4.97494   9
   0   4  -5 3.77044 4.35456   8
   4   0  -5 -2.3879 3.00407   2
  -4   0  -5 1.56525 3.81782   1
   4   0  -5 -3.0562 2.85027   7
   0   4  -5 5.38075 4.11789   7
   4   0  -5 13.0504 8.71849   3
  -4   0  -5 2.79213 2.81473   8
   0  -4  -5 3.67545 3.20904   7
   4   0  -5 4.62087 3.53274   5
   0  -4  -5 -3.2185 4.09192   4
   0   4  -5 8.25950 6.42813   3
  -4   0  -5 -0.2955 5.80993   4
  -4   0  -5 -0.6306 2.55209   7
   4   0  -5 -1.9974 5.03408   9
   0  -4  -5 0.62084 4.12853   5
   0  -4  -5 1.20900 4.43707   2
   0   4   5 2.42251 4.59698   1
   0  -4   5 -7.7140 4.23412   2
   0  -4   5 3.99396 3.97786   5
   0   4   5 1.44867 4.07362   6
   0  -4   5 5.86749 3.42634   6
   4   0   5 0.96879 3.77502   3
  -4   0   5 6.94406 4.25004   4
  -4   0   5 -3.4895 3.12860   5
   0  -4   5 -1.8578 3.97212   9
   4   0   5 -0.6833 3.60946   9
   4   0   5 1.71293 2.89329   6
  -4   0   5 5.32139 3.11959   6
   0   4   5 -3.5844 4.37671   3
   0   4   5 -1.7466 3.93519   8
   4  -1  -5 1422.39 76.8154   9
  -1  -4  -5 1437.53 75.7398   2
  -4   1  -5 1465.52 76.1199   8
   4  -1  -5 1427.97 75.7601   7
  -1  -4  -5 1443.63 76.1556   1
  -4   1  -5 1451.11 75.8670   7
   1   4  -5 1243.42 77.7132   3
  -1  -4  -5 1384.84 76.5177   5
  -1  -4  -5 1437.07 75.6874   7
   1   4  -5 1505.24 75.8390   7
   4  -1  -5 1455.25 75.6616   2
  -4   1  -5 1449.12 76.7463   4
   1   4  -5 1403.27 76.4133   9
  -1  -4  -5 1424.69 76.0944   4
   4  -1  -5 1382.44 75.7157   5
  -4   1  -5 1381.08 76.1510   1
   4  -1   5 1279.87 74.9111   2
  -4   1   5 1458.61 75.8240   5
  -1  -4   5 1398.55 77.3278   5
   1   4   5 1477.78 76.5407   8
   4  -1   5 1398.85 75.7135   6
   1   4   5 1391.52 75.8613   6
  -4   1   5 1385.06 76.1169   4
  -1  -4   5 1432.95 76.0473   2
   4  -1   5 1387.73 76.7982   9
  -4   1   5 1441.28 75.6114   6
  -4   1   5 1261.43 75.7941   1
   4  -1   5 1331.47 76.4830   3
   1   4   5 1404.69 76.0571   1
  -2  -4  -5 818.254 44.7180   7
   4  -2  -5 796.676 44.9289   5
  -2  -4  -5 806.902 44.2758   2
  -2  -4  -5 840.866 45.4122   4
   2   4  -5 815.522 45.4967   9
  -2  -4  -5 836.753 45.1802   1
  -4   2  -5 778.211 46.0244   4
  -4   2  -5 816.595 45.6170   1
  -4   2  -5 834.982 45.0592   7
   4  -2  -5 849.960 45.3946   7
  -4   2  -5 841.839 45.4066   8
   2   4  -5 815.508 44.8169   7
   2   4  -5 774.452 48.2478   3
  -2  -4  -5 767.012 45.8208   5
   4  -2  -5 842.462 46.3308   9
   4  -2  -5 814.836 44.9063   2
  -4   2  -5 834.299 45.7252   3
   2   4  -5 797.288 45.8407   8
  -4   2   5 799.803 45.8428   1
  -4   2   5 797.798 45.5981   4
   2   4   5 865.843 45.1248   6
  -2  -4   5 773.185 45.2763   5
  -2  -4   5 759.492 44.9752   2
   4  -2   5 819.119 45.1082   6
  -4   2   5 809.606 44.8409   6
   4  -2   5 797.638 45.8787   3
   4  -2   5 798.683 44.7674   2
   2   4   5 876.976 45.8134   3
  -2  -4   5 807.261 45.0162   6
   4  -2   5 810.912 46.7361   9
   2   4   5 851.360 45.2366   1
   2   4   5 854.880 45.8463   8
  -3  -4  -5 185.181 15.0040   5
  -3  -4  -5 191.797 13.2548   7
   3   4  -5 191.678 15.0097   8
  -3  -4  -5 210.209 14.0030   1
   4  -3  -5 186.798 16.3608   9
  -4   3  -5 194.750 16.4189   1
   4  -3  -5 201.818 14.3848   7
  -4   3  -5 197.630 13.6595   7
  -4   3  -5 193.949 14.4461   3
   3   4  -5 203.076 20.8126   3
  -4   3  -5 185.997 13.6927   8
   3   4  -5 186.707 14.0996   9
  -3  -4  -5 177.620 14.2810   4
   4  -3  -5 180.709 12.9266   2
   4  -3  -5 196.832 13.3524   5
   3   4  -5 203.760 13.4053   7
   4  -3   5 193.482 14.6519   3
   3   4   5 212.615 14.1548   6
  -4   3   5 187.267 16.3323   1
   3   4   5 189.121 15.1671   3
  -3  -4   5 213.821 13.7770   2
  -3  -4   5 199.722 13.1504   4
  -3  -4   5 191.356 14.0732   5
   3   4   5 213.951 14.5318   8
  -3  -4   5 204.341 13.7753   6
   4  -3   5 176.578 14.2446   2
  -4   3   5 183.471 13.4607   6
   4  -3   5 204.491 16.4759   9
  -4   3   5 218.368 15.3226   4
   4  -3   5 180.639 13.9851   6
   4   4  -5 666.578 46.3755   3
  -4  -4  -5 742.052 41.6892   5
  -4   4  -5 746.782 40.8724   7
   4  -4  -5 737.937 40.6829   2
  -4  -4  -5 734.717 40.3796   1
   4   4  -5 691.558 40.8040   9
  -4  -4  -5 683.619 40.9286   4
  -4   4  -5 725.873 41.4450   3
  -4   4  -5 774.504 42.9725   1
  -4   4  -5 708.880 40.9517   8
  -4  -4  -5 726.717 40.3079   7
   4   4  -5 714.220 40.4648   7
   4  -4  -5 737.718 41.4665   7
   4  -4  -5 698.472 40.3318   5
  -4   4   5 725.728 40.5954   6
   4  -4   5 670.274 40.6277   2
   4  -4   5 655.321 42.0824   9
  -4  -4   5 698.555 40.9690   5
   4  -4   5 722.387 41.1230   6
  -4   4   5 735.637 42.2950   1
  -4  -4   5 659.666 39.6998   4
   4  -4   5 696.549 41.4344   3
  -4  -4   5 676.247 40.1812   6
   4   4   5 723.673 42.0251   3
   4   4   5 752.275 40.5680   6
  -4   4   5 775.376 41.5341   4
  -4  -4   5 682.125 40.1047   2
   5   4  -5 35.2113 8.80479   9
  -5  -4  -5 48.4502 9.21754   4
   4  -5  -5 34.7424 9.48863   7
  -5  -4  -5 48.9986 10.7480   5
   5   4  -5 45.9544 17.6586   3
  -4   5  -5 48.9641 9.12850   3
  -4   5  -5 45.7498 8.22022   7
  -5  -4  -5 54.3493 7.72386   7
  -5  -4  -5 52.8197 8.29332   1
   5   4  -5 37.7658 9.05451   7
   4  -5  -5 56.0215 8.68345   2
  -4   5  -5 51.4880 13.3440   1
   4  -5  -5 46.5904 8.50934   5
  -4   5  -5 57.9525 9.43330   8
  -4   5   5 46.2882 8.37285   6
   5   4   5 31.7684 7.92248   8
  -5  -4   5 48.8697 8.57116   5
   5   4   5 42.7032 10.9627   3
   4  -5   5 55.9544 9.79163   3
   4  -5   5 42.8142 9.02567   9
   4  -5   5 75.3997 9.31578   2
  -5  -4   5 49.3689 7.88880   2
  -5  -4   5 50.2464 8.03320   6
   5   4   5 51.8297 9.66820   6
  -4   5   5 51.2293 11.9512   1
  -4   5   5 48.9630 10.5306   4
  -5  -4   5 43.1463 7.93382   4
   4  -5   5 46.3585 9.40616   6
  -5  -3  -5 192.700 14.0403   7
   3  -5  -5 200.016 16.2051   2
  -3   5  -5 197.020 16.9480   3
   5   3  -5 202.529 14.6049   2
  -5  -3  -5 178.252 15.6538   4
  -5  -3  -5 149.598 16.3967   5
   5   3  -5 206.337 14.6802   7
   5   3  -5 229.114 26.8139   3
   3  -5  -5 196.652 15.8368   7
   3  -5  -5 194.526 15.1308   5
  -5  -3  -5 208.717 15.0276   1
  -3   5  -5 191.236 20.9994   1
  -3   5  -5 209.405 16.0667   8
  -3   5  -5 194.917 15.3176   7
   5   3  -5 189.064 16.2082   9
   5   3   5 201.921 15.0367   8
   5   3   5 207.713 17.0790   3
  -5  -3   5 193.423 14.7448   4
   3  -5   5 197.054 16.8458   9
  -3   5   5 228.237 16.7259   8
  -3   5   5 209.496 15.1661   6
  -3   5   5 208.516 16.5472   4
  -5  -3   5 199.945 14.3810   2
  -5  -3   5 205.708 14.5186   6
  -3   5   5 202.500 17.7105   1
  -5  -3   5 175.374 14.9755   5
   3  -5   5 179.224 15.3643   2
   5   3   5 193.744 14.7306   6
   3  -5   5 207.632 17.0416   6
   5   2  -5 19.2460 6.49442   9
  -5  -2  -5 9.70349 6.46078   4
  -5  -2  -5 20.1855 4.47838   7
   5   2  -5 15.4923 14.0253   3
   2  -5  -5 12.6538 6.51182   2
  -5  -2  -5 10.4008 4.70360   1
   5   2  -5 14.0815 5.05358   7
   2  -5  -5 12.8252 5.71482   5
  -5  -2  -5 9.07513 6.87342   5
  -2   5  -5 13.3014 10.1292   1
   2  -5  -5 12.6553 5.74201   4
  -2   5  -5 14.1263 5.73674   8
   2  -5  -5 5.51538 4.97489   7
  -2   5  -5 8.90537 6.44014   3
   5   2  -5 7.39532 4.43443   2
  -2   5  -5 12.6905 5.39989   7
  -2   5   5 25.6549 7.91923   1
   2  -5   5 11.2150 5.99687   6
  -2   5   5 8.56701 6.31662   8
  -5  -2   5 8.22412 4.82983   6
   5   2   5 7.45054 5.57842   3
  -2   5   5 12.3820 6.13205   6
   5   2   5 5.20668 4.25342   8
   2  -5   5 9.75452 5.79709   2
   5   2   5 12.3875 5.02013   6
  -2   5   5 19.1191 6.55304   4
   2  -5   5 16.0559 5.57037   9
  -5  -2   5 12.6555 5.49142   4
  -5  -2   5 6.59560 5.00898   5
  -5  -1  -5 808.630 45.4385   7
  -5  -1  -5 785.942 46.7884   4
   1  -5  -5 856.147 45.8783   7
   5   1  -5 829.498 45.2961   7
  -1   5  -5 711.798 47.2218   3
  -1   5  -5 824.754 46.0172   7
   5   1  -5 897.467 47.2556   9
   1  -5  -5 836.261 46.6900   2
   1  -5  -5 842.239 46.0200   4
  -1   5  -5 824.483 47.2337   8
  -5  -1  -5 839.712 45.6981   8
   1  -5  -5 844.567 46.4537   5
   5   1  -5 811.763 45.0690   2
  -5  -1  -5 853.774 45.7670   1
   5   1   5 851.051 45.3683   6
  -5  -1   5 781.489 45.7635   4
   1  -5   5 738.095 45.0129   5
   5   1   5 824.435 46.1462   9
   5   1   5 796.858 46.6898   3
  -5  -1   5 833.792 45.2947   6
  -1   5   5 806.781 46.4979   1
   1  -5   5 865.478 46.2592   6
  -1   5   5 838.732 46.3438   6
   1  -5   5 781.298 46.1581   2
  -1   5   5 859.235 46.9112   8
   1  -5   5 817.213 46.3746   9
   5   1   5 852.366 45.8836   8
  -5  -1   5 808.685 45.7510   5
  -5   0  -5 -0.5781 3.40978   7
   0   5  -5 13.2155 6.68161   9
   5   0  -5 -23.195 11.5602   3
  -5   0  -5 7.22053 6.95136   4
  -5   0  -5 4.25540 3.56208   8
   0  -5  -5 1.47295 5.21962   5
   0  -5  -5 -0.4530 4.30535   7
   0  -5  -5 -5.0173 5.82040   2
   0   5  -5 -0.8318 5.54286   7
  -5   0  -5 -0.0984 4.60619   1
   5   0  -5 -7.5623 5.98008   9
   0  -5  -5 1.23230 4.66308   4
   0   5  -5 -2.9868 7.44873   3
   5   0  -5 0.67984 4.43048   7
   5   0  -5 2.70088 3.61196   2
   0   5  -5 0.60255 6.29969   8
   0  -5   5 -1.0911 4.96103   5
  -5   0   5 4.15398 5.19115   4
   5   0   5 6.05921 4.85202   3
  -5   0   5 5.72994 3.90454   6
   0   5   5 -3.3324 6.28778   1
   0   5   5 3.60298 5.41771   8
   5   0   5 0.61012 5.26173   9
  -5   0   5 1.66296 4.18043   5
   5   0   5 0.02624 4.13865   6
   0  -5   5 -4.5917 4.77295   9
   0   5   5 4.95488 5.86264   6
   0  -5   5 0.67028 4.26285   6
   0  -5   5 1.12524 5.02223   2
  -1  -5  -5 823.303 46.4505   2
  -5   1  -5 837.511 46.6100   1
   5  -1  -5 872.355 47.8106   9
  -5   1  -5 791.563 47.4630   4
   1   5  -5 813.172 47.8652   8
   1   5  -5 705.648 48.5296   3
   1   5  -5 820.322 46.3567   7
   5  -1  -5 850.721 45.7229   2
   1   5  -5 858.986 46.8806   9
  -1  -5  -5 825.844 47.0825   5
  -1  -5  -5 848.065 46.1579   4
   5  -1  -5 819.322 46.0685   7
  -1  -5  -5 862.857 46.2522   7
   5  -1  -5 804.758 46.0612   5
  -5   1  -5 825.096 46.0337   8
  -5   1  -5 884.854 46.2842   7
   5  -1   5 830.445 46.0211   6
   1   5   5 892.326 47.4887   8
  -5   1   5 850.493 45.9580   6
  -5   1   5 840.011 45.9970   5
   5  -1   5 786.104 47.0229   3
  -1  -5   5 824.947 46.6781   9
   1   5   5 935.376 46.8806   3
   1   5   5 837.228 46.7411   1
  -1  -5   5 787.862 46.2955   6
  -1  -5   5 789.757 46.5498   2
   5  -1   5 826.265 47.5480   9
  -1  -5   5 774.916 46.3143   5
  -5   1   5 771.935 46.1273   1
  -5   1   5 832.364 46.7293   4
   1   5   5 883.890 46.7083   6
  -2  -5  -5 11.8861 4.84695   7
   2   5  -5 20.5098 6.75039   9
  -5   2  -5 10.0052 5.93458   1
  -5   2  -5 6.51213 8.49148   4
  -5   2  -5 12.2777 4.44737   7
  -5   2  -5 15.0807 4.40724   8
  -2  -5  -5 5.17389 5.81752   1
   2   5  -5 5.72823 7.84899   8
   2   5  -5 6.88122 5.78451   7
   5  -2  -5 7.93428 5.33887   7
  -2  -5  -5 13.3273 5.20028   4
   5  -2  -5 22.6416 4.77997   2
   5  -2  -5 6.50296 4.77268   5
  -2  -5  -5 9.60803 6.38012   5
   5  -2  -5 15.6914 7.22347   9
   2   5  -5 16.6562 10.5353   3
   2   5   5 12.9472 7.26863   1
   2   5   5 16.1532 6.90706   6
   5  -2   5 33.3228 8.03838   9
   5  -2   5 12.2984 5.64649   3
  -5   2   5 7.02642 6.54445   4
  -5   2   5 12.1301 4.61707   6
  -5   2   5 9.95882 4.98681   5
  -5   2   5 10.1915 7.42083   1
  -2  -5   5 14.0156 5.79686   2
   2   5   5 15.1266 7.15473   3
   2   5   5 15.8451 6.46190   8
  -2  -5   5 10.5425 5.77602   5
   5  -2   5 6.48507 5.96692   2
   5  -2   5 8.47711 5.39181   6
   5  -3  -5 207.482 19.1706   9
  -3  -5  -5 197.403 14.9860   4
   3   5  -5 195.043 22.8665   3
   3   5  -5 154.728 17.7812   8
   3   5  -5 196.020 15.7721   9
  -3  -5  -5 187.950 15.6391   1
  -3  -5  -5 205.188 16.6141   5
  -5   3  -5 185.309 17.2795   1
  -3  -5  -5 216.083 14.9926   7
  -5   3  -5 215.614 14.6358   8
   5  -3  -5 184.041 14.1988   5
   5  -3  -5 194.602 14.0018   2
   3   5  -5 182.668 15.1928   7
  -5   3  -5 182.209 14.2918   7
   5  -3  -5 210.582 15.6727   7
   3   5   5 187.356 17.0563   3
   5  -3   5 190.491 17.5379   9
  -3  -5   5 201.274 15.7030   5
   5  -3   5 195.978 15.9701   3
  -5   3   5 230.065 16.6467   4
   5  -3   5 199.174 15.4257   6
   3   5   5 205.996 16.4281   8
   3   5   5 194.680 16.2320   1
  -3  -5   5 180.285 15.6082   6
  -3  -5   5 172.449 15.1173   2
   5  -3   5 185.968 14.8386   2
  -5   3   5 202.165 17.7516   1
  -5   3   5 186.727 14.8277   6
   3   5   5 203.399 15.6783   6
  -4  -5  -5 51.3110 8.43437   1
   5  -4  -5 51.8987 10.9791   9
  -5   4  -5 58.0727 10.1161   7
   5  -4  -5 54.0706 8.18862   5
  -4  -5  -5 36.6053 8.37721   4
   4   5  -5 62.3403 15.5638   3
  -4  -5  -5 51.2066 8.05837   7
   5  -4  -5 47.6606 7.30939   2
   4   5  -5 48.7994 9.02803   7
  -5   4  -5 48.3247 11.2999   1
   5  -4  -5 52.4220 10.2441   7
  -5   4  -5 46.9474 7.76832   8
  -4  -5  -5 56.7681 10.7859   5
   4   5  -5 47.6635 8.85526   9
   5  -4   5 48.3881 9.39239   3
   4   5   5 50.2776 9.97233   6
   4   5   5 49.4245 11.2414   3
  -5   4   5 56.6789 11.1096   4
   4   5   5 59.6735 9.94583   8
  -4  -5   5 54.3981 9.73031   5
   4   5   5 58.7720 9.75525   1
  -4  -5   5 40.3964 8.22658   2
  -4  -5   5 41.7197 8.35100   6
   5  -4   5 39.1090 9.61835   9
   5  -4   5 50.4746 9.07719   2
  -5   4   5 58.5359 11.8223   1
  -5   4   5 49.8926 8.71456   6
   5  -4   5 59.6244 9.94526   6
   5   5  -5 343.950 24.8799   7
   5  -5  -5 353.216 26.5074   7
  -5  -5  -5 341.391 23.3616   7
   5  -5  -5 389.604 28.6407   9
   5   5  -5 352.215 24.2860   9
  -5   5  -5 293.850 23.6223   7
  -5  -5  -5 336.665 24.0152   4
   5  -5  -5 305.240 24.0154   2
   5  -5  -5 344.282 23.4046   5
  -5  -5  -5 350.094 24.8276   1
   5   5  -5 365.304 35.4625   3
  -5  -5   5 358.543 24.1668   2
  -5   5   5 384.131 28.3522   1
   5  -5   5 360.669 26.9182   9
  -5   5   5 371.873 24.5826   6
   5  -5   5 354.535 26.5941   6
  -5  -5   5 349.882 25.0296   5
  -5  -5   5 370.448 25.0763   6
   5   5   5 376.135 25.8663   6
   5  -5   5 305.659 24.5774   2
   5   5   5 358.388 25.4542   1
   5  -5   5 349.980 26.0384   3
   5  -6  -5 184.475 23.0354   7
  -6  -5  -5 240.972 22.7030   7
  -6  -5  -5 205.081 20.4645   1
   6   5  -5 184.518 19.9354   9
   6   5  -5 150.500 21.3233   7
  -5   6  -5 204.977 18.9538   8
  -6  -5  -5 198.245 19.0058   4
   5  -6  -5 212.906 18.8810   5
   5  -6  -5 181.668 19.2434   2
   6   5  -5 142.798 27.1515   3
  -5   6  -5 134.627 21.2767   1
  -5   6   5 188.703 20.7931   6
  -6  -5   5 200.733 20.3947   5
   6   5   5 212.237 25.6757   3
   6   5   5 146.159 20.8579   8
   5  -6   5 194.415 19.3156   2
  -5   6   5 245.621 22.4902   4
  -5   6   5 166.650 24.6593   1
  -6  -5   5 177.338 19.3239   2
   5  -6   5 210.107 21.2143   9
  -6  -5   5 187.966 20.1082   6
   5  -6   5 167.030 22.2150   6
   4  -6  -5 190.731 20.5406   5
  -6  -4  -5 248.342 21.7567   5
  -6  -4  -5 214.675 19.8076   1
   4  -6  -5 225.038 19.8200   2
   6   4  -5 207.486 19.9974   7
   6   4  -5 220.240 28.4122   3
  -4   6  -5 235.626 34.2864   1
  -4   6  -5 205.855 20.0438   3
  -6  -4  -5 204.619 19.1174   4
   4  -6  -5 226.085 19.9877   7
  -6  -4  -5 211.643 17.8953   7
   6   4  -5 253.098 19.7052   9
  -4   6  -5 223.923 18.8965   7
  -4   6  -5 212.603 18.8954   8
  -6  -4   5 209.863 17.8288   2
   4  -6   5 209.063 20.0907   3
  -6  -4   5 215.935 18.8487   5
  -4   6   5 235.214 21.9925   1
   6   4   5 206.300 22.5521   3
   4  -6   5 217.831 18.6325   2
   4  -6   5 226.372 20.5750   6
  -4   6   5 238.452 18.7956   6
   4  -6   5 227.376 20.1436   9
  -6  -4   5 226.123 17.9080   4
  -6  -4   5 213.151 18.5340   6
   6   4   5 151.213 26.8620   8
  -4   6   5 273.309 22.2921   4
   6   4   5 228.629 19.3619   6
  -3   6  -5 68.9363 10.7494   8
   6   3  -5 77.3541 11.5743   7
  -3   6  -5 98.5312 16.8497   1
  -6  -3  -5 57.2006 8.33867   7
   6   3  -5 77.9836 13.6738   9
   3  -6  -5 57.4804 10.0262   5
  -6  -3  -5 71.2446 8.83893   1
  -6  -3  -5 63.6867 12.4842   4
   3  -6  -5 61.7277 10.8579   2
  -3   6  -5 54.9279 10.9961   3
   6   3  -5 57.1716 19.4900   3
  -3   6  -5 46.8660 9.47384   7
   6   3  -5 76.6498 9.99947   2
   3  -6  -5 74.8020 12.4849   7
  -3   6   5 87.7282 14.0640   8
  -3   6   5 83.0407 11.9858   4
   3  -6   5 62.0129 9.01441   2
   6   3   5 53.3315 12.1957   3
   6   3   5 79.0740 10.4479   6
  -6  -3   5 79.4948 11.2748   4
   6   3   5 66.5943 11.6348   8
  -6  -3   5 74.1494 11.4088   6
  -3   6   5 61.1101 16.0783   1
  -6  -3   5 75.0462 11.3750   2
   3  -6   5 73.4194 11.4701   6
  -6  -3   5 72.3506 11.3645   5
  -3   6   5 84.3663 12.3494   6
   3  -6   5 71.0178 12.9516   9
  -6  -2  -5 333.535 24.2025   4
   6   2  -5 334.238 22.0952   7
   2  -6  -5 367.952 22.7346   7
   2  -6  -5 321.374 24.1171   2
  -2   6  -5 368.095 22.7171   7
  -2   6  -5 326.423 28.9475   1
   2  -6  -5 345.521 22.4441   4
  -2   6  -5 318.825 24.1118   3
   6   2  -5 366.530 21.6851   2
   2  -6  -5 332.002 23.0572   5
   6   2  -5 373.362 24.1022   9
  -6  -2  -5 331.391 22.1518   1
  -6  -2  -5 347.597 21.7041   7
   6   2  -5 343.670 35.9742   3
  -2   6  -5 315.547 23.5274   8
   2  -6   5 349.007 23.2955   6
  -6  -2   5 352.207 22.3899   4
  -2   6   5 358.452 23.1702   6
   6   2   5 324.805 22.3591   8
   6   2   5 338.947 24.5358   3
  -6  -2   5 362.994 22.2624   5
  -6  -2   5 348.328 22.1082   6
  -2   6   5 338.737 23.1877   8
   6   2   5 359.485 22.0557   6
   6   2   5 296.557 21.9872   9
   2  -6   5 352.558 23.2559   9
  -2   6   5 376.271 23.1782   4
   2  -6   5 347.597 22.8042   2
  -2   6   5 348.679 24.6384   1
   1  -6  -5 11.8532 6.71487   5
  -1   6  -5 5.95774 7.55567   8
   1  -6  -5 5.39416 5.30209   7
   6   1  -5 10.5886 5.07665   2
   1  -6  -5 11.1212 5.74842   4
   6   1  -5 11.8193 5.96830   7
  -1   6  -5 23.9455 8.96906   3
  -6  -1  -5 16.5601 5.42772   7
   6   1  -5 6.94577 8.50005   9
   6   1  -5 -1.5773 16.6159   3
  -6  -1  -5 19.3364 5.83863   1
  -6  -1  -5 13.0425 8.26045   4
  -1   6  -5 15.9569 6.50473   7
   1  -6  -5 -0.9299 8.44998   2
  -6  -1  -5 9.33410 4.49686   8
   6   1   5 4.62987 5.19789   8
  -6  -1   5 5.95158 5.42210   5
   6   1   5 23.0235 7.38794   3
  -6  -1   5 10.8069 5.63844   6
   6   1   5 11.6810 6.28379   6
  -1   6   5 16.5685 9.02292   1
   1  -6   5 13.5180 6.34594   9
  -6  -1   5 15.1836 6.57688   4
  -1   6   5 27.2377 7.87051   6
   1  -6   5 19.9153 6.87298   2
  -1   6   5 14.4326 7.85339   8
   1  -6   5 28.4031 6.45950   6
  -1   6   5 6.98866 7.49330   4
   6   1   5 24.1412 7.39314   9
   1  -6   5 11.0182 5.49108   5
  -6   0  -5 1.94094 4.70214   7
  -6   0  -5 7.08305 8.74836   4
   0  -6  -5 7.02354 5.20256   7
   6   0  -5 1.95908 4.46822   2
   6   0  -5 -6.2412 7.61403   9
   0  -6  -5 -5.6410 7.96494   2
   6   0  -5 -1.9545 5.52464   7
   6   0  -5 8.50319 15.7150   3
  -6   0  -5 0.87448 5.43236   1
   0   6  -5 4.02643 9.11511   3
   0  -6  -5 -5.5691 6.72142   5
   0   6  -5 0.98686 7.17695   8
   0  -6  -5 -0.3979 5.64413   4
  -6   0  -5 1.28036 4.01349   8
   6   0   5 -5.8578 6.19375   3
  -6   0   5 9.17640 6.42292   4
   0   6   5 10.2235 8.76677   1
   6   0   5 -1.7106 4.69140   8
   0  -6   5 -2.1673 6.31111   2
   0  -6   5 1.40291 5.52939   6
   6   0   5 2.25836 5.47682   6
   0   6   5 4.49559 8.36830   6
  -6   0   5 4.31761 4.92630   6
   0  -6   5 5.83574 6.15362   9
   0   6   5 -8.9391 7.82819   8
  -6   0   5 0.37478 5.29545   5
   0  -6   5 11.8519 6.04582   5
   6   0   5 -8.7766 6.41805   9
   6  -1  -5 12.8174 6.75143   7
   1   6  -5 15.9154 8.40874   9
   1   6  -5 20.2385 7.48483   7
  -6   1  -5 14.1729 6.24028   1
  -6   1  -5 15.2708 9.92232   4
  -1  -6  -5 1.03326 7.94911   2
  -6   1  -5 10.2031 4.47272   8
   6  -1  -5 15.8275 5.37825   2
  -1  -6  -5 11.9024 5.94268   7
  -6   1  -5 18.7299 5.50680   7
   1   6  -5 1.22009 8.17384   8
  -1  -6  -5 18.5687 7.46017   5
   1   6  -5 10.0346 10.4730   3
   6  -1  -5 21.9953 8.38753   9
  -1  -6  -5 11.9347 5.81051   4
  -6   1   5 17.7502 5.91150   6
  -1  -6   5 17.9896 7.14847   5
   6  -1   5 30.2438 7.75171   3
  -6   1   5 2.93871 7.43301   4
   1   6   5 11.4844 8.77036   1
  -1  -6   5 18.7149 6.12066   6
   6  -1   5 16.2335 6.26239   6
  -1  -6   5 4.55022 6.30781   9
   6  -1   5 25.5337 7.34065   9
   1   6   5 12.0817 8.90206   6
  -1  -6   5 15.8228 6.90313   2
  -6   1   5 18.6806 6.18748   5
   1   6   5 4.97073 8.31048   8
  -6   1   5 25.5369 7.82076   1
  -2  -6  -5 358.556 23.9902   5
   2   6  -5 355.179 23.3209   7
  -2  -6  -5 347.022 22.2901   4
   6  -2  -5 410.684 26.3271   9
  -6   2  -5 365.847 21.9666   8
   2   6  -5 367.870 23.8166   9
   6  -2  -5 357.467 23.5073   7
   2   6  -5 284.376 25.7383   8
   6  -2  -5 357.010 21.9764   2
  -6   2  -5 346.438 23.6130   1
   2   6  -5 335.825 27.7779   3
  -6   2  -5 322.519 22.3175   7
  -6   2  -5 285.475 25.6313   4
  -2  -6  -5 343.775 23.0298   7
   6  -2  -5 328.169 22.3643   5
  -6   2   5 340.881 22.5512   6
  -2  -6   5 365.377 23.6048   9
   2   6   5 388.123 24.6506   6
   6  -2   5 339.071 24.0920   3
  -6   2   5 356.227 22.2454   5
   2   6   5 387.847 25.8085   3
   2   6   5 345.733 24.5257   1
  -2  -6   5 356.666 23.4701   6
  -6   2   5 370.992 24.3809   4
   6  -2   5 352.212 23.3503   6
  -6   2   5 338.556 24.1508   1
  -2  -6   5 343.507 23.1714   2
   2   6   5 330.332 24.4567   8
  -2  -6   5 326.942 23.2196   5
   6  -2   5 337.839 25.6512   9
   6  -3  -5 60.6829 10.3771   7
  -6   3  -5 56.4738 8.92339   7
   6  -3  -5 63.4366 10.1199   2
  -6   3  -5 65.3609 12.1001   1
  -3  -6  -5 91.0286 13.7278   5
   3   6  -5 64.6253 17.8117   3
   6  -3  -5 61.7676 9.63980   5
   3   6  -5 68.2207 11.2322   7
  -3  -6  -5 64.1677 9.47941   7
   3   6  -5 62.6587 10.5872   9
  -6   3  -5 63.7884 9.86015   8
   6  -3  -5 70.7349 13.1862   9
   3   6  -5 68.8273 13.4039   8
  -3  -6  -5 55.0097 9.09452   4
   3   6   5 68.4639 11.7722   1
   3   6   5 74.8606 12.6289   6
  -3  -6   5 72.4575 10.7420   5
   6  -3   5 81.5060 13.8156   3
   3   6   5 68.4069 12.2028   8
   6  -3   5 66.4887 11.0369   6
  -6   3   5 70.8862 12.3165   4
  -3  -6   5 58.3348 9.41212   2
  -6   3   5 69.8420 11.6083   6
   3   6   5 66.2407 13.1915   3
  -6   3   5 75.3842 10.9042   5
  -6   3   5 67.0858 12.5538   1
   6  -3   5 52.4921 12.1585   9
  -4  -6  -5 223.639 18.3362   4
   6  -4  -5 227.560 20.8663   7
   4   6  -5 197.871 20.2907   7
  -4  -6  -5 219.088 20.5327   1
  -4  -6  -5 264.507 20.8015   5
   4   6  -5 218.450 19.8177   9
   6  -4  -5 241.061 25.5084   9
  -6   4  -5 205.469 18.0910   7
   4   6  -5 178.097 28.2187   3
  -6   4  -5 202.830 22.3296   1
  -4  -6  -5 208.042 19.0463   7
   6  -4  -5 232.246 18.6212   5
   6  -4  -5 221.436 17.5065   2
  -4  -6   5 238.474 19.9646   5
   4   6   5 219.435 21.6416   1
   4   6   5 253.910 28.0125   3
  -6   4   5 250.470 19.1171   6
   6  -4   5 201.066 19.8783   6
  -6   4   5 276.706 24.2672   1
   4   6   5 243.098 21.0803   6
  -6   4   5 228.319 17.7750   5
   6  -4   5 242.007 20.2397   3
  -6   4   5 260.808 22.2726   4
  -4  -6   5 214.375 20.7856   6
   4   6   5 192.808 21.5026   8
   6  -4   5 224.895 22.0750   9
   6  -5  -5 184.844 18.8934   5
  -6   5  -5 184.380 24.3957   1
  -5  -6  -5 205.938 20.4510   7
   5   6  -5 194.571 27.4566   3
  -6   5  -5 204.276 18.5016   8
  -5  -6  -5 183.171 23.5525   1
  -5  -6  -5 200.811 18.5790   4
   5   6  -5 133.919 21.9986   7
   5   6  -5 205.539 20.3812   9
   6  -5  -5 228.272 28.1461   9
   6  -5  -5 219.456 22.9847   7
   6  -5  -5 172.273 18.2510   2
   5   6   5 241.818 25.3700   1
   6  -5   5 193.601 19.8505   2
  -5  -6   5 197.565 22.3627   6
   5   6   5 207.939 27.5272   3
  -6   5   5 180.244 21.1809   6
   5   6   5 161.631 22.5074   6
   6  -5   5 191.128 22.9426   6
   5   6   5 143.988 21.4100   8
  -5  -6   5 161.422 20.3837   2
   6  -5   5 218.103 22.3814   9
  -6   5   5 225.047 23.4141   4
  -5  -6   5 179.938 19.7195   5
  -6   5   5 226.096 25.6923   1
  -6   6  -5 3.73851 11.4506   8
   6  -6  -5 2.38610 10.2757   2
   6   6  -5 82.6100 26.4863   3
  -6   6  -5 17.2164 16.4956   1
  -6  -6  -5 -4.9523 11.3981   4
  -6  -6  -5 28.5236 15.4744   5
   6   6  -5 18.0573 13.8882   9
  -6   6   5 16.9348 18.3301   1
  -6   6   5 -0.6193 16.9581   4
   6  -6   5 6.62370 12.4608   2
   6  -6   5 -10.326 12.4638   9
   6   6   5 15.2900 19.4256   3
   6   6   5 5.76073 14.9594   8
  -6  -6   5 -1.6432 12.9640   5
  -5   7  -5 187.431 21.7446   8
   5  -7  -5 158.489 22.2582   2
  -5   7  -5 171.583 25.6221   1
   7   5  -5 190.896 24.6130   9
  -7  -5  -5 200.800 21.1258   4
   5  -7  -5 188.123 21.4455   5
   7   5  -5 160.873 31.0654   3
  -7  -5   5 187.834 21.8213   5
   7   5   5 186.310 26.1865   8
   7   5   5 196.412 25.1854   3
  -5   7   5 230.396 27.5552   1
  -5   7   5 214.650 27.4904   4
   5  -7   5 187.298 20.8010   2
   5  -7   5 151.590 23.5081   9
   4  -7  -5 107.528 15.6558   2
   7   4  -5 131.643 18.4432   9
  -7  -4  -5 143.031 19.4002   1
   4  -7  -5 152.748 20.6286   7
  -7  -4  -5 128.897 16.5696   4
   4  -7  -5 134.014 17.2550   5
  -4   7  -5 79.9752 22.2527   1
   7   4  -5 113.256 28.0306   3
  -4   7  -5 111.885 17.5566   8
  -4   7   5 139.265 17.8283   4
  -7  -4   5 108.940 17.1165   5
   4  -7   5 139.522 17.9110   9
  -4   7   5 123.470 18.2712   6
   4  -7   5 101.395 16.1079   2
  -7  -4   5 126.173 18.0285   6
   7   4   5 91.4736 18.2556   3
  -4   7   5 147.242 22.0554   1
   7   4   5 117.864 18.9430   8
  -7  -4   5 112.643 14.0373   4
   3  -7  -5 36.9768 9.84876   7
   3  -7  -5 8.56046 9.83617   5
  -7  -3  -5 33.6959 10.8050   4
  -3   7  -5 32.2146 18.2479   3
   3  -7  -5 24.4027 11.0890   2
   7   3  -5 32.2857 24.1035   3
  -3   7  -5 30.5822 10.1786   8
  -3   7  -5 34.7566 26.8953   1
  -7  -3  -5 32.6895 8.92776   1
   7   3  -5 32.9471 11.0249   7
   7   3  -5 35.2748 12.1697   9
   7   3  -5 20.7607 9.95879   2
   7   3   5 9.15382 9.52069   8
  -3   7   5 39.6379 12.2945   4
  -3   7   5 32.4298 12.8630   1
  -7  -3   5 40.1374 9.98413   6
  -3   7   5 21.6113 13.9237   8
   3  -7   5 24.7811 9.37827   9
   7   3   5 35.7527 12.7808   3
  -7  -3   5 37.9338 10.3803   5
  -7  -3   5 5.53381 9.07457   4
  -7  -3   5 26.9067 12.5705   2
  -3   7   5 33.8310 10.2744   6
   3  -7   5 26.1214 8.41986   2
  -7  -2  -5 114.535 13.5431   7
   7   2  -5 96.8673 25.4606   3
   2  -7  -5 99.2946 15.0949   7
  -7  -2  -5 114.962 16.3041   4
  -2   7  -5 83.8848 15.0782   8
  -2   7  -5 94.3004 13.8755   3
   2  -7  -5 103.735 14.3634   2
   7   2  -5 124.075 16.7954   9
   7   2  -5 91.8675 15.1196   7
  -2   7  -5 91.6879 13.4556   7
  -7  -2  -5 129.059 13.8938   1
   2  -7  -5 107.418 14.0501   4
   7   2  -5 143.959 14.0604   2
   2  -7  -5 98.3369 14.3011   5
  -7  -2   5 126.313 14.5350   4
   2  -7   5 116.668 15.5367   6
  -2   7   5 122.969 19.2152   1
  -7  -2   5 112.376 13.4444   2
  -7  -2   5 92.3176 13.8366   6
  -2   7   5 120.885 16.0523   4
   7   2   5 130.076 14.4997   6
   7   2   5 112.566 17.1408   3
   2  -7   5 114.817 14.0671   2
  -7  -2   5 126.817 14.4729   5
   7   2   5 111.228 14.1138   8
  -2   7   5 134.452 15.7279   6
   1  -7  -5 311.129 21.6158   5
   1  -7  -5 302.871 21.1096   7
   7   1  -5 274.351 39.7581   3
   7   1  -5 301.564 20.1225   2
   1  -7  -5 311.773 20.6113   4
  -7  -1  -5 327.039 24.1517   4
  -1   7  -5 281.200 21.5659   7
  -1   7  -5 264.525 23.2221   8
   7   1  -5 307.980 20.9408   7
   1  -7  -5 275.139 25.1516   2
  -7  -1  -5 289.501 20.8137   7
  -1   7  -5 266.422 23.9410   3
   7   1  -5 287.428 23.9963   9
  -7  -1   5 329.314 26.0708   5
  -1   7   5 328.041 23.0104   6
  -7  -1   5 311.980 21.8910   4
   1  -7   5 336.784 21.8522   9
   7   1   5 303.127 22.3479   9
  -1   7   5 274.994 24.4739   1
  -1   7   5 316.452 22.2684   4
   7   1   5 279.909 20.8522   8
  -7  -1   5 319.030 21.1124   6
   1  -7   5 300.266 21.5161   6
   1  -7   5 292.114 21.5240   2
   7   1   5 279.773 23.8255   3
   7   1   5 318.372 20.9323   6
   7   0  -5 2.24103 6.26627   2
   0  -7  -5 -0.3657 6.09931   4
  -7   0  -5 6.02007 8.46057   1
   7   0  -5 12.4698 8.64272   7
  -7   0  -5 4.02889 5.67478   8
   0  -7  -5 -17.590 10.1343   2
   7   0  -5 7.09643 10.1256   9
   0  -7  -5 -10.621 7.16523   5
  -7   0  -5 -2.2574 10.5856   4
   0  -7  -5 -2.5404 6.77983   7
   0   7  -5 21.4594 9.16924   7
  -7   0  -5 4.81518 6.49893   7
   0   7  -5 -0.9407 11.2349   3
   0   7  -5 -11.083 9.06019   8
   0  -7   5 16.0139 7.80394   2
   0   7   5 2.15601 10.6637   6
  -7   0   5 -6.8165 6.29974   6
   7   0   5 -7.8126 8.11633   9
  -7   0   5 5.47151 7.16489   5
   0   7   5 3.39613 10.0608   8
   0  -7   5 9.89297 7.52020   9
   0   7   5 19.4876 17.4570   1
   7   0   5 10.6619 12.6837   3
  -7   0   5 3.14036 8.06990   4
   0  -7   5 6.64602 7.26583   6
   7   0   5 2.75588 6.35374   8
   0  -7   5 3.05763 6.24901   5
   7   0   5 -0.2944 7.25918   6
   7  -1  -5 312.446 22.7533   2
  -1  -7  -5 300.240 22.0544   5
  -7   1  -5 298.479 25.2019   4
  -1  -7  -5 335.830 21.9702   7
  -1  -7  -5 313.779 20.8611   4
  -7   1  -5 291.430 21.3883   7
   1   7  -5 245.809 27.3801   3
  -7   1  -5 294.079 20.2171   8
   7  -1  -5 298.577 22.4048   7
  -7   1  -5 277.257 22.2367   1
   7  -1  -5 348.924 25.3549   9
  -1  -7   5 294.661 21.8951   2
  -7   1   5 331.077 23.7275   4
   1   7   5 333.772 25.3123   1
   7  -1   5 323.582 22.4048   6
  -1  -7   5 297.810 21.5885   6
  -1  -7   5 329.178 21.9000   9
  -7   1   5 303.087 21.3465   5
   7  -1   5 294.668 21.4164   8
   1   7   5 243.340 23.8121   8
   1   7   5 277.074 24.8353   6
  -7   1   5 302.787 21.4809   6
  -1  -7   5 297.387 21.0849   5
   7  -2  -5 109.828 12.8157   2
  -2  -7  -5 130.858 15.1840   4
  -7   2  -5 107.391 13.6902   7
  -7   2  -5 114.049 15.3358   1
  -7   2  -5 97.9653 15.6196   4
   7  -2  -5 78.3730 13.7421   7
  -2  -7  -5 112.277 15.7061   7
   2   7  -5 101.017 17.7291   9
   2   7  -5 92.9914 16.6941   7
  -2  -7  -5 140.250 14.9671   5
  -7   2  -5 115.773 12.0792   8
   2   7  -5 64.2811 17.6308   8
   2   7  -5 102.049 17.1245   3
   7  -2  -5 161.194 20.0745   9
   7  -2   5 108.633 17.6892   9
  -2  -7   5 105.941 14.9898   6
   2   7   5 89.1960 15.0311   8
  -2  -7   5 95.7460 15.0527   2
  -7   2   5 127.719 16.7004   4
  -7   2   5 107.995 14.0255   6
  -2  -7   5 113.702 14.3469   5
   7  -2   5 118.795 16.9221   6
  -7   2   5 104.783 13.7163   5
   7  -2   5 120.776 19.3267   3
   2   7   5 128.735 18.1218   6
   2   7   5 43.1195 22.5013   1
  -7   2   5 91.5428 14.5317   1
  -2  -7   5 92.2547 15.1627   9
   7  -3  -5 17.0096 12.3293   7
  -3  -7  -5 30.2705 10.7766   5
   7  -3  -5 30.8960 13.9461   9
  -7   3  -5 27.2397 7.96530   8
  -7   3  -5 28.2318 10.3319   1
   3   7  -5 -5.2600 14.1729   8
  -3  -7  -5 25.5263 8.42351   4
  -7   3  -5 18.4359 14.0593   7
  -3  -7  -5 15.1515 10.8340   7
   7  -3  -5 20.7486 8.42535   2
   3   7  -5 45.8814 20.0968   9
   3   7  -5 45.2869 20.0064   7
   7  -3  -5 27.4960 10.7302   5
   3   7  -5 1.86290 15.9313   3
  -7   3   5 18.0802 10.2439   5
   3   7   5 44.5365 17.6114   6
  -7   3   5 20.9176 14.0247   4
  -7   3   5 8.37489 10.2165   6
  -3  -7   5 28.5999 10.2136   2
   7  -3   5 21.1363 11.1249   3
   3   7   5 17.8053 14.6086   1
   3   7   5 38.4089 13.7925   8
   7  -3   5 45.3654 12.0540   9
  -3  -7   5 21.7387 10.3953   5
  -7   4  -5 121.689 15.6096   1
  -4  -7  -5 132.580 15.6698   4
   7  -4  -5 149.742 20.9225   7
  -4  -7  -5 168.722 19.4936   5
  -7   4  -5 120.034 15.8070   8
   4   7  -5 165.765 24.0031   3
   7  -4  -5 123.286 20.2922   9
   7  -4  -5 132.127 16.1400   2
   7  -4  -5 110.733 23.1864   5
   4   7   5 107.951 18.0151   8
  -4  -7   5 132.981 16.0409   2
   7  -4   5 160.205 21.3703   9
  -7   4   5 130.862 16.7798   5
  -7   4   5 117.512 19.9159   6
  -7   4   5 140.522 20.1364   4
  -7   4   5 133.208 19.3408   1
   4   7   5 115.159 21.1668   6
   4   7   5 176.729 28.8229   3
  -4  -7   5 110.785 17.9839   5
   7  -4   5 118.013 18.4392   3
  -7   5  -5 157.649 25.7260   1
  -5  -7  -5 163.180 20.4396   4
   7  -5  -5 205.942 33.4827   9
  -5  -7  -5 279.866 25.3041   5
   7  -5  -5 190.490 20.2031   2
  -7   5  -5 199.302 21.1234   8
   5   7  -5 208.407 35.9971   3
   7  -5   5 216.184 25.8858   9
  -5  -7   5 209.489 22.9982   5
   5   7   5 206.085 34.3894   3
  -5  -7   5 216.376 24.3246   2
  -7   5   5 228.444 30.3050   4
   5   7   5 200.941 28.0012   8
  -7   5   5 203.537 31.1363   1
  -3   8  -5 203.829 20.8104   8
  -8  -3  -5 206.072 22.2631   4
  -8  -3  -5 178.876 20.3873   1
   8   3  -5 218.441 23.6932   9
   3  -8  -5 155.434 19.7641   5
   8   3  -5 224.620 36.4824   3
   3  -8  -5 156.714 22.4554   2
  -8  -3   5 169.658 19.6626   4
   3  -8   5 141.540 21.8780   9
   3  -8   5 151.325 18.3849   2
  -8  -3   5 168.628 21.4471   5
  -3   8   5 181.494 25.3387   1
   8   3   5 135.849 21.4249   3
  -8  -2  -5 241.915 23.8556   4
   2  -8  -5 253.118 24.3253   2
  -2   8  -5 203.439 21.7942   8
   8   2  -5 236.731 23.7891   9
   2  -8  -5 206.601 19.6485   5
  -8  -2  -5 220.953 20.7584   1
   8   2   5 153.663 26.1994   3
  -2   8   5 233.387 22.7874   8
   2  -8   5 241.714 22.1648   9
  -8  -2   5 219.305 21.0043   4
  -2   8   5 207.941 22.6001   6
   2  -8   5 245.859 19.8163   2
  -2   8   5 241.756 25.9399   1
  -8  -2   5 221.527 21.8734   5
  -1   8  -5 306.005 27.0667   3
   8   1  -5 291.422 26.2585   9
  -8  -1  -5 355.601 27.0562   4
   8   1  -5 311.381 22.8026   2
  -8  -1  -5 319.243 22.5663   1
   1  -8  -5 327.276 23.1819   5
   1  -8  -5 300.459 27.9750   2
  -8  -1   5 328.618 25.0892   5
   8   1   5 274.768 27.0694   3
   1  -8   5 335.675 24.9640   9
   1  -8   5 332.105 22.9749   2
  -1   8   5 359.040 30.6619   4
  -1   8   5 288.398 25.3394   8
  -1   8   5 307.091 26.0098   6
  -8  -1   5 290.201 24.6207   4
  -1   8   5 302.261 28.5401   1
   8   1   5 296.468 25.2461   9
  -8  -1   5 324.375 24.2182   6
   0   8  -5 16.5134 12.8140   3
  -8   0  -5 9.96900 13.3378   4
  -8   0  -5 -0.2578 8.45093   1
   8   0  -5 2.90872 12.1703   7
   0  -8  -5 0.63423 8.59800   5
   0   8  -5 6.26867 11.4087   8
   0  -8  -5 -22.376 14.9883   2
   8   0  -5 18.8532 9.61335   2
   8   0  -5 -14.674 12.4855   9
   0  -8  -5 -3.3336 8.54778   4
  -8   0   5 7.23027 10.8567   4
   0  -8   5 -4.3626 8.46278   2
   8   0   5 16.5259 11.2719   9
   0   8   5 -11.867 11.2594   8
  -8   0   5 1.45685 10.0356   6
   0   8   5 3.08867 14.3950   1
   0   8   5 -0.5332 12.0399   4
  -8   0   5 4.89702 10.4762   5
   0   8   5 23.3172 13.7482   6
   8   0   5 6.39688 12.3326   3
   1   8  -5 297.508 27.9508   3
   1   8  -5 246.963 26.4574   8
  -1  -8  -5 330.923 23.6907   5
  -1  -8  -5 328.335 22.4724   4
   8  -1  -5 308.108 22.1155   2
  -8   1  -5 299.812 28.1735   4
  -8   1  -5 287.760 23.5334   1
   8  -1  -5 336.628 27.3600   9
  -1  -8   5 306.902 22.2658   5
   1   8   5 342.993 28.0781   6
   8  -1   5 293.091 25.7153   9
   8  -1   5 260.051 27.0063   3
   1   8   5 384.406 29.0356   1
  -8   1   5 304.456 23.6288   6
  -1  -8   5 298.387 23.3369   2
  -8   1   5 291.405 25.0002   4
   1   8   5 273.102 25.5991   8
  -8   1   5 340.594 24.3156   5
  -2  -8  -5 232.821 19.2960   4
   8  -2  -5 263.866 25.8195   9
   8  -2  -5 170.255 18.8286   2
   2   8  -5 193.808 26.8766   3
  -2  -8  -5 233.370 20.0731   5
  -8   2  -5 169.580 20.0625   1
   2   8  -5 199.164 24.7734   8
  -8   2   5 238.271 23.5685   4
   2   8   5 182.065 22.7943   8
  -8   2   5 206.101 21.4655   6
  -8   2   5 160.929 24.3127   5
   2   8   5 212.735 26.5937   1
  -2  -8   5 238.717 20.6140   2
   8  -2   5 197.460 23.7610   9
   8  -2   5 210.531 28.5546   3
  -2  -8   5 212.621 19.1189   5
  -3  -8  -5 169.384 19.6230   4
  -3  -8  -5 224.483 20.6220   5
   8  -3  -5 171.306 19.2952   2
   3   8  -5 147.997 26.6573   8
   3   8  -5 177.960 29.6713   3
   8  -3  -5 238.626 29.7005   9
  -8   3  -5 144.898 20.0959   1
   3   8   5 162.889 22.1251   8
  -8   3   5 200.257 23.9035   1
   8  -3   5 187.530 24.9541   9
  -3  -8   5 220.385 21.3903   2
  -8   3   5 179.279 26.0720   4
  -3  -8   5 202.662 20.1459   5
   0   0  -6 8911.53 472.636   4
   0   0  -6 9344.32 472.425   1
   0   0  -6 9528.00 472.603   8
   0   0  -6 8960.89 472.281   5
   0   0  -6 9030.01 472.681   3
   0   0  -6 8628.15 472.110   2
   0   0  -6 8234.06 472.856   9
   0   1  -6 997.960 52.6477   3
   0  -1  -6 965.998 52.4785   4
  -1   0  -6 904.247 51.4357   2
   1   0  -6 849.250 52.2708   9
   0   1  -6 967.378 51.7237   5
   0   1  -6 1013.38 51.8748   4
  -1   0  -6 1031.41 52.0453   1
   1   0  -6 967.620 51.8706   5
   1   0  -6 1042.98 51.7667   8
   1   0  -6 944.262 51.9810   1
  -1   0  -6 1009.22 52.1948   8
  -1   0  -6 897.555 52.4698   9
   0   1  -6 891.437 53.2767   8
   0  -1  -6 997.056 52.0901   1
   0  -1  -6 870.117 52.0654   9
   0  -1  -6 923.152 51.5262   2
   0  -1  -6 1047.18 51.9883   3
   0   1  -6 880.951 52.4717   9
   0  -1  -6 992.830 51.9754   5
   0   1  -6 914.574 51.6747   2
   0  -1  -6 1054.23 52.9764   8
   1   0  -6 1009.13 52.2726   3
  -1   0  -6 895.924 51.4912   5
  -1   0  -6 1000.62 52.3944   4
   1   0  -6 915.101 51.6413   2
  -1   0  -6 1023.93 52.3881   3
   0   1   6 1030.69 51.9613   3
   0  -1   6 941.824 51.6814   5
   1   0   6 931.859 51.4781   2
   1   0   6 967.716 52.7640   9
  -1   0   6 915.203 51.8550   1
   0  -1   6 982.727 51.7451   2
   1   0   6 1043.27 52.4523   3
   1  -1  -6 4.07575 2.52798   9
  -1   1  -6 7.46375 3.48156   9
  -1   1  -6 -0.1800 2.07640   3
  -1   1  -6 0.34061 3.43472   1
   1   1  -6 0.29769 1.69602   8
  -1  -1  -6 3.67320 2.46941   3
   1  -1  -6 2.38884 1.85207   5
   1  -1  -6 3.28149 2.08343   3
  -1  -1  -6 -0.2838 2.42264   1
   1   1  -6 1.64061 2.04742   5
   1   1  -6 1.02522 1.73507   2
  -1  -1  -6 2.86566 1.52443   8
  -1  -1  -6 -1.1732 3.51821   4
  -1   1  -6 1.41110 3.07247   4
  -1   1  -6 3.82880 1.77716   5
   1   1  -6 6.36806 3.80215   3
   1  -1  -6 1.05418 1.53377   8
   1  -1  -6 7.04531 3.30201   1
   1  -1  -6 1.85503 1.99437   2
   1   1  -6 4.98708 2.36508   9
  -1  -1  -6 1.93944 1.52992   2
  -1  -1  -6 1.72873 2.04898   5
   1  -1  -6 5.39116 2.90228   4
  -1   1  -6 0.56033 1.53268   8
  -1  -1   6 0.00088 1.94444   5
   1   1   6 1.43875 2.20156   3
  -1  -1   6 4.42622 2.37079   4
   1  -1   6 1.35537 1.80437   5
   1   1   6 1.08676 1.66843   8
  -1   1   6 4.00187 1.62406   8
   1   1   6 5.51556 3.20106   9
  -1   1   6 4.59988 2.77480   4
   1  -1   6 4.85806 3.25853   9
   1  -1   6 -2.0164 2.24511   2
  -1   1   6 0.71414 3.37601   1
  -1   2  -6 781.037 44.4970   9
   2   1  -6 739.446 43.9167   9
   2   1  -6 776.725 43.5784   5
   1  -2  -6 818.539 43.8154   5
   2   1  -6 892.255 45.1276   3
   2   1  -6 837.984 43.0981   8
  -1   2  -6 825.159 44.6004   3
  -2  -1  -6 847.898 43.9132   8
  -2  -1  -6 856.119 43.7725   1
  -2  -1  -6 808.071 44.4414   4
   2   1  -6 808.501 43.4029   2
   1  -2  -6 784.757 43.4959   9
  -1   2  -6 785.302 43.9543   8
   1  -2  -6 841.633 43.6000   2
  -1   2  -6 736.829 44.4714   1
  -2  -1  -6 833.667 43.3599   5
   1  -2  -6 826.548 44.4031   4
   1  -2   6 823.581 43.7473   2
  -1   2   6 802.727 43.9832   1
  -2  -1   6 755.960 43.4820   4
   1  -2   6 755.092 43.4243   6
   2   1   6 832.649 43.9035   8
   2   1   6 753.073 43.5645   9
  -2  -1   6 808.734 43.6605   5
  -1   2   6 880.525 43.0526   3
   1  -2   6 684.057 42.9299   5
   1  -2   6 816.089 44.6804   9
   2   1   6 821.785 44.0375   3
   2   1   6 757.152 42.9519   6
  -2   0  -6 3408.53 178.209   3
  -2   0  -6 3366.86 178.033   8
   0   2  -6 3394.98 178.018   8
   0  -2  -6 3230.04 178.276   4
   2   0  -6 3504.97 177.993   3
  -2   0  -6 3286.27 177.684   1
  -2   0  -6 3247.47 177.046   5
   2   0  -6 3205.45 178.064   9
   2   0  -6 3308.04 177.523   2
   0  -2  -6 3426.23 177.843   5
   0  -2  -6 3346.67 177.856   1
  -2   0  -6 3617.79 178.288   4
   0  -2  -6 3488.11 177.398   2
   0   2  -6 3230.85 178.452   9
   2   0  -6 3302.77 177.680   5
   0   2  -6 3143.28 178.535   3
  -2   0   6 3070.58 177.675   4
   0   2   6 3249.00 177.784   1
   2   0   6 3623.02 177.275   2
   0  -2   6 3445.71 177.656   2
   0   2   6 3576.14 177.493   3
   2   0   6 3266.89 178.220   9
  -2   0   6 3267.33 177.691   5
   0  -2   6 3193.28 177.398   5
   0   2   6 3533.82 177.878   8
   2   0   6 3394.49 178.302   3
  -1  -2  -6 844.651 43.7709   1
   2  -1  -6 795.219 43.8845   9
   1   2  -6 796.315 43.4048   2
  -2   1  -6 805.422 44.1689   3
  -2   1  -6 818.953 43.7498   1
  -1  -2  -6 803.269 43.6282   5
   2  -1  -6 736.111 43.8700   4
   2  -1  -6 825.245 43.6246   5
  -1  -2  -6 824.638 44.2412   4
  -2   1  -6 812.286 43.8914   8
   2  -1  -6 803.072 43.4615   2
   1   2  -6 913.506 45.2334   3
   2  -1  -6 873.617 43.2849   3
   1   2  -6 772.543 44.0331   9
  -2   1  -6 900.914 44.0026   4
  -1  -2  -6 705.011 42.7806   2
  -1  -2   6 795.102 43.5759   5
   2  -1   6 755.954 43.0720   6
   1   2   6 837.298 43.7718   8
   2  -1   6 781.953 44.4534   9
  -2   1   6 750.439 43.7553   4
   1   2   6 809.009 43.7676   3
  -1  -2   6 699.152 42.9089   4
  -2   1   6 759.758 44.1372   1
   2  -1   6 777.539 44.2804   3
  -1  -2   6 820.724 43.4667   2
   2  -1   6 848.628 43.6708   2
  -2  -2  -6 762.352 41.8582   5
  -2   2  -6 798.849 42.2559   1
  -2  -2  -6 833.838 43.6891   1
   2  -2  -6 794.505 41.4162   7
  -2  -2  -6 669.332 42.3580   7
   2   2  -6 842.043 43.4636   7
   2  -2  -6 810.717 41.9818   2
   2   2  -6 769.186 42.8217   2
   2  -2  -6 822.499 43.0690   5
   2   2  -6 753.337 41.6275   8
   2  -2  -6 752.867 42.1141   9
   2   2  -6 785.535 43.7920   3
  -2  -2   6 769.041 42.0300   5
  -2  -2   6 719.627 41.5060   4
   2   2   6 679.862 41.3253   6
  -2  -2   6 734.066 43.1713   2
  -2   2   6 784.902 41.5819   8
   2   2   6 739.757 42.7338   6
  -2   2   6 747.121 41.4268   6
   2   2   6 794.357 42.3703   3
  -2   2   6 747.706 42.7242   1
   2  -2   6 783.374 42.3711   2
  -3  -2  -6 765.247 41.5597   8
   3   2  -6 727.043 40.6149   7
   2  -3  -6 743.948 41.4091   7
   3   2  -6 787.684 44.8979   3
  -2   3  -6 717.373 41.7957   8
   2  -3  -6 747.919 41.2854   2
  -3  -2  -6 734.847 41.0521   5
  -3  -2  -6 737.676 40.7108   7
   3   2  -6 711.966 41.6837   9
  -2   3  -6 744.685 41.8003   1
   2  -3  -6 771.644 41.5109   5
  -3  -2  -6 666.704 41.8624   4
   3   2  -6 744.761 40.8838   2
  -2   3  -6 760.786 41.3558   7
  -2   3  -6 768.841 42.2877   3
   2  -3  -6 732.881 42.0550   4
   2  -3  -6 785.081 41.2692   9
  -3  -2  -6 749.280 41.1853   1
  -2   3   6 766.051 41.1849   8
  -3  -2   6 747.071 40.6893   6
  -2   3   6 743.618 41.7368   4
  -3  -2   6 772.854 41.0211   2
   2  -3   6 749.494 42.5550   9
  -2   3   6 742.114 41.0595   6
   3   2   6 776.872 41.9403   3
   3   2   6 756.453 41.6232   8
  -3  -2   6 764.669 41.4241   5
   3   2   6 725.799 40.6384   6
   2  -3   6 730.455 41.5370   6
  -2   3   6 740.788 42.0810   1
  -3  -2   6 758.608 41.1116   4
   3   1  -6 6.41288 2.62739   7
  -3  -1  -6 1.07381 2.73346   5
  -1   3  -6 5.01113 3.47324   8
  -1   3  -6 10.1708 4.14694   7
   1  -3  -6 4.71109 3.26220   5
   1  -3  -6 6.80476 3.57843   2
  -3  -1  -6 0.61738 3.14387   1
  -3  -1  -6 9.97609 5.62803   4
   1  -3  -6 -1.1860 4.03574   4
  -3  -1  -6 3.76080 2.61287   8
  -1   3  -6 2.54088 4.93705   3
   1  -3  -6 0.90014 3.31811   7
   3   1  -6 -0.7885 6.99680   3
  -1   3  -6 16.6899 5.32122   9
   3   1  -6 0.05783 2.79330   2
  -3  -1  -6 -0.1900 2.08197   7
   3   1  -6 8.85608 4.30515   9
   1  -3   6 4.47459 6.69955   2
   3   1   6 6.03677 3.75705   3
   1  -3   6 4.72221 3.95949   9
  -1   3   6 0.98894 3.20431   6
  -3  -1   6 2.37485 3.58938   4
   3   1   6 8.03857 2.56322   6
   1  -3   6 7.14775 3.59118   6
   3   1   6 1.47182 2.92979   8
   3   1   6 15.5049 3.70090   9
  -3  -1   6 0.39522 2.85425   5
   1  -3   6 -0.9471 3.08755   5
  -1   3   6 14.2437 4.85628   1
  -3  -1   6 4.55993 2.44759   6
  -1   3   6 1.75926 2.37390   8
   0  -3  -6 1790.15 97.6551   4
   0  -3  -6 1863.16 97.4509   1
   0   3  -6 1862.05 96.7060   7
  -3   0  -6 1744.09 96.6283   7
   3   0  -6 2074.21 97.8469   3
   0  -3  -6 1665.46 96.5286   7
   3   0  -6 1665.99 96.5134   7
   0   3  -6 1825.59 97.5967   8
   0  -3  -6 1897.11 96.8406   2
   0   3  -6 1824.60 97.9609   9
   3   0  -6 1793.85 96.8300   2
  -3   0  -6 1894.57 97.7930   4
   0   3  -6 2010.30 98.7996   3
  -3   0  -6 1713.39 97.0982   1
   3   0  -6 1824.09 97.0639   5
  -3   0  -6 1865.85 97.4627   8
   3   0   6 1772.96 97.7065   3
  -3   0   6 1847.95 97.2573   4
   3   0   6 1703.75 96.5343   6
  -3   0   6 1827.14 97.0722   5
   0   3   6 2002.41 96.6298   3
   0   3   6 1673.79 96.8397   6
   0  -3   6 1753.84 96.9698   6
   0   3   6 1882.78 97.2515   8
   3   0   6 1776.12 97.4947   9
   0  -3   6 1700.01 97.7731   9
  -3   0   6 1774.29 96.5035   6
   0   3   6 1816.38 97.3432   1
   0   3   6 2026.90 97.6409   6
  -3   0   6 1732.37 96.4105   6
   0  -3   6 1641.15 96.6660   5
   3  -1  -6 2.76041 2.80696   2
   1   3  -6 5.83530 2.84792   7
  -1  -3  -6 6.35491 3.02727   2
   3  -1  -6 2.37657 4.05868   3
  -3   1  -6 2.78594 2.66503   8
  -1  -3  -6 4.00679 4.35062   4
  -3   1  -6 -0.1847 3.88890   1
   1   3  -6 -0.1341 3.23365   8
   1   3  -6 8.27631 4.34122   9
  -1  -3  -6 6.30241 2.62089   7
   1   3  -6 6.87137 6.55537   3
   3  -1  -6 1.27446 2.64109   5
   3  -1  -6 0.38514 3.04617   7
  -1  -3  -6 -3.3110 3.72635   5
   3  -1  -6 4.09881 3.39210   9
  -3   1  -6 3.53282 5.53725   4
  -3   1  -6 2.05840 3.19732   3
  -1  -3  -6 1.52656 3.66226   1
  -3   1  -6 2.26501 2.35313   7
  -3   1   6 5.06417 3.93010   4
  -1  -3   6 4.03034 3.38308   2
  -1  -3   6 -0.1311 3.02862   5
   3  -1   6 0.83699 5.61843   9
   3  -1   6 1.42427 2.59531   6
   3  -1   6 2.33348 3.31192   3
   1   3   6 1.68617 3.38765   3
   1   3   6 6.47380 3.01895   8
  -1  -3   6 -0.0259 3.40135   6
   3  -1   6 4.84595 4.60007   2
   1   3   6 2.65866 3.48270   6
   1   3   6 4.29004 4.31777   1
  -3   1   6 3.12921 2.63737   6
  -3   1   6 -3.3887 4.57451   1
   3  -2  -6 733.689 41.0180   7
   2   3  -6 722.013 41.5341   9
   3  -2  -6 783.027 41.6595   9
   3  -2  -6 769.820 40.9631   2
  -2  -3  -6 700.068 41.4940   4
   2   3  -6 762.880 40.8285   2
   2   3  -6 752.681 40.4403   7
   3  -2  -6 789.921 41.1273   5
  -3   2  -6 715.817 41.5918   1
  -3   2  -6 741.306 41.4310   8
  -3   2  -6 712.510 40.8422   7
   2   3  -6 723.381 41.0902   8
  -3   2  -6 741.757 41.7923   3
   2   3  -6 699.506 43.8233   3
  -2  -3  -6 774.058 41.1757   1
  -2  -3  -6 754.054 40.4550   7
  -3   2  -6 798.890 41.2392   4
  -3   2   6 748.095 41.4724   4
   3  -2   6 737.312 42.3777   9
   3  -2   6 734.225 42.0109   3
   2   3   6 774.803 41.4628   8
   2   3   6 749.792 41.3159   3
   2   3   6 751.278 40.6106   6
  -2  -3   6 735.455 41.0440   5
   3  -2   6 732.831 40.8514   6
   3  -2   6 665.011 41.0916   2
  -2  -3   6 762.609 40.8966   2
  -3   2   6 759.291 40.6754   6
  -2  -3   6 754.709 40.6084   6
  -2  -3   6 698.395 40.2022   4
   3   3  -6 8.99998 5.24625   9
  -3   3  -6 5.90171 3.61509   7
   3   3  -6 7.12711 3.58929   7
   3  -3  -6 0.32373 3.63864   2
  -3  -3  -6 2.08282 5.19171   4
  -3  -3  -6 -1.2634 2.83539   7
  -3   3  -6 1.97356 6.23609   1
  -3  -3  -6 5.88040 5.44763   5
  -3   3  -6 -1.5145 4.29947   3
   3  -3  -6 14.6191 5.06262   9
   3  -3  -6 -3.6138 3.66305   5
  -3  -3  -6 2.70301 4.02137   1
   3   3  -6 4.46386 4.23169   2
   3   3  -6 10.2127 9.74252   3
   3  -3  -6 5.98503 4.51640   7
  -3   3  -6 -0.9074 3.64470   8
   3   3  -6 -1.0753 3.67662   8
   3  -3   6 5.08577 5.87399   2
  -3   3   6 0.61251 4.75620   4
  -3  -3   6 2.33628 3.53145   6
  -3  -3   6 -4.9821 4.14495   4
   3   3   6 1.50172 4.65294   3
   3   3   6 4.35361 4.00490   6
  -3   3   6 7.48183 4.67011   8
  -3  -3   6 4.57829 4.27410   5
   3   3   6 2.11730 3.52903   8
   3  -3   6 -2.7973 4.76968   3
   3  -3   6 0.34472 5.22743   9
  -3  -3   6 -0.6961 3.79121   2
  -3   3   6 4.65918 3.63855   6
   3  -3   6 1.48295 4.10009   6
  -3   3   6 0.50950 6.46309   1
   4   3  -6 346.075 22.5038   9
   4   3  -6 370.112 21.2942   7
  -3   4  -6 345.711 23.2977   3
  -3   4  -6 354.308 22.3762   8
  -4  -3  -6 370.133 21.7748   1
   3  -4  -6 353.147 21.7912   9
  -3   4  -6 371.446 21.9298   7
   4   3  -6 266.775 28.4959   3
   4   3  -6 329.147 21.3458   2
  -3   4  -6 358.896 24.7798   1
   3  -4  -6 376.282 22.2198   2
   3  -4  -6 343.753 21.7426   5
  -3   4   6 363.049 21.6006   6
   3  -4   6 339.417 22.4595   2
  -4  -3   6 320.656 21.0654   4
  -3   4   6 357.383 23.7513   1
   4   3   6 375.513 23.1404   3
   3  -4   6 355.820 23.4848   9
  -4  -3   6 329.960 21.7691   5
   3  -4   6 353.465 22.5561   6
  -4  -3   6 348.454 21.2813   6
  -3   4   6 395.600 21.9502   8
  -3   4   6 370.256 22.7698   4
  -4  -3   6 326.845 21.2497   2
  -2   4  -6 160.207 15.6091   1
  -2   4  -6 164.126 14.3215   3
   2  -4  -6 173.531 12.9388   2
  -4  -2  -6 173.538 12.3647   1
  -4  -2  -6 155.945 13.9826   4
   2  -4  -6 148.208 12.8789   4
   2  -4  -6 166.037 12.6001   5
   4   2  -6 172.284 11.4783   7
   2  -4  -6 180.231 12.5638   7
  -2   4  -6 165.010 13.0843   8
  -4  -2  -6 161.685 11.7896   8
  -2   4  -6 179.879 12.5067   7
   4   2  -6 164.631 11.6249   2
   4   2  -6 198.581 20.4759   3
  -4  -2  -6 146.601 12.2343   5
   4   2  -6 175.734 13.4280   9
  -4  -2  -6 167.808 11.3129   7
  -4  -2   6 158.998 12.2156   4
  -4  -2   6 156.820 12.1068   2
   4   2   6 175.513 12.3477   8
   4   2   6 161.818 13.2592   3
   4   2   6 171.347 11.5537   9
  -2   4   6 210.202 16.0453   8
  -4  -2   6 166.739 12.0596   5
  -2   4   6 187.540 13.2826   4
   2  -4   6 163.871 13.5686   2
  -2   4   6 171.277 12.3130   6
   4   2   6 165.019 11.6041   6
   2  -4   6 161.537 14.0525   9
  -2   4   6 167.204 14.2009   1
  -4  -2   6 173.259 11.6907   6
   2  -4   6 163.171 13.1563   6
   1  -4  -6 1535.37 78.2635   5
  -4  -1  -6 1517.61 77.3058   7
  -1   4  -6 1397.12 79.1004   3
   1  -4  -6 1451.46 78.1356   4
   4   1  -6 1443.29 77.1786   2
  -4  -1  -6 1325.86 78.2769   4
   1  -4  -6 1505.05 77.8164   2
  -1   4  -6 1351.48 78.4187   8
   4   1  -6 1500.14 78.5090   9
   4   1  -6 1431.17 77.0252   7
   1  -4  -6 1450.46 77.5246   7
  -4  -1  -6 1407.59 77.6906   8
  -4  -1  -6 1422.71 77.5232   1
  -4  -1  -6 1439.51 76.6694   5
   1  -4   6 1383.74 78.2551   9
  -1   4   6 1502.83 78.3755   1
  -1   4   6 1396.91 77.7509   6
  -4  -1   6 1445.42 77.6161   5
  -1   4   6 1507.34 78.1105   8
  -4  -1   6 1411.44 77.5733   4
   4   1   6 1433.93 77.0820   6
  -4  -1   6 1440.24 77.0293   6
   4   1   6 1459.78 77.8213   8
   4   1   6 1497.18 78.5228   3
   4   1   6 1434.29 77.6869   9
   1  -4   6 1370.92 77.7978   6
   1  -4   6 1273.36 77.0398   5
   1  -4   6 1452.99 78.0588   2
  -4   0  -6 71.5256 8.65003   1
  -4   0  -6 81.3469 6.97955   7
   0  -4  -6 95.5334 7.67767   7
  -4   0  -6 94.3949 11.2384   4
   0   4  -6 80.0574 10.0579   9
   0  -4  -6 79.3487 8.96650   4
   4   0  -6 69.5379 7.61423   5
   4   0  -6 74.4356 7.00720   7
   4   0  -6 78.8449 9.95359   9
   0  -4  -6 77.1004 8.91262   2
   0   4  -6 94.7611 9.78114   8
  -4   0  -6 88.5115 7.73723   8
   0   4  -6 80.5158 10.7329   3
   0  -4  -6 78.1323 8.71593   5
   4   0  -6 79.3916 13.3765   3
   4   0  -6 84.1005 7.31051   2
   0   4  -6 100.508 8.38189   7
   0   4   6 91.2280 9.64677   1
   4   0   6 93.5244 8.94027   3
   0  -4   6 83.1526 7.89569   6
  -4   0   6 74.9447 7.51424   5
   0  -4   6 79.3083 8.37060   5
   0  -4   6 76.5749 8.92820   9
   0  -4   6 66.3621 9.13518   2
   0   4   6 84.5173 8.80828   8
   0   4   6 104.985 8.54329   3
  -4   0   6 82.9169 7.08556   6
   4   0   6 70.2585 7.07427   6
   4   0   6 72.9879 9.65712   9
   0   4   6 76.8916 7.94255   6
  -4   0   6 75.2511 8.54727   4
  -4   1  -6 1493.96 80.8341   4
  -4   1  -6 1370.67 80.1587   1
  -4   1  -6 1425.92 80.0716   8
   1   4  -6 1571.74 79.7235   7
   4  -1  -6 1457.89 79.8088   5
  -1  -4  -6 1551.41 80.3245   1
   4  -1  -6 1600.96 80.3432   3
   1   4  -6 1468.27 80.8792   8
   4  -1  -6 1490.20 79.6698   7
   4  -1  -6 1558.14 81.1562   9
  -1  -4  -6 1429.12 80.4833   5
   4  -1  -6 1496.26 79.6661   2
   1   4  -6 1666.73 82.7630   3
  -4   1  -6 1474.59 79.7020   7
  -1  -4  -6 1495.05 79.4024   2
  -1  -4  -6 1490.25 79.5565   7
   1   4  -6 1494.70 80.6845   9
  -1  -4  -6 1447.40 80.1371   4
   1   4   6 1440.27 79.7669   6
  -4   1   6 1450.72 79.8122   5
   4  -1   6 1468.71 81.0988   9
  -1  -4   6 1531.66 80.0943   2
   4  -1   6 1406.10 79.5352   6
  -4   1   6 1452.16 79.4662   6
   4  -1   6 1379.25 80.6355   3
  -4   1   6 1310.25 79.8544   1
   1   4   6 1506.26 80.4483   8
   1   4   6 1452.50 80.0710   1
  -4   1   6 1435.12 80.1797   4
   1   4   6 1671.72 79.9096   3
  -1  -4   6 1376.05 79.7924   5
  -4   2  -6 169.431 13.1699   3
  -2  -4  -6 165.166 12.8940   4
   2   4  -6 171.042 11.9238   7
   4  -2  -6 171.958 11.7629   2
   2   4  -6 160.051 13.3300   9
  -2  -4  -6 174.992 11.6410   7
  -4   2  -6 164.232 13.9046   1
   4  -2  -6 182.196 12.5725   7
   2   4  -6 155.804 15.0765   8
  -4   2  -6 162.937 12.2386   8
  -4   2  -6 137.889 15.3958   4
   4  -2  -6 164.851 14.8393   9
  -2  -4  -6 169.034 13.6389   5
   4  -2  -6 166.962 11.9479   5
  -4   2  -6 178.350 11.8183   7
  -2  -4  -6 191.238 13.0635   1
   2   4   6 183.875 12.6141   6
   2   4   6 178.830 13.2181   3
  -2  -4   6 176.301 12.6620   6
  -4   2   6 172.910 13.2196   4
   2   4   6 183.829 13.5325   1
   4  -2   6 169.968 15.1125   9
  -2  -4   6 156.557 12.2908   5
  -2  -4   6 152.263 12.5849   2
   4  -2   6 167.523 13.4124   3
  -4   2   6 166.187 14.3423   1
   4  -2   6 149.522 12.5306   2
   4  -2   6 160.035 11.9596   6
  -4   2   6 168.711 11.7798   6
   2   4   6 175.712 12.5399   8
   4  -3  -6 331.274 21.0269   2
   3   4  -6 347.768 22.1181   9
   3   4  -6 277.887 26.3977   3
   4  -3  -6 365.254 23.5512   9
  -4   3  -6 370.153 21.4070   7
   4  -3  -6 359.269 21.8862   7
  -4   3  -6 333.979 23.2574   1
  -3  -4  -6 332.708 21.7038   4
  -3  -4  -6 341.183 22.7021   5
  -4   3  -6 353.282 21.7995   8
   4  -3  -6 345.115 21.2058   5
   3   4  -6 350.248 20.9508   7
  -4   3  -6 345.781 22.3121   3
  -3  -4  -6 355.974 21.6672   1
  -3  -4  -6 360.536 20.9427   7
  -3  -4   6 319.604 21.6720   5
   3   4   6 382.279 21.7331   6
  -4   3   6 348.989 22.2582   4
   4  -3   6 343.301 21.7965   6
  -4   3   6 354.241 23.7565   1
  -3  -4   6 318.770 21.1808   2
  -3  -4   6 341.356 21.2691   6
  -4  -4  -6 334.741 23.9365   4
   4   4  -6 371.716 24.4031   9
   4  -4  -6 407.889 23.3827   5
  -4   4  -6 404.008 23.8175   7
  -4   4  -6 351.766 24.7020   3
  -4  -4  -6 344.896 25.2416   5
   4   4  -6 345.254 30.8024   3
  -4  -4  -6 397.447 23.7452   1
   4  -4  -6 369.515 24.5311   7
  -4  -4  -6 390.716 23.0436   7
  -4   4  -6 358.073 26.6884   1
   4  -4  -6 386.613 25.9249   9
  -4   4  -6 385.292 24.1831   8
   4   4  -6 375.462 23.3592   7
   4  -4  -6 379.580 23.1425   2
   4   4   6 367.772 23.5382   6
   4  -4   6 365.564 25.1262   3
   4   4   6 387.504 25.2251   3
  -4   4   6 392.840 24.6252   4
  -4  -4   6 350.549 22.7210   4
   4  -4   6 371.968 24.1701   6
   4   4   6 383.078 24.1635   8
  -4  -4   6 375.880 24.0326   5
  -4  -4   6 351.436 23.1209   2
   4  -4   6 363.564 25.6853   9
  -4  -4   6 375.541 23.1941   6
  -4   4   6 381.013 23.2317   6
  -4   4   6 385.655 26.1511   1
   4  -4   6 357.603 23.7320   2
   5   4  -6 1052.02 59.0433   7
  -4   5  -6 1024.34 59.9743   8
  -5  -4  -6 968.979 58.4986   7
   5   4  -6 1163.71 67.5026   3
   4  -5  -6 1103.36 60.2152   2
  -4   5  -6 1013.99 61.8731   1
  -5  -4  -6 1046.99 62.1479   4
   4  -5  -6 1053.63 59.4254   5
   4  -5  -6 972.315 59.8411   7
  -5  -4  -6 1061.83 59.1103   1
  -4   5  -6 1040.61 59.4393   7
  -5  -4  -6 949.799 60.3211   5
  -4   5  -6 1140.12 60.6544   3
   5   4  -6 1091.04 60.0307   9
  -4   5   6 1167.65 60.1586   4
  -4   5   6 1151.71 61.6639   1
   4  -5   6 1069.37 60.8726   3
  -5  -4   6 1031.93 58.3456   4
   5   4   6 1064.11 61.0383   3
   4  -5   6 1148.42 62.1110   9
  -4   5   6 1064.61 59.1927   6
  -5  -4   6 1162.90 62.7572   5
  -5  -4   6 1027.62 58.6637   2
   5   4   6 954.774 59.5107   8
   4  -5   6 993.133 59.0427   2
   4  -5   6 1036.01 60.1174   6
   5   4   6 1034.67 58.9647   6
  -5  -4   6 1032.88 58.7437   6
   5   3  -6 13.5502 7.46542   9
   3  -5  -6 6.96717 6.87720   2
   5   3  -6 6.48389 6.30455   2
  -3   5  -6 13.1791 6.21868   8
  -3   5  -6 11.0586 5.88166   7
  -5  -3  -6 5.24745 6.00754   1
  -3   5  -6 0.22526 7.68180   3
   5   3  -6 21.9097 15.7381   3
  -5  -3  -6 2.28714 4.75598   7
   3  -5  -6 14.4602 6.70716   7
  -5  -3  -6 10.8809 7.51431   4
   3  -5  -6 -2.0187 5.95768   5
   5   3  -6 4.43056 5.90288   7
  -5  -3  -6 21.6591 8.63510   5
  -3   5  -6 16.9254 11.5942   1
   3  -5   6 10.4566 7.34447   6
  -5  -3   6 5.81638 6.26130   5
  -3   5   6 6.41266 5.77585   6
  -3   5   6 7.59140 7.93533   8
  -5  -3   6 9.81470 5.60539   6
   5   3   6 6.91809 5.55905   8
   3  -5   6 4.22300 6.76403   2
  -3   5   6 6.02376 8.07670   4
  -5  -3   6 7.23674 5.64818   2
  -3   5   6 22.0644 9.16674   1
   3  -5   6 7.33994 7.01232   9
   5   3   6 8.62534 7.72669   3
  -5  -3   6 2.42701 6.42402   4
   5   3   6 13.4726 6.69375   6
   2  -5  -6 1034.02 55.8860   5
  -2   5  -6 988.665 55.4585   7
  -2   5  -6 1020.85 57.4010   1
  -2   5  -6 933.996 56.6514   3
  -5  -2  -6 942.418 54.7644   7
   2  -5  -6 1014.69 55.9414   2
   5   2  -6 1014.27 54.7804   2
   5   2  -6 1073.76 56.7529   9
   5   2  -6 1025.50 54.7884   7
   2  -5  -6 1006.48 55.8626   4
  -5  -2  -6 1013.84 55.2585   1
  -2   5  -6 959.017 56.4171   8
  -5  -2  -6 916.358 56.2107   4
   2  -5  -6 949.265 55.2910   7
   5   2   6 992.436 56.5396   3
  -5  -2   6 980.092 54.7474   6
  -2   5   6 1014.77 56.2446   1
  -5  -2   6 983.224 55.0805   4
   5   2   6 1037.43 54.9153   6
  -5  -2   6 983.585 55.3789   5
  -2   5   6 989.121 55.4713   6
   5   2   6 969.916 55.4373   8
   2  -5   6 976.937 55.4876   2
  -2   5   6 1055.11 56.0693   8
   2  -5   6 1042.95 56.2594   9
  -2   5   6 1074.04 55.8794   4
   2  -5   6 970.570 55.8973   6
   5   2   6 968.098 55.2173   9
   1  -5  -6 10.3764 5.79260   5
   1  -5  -6 11.1704 4.91027   7
   5   1  -6 17.3709 4.86847   2
  -5  -1  -6 5.50366 7.16947   4
   5   1  -6 8.99368 13.0982   3
   5   1  -6 7.16271 6.75085   9
   1  -5  -6 -3.1413 6.17039   2
   1  -5  -6 2.94292 5.44366   4
  -1   5  -6 1.98710 5.35121   7
   5   1  -6 7.99607 4.51464   7
  -5  -1  -6 0.63472 3.88495   8
  -5  -1  -6 6.89857 4.67435   1
  -5  -1  -6 4.60870 3.93428   7
  -1   5  -6 2.01189 7.36725   3
  -1   5  -6 6.85059 5.87396   8
   1  -5   6 -2.1134 5.59086   9
   5   1   6 5.24202 4.64550   6
  -1   5   6 11.6991 7.08238   1
   1  -5   6 14.1880 5.40298   6
   5   1   6 4.30286 4.16219   8
  -1   5   6 3.76578 5.71264   6
   5   1   6 2.22370 5.51253   3
  -5  -1   6 5.94195 5.24487   4
   1  -5   6 -2.4267 5.76084   2
  -5  -1   6 7.10008 4.16915   6
  -1   5   6 1.86051 6.03218   8
  -5  -1   6 -3.1365 4.50834   5
   1  -5   6 7.50687 5.17639   5
   5   1   6 9.59445 5.55979   9
   0   5  -6 298.128 20.8291   7
  -5   0  -6 344.239 21.1016   1
   0  -5  -6 345.836 20.8789   7
   5   0  -6 349.155 22.9362   9
   0  -5  -6 350.038 21.6674   5
  -5   0  -6 332.414 20.1181   7
  -5   0  -6 318.969 20.3186   8
  -5   0  -6 343.488 23.3304   4
   5   0  -6 342.779 19.9642   2
   0  -5  -6 334.254 21.3564   2
   0   5  -6 354.137 22.2396   9
   5   0  -6 320.720 20.1426   7
   0   5  -6 313.997 22.6191   8
   0  -5  -6 338.443 20.9561   4
   0   5   6 354.211 22.2534   1
   0  -5   6 299.801 20.7120   5
   0  -5   6 331.811 20.7166   6
   0   5   6 347.946 21.6434   8
   0  -5   6 310.743 21.3458   2
  -5   0   6 301.069 21.0806   4
   5   0   6 336.363 20.2483   6
   0  -5   6 310.655 21.4524   9
  -1  -5  -6 -1.6790 6.36817   2
  -5   1  -6 1.06230 5.72882   1
   5  -1  -6 -4.8520 7.91331   9
   1   5  -6 9.93673 5.65641   7
  -5   1  -6 6.97903 4.18108   8
  -1  -5  -6 4.30625 4.53835   7
   5  -1  -6 -4.3618 4.32118   2
  -5   1  -6 3.42923 4.16118   7
   1   5  -6 -0.7997 6.90566   8
   5  -1  -6 4.22024 5.00752   7
  -5   1  -6 17.6978 8.98304   4
   5  -1  -6 2.60123 4.99816   5
  -1  -5  -6 -2.9009 6.09421   5
   1   5  -6 4.25023 7.33758   9
   1   5   6 1.24625 7.41160   3
  -1  -5   6 0.95011 5.79458   5
   1   5   6 0.39307 6.81381   6
  -5   1   6 13.0270 6.35075   4
  -1  -5   6 4.25977 5.02957   6
   5  -1   6 5.55307 5.39261   3
  -5   1   6 9.23970 5.11004   5
   5  -1   6 7.29043 5.19193   6
   5  -1   6 1.48968 6.19413   9
  -5   1   6 5.74776 4.43867   6
   1   5   6 2.42350 7.08032   1
   1   5   6 12.6829 6.61200   8
  -1  -5   6 1.99983 5.56970   9
  -1  -5   6 0.66304 5.43673   2
  -2  -5  -6 964.006 56.5230   5
  -2  -5  -6 1022.17 55.3152   7
  -5   2  -6 983.500 56.2170   1
   2   5  -6 1022.80 55.4401   7
  -2  -5  -6 950.289 55.4282   4
  -5   2  -6 1009.28 55.6411   8
   5  -2  -6 1047.18 57.4831   9
   2   5  -6 1011.23 56.1576   9
   5  -2  -6 999.759 55.0741   2
   2   5  -6 896.948 56.9013   8
  -5   2  -6 1006.45 56.9959   4
   2   5  -6 873.994 58.9097   3
  -5   2  -6 1010.81 55.4715   7
   5  -2  -6 995.256 55.4648   7
  -2  -5  -6 1045.00 55.9576   1
   5  -2  -6  999.99 55.3472   5
   5  -2   6 1018.74 57.3834   9
   5  -2   6 945.269 56.3535   3
   2   5   6 997.723 55.9305   1
   2   5   6 1013.54 56.6329   8
  -2  -5   6 963.693 55.7629   5
   2   5   6 1040.24 55.6691   6
  -5   2   6 1043.09 56.2277   4
  -5   2   6 1032.55 55.3747   5
  -2  -5   6 1005.56 55.6990   2
   2   5   6 1067.58 56.1188   3
  -5   2   6 995.636 56.1111   1
   5  -2   6 988.728 55.4814   6
  -5   2   6 1017.50 55.1476   6
  -5   3  -6 8.75469 8.27404   1
   5  -3  -6 7.12587 6.13360   5
  -5   3  -6 1.00307 5.17355   8
  -3  -5  -6 9.73101 6.92539   1
   5  -3  -6 5.70821 4.76865   2
   3   5  -6 -3.6130 6.93299   9
  -3  -5  -6 -1.9074 5.23287   7
  -3  -5  -6 3.03063 7.97075   5
   5  -3  -6 10.8136 9.74689   9
  -3  -5  -6 3.34971 5.96258   4
  -5   3  -6 6.72775 4.92768   7
   5  -3  -6 3.34858 7.17788   7
   3   5  -6 -12.434 8.26805   8
   3   5  -6 11.0586 6.85458   7
   3   5   6 7.76648 8.11596   6
  -3  -5   6 16.1502 6.92751   6
  -3  -5   6 9.58440 6.49255   2
   3   5   6 7.74127 8.66190   1
  -5   3   6 6.67074 9.36374   1
   3   5   6 1.62978 7.40950   8
  -5   3   6 2.56739 7.93316   4
   3   5   6 3.86727 8.29203   3
   5  -3   6 -2.0225 6.90979   3
   5  -3   6 1.93542 7.69556   9
  -5   3   6 -1.6257 5.49650   6
   5  -3   6 -1.3341 6.33287   6
   5  -3   6 10.6138 8.07772   2
  -3  -5   6 9.47438 7.02652   5
  -5   4  -6 982.137 60.2461   1
   4   5  -6 1004.50 58.4101   7
   5  -4  -6 1064.82 58.5687   5
   5  -4  -6 1054.84 61.2359   9
  -4  -5  -6 1006.38 58.6015   1
  -5   4  -6 1063.06 58.9212   7
  -5   4  -6 1039.35 59.1785   8
  -4  -5  -6 972.758 59.5717   4
  -4  -5  -6 1127.28 60.6501   5
   4   5  -6 1035.09 58.9968   9
  -4  -5  -6 1000.50 58.1890   7
   5  -4  -6 1068.68 59.7129   7
   5  -4   6 1053.69 66.0692   9
   4   5   6 1062.63 58.8414   6
   5  -4   6 1072.30 60.2905   3
   4   5   6 939.222 60.0379   3
  -4  -5   6 1062.63 58.7676   6
   5  -4   6 958.810 58.6056   2
  -4  -5   6 1096.21 59.6194   5
   5  -4   6 1051.49 59.3643   6
  -4  -5   6 1030.63 58.5592   2
   4   5   6 979.422 59.8057   8
   4   5   6 1082.13 58.9296   1
  -5   4   6 1105.53 60.5450   1
  -5   4   6 1088.04 58.6965   6
  -5   4   6 1195.84 60.3782   4
  -5  -5  -6 -1.5401 8.16309   4
   5  -5  -6 13.9976 7.93111   2
  -5  -5  -6 22.7744 7.58292   7
  -5   5  -6 21.6194 8.32395   8
  -5  -5  -6 15.4351 10.0004   1
   5  -5  -6 8.41557 8.34463   5
   5  -5  -6 6.84282 10.7312   7
   5   5  -6 6.81739 10.0376   7
  -5  -5  -6 34.5969 13.2310   5
  -5   5  -6 1.87159 11.8845   1
   5   5  -6 -21.745 16.9024   3
   5   5  -6 4.94775 9.73287   9
   5  -5   6 19.4235 9.80191   9
  -5   5   6 -9.6706 12.3851   4
   5  -5   6 18.1383 15.2079   3
  -5  -5   6 11.7983 9.60984   5
  -5   5   6 8.06966 9.09247   6
  -5  -5   6 11.9773 9.85927   6
  -5  -5   6 11.6211 8.78951   2
   5  -5   6 1.38260 9.24014   2
   5   5   6 10.8785 9.72912   8
   5   5   6 24.5323 14.6720   6
  -5   5   6 31.1968 13.3213   1
   5   5   6 4.35621 11.8411   3
   6   5  -6 100.783 26.9398   3
   6   5  -6 187.308 20.6575   9
   6   5  -6 126.020 20.5580   7
  -5   6  -6 164.741 21.7428   3
   5  -6  -6 161.410 18.4356   2
  -5   6  -6 167.578 18.4946   7
   5  -6  -6 172.052 21.6443   7
  -6  -5  -6 188.552 21.2605   1
  -5   6  -6 150.127 18.7717   8
   5  -6  -6 207.707 18.6369   5
  -6  -5  -6 172.082 18.1680   7
  -5   6  -6 148.199 19.9112   1
  -6  -5  -6 159.508 18.8697   4
   6   5   6 231.468 23.1779   6
  -6  -5   6 204.937 19.2914   5
  -5   6   6 211.987 24.2723   1
   6   5   6 178.516 24.0108   3
  -6  -5   6 156.029 19.8033   2
  -6  -5   6 149.218 19.3676   6
   5  -6   6 159.229 21.5435   3
  -5   6   6 174.038 21.5660   4
   5  -6   6 164.464 23.0499   6
   5  -6   6 149.781 19.3949   2
   6   5   6 126.759 19.7898   8
   5  -6   6 165.190 20.9744   9
   4  -6  -6 100.367 16.1894   7
  -6  -4  -6 114.269 14.4813   7
   6   4  -6 161.472 25.8786   3
   4  -6  -6 123.575 15.5933   5
   4  -6  -6 101.847 13.8632   2
   6   4  -6 117.421 15.7826   9
   6   4  -6 114.322 13.5685   7
  -4   6  -6 108.036 18.4391   3
  -4   6  -6 119.453 14.9919   7
  -4   6  -6 123.248 15.4212   8
  -6  -4  -6 104.289 13.8082   4
  -4   6  -6 131.673 18.7321   1
  -6  -4  -6 122.346 17.0887   1
   4  -6   6 127.266 16.7840   9
   6   4   6 111.203 14.5486   6
   6   4   6 123.691 19.3668   3
  -4   6   6 117.205 14.6115   6
   6   4   6 81.7438 14.2604   8
   4  -6   6 119.850 15.5142   2
  -6  -4   6 103.065 14.5812   2
   4  -6   6 115.859 14.6612   6
  -4   6   6 115.749 15.9799   1
  -4   6   6 109.011 16.9431   4
  -6  -4   6 105.630 14.8821   6
  -6  -4   6 90.8584 14.6514   4
   4  -6   6 112.621 17.1829   3
  -6  -4   6 104.224 14.7465   5
   6   3  -6 2195.81 115.803   7
   3  -6  -6 2212.82 117.410   7
   3  -6  -6 1852.37 118.896   2
  -3   6  -6 2066.70 116.253   7
   6   3  -6 2267.16 117.455   9
  -3   6  -6 2190.68 117.331   3
   3  -6  -6 2093.13 116.673   5
   6   3  -6 2295.31 115.567   2
  -6  -3  -6 2031.09 115.475   7
  -3   6  -6 2026.50 117.465   8
  -6  -3  -6 2284.65 117.275   1
  -6  -3  -6 1968.27 116.868   4
   6   3  -6 2055.79 123.409   3
  -3   6  -6 2010.62 118.322   1
  -6  -3   6 2175.80 115.317   2
   6   3   6 2335.44 118.024   3
  -6  -3   6 2114.94 115.548   6
   6   3   6 2235.54 115.847   6
  -3   6   6 2315.18 119.386   8
  -6  -3   6 2186.26 116.572   5
  -3   6   6 2168.75 116.122   6
  -3   6   6 2399.68 116.541   4
   3  -6   6 2072.23 116.729   6
   3  -6   6 1851.66 119.637   9
  -3   6   6 2197.26 117.036   1
  -6  -3   6 2110.89 115.490   4
   6   3   6 2001.39 116.275   8
   6   2  -6 575.607 34.5812   9
   6   2  -6 557.446 31.9060   2
  -2   6  -6 541.225 32.7406   7
   2  -6  -6 529.793 33.7549   2
   2  -6  -6 546.742 32.7714   4
   6   2  -6 518.958 44.8353   3
  -2   6  -6 494.468 33.8789   8
   6   2  -6 527.830 32.0635   7
  -6  -2  -6 536.562 34.3666   4
  -6  -2  -6 568.979 32.1549   7
   2  -6  -6 536.558 33.0434   5
   2  -6  -6 556.808 32.6954   7
  -6  -2  -6 544.660 32.5106   1
  -2   6  -6 482.197 33.9499   3
   2  -6   6 535.748 33.3164   9
   6   2   6 565.362 34.9387   3
   6   2   6 521.077 32.4778   8
  -6  -2   6 546.816 32.5540   5
  -2   6   6 556.776 33.5642   8
  -2   6   6 570.152 33.0206   6
  -6  -2   6 543.205 31.9673   6
  -2   6   6 575.687 33.1407   4
  -2   6   6 543.791 34.4369   1
  -6  -2   6 524.652 32.3032   4
   2  -6   6 543.232 33.2264   6
   6   2   6 567.660 32.2325   6
  -6  -2   6 525.310 31.7713   2
   2  -6   6 527.187 32.8867   2
   1  -6  -6 156.400 14.4652   5
  -1   6  -6 123.859 16.5167   3
  -6  -1  -6 171.229 13.3988   1
  -1   6  -6 149.549 15.7083   8
  -1   6  -6 145.135 13.9558   7
   6   1  -6 151.111 23.2030   3
   1  -6  -6 148.475 13.3614   7
   6   1  -6 150.773 16.4929   9
  -6  -1  -6 146.101 17.4860   4
   1  -6  -6 146.934 16.2939   2
   6   1  -6 147.297 12.7730   7
  -6  -1  -6 160.992 12.6510   8
   1  -6  -6 164.270 13.5667   4
   6   1  -6 136.633 12.6691   2
  -6  -1  -6 156.112 12.6910   7
   6   1   6 149.075 15.7581   3
  -1   6   6 156.924 16.5553   1
   6   1   6 144.932 13.1856   6
   6   1   6 164.502 15.2062   9
  -6  -1   6 149.047 12.7548   6
  -6  -1   6 154.123 14.3867   4
  -1   6   6 155.653 15.5956   8
  -1   6   6 151.727 14.9503   4
   1  -6   6 156.609 14.5259   2
  -6  -1   6 155.121 13.0834   5
   6   1   6 139.770 13.1768   8
  -1   6   6 143.463 14.5064   6
   1  -6   6 161.260 14.4107   9
   1  -6   6 168.272 14.3411   6
  -6   0  -6 728.849 42.5421   1
   0   6  -6 635.100 44.1676   8
   6   0  -6 759.276 42.0088   7
  -6   0  -6 718.034 41.9354   8
   0   6  -6 752.059 45.3588   3
   0  -6  -6 721.192 43.3251   2
  -6   0  -6 747.663 42.0930   7
   6   0  -6 789.142 44.9040   9
   0  -6  -6 781.489 42.3738   7
   6   0  -6 766.824 41.5475   2
   0  -6  -6 712.409 43.1317   5
  -6   0  -6 683.774 44.9068   4
   0  -6  -6 761.220 42.2191   4
   6   0   6 714.548 43.8287   3
   0   6   6 796.235 44.1074   8
  -6   0   6 748.525 43.0473   4
   0   6   6 770.148 43.7143   1
   6   0   6 757.025 41.9884   6
   0  -6   6 740.208 42.7759   9
   0  -6   6 704.868 42.9950   2
   6   0   6 716.058 42.1297   8
   0  -6   6 729.124 42.3824   6
   0  -6   6 703.401 41.7770   5
  -6   0   6 755.882 42.4221   5
  -6   0   6 750.751 41.7352   6
   6   0   6 742.762 43.5870   9
   0   6   6 775.266 43.1779   6
   6  -1  -6 171.737 18.2654   9
   6  -1  -6 160.650 14.0289   7
  -6   1  -6 153.797 13.1040   7
   1   6  -6 129.021 17.0008   8
   1   6  -6 142.734 19.1874   3
  -1  -6  -6 165.437 13.8509   4
  -1  -6  -6 148.336 15.5874   5
  -6   1  -6 177.283 19.5370   4
   1   6  -6 141.706 14.6322   7
  -6   1  -6 151.222 15.1825   1
   6  -1  -6 147.329 13.0073   2
   1   6  -6 163.926 16.6159   9
  -1  -6  -6 156.749 14.6863   7
  -6   1  -6 168.962 12.8024   8
   1   6   6 173.494 15.9332   8
  -1  -6   6 143.710 14.8840   2
  -1  -6   6 146.199 14.5073   5
   6  -1   6 162.238 16.8577   9
   1   6   6 171.013 17.1912   1
   6  -1   6 168.420 14.0402   6
  -6   1   6 163.772 15.9517   4
  -1  -6   6 168.122 13.6072   6
  -6   1   6 160.167 13.3640   6
  -1  -6   6 139.338 14.9661   9
  -6   1   6 167.379 13.3989   5
   1   6   6 159.760 15.3662   6
   6  -1   6 161.427 15.7587   3
   2   6  -6 488.314 32.6871   7
  -6   2  -6 527.294 32.2704   7
  -2  -6  -6 564.827 32.2124   4
  -6   2  -6 504.270 36.0667   4
   6  -2  -6 548.046 31.8245   2
  -6   2  -6 485.510 33.3556   1
  -2  -6  -6 571.390 34.0365   5
  -2  -6  -6 583.112 32.8522   7
   2   6  -6 431.905 36.3088   3
   6  -2  -6 559.250 32.9219   7
  -6   2  -6 562.504 32.0745   8
   2   6  -6 560.533 33.9031   9
   6  -2  -6 557.780 35.9740   9
   6  -2  -6 528.767 32.4128   5
  -2  -6   6 525.704 33.0178   6
   2   6   6 553.499 33.6500   6
   6  -2   6 546.400 35.1155   9
   6  -2   6 537.002 32.9579   6
  -6   2   6 571.619 32.3385   5
  -2  -6   6 553.516 33.4167   9
  -2  -6   6 502.123 32.9417   2
  -6   2   6 542.628 33.7539   1
  -6   2   6 538.110 32.2819   6
  -2  -6   6 534.362 33.1232   5
   6  -2   6 518.989 34.1341   3
  -6   2   6 554.815 34.0647   4
   2   6   6 573.677 34.0385   1
   2   6   6 548.401 34.5305   8
   6  -3  -6 2121.10 116.166   5
   3   6  -6 2325.89 120.904   3
   3   6  -6 1818.02 115.991   7
  -6   3  -6 2143.90 117.106   1
  -3  -6  -6 2168.88 116.395   7
   6  -3  -6 2441.09 119.360   9
  -6   3  -6 2127.98 116.607   7
  -3  -6  -6 1904.69 116.722   4
   3   6  -6 2218.36 116.973   9
  -6   3  -6 2217.43 116.739   8
   6  -3  -6 2291.31 118.147   7
   6  -3  -6 2111.35 115.747   2
   6  -3   6 2206.55 118.839   9
   3   6   6 2187.52 116.586   1
   3   6   6 2242.24 117.826   3
  -6   3   6 2309.53 117.594   1
   3   6   6 2175.55 116.738   6
   6  -3   6 2061.41 117.303   3
  -6   3   6 2233.72 116.299   6
  -6   3   6 2224.72 116.065   5
  -6   3   6 2375.90 117.713   4
   3   6   6 1887.62 117.417   8
  -3  -6   6 1823.02 119.155   5
   6  -3   6 2133.93 116.734   6
  -3  -6   6 1828.73 117.059   2
  -6   4  -6 90.0487 14.0220   8
   6  -4  -6 115.725 16.7666   7
  -4  -6  -6 90.6072 14.1709   4
  -4  -6  -6 113.774 13.5784   1
  -4  -6  -6 99.1758 15.2345   7
   6  -4  -6 113.191 15.1002   5
   4   6  -6 80.0363 13.4393   7
   6  -4  -6 120.499 13.4994   2
   4   6  -6 144.967 16.8700   9
  -4  -6  -6 141.193 18.1263   5
  -6   4  -6 122.825 14.9088   1
   4   6  -6 144.200 22.3364   3
  -6   4  -6 102.056 13.9349   7
   4   6   6 142.403 17.7011   6
  -4  -6   6 110.433 14.5279   6
  -6   4   6 91.1943 17.6942   1
   6  -4   6 126.820 16.6312   6
   6  -4   6 110.862 19.6545   9
   4   6   6 123.076 18.1350   8
  -6   4   6 151.290 19.3972   4
  -6   4   6 118.342 14.3891   5
  -4  -6   6 113.212 16.1190   5
   4   6   6 139.246 22.5677   3
  -6   4   6 132.550 15.1574   6
   4   6   6 115.511 16.8493   1
   6  -4   6 119.777 17.7383   3
  -4  -6   6 112.897 16.2893   2
   5   6  -6 127.268 18.1465   7
  -6   5  -6 148.996 23.2062   1
  -5  -6  -6 165.369 19.2616   7
  -5  -6  -6 172.825 22.6126   5
  -6   5  -6 204.856 18.4191   8
  -5  -6  -6 137.193 22.5368   1
   6  -5  -6 161.980 22.2271   7
   6  -5  -6 167.911 18.4651   5
   6  -5  -6 175.462 17.3856   2
  -6   5  -6 163.905 17.9416   7
  -5  -6  -6 198.274 18.5895   4
   5   6  -6 160.549 26.7887   3
   5   6  -6 157.166 21.1483   9
   5   6   6 211.920 26.4532   3
   6  -5   6 153.931 22.6429   9
   5   6   6 126.621 20.8490   8
   6  -5   6 154.086 22.1455   6
  -5  -6   6 167.302 19.9899   2
  -6   5   6 164.943 20.5808   6
   5   6   6 169.567 22.7049   6
   5   6   6 218.904 24.1200   1
  -6   5   6 112.402 20.7976   1
  -5  -6   6 175.428 22.1253   6
  -6   5   6 218.596 23.2718   4
   6  -6  -6 5.28825 13.6452   5
  -6   6  -6 25.0403 12.4002   8
  -6  -6  -6 0.22757 11.5520   4
   6   6  -6 40.3546 15.1853   9
   6  -6  -6 -3.6638 11.6540   2
  -6   6  -6 -5.8282 16.5154   1
   6   6  -6 14.7024 25.6717   3
  -6  -6  -6 -0.4679 27.0278   5
  -6   6   6 38.5455 17.8052   4
   6   6   6 18.4762 15.8195   8
   6   6   6 16.5382 19.6251   3
  -6  -6   6 9.37603 13.6054   5
   6  -6   6 34.6201 13.2377   9
  -6  -6   6 -10.765 13.7764   2
  -6   6   6 -12.299 15.3748   6
   4  -7  -6 239.094 21.7351   5
  -7  -4  -6 257.004 23.0114   4
   7   4  -6 270.341 25.8453   9
   4  -7  -6 199.346 23.8190   2
   4  -7  -6 203.045 22.3644   7
  -7  -4  -6 253.530 24.4059   1
   7   4  -6 195.394 24.1995   7
  -4   7  -6 221.509 32.3984   1
   7   4  -6 333.015 43.7978   3
  -4   7  -6 238.780 22.7192   8
  -7  -4   6 254.605 21.5921   2
  -4   7   6 262.325 26.4977   1
  -7  -4   6 255.545 21.2208   4
   4  -7   6 239.740 21.2521   2
  -7  -4   6 259.133 22.1627   5
  -4   7   6 251.647 34.3939   4
   7   4   6 200.305 22.7169   8
   4  -7   6 240.602 22.8111   9
   7   4   6 204.108 26.8184   3
   4  -7   6 189.486 23.8794   6
   7   4   6 231.990 24.3434   6
  -4   7   6 244.719 22.5714   6
  -7  -4   6 235.589 22.4391   6
   3  -7  -6 17.9199 11.4196   2
  -3   7  -6 15.3020 12.0693   3
  -7  -3  -6 11.0641 12.0896   4
   7   3  -6 26.1646 12.9456   9
   3  -7  -6 26.8873 10.7245   5
   7   3  -6 30.7652 10.3273   7
  -7  -3  -6 7.08292 8.53617   7
  -7  -3  -6 20.4174 9.76566   1
  -3   7  -6 18.1949 10.0828   8
   7   3  -6 5.26688 26.0279   3
   7   3  -6 9.84533 10.2051   2
   3  -7  -6 27.7434 9.67936   7
  -3   7  -6 7.48094 9.22530   7
   7   3   6 22.7320 11.3522   6
   3  -7   6 31.7601 9.23638   2
  -3   7   6 44.9425 12.5948   4
   7   3   6 6.46199 12.6250   3
  -7  -3   6 21.8539 10.5091   5
   3  -7   6 7.58219 10.8421   6
  -3   7   6 23.8057 10.2052   6
   7   3   6 14.3733 9.49008   8
  -7  -3   6 13.2009 8.99879   2
  -3   7   6 26.9258 13.2607   1
  -7  -3   6 24.4591 9.60155   6
  -7  -3   6 21.7112 9.69499   4
   3  -7   6 34.5154 10.4925   9
  -7  -2  -6 154.692 16.6878   1
   2  -7  -6 159.094 16.1236   4
  -2   7  -6 146.275 17.5919   8
   7   2  -6 159.485 19.8478   9
  -2   7  -6 157.182 16.2605   7
  -2   7  -6 134.050 18.7444   3
   2  -7  -6 155.280 18.7799   2
   7   2  -6 160.842 15.9762   2
   7   2  -6 93.4340 38.4523   3
  -7  -2  -6 147.317 15.0900   7
   2  -7  -6 137.130 16.1966   5
   2  -7  -6 164.828 16.8239   7
   7   2  -6 147.569 16.9863   7
  -7  -2  -6 176.670 19.7234   4
  -2   7   6 192.541 17.9052   6
   7   2   6 174.715 16.1715   6
  -2   7   6 157.287 17.6634   4
  -7  -2   6 121.447 17.1817   4
  -2   7   6 167.277 18.3803   8
   2  -7   6 168.357 16.1590   2
   7   2   6 148.796 19.3765   3
  -7  -2   6 141.470 15.5214   6
  -7  -2   6 139.773 15.0673   2
  -7  -2   6 165.767 16.6060   5
   2  -7   6 146.751 16.8399   6
   7   2   6 151.945 15.9232   8
   2  -7   6 182.043 17.3180   9
  -2   7   6 181.072 21.9367   1
  -7  -1  -6 14.6617 6.85725   1
  -1   7  -6 9.14670 12.2247   7
   1  -7  -6 21.8971 9.01727   5
   1  -7  -6 21.9102 7.20902   7
   1  -7  -6 17.6649 17.0417   2
  -7  -1  -6 -3.1629 10.1613   7
   7   1  -6 5.72138 7.46846   2
   1  -7  -6 16.3411 7.78985   4
  -7  -1  -6 17.8885 12.2138   4
  -1   7  -6 2.36147 9.03726   8
  -1   7  -6 8.64523 10.6925   3
   7   1  -6 0.50271 10.5553   9
   7   1  -6 24.8075 8.33878   7
   1  -7   6 20.6550 8.12872   9
  -1   7   6 12.0521 10.6886   4
  -1   7   6 35.5109 12.5363   1
   7   1   6 9.03603 9.71290   3
  -1   7   6 21.0070 10.5978   6
   1  -7   6 31.0557 8.58426   2
   7   1   6 22.9694 9.05743   9
  -7  -1   6 28.0347 8.27188   6
  -1   7   6 15.3817 10.5318   8
  -7  -1   6 21.3684 8.86015   4
  -7  -1   6 8.49353 8.20740   5
  -7   0  -6 1666.17 88.8061   1
   7   0  -6 1680.01 88.6043   7
   7   0  -6 1764.71 90.9635   9
   0  -7  -6 1617.87 88.2423   4
   0  -7  -6 1663.12 89.3801   5
  -7   0  -6 1542.96 95.4132   4
  -7   0  -6 1713.87 91.7256   8
   0   7  -6 1392.15 90.4377   8
   7   0  -6 1741.43 87.9367   2
   0   7  -6 1457.05 90.2572   3
   0  -7  -6 1709.61 89.0201   7
   0  -7  -6 1533.59 89.7429   2
   0   7   6 1542.91 90.1869   8
  -7   0   6 1597.68 91.1332   6
   7   0   6 1680.87 92.3590   6
   0   7   6 1342.30 90.6585   6
   0  -7   6 1749.52 92.8251   6
   7   0   6 1523.14 89.0316   8
   7   0   6 1558.58 90.4365   3
   0  -7   6 1573.73 88.7538   2
   0   7   6 1666.35 89.6361   1
  -7   0   6 1686.73 88.9267   5
  -7   0   6 1698.42 89.6577   4
  -1  -7  -6 24.3979 8.44558   7
  -1  -7  -6 25.5571 7.82549   4
   1   7  -6 15.5450 12.8008   3
   1   7  -6 29.0027 12.8411   7
  -7   1  -6 14.4547 7.99126   1
   1   7  -6 6.28359 10.5845   8
  -1  -7  -6 7.23048 8.94776   5
   7  -1  -6 9.60402 9.53421   7
   7  -1  -6 13.5528 7.57080   2
   7  -1  -6 3.90571 12.5294   9
  -7   1  -6 45.2601 14.2402   4
  -7   1  -6 14.7107 9.40683   8
  -7   1   6 4.29534 8.30115   6
  -1  -7   6 21.9124 9.47237   5
  -7   1   6 23.2864 8.68966   5
  -7   1   6 32.3745 10.6558   4
   1   7   6 51.3195 13.2087   1
  -1  -7   6 12.2495 8.83395   2
   1   7   6 20.7207 12.0057   8
   1   7   6 -4.2409 13.4408   6
   7  -1   6 39.0979 15.7743   8
   7  -1   6 13.5799 9.68085   3
   7  -1   6 8.99361 9.86493   9
   2   7  -6 123.143 17.6720   7
  -2  -7  -6 166.932 17.2339   5
  -7   2  -6 152.830 15.3602   7
  -7   2  -6 134.673 16.8924   1
   2   7  -6 128.831 20.4466   8
  -2  -7  -6 151.943 17.5098   7
   2   7  -6 149.349 19.6336   9
   7  -2  -6 149.537 17.9189   7
   7  -2  -6 158.343 22.5122   9
   7  -2  -6 130.849 14.9084   2
   2   7  -6 146.187 24.1366   3
  -7   2  -6 155.736 14.2132   8
  -2  -7  -6 161.499 15.5764   4
   7  -2   6 197.186 20.9105   9
  -2  -7   6 136.621 16.7925   2
  -7   2   6 137.922 16.1538   6
  -7   2   6 144.969 15.8466   5
  -2  -7   6 135.917 16.4587   5
   2   7   6 182.943 20.2781   8
  -2  -7   6 123.598 17.3818   9
   2   7   6 126.569 19.3117   6
  -7   2   6 135.714 19.6052   4
  -2  -7   6 140.748 16.1517   6
   2   7   6 134.995 20.9916   1
   7  -2   6 159.736 17.8123   6
   7  -2   6 130.241 19.2051   3
   7  -3  -6 8.54111 12.3619   7
   3   7  -6 21.0168 11.7037   7
   7  -3  -6 30.0932 9.62033   2
   7  -3  -6 9.96979 11.4889   5
  -7   3  -6 11.0857 10.2107   1
   7  -3  -6 31.0058 15.6843   9
   3   7  -6 20.1230 17.0140   3
  -3  -7  -6 19.7393 8.59791   4
  -3  -7  -6 20.7485 11.1296   5
  -7   3  -6 15.8561 9.37408   7
  -7   3  -6 15.2515 7.96508   8
   3   7  -6 25.1699 12.9121   9
  -3  -7  -6 33.0578 10.8055   7
   3   7  -6 -1.3515 14.0385   8
   3   7   6 21.9530 14.5322   6
   7  -3   6 30.0239 12.1990   9
  -7   3   6 -5.8914 9.95640   5
   3   7   6 25.8683 15.1745   1
  -7   3   6 30.6187 14.8962   4
  -7   3   6 29.5326 10.5726   6
  -3  -7   6 8.38675 10.4900   9
  -7   3   6 31.7474 15.3334   1
   7  -3   6 25.6244 12.4774   6
   3   7   6 7.24757 14.0895   8
  -3  -7   6 18.0724 11.1948   5
   7  -3   6 33.0041 12.5161   3
  -3  -7   6 20.9113 10.5316   2
  -3  -7   6 18.2385 10.6096   6
   4   7  -6 221.790 25.9709   9
   4   7  -6 215.906 32.8722   3
   7  -4  -6 257.853 26.4229   7
   7  -4  -6 212.525 20.8323   2
  -4  -7  -6 234.777 20.7948   4
  -4  -7  -6 253.080 24.4307   7
  -7   4  -6 208.406 24.2228   1
   4   7  -6 282.611 31.8927   7
   7  -4  -6 203.585 23.4666   5
  -4  -7  -6 320.231 25.2173   5
  -7   4  -6 245.679 20.9159   8
  -4  -7   6 260.565 23.5107   2
  -7   4   6 259.315 25.7262   6
  -4  -7   6 263.403 24.5627   6
  -7   4   6 289.089 29.3785   1
   7  -4   6 257.929 26.5377   9
   4   7   6 190.437 26.1928   8
  -7   4   6 323.135 28.8943   4
  -4  -7   6 247.685 24.6531   9
   7  -4   6 255.372 27.3275   3
   4   7   6 247.399 28.3677   1
  -4  -7   6 250.917 24.0899   5
   7  -4   6 212.509 27.4980   6
   4   7   6 236.205 27.9314   6
  -7   4   6 253.513 21.9684   5
  -2   8  -6 25.3694 12.7598   8
   2  -8  -6 50.0154 14.7704   2
  -8  -2  -6 69.7435 16.2002   4
   8   2  -6 16.3355 13.2612   2
   2  -8  -6 54.0980 12.6030   7
   2  -8  -6 40.0205 11.5003   5
  -2   8  -6 24.9697 13.4460   3
  -8  -2  -6 26.2646 11.1447   1
   8   2  -6 30.7280 15.2029   9
   8   2  -6 -1.0910 19.8198   7
   2  -8   6 37.8552 11.5750   9
  -8  -2   6 47.1543 12.7825   2
  -2   8   6 33.8273 15.4028   4
  -8  -2   6 31.6619 11.4140   6
  -8  -2   6 30.5000 11.8948   4
  -2   8   6 47.3942 15.2477   8
   2  -8   6 38.5444 10.3467   2
  -2   8   6 36.6932 13.2205   6
  -8  -2   6 23.8900 13.4062   5
   8   2   6 38.7610 15.6765   3
   8   2   6 51.8085 17.3643   6
  -2   8   6 45.2626 16.1653   1
   1  -8  -6 430.535 30.6546   7
  -1   8  -6 358.586 32.0641   3
   1  -8  -6 419.960 30.0958   5
  -1   8  -6 393.287 31.9331   8
   8   1  -6 493.413 32.8317   9
  -8  -1  -6 451.613 30.0327   1
   1  -8  -6 436.491 30.1134   4
  -8  -1  -6 483.204 34.8520   4
   8   1  -6 495.504 29.6625   2
   1  -8  -6 448.092 33.5733   2
  -8  -1   6 483.591 30.4695   6
   1  -8   6 456.792 29.5446   2
  -1   8   6 500.618 34.1886   1
  -8  -1   6 422.316 31.7111   4
   8   1   6 423.089 30.2420   6
  -1   8   6 456.346 31.1703   4
   1  -8   6 431.699 30.5448   6
   1  -8   6 447.963 30.9273   9
  -1   8   6 398.351 31.6219   8
  -1   8   6 438.277 31.4852   6
  -8  -1   6 486.372 31.1043   5
   8   1   6 380.791 33.3007   3
  -8   0  -6 222.897 25.1839   4
   8   0  -6 151.100 19.7738   7
   0  -8  -6 193.235 19.4146   7
   0   8  -6 135.886 20.5475   8
  -8   0  -6 179.414 17.9249   1
   8   0  -6 147.996 17.8000   2
   0   8  -6 208.156 24.0219   3
   0  -8  -6 189.792 17.4965   4
   0  -8  -6 184.864 17.8025   5
   8   0  -6 150.073 22.1200   9
   0  -8   6 204.900 18.8509   2
  -8   0   6 169.289 19.2151   6
   8   0   6 155.490 20.0750   6
  -8   0   6 168.116 18.9970   5
   8   0   6 175.956 21.3707   9
   0   8   6 190.688 25.7193   1
   0   8   6 158.325 21.8706   6
   8   0   6 126.433 18.9377   3
   0   8   6 161.880 20.9994   4
   0  -8   6 195.335 19.8716   6
   0  -8   6 168.889 19.5345   9
   0   8   6 151.777 20.5208   8
  -8   0   6 183.922 20.3836   4
  -8   1  -6 489.156 36.7421   4
  -1  -8  -6 421.948 30.9444   7
   8  -1  -6 466.952 34.3420   9
   8  -1  -6 453.423 31.3693   7
   8  -1  -6 413.431 28.4700   2
  -1  -8  -6 464.344 30.0846   5
  -1  -8  -6 466.604 29.3167   4
   1   8  -6 396.120 34.9433   3
   1   8  -6 381.966 33.0448   8
  -8   1  -6 425.652 30.1316   1
   8  -1   6 399.162 32.4919   9
   1   8   6 405.108 33.8090   6
  -8   1   6 450.055 30.8525   5
  -1  -8   6 437.782 29.8739   2
  -1  -8   6 453.752 30.6942   6
  -1  -8   6 465.511 30.6918   5
  -1  -8   6 380.241 31.5108   9
   1   8   6 418.962 32.2886   8
   8  -1   6 456.580 31.0631   6
   8  -1   6 440.787 34.6204   3
  -8   1   6 460.701 32.2906   4
   1   8   6 475.910 34.6938   1
  -8   1   6 456.156 30.2964   6
  -8   2  -6 23.3010 11.8654   1
   8  -2  -6 44.7419 14.9094   7
  -2  -8  -6 57.6149 11.3430   4
   2   8  -6 39.3528 14.8415   8
   8  -2  -6 36.5921 11.2589   2
  -2  -8  -6 34.8109 12.1508   5
   8  -2  -6 8.59110 16.7985   9
   2   8  -6 8.60194 17.9721   3
   8  -2   6 40.0498 14.3891   9
  -2  -8   6 26.0525 12.5454   6
   2   8   6 15.0574 18.3584   1
  -8   2   6 11.7654 12.3350   6
   8  -2   6 34.4402 15.3558   3
   2   8   6 34.5710 15.7293   8
   2   8   6 14.6433 19.5521   6
  -2  -8   6 45.6934 12.7808   5
  -8   2   6 32.8338 15.4359   4
  -2  -8   6 51.0938 12.1017   2
  -8   2   6 32.4104 13.2571   5
   0   0  -7 -0.8081 3.48562   4
   0   0  -7 2.69692 2.84361   3
   0   0  -7 -0.2388 3.32681   1
   0   0  -7 2.15136 2.11388   5
   0   0  -7 0.67654 2.03217   2
   0   0  -7 3.67237 2.04371   8
   0   0  -7 1.19306 3.47399   9
   0   1  -7 2.43925 3.19595   3
  -1   0  -7 -1.3387 2.91695   1
   1   0  -7 6.16509 3.23418   9
  -1   0  -7 0.99974 1.72908   8
   0  -1  -7 5.03132 2.20128   2
   1   0  -7 0.08878 1.97798   2
   1   0  -7 -1.4558 1.70778   8
  -1   0  -7 0.59790 1.94185   5
  -1   0  -7 4.89957 2.90428   3
   1   0  -7 3.99388 3.66704   4
   0   1  -7 4.42526 3.73759   9
   0  -1  -7 -1.9606 3.71958   4
   0  -1  -7 2.88999 3.09847   9
   0  -1  -7 2.61826 1.92896   8
   0   1  -7 9.47051 2.72054   2
   0   1  -7 4.44599 2.38202   5
   0   1  -7 0.68074 1.97598   8
  -1   0  -7 2.89799 2.14785   2
   0   1  -7 2.74297 3.26683   4
   1   0  -7 3.21889 3.52967   3
  -1   0  -7 1.98357 3.89429   9
   1   0  -7 1.72425 2.13075   5
   0  -1  -7 3.18630 2.52871   5
  -1   0  -7 -0.9288 4.06582   4
   0  -1  -7 0.21905 2.99964   1
  -1   0   7 2.60143 4.26290   1
   0  -1   7 -0.5605 2.53650   2
  -1   0   7 1.99937 2.79580   4
   1   0   7 8.40344 2.94709   3
   1   0   7 7.33244 4.29322   9
   0   1   7 -0.5421 2.64520   3
   0  -1   7 -1.9037 2.66970   4
   0  -1   7 1.35064 2.33040   5
   1   0   7 -0.5400 2.48399   2
  -1  -1  -7 5.65113 2.50192   5
   1  -1  -7 0.22132 2.20858   8
   1  -1  -7 4.45072 3.97049   1
  -1  -1  -7 5.49834 3.00919   3
   1  -1  -7 4.73093 2.62740   3
   1   1  -7 3.09854 3.54857   8
  -1  -1  -7 1.95594 1.78309   8
  -1   1  -7 6.99949 4.55626   9
   1   1  -7 4.81280 2.95667   9
  -1   1  -7 6.56784 2.21468   8
  -1   1  -7 11.6299 3.65584   1
   1  -1  -7 0.09537 2.37877   5
   1  -1  -7 4.61245 3.32660   4
   1   1  -7 5.03397 2.27355   2
   1  -1  -7 2.04710 3.01259   9
  -1   1  -7 5.64174 3.10563   3
   1   1  -7 7.78735 4.31068   3
   1  -1  -7 3.57402 2.40693   2
   1   1  -7 6.34623 2.63569   5
  -1   1  -7 4.73733 3.89180   4
  -1  -1  -7 4.71669 2.95691   1
  -1  -1  -7 3.54142 1.91414   2
   1   1   7 3.07828 2.60345   3
   1  -1   7 6.07307 3.04754   2
  -1   1   7 1.22706 3.80443   1
  -1   1   7 9.66551 3.17295   8
   1  -1   7 4.40260 3.93259   9
   1   1   7 0.97468 1.81701   8
   1   1   7 8.51236 4.21682   9
   1  -1   7 6.04629 2.28564   5
  -1   1   7 5.04047 3.18406   4
  -1  -1   7 6.62534 2.79845   5
  -1  -1   7 3.71779 2.66365   2
  -2  -1  -7 1471.01 78.4666   4
   2   1  -7 1533.24 78.6974   3
  -1   2  -7 1443.06 79.0145   9
   1  -2  -7 1489.28 77.4642   2
  -2  -1  -7 1381.34 77.5709   5
   2   1  -7 1469.48 78.4500   9
   1  -2  -7 1502.28 77.8325   5
  -1   2  -7 1418.22 78.5967   3
  -1   2  -7 1431.71 77.4983   1
   1  -2  -7 1357.38 77.5262   9
  -2  -1  -7 1480.68 77.9893   8
  -2  -1  -7 1489.65 77.7425   1
   1  -2  -7 1460.27 78.4968   4
   2   1  -7 1412.43 77.3541   2
   2   1  -7 1372.60 76.9665   8
  -1   2   7 1397.37 77.3456   8
   1  -2   7 1486.89 77.6451   2
  -2  -1   7 1328.67 77.3650   4
   1  -2   7 1460.26 79.0712   9
  -1   2   7 1595.12 77.0820   3
   2   1   7 1487.93 78.0184   8
   1  -2   7 1328.62 76.8849   5
  -2   0  -7 -2.3123 1.97162   5
   0  -2  -7 0.71375 2.78109   5
   0  -2  -7 1.63336 2.70584   2
   0   2  -7 1.40475 2.37161   8
   2   0  -7 -2.5750 4.00393   3
   0  -2  -7 -0.1491 5.22407   4
  -2   0  -7 -0.1515 4.56161   4
   2   0  -7 0.84118 3.25949   9
   0   2  -7 -2.5150 5.45878   9
   2   0  -7 2.27685 1.83978   8
   2   0  -7 1.81625 2.81590   2
  -2   0  -7 0.68637 2.65464   8
   0   2   7 7.03269 2.95873   3
  -2   0   7 5.42623 3.60639   4
   2   0   7 3.78769 3.50015   2
   2   0   7 7.51665 3.88243   9
   0   2   7 5.80164 2.37887   8
   0  -2   7 3.31885 5.06467   9
  -2   0   7 3.44743 1.82593   8
   0  -2   7 3.66420 2.87585   2
   0  -2   7 6.85763 2.88278   5
  -2   1  -7 1332.28 76.5789   1
  -1  -2  -7 1457.36 76.7523   1
   1   2  -7 1395.11 77.3760   9
  -1  -2  -7 1435.83 77.3332   4
  -1  -2  -7 1301.01 75.6162   2
  -1  -2  -7 1441.78 76.4940   5
   2  -1  -7 1405.17 76.8503   9
   1   2  -7 1429.75 76.3587   2
   2  -1  -7 1516.92 76.1033   3
  -2   1  -7 1468.94 77.0291   8
   2  -1  -7 1451.68 76.6178   5
  -2   1  -7 1349.89 77.4003   4
   1   2  -7 1495.30 76.6514   8
   2  -1  -7 1626.05 77.0175   2
  -2   1  -7 1418.36 77.2564   3
  -2   1   7 1412.76 75.8439   8
   2  -1   7 1456.63 77.4483   3
  -1  -2   7 1306.14 75.8318   4
  -2   1   7 1552.29 77.6718   4
  -2   1   7 1374.81 77.0351   1
  -1  -2   7 1451.14 76.4239   2
   1   2   7 1476.68 76.5955   3
   2  -1   7 1252.71 77.6078   9
  -1  -2   7 1377.17 76.4269   5
   2  -2  -7 789.097 44.7890   4
  -2  -2  -7 842.496 45.0765   4
   2  -2  -7 843.807 44.0266   2
   2   2  -7 762.561 44.6002   9
  -2   2  -7 801.817 43.7620   7
  -2   2  -7 832.004 45.0001   1
  -2  -2  -7 805.395 44.3021   8
   2   2  -7 797.564 45.0619   8
   2  -2  -7 825.512 44.1386   5
  -2  -2  -7 806.375 43.8094   5
   2   2  -7 796.756 43.7661   2
  -2  -2  -7 816.056 43.2182   7
   2  -2  -7 787.171 44.1167   9
  -2   2  -7 790.047 44.4770   8
  -2  -2  -7 814.490 44.1749   1
   2   2  -7 928.920 46.4728   3
  -2   2  -7 808.994 45.0200   3
  -2   2   7 809.726 45.3307   1
  -2  -2   7 750.795 43.1932   6
  -2   2   7 813.694 43.4339   8
  -2   2   7 766.866 44.3353   4
  -2  -2   7 792.032 43.7841   2
  -2   2   7 793.934 43.3220   6
  -2  -2   7 800.610 44.0726   5
  -2  -2   7 724.173 43.4207   4
   2   2   7 763.601 43.1508   6
   2   2   7 840.050 44.4102   8
   2  -2   7 755.280 45.5121   9
   2  -2   7 809.506 44.3754   2
   2  -2   7 782.159 43.6978   6
  -3  -2  -7 341.095 21.5082   5
  -2   3  -7 383.968 23.1554   1
  -3  -2  -7 380.111 21.2151   7
  -3  -2  -7 396.798 22.2905   1
   2  -3  -7 376.188 22.0979   7
   3   2  -7 370.092 21.6367   2
   2  -3  -7 375.806 22.1009   5
   3   2  -7 362.796 21.1046   7
  -2   3  -7 337.157 23.2107   3
  -2   3  -7 358.169 22.6950   8
   2  -3  -7 337.319 21.6135   9
  -3  -2  -7 385.137 22.3201   8
  -3  -2  -7 360.727 23.4520   4
  -2   3  -7 372.772 22.0721   7
   2  -3  -7 367.948 23.1997   4
   3   2  -7 373.766 22.9569   9
   3   2  -7 423.890 26.7406   3
   2  -3  -7 402.925 22.1660   2
   2  -3   7 368.129 23.8272   9
  -2   3   7 386.006 22.6913   4
  -3  -2   7 379.859 21.2253   6
  -2   3   7 351.650 23.2240   1
  -2   3   7 394.561 21.7028   8
   3   2   7 369.815 21.1743   6
  -3  -2   7 358.890 22.0310   5
   2  -3   7 365.256 22.2890   6
   2  -3   7 362.876 22.9663   2
   3   2   7 387.263 22.4575   8
  -3  -2   7 348.125 21.8970   4
  -2   3   7 374.347 21.5261   6
  -3  -2   7 369.880 21.7172   2
   3   2   7 375.779 22.7477   3
   1  -3  -7 295.806 23.9872   2
   1  -3  -7 364.589 20.8880   7
   3   1  -7 358.924 20.3657   7
   3   1  -7 351.399 22.0814   9
  -3  -1  -7 364.550 23.0440   4
   3   1  -7 434.507 24.7741   3
  -1   3  -7 371.847 23.1322   9
   1  -3  -7 347.288 22.3817   4
  -1   3  -7 367.853 21.2229   7
   3   1  -7 355.126 20.9250   2
  -3  -1  -7 364.657 21.5177   1
  -3  -1  -7 369.569 21.4497   8
  -3  -1  -7 368.456 20.5012   7
  -3  -1  -7 367.451 20.4733   5
  -1   3  -7 347.882 21.9049   8
  -1   3  -7 350.318 22.7578   3
   1  -3  -7 381.561 21.6443   5
   3   1   7 344.880 20.3881   6
   1  -3   7 327.369 21.2688   6
  -3  -1   7 385.176 21.3853   5
   1  -3   7 335.282 20.5711   5
   3   1   7 379.995 22.0316   3
   3   1   7 392.961 21.6369   9
  -1   3   7 344.277 20.9231   6
   1  -3   7 361.370 22.7431   9
  -1   3   7 366.654 22.2189   1
  -1   3   7 364.854 20.9977   8
  -3  -1   7 350.833 20.3311   6
   3   1   7 374.838 21.5626   8
   1  -3   7 379.315 22.0060   2
   0   3  -7 4.80592 5.60150   3
   0  -3  -7 0.92607 3.84378   5
   0  -3  -7 4.94185 4.96291   4
  -3   0  -7 7.66527 3.85421   1
   3   0  -7 -0.4357 2.65540   7
   0   3  -7 5.61359 3.59794   7
   0  -3  -7 -3.7970 4.58537   1
   0  -3  -7 0.49846 3.47825   2
  -3   0  -7 1.26462 2.34141   7
   3   0  -7 10.7691 6.17880   3
   3   0  -7 5.68076 2.93878   2
   3   0  -7 1.11676 4.86022   9
   0  -3  -7 4.84408 3.03639   7
  -3   0  -7 2.77179 2.92482   8
  -3   0  -7 7.96059 6.21153   4
   0   3  -7 -2.5172 5.43032   9
   3   0  -7 0.12552 3.14027   5
   0   3  -7 -0.0385 3.96756   8
   0  -3   7 -3.2969 4.82561   9
  -3   0   7 -0.6388 2.49089   6
   0  -3   7 0.68474 3.96635   2
   0   3   7 1.06532 3.18533   8
   0  -3   7 1.55285 3.24087   6
   3   0   7 -2.8226 3.39340   3
   0  -3   7 4.38488 3.58996   5
  -3   0   7 -3.4644 3.39156   5
   0   3   7 6.04923 5.29590   1
  -3   0   7 1.12401 4.04266   4
   0   3   7 6.05404 3.42205   6
   0   3   7 5.20207 3.36700   3
   3   0   7 0.37762 2.46323   6
   1   3  -7 383.554 24.0567   3
  -1  -3  -7 364.835 21.7240   1
  -3   1  -7 357.880 21.3753   8
   3  -1  -7 348.660 20.6221   7
   3  -1  -7 397.014 21.2854   2
   3  -1  -7 364.366 21.1385   5
   3  -1  -7 395.318 20.9318   3
  -3   1  -7 406.002 22.9155   4
  -3   1  -7 358.747 20.5548   7
   1   3  -7 353.733 20.3190   7
   3  -1  -7 373.161 22.2100   9
  -3   1  -7 365.379 21.9967   3
  -1  -3  -7 365.865 22.1846   4
   1   3  -7 360.884 22.1284   9
  -3   1  -7 357.550 21.6826   1
   1   3  -7 356.588 21.3847   8
  -1  -3  -7 363.685 20.2579   7
  -1  -3  -7 362.963 21.4223   5
  -1  -3  -7 349.318 20.2103   2
   1   3   7 346.897 20.6021   6
   3  -1   7 351.901 21.9966   3
   3  -1   7 367.035 23.1189   9
  -3   1   7 355.301 20.2985   6
   1   3   7 367.431 21.7170   1
  -3   1   7 313.358 22.0950   1
   1   3   7 373.105 21.2130   3
  -3   1   7 354.848 21.6214   4
   3  -1   7 301.509 21.6163   2
  -1  -3   7 373.939 21.3204   2
   3  -1   7 345.060 20.5087   6
  -1  -3   7 326.128 20.8696   6
   1   3   7 377.523 21.4629   8
  -3   2  -7 355.717 22.8274   1
  -2  -3  -7 370.880 21.9300   5
   2   3  -7 364.905 21.5809   2
   2   3  -7 372.646 22.7317   9
   3  -2  -7 379.084 21.7382   5
  -2  -3  -7 374.242 20.8790   7
   2   3  -7 373.739 20.9839   7
  -3   2  -7 382.692 22.6267   4
   3  -2  -7 370.844 21.6883   7
  -3   2  -7 375.103 22.8533   3
   3  -2  -7 372.839 21.6559   2
  -2  -3  -7 390.249 22.2567   1
   2   3  -7 297.080 25.1292   3
  -3   2  -7 377.330 21.5678   7
   2   3  -7 335.797 21.4667   8
  -3   2  -7 372.874 22.1858   8
  -2  -3  -7 378.908 22.7643   4
  -3   2   7 365.815 21.1425   6
   2   3   7 369.317 21.2926   6
  -2  -3   7 349.736 21.6772   5
  -3   2   7 370.190 22.3964   4
  -2  -3   7 377.106 21.2420   6
  -3   2   7 362.296 23.1425   1
   2   3   7 385.193 22.1913   8
   2   3   7 392.498 22.1922   3
   3  -2   7 367.623 23.1591   3
   3  -2   7 345.181 22.6308   2
   3  -2   7 350.729 21.3126   6
   3  -2   7 376.781 23.9570   9
  -2  -3   7 344.904 21.0792   4
  -2  -3   7 357.242 21.6478   2
  -3   3  -7 14.0162 4.46434   7
   3  -3  -7 30.4781 5.34605   5
   3  -3  -7 15.1566 4.84441   2
  -3   3  -7 13.6079 5.66449   3
   3   3  -7 10.6342 4.24627   8
  -3   3  -7 17.3143 4.21916   8
  -3  -3  -7 16.2918 5.78055   5
  -3  -3  -7 13.5988 5.70964   4
  -3  -3  -7 11.0142 3.57656   7
   3   3  -7 16.2350 4.15461   7
   3  -3  -7 21.6450 5.12040   7
   3   3  -7 4.34155 10.8355   3
   3   3  -7 20.5324 4.99674   2
   3   3  -7 16.9633 6.42448   9
   3  -3  -7 22.2696 6.58590   9
  -3   3  -7 32.8782 7.35905   1
  -3  -3  -7 19.0288 5.47221   1
  -3   3   7 21.6931 5.98401   4
   3   3   7 17.8975 4.48544   6
  -3  -3   7 18.3033 4.95371   5
  -3  -3   7 17.3639 4.28878   6
   3  -3   7 19.2785 6.15619   3
   3   3   7 19.8136 5.45721   3
  -3  -3   7 15.2851 5.40412   4
   3  -3   7 22.4411 5.17370   6
  -3  -3   7 22.8164 4.97543   2
   3  -3   7 18.9486 6.80101   9
  -3   3   7 32.7957 7.75606   1
   3  -3   7 30.9140 6.74835   2
  -3   3   7 15.5310 4.25082   6
   3   3   7 17.3908 4.75305   8
  -3   4  -7 173.679 15.8785   3
  -3   4  -7 155.516 17.3098   1
  -4  -3  -7 150.091 14.1877   5
  -3   4  -7 163.985 14.0743   8
   4   3  -7 174.815 12.5503   7
   4   3  -7 167.995 13.3272   2
  -4  -3  -7 174.650 12.3710   7
  -3   4  -7 177.765 13.2863   7
   3  -4  -7 165.137 13.3257   5
  -4  -3  -7 168.225 13.5100   1
   3  -4  -7 164.963 13.5008   2
   3  -4  -7 153.972 13.7670   7
   4   3  -7 199.097 23.7606   3
  -4  -3  -7 152.682 14.9815   4
   4   3  -7 169.505 14.6735   9
   3  -4  -7 146.292 14.6518   4
  -3   4   7 168.311 12.6362   6
  -3   4   7 167.659 16.3089   1
   4   3   7 167.838 12.5646   6
  -4  -3   7 180.338 13.4287   5
  -4  -3   7 178.008 13.0225   4
  -4  -3   7 165.986 12.6627   6
  -4  -3   7 177.401 13.1731   2
  -3   4   7 176.462 14.9877   4
   3  -4   7 167.893 14.8781   2
   4   3   7 169.417 14.9479   3
   3  -4   7 159.007 13.8221   6
   4   3   7 191.800 13.8832   8
   3  -4   7 173.396 15.9825   9
  -2   4  -7 859.469 48.6761   8
   2  -4  -7 798.610 48.3969   4
   2  -4  -7 861.007 47.7896   7
   4   2  -7 877.208 47.0256   7
  -2   4  -7 836.901 49.1080   3
   4   2  -7 863.493 47.3412   2
   4   2  -7 876.810 48.7296   9
  -4  -2  -7 776.283 48.7858   4
  -2   4  -7 880.449 47.8506   7
  -4  -2  -7 888.334 47.1806   7
  -4  -2  -7 838.125 47.7094   1
   2  -4  -7 894.094 48.2090   5
  -2   4  -7 850.905 48.6029   1
  -4  -2  -7 848.143 47.9289   8
   2  -4  -7 874.115 47.8688   2
  -4  -2  -7 830.029 47.0980   5
   4   2   7 882.092 48.1185   8
  -4  -2   7 881.034 47.9012   5
   4   2   7 852.986 48.5748   3
  -4  -2   7 851.277 47.4757   4
  -4  -2   7 862.567 47.3923   2
  -4  -2   7 864.423 47.0803   6
   2  -4   7 827.121 48.2210   2
  -2   4   7 886.510 48.0863   8
   4   2   7 862.663 47.0736   6
   2  -4   7 839.106 48.1678   6
   2  -4   7 867.812 49.0707   9
  -2   4   7 890.957 48.3347   4
  -2   4   7 870.416 47.5807   6
  -2   4   7 852.244 48.6594   1
  -1   4  -7 866.213 47.6897   7
  -4  -1  -7 869.761 47.6783   8
   1  -4  -7 912.470 48.0344   5
   1  -4  -7 892.797 47.3767   7
   4   1  -7 853.521 46.7384   7
  -4  -1  -7 863.985 47.6379   1
   4   1  -7 908.770 48.9077   9
   1  -4  -7 861.101 48.3179   4
  -1   4  -7 860.344 48.5545   8
  -1   4  -7 771.187 49.1464   3
  -4  -1  -7 807.933 48.8228   4
   1  -4  -7 890.007 47.5540   2
  -4  -1  -7 869.899 46.9657   7
   4   1  -7 854.556 47.0872   2
  -1   4   7 891.959 48.4769   1
  -4  -1   7 855.594 46.7540   6
   4   1   7 846.539 46.7647   6
  -4  -1   7 839.268 47.4760   5
  -4  -1   7 805.669 47.4142   4
   1  -4   7 823.559 47.6614   6
  -1   4   7 831.136 47.4325   6
   4   1   7 901.620 47.8557   8
   1  -4   7 810.022 48.3236   9
   1  -4   7 821.752 47.9277   2
  -1   4   7 919.667 47.9164   8
   4   1   7 852.535 48.4323   3
   0  -4  -7 2.97341 4.84572   4
   4   0  -7 -2.1616 4.25056   5
   4   0  -7 0.42057 8.63845   3
   0   4  -7 13.0546 4.99122   7
  -4   0  -7 -2.3840 4.37015   1
   0   4  -7 2.44614 5.11495   8
   4   0  -7 3.14657 3.80797   2
  -4   0  -7 0.82804 3.26001   7
   0  -4  -7 1.11420 3.75576   7
  -4   0  -7 3.63682 7.07112   4
  -4   0  -7 0.15599 3.23162   8
   4   0  -7 2.09509 6.13179   9
   0  -4  -7 4.14458 4.86217   5
   0   4  -7 1.39066 7.49621   3
   4   0  -7 2.67390 3.56247   7
   0   4  -7 -2.9824 6.12666   9
   0  -4   7 2.71035 3.57818   6
   0   4   7 -1.0705 4.21148   8
   0  -4   7 -1.4392 5.23574   2
   4   0   7 3.59751 3.55143   6
   0  -4   7 -4.9681 4.37468   5
   4   0   7 0.09504 5.57729   9
  -4   0   7 -0.9113 3.33333   6
   0   4   7 2.52644 4.49238   6
   0   4   7 2.12700 5.73011   1
   0  -4   7 -3.0182 4.69444   9
   4   0   7 4.75797 4.74743   3
  -4   0   7 1.80759 4.92114   4
  -4   0   7 -1.3970 4.15085   5
  -1  -4  -7 895.808 47.7002   7
  -1  -4  -7 858.060 48.6222   4
   1   4  -7 869.439 49.3839   9
   4  -1  -7 854.168 48.1480   5
  -1  -4  -7 904.546 48.7980   1
  -4   1  -7 848.123 48.3451   8
  -1  -4  -7 870.002 48.7441   5
   4  -1  -7 900.823 48.0324   2
  -1  -4  -7 859.778 47.3803   2
   4  -1  -7 869.202 47.7451   7
   1   4  -7 852.558 49.0703   8
   1   4  -7 880.102 47.8104   7
  -4   1  -7 825.504 48.4703   1
   4  -1  -7 922.346 49.6125   9
  -4   1   7 871.730 48.1486   5
   1   4   7 845.892 47.9502   6
   4  -1   7 873.801 49.7757   9
   4  -1   7 846.116 47.6680   6
  -4   1   7 864.736 47.5699   6
   1   4   7 874.989 48.6820   1
   1   4   7 964.395 48.0883   3
  -4   1   7 891.222 48.7822   4
  -1  -4   7 813.228 48.2561   2
   4  -1   7 856.107 49.2589   3
  -1  -4   7 801.077 47.9312   5
   1   4   7 902.619 48.7549   8
   2   4  -7 886.821 47.4137   7
  -2  -4  -7 885.540 47.3221   7
   2   4  -7 1015.65 52.2145   3
  -4   2  -7 852.367 47.6466   7
  -4   2  -7 779.976 48.5399   1
  -4   2  -7 828.371 48.0974   8
  -2  -4  -7 839.730 48.2993   4
  -2  -4  -7 880.760 48.1843   1
   4  -2  -7 923.567 47.8723   2
  -4   2  -7 860.029 48.8227   3
  -2  -4  -7 831.249 48.5772   5
   4  -2  -7 874.696 47.8664   7
   2   4  -7 788.293 48.3545   8
   4  -2  -7 844.202 49.1679   9
   2   4  -7 872.068 48.7863   9
  -4   2  -7 877.327 48.6384   4
   4  -2  -7 888.335 47.9774   5
   4  -2   7 779.602 48.4540   2
  -2  -4   7 854.829 47.6693   6
  -2  -4   7 850.032 48.0165   5
  -4   2   7 800.832 48.7414   1
   2   4   7 891.777 48.5496   8
   2   4   7 869.179 47.5884   6
   2   4   7 888.235 48.3304   1
   4  -2   7 887.812 50.0497   9
  -2  -4   7 848.760 47.9422   2
   2   4   7 866.427 48.0549   3
   4  -2   7 865.141 47.6892   6
  -4   2   7 870.563 48.5138   4
  -4   2   7 870.818 47.3144   6
   4  -2   7 835.373 49.0904   3
  -4   3  -7 165.171 12.9862   8
  -3  -4  -7 154.629 14.8119   5
  -3  -4  -7 165.770 13.8253   1
   4  -3  -7 175.097 12.6778   5
   3   4  -7 127.123 20.7085   3
  -3  -4  -7 149.577 13.7909   4
  -3  -4  -7 175.993 12.3891   7
   4  -3  -7 161.566 16.3729   9
  -4   3  -7 131.699 16.1000   1
  -4   3  -7 168.725 12.6472   7
   3   4  -7 165.208 12.3934   7
   3   4  -7 159.514 13.6285   8
   3   4  -7 169.534 14.2316   9
   4  -3  -7 168.500 12.7308   2
  -4   3  -7 178.151 14.8644   3
   4  -3  -7 160.842 13.3806   7
  -3  -4   7 151.805 13.2787   5
  -4   3   7 159.844 12.2038   6
  -4   3   7 157.826 13.9466   4
   4  -3   7 165.277 13.3613   6
   4  -3   7 133.725 13.8771   2
  -4   3   7 164.790 16.7319   1
  -3  -4   7 163.169 12.8701   6
   3   4   7 174.829 14.6112   3
  -3  -4   7 154.694 13.1227   2
   4  -3   7 151.586 16.7088   9
   3   4   7 178.674 13.1807   6
   4  -3   7 160.137 14.6622   3
   3   4   7 154.296 13.6147   8
   4  -4  -7 755.865 47.6097   9
   4  -4  -7 826.634 46.2477   7
  -4  -4  -7 792.930 45.5183   1
  -4   4  -7 866.577 45.8273   7
  -4   4  -7 832.012 47.1595   3
  -4  -4  -7 779.011 46.5036   5
  -4  -4  -7 785.934 44.8648   7
  -4  -4  -7 726.106 45.8175   4
   4   4  -7 822.569 45.1959   7
   4   4  -7 892.551 52.3811   3
   4   4  -7 812.810 46.3387   9
  -4   4  -7 748.210 47.5719   1
  -4   4  -7 770.511 46.0085   8
   4  -4  -7 800.967 45.4098   5
   4  -4  -7 830.845 45.5092   2
   4  -4   7 787.055 47.0287   3
   4   4   7 767.278 46.2439   8
   4   4   7 807.093 46.5945   3
  -4  -4   7 806.949 46.0248   5
  -4  -4   7 780.910 45.2119   2
   4  -4   7 729.245 45.4516   2
   4  -4   7 773.785 45.8809   6
  -4   4   7 829.251 45.2132   6
  -4   4   7 902.519 46.7224   4
   4   4   7 782.833 45.2359   6
  -4   4   7 807.964 47.3273   1
  -4  -4   7 785.229 45.0905   6
   4  -4   7 773.766 47.6653   9
  -4   5  -7 4.25269 15.5332   3
  -4   5  -7 18.0385 13.6909   7
   5   4  -7 13.3442 10.2891   9
   5   4  -7 27.4476 20.8435   3
  -5  -4  -7 26.4126 11.4842   5
   4  -5  -7 11.3355 7.60372   2
  -5  -4  -7 16.9159 8.80885   4
   4  -5  -7 21.3730 7.94187   5
  -5  -4  -7 10.4257 10.0733   1
   4  -5  -7 10.9938 8.85937   7
  -4   5  -7 14.1164 7.90908   8
   5   4  -7 24.9262 8.76112   7
  -4   5  -7 22.7764 12.4012   1
  -5  -4  -7 29.1046 7.85856   7
   5   4   7 6.94346 7.52156   8
  -4   5   7 22.3047 9.33800   6
  -5  -4   7 20.2850 9.10788   2
  -4   5   7 21.8875 11.1495   1
  -5  -4   7 16.4828 8.47164   5
   4  -5   7 10.3451 8.62472   9
   4  -5   7 24.1223 8.44127   2
   4  -5   7 14.8131 10.8191   3
   5   4   7 17.1816 10.4115   3
  -4   5   7 40.1860 11.4787   4
   5   3  -7 202.485 27.6590   3
  -3   5  -7 153.459 17.5417   3
   3  -5  -7 180.273 14.5321   7
  -5  -3  -7 147.082 12.7787   7
   5   3  -7 162.515 13.1924   7
   3  -5  -7 152.056 14.2346   5
  -5  -3  -7 125.011 16.0350   4
  -3   5  -7 180.777 14.0761   7
   5   3  -7 149.002 16.1583   9
   5   3  -7 153.039 14.1826   2
  -3   5  -7 148.947 14.4409   8
   3  -5  -7 163.731 14.7826   2
  -3   5  -7 128.823 20.5212   1
  -5  -3  -7 157.905 14.5533   1
  -5  -3   7 147.035 13.9918   5
   5   3   7 157.340 13.7543   8
  -5  -3   7 159.952 14.1437   4
  -3   5   7 151.103 15.5472   4
  -5  -3   7 143.079 13.3470   6
  -3   5   7 165.990 13.5774   6
   3  -5   7 142.617 15.1323   2
  -5  -3   7 150.508 13.4841   2
  -3   5   7 173.610 17.1724   1
   5   3   7 144.413 13.5043   6
   5   3   7 176.568 16.7076   3
   3  -5   7 156.114 15.4351   6
   3  -5   7 173.494 16.4988   9
   5   2  -7 22.6051 6.17750   2
  -5  -2  -7 22.6013 5.08200   7
  -2   5  -7 24.7911 8.62380   3
  -2   5  -7 24.7946 6.19508   7
   5   2  -7 26.7923 5.92567   7
   2  -5  -7 20.1819 7.28841   4
   2  -5  -7 11.7328 6.75066   5
  -2   5  -7 18.5439 10.6987   1
  -2   5  -7 24.9539 6.52616   8
   5   2  -7 22.4246 15.8370   3
  -5  -2  -7 18.6672 6.11283   1
   2  -5  -7 16.4320 7.23211   2
   5   2  -7 16.9055 8.24133   9
   2  -5  -7 17.8451 5.56610   7
  -5  -2  -7 15.6670 8.48082   4
  -2   5   7 19.9187 8.23968   8
   5   2   7 17.7811 7.24429   3
  -5  -2   7 19.3130 6.61381   2
  -2   5   7 26.8495 6.83192   6
   2  -5   7 18.7678 6.74654   6
  -5  -2   7 19.8901 6.09746   6
   2  -5   7 24.4939 7.47676   2
  -5  -2   7 21.5547 6.96296   4
  -2   5   7 22.5553 7.93332   4
  -5  -2   7 13.4223 6.08441   5
   2  -5   7 17.8898 7.19377   9
   5   2   7 26.8903 6.03281   8
  -2   5   7 20.0601 8.46412   1
   5   2   7 25.6924 6.58416   6
   1  -5  -7 655.205 36.9092   4
   5   1  -7 658.829 35.7810   2
  -1   5  -7 588.783 37.6475   8
   5   1  -7 686.046 38.2772   9
  -5  -1  -7 622.821 36.4361   1
  -1   5  -7 686.798 39.1677   3
   5   1  -7 624.071 35.4566   7
   1  -5  -7 649.907 36.9274   2
  -5  -1  -7 594.709 36.0972   8
  -5  -1  -7 589.193 38.3939   4
  -5  -1  -7 618.362 35.5968   7
   1  -5  -7 637.283 37.0531   5
   1  -5  -7 632.445 35.9978   7
  -1   5   7 657.313 37.3050   8
  -5  -1   7 625.034 36.2505   5
   1  -5   7 610.586 37.2399   9
   5   1   7 603.529 36.6077   9
  -1   5   7 641.706 37.5595   1
   5   1   7 631.634 35.6156   6
   1  -5   7 625.114 37.1456   2
   1  -5   7 635.371 36.6143   6
  -5  -1   7 633.934 35.5070   6
  -1   5   7 624.560 36.3656   6
  -5  -1   7 589.723 36.5466   4
   5   1   7 658.873 37.8223   3
   5   1   7 604.265 36.3109   8
   0  -5  -7 -6.6676 5.53942   4
   0   5  -7 6.62092 7.88673   9
  -5   0  -7 5.80806 5.64621   1
   0   5  -7 1.70353 8.90902   3
  -5   0  -7 -4.3260 3.86795   7
  -5   0  -7 2.10219 8.73173   4
  -5   0  -7 0.35460 4.14483   8
   0  -5  -7 4.21486 5.65577   7
   0  -5  -7 1.37714 6.13568   2
   5   0  -7 -4.0323 7.63061   9
   0   5  -7 5.25274 6.57522   8
   5   0  -7 0.72832 4.93429   7
   0   5  -7 3.07574 6.03706   7
   0  -5  -7 5.35974 5.98584   5
   5   0  -7 0.32844 4.50761   2
   0   5   7 -3.8967 7.74191   1
   0  -5   7 -2.1666 5.95457   5
  -5   0   7 2.45733 4.97836   5
   5   0   7 -2.5243 4.49450   6
   0  -5   7 1.11193 6.50357   2
   0   5   7 3.63727 6.11619   8
  -5   0   7 -4.0868 6.38071   4
   0  -5   7 1.65499 5.46109   9
   0   5   7 -6.6217 6.56650   6
   5   0   7 10.3010 7.10378   9
   0  -5   7 6.31654 4.99451   6
   5   0   7 8.40716 5.92913   3
  -5   1  -7 616.816 36.1791   8
   1   5  -7 646.694 37.5240   9
  -1  -5  -7 591.602 36.9064   5
   1   5  -7 605.063 36.0666   7
   5  -1  -7 658.435 36.3829   5
  -1  -5  -7 652.238 35.9513   7
  -5   1  -7 625.226 35.8767   7
   5  -1  -7 655.723 35.7982   2
   5  -1  -7 660.190 38.6102   9
   1   5  -7 593.680 37.9624   8
  -5   1  -7 595.779 38.5614   4
   1   5  -7 633.624 39.7061   3
   5  -1  -7 629.401 35.8547   7
  -5   1  -7 592.462 36.5619   1
  -1  -5  -7 629.235 36.4907   4
   1   5   7 641.447 36.3829   6
  -1  -5   7 622.783 37.1760   9
  -5   1   7 605.050 36.7446   4
  -1  -5   7 596.047 36.2368   5
  -5   1   7 629.856 35.5360   6
   1   5   7 660.853 37.2270   8
  -1  -5   7 608.577 36.6856   2
   5  -1   7 639.659 38.2295   9
   5  -1   7 614.752 37.3186   3
  -1  -5   7 636.627 36.1088   6
  -5   1   7 656.527 36.1783   5
   5  -1   7 614.601 35.6932   6
   1   5   7 648.578 37.1553   1
  -2  -5  -7 25.0274 6.09687   7
   2   5  -7 31.3634 9.12867   9
   2   5  -7 27.5317 8.81481   8
  -5   2  -7 22.1113 5.63178   8
  -2  -5  -7 20.5849 8.41822   5
   5  -2  -7 32.5933 6.65597   5
  -2  -5  -7 17.4459 7.05347   1
   5  -2  -7 10.6120 5.57129   2
  -5   2  -7 15.5990 7.78535   1
   5  -2  -7 18.5798 10.0500   9
  -5   2  -7 17.0779 5.05312   7
   2   5  -7 17.7342 12.2344   3
  -2  -5  -7 20.2343 6.57722   4
   5  -2  -7 22.3774 6.65009   7
   2   5   7 22.5078 8.50104   6
   5  -2   7 22.6047 8.61870   9
  -2  -5   7 23.8715 7.21146   2
   2   5   7 17.5118 8.37937   3
  -5   2   7 25.1383 6.11823   6
  -5   2   7 25.7194 7.88350   4
   5  -2   7 26.1215 6.44976   6
   2   5   7 5.61900 6.96465   8
  -5   2   7 20.9480 6.49016   5
  -2  -5   7 25.0624 7.21060   5
  -5   2   7 35.2764 9.30792   1
   5  -2   7 22.6855 7.08540   3
   2   5   7 42.0054 10.0389   1
  -3  -5  -7 142.709 12.9506   7
   3   5  -7 149.132 13.5556   7
  -3  -5  -7 145.846 13.6716   4
   5  -3  -7 160.788 13.5494   5
  -3  -5  -7 152.374 15.2842   1
   3   5  -7 160.795 15.0967   9
  -3  -5  -7 117.051 15.9645   5
   3   5  -7 139.421 17.7243   8
   5  -3  -7 144.551 14.0660   7
   5  -3  -7 145.995 12.9556   2
   5  -3  -7 117.526 19.8399   9
  -5   3  -7 134.403 16.8509   1
  -5   3  -7 150.915 12.9325   7
   3   5  -7 142.120 19.2132   3
  -5   3  -7 152.007 12.8677   8
  -3  -5   7 160.100 14.3993   5
   3   5   7 156.028 14.5167   6
   3   5   7 127.631 16.3258   3
  -5   3   7 150.953 12.9683   5
   5  -3   7 180.793 17.6589   9
   5  -3   7 154.403 14.0779   6
   5  -3   7 144.049 15.9070   3
  -5   3   7 153.339 12.8589   6
  -5   3   7 146.964 18.2820   1
  -3  -5   7 127.394 14.0289   2
  -3  -5   7 162.398 14.7366   6
   3   5   7 164.788 16.2632   1
   3   5   7 143.865 14.6043   8
  -5   3   7 140.670 15.6649   4
   4   5  -7 21.6994 16.7366   3
  -4  -5  -7 17.6336 7.53828   4
   5  -4  -7 15.9329 9.54553   7
  -4  -5  -7 30.4340 11.3582   5
   5  -4  -7 9.42017 7.84906   5
   4   5  -7 9.59525 9.40013   9
   4   5  -7 16.2236 9.55509   7
  -5   4  -7 21.2705 12.0673   1
  -4  -5  -7 21.0777 7.35736   7
   5  -4  -7 9.86368 6.63296   2
  -5   4  -7 33.2812 7.57371   8
   5  -4  -7 -20.390 13.0785   9
   5  -4   7 14.4650 12.5969   6
   4   5   7 14.9652 8.18440   8
   5  -4   7 1.62553 14.0112   3
   5  -4   7 22.1509 9.34535   9
  -5   4   7 -5.3271 11.0133   4
  -5   4   7 17.0194 10.1239   6
  -4  -5   7 20.1109 8.88203   5
   4   5   7 12.3597 11.2079   3
  -4  -5   7 9.41140 8.10463   2
   5   5  -7 187.329 19.9117   9
  -5   5  -7 156.260 23.4494   1
  -5   5  -7 180.033 16.6804   7
   5   5  -7 140.383 18.1110   7
  -5  -5  -7 194.959 16.7678   7
   5   5  -7 126.353 25.3372   3
  -5   5  -7 174.035 17.4362   8
  -5   5  -7 175.231 19.6640   3
  -5  -5  -7 194.926 19.6681   1
  -5  -5   7 177.299 18.1334   2
   5   5   7 154.098 23.2647   3
  -5   5   7 178.849 23.0449   1
   5  -5   7 199.986 19.9893   9
  -5   5   7 155.531 22.1623   4
   5  -5   7 170.999 19.8906   6
  -5  -5   7 188.776 18.1657   6
   6   5  -7 148.967 30.1924   3
  -5   6  -7 124.741 21.0847   3
   6   5  -7 133.292 21.5350   9
   5  -6  -7 173.807 19.1664   5
   6   5  -7 139.245 20.9001   7
   5  -6  -7 134.632 16.6485   2
  -6  -5  -7 160.907 18.8520   4
  -5   6  -7 161.804 20.3056   1
  -6  -5  -7 184.549 18.9214   7
  -5   6  -7 154.042 18.5554   7
   5  -6  -7 166.394 22.0422   7
  -5   6  -7 169.076 18.6788   8
  -6  -5  -7 162.713 22.3399   1
  -5   6   7 127.756 19.5665   6
   6   5   7 163.498 24.5346   1
  -6  -5   7 151.247 20.1673   2
  -5   6   7 214.837 25.1293   1
  -5   6   7 139.486 20.1548   4
   6   5   7 149.151 20.7073   8
   6   5   7 143.855 24.8190   3
   5  -6   7 162.226 17.6277   2
   5  -6   7 141.802 23.8028   6
  -6  -5   7 149.151 20.6499   6
   6   5   7 177.977 23.0340   6
  -6  -5   7 161.920 19.2869   5
   5  -6   7 171.408 23.1684   3
   5  -6   7 166.105 21.1668   9
   6   4  -7 134.280 16.9258   7
  -6  -4  -7 136.055 18.0386   4
   6   4  -7 156.364 20.2567   9
   4  -6  -7 131.046 17.7509   7
  -6  -4  -7 168.668 18.5377   1
  -4   6  -7 158.876 16.1582   7
  -4   6  -7 134.351 19.4470   1
  -4   6  -7 121.889 20.3092   3
   4  -6  -7 102.659 16.8158   5
  -6  -4  -7 160.898 15.9403   7
  -4   6  -7 151.029 16.9641   8
   6   4  -7 144.359 26.9087   3
   4  -6  -7 145.942 17.4652   2
   6   4   7 134.882 17.5660   6
  -6  -4   7 133.167 16.3572   6
   4  -6   7 118.158 18.8451   6
   4  -6   7 153.736 19.8661   3
  -4   6   7 174.736 21.2513   1
  -4   6   7 133.904 16.3199   6
   6   4   7 133.606 16.8243   8
  -6  -4   7 153.780 16.2763   5
  -6  -4   7 128.012 16.4575   2
   4  -6   7 148.507 16.8359   2
  -4   6   7 162.532 18.9096   4
   6   4   7 117.543 17.3525   3
   4  -6   7 150.362 18.5003   9
  -3   6  -7 50.6809 10.0550   8
  -3   6  -7 49.4627 12.0473   3
  -6  -3  -7 35.2852 7.96243   7
   3  -6  -7 46.9270 10.1332   5
  -6  -3  -7 56.8313 9.64993   1
  -6  -3  -7 51.5756 11.5541   4
   6   3  -7 70.8052 12.3196   7
   6   3  -7 56.6175 10.3489   2
  -3   6  -7 54.5693 9.79619   7
   6   3  -7 58.7527 12.2549   9
  -3   6  -7 35.0555 15.2564   1
   6   3  -7 27.7489 33.0441   3
   3  -6  -7 46.0793 11.3555   2
   3  -6  -7 60.7922 9.67058   7
   6   3   7 64.0218 10.6691   6
   6   3   7 55.5786 9.45794   8
  -3   6   7 54.5031 11.9263   4
  -6  -3   7 39.6212 10.2512   5
  -3   6   7 71.2521 13.2150   1
  -6  -3   7 50.1388 10.4838   4
   3  -6   7 55.6114 9.61662   2
  -6  -3   7 62.2321 9.41601   6
   3  -6   7 66.1474 10.3717   9
  -3   6   7 44.9587 9.41916   6
   6   3   7 38.2975 11.8643   3
  -6  -3   7 58.8368 9.40552   2
   3  -6   7 56.5579 10.8159   6
   6   2  -7 289.486 20.5949   7
   2  -6  -7 234.764 19.7594   5
   6   2  -7 267.453 22.4448   9
  -6  -2  -7 256.588 19.6190   1
   2  -6  -7 260.020 21.1762   2
  -6  -2  -7 263.894 23.4198   4
  -2   6  -7 213.431 19.8372   8
   6   2  -7 197.771 34.7562   3
   2  -6  -7 276.422 19.7644   7
  -2   6   7 284.201 21.8015   1
   2  -6   7 190.299 19.9555   6
   6   2   7 210.618 19.8302   6
  -2   6   7 253.993 20.1928   8
   6   2   7 220.095 21.0365   3
  -6  -2   7 266.428 19.0558   5
  -6  -2   7 241.020 19.0112   4
   2  -6   7 270.114 21.1325   9
   2  -6   7 268.366 20.0958   2
   6   1  -7 41.0121 7.76987   7
   1  -6  -7 27.5394 14.5622   5
  -6  -1  -7 35.4023 11.8926   4
   6   1  -7 29.1146 7.34779   2
   1  -6  -7 31.9929 9.86812   2
  -6  -1  -7 34.0531 6.65430   8
  -1   6  -7 33.7507 7.92165   7
  -1   6  -7 28.5662 10.9307   3
   6   1  -7 55.7622 28.7046   3
  -1   6  -7 39.9667 10.4205   8
  -6  -1  -7 32.6848 6.42924   7
   1  -6  -7 35.7000 7.55892   4
   1  -6  -7 32.1870 7.24899   7
   1  -6   7 61.2681 14.9879   2
  -1   6   7 34.7480 9.92542   4
  -6  -1   7 46.7037 7.33894   6
  -6  -1   7 45.0399 11.1117   5
  -1   6   7 32.6321 10.1236   8
  -6  -1   7 55.7400 9.52359   4
   1  -6   7 40.3586 7.64927   6
   6   1   7 33.6672 7.16293   8
  -1   6   7 37.1683 9.22492   6
   1  -6   7 46.6760 8.57812   9
   6   1   7 38.8057 8.09657   6
   6   1   7 36.0373 8.92922   9
   6   0  -7 0.90095 5.86255   2
   0  -6  -7 6.15124 6.32508   4
   0  -6  -7 -5.4258 7.98367   5
   0  -6  -7 2.09856 6.02229   7
  -6   0  -7 -2.9687 4.64526   8
   0   6  -7 -2.3514 8.32605   8
   0  -6  -7 -6.1449 8.55358   2
   6   0  -7 -4.3372 6.31252   7
  -6   0  -7 11.9757 11.7681   4
  -6   0  -7 11.5751 7.77764   1
   6   0  -7 -10.842 8.95387   9
   0   6  -7 1.89288 10.2405   3
  -6   0  -7 0.71741 5.07382   7
   0  -6   7 -0.7797 8.97680   2
   0   6   7 7.28286 8.86716   6
   6   0   7 4.42319 8.03806   3
   0   6   7 1.71130 9.11656   8
   0  -6   7 -4.5964 10.6535   5
  -6   0   7 0.33994 5.67329   6
   6   0   7 -3.2884 5.72087   8
   6   0   7 1.47466 6.22269   6
   0  -6   7 3.51531 6.12769   6
  -6   0   7 13.6568 6.96028   5
   0   6   7 -2.1634 11.1975   1
  -1  -6  -7 31.9361 7.68440   4
   1   6  -7 49.1168 10.8640   9
  -6   1  -7 59.7319 13.6270   4
  -1  -6  -7 61.3417 15.4840   5
   6  -1  -7 23.7548 11.6811   9
   1   6  -7 44.9832 8.67517   7
  -6   1  -7 29.9743 6.89558   7
   1   6  -7 36.0384 10.4440   8
  -6   1  -7 40.1866 6.70387   8
  -1  -6  -7 39.6185 8.17515   7
   6  -1  -7 53.7323 8.85282   7
   6  -1  -7 41.7146 8.44838   2
  -1  -6   7 31.9973 9.15713   5
   1   6   7 30.5186 9.80305   8
  -1  -6   7 33.5557 8.42598   9
  -1  -6   7 29.2353 11.9756   2
   6  -1   7 36.6457 7.91489   6
  -1  -6   7 47.1170 7.24864   6
   6  -1   7 24.9824 10.0544   9
  -6   1   7 46.5485 7.89795   6
   1   6   7 46.9405 10.7424   6
   6  -1   7 37.5913 10.2705   3
   1   6   7 39.6559 12.6327   1
   2   6  -7 259.323 26.4609   3
   2   6  -7 192.463 21.9590   8
   6  -2  -7 285.967 20.9634   7
   6  -2  -7 245.762 17.6351   2
  -6   2  -7 189.342 20.0657   1
  -2  -6  -7 251.197 21.0213   5
   6  -2  -7 251.707 23.2992   5
  -2  -6  -7 261.922 18.4464   4
   6  -2  -7 211.942 24.4112   9
   6  -2   7 228.675 19.1336   6
   6  -2   7 258.960 22.6740   3
  -6   2   7 231.880 20.3047   4
  -2  -6   7 195.881 21.5672   9
  -2  -6   7 244.773 19.6138   5
   2   6   7 236.323 20.3236   8
  -2  -6   7 226.910 19.3052   2
   6  -2   7 282.881 24.9775   9
  -6   2   7 217.674 21.6477   1
  -6   2   7 257.122 24.7759   5
  -6   3  -7 58.7306 10.1793   8
   3   6  -7 39.3804 16.3082   8
   3   6  -7 63.5927 16.9119   3
  -6   3  -7 45.4231 10.8375   1
   6  -3  -7 40.1130 10.2221   5
  -3  -6  -7 47.1543 12.0374   5
   6  -3  -7 19.8677 29.9051   9
   3   6  -7 46.6079 10.1275   7
  -3  -6  -7 47.7042 8.87774   7
   3   6  -7 46.9550 12.5080   9
  -3  -6  -7 40.5955 9.04263   4
   6  -3  -7 48.6309 8.81179   2
   6  -3  -7 60.5745 10.3643   7
  -6   3  -7 39.8932 8.45129   7
   6  -3   7 61.3967 11.1952   3
   3   6   7 60.8050 13.3956   1
   6  -3   7 44.5835 13.3039   9
  -6   3   7 59.8475 9.70324   6
   3   6   7 65.9454 12.5398   6
  -6   3   7 54.2717 9.63318   5
  -3  -6   7 38.5736 9.98373   2
   6  -3   7 75.7206 11.4158   6
   3   6   7 50.9503 11.1927   8
  -3  -6   7 50.5100 10.9369   5
  -6   3   7 66.8494 12.4586   4
  -6   4  -7 133.715 15.5316   7
  -4  -6  -7 112.026 16.4956   7
   6  -4  -7 94.4713 20.6055   9
  -6   4  -7 134.115 20.2746   1
  -4  -6  -7 181.768 21.3387   5
   6  -4  -7 165.330 16.6827   5
   6  -4  -7 131.273 15.6578   2
   6  -4  -7 149.762 17.8397   7
  -6   4  -7 164.321 15.8102   8
   4   6  -7 175.982 19.5745   9
  -4  -6  -7 159.277 15.7547   4
   4   6  -7 112.940 22.5608   3
  -4  -6  -7 132.396 19.3923   1
  -6   4   7 184.763 16.4587   6
   6  -4   7 153.326 19.9109   6
   4   6   7 183.498 23.6740   3
   4   6   7 160.612 19.8861   8
  -4  -6   7 140.089 17.8891   2
   4   6   7 135.237 22.1276   1
  -6   4   7 169.556 20.8238   4
   6  -4   7 122.031 22.2064   9
  -6   4   7 130.911 19.4914   1
   6  -4   7 161.847 20.3565   3
   4   6   7 161.236 18.9638   6
  -4  -6   7 128.583 19.3041   6
  -4  -6   7 133.566 18.1146   5
  -6   4   7 146.669 16.4384   5
  -5  -6  -7 142.938 17.9408   1
   6  -5  -7 155.882 17.7793   2
   5   6  -7 157.688 22.8961   9
   6  -5  -7 131.741 16.5574   5
   5   6  -7 162.319 28.2335   3
   5   6  -7 115.867 17.5194   7
  -6   5  -7 171.306 19.4544   1
  -6   5  -7 130.683 17.6905   7
  -5  -6  -7 153.942 19.3162   7
  -6   5  -7 110.812 15.0837   8
   6  -5  -7 179.995 22.3223   7
  -5  -6  -7 217.649 25.2711   5
  -5  -6  -7 125.857 17.3941   4
  -5  -6   7 176.786 22.3402   6
  -5  -6   7 154.239 19.9563   5
   5   6   7 203.209 28.1981   1
   5   6   7 134.862 22.6400   6
  -6   5   7 153.366 22.6581   1
  -6   5   7 147.809 23.1901   4
  -6   5   7 145.724 17.7488   5
   6  -5   7 143.320 19.2784   6
   5   6   7 169.202 26.9862   3
   6  -5   7 169.181 24.2007   3
   6  -5   7 158.420 20.0370   9
  -6   5   7 193.957 20.5103   6
  -5  -6   7 130.864 20.2261   2
   5   6   7 164.726 21.7464   8
  -7  -4  -7 100.220 14.6522   1
  -4   7  -7 135.463 17.8170   8
  -7  -4  -7 93.3515 13.4335   7
   7   4  -7 92.3037 30.7670   3
   7   4  -7 69.0601 15.9410   7
  -4   7  -7 82.0987 16.6269   3
   4  -7  -7 89.7304 15.3612   2
  -4   7  -7 89.3699 14.1833   7
  -7  -4  -7 89.3139 16.1358   4
   7   4  -7 101.161 18.8489   9
   4  -7  -7 99.3987 15.1012   7
   4  -7  -7 76.3651 15.4036   5
  -4   7   7 72.8801 14.0514   6
   4  -7   7 147.916 21.7682   3
  -7  -4   7 83.1985 13.7174   6
  -7  -4   7 91.2755 15.0324   5
   7   4   7 88.0111 18.7664   3
  -7  -4   7 98.9651 13.7535   2
   4  -7   7 117.415 17.7215   2
  -4   7   7 135.471 17.4103   4
  -4   7   7 117.121 17.5889   1
   4  -7   7 72.5426 15.8263   6
   4  -7   7 104.248 14.7308   9
   7   4   7 101.268 17.5539   6
   7   4   7 83.4888 14.7117   8
  -7  -3  -7 33.2325 10.7619   1
   7   3  -7 -23.438 27.2655   3
   7   3  -7 27.0415 14.0278   9
  -7  -3  -7 13.3927 9.14746   7
  -3   7  -7 12.8308 12.8730   3
  -3   7  -7 -0.3457 9.37468   7
   3  -7  -7 33.3441 9.94196   7
  -7  -3  -7 16.0668 13.0556   4
  -3   7  -7 10.8403 9.91643   8
   7   3  -7 38.8601 11.8576   7
   7   3  -7 11.7777 11.1548   2
   3  -7  -7 9.33564 10.5795   5
   3  -7  -7 7.88439 12.8644   2
  -7  -3   7 41.9252 11.0431   4
   3  -7   7 32.7881 10.6966   9
  -3   7   7 55.7514 13.2475   4
   3  -7   7 27.0157 11.8286   6
   7   3   7 17.9685 13.1753   3
   3  -7   7 24.2961 9.73360   2
  -7  -3   7 29.1751 11.3826   5
  -3   7   7 35.5535 11.0296   6
  -7  -3   7 18.1613 10.2872   2
   7   3   7 27.1377 10.1439   8
  -7  -3   7 13.8724 9.54565   6
  -3   7   7 25.0324 13.7366   1
   7   3   7 42.8612 12.3595   6
   2  -7  -7 111.149 16.7507   5
  -2   7  -7 130.393 19.5985   3
   2  -7  -7 134.194 16.3913   7
  -7  -2  -7 116.456 16.3599   1
  -7  -2  -7 128.643 17.7828   4
   7   2  -7 127.338 16.7076   7
   7   2  -7 151.875 20.2755   9
   2  -7  -7 112.260 16.6448   2
  -7  -2  -7 111.490 14.5235   7
   2  -7  -7 153.222 15.8855   4
  -2   7  -7 127.644 17.0902   8
  -2   7  -7 131.365 15.5279   7
   7   2  -7 130.167 16.4461   2
  -2   7   7 118.723 17.6935   4
  -7  -2   7 119.688 15.0493   2
  -7  -2   7 120.889 14.9906   6
  -2   7   7 150.251 17.3034   6
   2  -7   7 99.1202 17.4782   6
   2  -7   7 124.442 15.8909   2
  -7  -2   7 127.873 17.0871   4
  -2   7   7 133.275 21.2809   1
   2  -7   7 134.899 17.2407   9
  -7  -2   7 140.912 16.1887   5
   7   2   7 119.149 16.1437   8
   7   2   7 137.140 19.8373   3
   7   2   7 143.117 16.0367   6
  -2   7   7 105.213 18.0484   8
   7   1  -7 204.336 16.7366   2
   1  -7  -7 159.921 21.3202   2
  -7  -1  -7 163.790 16.2164   7
   7   1  -7 201.704 16.5162   7
   1  -7  -7 199.443 16.7413   7
   7   1  -7 183.801 21.1530   9
  -7  -1  -7 186.967 23.4841   4
  -1   7  -7 146.007 16.2515   7
  -7  -1  -7 174.592 17.2816   1
   1  -7  -7 198.010 17.1231   4
   1  -7  -7 172.029 17.8871   5
  -1   7  -7 169.612 19.5462   8
  -1   7  -7 181.710 21.6841   3
  -7  -1   7 191.826 17.0602   5
  -1   7   7 185.361 18.8520   6
   7   1   7 158.029 21.0986   3
   7   1   7 202.758 16.6619   6
  -7  -1   7 180.864 18.4020   4
  -1   7   7 167.116 19.0042   4
  -7  -1   7 195.100 16.4873   6
  -1   7   7 192.096 19.2970   8
  -1   7   7 240.322 23.4057   1
   1  -7   7 176.831 18.1006   9
   1  -7   7 178.096 17.4547   2
   7   1   7 144.062 16.2082   8
   1  -7   7 203.883 17.5861   6
   0   7  -7 3.64821 10.4582   8
   0  -7  -7 9.03042 7.49776   7
  -7   0  -7 1.60429 7.13953   7
  -7   0  -7 0.92014 6.34381   8
   0  -7  -7 -2.6027 7.88202   4
   0   7  -7 13.9754 9.41780   7
  -7   0  -7 33.6172 14.2043   4
   7   0  -7 3.77342 8.63514   7
   0  -7  -7 3.72022 8.55538   5
   7   0  -7 14.1104 8.34089   2
   0   7  -7 21.2687 12.8449   3
   7   0  -7 -9.7604 11.3734   9
  -7   0  -7 4.74470 8.10452   1
   7   0   7 9.42116 7.70504   8
  -7   0   7 5.95500 8.81993   5
   0   7   7 2.41538 11.1796   8
   7   0   7 1.64172 9.95933   9
   0  -7   7 3.30906 8.56741   2
   0  -7   7 16.2980 8.40538   6
   0   7   7 18.8202 11.3952   6
  -7   0   7 16.6775 8.29918   6
  -7   0   7 6.09671 10.2843   4
   0   7   7 -1.4673 13.0412   1
   0  -7   7 -10.019 7.87662   9
   7   0   7 -11.515 8.17203   6
   7   0   7 10.6782 10.3321   3
  -1  -7  -7 204.544 18.8445   5
  -1  -7  -7 195.428 17.3814   7
   1   7  -7 149.540 20.6504   8
  -7   1  -7 194.856 15.7694   8
  -7   1  -7 188.915 16.4736   7
   7  -1  -7 173.317 18.0519   7
  -1  -7  -7 193.600 17.1345   4
  -7   1  -7 204.774 28.1806   4
   1   7  -7 178.579 18.6282   7
  -7   1  -7 159.746 17.6824   1
   7  -1  -7 194.910 16.3840   2
   7  -1  -7 170.503 22.5429   9
   1   7  -7 161.990 24.0689   3
  -7   1   7 143.781 16.6785   6
  -7   1   7 190.817 17.1913   5
   1   7   7 173.159 20.8348   8
  -1  -7   7 183.560 18.2548   2
  -1  -7   7 213.733 18.3536   9
  -1  -7   7 184.939 17.1082   6
   1   7   7 154.161 20.7467   6
   7  -1   7 172.804 17.6102   6
  -1  -7   7 191.890 17.2212   5
   1   7   7 198.418 22.2303   1
  -7   1   7 198.972 19.9415   4
   7  -1   7 146.040 20.6977   9
   7  -1   7 166.406 20.3472   3
   7  -1   7 166.661 17.5012   8
  -2  -7  -7 151.023 17.7486   7
  -2  -7  -7 141.016 18.0759   5
   2   7  -7 124.568 19.9457   3
   7  -2  -7 129.054 17.7096   7
   2   7  -7 114.806 17.2741   7
   7  -2  -7 143.821 24.1866   9
  -7   2  -7 143.799 14.3742   8
   2   7  -7 113.416 17.0880   8
   7  -2  -7 95.8004 14.3364   2
   2   7  -7 118.971 20.3147   9
  -7   2  -7 116.606 17.0024   1
  -7   2  -7 140.217 15.3528   7
  -2  -7  -7 132.952 15.9690   4
   2   7   7 132.200 19.4266   6
   7  -2   7 173.122 21.2455   9
  -2  -7   7 111.135 17.9690   9
   2   7   7 137.434 17.8049   1
  -7   2   7 149.700 17.7033   4
  -7   2   7 140.489 16.2657   5
   7  -2   7 138.232 20.0613   3
  -7   2   7 128.428 16.0393   6
   7  -2   7 148.554 18.0922   6
   2   7   7 119.792 19.5024   8
  -2  -7   7 140.353 15.7678   6
  -2  -7   7 114.975 17.1426   5
  -2  -7   7 130.588 17.5437   2
  -3  -7  -7 30.2346 11.2437   7
   7  -3  -7 23.4138 10.0218   2
   7  -3  -7 6.23625 12.2947   7
   3   7  -7 11.1275 18.3655   3
   7  -3  -7 -3.0214 18.1584   9
   3   7  -7 21.8327 11.9773   7
  -7   3  -7 24.2322 11.7212   1
  -7   3  -7 22.4764 9.20916   7
  -7   3  -7 19.7267 8.88092   8
  -3  -7  -7 23.7425 9.50314   4
   3   7  -7 11.4676 14.5231   9
  -3  -7  -7 14.6064 12.9719   5
   7  -3  -7 19.4602 12.0341   5
  -7   3   7 4.63930 10.9682   5
  -3  -7   7 18.0928 11.0043   6
  -7   3   7 4.50440 17.6677   1
  -7   3   7 32.0344 15.8334   4
   7  -3   7 19.4122 12.9063   3
  -7   3   7 38.1465 10.3812   6
  -3  -7   7 36.3685 12.3556   9
   3   7   7 -9.2510 15.4496   1
   7  -3   7 20.0351 14.4197   9
   3   7   7 40.6166 15.6232   6
  -3  -7   7 15.6386 12.7262   5
   7  -3   7 31.0819 12.9727   6
  -3  -7   7 9.92448 11.2276   2
   3   7   7 23.3118 14.5464   8
  -7   4  -7 91.1701 15.0593   1
   4   7  -7 96.2582 22.8499   3
   7  -4  -7 127.998 16.6587   2
  -4  -7  -7 102.573 13.5500   4
   7  -4  -7 105.251 17.4133   7
   7  -4  -7 64.9649 24.3056   9
  -4  -7  -7 103.180 15.0828   7
   7  -4  -7 103.950 17.0607   5
  -4  -7  -7 131.970 18.6968   5
  -7   4  -7 93.7180 13.7795   8
  -7   4  -7 85.3471 15.2462   7
   4   7  -7 81.4672 17.9279   9
  -4  -7   7 107.635 15.5810   2
   4   7   7 117.657 20.3425   1
   7  -4   7 103.746 20.0774   6
  -7   4   7 113.364 18.0036   5
   4   7   7 86.3334 19.8313   6
  -7   4   7 97.0912 19.2033   4
   4   7   7 90.8258 17.3436   8
  -7   4   7 119.994 20.7899   1
  -4  -7   7 84.0591 16.4787   5
  -4  -7   7 112.348 16.5555   9
  -7   4   7 103.077 15.0819   6
  -4  -7   7 110.736 15.9082   6
   7  -4   7 99.2112 18.0568   3
   7  -4   7 87.1735 17.5928   9
  -8  -1  -7 348.389 25.9857   7
  -8  -1  -7 304.570 25.7414   1
   1  -8  -7 345.290 26.0269   4
  -1   8  -7 315.963 27.8492   8
  -1   8  -7 300.453 29.1093   3
   8   1  -7 332.071 25.7283   2
   1  -8  -7 320.656 25.5883   7
   1  -8  -7 332.955 25.1820   5
  -8  -1  -7 377.834 33.2026   4
   8   1  -7 370.485 29.5596   9
  -1   8  -7 257.138 25.3711   7
  -8  -1   7 378.749 26.5322   5
   1  -8   7 340.207 25.8463   6
  -1   8   7 364.663 27.6574   4
   1  -8   7 316.829 25.0248   2
   8   1   7 320.709 29.9591   3
  -8  -1   7 353.530 25.9382   6
  -1   8   7 302.437 27.3918   8
  -1   8   7 409.030 31.4139   1
  -1   8   7 359.960 26.2986   6
   8   1   7 317.562 26.1284   6
  -8  -1   7 329.331 27.2422   4
   8   1   7 264.686 26.1514   8
   1  -8   7 320.141 27.1180   9
   0  -8  -7 0.08338 9.91707   7
   0   8  -7 -11.539 14.0990   3
   0   8  -7 12.1799 13.4242   8
   0  -8  -7 -6.2632 9.55370   4
   8   0  -7 0.88908 10.9407   2
   8   0  -7 0.15558 14.3567   9
   0   8  -7 16.0924 11.8637   7
  -8   0  -7 -2.2293 8.82039   8
   8   0  -7 -7.2540 13.3804   7
  -8   0  -7 39.6503 18.9224   4
  -8   0  -7 2.43378 10.5545   7
   0  -8  -7 -2.4731 10.5843   5
  -8   0  -7 21.1616 9.71497   1
   0  -8   7 -11.042 11.1411   9
   0   8   7 -0.9492 14.3019   8
   0  -8   7 22.5111 10.8850   6
   0  -8   7 11.8624 9.91308   2
   8   0   7 -15.635 12.6713   3
   0   8   7 42.1440 17.8333   1
   8   0   7 -7.7024 10.9434   8
  -8   0   7 6.41168 12.2164   5
   0   8   7 -7.4474 14.6686   4
   0   8   7 -21.977 14.2867   6
  -8   0   7 7.66136 12.5312   4
   8   0   7 -20.011 12.3604   6
  -8   0   7 -0.4743 10.7775   6
   8   0   7 -15.959 12.6395   9
  -8   1  -7 321.946 25.9274   7
   1   8  -7 262.748 26.7751   7
   8  -1  -7 320.080 26.8350   7
  -8   1  -7 305.567 25.7085   1
   8  -1  -7 339.805 24.9129   2
  -1  -8  -7 324.011 24.8938   4
  -1  -8  -7 351.812 26.2799   7
   1   8  -7 306.717 30.7837   3
   1   8  -7 318.327 32.4195   8
   8  -1  -7 311.671 30.1623   9
  -8   1  -7 339.132 24.4217   8
  -1  -8  -7 336.143 25.7015   5
  -8   1   7 343.648 26.5471   5
   1   8   7 302.321 28.2375   8
   1   8   7 341.030 29.7086   6
  -1  -8   7 331.981 26.6972   6
  -8   1   7 371.768 28.4865   4
   1   8   7 398.004 31.3933   1
  -1  -8   7 322.232 27.2905   9
   8  -1   7 331.061 31.2139   3
  -1  -8   7 355.002 25.5238   2
  -8   1   7 315.045 25.3565   6
   8  -1   7 343.914 27.1521   6
   8  -1   7 325.879 26.3511   8
   8  -1   7 290.870 29.1533   9
   0   0  -8 1970.90 103.850   5
   0   0  -8 2020.81 104.188   8
   0   0  -8 1834.78 103.550   2
   0   0  -8 1981.80 104.116   1
   0   0  -8 1794.73 104.825   9
   0   0  -8 2035.40 104.464   3
   0   0  -8 2001.24 104.370   4
  -1   0  -8 647.517 34.8946   5
   0  -1  -8 587.037 34.6907   2
   0  -1  -8 694.978 35.5772   3
   1   0  -8 615.525 36.0960   9
   1   0  -8 664.123 35.7712   3
  -1   0  -8 667.203 35.8041   8
   0   1  -8 652.017 35.4404   4
   0   1  -8 626.725 37.1587   3
   1   0  -8 668.531 35.0888   8
   1   0  -8 639.045 35.8308   1
  -1   0  -8 628.406 36.4005   9
   1   0  -8 639.911 35.8657   4
  -1   0  -8 616.375 34.7791   2
   0   1  -8 644.288 38.1007   9
   0   1  -8 649.960 35.0946   2
   0  -1  -8 604.892 35.9838   9
   0  -1  -8 671.800 35.3266   5
   0   1  -8 678.531 35.5752   8
   0   1  -8 641.885 35.0941   5
  -1   0  -8 706.575 36.2338   4
   0  -1  -8 683.303 35.3878   8
   1   0   8 651.839 36.7070   9
  -1   0   8 553.228 35.3079   4
   0   1   8 679.280 35.4732   3
  -1   0   8 585.951 35.5034   1
   0  -1   8 662.048 35.2252   2
   0   1   8 660.501 35.3156   8
   0  -1   8 619.922 37.3356   9
   0  -1   8 626.555 35.0662   5
   0  -1   8 564.935 35.0375   4
   1   0   8 626.663 34.8593   2
  -1   1  -8 40.7578 7.98424   9
  -1  -1  -8 54.7923 5.77720   8
   1  -1  -8 44.6561 5.49126   5
  -1   1  -8 48.8991 5.02414   5
  -1  -1  -8 53.7864 8.13201   4
   1   1  -8 43.9050 5.30789   2
  -1  -1  -8 62.8565 7.04128   3
  -1  -1  -8 46.4331 7.46345   1
  -1   1  -8 48.4272 7.42660   3
   1   1  -8 38.1088 4.87994   8
   1  -1  -8 39.5536 6.07811   4
  -1   1  -8 33.6049 5.57812   4
  -1   1  -8 48.3860 7.26353   1
   1  -1  -8 48.5965 6.73071   9
   1   1  -8 38.9892 6.47356   9
   1  -1  -8 50.2285 6.12620   3
   1   1  -8 41.2835 5.69114   5
  -1   1  -8 43.8227 5.97964   8
   1  -1  -8 44.7655 4.64731   8
  -1  -1  -8 42.2439 5.28564   5
   1  -1   8 38.0806 7.72630   9
   1   1   8 52.8851 6.29642   3
  -1   1   8 46.4284 4.59990   8
  -1   1   8 43.5555 6.32945   4
   1   1   8 41.2898 6.01727   9
  -1   1   8 44.4851 6.30768   1
   1  -1   8 44.3426 6.12263   2
  -1  -1   8 36.8754 5.85371   4
  -1  -1   8 31.1843 5.63271   5
   1   1   8 47.3308 5.78143   8
  -1   1   8 53.8061 5.88805   3
   1  -1   8 44.4193 5.01545   5
  -1  -1   8 41.7934 6.03776   2
   1  -2  -8 294.716 17.0240   5
   2   1  -8 263.684 15.8097   8
  -1   2  -8 275.085 17.3589   8
  -2  -1  -8 278.913 17.3786   1
   1  -2  -8 287.995 18.1409   4
  -1   2  -8 257.496 17.9189   3
  -2  -1  -8 288.779 17.1203   8
  -2  -1  -8 285.639 18.7024   4
  -2  -1  -8 285.613 16.3096   5
  -1   2  -8 262.300 17.3575   1
   2   1  -8 275.162 17.9891   9
   1  -2  -8 282.610 16.5746   2
  -1   2  -8 283.682 19.8268   9
   1  -2  -8 282.343 16.9438   9
   2   1  -8 266.841 16.6841   5
   2   1  -8 264.150 16.3393   2
   2   1   8 250.382 17.1756   9
   1  -2   8 257.432 15.9727   5
  -1   2   8 281.659 17.6283   4
   2   1   8 288.868 17.2952   8
  -2  -1   8 251.353 16.8085   4
  -1   2   8 307.243 16.3876   3
   1  -2   8 257.999 17.3254   2
  -2  -1   8 259.899 16.7019   5
   2   1   8 286.364 17.4321   3
  -1   2   8 288.072 16.3018   8
   1  -2   8 289.447 19.4702   9
  -1   2   8 288.847 17.8329   1
  -2   0  -8 1274.21 71.8736   5
   0  -2  -8 1433.57 73.2634   1
  -2   0  -8 1374.38 73.2519   8
   2   0  -8 1295.62 72.4341   2
   2   0  -8 1359.14 72.7845   5
   2   0  -8 1394.78 72.0408   8
   0  -2  -8 1410.23 72.9221   5
   2   0  -8 1447.94 73.0848   3
   0   2  -8 1263.50 73.1200   8
  -2   0  -8 1362.11 72.9318   1
   0  -2  -8 1325.22 73.6354   4
   0   2  -8 1465.36 74.2357   3
  -2   0  -8 1393.43 73.4401   3
   0  -2  -8 1326.32 72.1637   2
  -2   0  -8 1457.05 73.5479   4
   2   0  -8 1384.23 73.7245   9
   0   2  -8 1370.96 74.1974   9
   0  -2  -8 1238.43 72.5722   9
   2   0   8 1387.57 73.5416   3
   0  -2   8 1338.48 72.4137   5
  -2   0   8 1373.01 72.7961   5
   0   2   8 1408.54 72.5083   3
   0  -2   8 1163.25 71.8338   4
   2   0   8 1306.77 72.2007   2
   0  -2   8 1314.82 74.0941   9
   0   2   8 1456.17 73.1140   9
  -2   0   8 1245.80 72.7347   4
  -2   0   8 1336.74 71.9557   8
   0   2   8 1142.71 72.8461   8
   2   0   8 1394.98 73.6788   9
   0   2   8 1366.25 73.0783   1
   0  -2   8 1382.07 72.7231   2
   2  -1  -8 277.451 16.7757   5
  -1  -2  -8 265.711 18.3947   4
   1   2  -8 305.340 19.4851   3
  -1  -2  -8 274.418 17.8758   5
   2  -1  -8 262.625 17.5120   4
   1   2  -8 266.850 16.5312   2
  -2   1  -8 279.564 17.9193   3
  -2   1  -8 274.582 17.3294   1
   2  -1  -8 276.128 16.6105   2
   2  -1  -8 277.795 16.4823   3
  -1  -2  -8 283.951 17.4731   1
   1   2  -8 266.445 18.2670   9
  -2   1  -8 288.700 17.1703   8
   1   2  -8 288.242 16.7080   8
  -2   1  -8 291.641 17.7733   4
   2  -1  -8 296.194 18.6079   9
  -1  -2   8 249.840 16.3071   4
  -2   1   8 270.129 15.7403   8
  -2   1   8 248.902 17.0804   4
   2  -1   8 283.036 17.3644   2
  -1  -2   8 272.949 16.7593   2
  -2   1   8 264.533 18.6593   1
   1   2   8 281.470 16.9072   8
   1   2   8 274.664 16.8340   3
   2  -1   8 294.328 19.3820   9
  -1  -2   8 269.147 17.2107   5
   2  -1   8 263.679 17.9338   3
   2   2  -8 1317.52 70.0093   8
  -2  -2  -8 1277.90 70.7077   1
  -2   2  -8 1232.03 71.0191   8
   2  -2  -8 1345.57 70.6441   5
   2  -2  -8 1314.33 71.3585   4
  -2  -2  -8 1295.42 71.4317   4
  -2   2  -8 1295.41 70.6556   1
  -2  -2  -8 1289.53 70.8498   8
   2   2  -8 1455.60 72.5035   3
  -2   2  -8 1272.28 71.4847   3
   2   2  -8 1316.75 71.5159   9
  -2  -2  -8 1379.64 70.3784   5
   2   2  -8 1309.60 70.3081   2
   2  -2  -8 1330.13 70.3930   2
   2  -2  -8 1292.97 70.7669   9
   2   2   8 1341.44 70.8515   3
  -2   2   8 1244.74 70.8237   4
  -2  -2   8 1296.33 70.5479   5
  -2   2   8 1322.74 69.9103   8
  -2  -2   8 1335.59 70.3394   2
  -2  -2   8 1191.46 69.8167   4
  -2   2   8 1307.92 71.3267   1
   2   2   8 1311.18 70.9028   8
   2  -2   8 1241.61 69.9565   6
   2  -2   8 1221.47 72.0971   9
   2  -3  -8 864.650 50.8711   9
  -3  -2  -8 920.971 51.4061   1
  -3  -2  -8 906.218 52.3894   4
   3   2  -8 933.058 52.3766   9
  -2   3  -8 926.318 52.7578   3
   2  -3  -8 939.828 51.4172   5
   2  -3  -8 1003.80 51.4044   2
  -2   3  -8 904.499 51.3943   1
  -2   3  -8 867.561 51.7833   8
   2  -3  -8 922.088 51.0715   7
   3   2  -8 1040.72 54.4879   3
   3   2  -8 883.728 50.2169   7
  -3  -2  -8 962.515 50.4445   7
   2  -3  -8 919.000 52.2706   4
  -3  -2  -8 948.936 50.8388   5
  -2   3  -8 934.100 51.1482   7
   3   2  -8 917.757 50.9356   2
  -3  -2  -8 918.526 51.5612   8
  -3  -2   8 912.064 51.3314   5
  -3  -2   8 964.050 51.0352   2
   3   2   8 966.941 51.9362   3
  -2   3   8 932.934 52.2658   1
   3   2   8 974.116 51.8092   8
   3   2   8 915.431 50.3239   6
   2  -3   8 909.575 51.1948   6
   2  -3   8 915.086 51.7157   2
   2  -3   8 918.303 53.0614   9
  -3  -2   8 878.480 50.7409   4
  -2   3   8 970.498 50.9025   8
  -3  -2   8 919.779 50.3377   6
  -2   3   8 896.486 50.4713   6
  -2   3   8 922.233 51.7572   4
  -3  -1  -8 187.926 15.4267   4
  -3  -1  -8 190.177 11.7450   7
  -1   3  -8 191.988 13.9143   8
   3   1  -8 190.390 11.7179   7
  -3  -1  -8 190.670 12.0435   5
  -3  -1  -8 191.754 13.1042   8
  -1   3  -8 194.987 13.0957   7
   1  -3  -8 182.583 14.7323   4
   1  -3  -8 200.037 12.9867   2
  -1   3  -8 190.662 15.9798   9
   3   1  -8 183.995 12.4758   2
  -3  -1  -8 194.012 13.4948   1
   1  -3  -8 183.496 12.9868   5
  -1   3  -8 181.266 15.1165   3
   3   1  -8 188.232 14.8554   9
   3   1  -8 188.493 16.4755   3
   1  -3   8 180.651 13.8417   2
  -1   3   8 189.476 12.6654   8
   3   1   8 192.710 13.3096   8
  -3  -1   8 193.988 13.0826   4
   3   1   8 190.336 13.3856   9
  -1   3   8 195.388 14.5462   1
   3   1   8 194.861 13.5767   3
   3   1   8 181.921 11.7029   6
   1  -3   8 179.738 12.6023   6
   1  -3   8 165.559 15.1463   9
  -3  -1   8 172.687 12.8144   5
   0  -3  -8 1781.68 94.6107   2
   3   0  -8 1749.76 94.9312   2
   3   0  -8 1814.86 95.4624   3
   0   3  -8 1626.36 96.6021   3
   0  -3  -8 1828.93 95.7879   1
   0  -3  -8 1805.41 95.4095   5
  -3   0  -8 1817.76 95.7280   8
   0   3  -8 1691.80 95.7887   8
   0   3  -8 1800.22 96.6187   9
   0  -3  -8 1651.04 95.8779   4
   3   0  -8 1795.56 95.3169   5
   3   0  -8 1788.79 96.0757   9
  -3   0  -8 1850.78 96.0433   4
  -3   0  -8 1748.44 95.3467   1
   0  -3   8 1844.96 95.3854   2
  -3   0   8 1719.83 95.2732   4
   0  -3   8 1779.58 96.4576   9
   0   3   8 1777.32 95.3310   8
   3   0   8 1814.87 96.1259   3
   0  -3   8 1634.43 94.6456   5
   0   3   8 1750.30 95.6060   1
  -3   0   8 1753.51 95.2445   5
   0   3   8 1907.76 94.7179   3
   3   0   8 1713.87 94.3600   6
   3   0   8 1803.65 96.1187   9
  -1  -3  -8 203.853 14.0212   1
   3  -1  -8 185.449 12.7822   5
  -3   1  -8 185.272 12.9687   8
   1   3  -8 197.871 15.1648   9
  -1  -3  -8 176.657 12.8449   5
  -3   1  -8 180.366 15.2943   4
   1   3  -8 197.495 16.9907   3
  -1  -3  -8 176.401 11.7424   2
   3  -1  -8 196.967 12.9873   2
  -1  -3  -8 204.630 11.7340   7
   3  -1  -8 188.298 14.7816   9
   1   3  -8 183.098 13.5267   8
  -1  -3  -8 176.044 14.5129   4
  -3   1  -8 184.823 13.8986   3
  -3   1  -8 201.620 12.0656   7
  -3   1  -8 177.166 13.8112   1
   1   3   8 200.801 13.2702   3
   1   3   8 186.691 13.0447   8
   1   3   8 186.207 12.2873   6
   3  -1   8 167.793 13.8116   3
  -3   1   8 173.325 13.3682   4
  -3   1   8 189.704 12.7831   5
   1   3   8 193.885 14.2261   1
  -1  -3   8 196.185 13.2634   2
   3  -1   8 191.859 15.7171   9
   3  -1   8 172.179 11.8956   6
  -1  -3   8 183.499 12.5825   5
  -2  -3  -8 918.905 50.7046   5
   3  -2  -8 915.986 50.2989   7
  -3   2  -8 914.991 51.6947   3
   2   3  -8 898.794 50.5546   8
   2   3  -8 936.502 49.7293   7
   3  -2  -8 928.894 51.3533   9
  -2  -3  -8 936.440 50.8916   1
   3  -2  -8 974.886 50.8103   5
  -3   2  -8 853.284 50.9459   1
   2   3  -8 910.288 50.3960   2
  -2  -3  -8 914.189 51.4428   4
  -3   2  -8 860.297 50.8992   8
   2   3  -8 913.234 53.4071   3
   3  -2  -8 945.936 50.6176   2
  -3   2  -8 915.317 50.3127   7
  -2  -3  -8 950.654 49.7164   7
   2   3  -8 915.976 51.6717   9
  -3   2   8 922.482 49.8105   6
   3  -2   8 887.263 52.5679   9
   3  -2   8 875.831 51.7770   3
  -2  -3   8 920.352 50.4958   2
  -2  -3   8 888.437 50.5508   5
   2   3   8 990.235 50.9220   3
   2   3   8 983.105 51.1775   8
  -2  -3   8 918.220 49.9869   6
   3  -2   8 879.832 50.0884   6
   2   3   8 953.500 50.0170   6
  -3   2   8 873.875 50.9932   4
  -3   2   8 874.996 51.4331   1
   3  -2   8 894.128 51.1087   2
  -3   3  -8 672.210 40.6136   3
  -3  -3  -8 744.938 38.5808   7
  -3  -3  -8 693.917 40.3293   4
   3  -3  -8 712.420 39.3586   2
   3  -3  -8 702.064 39.3809   5
   3   3  -8 675.072 39.0902   2
  -3  -3  -8 673.280 39.1629   5
   3   3  -8 699.806 38.3143   7
   3   3  -8 600.406 43.0946   3
   3  -3  -8 720.653 39.4382   7
  -3   3  -8 654.135 40.2528   1
   3  -3  -8 671.131 39.6851   9
  -3   3  -8 668.010 39.8060   8
   3   3  -8 701.154 40.3606   9
  -3   3  -8 685.031 39.1622   7
  -3   3   8 700.957 40.6835   1
  -3   3   8 760.582 40.1553   4
   3  -3   8 703.377 39.2326   6
   3   3   8 752.163 40.0928   8
  -3  -3   8 654.242 38.9450   2
   3   3   8 675.106 38.4785   6
   3  -3   8 705.751 39.8606   2
  -3  -3   8 688.058 38.5310   6
   3  -3   8 673.432 41.5874   9
  -3  -3   8 683.015 39.4199   5
   3   3   8 711.845 39.9231   3
   3  -3   8 698.728 41.2148   3
   4   3  -8 26.7021 6.03603   7
  -3   4  -8 27.8787 9.00705   3
   3  -4  -8 28.9000 6.94831   7
  -3   4  -8 31.0408 6.49031   8
   3  -4  -8 13.3281 6.53038   5
  -4  -3  -8 28.5281 7.05821   1
  -4  -3  -8 39.8468 5.70975   7
  -3   4  -8 35.4367 6.27430   7
   3  -4  -8 28.4546 6.85529   2
   4   3  -8 18.9354 14.2917   3
  -4  -3  -8 32.6669 7.35873   5
   4   3  -8 28.2521 9.43101   9
  -4  -3  -8 19.2615 8.38496   4
   4   3  -8 29.9952 7.18381   2
  -3   4  -8 27.2368 9.37720   1
   3  -4   8 30.2620 8.10374   2
   3  -4   8 30.0848 8.92286   9
   3  -4   8 32.8177 6.89518   6
  -4  -3   8 29.2741 6.70559   2
   4   3   8 33.2070 8.29782   3
   3  -4   8 21.5087 8.63103   3
  -3   4   8 43.6019 9.34540   1
  -4  -3   8 32.8662 7.40614   4
  -3   4   8 36.0829 8.41431   4
  -3   4   8 30.9922 6.02282   6
  -4  -3   8 29.3269 6.31907   6
   4   3   8 21.8888 6.56093   8
  -4  -3   8 40.1967 7.27534   5
  -2   4  -8 1208.89 60.3100   7
   2  -4  -8 1127.90 60.1999   2
  -4  -2  -8 1063.45 59.2444   7
  -2   4  -8 1040.65 60.7359   1
   2  -4  -8 1113.43 59.9936   7
   4   2  -8 1124.40 59.7595   2
   4   2  -8 1168.65 61.5757   9
  -4  -2  -8 1053.11 60.2707   8
   2  -4  -8 1066.86 61.0119   4
   4   2  -8 1098.12 59.1396   7
   2  -4  -8 1122.80 60.3903   5
  -2   4  -8 1029.48 61.0675   8
  -4  -2  -8 961.877 61.1924   4
  -2   4  -8 1064.26 61.6994   3
  -4  -2  -8 1015.69 60.0234   1
   2  -4   8 1119.00 61.5961   9
   4   2   8 1061.95 60.3599   8
   2  -4   8 1037.30 60.4835   2
  -4  -2   8 1052.16 59.7040   4
  -2   4   8 1095.23 60.6261   4
  -4  -2   8 1095.51 59.2360   6
  -4  -2   8 1075.35 59.6773   2
  -2   4   8 1109.85 60.9932   1
   4   2   8 1121.98 60.9797   3
  -2   4   8 1125.72 60.3598   8
   4   2   8 1094.85 59.2324   6
  -2   4   8 1107.84 59.6865   6
   2  -4   8 1092.45 60.4627   6
  -4  -2   8 1099.94 60.2023   5
   4   1  -8 35.1007 11.6624   3
   1  -4  -8 54.8936 7.14778   2
  -4  -1  -8 33.0737 4.74798   7
  -4  -1  -8 33.8447 5.60826   8
  -4  -1  -8 40.8956 6.75673   1
  -1   4  -8 38.2645 8.54185   3
   1  -4  -8 37.5084 6.83369   5
   4   1  -8 32.0661 5.00493   7
  -4  -1  -8 45.1907 9.14322   4
   1  -4  -8 41.1805 7.74676   4
  -1   4  -8 39.6706 7.09886   8
   4   1  -8 32.6917 5.88852   2
   1  -4  -8 30.0580 5.71008   7
   4   1  -8 34.7120 8.02888   9
  -1   4  -8 42.0440 7.48769   7
   4   1   8 31.2089 7.72466   9
  -4  -1   8 37.2940 6.39509   5
   4   1   8 41.5901 5.75802   6
  -1   4   8 34.0993 8.73521   1
   1  -4   8 30.0759 6.04906   6
   1  -4   8 38.3624 7.04404   9
  -1   4   8 32.9064 6.36018   8
  -1   4   8 30.3832 5.45846   6
   1  -4   8 44.3332 7.99728   2
  -4  -1   8 30.3970 6.65961   4
   4   1   8 33.4184 6.06713   8
   4   1   8 29.9113 6.69786   3
  -4  -1   8 32.3442 4.84725   6
   0   4  -8 1065.02 66.1146   3
   0   4  -8 1122.38 65.0363   8
   4   0  -8 1185.36 64.2187   5
   0  -4  -8 1234.94 63.6112   2
  -4   0  -8 1157.20 65.6714   4
   0  -4  -8 1150.99 64.4185   5
   4   0  -8 1262.01 65.7920   9
   4   0  -8 1269.19 64.9701   3
   4   0  -8 1171.31 63.7777   2
   0   4  -8 1212.08 65.5590   9
   0   4  -8 1173.12 63.7399   7
  -4   0  -8 1104.66 64.1720   1
  -4   0  -8 1193.52 63.5997   7
   4   0  -8 1174.01 63.3672   7
   0  -4  -8 1217.63 63.6452   7
   0  -4  -8 1155.37 64.7318   4
  -4   0  -8 1189.10 64.4977   8
   4   0   8 1197.08 63.3750   6
   0   4   8 1162.78 63.9661   6
   0  -4   8 1073.57 63.5350   5
   0   4   8 1186.40 64.7005   1
   0  -4   8 1193.19 64.5282   2
   0   4   8 1196.97 64.3915   8
   0  -4   8 1152.21 65.2011   9
   0  -4   8 1162.71 63.9357   6
   4   0   8 1139.66 64.9247   3
  -4   0   8 1163.14 64.1735   5
   4   0   8 1146.10 65.1328   9
  -4   0   8 1092.00 64.0768   4
  -4   0   8 1185.91 63.2720   6
   4  -1  -8 31.9317 5.45470   7
  -1  -4  -8 48.9841 7.12630   7
  -4   1  -8 40.2346 9.41292   4
  -1  -4  -8 35.3486 7.19631   5
   1   4  -8 34.7007 10.6253   3
   1   4  -8 31.6246 8.34011   9
   4  -1  -8 38.3923 6.44634   5
   4  -1  -8 41.8578 8.64996   9
  -1  -4  -8 24.7913 7.22750   1
  -1  -4  -8 48.8792 7.98553   4
   1   4  -8 38.9228 7.27292   8
  -4   1  -8 34.3781 7.11478   1
   4  -1  -8 31.7999 6.20033   2
   1   4  -8 26.5008 6.03124   7
  -1  -4   8 41.4979 6.54466   5
   1   4   8 38.1312 6.33946   8
  -4   1   8 32.7575 7.61090   4
  -4   1   8 32.7286 6.22611   5
   1   4   8 27.0558 6.58994   6
   4  -1   8 34.1045 5.65185   6
   4  -1   8 35.4015 8.49509   9
  -1  -4   8 31.5598 5.99015   6
  -1  -4   8 33.1278 7.52053   9
   1   4   8 32.4362 7.39374   3
   4  -1   8 33.9287 7.30804   3
  -1  -4   8 35.6919 6.90316   2
  -4   1   8 28.6235 4.94541   6
   1   4   8 38.0873 8.49719   1
   4  -2  -8 1123.97 61.7326   9
   4  -2  -8 1158.67 60.3736   2
  -2  -4  -8 1097.71 60.6891   1
  -4   2  -8 1083.70 60.0831   7
   2   4  -8 936.741 60.4862   8
  -4   2  -8 924.234 60.6341   1
  -2  -4  -8 1042.10 60.7935   5
   2   4  -8 1240.55 64.4562   3
   2   4  -8 1109.00 59.7563   7
  -2  -4  -8 1122.86 59.6853   7
  -4   2  -8 1146.86 61.7340   3
   2   4  -8 1095.44 61.2890   9
   4  -2  -8 1126.41 60.2111   7
   4  -2  -8 1136.01 60.5945   5
  -4   2  -8 1055.10 60.7966   8
  -2  -4  -8 1058.88 60.8954   4
  -4   2   8 1068.70 61.2613   1
   4  -2   8 1151.69 62.9112   9
  -4   2   8 1141.24 61.0572   4
  -2  -4   8 1058.78 60.4686   5
  -2  -4   8 1088.66 60.4917   2
   2   4   8 1133.70 60.9674   1
   2   4   8 1205.37 60.6950   3
   4  -2   8 1067.69 61.8544   3
  -2  -4   8 1016.39 59.9713   6
   4  -2   8 1039.59 59.9143   6
   2   4   8 1108.31 61.0454   8
  -4   2   8 1135.88 60.4531   5
   2   4   8 1098.61 59.9770   6
  -4   2   8 1094.64 59.5794   6
  -4   3  -8 14.9198 5.81144   8
  -3  -4  -8 25.7412 7.05274   1
  -3  -4  -8 33.7049 7.82483   5
  -4   3  -8 14.4025 8.99651   1
  -3  -4  -8 30.9261 6.01958   7
   4  -3  -8 24.2809 6.51002   2
   4  -3  -8 27.6658 6.99666   5
   3   4  -8 32.6491 8.68058   9
  -3  -4  -8 34.0232 7.65690   4
   4  -3  -8 20.5843 6.91570   7
   3   4  -8 35.6381 6.46424   7
   3   4  -8 27.2125 13.6769   3
  -4   3  -8 31.9235 7.78233   3
   4  -3  -8 29.2950 9.33199   9
  -4   3  -8 24.2714 5.65790   7
  -3  -4   8 32.7799 7.01266   2
   3   4   8 30.5104 7.44837   6
   3   4   8 20.5688 6.72436   8
  -3  -4   8 52.2300 7.74277   6
  -3  -4   8 28.3118 7.63253   5
   4  -3   8 20.7885 7.68943   3
  -4   3   8 21.1856 7.47335   4
   3   4   8 42.5014 9.42552   1
   4  -3   8 35.7495 7.05559   6
   3   4   8 33.9833 8.17242   3
  -4   3   8 27.2834 9.68891   1
  -4   3   8 30.5162 5.88364   6
   4  -3   8 41.0549 10.1448   9
  -4  -4  -8 1354.16 65.9536   5
  -4   4  -8 994.224 65.9354   8
  -4   4  -8 1198.15 66.6444   1
  -4   4   8 983.004 68.2568   4
   4   4   8 1147.75 65.9906   8
   4  -4   8 1258.55 64.9491   2
   4  -4   8 1192.64 68.8557   9
   5   4  -8 33.4214 20.9264   3
   5   4  -8 38.0808 9.07078   7
   4  -5  -8 11.3148 9.52929   7
  -4   5  -8 28.2986 8.10318   8
  -4   5  -8 36.6287 16.2643   1
  -4   5  -8 27.5498 10.8636   3
   5   4  -8 36.9257 11.5725   9
  -5  -4  -8 21.8482 9.69912   4
   4  -5  -8 51.1782 9.67968   5
   4  -5  -8 28.8416 9.30200   2
  -5  -4  -8 40.5185 7.91569   7
  -5  -4  -8 25.5193 8.92957   1
  -4   5  -8 31.2941 7.88575   7
  -5  -4   8 27.3197 8.76789   2
   4  -5   8 40.0818 10.7811   9
  -5  -4   8 32.8096 9.51028   5
   5   4   8 20.1884 10.7842   6
  -4   5   8 35.2541 11.7864   4
  -5  -4   8 22.5239 8.13183   6
  -4   5   8 25.3070 8.25464   6
   4  -5   8 27.9149 10.6974   3
  -4   5   8 38.1803 12.6419   1
   5   4   8 8.08161 8.58760   8
   5   4   8 31.2130 11.2347   3
   4  -5   8 24.8200 9.41746   6
   5   3  -8 440.660 28.8396   9
  -5  -3  -8 385.606 26.2445   1
   5   3  -8 398.198 38.2629   3
  -3   5  -8 424.269 26.2951   7
  -3   5  -8 371.362 27.3195   8
  -3   5  -8 479.897 31.9398   3
  -5  -3  -8 418.803 25.2479   7
   3  -5  -8 338.878 31.8715   2
   5   3  -8 386.236 26.2741   2
   5   3  -8 405.754 25.3594   7
   3  -5  -8 426.437 26.5125   7
   3  -5  -8 429.915 26.8334   5
  -3   5  -8 351.875 30.9833   1
  -5  -3  -8 380.065 28.0727   4
  -3   5   8 403.241 28.6263   1
  -5  -3   8 389.855 26.3074   5
  -5  -3   8 418.363 26.2812   6
  -5  -3   8 373.786 25.7767   2
   3  -5   8 382.974 26.7598   2
   3  -5   8 424.076 28.1864   9
  -3   5   8 444.557 27.6364   4
  -3   5   8 434.435 25.7973   6
   5   3   8 366.408 26.0066   8
  -5  -3   8 407.557 25.9201   4
   3  -5   8 490.260 32.1402   6
   5   3   8 411.490 29.5915   3
   5   3   8 460.849 27.6015   6
   2  -5  -8 88.8909 13.1356   2
  -5  -2  -8 95.7244 12.7271   4
  -2   5  -8 90.3896 14.9389   3
   5   2  -8 114.746 15.0822   9
  -5  -2  -8 82.3212 11.6819   1
   2  -5  -8 70.2892 11.6793   5
   2  -5  -8 90.0861 11.2508   4
   5   2  -8 119.500 11.7678   2
   2  -5  -8 103.919 10.8554   7
  -2   5  -8 108.954 11.3461   7
  -5  -2  -8 91.1248 9.65421   7
  -2   5  -8 84.2330 12.1860   8
   5   2  -8 118.151 20.3387   3
   5   2  -8 87.0786 9.71641   7
  -5  -2   8 84.1642 11.0939   2
  -2   5   8 89.5060 13.5965   8
  -2   5   8 96.7676 11.5907   6
  -2   5   8 116.795 13.6125   4
   5   2   8 92.1799 10.7393   6
   5   2   8 98.3933 13.7248   3
   2  -5   8 93.6791 11.1642   6
   2  -5   8 91.1963 13.0853   2
  -2   5   8 110.537 14.2751   1
  -5  -2   8 90.2113 10.7889   5
   5   2   8 73.7523 10.5485   8
   2  -5   8 71.7046 13.2647   9
  -5  -2   8 85.0828 10.2793   6
  -5  -2   8 79.1002 12.2246   4
   1  -5  -8 134.726 13.0288   4
  -1   5  -8 118.460 13.6683   8
  -1   5  -8 100.406 15.4960   3
   1  -5  -8 150.914 11.8426   7
  -5  -1  -8 123.860 11.2421   8
   5   1  -8 110.309 11.3670   2
  -5  -1  -8 128.253 13.1370   1
  -5  -1  -8 119.574 17.9225   4
   5   1  -8 134.962 16.4280   9
   5   1  -8 169.874 22.4110   3
  -5  -1  -8 118.344 10.5230   7
   5   1  -8 128.409 10.7644   7
   1  -5  -8 118.609 13.6387   2
   1  -5  -8 128.400 12.7857   5
  -5  -1   8 129.486 11.8769   5
   5   1   8 127.351 11.4629   6
   5   1   8 125.557 14.2665   9
  -1   5   8 135.198 15.4243   1
  -1   5   8 150.052 13.8841   8
   1  -5   8 137.904 12.7274   6
   5   1   8 120.563 14.4348   3
  -1   5   8 135.710 13.9880   4
  -5  -1   8 133.983 11.1602   6
  -5  -1   8 109.682 13.3991   4
   5   1   8 131.837 12.1664   8
   1  -5   8 120.431 13.9472   9
  -1   5   8 127.128 12.4411   6
   1  -5   8 119.194 14.2022   2
   0   5  -8 397.745 25.2089   9
   0  -5  -8 330.473 23.7544   5
  -5   0  -8 359.843 21.7884   7
   5   0  -8 367.180 21.9411   7
  -5   0  -8 316.365 22.7470   1
   5   0  -8 388.372 25.8195   9
   0  -5  -8 369.223 22.7710   7
   5   0  -8 363.711 22.1272   2
   0   5  -8 315.517 26.4645   3
   0  -5  -8 357.866 23.1427   4
  -5   0  -8 351.107 22.3782   8
  -5   0  -8 341.455 26.9538   4
   0   5  -8 351.368 22.7251   7
   0   5  -8 329.094 24.2893   8
   0  -5  -8 360.339 22.7907   2
   5   0   8 342.982 24.4015   3
   0  -5   8 344.044 24.0585   9
  -5   0   8 361.507 22.7509   5
   0  -5   8 312.370 24.0008   5
   0  -5   8 357.517 22.7360   6
   0   5   8 357.105 23.0671   6
   0   5   8 388.148 23.7687   8
   5   0   8 379.048 23.0393   8
  -5   0   8 363.570 23.5024   4
   5   0   8 354.861 24.8820   9
   5   0   8 364.225 21.8545   6
  -5   0   8 364.843 21.6035   6
   0   5   8 376.769 24.7522   1
   0  -5   8 364.876 24.0186   2
  -1  -5  -8 138.556 14.0737   5
   5  -1  -8 175.944 16.9525   9
  -5   1  -8 133.880 11.3791   8
   1   5  -8 137.941 15.5911   9
   1   5  -8 139.314 14.9295   8
  -1  -5  -8 127.573 11.6208   7
   1   5  -8 137.329 12.8562   7
  -5   1  -8 131.555 11.0462   7
   1   5  -8 111.514 18.4892   3
   5  -1  -8 140.771 12.1304   2
  -5   1  -8 115.835 14.3828   1
   5  -1  -8 129.089 12.3602   5
   5  -1  -8 122.828 11.5741   7
  -1  -5  -8 138.166 13.2489   4
  -5   1  -8 135.660 19.1224   4
   5  -1   8 127.132 13.6296   3
   5  -1   8 125.450 15.8285   9
  -1  -5   8 117.242 13.2117   5
  -5   1   8 118.719 13.5683   4
   5  -1   8 124.903 11.7818   6
  -1  -5   8 121.016 13.6288   2
   1   5   8 125.098 15.5509   1
  -5   1   8 127.451 11.3046   6
  -1  -5   8 122.350 14.2997   9
   1   5   8 129.086 12.9700   6
   1   5   8 110.370 13.2332   8
  -5   1   8 126.227 12.1829   5
  -1  -5   8 134.929 12.3361   6
  -2  -5  -8 93.3494 10.4741   7
  -5   2  -8 84.3405 12.8195   1
  -2  -5  -8 79.6259 11.9479   4
   5  -2  -8 98.0584 13.4323   9
  -2  -5  -8 84.0720 10.9484   1
   5  -2  -8 82.5032 10.5418   7
  -5   2  -8 84.7469 10.0411   7
   2   5  -8 64.7250 10.8000   7
   5  -2  -8 76.9705 11.0087   5
  -2  -5  -8 96.5603 13.8394   5
   2   5  -8 88.0521 14.4816   8
   5  -2  -8 82.0932 10.9385   2
   2   5  -8 93.9311 14.7057   9
   2   5  -8 94.2324 16.2701   3
  -5   2  -8 82.5464 9.96344   8
  -5   2   8 115.542 14.8186   1
  -5   2   8 84.4631 10.4097   6
   2   5   8 96.9161 12.4988   6
   2   5   8 97.4356 12.2330   8
   2   5   8 104.746 12.9842   1
  -5   2   8 85.4793 10.8823   5
  -5   2   8 105.296 13.1504   4
  -2  -5   8 108.504 12.3533   5
   5  -2   8 107.955 16.0590   9
  -2  -5   8 87.8324 10.8416   2
   5  -2   8 96.7866 13.5081   3
   5  -2   8 87.3693 11.6862   6
   3   5  -8 375.237 25.8034   7
   5  -3  -8 417.001 26.1724   2
   3   5  -8 452.060 35.1061   3
  -5   3  -8 419.382 26.0833   7
   3   5  -8 468.351 28.1366   9
  -3  -5  -8 441.861 28.3276   1
   5  -3  -8 400.210 26.2538   5
  -3  -5  -8 378.617 26.3322   4
  -5   3  -8 406.321 37.3727   1
  -3  -5  -8 376.142 25.4892   7
   5  -3  -8 378.280 30.0683   9
   5  -3  -8 408.407 26.3714   7
  -3  -5  -8 410.581 28.3352   5
  -5   3  -8 400.748 26.2394   8
   3   5   8 418.349 28.9880   1
   3   5   8 415.217 27.3916   8
   5  -3   8 486.815 31.6230   6
  -3  -5   8 391.474 26.7067   2
  -5   3   8 441.640 28.2076   4
   3   5   8 398.132 28.4848   3
  -5   3   8 420.290 26.0624   5
   3   5   8 447.178 27.4797   6
  -3  -5   8 322.456 28.7704   5
  -5   3   8 421.295 25.3777   6
  -5   3   8 401.534 29.4598   1
  -3  -5   8 445.833 29.1356   6
   5  -3   8 391.820 29.3824   3
   5  -3   8 384.480 30.6096   9
   4   5  -8 24.7046 10.4935   9
  -4  -5  -8 15.8123 8.78187   4
   4   5  -8 24.0690 18.2102   3
   5  -4  -8 30.0100 8.73812   5
  -4  -5  -8 34.3368 7.43465   7
   5  -4  -8 19.7751 8.44471   2
  -4  -5  -8 40.8337 9.45608   1
   4   5  -8 29.9645 9.03231   7
  -5   4  -8 27.1733 7.37063   7
  -5   4  -8 13.2210 10.8118   1
  -5   4  -8 23.2890 7.82777   8
  -4  -5  -8 20.9291 21.0114   5
   5  -4  -8 27.1447 10.4432   7
   5  -4   8 23.0969 11.2180   3
  -4  -5   8 35.1327 10.0971   6
   4   5   8 28.1965 9.10868   8
  -4  -5   8 47.1398 9.62848   2
   4   5   8 49.6399 12.8939   1
   5  -4   8 31.2481 9.93315   6
   4   5   8 12.2148 12.5694   3
   5  -4   8 13.5460 11.2733   9
   4   5   8 32.8424 10.9608   6
  -5   4   8 17.3591 8.51760   6
  -4  -5   8 20.1326 9.38080   5
  -5   4   8 26.0764 13.1649   1
  -5   4   8 19.0387 12.7197   4
  -5  -5  -8 106.244 13.7995   7
  -5  -5  -8 69.0982 11.8868   4
  -5   5  -8 82.0427 13.9433   7
  -5   5  -8 85.4677 13.9713   8
  -5  -5  -8 79.6225 12.9093   1
   5  -5  -8 54.0808 12.0858   5
   5   5  -8 78.3237 13.9377   9
  -5   5  -8 68.5309 13.7672   3
   5   5  -8 70.2255 12.2673   7
   5   5  -8 56.0673 24.1523   3
   5  -5  -8 52.4944 12.6928   7
  -5   5  -8 80.3644 16.6761   1
   5  -5  -8 57.9948 11.3545   2
   5  -5   8 108.781 18.7431   9
   5   5   8 54.2384 13.6423   6
   5  -5   8 55.3045 13.1373   3
  -5  -5   8 86.2771 12.7387   6
   5   5   8 90.6749 15.5929   1
  -5   5   8 67.1041 16.0341   4
   5   5   8 94.6684 15.8159   8
   5  -5   8 65.6786 13.6208   6
  -5  -5   8 67.2847 12.0332   2
  -5  -5   8 65.2749 12.2751   5
  -5   5   8 76.2036 15.8963   1
   5   5   8 48.5884 15.5904   3
  -5   5   8 93.0628 14.5882   6
  -6  -5  -8 108.180 15.7485   1
   5  -6  -8 112.321 17.0654   7
   5  -6  -8 111.719 15.6805   5
   5  -6  -8 88.2473 15.0461   2
  -6  -5  -8 141.452 17.9323   7
   6   5  -8 89.9047 16.2614   7
  -5   6  -8 120.435 18.0907   7
  -5   6  -8 81.7518 16.8582   3
  -5   6  -8 81.2007 19.9485   1
   6   5  -8 126.728 31.1558   3
  -5   6  -8 112.806 16.2872   8
   6   5  -8 122.659 18.1998   9
  -6  -5  -8 113.636 15.8898   4
  -5   6   8 95.6615 19.4213   4
   5  -6   8 128.357 21.1049   9
  -5   6   8 118.938 18.5519   6
   6   5   8 107.476 17.8733   6
   6   5   8 78.4578 19.7413   3
   6   5   8 83.4725 15.2496   8
  -6  -5   8 114.126 15.8780   2
   5  -6   8 114.028 18.7937   6
   6   5   8 103.930 19.0378   1
  -6  -5   8 133.903 19.3815   5
   5  -6   8 109.229 17.8589   3
  -5   6   8 169.022 20.7287   1
  -6  -5   8 117.174 15.7179   6
   4  -6  -8 144.362 17.5277   5
  -6  -4  -8 122.100 19.2936   4
  -6  -4  -8 153.978 16.1499   7
  -4   6  -8 140.071 16.6810   7
  -4   6  -8 134.602 17.0464   8
   6   4  -8 153.303 19.1309   9
   6   4  -8 125.629 28.8041   3
  -4   6  -8 128.599 21.0746   3
   6   4  -8 114.997 17.3714   7
   4  -6  -8 107.890 18.0532   7
  -6  -4  -8 130.599 18.9874   1
  -4   6  -8 177.517 22.1255   1
   4  -6  -8 138.905 18.8972   2
   4  -6   8 135.845 18.1877   2
  -6  -4   8 149.688 17.2578   5
  -4   6   8 143.600 16.7643   6
  -6  -4   8 105.520 16.8646   6
   4  -6   8 158.899 20.7545   3
  -6  -4   8 151.025 17.4943   2
   6   4   8 112.950 17.5505   8
   4  -6   8 115.637 19.5015   6
  -4   6   8 169.312 20.1704   4
   6   4   8 121.009 18.4772   6
   4  -6   8 129.548 19.6628   9
   6   4   8 153.162 23.1262   3
  -4   6   8 157.908 22.4349   1
  -3   6  -8 56.5448 10.4518   7
  -6  -3  -8 66.0425 13.5133   4
  -3   6  -8 72.4615 13.9886   3
   3  -6  -8 62.4984 10.4553   7
  -6  -3  -8 58.2111 9.19192   7
   6   3  -8 72.7992 14.8783   9
   3  -6  -8 65.8986 12.6981   2
   6   3  -8 57.8399 26.0478   3
  -6  -3  -8 70.6626 10.9280   1
   6   3  -8 82.8620 12.5756   7
  -3   6  -8 84.3166 13.3531   8
   3  -6  -8 65.1339 11.6186   5
   6   3  -8 68.2913 11.5931   2
  -6  -3   8 71.3692 11.7548   4
   3  -6   8 80.3916 12.2161   9
  -6  -3   8 88.8548 12.0866   5
  -3   6   8 94.9031 14.0834   1
   3  -6   8 58.0092 10.7189   2
  -3   6   8 58.7797 10.6224   6
   6   3   8 65.6016 13.0167   3
  -3   6   8 77.8032 13.1801   4
  -6  -3   8 62.4636 10.3602   6
   6   3   8 57.8544 10.4873   8
   3  -6   8 68.1652 11.6828   6
   6   3   8 68.6906 11.4556   6
  -6  -3   8 62.5386 10.2766   2
   6   2  -8 606.766 37.3197   9
  -6  -2  -8 514.148 37.2589   4
  -6  -2  -8 519.533 33.8201   1
  -2   6  -8 510.262 35.2707   8
   6   2  -8 586.567 33.7531   2
   2  -6  -8 561.167 34.8975   5
   6   2  -8 568.538 47.9209   3
   6   2  -8 535.141 32.9371   7
  -2   6  -8 501.872 33.5233   7
  -6  -2  -8 556.409 33.0075   7
   2  -6  -8 574.212 34.4829   4
  -2   6  -8 586.869 37.0633   3
   2  -6  -8 557.165 33.4576   7
   2  -6  -8 558.587 35.3496   2
  -2   6   8 556.533 34.8555   4
   2  -6   8 554.753 34.7491   9
  -6  -2   8 557.869 33.0426   6
   6   2   8 516.552 33.7677   8
  -2   6   8 582.650 35.9272   1
  -6  -2   8 545.780 33.2372   2
   2  -6   8 524.133 34.5718   6
   6   2   8 581.116 36.5102   3
  -6  -2   8 542.010 33.9813   5
   2  -6   8 531.403 33.9694   2
   6   2   8 560.084 33.2149   6
  -2   6   8 587.008 34.1077   6
  -2   6   8 592.222 35.5138   8
  -6  -2   8 550.426 34.1607   4
   1  -6  -8 10.6980 7.74114   4
  -1   6  -8 23.4193 7.86831   7
   6   1  -8 23.7672 6.98216   7
   1  -6  -8 25.7575 8.73499   5
   6   1  -8 10.5786 7.51321   2
  -1   6  -8 9.76635 10.6839   3
   1  -6  -8 11.2270 6.57430   7
   1  -6  -8 21.3001 9.53844   2
  -6  -1  -8 20.5876 6.24617   7
   6   1  -8 22.3950 11.8702   9
  -6  -1  -8 15.5660 7.53887   1
  -6  -1  -8 18.4926 6.18249   8
  -1   6  -8 16.4768 8.63115   8
  -1   6   8 20.2749 11.2775   1
   6   1   8 17.1925 6.89162   8
   1  -6   8 26.8946 8.63480   2
   1  -6   8 25.6223 7.64985   6
  -6  -1   8 22.0346 7.78245   5
  -6  -1   8 18.3159 7.02501   6
  -1   6   8 37.9181 10.1199   4
  -1   6   8 12.6516 11.1190   8
  -6  -1   8 41.2252 9.88219   4
  -1   6   8 26.0629 8.78046   6
   6   1   8 23.0725 7.40023   6
   1  -6   8 26.0656 8.14250   9
   6   1   8 33.1998 9.57867   3
   6   0  -8 2009.12 104.677   9
   0  -6  -8 1888.82 102.238   4
   6   0  -8 1939.23 101.739   7
   0  -6  -8 1844.14 101.947   7
  -6   0  -8 1729.68 104.742   4
   0  -6  -8 1817.76 103.302   5
  -6   0  -8 1858.97 101.840   7
  -6   0  -8 1770.56 102.018   8
  -6   0  -8 1768.63 102.164   1
   0   6  -8 2081.78 105.569   3
   6   0  -8 2017.39 101.853   2
   0  -6   8 1862.26 102.112   6
   0   6   8 1889.80 102.456   6
   6   0   8 1684.30 102.061   8
   6   0   8 1866.79 103.274   9
   6   0   8 1855.16 101.455   6
   0  -6   8 1897.47 102.935   9
   6   0   8 1778.06 103.823   3
  -6   0   8 1955.30 102.475   5
  -6   0   8 1910.09 101.468   6
   0   6   8 1974.94 103.451   1
  -6   0   8 1916.63 103.048   4
   0  -6   8 1837.56 102.866   2
   6  -1  -8 21.4033 7.89668   7
  -6   1  -8 19.2791 6.44014   8
  -1  -6  -8 21.0093 7.62226   7
  -6   1  -8 16.7384 8.69072   1
   1   6  -8 16.4583 11.4424   9
  -1  -6  -8 21.7616 9.33613   5
  -6   1  -8 24.7644 14.7017   4
   1   6  -8 20.9554 13.1806   3
   1   6  -8 26.2242 8.37547   7
   1   6  -8 21.9985 10.6056   8
   6  -1  -8 22.0936 7.23727   2
  -1  -6  -8 29.2349 8.09904   4
  -6   1  -8 10.3614 6.44619   7
   6  -1  -8 29.6473 12.3462   9
   1   6   8 24.4423 10.6237   6
  -1  -6   8 16.8482 8.16401   9
  -1  -6   8 12.8454 9.46924   5
  -6   1   8 17.4614 7.02482   6
  -1  -6   8 15.9161 8.32532   2
   1   6   8 28.4486 11.7435   1
  -6   1   8 20.6322 10.8115   4
   6  -1   8 28.4926 7.92849   6
   6  -1   8 18.7168 9.67746   3
  -1  -6   8 25.9681 6.94576   6
  -6   1   8 31.4628 7.93061   5
   1   6   8 2.67412 9.51900   8
  -6   2  -8 539.353 33.2046   8
  -2  -6  -8 494.125 35.0855   5
   6  -2  -8 561.206 37.8386   9
  -6   2  -8 508.908 34.3487   1
   2   6  -8 599.905 39.7205   3
   2   6  -8 488.639 36.4225   8
   2   6  -8 569.028 35.4932   9
   6  -2  -8 562.234 32.9784   2
   2   6  -8 507.540 33.6874   7
  -2  -6  -8 530.423 33.0242   7
  -2  -6  -8 528.133 33.3765   4
  -6   2  -8 558.144 33.0041   7
   6  -2  -8 552.181 33.8258   5
   6  -2  -8 542.492 33.1777   7
   6  -2   8 554.086 37.0735   9
  -6   2   8 571.209 32.7027   6
  -2  -6   8 528.382 34.6725   9
   6  -2   8 547.649 33.5479   6
   2   6   8 532.880 35.3300   1
   6  -2   8 529.203 35.8473   3
   2   6   8 544.058 35.1379   8
  -2  -6   8 525.178 34.0269   2
  -6   2   8 537.936 33.2089   5
  -2  -6   8 540.117 33.2247   6
  -6   2   8 569.725 35.2024   4
  -2  -6   8 524.682 34.6680   5
   2   6   8 587.223 34.4907   6
  -6   3  -8 43.6245 12.6589   1
   3   6  -8 71.4939 18.6184   3
  -6   3  -8 75.2346 12.2050   7
  -3  -6  -8 63.5192 10.2621   4
  -3  -6  -8 74.0890 10.3885   7
  -6   3  -8 70.2240 10.5006   8
   3   6  -8 73.3526 11.4802   7
   6  -3  -8 81.0520 12.2190   5
   6  -3  -8 62.7250 10.0860   2
   3   6  -8 69.6079 13.6703   9
  -3  -6  -8 70.6699 14.2334   5
   6  -3  -8 22.1267 16.1807   9
   6  -3  -8 66.4387 11.3337   7
  -6   3   8 60.8631 16.8836   1
  -3  -6   8 68.5761 10.6964   6
  -3  -6   8 59.8678 11.3487   2
   6  -3   8 77.9124 12.5677   3
  -6   3   8 56.4220 10.6098   5
   3   6   8 78.4888 14.5062   1
  -6   3   8 65.8463 10.2345   6
   6  -3   8 50.0484 14.3047   9
  -3  -6   8 59.8406 12.3663   5
   3   6   8 66.3731 13.8821   6
  -6   3   8 68.5978 13.6280   4
   6  -3   8 62.8511 12.1116   6
   3   6   8 69.6816 12.2599   8
  -4  -6  -8 132.406 16.6837   4
  -4  -6  -8 130.024 17.3838   7
  -6   4  -8 141.231 17.6614   1
   6  -4  -8 153.248 18.1511   7
  -6   4  -8 123.286 16.2125   8
   4   6  -8 173.388 25.4511   3
   6  -4  -8 162.013 17.5746   5
  -6   4  -8 119.736 16.1372   7
  -4  -6  -8 138.799 20.6514   1
   4   6  -8 139.950 21.4482   9
  -4  -6  -8 157.360 20.1338   5
   6  -4  -8 160.230 16.6593   2
   4   6  -8 96.4132 18.2498   7
   6  -4   8 127.548 20.1664   6
  -6   4   8 167.366 25.8249   1
   4   6   8 177.851 20.3390   1
   4   6   8 137.191 19.8092   8
  -6   4   8 137.178 17.8189   4
  -6   4   8 163.181 16.4880   6
   6  -4   8 177.748 24.4716   9
  -6   4   8 124.206 16.9884   5
   4   6   8 137.861 17.6268   6
   6  -4   8 162.621 22.0369   3
  -4  -6   8 132.525 18.8476   2
  -4  -6   8 138.660 18.6397   5
  -6   5  -8 71.8985 13.1710   7
   5   6  -8 171.717 22.6103   9
  -6   5  -8 79.8099 18.3809   1
   5   6  -8 82.9330 16.3748   7
  -5  -6  -8 99.2322 16.5163   1
  -5  -6  -8 114.635 16.9618   4
   6  -5  -8 92.4830 15.3808   2
  -5  -6  -8 120.502 18.7973   7
   6  -5  -8 122.916 16.5855   5
   6  -5  -8 119.959 21.5406   7
   5   6  -8 127.673 27.6151   3
  -6   5  -8 95.6297 16.9695   8
   6  -5   8 125.121 18.7753   3
  -6   5   8 107.649 17.2332   5
  -5  -6   8 118.589 17.2799   6
  -5  -6   8 106.381 16.6902   5
   5   6   8 106.574 16.7705   8
   6  -5   8 101.764 17.5526   6
   6  -5   8 116.761 17.6175   9
  -5  -6   8 115.009 15.7992   2
   5   6   8 136.122 22.5665   3
   5   6   8 168.241 26.2630   1
   5   6   8 107.256 18.5944   6
  -6   5   8 132.622 19.2481   4
  -6   5   8 147.650 18.4644   6
  -6   5   8 137.876 22.1342   1
  -3   7  -8 231.009 27.4417   3
   3  -7  -8 227.342 26.7856   2
  -7  -3  -8 243.429 27.0775   4
  -7  -3  -8 249.452 21.6518   7
   3  -7  -8 299.322 22.8212   7
  -7  -3  -8 265.703 24.0993   1
   7   3  -8 261.079 28.3274   9
   7   3  -8 259.508 22.7083   7
   7   3  -8 272.963 23.4709   2
   3  -7  -8 242.712 23.1161   5
  -3   7  -8 253.441 23.1986   8
  -3   7  -8 239.506 22.3792   7
   7   3  -8 196.474 56.3781   3
   3  -7   8 275.586 24.2711   9
  -3   7   8 324.408 25.1436   4
   3  -7   8 247.160 22.0415   2
   7   3   8 242.775 22.7212   8
  -3   7   8 243.304 26.9841   1
  -7  -3   8 240.738 22.9343   5
  -7  -3   8 315.872 24.1161   4
   7   3   8 249.614 27.4295   3
   7   3   8 273.563 23.0786   6
  -3   7   8 245.095 22.0344   6
  -7  -3   8 255.837 22.2690   2
   3  -7   8 257.970 23.8233   6
  -7  -3   8 258.008 22.6969   6
  -7  -2  -8 115.363 16.5880   1
   2  -7  -8 101.359 14.8804   5
   7   2  -8 87.7385 13.6298   7
  -2   7  -8 109.616 16.3412   3
   7   2  -8 101.661 17.2399   9
   2  -7  -8 106.172 16.4062   4
  -2   7  -8 93.8471 14.6816   8
  -7  -2  -8 110.672 18.3342   4
  -7  -2  -8 97.4038 14.3977   7
   7   2  -8 85.6003 13.7836   2
   2  -7  -8 93.0727 16.7266   2
   2  -7  -8 99.5048 16.0056   7
  -2   7  -8 97.3061 14.8585   7
   7   2   8 79.1010 12.8120   8
   2  -7   8 86.3406 12.9763   2
   2  -7   8 100.145 16.9614   6
  -7  -2   8 104.832 15.9741   2
   2  -7   8 93.8946 13.1177   9
   7   2   8 89.9696 15.7901   3
  -7  -2   8 100.734 15.9562   5
  -7  -2   8 140.216 18.0570   4
   7   2   8 114.843 15.6357   6
  -2   7   8 118.269 16.1625   6
  -2   7   8 105.609 15.3593   4
  -7  -2   8 93.4659 12.4616   6
  -2   7   8 112.574 16.3522   1
  -1   7  -8 84.8670 14.5066   7
   7   1  -8 104.952 14.2883   2
   7   1  -8 119.586 20.4656   9
  -7  -1  -8 89.8058 11.6741   1
   1  -7  -8 112.562 16.2169   5
   1  -7  -8 114.972 15.1342   4
  -1   7  -8 68.4551 15.2457   3
  -1   7  -8 73.0083 13.3661   8
   1  -7  -8 85.4626 13.5084   7
  -7  -1  -8 73.1546 13.4699   7
   7   1  -8 94.4125 13.5028   7
  -7  -1  -8 72.5085 17.1556   4
  -7  -1   8 93.4429 13.1195   5
  -7  -1   8 108.624 13.9591   6
  -1   7   8 65.3326 13.9210   4
   1  -7   8 74.2142 12.5235   9
  -7  -1   8 81.6709 13.2987   4
   7   1   8 94.1392 14.9015   3
   1  -7   8 88.0970 12.0423   2
  -1   7   8 92.3522 15.8268   1
  -1   7   8 86.2967 15.0719   8
   1  -7   8 92.2998 11.8891   6
  -1   7   8 86.1949 13.1822   6
   7   1   8 84.0534 14.4773   6
   7   1   8 63.0216 10.9873   8
   0  -7  -8 108.094 17.1185   5
   0  -7  -8 131.873 16.3491   4
  -7   0  -8 126.440 14.5556   7
   0  -7  -8 126.218 14.6782   7
   0   7  -8 113.582 17.6902   3
   7   0  -8 109.097 15.1315   2
  -7   0  -8 125.124 15.5558   1
  -7   0  -8 117.134 13.6347   8
   0   7  -8 119.043 16.9853   8
   7   0  -8 135.902 15.4209   7
   0   7  -8 104.100 15.7250   7
   7   0  -8 115.207 17.4079   9
  -7   0  -8 120.900 20.3972   4
  -7   0   8 125.243 14.7965   6
   7   0   8 114.576 15.1413   8
   7   0   8 114.333 19.5868   9
   0   7   8 114.905 19.3706   8
   0  -7   8 153.364 16.0787   6
   7   0   8 124.454 15.4756   6
   0   7   8 124.363 17.0304   1
  -7   0   8 133.783 19.3815   4
  -7   0   8 124.186 15.4472   5
   0   7   8 145.201 17.5852   6
   7   0   8 132.036 19.8421   3
   0  -7   8 113.186 16.9479   2
   0  -7   8 98.7760 16.5755   9
  -7   1  -8 84.7721 13.4394   7
  -1  -7  -8 89.7832 14.7890   7
   7  -1  -8 70.2429 17.1801   9
  -7   1  -8 81.0037 12.5894   8
   7  -1  -8 67.4876 11.1651   2
   1   7  -8 95.0161 16.7378   7
  -1  -7  -8 88.5492 11.8912   4
  -7   1  -8 82.4119 12.6344   1
  -1  -7  -8 93.3689 14.0047   5
   1   7  -8 88.8687 16.0613   8
   1   7  -8 90.9933 16.7951   3
   7  -1  -8 83.5274 13.0164   7
  -1  -7   8 89.6489 14.9160   6
  -1  -7   8 99.1128 16.5152   9
   7  -1   8 86.8485 12.3284   6
   7  -1   8 100.832 15.4614   9
   7  -1   8 79.8041 12.1499   8
   1   7   8 91.1047 15.1370   8
   7  -1   8 94.6200 14.7608   3
  -7   1   8 97.5705 15.1177   5
  -7   1   8 64.0223 14.7794   4
  -7   1   8 96.4215 13.8586   6
   1   7   8 91.9802 16.6228   1
  -1  -7   8 87.5708 13.3605   2
   1   7   8 119.888 18.5569   6
   7  -2  -8 89.8564 12.7041   2
   7  -2  -8 91.8298 14.3357   7
  -7   2  -8 97.6298 13.8660   1
   2   7  -8 83.8731 19.1202   3
  -2  -7  -8 107.073 13.5656   7
  -2  -7  -8 100.626 15.6131   4
  -7   2  -8 101.773 14.0351   8
  -7   2  -8 104.176 15.5458   7
  -2  -7  -8 111.515 16.0559   5
   7  -2  -8 87.0813 19.6475   9
   2   7  -8 107.789 17.5976   8
   2   7  -8 86.9414 13.8353   7
   7  -2   8 90.6872 15.8835   3
  -2  -7   8 102.218 14.5190   9
   7  -2   8 103.886 17.3887   6
  -2  -7   8 104.946 15.2603   6
  -7   2   8 116.900 15.9621   6
   2   7   8 99.9822 16.5389   8
  -2  -7   8 105.172 15.1091   5
  -7   2   8 113.980 14.7472   5
   2   7   8 120.568 20.3835   6
  -7   2   8 116.132 17.7526   4
  -2  -7   8 94.4270 14.5894   2
   2   7   8 102.166 18.5958   1
   7  -2   8 119.833 17.1320   9
   7  -3  -8 259.947 24.7961   7
  -3  -7  -8 260.767 22.2750   4
  -7   3  -8 258.741 21.7659   8
  -3  -7  -8 262.637 24.1561   7
   3   7  -8 244.371 31.1513   3
   7  -3  -8 262.551 21.6913   2
   7  -3  -8 221.396 32.9243   9
   7  -3  -8 259.644 23.9454   5
  -7   3  -8 235.797 23.8089   1
   3   7  -8 208.707 23.9182   7
  -3  -7  -8 331.807 26.7888   5
  -7   3  -8 237.082 22.2891   7
  -3  -7   8 278.660 25.1486   9
  -7   3   8 324.144 27.6704   4
  -7   3   8 230.228 22.7743   5
   7  -3   8 270.956 28.9244   3
  -3  -7   8 285.984 23.7178   6
   7  -3   8 273.539 26.5216   6
  -7   3   8 307.661 22.9478   6
  -3  -7   8 279.396 25.3780   5
   3   7   8 254.250 25.2774   8
   3   7   8 227.388 29.0909   1
   3   7   8 265.571 26.5332   6
   7  -3   8 242.874 29.3589   9
  -3  -7   8 286.212 24.6716   2
   0   0  -9 -0.2427 3.92532   3
   0   0  -9 2.25910 3.05523   8
   0   0  -9 4.40333 6.20047   9
   0   0  -9 3.85108 5.14043   1
   0   0   9 5.45471 7.11630   9
   0   0   9 -0.3622 4.24797   2
  -1   0  -9 10.3390 7.43712   9
   0  -1  -9 3.98193 5.27378   4
   0  -1  -9 12.1395 5.17937   9
  -1   0  -9 4.55927 3.22026   8
   0  -1  -9 5.17587 4.13275   3
  -1   0  -9 2.63747 4.09546   3
   0   1  -9 16.4517 5.22709   4
   0  -1  -9 1.08905 3.12082   8
   1   0  -9 2.29587 5.92040   1
   0   1  -9 -0.7094 6.53875   9
   0  -1  -9 2.76071 4.97097   1
   1   0  -9 -1.7515 4.80368   4
   0  -1  -9 3.04614 3.49542   5
  -1   0  -9 6.83671 4.46978   1
   0   1  -9 6.30950 3.51696   5
   1   0  -9 2.83477 3.24871   5
   1   0  -9 -0.6491 2.47704   8
   1   0  -9 -8.2767 5.53403   9
   0   1  -9 16.7825 5.22299   3
  -1   0  -9 2.36079 3.39206   2
  -1   0  -9 1.99327 3.12428   5
   0  -1  -9 6.65216 3.20248   2
   0   1  -9 3.86142 3.46110   2
   0   1  -9 -5.0249 5.31956   1
   1   0  -9 -0.3813 3.06699   2
   0   1  -9 -1.8369 3.18465   8
  -1   0   9 -3.5255 5.36653   1
   0   1   9 -11.312 6.49235   9
   0  -1   9 -0.7520 3.71943   2
   1   0   9 1.78097 3.81969   3
  -1   0   9 4.42599 2.69576   8
   0  -1   9 1.74479 3.51437   5
   0   1   9 -1.9073 3.73680   3
   1   0   9 3.81649 3.83453   2
   0  -1   9 -2.5712 6.75520   9
  -1   0   9 -0.8363 3.56510   5
   0   1   9 -0.3257 4.89723   1
   0   1   9 3.63396 3.41232   8
   0  -1   9 -2.4515 3.77671   4
  -1   0   9 5.10354 4.23107   4
   1   0   9 1.90156 7.08071   9
   1  -1  -9 3101.92 159.172   5
   1   1  -9 2965.43 160.304   9
   1  -1  -9 2964.57 158.650   2
   1  -1  -9 3134.49 159.653   1
  -1   1  -9 2994.54 158.880   4
  -1  -1  -9 2680.70 158.162   2
   1  -1  -9 3163.55 158.881   8
   1   1  -9 3077.81 158.917   8
  -1   1  -9 2921.35 158.399   5
  -1  -1  -9 3055.74 159.915   4
  -1   1  -9 3072.04 159.066   1
  -1   1  -9 2934.01 159.841   3
   1  -1  -9 2755.19 160.479   9
   1  -1  -9 3176.05 158.937   3
  -1  -1  -9 3078.23 159.343   1
   1  -1  -9 2979.49 159.643   4
  -1  -1  -9 3063.49 159.403   8
  -1   1  -9 3014.13 159.564   8
  -1   1  -9 2896.38 160.559   9
   1   1  -9 2993.51 158.815   2
   1   1  -9 3132.62 159.951   3
   1   1  -9 2941.28 158.971   5
  -1  -1   9 2667.55 158.609   4
   1   1   9 3258.30 159.531   3
   1  -1   9 2849.72 160.631   9
  -1   1   9 2789.44 159.184   1
  -1  -1   9 3016.85 159.014   5
  -1   1   9 3014.11 158.737   8
   1   1   9 3004.07 159.668   9
  -1  -1   9 2942.15 158.831   2
   1  -1   9 2938.62 158.429   5
   1   1   9 2840.42 158.247   2
  -1   1   9 3240.44 158.986   3
   1   1   9 3036.39 159.401   8
  -1   1   9 2856.75 159.305   4
  -2  -1  -9 26.9806 7.32317   4
   2   1  -9 27.2789 7.53292   9
  -2  -1  -9 28.9585 4.72266   5
  -1   2  -9 24.9406 6.68201   3
  -2  -1  -9 25.6416 5.55633   1
   1  -2  -9 24.0903 4.88238   5
  -1   2  -9 25.2326 8.94777   9
  -1   2  -9 26.5624 5.98772   1
  -2  -1  -9 26.9223 4.60884   8
   1  -2  -9 28.8601 5.26098   9
   1  -2  -9 34.0835 4.96527   2
   2   1  -9 19.8884 7.30362   3
  -1   2  -9 23.7456 4.98909   8
   1  -2  -9 23.8584 6.41234   4
   2   1  -9 21.6494 4.57046   2
   2   1  -9 24.8829 3.62413   8
  -1   2   9 23.5689 4.37386   8
   2   1   9 21.3665 5.04329   3
  -2  -1   9 26.5812 4.98789   5
  -2  -1   9 25.7161 5.36341   4
  -1   2   9 26.9920 6.72716   1
  -2  -1   9 27.8366 5.63102   2
   2   1   9 20.2244 5.79533   9
   1  -2   9 30.7692 6.05894   2
   2   1   9 23.8804 4.94018   8
   1  -2   9 20.3167 7.10687   9
  -1   2   9 12.5857 5.53880   4
  -2   0  -9 7.82750 4.63507   3
  -2   0  -9 5.12222 6.09091   4
   0   2  -9 -0.3417 5.72348   3
  -2   0  -9 4.10627 4.85659   1
   0  -2  -9 3.35629 3.76478   5
   0   2  -9 4.96722 8.08160   9
   0  -2  -9 6.68840 4.85259   9
   0   2  -9 -2.9456 3.68607   8
  -2   0  -9 2.93883 3.43859   8
  -2   0  -9 1.49629 3.12749   5
   0  -2  -9 6.99689 5.71747   4
   2   0  -9 2.83937 2.67338   8
   2   0  -9 2.70999 3.83291   2
   2   0  -9 0.25673 3.85744   5
   2   0  -9 0.45079 5.74066   9
   2   0  -9 10.7691 5.22438   3
   0  -2  -9 3.87919 5.52731   1
   0   2   9 2.57341 3.52936   8
   2   0   9 4.11945 4.52292   3
   0  -2   9 -2.5528 4.44727   2
   0   2   9 4.40332 7.14760   9
  -2   0   9 5.71191 4.66187   4
  -2   0   9 -0.2955 2.71551   8
  -2   0   9 4.80106 4.08745   5
   0  -2   9 1.00307 4.02154   5
   2   0   9 1.11452 5.72408   2
   2   0   9 0.46856 6.65078   9
   0   2   9 -2.9700 5.82957   1
   0   2   9 3.13989 3.97915   3
   0  -2   9 1.15049 6.93943   9
  -2   1  -9 20.8174 4.62797   8
  -1  -2  -9 32.9589 5.05270   5
  -1  -2  -9 25.1799 3.87431   2
  -1  -2  -9 25.0366 5.79750   1
   2  -1  -9 25.7738 6.41975   9
  -2   1  -9 29.8455 6.00602   1
   1   2  -9 27.8913 7.76665   3
  -2   1  -9 36.3437 7.14995   4
  -1  -2  -9 14.3266 6.48610   4
   2  -1  -9 23.9501 6.16201   4
   1   2  -9 12.0223 7.44526   9
   2  -1  -9 21.8419 4.43532   2
   2  -1  -9 24.3517 4.82980   5
  -2   1  -9 23.5357 5.83096   3
   1   2  -9 18.4192 4.83796   2
   2  -1  -9 27.3358 4.92572   3
   1   2  -9 28.7270 5.03694   8
   1   2   9 19.3977 4.43389   8
  -2   1   9 21.8903 4.08627   8
  -2   1   9 18.7395 5.61900   4
  -1  -2   9 24.0629 5.33008   2
  -2   1   9 14.6975 7.07563   1
   2  -1   9 21.8020 5.98051   3
   2  -1   9 29.6615 7.79345   9
   1   2   9 22.9802 4.65034   3
   2  -1   9 28.3992 6.69345   2
  -1  -2   9 19.6964 4.83558   5
  -1  -2   9 28.1543 5.41091   4
  -2   2  -9 0.37184 3.77532   8
   2  -2  -9 7.51262 7.07091   9
   2  -2  -9 6.54580 5.73206   4
   2  -2  -9 1.13037 4.37880   2
   2   2  -9 4.87950 3.53602   8
   2   2  -9 5.06108 6.40743   9
  -2  -2  -9 4.92024 5.13691   1
  -2  -2  -9 2.86214 3.47344   8
   2  -2  -9 4.74732 4.41039   5
   2   2  -9 3.20586 4.31010   2
  -2   2  -9 2.03498 5.10440   3
   2   2  -9 18.8139 8.87194   3
  -2  -2  -9 1.39270 4.38177   5
  -2  -2  -9 14.6420 6.84253   4
  -2   2  -9 5.64098 5.78146   1
  -2   2   9 2.42248 7.27654   1
   2   2   9 2.00523 4.96835   3
   2  -2   9 2.24767 6.55285   2
  -2   2   9 4.26025 4.08709   8
  -2  -2   9 -1.1272 4.43710   5
  -2   2   9 -4.1562 5.22977   4
  -2  -2   9 2.22442 4.64391   2
  -2  -2   9 2.61096 4.98532   4
   2  -2   9 -1.5565 5.42175   3
   2  -2   9 6.60925 7.26457   9
   2   2   9 0.06956 4.03996   8
  -2   3  -9 177.317 13.7083   8
  -3  -2  -9 156.897 12.5224   5
   3   2  -9 182.487 15.2800   9
   2  -3  -9 162.360 15.0123   4
  -3  -2  -9 161.276 13.6060   1
   3   2  -9 158.983 12.9830   2
  -2   3  -9 185.726 15.0132   1
  -2   3  -9 162.854 15.6146   3
  -3  -2  -9 184.271 11.7162   7
   2  -3  -9 164.156 13.0761   7
   3   2  -9 157.020 11.3078   7
  -3  -2  -9 181.206 12.9731   8
  -3  -2  -9 174.810 16.2890   4
  -2   3  -9 179.318 13.3555   7
   3   2  -9 200.694 18.4799   3
   2  -3  -9 181.291 12.9900   5
   2  -3  -9 180.355 13.2643   2
   2  -3   9 170.718 12.9143   6
   3   2   9 185.601 14.2722   3
  -2   3   9 143.754 14.2827   8
   2  -3   9 154.263 15.2267   2
  -2   3   9 172.402 14.1805   4
  -3  -2   9 151.574 13.1241   2
   2  -3   9 179.974 16.8481   9
   3   2   9 161.049 11.6233   6
  -3  -2   9 169.500 11.7397   6
  -3  -2   9 163.915 13.2564   4
   3   2   9 176.254 13.3247   8
  -3  -2   9 159.483 12.9602   5
  -2   3   9 178.736 15.9365   1
  -1   3  -9 153.700 16.1691   9
  -3  -1  -9 151.750 12.9998   1
   1  -3  -9 182.006 13.9707   4
   3   1  -9 181.152 16.1283   3
   1  -3  -9 158.454 12.1089   5
  -3  -1  -9 155.938 12.0633   8
  -1   3  -9 152.990 12.2990   7
  -1   3  -9 138.597 14.2575   3
   1  -3  -9 164.130 12.1658   2
   3   1  -9 156.625 11.5284   2
  -3  -1  -9 146.857 15.6885   4
   3   1  -9 160.064 14.9398   9
  -1   3  -9 141.761 12.9631   8
  -3  -1   9 160.281 12.4822   4
  -1   3   9 172.474 13.5554   4
   3   1   9 155.651 12.8688   3
  -1   3   9 156.008 11.7209   8
   3   1   9 149.491 14.5314   9
   1  -3   9 162.516 15.3956   9
  -3  -1   9 145.467 11.9266   5
   3   1   9 176.170 10.7356   6
   1  -3   9 157.166 13.5180   2
  -1   3   9 175.175 14.5095   1
   3   1   9 172.405 12.6304   8
   0  -3  -9 8.24576 6.16870   4
   3   0  -9 9.04065 7.35831   9
   0  -3  -9 -1.9261 3.85728   2
   3   0  -9 1.99149 4.35333   2
   3   0  -9 -7.8889 4.63772   5
   0  -3  -9 -2.3534 6.34039   1
   0   3  -9 -4.1547 7.72575   9
  -3   0  -9 4.77090 5.16348   1
   0   3  -9 6.81990 7.49517   3
   0  -3  -9 -0.7860 4.25802   5
   0   3  -9 -0.8084 4.86094   8
  -3   0  -9 4.32133 7.48115   4
  -3   0  -9 0.13838 3.78569   8
   3   0  -9 -0.1854 6.27119   3
  -3   0   9 0.65521 4.48729   5
   0  -3   9 -2.2433 6.09519   9
   0   3   9 5.05417 4.07750   8
   0  -3   9 3.59420 4.74443   5
   0  -3   9 -0.0139 5.17104   2
   3   0   9 2.50394 5.28211   3
   3   0   9 9.83936 7.33252   9
   0   3   9 -1.9728 6.82324   1
  -3   0   9 1.03200 5.72372   4
  -1  -3  -9 143.352 14.2708   4
   1   3  -9 157.547 15.3933   9
   3  -1  -9 169.236 11.9043   2
  -3   1  -9 158.813 13.6174   1
  -1  -3  -9 162.629 13.7890   1
   3  -1  -9 169.466 12.0505   5
   1   3  -9 155.090 12.7088   8
  -3   1  -9 164.028 13.4149   3
  -1  -3  -9 147.156 12.1525   5
  -3   1  -9 168.155 16.0532   4
   1   3  -9 189.267 17.0726   3
   3  -1  -9 154.589 14.7455   9
  -3   1  -9 150.590 11.9611   8
  -3   1  -9 154.684 11.0160   7
   1   3   9 166.735 12.7260   3
   3  -1   9 170.615 16.3361   9
   3  -1   9 161.760 10.9678   6
   1   3   9 157.556 14.0200   1
  -3   1   9 173.191 12.3391   5
   3  -1   9 158.774 13.7778   3
   1   3   9 160.063 12.1114   8
  -1  -3   9 146.687 11.8349   5
  -3   1   9 144.277 12.7048   4
  -3   1   9 157.689 14.8693   1
  -1  -3   9 162.455 12.7200   2
  -2  -3  -9 171.019 15.3237   4
   3  -2  -9 179.125 15.1273   9
  -3   2  -9 164.396 14.3576   3
   2   3  -9 153.327 13.0120   8
  -2  -3  -9 170.233 13.0855   5
  -2  -3  -9 172.017 14.2172   1
  -3   2  -9 176.502 12.8156   7
   2   3  -9 176.326 15.4384   9
   3  -2  -9 164.567 12.9703   5
  -2  -3  -9 167.214 11.6293   7
  -3   2  -9 171.121 13.3767   8
   2   3  -9 170.023 11.8704   7
   2   3  -9 200.262 19.7191   3
  -3   2  -9 163.274 14.8184   1
   3  -2  -9 181.239 12.8842   7
   3  -2  -9 174.991 13.3647   2
   3  -2   9 160.930 14.5090   3
   3  -2   9 179.553 12.3452   6
   3  -2   9 166.869 19.8982   2
  -2  -3   9 178.179 12.7747   6
  -3   2   9 180.511 14.0413   4
   2   3   9 190.326 13.5412   8
   3  -2   9 196.714 17.6408   9
  -2  -3   9 177.595 13.1886   5
   2   3   9 183.276 15.0523   1
   2   3   9 172.764 12.3257   6
  -2  -3   9 173.709 13.5372   2
  -3   2   9 188.111 16.2780   1
   2   3   9 178.798 14.0472   3
   3   3  -9 47.0705 6.93305   7
  -3  -3  -9 36.7193 5.65389   7
  -3   3  -9 72.7430 10.0133   3
   3   3  -9 47.6411 7.87195   2
  -3  -3  -9 38.2790 7.82700   5
   3  -3  -9 45.3544 7.68348   7
   3   3  -9 42.7142 8.91108   9
  -3   3  -9 35.4078 8.93642   1
  -3  -3  -9 50.0633 8.84449   4
  -3  -3  -9 43.2047 7.55740   1
   3  -3  -9 56.0112 7.76575   2
  -3   3  -9 41.7729 7.22824   8
  -3   3  -9 48.2576 8.56931   7
   3   3  -9 38.7041 13.4590   3
   3  -3  -9 48.4441 7.45888   5
   3  -3   9 43.6038 6.90037   6
   3  -3   9 32.5224 8.48298   3
  -3  -3   9 42.2298 7.29712   2
  -3   3   9 40.7164 8.34270   4
  -3   3   9 57.2957 10.2265   1
  -3   3   9 41.8483 5.96507   6
   3   3   9 41.2705 7.40903   8
   3   3   9 38.8253 6.96481   6
   3  -3   9 52.8327 9.75937   2
   3  -3   9 36.6678 10.5948   9
  -3  -3   9 42.1883 6.43793   6
  -3  -3   9 50.9065 7.88643   5
   3   3   9 48.0397 8.29100   3
   4   3  -9 88.3504 18.6264   3
  -4  -3  -9 55.6351 14.4426   4
  -3   4  -9 82.5053 11.8026   1
   3  -4  -9 70.9466 11.4907   5
  -4  -3  -9 82.8615 12.6884   7
  -3   4  -9 90.6455 14.1895   8
   4   3  -9 82.8606 13.6920   9
   4   3  -9 84.6807 13.2462   2
   3  -4  -9 78.0229 10.1009   2
   3  -4  -9 91.6339 13.8336   7
   4   3  -9 86.3610 13.7659   7
  -3   4  -9 81.5354 14.4243   7
  -3   4   9 76.9940 11.9331   1
   4   3   9 86.4460 13.0629   8
  -4  -3   9 79.9863 12.2521   2
  -3   4   9 90.7858 14.2111   6
  -4  -3   9 76.8809 14.8156   5
   3  -4   9 79.0420 15.0383   9
  -3   4   9 93.4726 13.2380   4
   3  -4   9 92.6008 11.4792   2
   4   3   9 95.7854 13.9989   3
   4   2  -9 17.6060 13.6058   3
  -2   4  -9 3.18079 5.65078   8
   2  -4  -9 -6.5669 7.58316   4
  -2   4  -9 -3.8978 8.00861   3
  -4  -2  -9 2.93545 6.47565   1
   2  -4  -9 8.43776 5.81407   5
  -4  -2  -9 6.32816 4.90915   8
  -2   4  -9 -0.4659 8.30213   1
   4   2  -9 -5.8961 5.89949   2
   4   2  -9 4.49877 9.73828   9
  -4  -2  -9 4.65113 8.48322   4
  -2   4  -9 7.27578 6.18861   7
   4   2  -9 6.24486 4.78317   7
   2  -4  -9 13.8958 6.97314   2
  -4  -2  -9 4.69245 4.41494   7
   2  -4   9 16.8194 6.38815   6
   4   2   9 3.63025 5.47835   6
   4   2   9 6.48165 6.89503   3
  -2   4   9 4.21178 7.41204   4
   2  -4   9 15.9264 8.19068   2
  -4  -2   9 12.4916 4.90450   6
   4   2   9 -0.7766 5.15726   8
   2  -4   9 6.64399 7.81506   9
  -4  -2   9 -10.220 7.00996   4
  -4  -2   9 -1.8409 5.79250   5
  -4  -2   9 9.08522 6.09185   2
  -2   4   9 1.88094 8.14081   1
  -2   4   9 6.88765 4.98210   6
  -1   4  -9 214.660 19.0951   3
   4   1  -9 239.665 15.4134   2
  -4  -1  -9 209.955 16.2148   1
   1  -4  -9 223.760 16.1774   2
   4   1  -9 239.959 19.0756   9
  -4  -1  -9 203.709 13.9698   7
   1  -4  -9 203.653 16.6883   4
   1  -4  -9 212.333 15.9403   5
  -4  -1  -9 203.463 15.3145   8
   1  -4  -9 217.888 15.4290   7
  -1   4  -9 195.372 16.5192   8
  -4  -1  -9 214.799 19.4879   4
   4   1  -9 243.232 20.6538   3
   4   1  -9 225.422 14.1297   7
   1  -4   9 212.399 17.5562   2
  -4  -1   9 225.213 14.2145   6
  -1   4   9 227.007 16.1846   8
   1  -4   9 227.911 17.7463   9
   4   1   9 205.496 14.4157   6
   1  -4   9 201.483 15.5998   6
  -1   4   9 213.769 14.9019   6
  -1   4   9 222.408 16.9645   4
   4   1   9 214.349 18.1981   9
  -4  -1   9 215.238 15.3898   5
   4   1   9 230.930 16.0482   8
  -4  -1   9 215.542 16.3418   4
   4   1   9 221.296 17.6111   3
  -1   4   9 216.380 18.0631   1
   0   4  -9 -0.7068 8.61178   3
  -4   0  -9 -4.4430 3.60995   7
  -4   0  -9 -0.5473 4.08475   8
   0   4  -9 8.36198 5.45788   7
   0  -4  -9 -2.8525 5.10032   7
   4   0  -9 0.58110 4.20757   7
   0  -4  -9 10.7558 6.43091   4
   4   0  -9 6.95765 7.95089   9
   0  -4  -9 -9.7071 5.35407   5
   0   4  -9 -6.8452 6.28886   8
   4   0  -9 -1.7737 5.08831   5
  -4   0  -9 -3.9879 5.83906   1
   0  -4  -9 3.41832 5.35526   2
   0   4  -9 -4.0247 8.44081   9
  -4   0  -9 2.84338 8.74871   4
   0  -4   9 -1.4911 6.53724   2
   0   4   9 2.77294 5.16155   8
  -4   0   9 -5.2678 3.81699   6
   0   4   9 -3.4784 7.67378   1
   0  -4   9 1.41973 5.13268   6
   0  -4   9 -3.4560 7.30928   5
   4   0   9 -4.2593 8.21637   9
   0  -4   9 -7.9355 6.37744   9
  -4   0   9 0.23884 5.70552   5
   4   0   9 1.29118 5.80746   3
   4   0   9 2.74778 4.26111   6
  -4   0   9 0.18133 6.15065   4
   0   4   9 -8.9123 5.81459   6
  -1  -4  -9 221.424 14.9391   7
   4  -1  -9 235.310 19.1654   9
   1   4  -9 250.923 21.4091   3
   4  -1  -9 210.920 14.9788   7
  -4   1  -9 264.053 14.8802   7
   4  -1  -9 229.545 15.9043   5
   1   4  -9 216.890 18.9453   9
   1   4  -9 200.531 16.9713   8
  -1  -4  -9 213.066 16.1351   5
  -1  -4  -9 213.257 17.5254   1
   1   4  -9 194.852 15.0762   7
  -1  -4  -9 228.164 17.4331   4
   4  -1  -9 229.426 15.7296   2
  -4   1  -9 205.692 15.6413   8
  -4   1  -9 227.130 19.0457   4
  -4   1  -9 221.542 17.1059   1
  -1  -4   9 219.934 16.6189   2
  -4   1   9 211.868 17.0225   4
   4  -1   9 193.204 19.7896   9
   4  -1   9 209.508 14.7903   6
   4  -1   9 226.809 17.8770   3
  -1  -4   9 221.031 18.1587   9
  -1  -4   9 211.343 15.8397   5
   1   4   9 216.180 18.3254   1
  -4   1   9 219.517 15.6917   5
   1   4   9 217.155 15.6645   6
  -1  -4   9 254.923 15.7545   6
   1   4   9 234.540 16.1746   8
  -4   1   9 224.118 14.3555   6
   4  -2  -9 0.94471 5.86611   2
  -4   2  -9 2.92677 4.60795   8
   4  -2  -9 -0.8626 9.02621   9
   2   4  -9 1.93735 6.95213   8
  -2  -4  -9 4.87391 6.68161   1
   2   4  -9 -1.5668 11.3112   3
  -2  -4  -9 5.61590 4.80203   7
  -4   2  -9 -3.9247 6.39467   3
   2   4  -9 1.43344 8.40685   9
   4  -2  -9 8.36294 6.12166   5
  -2  -4  -9 4.25306 6.88046   5
  -4   2  -9 4.66695 4.57561   7
  -2  -4  -9 5.28170 6.59430   4
   2   4  -9 3.83892 5.55873   7
  -4   2  -9 10.9751 7.75163   1
   4  -2  -9 3.72258 5.83568   7
   2   4   9 18.9429 6.71909   6
   4  -2   9 1.15624 6.68440   3
  -2  -4   9 5.31939 6.76520   2
   2   4   9 7.98573 7.13618   3
  -2  -4   9 3.50923 6.51140   5
  -4   2   9 8.94037 4.58184   6
  -4   2   9 7.34556 7.96457   4
  -4   2   9 4.78148 6.05875   5
  -4   2   9 12.9699 9.32308   1
   2   4   9 1.32552 8.88009   1
   4  -2   9 3.96825 5.59930   6
   4  -2   9 0.93507 8.97427   9
   2   4   9 4.34667 5.71505   8
  -4   3  -9 71.1081 11.3214   1
  -3  -4  -9 76.3494 12.4197   7
  -3  -4  -9 63.9886 11.5998   1
   3   4  -9 71.5794 16.7375   3
  -4   3  -9 100.330 15.4451   7
  -4   3  -9 72.2031 11.0338   8
   3   4  -9 93.2397 17.2136   9
  -3  -4  -9 84.4608 10.9727   5
   4  -3  -9 70.2341 12.1820   7
   4  -3  -9 82.0243 12.5144   9
   4  -3  -9 71.1166 10.6205   5
   3   4  -9 66.3919 11.7574   7
   3   4   9 75.6192 20.0224   1
  -4   3   9 87.7057 12.5774   1
   3   4   9 76.8159 10.8629   3
   3   4   9 78.8884 13.9653   8
  -4   3   9 71.8103 13.3995   4
  -3  -4   9 71.9452 11.1175   2
  -3  -4   9 76.1061 10.4408   5
  -4   3   9 83.3621 13.3858   6
  -4  -4  -9 3.80997 7.90850   1
   4  -4  -9 -13.911 7.84164   7
   4   4  -9 6.92728 10.2978   9
   4  -4  -9 6.49964 7.91334   2
  -4   4  -9 -6.3253 8.63779   3
  -4   4  -9 0.59074 6.20182   8
   4   4  -9 -9.1845 7.27555   7
  -4  -4  -9 9.19315 6.81257   7
   4  -4  -9 1.15049 7.40739   5
  -4   4  -9 14.4047 6.90066   7
  -4  -4  -9 -3.5278 8.36249   4
   4   4  -9 -5.1325 17.9538   3
  -4   4   9 1.83852 11.5623   1
  -4   4   9 2.41088 9.32170   4
  -4  -4   9 1.71933 6.96603   2
   4  -4   9 1.49688 8.19260   6
   4   4   9 12.5536 8.92321   6
  -4  -4   9 -0.2387 8.75679   5
   4  -4   9 4.60999 8.71504   3
   4  -4   9 -3.2953 10.0727   9
  -4   4   9 -5.3694 6.10874   6
   4   4   9 11.1703 7.63930   8
  -4  -4   9 -1.0481 6.99616   6
   4  -5  -9 665.283 37.0584   2
  -5  -4  -9 598.725 35.0795   7
  -5  -4  -9 553.643 37.0202   4
   4  -5  -9 614.445 36.3594   5
  -4   5  -9 570.670 36.5045   8
   4  -5  -9 570.449 36.5162   7
   5   4  -9 563.579 35.3468   7
  -4   5  -9 562.830 38.9376   3
  -4   5  -9 544.891 35.7026   7
  -4   5  -9 473.756 41.6145   1
   5   4  -9 594.298 38.4629   9
  -5  -4  -9 566.904 36.7903   1
   5   4  -9 587.786 48.4206   3
  -5  -4   9 608.258 36.8100   5
   4  -5   9 534.567 36.3956   6
  -5  -4   9 589.418 35.4104   6
   4  -5   9 476.613 37.1955   2
  -4   5   9 631.832 35.3978   6
  -5  -4   9 547.428 35.6841   2
   4  -5   9 600.314 39.1521   9
   5   4   9 563.791 36.6728   8
   4  -5   9 561.124 38.3723   3
   5   4   9 566.492 35.9925   6
   5   4   9 601.813 38.3679   3
  -4   5   9 629.963 39.0306   1
  -4   5   9 663.668 37.8877   4
   5   3  -9 282.366 24.2677   9
  -5  -3  -9 251.215 21.2361   1
   3  -5  -9 310.509 22.0109   2
  -3   5  -9 242.834 20.5751   8
  -5  -3  -9 273.457 22.8582   4
   3  -5  -9 295.283 20.6275   7
  -3   5  -9 296.771 20.4929   7
  -5  -3  -9 252.429 18.7913   7
   5   3  -9 268.703 19.1612   7
   5   3  -9 266.199 20.6666   2
   5   3  -9 305.758 35.0472   3
   3  -5  -9 267.484 20.9072   5
  -3   5  -9 260.347 24.0668   3
   3  -5   9 259.765 21.6736   2
  -5  -3   9 280.020 20.5822   5
  -3   5   9 300.031 19.4606   6
  -3   5   9 260.855 23.6749   1
   5   3   9 276.601 19.7733   6
   5   3   9 261.646 20.3344   8
  -3   5   9 296.010 22.1008   4
   3  -5   9 262.213 21.0545   6
   3  -5   9 217.853 23.3348   3
   3  -5   9 299.436 23.3238   9
   5   3   9 278.361 23.0644   3
  -5  -3   9 296.639 19.7487   6
  -5  -3   9 251.198 19.9249   2
  -5  -2  -9 554.687 31.7794   7
   5   2  -9 541.593 32.8121   2
   2  -5  -9 550.635 34.0577   4
   2  -5  -9 524.781 33.2969   5
  -2   5  -9 512.946 35.5562   3
  -5  -2  -9 555.339 38.3171   4
   2  -5  -9 547.352 32.4441   7
   5   2  -9 612.414 36.2364   9
   2  -5  -9 557.589 33.5981   2
   5   2  -9 545.803 31.5984   7
  -5  -2  -9 510.939 33.2544   1
   5   2  -9 617.604 42.5485   3
  -2   5  -9 526.145 32.5330   7
  -2   5  -9 483.944 34.0153   8
  -2   5   9 557.852 33.9330   4
  -5  -2   9 516.241 33.0033   4
  -2   5   9 553.792 34.6102   1
  -2   5   9 565.134 32.3250   6
   5   2   9 517.915 33.0131   8
  -5  -2   9 541.480 31.8378   6
   2  -5   9 524.335 33.5115   6
   5   2   9 552.850 31.9682   6
  -5  -2   9 526.629 32.5028   2
  -5  -2   9 538.386 32.9023   5
   5   2   9 566.095 34.6224   3
   2  -5   9 539.942 34.7731   9
  -1   5  -9 374.218 24.5375   7
  -5  -1  -9 319.100 28.5783   4
   5   1  -9 388.015 23.2422   7
  -5  -1  -9 392.072 24.8358   8
   1  -5  -9 391.327 25.5121   4
   5   1  -9 397.927 24.3380   2
  -1   5  -9 324.589 27.4672   3
   1  -5  -9 387.256 25.7348   5
   1  -5  -9 368.264 25.0289   2
  -1   5  -9 344.445 27.4758   8
   5   1  -9 446.418 33.0130   9
  -5  -1  -9 375.256 23.1755   7
   1  -5  -9 407.354 24.1716   7
  -5  -1  -9 355.982 24.9925   1
  -1   5   9 400.743 25.8784   4
   5   1   9 398.278 27.0778   3
  -1   5   9 387.587 27.3269   1
   5   1   9 406.351 25.6712   8
   1  -5   9 347.506 26.1561   9
  -1   5   9 409.340 25.7478   8
  -5  -1   9 417.981 23.8471   6
   1  -5   9 391.834 26.1293   6
   1  -5   9 297.179 27.9048   2
  -1   5   9 377.119 24.7104   6
  -5  -1   9 370.714 24.3922   5
   5   1   9 413.470 24.0432   6
  -5  -1   9 350.209 25.4410   4
   0   5  -9 0.71766 7.81724   8
   0   5  -9 5.40415 10.3428   7
   0  -5  -9 7.41400 10.3003   5
   5   0  -9 3.66571 8.94322   2
   0  -5  -9 0.38005 7.48361   7
   5   0  -9 3.87308 8.09684   7
   5   0  -9 2.85526 10.2207   9
  -5   0  -9 4.98707 5.63935   7
  -5   0  -9 -7.6679 11.1963   4
  -5   0  -9 8.25782 9.88705   1
   0  -5  -9 8.31957 8.94535   4
   0   5  -9 -2.3394 12.0553   3
   0   5  -9 14.6545 15.4195   9
   0  -5   9 1.67164 12.8686   9
   5   0   9 -4.0130 11.0116   8
   0   5   9 4.40518 12.7076   1
  -5   0   9 5.11395 7.95599   4
   0   5   9 -0.7484 13.0812   6
   5   0   9 -5.1406 9.48710   9
   0   5   9 1.00876 7.43147   8
  -5   0   9 0.53363 7.76609   5
   5   0   9 5.67343 9.53220   3
   0  -5   9 8.31153 13.2945   2
   1   5  -9 367.618 24.4426   7
  -1  -5  -9 322.957 25.7184   5
   5  -1  -9 374.385 24.6351   5
   1   5  -9 415.423 28.3883   9
  -1  -5  -9 386.780 23.8683   7
  -1  -5  -9 381.468 25.1301   4
   5  -1  -9 367.540 23.6908   7
   5  -1  -9 396.494 24.0305   2
  -5   1  -9 386.561 23.7277   7
   1   5  -9 332.778 29.0354   3
   1   5  -9 343.697 26.7142   8
   5  -1  -9 394.335 28.6136   9
  -5   1  -9 364.594 26.3675   1
  -5   1  -9 372.104 24.2906   8
  -5   1   9 374.436 24.5452   5
   1   5   9 367.570 26.3771   1
   5  -1   9 374.488 26.1288   3
  -1  -5   9 412.067 27.8976   9
   5  -1   9 377.839 27.9630   9
   5  -1   9 413.436 25.7607   6
  -5   1   9 416.636 23.5874   6
  -1  -5   9 346.688 24.8155   5
  -1  -5   9 437.973 24.9829   6
   1   5   9 390.859 24.9068   6
  -1  -5   9 365.521 25.6706   2
   1   5   9 376.010 26.0364   8
   5  -2  -9 550.584 31.8380   7
  -5   2  -9 502.922 32.1938   8
   2   5  -9 453.951 33.9764   8
   2   5  -9 589.754 39.1558   3
   5  -2  -9 554.379 32.4543   2
  -2  -5  -9 536.245 33.0110   4
   5  -2  -9 562.423 32.7601   5
  -2  -5  -9 536.630 31.6263   7
  -5   2  -9 526.981 31.8510   7
  -2  -5  -9 536.279 33.6826   1
  -5   2  -9 487.246 33.9550   1
   5  -2  -9 589.777 36.5838   9
   2   5  -9 500.583 31.9318   7
  -2  -5  -9 473.836 39.9439   5
   2   5  -9 570.763 35.0357   9
   5  -2   9 517.640 32.3867   6
  -2  -5   9 502.428 32.9585   2
   2   5   9 560.940 34.5948   1
  -5   2   9 554.779 32.4419   5
   2   5   9 547.184 32.9279   6
   2   5   9 527.157 33.3818   8
   5  -2   9 580.231 38.1453   9
  -2  -5   9 554.724 32.6137   6
  -5   2   9 585.436 33.7339   4
  -5   2   9 510.807 31.3023   6
   5  -2   9 509.658 34.5518   3
  -5   2   9 559.144 39.7848   1
  -2  -5   9 536.553 32.9924   5
  -2  -5   9 532.253 34.2682   9
  -5   3  -9 240.346 22.7420   1
  -3  -5  -9 275.070 22.3325   1
   5  -3  -9 291.045 19.8732   7
   3   5  -9 270.004 29.4577   3
  -5   3  -9 252.612 19.5503   8
   3   5  -9 271.740 23.1635   9
  -3  -5  -9 276.542 19.2618   7
   5  -3  -9 279.929 26.3625   9
   3   5  -9 234.991 19.5848   7
   5  -3  -9 265.184 20.1167   5
   5  -3  -9 253.467 19.7834   2
  -5   3  -9 270.142 19.1649   7
  -3  -5  -9 264.304 20.4418   4
  -3  -5  -9 287.693 23.2048   5
  -5   3   9 282.103 18.6445   6
   3   5   9 274.038 20.2139   6
  -5   3   9 274.288 20.0965   5
   5  -3   9 258.661 20.8403   6
  -5   3   9 232.930 22.1361   4
  -3  -5   9 250.372 20.7406   2
   5  -3   9 259.299 26.1295   9
   3   5   9 288.047 21.2608   8
  -3  -5   9 272.684 21.3419   5
   3   5   9 281.084 22.8283   1
   5  -3   9 249.116 23.3279   3
   4   5  -9 549.476 35.5736   7
   5  -4  -9 592.910 36.4044   5
  -5   4  -9 569.869 39.3558   1
   4   5  -9 609.738 38.3216   9
  -4  -5  -9 584.474 36.6754   4
   5  -4  -9 646.725 37.1984   7
  -5   4  -9 589.091 36.1773   7
  -5   4  -9 562.103 36.3318   8
   5  -4  -9 621.803 36.5531   2
  -4  -5  -9 572.453 37.3863   1
  -4  -5  -9 568.543 39.0004   5
   4   5  -9 563.806 45.0799   3
  -4  -5  -9 602.214 35.2895   7
  -5   4   9 629.768 40.0385   1
   4   5   9 597.109 38.4151   1
   4   5   9 587.692 39.5356   3
  -4  -5   9 613.927 36.5814   6
  -4  -5   9 585.336 37.5711   5
   4   5   9 529.038 36.9106   8
  -4  -5   9 588.343 36.8337   2
  -5   4   9 607.461 35.3953   6
   5  -4   9 506.230 40.7916   9
   4   5   9 579.094 36.2918   6
  -5   4   9 695.631 39.5246   4
   5  -4   9 577.654 37.1009   6
   5  -4   9 565.574 39.7130   3
   5   5  -9 76.7108 16.0358   9
  -5   5  -9 49.1163 11.7151   8
  -5  -5  -9 82.9107 14.7137   7
   5   5  -9 53.9233 13.1064   7
  -5  -5  -9 88.2163 14.0435   1
   5  -5  -9 45.5030 14.3890   7
  -5   5  -9 43.7182 14.6390   3
   5  -5  -9 50.1576 12.1916   2
  -5   5  -9 71.2979 11.7531   7
   5  -5  -9 58.1114 13.0843   5
   5   5  -9 48.5411 25.0190   3
  -5  -5  -9 65.8763 12.8362   4
  -5   5  -9 3.04291 17.5135   1
  -5   5   9 69.9364 16.5822   4
   5   5   9 57.2094 12.4234   8
  -5  -5   9 43.0213 12.6925   2
   5  -5   9 58.5151 15.8595   3
   5   5   9 93.4870 17.4231   1
  -5   5   9 64.7924 12.5778   6
   5  -5   9 88.5424 14.5265   6
   5   5   9 35.2817 16.8010   3
   5   5   9 88.3929 15.4117   6
  -5  -5   9 64.6056 13.3278   5
   5  -5   9 42.9401 13.7077   9
  -5  -5   9 63.6957 13.2883   6
  -5   5   9 49.2023 17.2390   1
  -6  -4  -9 15.3672 12.4142   4
  -4   6  -9 8.61133 10.3283   7
  -6  -4  -9 5.89920 11.0734   1
   4  -6  -9 11.8441 12.6641   2
   6   4  -9 35.7822 29.3051   3
   6   4  -9 -3.9588 14.3031   9
   4  -6  -9 17.7867 11.7103   5
   6   4  -9 -18.311 11.8112   7
  -6  -4  -9 7.61822 9.88474   7
  -4   6  -9 5.70884 10.3009   8
   4  -6   9 -4.5137 12.0130   9
  -6  -4   9 10.0753 10.6696   6
  -4   6   9 -1.1437 9.91046   6
   6   4   9 -22.429 13.5513   6
   6   4   9 8.90847 14.3725   3
  -6  -4   9 -0.6942 10.0295   2
  -4   6   9 -15.986 12.7772   4
  -4   6   9 15.8577 15.3635   1
   4  -6   9 11.2098 12.2372   6
   4  -6   9 3.24784 12.6706   3
  -6  -4   9 11.6047 11.3907   5
   4  -6   9 16.3439 11.4355   2
   6   4   9 -6.3182 9.98792   8
   6   3  -9 25.0873 26.0734   3
   6   3  -9 16.5639 14.4210   9
  -3   6  -9 3.81527 8.99041   7
  -3   6  -9 5.91818 9.31970   8
   3  -6  -9 11.4863 11.5038   2
   3  -6  -9 10.6386 9.20928   7
  -6  -3  -9 17.2298 10.4388   1
  -3   6  -9 -0.4681 12.8669   3
   6   3  -9 14.9203 8.80358   7
   3  -6  -9 8.29514 11.0807   5
  -6  -3  -9 -0.5120 7.47510   7
   6   3  -9 12.9403 10.5265   2
  -6  -3  -9 22.3968 12.9537   4
  -3   6   9 19.4905 9.24099   6
  -6  -3   9 11.1780 8.85517   6
  -6  -3   9 18.6636 10.4254   5
  -3   6   9 5.47508 11.8491   4
  -6  -3   9 16.9617 9.66296   2
   3  -6   9 13.9901 10.5809   6
   6   3   9 33.3909 9.08037   8
   3  -6   9 22.0963 10.2782   9
   3  -6   9 11.8986 10.2550   2
   6   3   9 20.3209 12.5383   3
   6   3   9 10.8299 10.6939   6
   3  -6   9 11.8994 11.4941   3
  -3   6   9 34.8405 13.1448   1
   6   2  -9 -3.3341 9.61897   2
  -2   6  -9 23.1686 9.63408   8
   2  -6  -9 18.1446 7.78378   7
  -6  -2  -9 17.8061 6.92817   7
   2  -6  -9 19.8184 9.55042   4
   6   2  -9 5.01897 8.42716   7
  -6  -2  -9 9.93478 9.07202   1
   6   2  -9 25.6816 15.4384   9
   2  -6  -9 9.88585 11.2268   2
  -2   6  -9 16.8434 8.72413   7
  -2   6  -9 18.0721 12.8628   3
  -6  -2  -9 4.40694 13.5777   4
   2  -6  -9 2.01194 9.38594   5
  -6  -2   9 28.5150 8.93871   2
  -2   6   9 9.27002 10.8724   4
   6   2   9 15.6250 7.91543   8
   2  -6   9 22.4581 8.89057   9
   2  -6   9 12.2018 9.58194   2
  -2   6   9 33.4215 9.01515   6
  -2   6   9 36.2730 12.1177   1
   6   2   9 32.4022 9.34341   6
   2  -6   9 17.8636 9.90832   6
  -6  -2   9 12.0689 8.92312   5
   6   2   9 16.9925 11.2760   3
  -6  -2   9 17.4352 7.80601   6
  -6  -2   9 5.82046 10.1671   4
   6   1  -9 493.840 28.5851   2
   1  -6  -9 474.784 29.4069   4
  -1   6  -9 417.645 28.1415   7
   1  -6  -9 422.596 29.9580   5
  -6  -1  -9 425.474 29.7349   1
  -6  -1  -9 420.645 28.3051   8
  -1   6  -9 419.383 31.2198   8
   6   1  -9 513.019 33.3298   9
   6   1  -9 446.943 27.5807   7
   1  -6  -9 438.049 28.1632   7
  -6  -1  -9 410.857 34.6339   4
   1  -6  -9 370.612 36.9753   2
  -6  -1  -9 428.506 27.4347   7
  -1   6  -9 479.559 33.5191   3
   1  -6   9 478.057 30.4691   9
   6   1   9 401.755 28.8542   8
  -6  -1   9 455.587 28.7547   5
  -1   6   9 465.551 31.5413   1
  -1   6   9 486.917 30.2483   4
  -1   6   9 447.605 31.3402   8
   6   1   9 459.867 27.7747   6
  -6  -1   9 476.842 27.8729   6
  -6  -1   9 476.430 30.0438   4
  -1   6   9 460.964 29.2155   6
   6   1   9 432.699 31.4974   3
   1  -6   9 420.347 29.7509   2
   1  -6   9 456.804 29.0532   6
   0  -6  -9 -15.288 7.60116   4
  -6   0  -9 0.54893 8.06380   1
  -6   0  -9 -5.9754 19.8463   4
   0  -6  -9 11.8700 9.26622   5
  -6   0  -9 1.47548 5.67784   7
   0  -6  -9 6.95685 7.22214   7
   0   6  -9 -1.7584 11.7725   3
   6   0  -9 -8.4045 8.18112   2
  -6   0  -9 2.26753 5.78057   8
   6   0  -9 -4.8529 7.17995   7
   0   6  -9 7.98811 10.2621   8
   6   0  -9 -10.685 13.4202   9
   6   0   9 0.24528 6.99222   8
   0  -6   9 19.5819 7.82340   6
  -6   0   9 -10.285 10.3917   4
   0   6   9 9.71681 10.7937   8
   6   0   9 -1.8816 7.72399   6
   0   6   9 2.27561 9.29889   6
  -6   0   9 14.2715 8.09832   5
   0  -6   9 0.41617 9.80214   2
   0  -6   9 14.1577 9.19739   9
  -6   0   9 13.8205 6.86533   6
   6   0   9 -12.802 9.04705   3
   0   6   9 -11.757 11.9598   1
  -1  -6  -9 431.825 28.8849   7
   6  -1  -9 458.739 28.4039   7
   1   6  -9 405.145 28.4761   7
   6  -1  -9 496.178 34.2882   9
  -1  -6  -9 456.616 29.3426   4
  -6   1  -9 438.753 29.4369   1
   6  -1  -9 513.271 28.7179   2
  -6   1  -9 454.355 28.4493   8
  -1  -6  -9 411.905 30.7988   5
   1   6  -9 413.394 31.6014   8
   1   6  -9 474.061 31.9722   9
  -6   1  -9 428.093 27.8927   7
   1   6  -9 504.278 35.2698   3
  -1  -6   9 449.030 28.4645   6
   6  -1   9 439.977 28.3833   6
   1   6   9 451.517 30.1894   6
  -6   1   9 467.485 29.2942   5
   6  -1   9 425.210 32.5864   9
   1   6   9 432.990 30.4546   8
   1   6   9 455.825 31.8277   1
  -6   1   9 449.828 30.6991   4
   6  -1   9 436.077 31.7625   3
  -6   1   9 430.352 27.9561   6
  -1  -6   9 437.397 30.1154   9
  -1  -6   9 428.506 30.0935   2
  -6   2  -9 9.16832 7.04178   8
   6  -2  -9 -2.3483 14.9569   9
  -6   2  -9 9.68907 7.14424   7
   2   6  -9 5.43763 12.3977   9
   6  -2  -9 9.65758 8.83029   2
   6  -2  -9 4.70260 9.63006   5
   2   6  -9 6.11893 13.8660   8
  -2  -6  -9 26.5076 9.12072   4
  -6   2  -9 26.5878 11.1409   1
   2   6  -9 4.99788 15.9368   3
   2   6  -9 34.8559 9.85786   7
  -2  -6  -9 11.7176 7.90845   7
   6  -2  -9 9.40530 8.86721   7
  -2  -6  -9 14.8565 11.5048   5
  -6   2   9 20.2684 8.07185   6
   2   6   9 31.6990 10.9546   8
  -6   2   9 19.9131 12.1981   4
   2   6   9 17.4165 11.4042   6
  -2  -6   9 29.1524 11.7824   5
  -2  -6   9 24.3494 8.22624   6
   6  -2   9 8.66540 11.0250   3
   6  -2   9 8.52797 8.83279   6
   6  -2   9 -4.0642 12.3976   9
  -6   2   9 2.86560 9.23495   5
  -2  -6   9 17.3589 9.87868   9
  -2  -6   9 12.0884 9.70259   2
   2   6   9 11.7907 13.3213   1
  -3  -6  -9 16.9985 9.43664   4
   6  -3  -9 2.76345 9.09716   2
  -3  -6  -9 32.7239 13.8710   5
   6  -3  -9 33.7210 17.1015   9
  -6   3  -9 17.5242 7.93961   8
  -6   3  -9 6.57377 11.7096   1
   3   6  -9 9.38680 10.3913   7
   6  -3  -9 22.9506 10.4538   7
  -6   3  -9 12.1524 8.51216   7
   6  -3  -9 2.51576 10.5502   5
   3   6  -9 11.6356 17.6928   3
   3   6  -9 10.1903 13.5254   9
  -3  -6  -9 14.7122 8.49158   7
  -3  -6   9 11.7556 9.83729   6
   6  -3   9 29.2169 14.5463   9
  -6   3   9 2.00572 12.2748   4
  -3  -6   9 27.0050 12.3466   9
  -3  -6   9 13.0757 10.6726   2
  -6   3   9 27.4229 10.2313   5
  -6   3   9 12.6865 8.67681   6
   6  -3   9 6.99095 11.9317   6
  -3  -6   9 13.1746 11.8313   5
   3   6   9 7.15850 11.9432   8
   6  -3   9 13.7693 11.3652   3
   3   6   9 35.8676 15.0742   1
   3   6   9 10.0548 13.2248   6
  -4  -6  -9 3.48839 12.9618   1
  -6   4  -9 4.82001 9.66066   7
   6  -4  -9 16.3824 10.3519   2
  -4  -6  -9 -13.124 15.9954   5
  -4  -6  -9 19.9618 10.1951   4
   6  -4  -9 5.14297 12.0233   5
  -6   4  -9 11.6319 14.4695   1
   6  -4  -9 10.7180 11.6090   7
   4   6  -9 25.6115 21.9626   3
  -4  -6  -9 6.37635 9.83815   7
   4   6  -9 9.38387 15.4973   9
   4   6  -9 -11.448 11.4326   7
  -6   4  -9 -9.1871 8.90740   8
   6  -4   9 23.0326 13.6187   6
  -6   4   9 9.01672 19.7976   1
  -6   4   9 -5.2199 13.9488   4
  -4  -6   9 8.30934 13.1756   5
  -4  -6   9 8.76219 11.5612   2
   4   6   9 14.5152 15.3395   6
   4   6   9 12.0199 12.2646   8
  -6   4   9 14.1713 9.80433   6
   6  -4   9 4.62171 14.8280   9
   6  -4   9 22.4496 13.8590   3
   4   6   9 -16.841 16.8794   1
  -6   4   9 -4.4685 10.5999   5
   2  -7  -9 270.953 22.1371   7
   7   2  -9 252.893 23.8500   2
   2  -7  -9 259.639 22.8019   4
  -2   7  -9 225.974 23.3192   8
  -2   7  -9 248.006 27.3878   3
  -7  -2  -9 242.280 20.9836   7
   7   2  -9 237.226 22.4026   7
   2  -7  -9 221.585 22.6725   5
  -7  -2  -9 245.577 30.8171   4
  -2   7  -9 230.161 20.9148   7
   2  -7  -9 233.414 27.8047   2
   7   2  -9 292.277 29.4731   9
  -7  -2  -9 254.598 23.2860   1
   2  -7   9 245.059 23.1444   9
  -2   7   9 283.182 24.1256   4
  -7  -2   9 259.339 21.2597   6
  -7  -2   9 320.550 24.5531   4
   2  -7   9 259.664 23.4111   6
   7   2   9 247.254 22.2616   6
  -2   7   9 289.166 26.7927   1
  -7  -2   9 286.119 22.4309   5
   7   2   9 196.158 21.7212   8
   7   2   9 231.649 26.3101   3
  -2   7   9 271.197 21.5974   6
   2  -7   9 209.409 22.7358   2
  -7  -2   9 234.368 22.1854   2
  -1   7  -9 257.280 27.5562   3
  -1   7  -9 260.247 21.7427   7
   7   1  -9 327.675 29.6962   9
  -1   7  -9 247.509 26.2883   8
  -7  -1  -9 249.847 23.9901   1
   7   1  -9 301.985 22.9767   2
   7   1  -9 294.754 21.3372   7
  -7  -1  -9 232.277 21.0729   7
  -7  -1  -9 240.568 32.3845   4
   1  -7  -9 275.113 21.3894   7
   1  -7  -9 298.895 23.3141   4
   1  -7  -9 235.264 23.9788   5
  -7  -1   9 294.738 21.7771   6
   1  -7   9 262.487 23.9676   9
  -1   7   9 318.345 24.2852   4
  -7  -1   9 279.467 22.6601   5
  -1   7   9 296.027 26.1720   8
  -7  -1   9 296.674 24.8888   4
   1  -7   9 306.092 23.0890   6
   7   1   9 271.963 22.2536   6
  -1   7   9 344.977 27.8288   1
   7   1   9 279.659 27.3898   3
   7   1   9 219.013 21.8241   8
  -1   7   9 292.871 22.4394   6
   1  -7   9 269.274 23.1275   2
  -7   0  -9 0.32573 7.75708   8
  -7   0  -9 3.90330 19.0895   4
   7   0  -9 0.49322 10.1303   7
   0  -7  -9 10.5534 11.2303   5
   0  -7  -9 7.25434 9.78029   4
   7   0  -9 -11.104 17.1814   9
   0   7  -9 13.8416 15.3751   3
   0   7  -9 0.09067 12.2169   8
   0  -7  -9 6.19155 8.45359   7
  -7   0  -9 -2.8966 8.11523   7
   0   7  -9 -2.2983 9.93916   7
   7   0  -9 -10.239 9.84689   2
  -7   0  -9 5.62948 9.75350   1
   0  -7   9 -5.0760 9.95268   9
   7   0   9 12.4429 12.5691   3
   7   0   9 -0.1662 8.91021   8
   0  -7   9 13.6996 9.64660   6
   7   0   9 -6.5789 10.6660   6
  -7   0   9 5.69084 10.5769   5
   0   7   9 -6.2518 15.3168   1
   0  -7   9 -10.081 10.2442   2
   0   7   9 -0.1541 12.7219   4
  -7   0   9 16.7462 13.0416   4
  -7   0   9 13.3036 8.86866   6
   0   7   9 -0.3055 11.4852   6
   0   7   9 -14.456 14.6509   8
   7  -1  -9 247.698 22.7952   7
   1   7  -9 271.266 29.3838   3
  -7   1  -9 268.199 21.6107   7
   1   7  -9 245.165 27.8401   8
  -1  -7  -9 318.618 23.0621   4
   7  -1  -9 334.369 31.9308   9
   7  -1  -9 322.208 22.0021   2
  -1  -7  -9 252.894 25.3412   5
  -7   1  -9 260.946 21.0984   8
  -1  -7  -9 288.281 22.4995   7
  -7   1  -9 276.610 23.1196   1
  -7   1   9 239.872 26.2465   4
   7  -1   9 288.817 28.6275   9
  -7   1   9 255.577 21.3364   6
  -1  -7   9 255.112 23.7512   2
  -1  -7   9 292.889 22.4670   6
  -7   1   9 305.776 23.5287   5
   7  -1   9 252.480 27.4704   3
   1   7   9 301.982 28.8015   1
   7  -1   9 235.657 22.3017   8
   1   7   9 294.584 25.0080   6
   1   7   9 295.629 26.5027   8
   7  -1   9 283.464 22.6745   6
  -1  -7   9 292.183 24.5284   9
  -2  -7  -9 279.226 26.6310   5
  -7   2  -9 266.453 21.5360   8
  -7   2  -9 281.294 21.5622   7
   7  -2  -9 276.916 32.8270   9
   2   7  -9 198.350 23.1319   7
  -2  -7  -9 265.012 22.6387   4
   7  -2  -9 257.871 23.4716   7
  -7   2  -9 273.862 24.3874   1
   7  -2  -9 269.818 21.2823   2
   2   7  -9 277.332 30.5132   3
  -2  -7  -9 259.205 23.1981   7
   2   7   9 231.419 28.2926   1
   7  -2   9 238.073 27.3393   3
   7  -2   9 260.923 29.2367   9
  -2  -7   9 245.347 24.1602   2
  -2  -7   9 244.615 24.2458   9
  -7   2   9 298.595 27.5922   4
  -7   2   9 269.324 21.5476   6
   2   7   9 222.957 26.3422   8
   7  -2   9 235.272 24.1264   6
  -2  -7   9 247.183 21.9678   6
  -7   2   9 254.356 22.7571   5
   2   7   9 257.932 25.8762   6
   0   0 -10 8.98520 7.82503   9
   0   0 -10 5.11554 3.60050   8
   0   0 -10 6.67331 5.91794   1
   0   0 -10 -2.5840 5.41245   4
   0   0 -10 10.4670 5.27379   3
   0   0 -10 -4.2518 3.66183   2
   0   0 -10 0.78811 3.58126   5
   0   0  10 10.9207 4.96317   2
   0   0  10 -0.6822 3.98682   5
   0   0  10 7.07069 4.12244   8
   0   0  10 2.03240 4.87156   4
   0   0  10 22.9613 9.36956   9
   0   0  10 6.96377 4.82157   3
   0   1 -10 763.548 42.4621   3
   0  -1 -10 689.369 40.3072   2
   0  -1 -10 671.627 42.2978   9
   0  -1 -10 770.128 41.9418   1
   0  -1 -10 755.965 41.2270   8
  -1   0 -10 768.719 41.8194   4
   1   0 -10 743.849 41.0906   5
  -1   0 -10 734.689 41.5186   8
   1   0 -10 716.272 40.6440   2
   1   0 -10 767.899 42.3336   1
   0   1 -10 727.783 40.8072   2
  -1   0 -10 761.011 41.9506   3
   0   1 -10 762.895 43.8171   9
   0  -1 -10 794.607 41.4475   3
   1   0 -10 713.677 42.7483   9
   0  -1 -10 766.389 42.4363   4
   0  -1 -10 771.060 41.0606   5
   1   0 -10 754.878 41.6722   4
   1   0 -10 736.414 40.7042   8
  -1   0 -10 785.849 41.8793   1
   1   0 -10 755.779 41.6665   3
   0   1 -10 734.415 41.3521   8
  -1   0  10 687.188 41.1454   4
   0  -1  10 751.464 43.9917   9
   0  -1  10 753.875 41.0103   2
   0   1  10 704.585 41.6091   1
  -1   0  10 660.148 41.4209   1
   1   0  10 735.788 41.8304   3
   0  -1  10 692.500 40.6917   5
  -1   0  10 717.660 40.6845   8
  -1   0  10 748.574 41.0674   5
   0   1  10 778.913 43.4604   9
   1   0  10 764.714 43.6042   9
   0   1  10 769.877 41.3754   3
   0   1  10 771.829 41.2977   8
   1   0  10 633.018 40.6262   2
   1  -1 -10 49.7163 6.30404   5
  -1  -1 -10 63.5004 9.88961   1
   1   1 -10 37.2263 5.94268   2
  -1  -1 -10 37.1005 6.63718   8
  -1   1 -10 39.4220 7.03730   1
  -1  -1 -10 44.5025 6.86140   2
  -1   1 -10 57.2512 9.01462   4
   1   1 -10 36.4413 6.29960   8
   1   1 -10 50.1099 9.35587   9
   1  -1 -10 55.1276 7.85477   4
  -1   1 -10 41.7025 10.2430   9
   1  -1 -10 40.9169 5.46566   2
  -1  -1 -10 54.8299 8.73171   4
   1  -1 -10 58.4162 9.83831   9
  -1   1 -10 49.5724 7.11052   8
  -1   1 -10 48.2506 7.63749   3
   1   1 -10 61.7589 9.98742   3
   1  -1 -10 51.2812 8.87772   1
  -1  -1 -10 44.9524 6.67828   5
  -1   1  10 42.4167 6.50042   4
   1  -1  10 38.8685 9.86844   9
   1  -1  10 40.1438 6.51825   2
   1   1  10 43.4239 10.3270   9
  -1  -1  10 45.6322 6.50225   2
  -1   1  10 31.8590 7.20669   1
  -1   1  10 31.6149 7.88414   3
   1  -1  10 37.8445 7.15065   3
   1   1  10 40.7994 6.34840   3
  -1  -1  10 48.8101 6.31165   4
   1   1  10 41.4947 6.26571   8
  -1   1  10 33.4749 6.01914   8
  -1  -1  10 49.0892 7.10588   5
   1   1  10 41.9043 5.64884   2
  -1   2 -10 666.867 39.4390   9
  -1   2 -10 648.986 37.7900   3
  -1   2 -10 635.284 36.4619   1
   2   1 -10 668.742 37.6204   3
   1  -2 -10 616.445 35.4183   2
   2   1 -10 667.279 38.3412   9
  -2  -1 -10 591.582 36.6526   1
  -1   2 -10 596.765 36.6010   8
  -2  -1 -10 606.662 36.3222   8
   1  -2 -10 649.613 36.1139   5
  -2  -1 -10 652.738 37.8287   4
   2   1 -10 651.437 35.9024   2
   1  -2 -10 639.923 37.3731   4
  -2  -1  10 591.302 35.9244   4
   2   1  10 673.448 36.8426   3
  -1   2  10 624.126 36.7675   4
  -1   2  10 603.785 36.9373   1
  -1   2  10 638.266 35.6514   8
   2   1  10 642.075 36.5827   8
  -2  -1  10 645.766 36.1353   5
  -2  -1  10 661.489 36.1405   2
   1  -2  10 642.459 38.8778   9
   1  -2  10 604.879 36.2575   2
   2   1  10 635.610 37.2515   9
   0   2 -10 88.0544 11.9425   3
   2   0 -10 91.0633 8.94282   5
   2   0 -10 88.5681 8.70647   2
   0  -2 -10 87.7923 12.1797   1
  -2   0 -10 81.9908 10.9929   1
   0  -2 -10 96.0419 7.99732   2
   2   0 -10 103.541 12.7170   9
   0   2 -10 84.0210 9.54710   8
   0   2 -10 101.045 15.0027   9
  -2   0 -10 95.1412 10.4295   3
   2   0 -10 91.3736 10.5580   3
  -2   0 -10 82.4913 12.5150   4
  -2   0 -10 87.9870 9.23589   8
   0  -2 -10 95.9968 9.05122   5
   0  -2 -10 95.8788 11.9618   4
  -2   0  10 87.6778 10.0550   4
   2   0  10 79.1874 13.6284   9
   0  -2  10 94.4006 9.99167   2
   0  -2  10 94.9573 8.93115   5
   0  -2  10 82.2635 14.0575   9
   0   2  10 106.524 9.40129   3
   0   2  10 104.644 11.7872   1
  -2   0  10 87.0448 9.20471   5
   2   0  10 97.6034 10.8081   3
   0   2  10 93.6519 9.11569   8
   2  -1 -10 657.780 35.9586   2
   2  -1 -10 663.335 36.4301   5
  -1  -2 -10 654.331 37.9712   4
  -2   1 -10 664.681 37.5462   3
   1   2 -10 607.136 36.1412   8
   2  -1 -10 621.325 37.6390   9
  -2   1 -10 592.911 36.5881   8
  -2   1 -10 592.301 36.6377   4
  -2   1 -10 614.019 36.7759   1
   1   2 -10 635.091 36.1290   2
  -1  -2 -10 640.067 37.0841   1
   1   2 -10 669.330 38.8940   9
   1   2 -10 688.518 38.6454   3
  -1  -2 -10 647.436 36.1631   5
   2  -1 -10 675.415 37.4259   4
   1   2  10 667.628 36.3957   3
  -2   1  10 620.553 36.5162   4
   1   2  10 656.368 36.5625   8
   2  -1  10 617.879 37.4913   3
   2  -1  10 652.520 39.1837   9
  -1  -2  10 657.378 36.3295   2
  -1  -2  10 647.477 36.1999   5
  -2   1  10 629.122 36.2703   5
  -2   1  10 612.015 37.4798   1
   2  -1  10 593.706 36.9550   2
   1   2  10 647.958 37.0475   1
  -2   2 -10 1.23841 6.14734   3
   2  -2 -10 3.60076 6.72963   4
  -2  -2 -10 5.98258 5.99461   1
   2  -2 -10 6.94565 6.88986   9
   2  -2 -10 0.59202 4.77567   5
  -2  -2 -10 2.75173 7.60376   4
  -2   2 -10 4.20531 6.63545   1
   2   2 -10 -5.8280 8.44805   3
   2   2 -10 0.59862 5.24067   2
   2   2 -10 -10.376 8.49989   9
  -2   2 -10 4.19401 4.92694   8
   2  -2 -10 4.08334 4.90854   2
  -2  -2 -10 0.79072 4.80032   5
  -2   2  10 -3.3266 6.14500   4
  -2   2  10 5.83110 8.37862   1
   2   2  10 -2.2267 4.51786   8
   2   2  10 3.21652 5.76562   3
  -2  -2  10 -2.6644 5.49710   2
   2  -2  10 12.1940 8.64298   9
   2  -2  10 2.52604 6.33463   3
   2  -2  10 -13.121 7.44076   2
  -2  -2  10 -2.8163 5.64335   5
  -2   3 -10 827.308 49.3333   3
  -2   3 -10 777.997 48.0930   8
   2  -3 -10 858.041 47.4042   2
  -3  -2 -10 824.948 47.7266   8
  -3  -2 -10 881.521 46.2946   7
   3   2 -10 897.556 49.5503   9
  -3  -2 -10 804.202 47.9761   1
   3   2 -10 967.338 50.6555   3
   2  -3 -10 866.991 47.5354   5
  -2   3 -10 863.719 47.3764   7
   2  -3 -10 845.733 48.7486   4
  -2   3 -10 786.605 48.0148   1
   3   2 -10 820.996 46.0026   7
  -3  -2 -10 821.438 49.2186   4
   3   2 -10 856.745 47.4104   2
  -3  -2  10 817.674 47.4890   5
  -3  -2  10 822.836 47.2652   2
   3   2  10 843.254 47.9266   8
   3   2  10 855.533 48.1817   3
   2  -3  10 818.023 46.7406   6
  -2   3  10 858.550 48.8391   1
   2  -3  10 798.095 48.2394   2
   2  -3  10 848.184 49.9476   9
  -2   3  10 853.576 48.2133   4
   3   1 -10 251.743 17.3468   2
   1  -3 -10 252.560 17.0727   2
   3   1 -10 258.496 20.8161   3
   1  -3 -10 262.040 17.5463   5
  -3  -1 -10 246.681 17.3987   8
  -1   3 -10 233.381 18.1314   8
  -1   3 -10 294.394 20.7833   3
   1  -3 -10 239.364 19.0381   4
   3   1 -10 269.682 20.3726   9
  -3  -1 -10 231.257 18.2698   1
  -3  -1 -10 263.919 20.9059   4
   1  -3  10 251.751 18.5860   2
  -3  -1  10 265.253 17.9765   2
  -1   3  10 242.178 19.4513   1
   3   1  10 264.034 18.4053   3
  -1   3  10 271.465 18.5794   4
  -1   3  10 262.620 17.0586   8
   1  -3  10 265.907 20.4405   9
  -3  -1  10 250.620 17.2010   5
   3   1  10 274.056 18.0749   8
  -3  -1  10 250.916 17.5185   4
   0  -3 -10 1425.94 77.6199   1
   0  -3 -10 1326.43 77.6936   4
   0   3 -10 1472.86 79.0264   9
   0  -3 -10 1338.96 75.6639   2
  -3   0 -10 1390.90 77.1958   8
   3   0 -10 1429.11 76.5048   2
   3   0 -10 1414.78 76.9285   5
   0   3 -10 1508.15 78.9179   3
  -3   0 -10 1251.22 76.7738   1
   3   0 -10 1449.55 78.4280   9
  -3   0 -10 1497.13 77.7787   4
   0   3 -10 1306.09 77.1565   8
   0  -3 -10 1455.14 76.7689   5
   0   3  10 1439.91 76.7788   8
   0  -3  10 1394.72 76.8498   2
  -3   0  10 1396.64 76.7653   5
  -3   0  10 1335.66 76.7178   4
   3   0  10 1422.99 78.1601   9
   0  -3  10 1428.61 78.6276   9
   3   0  10 1475.00 77.9219   3
   0   3  10 1386.27 77.2779   1
  -3   1 -10 269.883 19.2988   3
   3  -1 -10 263.433 17.5377   5
  -3   1 -10 236.098 18.8616   1
   3  -1 -10 268.494 17.4515   2
  -1  -3 -10 268.738 19.3160   1
   1   3 -10 231.115 17.7288   8
  -3   1 -10 241.558 17.5493   8
   3  -1 -10 260.152 20.0338   9
  -1  -3 -10 265.599 17.6714   5
  -1  -3 -10 251.051 19.5852   4
   1   3 -10 261.269 20.8977   9
   1   3 -10 272.824 21.8816   3
  -1  -3  10 262.617 17.2100   5
  -1  -3  10 250.423 20.7368   9
  -3   1  10 247.423 18.0086   4
  -3   1  10 265.616 20.3052   1
  -3   1  10 256.646 17.3787   5
   1   3  10 265.937 17.6033   8
   3  -1  10 292.664 21.8994   9
   1   3  10 263.236 19.5127   1
  -1  -3  10 260.613 17.9526   2
   3  -1  10 265.725 19.5059   3
  -2  -3 -10 868.512 45.9565   7
   2   3 -10 872.781 49.1835   9
   3  -2 -10 871.355 47.3343   5
   2   3 -10 927.658 50.7077   3
   3  -2 -10 799.108 48.3206   9
  -3   2 -10 854.704 46.6601   7
  -3   2 -10 764.192 47.7766   1
  -2  -3 -10 804.733 47.6411   1
   2   3 -10 830.029 45.8323   7
  -3   2 -10 792.227 47.5546   8
  -2  -3 -10 828.736 48.6171   4
  -3   2 -10 828.716 48.6067   3
  -2  -3 -10 852.894 47.1284   5
   3  -2 -10 902.834 47.3454   2
   3  -2  10 843.996 50.3231   9
  -2  -3  10 814.507 47.2044   2
   3  -2  10 812.656 46.1532   6
   2   3  10 845.545 48.0185   1
  -2  -3  10 793.054 47.0397   5
  -3   2  10 828.366 48.5017   1
   2   3  10 831.374 47.5711   8
  -3   2  10 834.434 47.6113   4
   3  -2  10 793.957 48.8070   3
   2   3  10 894.564 47.9168   3
  -3   3 -10 878.911 47.3609   7
   3   3 -10 827.461 50.1276   9
  -3  -3 -10 702.127 51.9861   4
  -3   3 -10 747.733 49.1665   8
  -3   3 -10 730.440 46.8959   1
  -3   3 -10 871.943 48.6731   3
  -3  -3 -10 811.923 47.0913   5
   3   3 -10 948.727 51.1121   3
   3   3 -10 826.892 46.7347   2
  -3  -3 -10 738.867 47.4324   1
   3  -3 -10 809.435 46.6478   5
   3  -3 -10 792.252 48.5339   7
   3   3 -10 829.682 46.8328   7
  -3  -3 -10 806.467 45.6721   7
   3  -3 -10 814.982 46.1307   2
   3  -3  10 760.038 49.2538   3
  -3  -3  10 797.075 45.9952   5
   3   3  10 775.553 47.5030   8
  -3   3  10 826.024 47.5994   1
  -3   3  10 725.686 49.1403   4
   3   3  10 887.957 46.9289   3
  -3  -3  10 859.314 46.5108   2
  -3  -3  10 821.097 46.1060   6
   3  -3  10 740.274 45.8313   6
  -3   4 -10 310.299 27.0180   1
  -3   4 -10 345.495 26.5380   3
  -4  -3 -10 314.037 23.3037   1
  -3   4 -10 339.355 22.7803   7
   4   3 -10 332.416 21.1384   7
   3  -4 -10 351.210 23.0232   5
   3  -4 -10 330.445 22.8507   7
   4   3 -10 342.018 23.3451   2
   4   3 -10 411.112 26.6481   9
  -3   4 -10 314.914 23.3942   8
  -4  -3 -10 316.880 25.4193   4
   4   3 -10 308.355 36.5559   3
  -4  -3 -10 344.308 21.5169   7
   3  -4 -10 356.919 23.6651   2
  -3   4  10 353.897 21.2823   6
   3  -4  10 312.929 22.6991   6
  -4  -3  10 333.521 22.8181   2
  -4  -3  10 340.709 21.6698   6
   3  -4  10 317.800 26.7825   9
   4   3  10 364.882 25.2158   3
   4   3  10 320.076 22.1259   6
  -4  -3  10 346.746 22.9669   5
  -3   4  10 370.204 25.4680   1
   4   3  10 302.753 23.0757   8
   3  -4  10 303.060 25.9133   3
   3  -4  10 322.257 24.7969   2
  -3   4  10 349.073 24.2489   4
   4   2 -10 176.703 18.8011   9
  -4  -2 -10 175.338 13.1316   7
  -4  -2 -10 159.560 15.7000   1
  -2   4 -10 193.030 14.9082   7
   2  -4 -10 204.031 15.6585   2
   4   2 -10 152.123 15.2148   2
   4   2 -10 161.541 23.1530   3
   2  -4 -10 162.257 15.0865   5
   2  -4 -10 195.576 14.6368   7
   2  -4 -10 155.562 17.0179   4
  -2   4 -10 174.618 15.6954   8
  -4  -2 -10 164.504 19.2890   4
   4   2 -10 165.885 12.7263   7
  -2   4 -10 165.873 18.5572   3
  -4  -2  10 163.902 15.0206   2
   2  -4  10 145.810 17.7869   2
   4   2  10 161.689 13.4409   6
  -4  -2  10 173.466 14.5621   5
   4   2  10 166.434 26.0484   3
   2  -4  10 175.391 15.2612   6
   4   2  10 166.940 14.5422   8
  -4  -2  10 166.745 13.3840   6
  -4  -2  10 146.340 16.1965   4
  -2   4  10 168.885 16.2700   4
   2  -4  10 177.149 18.4485   9
  -2   4  10 160.783 22.0788   1
   4   1 -10 472.842 29.9503   9
  -4  -1 -10 363.611 29.5799   4
   1  -4 -10 414.868 26.0778   2
  -1   4 -10 374.665 27.0385   8
   1  -4 -10 448.381 26.8933   5
   1  -4  10 384.336 27.3489   2
   4   1  10 428.335 27.9564   3
  -1   4  10 514.876 30.8600   1
  -4  -1  10 394.877 26.5453   4
  -1   4  10 423.936 26.4049   8
   0   4 -10 421.443 27.9158   7
   4   0 -10 456.192 26.7355   7
   4   0 -10 486.360 28.9267   5
   0  -4 -10 461.920 28.3734   5
  -4   0 -10 408.021 28.5561   1
   4   0 -10 502.921 31.5551   9
   0   4 -10 485.239 35.3608   9
   0   4 -10 435.650 29.0144   8
  -4   0 -10 456.974 27.6791   7
   0  -4 -10 502.399 27.7416   7
   4   0 -10 509.109 29.5711   2
  -4   0 -10 459.204 31.0675   4
   0   4 -10 412.661 31.7509   3
  -4   0 -10 449.406 30.0927   8
   0  -4 -10 494.452 32.2532   4
   0  -4  10 446.136 28.7513   2
  -4   0  10 424.919 28.1580   4
   0  -4  10 403.333 31.0055   6
   4   0  10 439.954 29.1018   3
   4   0  10 418.845 28.2109   6
   0   4  10 470.724 29.8333   1
   4   0  10 471.835 32.9157   8
  -4   0  10 487.124 28.8787   5
   0   4  10 487.822 28.2367   8
   0  -4  10 428.311 32.2511   9
   4   0  10 457.399 30.9148   9
  -4   1 -10 366.363 25.7118   1
  -1  -4 -10 413.965 25.0645   5
  -4   1 -10 310.914 27.0920   8
   1   4 -10 351.658 25.1808   8
   4  -1 -10 430.739 28.6792   9
   1   4  10 385.671 24.4245   8
  -4   1  10 390.330 25.4858   4
   4  -1  10 402.816 28.8696   9
  -1  -4  10 390.999 24.4268   5
  -4   2 -10 171.109 17.7254   1
   4  -2 -10 179.698 14.6551   5
   2   4 -10 188.274 19.1244   9
  -4   2 -10 163.770 14.0469   8
  -2  -4 -10 179.114 15.8186   5
   4  -2 -10 186.477 20.0814   9
  -2  -4 -10 162.713 16.9892   4
   4  -2 -10 180.428 15.4812   2
   4  -2 -10 166.450 14.3260   7
   2   4 -10 212.750 23.7552   3
  -4   2 -10 160.307 13.3242   7
  -2  -4 -10 180.462 17.0846   1
   2   4 -10 179.256 13.5801   7
  -2  -4 -10 186.857 13.2631   7
   4  -2  10 177.808 26.4340   9
   2   4  10 183.770 15.3788   8
   4  -2  10 176.048 14.2699   6
  -4   2  10 176.809 14.8519   5
   4  -2  10 152.365 17.4455   3
  -4   2  10 190.777 19.3774   1
  -2  -4  10 177.763 15.8556   5
  -2  -4  10 147.552 15.7470   2
  -4   2  10 166.236 12.8105   6
   2   4  10 155.330 17.9561   1
   2   4  10 166.480 14.7042   6
  -4   2  10 166.124 16.3360   4
  -3  -4 -10 314.254 23.9944   1
   3   4 -10 362.533 25.4875   9
  -3  -4 -10 336.757 21.3941   7
  -4   3 -10 326.681 22.7191   8
   3   4 -10 361.124 30.9264   3
   4  -3 -10 322.388 22.4936   5
  -3  -4 -10 343.107 23.6628   5
  -3  -4 -10 318.678 24.1217   4
  -4   3 -10 266.764 25.6579   1
   4  -3 -10 340.083 23.1798   2
  -4   3 -10 316.823 21.7608   7
  -4   3 -10 371.330 25.7720   3
   4  -3 -10 348.471 22.3839   7
   3   4 -10 344.845 21.5368   7
   3   4  10 346.033 25.4458   1
   4  -3  10 322.947 25.6177   3
  -4   3  10 341.527 24.0444   4
   3   4  10 315.777 23.5585   8
  -3  -4  10 326.821 23.6325   5
  -3  -4  10 339.377 22.6187   6
   3   4  10 383.130 25.4149   3
  -4   3  10 337.694 20.8765   6
   4  -3  10 310.238 22.1481   6
   4  -3  10 312.979 28.7596   9
   3   4  10 333.190 22.1574   6
  -3  -4  10 332.908 23.2278   2
  -4   4 -10 26.1481 11.4713   3
   4  -4 -10 40.6925 9.79268   7
  -4   4 -10 27.3085 13.4587   1
   4  -4 -10 44.8927 9.59449   5
   4   4 -10 41.8462 12.5167   9
   4  -4 -10 66.0734 10.7233   2
   4   4 -10 52.1330 9.13591   7
   4   4 -10 45.3749 18.9533   3
  -4  -4 -10 39.2372 10.8454   4
  -4   4 -10 45.0921 8.80554   8
  -4  -4 -10 68.1279 11.4717   7
  -4  -4 -10 33.3650 9.79767   1
  -4   4  10 59.6709 13.4794   1
   4   4  10 46.3180 10.3385   6
   4  -4  10 35.7063 12.9106   9
   4  -4  10 37.3662 11.8727   3
   4   4  10 68.3501 13.7121   1
   4   4  10 36.5805 9.45131   8
   4   4  10 30.9595 11.9955   3
  -4   4  10 49.3373 11.1664   4
  -4  -4  10 37.3567 9.17535   2
  -4  -4  10 38.4458 11.1032   5
  -4  -4  10 48.9869 10.1996   6
  -5  -4 -10 103.668 15.2552   7
   4  -5 -10 142.959 19.2320   2
  -5  -4 -10 130.569 19.2385   4
   4  -5 -10 118.512 14.8481   7
  -4   5 -10 113.450 14.2485   8
   4  -5 -10 110.586 14.4246   5
   5   4 -10 139.008 21.5642   9
   5   4 -10 84.8516 13.0296   7
  -4   5 -10 105.670 16.7722   3
   5   4 -10 117.238 27.5757   3
  -4   5 -10 105.799 15.8218   7
  -5  -4 -10 91.0317 13.7395   1
  -5  -4  10 119.231 13.9536   2
   4  -5  10 86.5930 15.7738   3
   4  -5  10 102.203 15.1389   6
   4  -5  10 127.799 17.1025   9
  -5  -4  10 112.039 15.0745   5
   5   4  10 97.9834 14.6443   8
  -4   5  10 115.495 18.1512   1
  -4   5  10 133.336 19.2067   4
   5   4  10 108.945 16.6005   3
  -5  -4  10 112.995 15.6004   6
   5   4  10 139.464 17.9186   6
  -4   5  10 102.412 14.0498   6
  -5  -3 -10 434.763 29.8119   1
  -3   5 -10 412.795 28.5445   7
   5   3 -10 451.379 41.2243   3
   5   3 -10 461.889 29.3835   2
   3  -5 -10 462.686 29.1037   5
  -5  -3 -10 401.951 31.6419   4
  -3   5 -10 421.218 29.4177   8
  -5  -3 -10 421.646 27.3930   7
  -3   5 -10 438.337 33.0520   3
   3  -5 -10 449.557 28.6869   7
   5   3 -10 450.593 27.2957   7
   5   3 -10 448.005 32.1560   9
   3  -5 -10 456.382 30.0582   2
   3  -5  10 412.169 29.2030   6
  -5  -3  10 430.905 29.0143   5
  -3   5  10 467.873 27.3553   6
   3  -5  10 465.105 31.4214   9
  -5  -3  10 403.494 28.2706   2
   5   3  10 414.702 27.9269   6
  -5  -3  10 438.876 27.7293   6
   5   3  10 413.374 28.5206   8
   5   3  10 428.753 31.2711   3
   3  -5  10 412.524 29.7592   2
   3  -5  10 422.138 32.3851   3
  -3   5  10 443.158 31.7567   1
  -3   5  10 468.835 30.1324   4
  -5  -2 -10 330.086 28.5158   4
   2  -5 -10 345.874 24.2754   5
  -2   5 -10 346.791 23.1360   7
   2  -5 -10 351.269 25.2998   4
   5   2 -10 370.619 28.6123   9
  -5  -2 -10 320.243 24.5443   1
  -5  -2 -10 345.155 22.0818   7
   2  -5 -10 329.393 22.9079   7
  -2   5 -10 331.631 24.8533   8
   2  -5 -10 333.369 24.9727   2
   5   2 -10 334.180 24.3779   2
   5   2 -10 333.321 22.1116   7
  -2   5 -10 341.390 27.5981   3
  -5  -2  10 341.169 23.6629   5
  -2   5  10 338.286 24.8195   4
  -2   5  10 358.331 22.2005   6
  -2   5  10 378.366 26.3365   1
   2  -5  10 345.904 26.2909   9
   5   2  10 328.121 22.7012   6
   2  -5  10 337.444 24.5657   6
  -5  -2  10 337.883 23.6900   2
   5   2  10 303.754 23.3421   8
  -5  -2  10 380.183 22.3094   6
   5   2  10 376.499 26.3662   3
   2  -5  10 317.576 24.7927   2
  -1   5 -10 94.1632 14.4357   8
  -5  -1 -10 99.0424 10.9151   7
   1  -5 -10 120.299 15.1664   2
  -1   5 -10 99.3219 13.0869   7
   1  -5 -10 101.908 14.5701   4
   1  -5 -10 114.769 12.5511   7
   5   1 -10 100.966 13.1969   2
   5   1 -10 98.2348 11.2153   7
   5   1 -10 125.092 19.7326   9
  -5  -1 -10 134.163 18.9365   4
  -5  -1 -10 93.7601 11.7873   8
   1  -5 -10 101.129 13.9658   5
  -1   5 -10 103.004 17.7758   3
  -5  -1 -10 104.379 14.4756   1
   5   1  10 108.639 11.5277   6
  -5  -1  10 109.910 11.5512   6
  -1   5  10 104.756 15.1046   4
  -1   5  10 106.077 12.9881   6
   1  -5  10 96.1603 12.9583   9
   5   1  10 96.4648 15.9802   3
   1  -5  10 105.256 13.4949   2
   1  -5  10 95.2548 13.5610   6
  -5  -1  10 106.193 16.5387   4
  -1   5  10 115.727 17.3585   1
  -5  -1  10 99.5150 12.9432   5
  -1   5  10 129.158 15.6680   8
   5   1  10 104.494 12.7778   8
   5   0 -10 652.377 38.8514   9
   5   0 -10 574.927 32.7912   7
  -5   0 -10 525.910 33.5263   8
   0   5 -10 606.813 37.2214   9
  -5   0 -10 549.655 32.6763   7
   0  -5 -10 562.185 33.5146   7
   0   5 -10 513.777 35.8439   8
   0  -5 -10 579.266 35.2083   5
   0  -5 -10 547.141 34.7900   4
  -5   0 -10 510.400 34.8421   1
  -5   0 -10 582.811 38.4668   4
   5   0 -10 572.646 34.0675   2
   0   5 -10 528.674 33.5958   7
   0   5 -10 648.088 38.9964   3
  -5   0  10 566.140 34.1893   5
   0  -5  10 549.800 35.3318   2
   5   0  10 513.313 33.9121   8
   5   0  10 569.996 32.8751   6
   0  -5  10 564.789 35.5308   9
   5   0  10 585.626 36.4189   3
   0   5  10 569.570 36.2176   1
   5   0  10 562.639 37.1848   9
   0  -5  10 622.650 34.1762   6
  -5   0  10 587.076 32.6133   6
  -5   0  10 548.066 34.9856   4
   0   5  10 462.070 35.6777   8
   0   5  10 567.102 33.9393   6
  -5   1 -10 99.9892 10.7808   7
  -1  -5 -10 88.3507 12.3150   7
   1   5 -10 107.580 16.8642   3
   1   5 -10 120.150 13.1077   7
   1   5 -10 86.8084 13.3094   8
   5  -1 -10 99.3851 11.7777   7
   5  -1 -10 107.748 13.0492   2
   1   5 -10 118.421 18.0991   9
  -1  -5 -10 104.175 14.7541   5
  -1  -5 -10 100.726 14.8646   4
   5  -1 -10 137.103 19.8820   9
  -5   1 -10 101.806 16.1597   1
  -5   1 -10 104.128 11.6519   8
   5  -1 -10 99.7265 13.1852   5
   5  -1  10 121.887 17.4878   9
  -1  -5  10 110.628 12.4441   6
  -1  -5  10 97.1629 15.7290   9
   5  -1  10 121.508 15.9477   3
  -5   1  10 80.7780 12.7867   5
   1   5  10 90.6340 14.3018   8
  -5   1  10 74.7292 11.2404   6
  -5   1  10 102.751 14.8857   4
   5  -1  10 108.036 11.8138   6
  -1  -5  10 111.309 12.8371   2
   1   5  10 103.075 14.2523   1
   1   5  10 94.9533 14.1394   6
   5  -2 -10 352.987 24.1712   5
  -5   2 -10 333.526 25.7496   1
   5  -2 -10 383.960 29.7435   9
  -5   2 -10 318.079 23.4434   8
  -2  -5 -10 339.822 25.9042   1
   5  -2 -10 354.602 22.8495   7
   2   5 -10 330.624 27.7015   9
  -5   2 -10 346.724 22.7509   7
   5  -2 -10 364.719 23.7843   2
   2   5 -10 347.101 30.6919   3
  -2  -5 -10 306.488 25.2675   5
   2   5 -10 337.300 23.2855   7
  -2  -5 -10 335.126 22.7390   7
  -2  -5 -10 325.031 24.7701   4
  -2  -5  10 346.593 25.0368   2
  -2  -5  10 325.685 24.6011   5
   2   5  10 332.168 23.8019   6
  -5   2  10 366.278 23.5554   5
  -5   2  10 378.950 25.4205   4
   5  -2  10 351.435 23.4546   6
   5  -2  10 340.120 26.2595   3
   2   5  10 339.341 26.5114   1
  -2  -5  10 348.152 23.1166   6
  -2  -5  10 366.150 27.0421   9
   2   5  10 338.698 24.7745   8
   5  -2  10 365.550 29.9574   9
  -5   2  10 374.784 22.1343   6
  -5   3 -10 427.100 28.1638   8
   3   5 -10 441.927 32.3338   9
  -5   3 -10 395.360 32.1432   1
  -3  -5 -10 391.013 30.0914   1
   5  -3 -10 450.098 28.0076   7
   3   5 -10 419.790 36.8897   3
   5  -3 -10 451.315 28.6568   2
   5  -3 -10 464.570 28.7791   5
   3   5 -10 371.608 27.6729   7
  -3  -5 -10 413.602 31.8448   5
  -3  -5 -10 415.858 29.1434   4
  -3  -5 -10 439.738 27.3749   7
  -5   3 -10 422.562 27.4913   7
  -5   3  10 455.013 34.1761   1
   3   5  10 495.213 31.5595   1
   3   5  10 408.148 28.6215   6
  -5   3  10 443.793 27.0138   6
  -3  -5  10 434.359 29.7303   5
   5  -3  10 406.915 31.7496   3
  -3  -5  10 416.570 29.0734   2
   5  -3  10 412.514 35.1997   9
   3   5  10 421.574 29.2388   8
  -5   3  10 445.124 28.4206   5
   5  -3  10 468.383 29.0923   6
  -5   3  10 447.435 30.5747   4
  -4  -5 -10 98.2478 14.3303   1
  -5   4 -10 114.711 14.8671   8
   4   5 -10 112.843 15.7640   7
  -5   4 -10 87.9888 17.6482   1
   4   5 -10 160.955 20.7703   9
   4   5 -10 127.539 24.8003   3
   5  -4 -10 104.295 15.8750   5
  -5   4 -10 83.6345 14.2168   7
  -4  -5 -10 100.280 14.3904   7
  -4  -5 -10 134.280 17.7824   4
   5  -4 -10 100.134 16.8898   7
   5  -4 -10 98.8164 13.7520   2
   4   5  10 86.3331 13.4475   8
  -5   4  10 111.838 16.6208   4
  -4  -5  10 113.566 14.2013   2
   5  -4  10 127.975 17.2455   3
   4   5  10 118.165 17.5669   6
  -5   4  10 109.041 19.0247   1
   5  -4  10 120.047 15.5377   6
   4   5  10 104.336 18.1722   1
  -4  -5  10 99.9019 17.2886   6
  -4  -5  10 112.951 15.8388   5
  -5   4  10 108.218 15.8881   5
   5  -4  10 97.3022 17.7907   9
  -6  -3 -10 416.764 31.5150   1
  -6  -3 -10 403.531 28.4113   7
   3  -6 -10 418.034 30.8689   5
  -3   6 -10 414.197 34.8524   3
   6   3 -10 471.871 28.9331   7
  -3   6 -10 386.977 29.8500   7
   6   3 -10 463.586 31.2579   2
  -6  -3 -10 436.069 35.4154   4
  -3   6 -10 406.170 31.3820   8
   3  -6 -10 411.097 33.6272   2
   3  -6 -10 464.758 30.3836   7
   6   3 -10 521.139 35.9447   9
  -6  -3  10 417.906 29.6874   2
  -6  -3  10 458.231 31.1249   5
   6   3  10 432.222 29.8360   6
  -3   6  10 488.576 34.2071   1
   6   3  10 428.233 34.2262   3
   6   3  10 400.217 29.7635   8
   3  -6  10 408.981 33.7419   3
  -3   6  10 483.829 28.8581   6
   3  -6  10 466.322 32.8016   9
  -6  -3  10 465.567 29.3605   6
   3  -6  10 441.539 31.4633   6
   3  -6  10 432.914 31.1055   2
   2  -6 -10 149.168 17.8451   4
   6   2 -10 131.309 18.3756   2
  -6  -2 -10 159.057 19.8754   4
   2  -6 -10 144.886 17.6948   5
  -2   6 -10 149.422 19.7662   3
  -2   6 -10 109.285 17.6459   8
   6   2 -10 169.275 24.8164   9
   6   2 -10 108.424 14.8739   7
   2  -6 -10 118.583 16.4146   2
   2  -6 -10 139.388 15.4836   7
  -6  -2 -10 127.776 14.3808   7
  -6  -2 -10 126.395 18.7287   1
  -2   6 -10 127.534 15.2196   7
   6   2  10 150.634 21.5766   3
  -2   6  10 133.587 16.2337   4
  -6  -2  10 148.493 21.4057   4
   2  -6  10 154.928 19.3230   9
  -6  -2  10 152.473 15.3807   6
  -6  -2  10 112.138 16.9217   2
   6   2  10 126.078 16.4619   6
   2  -6  10 140.599 18.4881   6
  -6  -2  10 142.181 16.8623   5
   6   2  10 136.778 16.3586   8
   2  -6  10 149.209 18.2458   2
  -2   6  10 194.945 21.7935   1
  -2   6  10 125.224 15.2422   6
   1  -6 -10 124.189 14.8677   7
   1  -6 -10 165.957 17.1739   4
  -6  -1 -10 135.722 13.6691   7
   6   1 -10 158.893 25.2256   9
  -1   6 -10 129.553 21.4482   3
  -6  -1 -10 138.592 17.9475   1
  -6  -1 -10 148.901 20.6586   4
  -6  -1 -10 144.143 14.6080   8
   6   1 -10 141.798 14.3375   7
  -1   6 -10 133.241 14.7516   7
   6   1 -10 127.607 16.9790   2
   1  -6 -10 108.727 18.0739   5
  -1   6 -10 129.352 17.3763   8
   1  -6  10 124.999 16.6070   6
  -1   6  10 156.371 15.5355   6
  -1   6  10 129.564 18.4803   4
  -6  -1  10 177.281 16.3418   5
   6   1  10 134.706 15.9479   8
   1  -6  10 138.388 18.4067   2
  -1   6  10 162.693 20.4393   1
   6   1  10 121.972 16.2262   3
   1  -6  10 163.497 18.5370   9
   6   1  10 131.587 15.2734   6
  -1   6  10 153.107 23.4651   8
  -6  -1  10 180.772 18.8480   4
  -6  -1  10 140.349 14.5685   6
   0  -6 -10 305.507 21.6626   7
   0   6 -10 288.228 26.2737   8
   0  -6 -10 312.984 23.7437   4
   0  -6 -10 263.697 24.4964   5
  -6   0 -10 312.517 24.4457   1
   6   0 -10 302.005 21.4387   7
  -6   0 -10 286.723 20.7991   7
  -6   0 -10 272.130 21.2526   8
   6   0 -10 315.195 22.6549   2
   0   6 -10 291.157 28.2602   3
   6   0 -10 361.597 29.3812   9
   6   0  10 287.383 22.4530   8
  -6   0  10 282.808 25.4656   4
   6   0  10 280.906 26.9014   3
   0   6  10 322.997 25.6911   8
   0  -6  10 336.045 22.8951   6
  -6   0  10 313.909 22.7551   5
   0   6  10 342.176 22.6531   6
   0  -6  10 284.958 24.9965   2
  -6   0  10 320.767 21.0322   6
   0   6  10 296.842 26.5636   1
   0  -6  10 289.882 24.6035   9
   6   0  10 299.866 21.7704   6
  -1  -6 -10 154.630 16.8423   4
  -6   1 -10 124.668 14.3278   7
  -6   1 -10 145.171 19.0195   1
   1   6 -10 146.301 20.4842   3
   6  -1 -10 179.098 26.4407   9
   6  -1 -10 129.422 15.7908   7
  -6   1 -10 140.619 14.7851   8
   6  -1 -10 186.709 16.3272   2
  -1  -6 -10 129.484 16.6826   7
   1   6 -10 145.799 21.1934   9
  -1  -6 -10 154.110 19.2372   5
   1   6 -10 141.971 16.6746   7
   1   6 -10 168.302 21.8234   8
  -6   1  10 136.149 19.5787   4
  -6   1  10 150.415 17.0039   5
   1   6  10 142.721 17.8054   6
   6  -1  10 157.152 15.6460   6
  -6   1  10 161.147 14.5916   6
   6  -1  10 160.188 23.5928   9
   6  -1  10 130.070 20.8296   3
  -1  -6  10 172.852 19.1117   2
   1   6  10 104.910 18.8888   8
  -1  -6  10 155.465 16.3025   6
  -1  -6  10 146.577 18.0626   9
   6  -1  10 143.517 16.5953   8
   1   6  10 145.841 18.1094   1
  -2  -6 -10 160.587 17.3160   4
  -2  -6 -10 133.388 15.9543   7
  -6   2 -10 134.013 15.1696   8
  -6   2 -10 142.862 15.3214   7
   6  -2 -10 140.970 25.9624   9
   2   6 -10 156.140 26.5360   3
   2   6 -10 143.282 16.5289   7
   2   6 -10 122.301 21.6159   9
   6  -2 -10 133.053 17.2484   5
   6  -2 -10 146.085 16.2805   2
  -6   2 -10 154.708 19.6199   1
  -2  -6 -10 146.531 17.8825   5
   6  -2 -10 147.971 16.5323   7
   2   6  10 115.261 18.2195   6
  -2  -6  10 120.725 18.4991   2
  -2  -6  10 124.190 18.8313   9
   2   6  10 142.602 22.3772   1
   6  -2  10 156.096 17.0141   6
  -6   2  10 138.120 20.1066   4
   6  -2  10 141.004 21.7885   3
  -6   2  10 102.617 16.6616   5
  -6   2  10 132.767 15.2553   6
   6  -2  10 137.817 20.2740   9
  -2  -6  10 152.045 15.3169   6
   2   6  10 156.203 19.5632   8
   3   6 -10 511.580 40.6719   3
   6  -3 -10 457.155 31.3551   5
  -3  -6 -10 406.022 29.3144   7
   6  -3 -10 462.267 30.6469   7
  -6   3 -10 436.356 34.3730   1
  -6   3 -10 448.457 30.0398   7
   3   6 -10 384.588 31.0790   7
  -6   3 -10 422.948 29.9219   8
   3   6 -10 429.396 35.0690   9
  -3  -6 -10 431.711 30.4359   4
   6  -3 -10 452.741 30.1063   2
  -3  -6 -10 410.634 36.1019   5
  -3  -6  10 456.610 30.3151   6
   3   6  10 412.062 32.1212   8
   3   6  10 435.310 34.0967   1
   3   6  10 447.032 31.5259   6
  -6   3  10 467.768 28.7673   6
  -3  -6  10 479.626 32.9591   5
  -6   3  10 451.585 30.0528   5
  -6   3  10 512.015 33.0104   4
  -3  -6  10 442.235 31.9595   2
   6  -3  10 428.494 34.2923   3
   6  -3  10 456.010 38.0674   9
   6  -3  10 449.922 31.5522   6
  -3  -6  10 435.851 33.7256   9
   0   0 -11 -0.2644 4.71427   5
   0   0 -11 1.74159 7.69745   1
   0   0 -11 10.7418 6.75101   4
   0   0 -11 -0.4934 5.54606   3
   0   0 -11 -4.9088 8.98688   9
   0   0 -11 -4.6599 3.93101   8
   0   0 -11 4.68044 4.97320   2
   0   0  11 3.36373 7.27190   1
   0   0  11 -7.0282 10.1972   9
   0   0  11 5.94921 5.69834   3
   0   0  11 -1.4445 5.60111   4
   0   0  11 1.07724 5.26463   5
   0   0  11 1.41385 5.44298   2
   0   0  11 -3.7368 4.82727   8
   1   0 -11 10.3655 8.77471   9
   1   0 -11 14.1219 4.95057   2
   0  -1 -11 -3.6536 5.31989   3
   1   0 -11 3.76150 8.55418   1
   0   1 -11 11.7916 7.10323   4
   0   1 -11 1.07689 4.42306   8
   0  -1 -11 3.40280 4.52682   2
  -1   0 -11 0.54909 4.74431   5
   1   0 -11 0.62549 4.36267   8
   1   0 -11 -6.1595 6.37912   4
  -1   0 -11 -6.5013 5.53682   3
  -1   0 -11 -4.1516 6.53026   4
   1   0 -11 -1.8629 5.88417   3
  -1   0 -11 4.94096 7.09838   1
   0   1 -11 0.59715 5.25304   2
   0  -1 -11 -0.1016 4.39905   8
  -1   0 -11 9.13851 4.57309   8
   1   0 -11 -1.5058 4.95527   5
   0  -1 -11 4.91786 8.22576   9
   0  -1 -11 9.52917 7.41932   4
   0   1 -11 -3.1724 6.42936   3
   0  -1 -11 2.20348 4.60814   5
   0  -1 -11 17.8333 8.09961   1
   0   1 -11 -13.858 10.3771   9
   0   1  11 -4.5550 4.78848   8
   1   0  11 0.85624 5.12677   8
   0   1  11 1.79719 5.36998   3
   1   0  11 -1.2981 5.64278   3
  -1   0  11 10.3578 4.92625   8
   0   1  11 -6.4076 10.4196   9
   0   1  11 4.60312 7.66946   1
   0  -1  11 1.63840 5.18498   5
  -1   0  11 -3.5009 5.18096   5
   0  -1  11 -11.269 9.74961   9
   1   0  11 4.28261 9.86553   9
   1   0  11 7.72652 6.29474   2
   0   1  11 2.30982 6.20804   4
  -1   0  11 -5.3967 5.57705   3
  -1   0  11 8.63532 6.32449   2
  -1   0  11 -6.5856 5.84741   4
  -1   0  11 -10.818 7.45666   1
   0  -1  11 -3.6234 5.79751   2
   0   1  11 -4.7588 5.96901   2
   1   1 -11 19.8606 7.54056   3
   1  -1 -11 8.95567 5.28261   5
   1  -1 -11 13.1652 4.92136   2
   1   1 -11 17.9401 4.91106   8
   1   1 -11 27.6518 10.8298   9
   1  -1 -11 19.3047 7.93114   4
   1   1 -11 23.1598 5.84131   2
  -1   1 -11 12.7660 5.16093   8
  -1   1 -11 11.6128 6.98592   3
  -1  -1 -11 7.32117 4.94011   5
  -1  -1 -11 18.8884 7.14402   1
   1  -1 -11 17.7419 8.39359   9
  -1   1 -11 18.0724 7.58138   1
  -1  -1 -11 15.2187 5.35599   8
  -1  -1 -11 27.4500 8.02146   4
  -1   1  11 14.7321 5.94305   5
   1  -1  11 18.8503 7.07772   2
  -1  -1  11 16.9019 6.30638   4
   1   1  11 5.43694 5.74897   3
   1  -1  11 8.46418 6.74831   3
   1   1  11 14.9649 5.59715   8
  -1  -1  11 20.8077 6.54817   2
  -1   1  11 16.6590 6.32952   4
  -1   1  11 20.9634 5.14017   8
   1  -1  11 28.6827 10.0863   9
  -1   1  11 13.9975 7.94070   1
  -1  -1  11 16.3150 6.00095   5
   2   1 -11 763.471 42.9025   3
  -2  -1 -11 702.286 42.2109   1
  -1   2 -11 723.080 43.2715   3
   1  -2 -11 774.612 41.4518   5
  -1   2 -11 695.575 42.1617   1
  -1   2 -11 660.924 41.7062   8
  -2  -1 -11 795.091 43.5074   4
   1  -2 -11 755.295 42.8495   4
   2   1 -11 758.973 44.1711   9
   1  -2 -11 742.105 40.7517   2
  -2  -1 -11 721.061 41.7278   8
   2   1 -11 716.931 41.2720   2
   1  -2  11 738.195 44.6272   9
  -1   2  11 730.804 40.9420   8
   2   1  11 744.666 42.1224   8
   2   1  11 752.753 42.1786   3
  -2  -1  11 735.115 41.5712   2
   1  -2  11 734.546 41.8533   2
  -2  -1  11 684.062 41.3398   4
  -2  -1  11 719.777 41.4598   5
  -1   2  11 699.055 42.4842   1
  -1   2  11 702.791 41.9097   4
   0   2 -11 -3.1793 7.34749   3
  -2   0 -11 4.28405 4.53593   8
   0  -2 -11 -6.1847 4.52791   2
   0  -2 -11 5.28975 5.10153   5
   0  -2 -11 -11.618 7.73840   4
   2   0 -11 1.16016 6.76147   3
   0   2 -11 3.91724 11.2869   9
   0   2 -11 1.83902 5.24445   8
  -2   0 -11 -0.5659 6.56484   1
   2   0 -11 -2.6314 5.78362   5
   2   0 -11 -14.178 9.04633   9
  -2   0 -11 12.1606 7.94170   4
   2   0 -11 12.0621 5.22001   2
   0  -2 -11 -4.4497 8.01521   1
   0   2  11 4.91505 8.09249   1
   0  -2  11 5.78887 6.39593   2
   2   0  11 -1.3734 6.07915   3
   2   0  11 -2.5388 5.70041   8
  -2   0  11 4.60789 5.92827   5
  -2   0  11 -6.5343 6.58175   4
   0  -2  11 8.46758 9.68688   9
   0   2  11 3.02282 5.32862   8
   2   0  11 5.64827 9.90609   9
   1   2 -11 764.153 43.1567   3
   1   2 -11 667.149 40.6864   8
   2  -1 -11 725.920 40.6786   2
  -1  -2 -11 737.099 40.6630   5
  -2   1 -11 726.596 42.3952   3
   2  -1 -11 749.985 41.0219   5
   1   2 -11 746.712 44.3791   9
  -2   1 -11 702.372 41.4459   8
  -1  -2 -11 717.851 41.9935   1
   2  -1 -11 658.434 42.8125   9
  -2   1 -11 692.309 41.7226   1
  -1  -2 -11 726.649 42.7450   4
  -2   1  11 728.440 41.0982   5
   1   2  11 772.084 41.3365   3
   2  -1  11 756.098 42.7792   3
  -1  -2  11 696.679 44.2354   9
   1   2  11 778.044 41.4849   8
  -1  -2  11 743.945 41.2496   2
  -1  -2  11 722.930 40.8849   5
   2  -1  11 711.502 44.3544   9
  -2   1  11 684.747 42.5587   1
  -2   1  11 661.885 41.1168   4
   1   2  11 716.002 41.9487   1
  -2  -2 -11 184.409 18.8237   4
   2  -2 -11 191.191 14.5379   5
   2   2 -11 227.173 20.4238   3
   2  -2 -11 205.516 17.4088   4
  -2   2 -11 188.440 17.4691   1
   2  -2 -11 214.657 15.0857   2
   2   2 -11 232.632 19.4872   9
  -2   2 -11 162.903 14.9195   8
  -2   2 -11 156.273 17.3086   3
   2   2 -11 207.324 15.2261   2
  -2  -2 -11 189.919 16.7530   1
  -2   2  11 195.848 16.2834   4
   2   2  11 203.296 15.3664   8
   2  -2  11 213.138 21.1301   9
  -2  -2  11 175.356 15.0657   5
  -2   2  11 186.063 18.8592   1
   2   2  11 199.240 16.6463   3
  -2  -2  11 178.036 15.3924   2
   2  -3 -11 177.316 17.2536   4
   3   2 -11 176.321 14.9700   2
  -3  -2 -11 160.178 16.2105   1
  -2   3 -11 156.895 17.5351   3
   2  -3 -11 167.314 14.1134   5
  -3  -2 -11 142.554 22.2731   4
  -2   3 -11 124.341 18.6647   1
   3   2 -11 178.436 19.4884   9
  -2   3 -11 177.200 14.5554   7
   2  -3 -11 196.550 14.9030   2
  -2   3 -11 141.093 14.7458   8
   3   2 -11 175.726 21.1162   3
   2  -3  11 153.477 18.2296   3
  -3  -2  11 164.095 17.9141   5
   3   2  11 171.549 14.9611   8
  -2   3  11 155.230 16.1769   4
   2  -3  11 177.977 20.2551   9
   2  -3  11 148.298 18.4224   2
  -3  -2  11 182.730 15.0378   2
   3   2  11 167.413 16.1753   3
  -2   3  11 172.021 20.8291   1
  -1   3 -11 133.394 13.5987   8
  -3  -1 -11 146.862 17.9163   4
   1  -3 -11 149.585 12.6485   2
   3   1 -11 182.360 18.4478   9
   3   1 -11 153.049 18.4394   3
   1  -3 -11 155.619 12.9847   5
   1  -3  11 110.493 15.2921   2
  -3  -1  11 116.450 12.9100   5
  -1   3  11 131.060 16.4790   1
  -1   3  11 128.767 12.8481   8
   3   1  11 161.240 14.9909   3
  -3  -1  11 170.468 14.1056   4
  -3   0 -11 8.54248 7.52151   1
   0  -3 -11 17.6417 9.75517   4
   3   0 -11 -6.8592 10.3273   9
  -3   0 -11 0.53354 9.60053   4
   0   3 -11 -7.0138 13.7922   9
   0   3 -11 1.80402 8.71085   3
   3   0 -11 1.01113 6.39046   5
   0  -3 -11 -5.1869 5.76210   5
   3   0 -11 4.67964 6.18078   2
  -3   0 -11 -1.4327 6.86637   8
   0   3 -11 0.64455 6.14050   8
   0   3  11 3.48875 5.96257   8
  -3   0  11 1.33013 7.64047   4
   3   0  11 5.86025 7.34749   3
   0   3  11 25.3037 9.48224   1
   0  -3  11 5.92420 7.35034   2
   3   0  11 14.7464 10.5383   9
  -3   0  11 -4.0627 6.25113   5
   0  -3  11 -3.6390 10.1219   9
   3   0  11 -0.2569 9.25848   8
  -3   1 -11 113.730 14.7660   1
   3  -1 -11 115.226 13.3765   2
  -1  -3 -11 152.490 13.0155   5
   1   3 -11 144.566 18.6431   3
   3  -1 -11 126.345 16.6454   9
   1   3 -11 125.207 13.4124   8
   1   3  11 149.229 12.8383   8
   3  -1  11 184.276 19.8522   9
  -1  -3  11 148.879 13.1284   5
  -3   1  11 145.608 13.6090   4
  -1  -3  11 104.253 14.5192   2
  -2  -3 -11 167.322 15.0261   5
   3  -2 -11 163.552 16.6379   2
  -3   2 -11 156.422 17.4945   1
  -3   2 -11 152.714 16.6997   3
  -2  -3 -11 177.908 12.7543   7
   3  -2 -11 166.397 14.1046   5
  -2  -3 -11 168.821 18.1099   4
  -2  -3 -11 169.008 17.3242   1
  -3   2 -11 148.141 13.9477   8
  -3   2 -11 163.441 13.2108   7
   2   3 -11 170.044 20.2450   9
  -3   2  11 159.265 15.8871   4
  -3   2  11 168.983 14.6233   5
   2   3  11 193.808 16.4054   3
  -3   2  11 198.938 19.4507   1
   3  -2  11 152.179 17.4895   3
  -2  -3  11 163.675 15.2889   2
   2   3  11 170.681 14.9059   8
  -2  -3  11 182.241 14.9691   5
   2   3  11 158.223 17.7433   1
  -3  -3 -11 14.3172 8.47315   1
   3   3 -11 11.7587 6.52895   7
  -3  -3 -11 3.80409 5.66285   7
  -3   3 -11 9.64981 6.94935   8
  -3   3 -11 13.8697 6.56757   7
  -3  -3 -11 9.38843 9.79465   4
   3   3 -11 15.7287 12.0876   9
   3  -3 -11 14.9228 7.34723   5
   3   3 -11 28.7918 14.4173   3
   3  -3 -11 9.58458 7.79904   2
   3  -3 -11 18.2801 7.73958   7
  -3   3 -11 2.84403 10.1372   1
  -3   3 -11 11.8584 9.55116   3
   3   3  11 11.0397 7.31008   8
  -3  -3  11 19.9987 8.39113   2
   3  -3  11 19.3142 9.35281   3
   3  -3  11 9.89872 11.4820   9
  -3  -3  11 27.3899 8.63266   5
  -3   3  11 20.3445 11.2157   1
  -3   3  11 20.0242 9.35998   4
   3  -3  11 15.5988 6.82009   6
  -3   4 -11 73.4255 14.1280   3
   3  -4 -11 74.9159 11.2871   7
  -4  -3 -11 85.4300 14.6314   4
  -3   4 -11 87.1910 13.0182   8
   3  -4 -11 80.5840 11.2211   5
  -4  -3 -11 64.9417 10.9715   7
  -3   4 -11 76.4205 10.7014   7
   3  -4 -11 75.9906 11.6998   2
   4   3 -11 105.401 16.9391   9
   4   3 -11 104.575 19.4485   3
   4   3 -11 88.4719 12.7908   2
   4   3 -11 71.1519 11.5242   7
  -4  -3 -11 62.9498 11.3490   1
   4   3  11 74.7567 13.3443   8
   4   3  11 66.7029 10.7933   6
   3  -4  11 93.2899 14.7340   9
  -3   4  11 73.9675 9.42125   6
  -4  -3  11 68.3551 11.9073   6
   3  -4  11 71.0021 10.4143   6
  -3   4  11 119.784 15.1426   1
   3  -4  11 85.2164 14.6338   3
  -4  -3  11 75.9888 11.2525   2
   4   3  11 117.120 17.3277   3
  -3   4  11 105.665 13.4949   4
  -4  -3  11 108.330 13.8059   5
  -2   4 -11 242.011 20.7212   8
   2  -4 -11 265.014 19.2450   7
  -4  -2 -11 247.258 24.5117   4
  -4  -2 -11 240.826 20.8730   1
   2  -4 -11 266.180 20.2947   2
  -4  -2 -11 275.362 17.7283   7
   4   2 -11 266.830 28.3397   3
   2  -4 -11 280.714 21.6557   4
   2  -4 -11 279.089 19.7326   5
  -2   4 -11 257.802 18.9924   7
  -2   4 -11 237.382 23.0339   3
   4   2 -11 286.238 20.1997   2
   4   2 -11 304.080 25.1744   9
   4   2 -11 240.088 17.5747   7
   2  -4  11 245.689 23.7502   9
  -2   4  11 275.386 22.8473   1
  -2   4  11 263.951 21.4740   4
  -4  -2  11 273.588 19.7579   5
   2  -4  11 223.532 22.8896   2
   4   2  11 272.312 22.3204   3
   2  -4  11 265.682 19.1228   6
  -4  -2  11 252.283 19.8992   2
   4   2  11 274.470 20.1430   8
  -1   4 -11 502.940 34.2453   8
   1  -4 -11 546.482 34.5009   4
  -4  -1 -11 534.351 31.3453   7
   1  -4 -11 546.500 32.9079   2
   1  -4 -11 579.269 32.2534   7
  -1   4 -11 558.223 36.4166   3
  -4  -1 -11 469.023 38.3872   4
   4   1 -11 595.835 36.9788   9
   4   1 -11 558.774 31.2297   7
  -4  -1 -11 491.991 33.8642   1
   4   1 -11 606.923 33.5790   2
  -4  -1 -11 520.682 33.0447   8
   1  -4 -11 555.725 33.5222   5
   1  -4  11 506.371 34.3493   2
  -1   4  11 543.786 35.2103   1
   1  -4  11 530.698 32.7936   6
  -1   4  11 548.405 34.4258   4
  -4  -1  11 519.703 33.5113   4
  -4  -1  11 542.330 33.1297   5
   4   1  11 564.109 34.8750   3
   1  -4  11 544.089 36.1018   9
   4   1  11 558.827 33.7566   8
  -4  -1  11 577.275 33.6071   2
   4   0 -11 3.50137 5.55139   7
   0   4 -11 0.86830 6.77749   7
  -4   0 -11 12.3275 8.31355   1
   0   4 -11 -0.1868 8.55079   8
   4   0 -11 -3.0271 7.12536   2
   0  -4 -11 -3.0007 7.06654   5
   0  -4 -11 13.8369 7.21868   7
  -4   0 -11 1.45124 4.64601   7
   0  -4 -11 -6.4724 8.95282   4
  -4   0 -11 -3.8596 11.7608   4
   0   4 -11 1.19100 11.0963   3
   4   0 -11 -3.6909 12.3828   9
  -4   0 -11 -3.7226 5.42946   8
   0   4 -11 19.9306 12.3016   9
   4   0  11 -5.0235 6.78665   8
   0   4  11 12.4911 7.89159   8
   0  -4  11 -6.4472 8.37556   2
  -4   0  11 13.0204 10.5712   4
   4   0  11 3.08017 8.08461   3
  -4   0  11 14.1501 7.18326   5
   4   0  11 -1.0599 14.2063   9
   0  -4  11 -4.2305 9.27524   9
   0   4  11 9.14373 10.1820   1
  -4   1 -11 538.263 33.0154   8
   4  -1 -11 553.657 31.3922   7
  -4   1 -11 530.787 31.5729   7
   1   4 -11 561.673 36.7851   9
   1   4 -11 624.469 38.2420   3
   4  -1 -11 566.422 33.0516   2
  -1  -4 -11 578.619 33.5798   5
   1   4 -11 479.340 33.5884   8
   1   4 -11 493.208 31.7135   7
  -1  -4 -11 527.243 34.3362   4
  -1  -4 -11 583.499 35.0243   1
  -4   1 -11 474.541 34.2458   1
  -1  -4 -11 542.523 31.6405   7
   4  -1 -11 576.649 33.4657   5
   4  -1  11 579.285 35.3847   3
  -4   1  11 523.213 33.8691   4
   1   4  11 504.390 34.3480   1
  -1  -4  11 507.949 33.5661   2
  -1  -4  11 525.973 35.6912   9
  -4   1  11 561.112 33.0453   5
   1   4  11 559.875 33.1182   8
   4  -2 -11 291.073 20.1296   2
   2   4 -11 285.523 24.4488   9
   4  -2 -11 215.518 25.2484   9
   4  -2 -11 265.256 18.7009   7
  -4   2 -11 255.123 19.3447   8
  -2  -4 -11 283.872 22.4424   4
  -4   2 -11 251.302 17.7945   7
   2   4 -11 247.383 18.1210   7
   2   4 -11 247.763 27.5759   3
  -2  -4 -11 279.483 22.3852   1
  -2  -4 -11 276.180 17.9415   7
   4  -2 -11 262.220 19.8043   5
  -2  -4 -11 309.184 22.5242   5
   2   4  11 294.753 22.8975   1
  -4   2  11 266.601 19.6719   5
   4  -2  11 250.733 19.2039   6
  -2  -4  11 291.443 24.2249   9
   4  -2  11 277.797 27.9491   9
   4  -2  11 249.798 22.7313   3
  -4   2  11 281.409 21.5149   4
  -2  -4  11 254.241 20.9733   5
  -2  -4  11 245.416 20.9994   2
   2   4  11 274.620 20.3619   8
  -4   3 -11 84.0877 13.8581   3
   3   4 -11 70.9678 11.7791   7
   4  -3 -11 89.7673 12.0834   2
  -3  -4 -11 75.2963 11.9053   7
   3   4 -11 83.3966 15.0152   9
  -4   3 -11 59.9639 11.2039   7
  -4   3 -11 72.7302 11.9692   8
  -3  -4 -11 77.4817 13.4407   4
  -4   3 -11 87.6546 14.5216   1
   4  -3 -11 87.4931 11.2729   7
   3   4 -11 97.7279 19.2956   3
   4  -3 -11 94.7374 12.0247   5
  -3  -4 -11 80.5676 12.1526   1
   3   4  11 84.6686 15.0747   1
   3   4  11 86.2163 13.1443   6
   4  -3  11 82.2251 11.1927   6
  -4   3  11 112.675 15.3998   1
   4  -3  11 85.4082 14.4636   3
  -3  -4  11 90.9236 12.2819   2
   3   4  11 68.0887 11.8091   8
  -3  -4  11 73.5293 13.1947   5
  -4   3  11 101.400 13.2515   4
  -4   3  11 83.2773 13.4379   5
   4  -3  11 83.9881 17.0285   9
  -4   4 -11 249.101 19.9152   7
   4   4 -11 287.367 34.1274   3
   4  -4 -11 272.299 22.7430   2
   4  -4 -11 244.866 20.5442   5
  -4   4 -11 279.249 25.3694   3
  -4  -4 -11 253.702 23.8897   4
   4   4 -11 294.802 26.0379   9
  -4   4 -11 281.672 28.2693   1
   4  -4 -11 277.489 20.7858   7
   4   4 -11 240.113 19.6373   7
  -4  -4 -11 257.333 19.1608   7
  -4   4 -11 230.311 21.0621   8
  -4  -4 -11 240.268 22.9212   1
   4  -4  11 205.898 25.1284   3
   4   4  11 273.937 25.9384   3
  -4  -4  11 267.132 21.7549   2
   4  -4  11 246.838 21.0577   6
  -4   4  11 273.506 26.5766   1
   4   4  11 234.296 21.6765   8
  -4   4  11 290.299 23.2673   4
  -4  -4  11 239.326 22.9480   5
   4   4  11 237.237 20.5566   6
   4  -4  11 249.072 29.0508   9
   4   4  11 276.455 25.6464   1
  -5  -3 -11 61.2161 9.16119   7
   5   3 -11 74.6065 13.7644   2
  -3   5 -11 61.1853 10.8603   7
  -3   5 -11 69.0211 12.4188   8
  -3   5 -11 65.6747 15.5635   3
   3  -5 -11 74.6358 13.9041   2
  -5  -3 -11 54.8477 11.3854   1
  -5  -3 -11 61.4032 16.1172   4
   5   3 -11 107.128 17.1453   9
   5   3 -11 69.0633 28.3436   3
   3  -5 -11 99.8406 15.1026   7
   3  -5 -11 66.2552 12.0414   5
   5   3 -11 87.9082 12.6185   7
  -3   5  11 115.021 17.1879   4
  -3   5  11 72.4035 14.7325   1
   3  -5  11 51.1238 13.7338   3
  -5  -3  11 79.3933 11.9862   2
  -5  -3  11 62.4448 10.6035   6
   5   3  11 56.8389 11.3460   8
   3  -5  11 83.6350 11.9974   6
  -5  -3  11 72.0185 12.8907   5
   5   3  11 57.7557 13.9051   3
  -3   5  11 57.4134 9.78287   6
   5   3  11 58.8622 12.4165   6
  -5  -2 -11 -1.1837 9.86649   1
  -5  -2 -11 5.49941 13.4461   4
   5   2 -11 15.4251 14.5899   9
   2  -5 -11 13.6763 8.14413   7
  -2   5 -11 13.2729 10.2362   8
  -5  -2 -11 4.68200 6.33780   7
   5   2 -11 7.17071 10.4302   2
   2  -5 -11 -3.3246 10.7389   2
   5   2 -11 -6.2731 7.46163   7
  -2   5 -11 8.59849 12.5767   3
   2  -5 -11 14.3094 10.8306   4
  -2   5 -11 2.84980 8.27062   7
   2  -5 -11 8.88832 9.52211   5
   2  -5  11 1.68190 10.6678   2
   5   2  11 16.5667 11.2190   3
   5   2  11 15.8921 8.66171   8
  -5  -2  11 1.77636 8.71286   2
   5   2  11 14.0909 9.07222   6
   2  -5  11 18.2733 9.30796   6
  -2   5  11 9.52367 7.70417   6
   2  -5  11 8.18636 9.86149   9
  -2   5  11 -3.0274 10.7276   4
  -2   5  11 25.1700 11.9649   1
  -5  -2  11 -9.3639 9.61496   5
  -5  -2  11 -4.9584 7.62418   6
   5   1 -11 334.909 29.7088   9
  -5  -1 -11 327.254 20.9472   7
  -1   5 -11 267.420 21.9819   7
  -1   5 -11 314.853 25.0606   8
  -5  -1 -11 303.308 24.5632   1
   5   1 -11 374.002 23.8840   2
  -1   5 -11 341.949 28.2046   3
  -5  -1 -11 311.852 30.3637   4
  -5  -1 -11 302.462 22.4365   8
   1  -5 -11 373.434 24.8340   4
   5   1 -11 303.618 20.8799   7
   1  -5 -11 329.410 22.0559   7
   1  -5 -11 350.927 24.2962   5
  -5  -1  11 330.615 25.7994   4
   1  -5  11 312.368 24.8673   9
   1  -5  11 288.633 25.4879   2
  -1   5  11 335.709 21.7547   6
  -5  -1  11 343.280 23.7355   2
  -5  -1  11 324.335 21.2411   6
  -1   5  11 345.426 26.4936   1
  -1   5  11 317.683 24.6577   4
  -5  -1  11 302.736 23.2875   5
   5   1  11 315.426 21.4234   6
   5   1  11 328.588 26.1389   3
   5   1  11 305.423 23.2822   8
   1  -5  11 290.350 23.1319   6
  -5   0 -11 -3.5956 9.01320   1
   0   5 -11 0.91272 12.8920   3
   0  -5 -11 10.9308 9.46415   5
   5   0 -11 -12.925 8.41307   2
   0  -5 -11 10.4776 10.0355   4
   0   5 -11 9.93615 8.40978   7
   5   0 -11 4.35980 7.00445   7
   0  -5 -11 1.93234 7.53678   7
  -5   0 -11 -8.3920 5.36561   7
   0   5 -11 -9.6142 9.58229   8
  -5   0 -11 9.28713 6.59870   8
   5   0 -11 10.9391 14.6104   9
  -5   0  11 2.79565 6.33306   6
   0   5  11 12.9290 10.3473   8
   5   0  11 -1.6836 7.89811   8
   0   5  11 -0.1755 12.3841   1
  -5   0  11 -13.019 10.3853   4
  -5   0  11 -1.6793 9.02286   5
   5   0  11 7.47663 10.1301   3
   0  -5  11 6.21065 9.27953   9
   0  -5  11 4.75429 10.8422   2
   5   0  11 5.78801 7.67963   6
   0  -5  11 14.0648 7.55917   6
   1   5 -11 280.956 29.0219   3
  -1  -5 -11 308.213 24.6562   5
  -1  -5 -11 347.406 22.3149   7
  -5   1 -11 307.854 22.1454   8
   5  -1 -11 304.001 22.7848   5
   5  -1 -11 319.966 21.3468   7
  -5   1 -11 316.856 20.9824   7
   5  -1 -11 378.404 23.6377   2
  -1  -5 -11 344.218 24.1237   4
   1   5 -11 245.353 25.1755   8
  -5   1 -11 318.177 25.5229   1
   5  -1 -11 374.351 31.3610   9
   1   5 -11 285.530 21.6443   7
   1   5 -11 302.752 27.7657   9
   1   5  11 348.553 26.2049   1
  -5   1  11 311.060 24.3055   4
   5  -1  11 324.493 25.6550   3
  -1  -5  11 351.022 22.5743   6
  -1  -5  11 271.399 24.4477   2
   5  -1  11 310.347 21.2734   6
  -5   1  11 323.665 20.7198   6
  -1  -5  11 289.342 25.4757   9
   1   5  11 306.053 23.9414   8
  -5   1  11 305.853 22.9348   5
   5  -1  11 282.464 29.1203   9
   1   5  11 301.402 22.9797   6
  -2  -5 -11 0.21767 7.84626   7
   2   5 -11 10.1117 16.8687   3
   5  -2 -11 6.93686 10.1927   5
   2   5 -11 6.92214 13.9688   9
   5  -2 -11 5.51118 7.68833   7
  -2  -5 -11 -16.967 11.3865   5
   5  -2 -11 -10.660 16.9432   9
  -5   2 -11 6.49754 7.15435   8
  -5   2 -11 3.27555 11.6873   1
   2   5 -11 5.70060 8.78762   7
  -2  -5 -11 25.6852 10.6684   4
   5  -2 -11 3.82135 9.04581   2
  -5   2 -11 10.5401 6.81997   7
  -5   2  11 16.2081 11.4067   4
   2   5  11 29.4001 10.1121   6
   5  -2  11 -1.6080 14.1464   9
   5  -2  11 7.20615 8.12139   6
   2   5  11 15.1400 12.2841   1
  -5   2  11 7.63401 8.84990   5
  -5   2  11 1.77285 6.74946   6
  -2  -5  11 -1.9109 11.1976   9
  -2  -5  11 14.5773 10.3979   2
   5  -2  11 11.9312 10.6888   3
   2   5  11 10.0238 10.0929   8
  -2  -5  11 12.9120 7.99347   6
   5  -3 -11 68.2875 11.8986   5
  -5   3 -11 66.1045 10.3289   8
  -5   3 -11 69.2831 12.0556   7
   3   5 -11 83.2178 17.2488   9
   5  -3 -11 67.9240 12.2907   2
  -3  -5 -11 62.2215 12.5458   4
   5  -3 -11 74.6567 11.0172   7
   3   5 -11 103.352 22.2849   3
  -5   3 -11 68.5896 14.3320   1
  -3  -5 -11 44.9837 12.6460   1
   3   5 -11 51.7624 11.0905   7
  -3  -5 -11 68.9168 9.63184   7
   3   5  11 65.6165 12.6257   8
  -3  -5  11 43.2336 10.8465   6
  -3  -5  11 69.0460 15.1418   9
   5  -3  11 67.7111 14.6755   3
  -5   3  11 74.6443 11.7392   5
  -5   3  11 43.8530 8.68599   6
  -3  -5  11 62.5791 13.9036   5
  -5   3  11 84.9872 14.2789   4
   5  -3  11 48.3739 17.2085   9
   3   5  11 75.0608 16.6424   1
  -3  -5  11 61.8009 12.1821   2
   3   5  11 46.5653 12.8397   6
   5  -3  11 67.0038 12.7776   6
  -6  -1 -11 21.9321 7.83817   8
   6   1 -11 39.0747 12.6074   2
  -1   6 -11 -10.309 12.3850   8
   1  -6 -11 7.29598 11.2760   4
  -1   6 -11 7.58612 9.37193   7
  -6  -1 -11 16.4448 7.55909   7
   1  -6 -11 2.14559 8.07124   7
  -6  -1 -11 -10.393 19.2514   4
  -6  -1 -11 8.40588 11.1873   1
   1  -6 -11 -13.168 10.7173   5
  -1   6 -11 21.8807 15.0145   3
   6   1 -11 11.0792 18.2204   9
   6   1 -11 17.1749 8.94248   7
  -1   6  11 16.5593 12.1556   4
   6   1  11 3.22668 12.3825   3
   6   1  11 5.15605 10.3329   6
  -1   6  11 1.25133 14.2417   1
  -6  -1  11 15.9045 13.6504   4
   1  -6  11 12.0642 12.0510   2
  -6  -1  11 -5.7987 8.02859   6
   1  -6  11 2.37104 11.5203   9
   6   1  11 14.9730 9.11054   8
  -1   6  11 -14.000 9.49642   6
   1  -6  11 5.74011 10.2999   6
  -6  -1  11 8.52685 10.8716   2
  -6  -1  11 13.3917 10.7949   5
   6   0 -11 -8.0237 19.1492   9
   0  -6 -11 -0.2675 10.1090   4
   0   6 -11 -2.1206 12.6903   8
   0  -6 -11 10.3615 8.35097   7
   6   0 -11 -4.8755 8.34549   7
   0  -6 -11 -26.546 11.3770   5
  -6   0 -11 3.47348 10.5157   1
   0   6 -11 3.08031 14.6449   3
  -6   0 -11 -2.5789 7.26846   8
  -6   0 -11 -9.5132 6.67297   7
   6   0 -11 7.64632 10.0175   2
   0   6  11 14.5428 10.7670   6
   0   6  11 -10.949 11.9654   4
   0  -6  11 -5.0251 10.7865   9
  -6   0  11 -9.3443 10.0831   5
  -6   0  11 8.33950 7.78170   6
   0  -6  11 4.35452 9.08098   6
   0  -6  11 -11.443 12.6567   2
   6   0  11 -15.659 11.7643   3
   6   0  11 -4.3125 8.85517   8
   0   6  11 -26.006 14.3323   1
   0   6  11 8.89620 14.3231   8
  -6   0  11 -20.194 13.5921   4
  -6   1 -11 20.3282 12.5193   1
  -6   1 -11 8.50164 7.42918   8
  -1  -6 -11 11.2833 9.50895   7
  -6   1 -11 8.98209 7.31096   7
  -1  -6 -11 6.10064 13.2723   5
   6  -1 -11 10.2327 10.6713   2
   6  -1 -11 7.19094 9.19127   7
  -1  -6 -11 3.71054 10.1709   4
   1   6 -11 1.46846 16.3441   3
   1   6 -11 14.9130 14.7931   9
   6  -1 -11 11.5273 20.2834   9
   1   6 -11 4.71851 10.3753   7
   6  -1  11 7.52687 9.83644   8
  -1  -6  11 12.5226 10.5956   9
  -6   1  11 8.14974 8.14422   6
  -1  -6  11 14.1183 11.9909   2
  -6   1  11 1.37155 10.8798   5
   6  -1  11 18.5605 9.73460   6
   1   6  11 6.15113 11.7705   6
   6  -1  11 19.0439 19.4836   9
   6  -1  11 3.77380 13.0353   3
  -6   1  11 -3.4742 13.9861   4
   1   6  11 3.09744 14.9737   1
   1   6  11 -9.8030 13.1464   8
  -1  -6  11 12.7645 9.74780   6
   0   0 -12 2423.71 127.853   3
   0   0 -12 2493.04 127.843   4
   0   0 -12 2294.39 127.168   8
   0   0 -12 2328.67 127.015   5
   0   0 -12 2372.17 126.719   2
   0   0 -12 2301.33 129.281   9
   0   0 -12 2345.93 127.944   1
   0   0  12 2346.16 127.331   8
   0   0  12 2419.00 126.910   2
   0   0  12 2235.77 127.453   1
   0   0  12 2558.83 128.095   3
   0   0  12 2303.14 126.915   5
   0   0  12 2502.48 130.150   9
   0   0  12 2220.91 126.973   4
   1   0 -12 8.76007 6.80644   5
   0   1 -12 20.2390 6.06702   8
   0  -1 -12 24.7628 6.38335   5
   0  -1 -12 20.1883 8.75764   4
   0   1 -12 13.6810 8.05301   3
   0  -1 -12 17.2398 5.61438   8
  -1   0 -12 20.1021 5.78482   8
  -1   0 -12 19.3260 7.50010   3
   1   0 -12 15.2930 11.6711   9
   0  -1 -12 3.31673 6.43259   2
  -1   0 -12 19.6502 8.79850   1
   1   0 -12 6.68570 6.57772   2
   0  -1 -12 10.8260 9.60867   1
   1   0 -12 14.7046 8.15941   3
  -1   0 -12 15.5030 9.02924   4
   0   1 -12 3.49587 13.1998   9
   0   1  12 14.6500 10.8152   2
   0   1  12 12.6219 5.95385   8
   1   0  12 9.92217 7.17048   4
   0   1  12 12.1572 7.19895   5
   0   1  12 7.26769 7.18348   4
  -1   0  12 36.0162 13.7380   9
   1   0  12 -3.2341 12.1623   9
   1   0  12 20.3601 7.89776   3
   1   0  12 4.19372 6.21108   8
  -1   0  12 15.5663 7.87926   2
  -1   0  12 14.7714 7.04978   5
   0  -1  12 11.0137 7.71391   2
   0   1  12 25.3687 9.68833   1
   0  -1  12 10.8924 8.36725   3
   0   1  12 22.8076 9.49537   3
  -1   0  12 -0.2698 6.95706   3
   0  -1  12 -7.5346 12.3119   9
  -1   0  12 17.3280 7.24828   4
   1   1 -12 649.737 38.5576   2
  -1  -1 -12 635.458 38.9171   8
   1   1 -12 675.901 43.0122   9
  -1   1 -12 680.647 40.3401   3
   1  -1 -12 720.083 38.8322   5
  -1   1 -12 665.640 40.2078   1
  -1  -1 -12 679.460 40.7279   4
   1  -1 -12 726.192 40.1145   4
  -1   1 -12 621.443 39.0025   8
   1  -1 -12 663.687 38.1621   2
   1   1 -12 682.970 40.4727   3
  -1  -1 -12 678.637 40.2955   1
  -1  -1  12 680.913 39.0363   2
  -1  -1  12 717.810 44.1262   9
   1   1  12 720.154 39.7843   3
  -1   1  12 633.040 39.2467   4
   1  -1  12 672.909 43.4002   9
   1   1  12 640.294 39.8408   1
   1  -1  12 713.019 40.8632   3
  -1  -1  12 678.910 38.9137   5
   1   1  12 641.643 39.2647   8
  -1   1  12 671.229 38.8609   5
  -2  -1 -12 4.65517 9.90705   4
   2   1 -12 16.9835 7.79301   2
  -2  -1 -12 31.7992 9.80749   1
   2   1 -12 16.9193 9.53725   3
  -1   2 -12 6.73031 8.51939   3
  -2  -1 -12 10.7222 6.02805   8
   1  -2 -12 -2.2212 5.98286   2
  -1   2 -12 7.91747 7.43460   8
   1  -2 -12 7.69525 12.4628   4
  -2  -1  12 15.0810 8.26779   2
   1  -2  12 -4.8178 14.5212   9
  -1   2  12 5.53094 8.65733   4
  -1   2  12 12.2471 9.87006   1
   1  -2  12 8.79211 8.96660   3
   1  -2  12 1.27829 9.03824   2
   2   1  12 4.70669 7.02905   8
   2   1  12 18.6108 7.87448   3
  -2  -1  12 7.19348 7.69677   5
  -2   0 -12 808.729 47.5701   1
   0  -2 -12 866.857 46.3044   5
   0  -2 -12 686.379 48.1142   1
   0   2 -12 800.994 46.6038   8
   2   0 -12 867.056 49.4630   9
   2   0 -12 825.398 46.9149   5
  -2   0 -12 722.016 47.5704   4
  -2   0  12 686.925 46.8711   5
   0   2  12 895.391 46.4347   8
  -2   0  12 808.238 46.4430   4
   0  -2  12 839.691 46.9507   2
   2   0  12 920.716 48.0829   8
   2   0  12 872.647 49.8190   9
  -1  -2 -12 18.2395 10.1111   1
   2  -1 -12 25.4972 10.6541   9
  -2   1 -12 12.1955 6.13011   8
  -2   1 -12 4.81227 7.58206   3
   1   2 -12 1.47597 13.1844   9
  -2   1 -12 10.8276 8.95701   1
   2  -1 -12 8.90808 7.99774   5
  -1  -2 -12 9.21418 6.73407   5
   2  -1 -12 5.42639 7.34738   2
  -1  -2  12 -0.0740 12.3209   2
   1   2  12 7.74563 7.37878   8
   2  -1  12 1.94312 8.38830   3
  -1  -2  12 5.38794 12.6781   9
   1   2  12 12.5978 10.7322   1
  -2   1  12 23.6068 9.80565   4
  -2   1  12 10.7045 7.37703   5
   2  -1  12 3.08372 12.2539   9
  -1  -2  12 16.5942 7.35201   5
   2  -2 -12 230.987 17.4465   5
   2   2 -12 251.767 24.5059   9
   2  -2 -12 300.652 22.0947   2
  -2  -2 -12 218.364 20.1524   1
   2  -2 -12 220.567 20.5775   4
  -2   2 -12 223.015 18.2789   8
  -2   2 -12 222.710 20.5741   3
  -2  -2 -12 266.896 22.3907   4
   2   2 -12 239.116 18.6495   2
  -2   2 -12 217.889 21.2352   1
  -2   2  12 244.109 17.7665   5
   2   2  12 239.477 18.3147   8
   2  -2  12 259.639 21.6602   3
   2   2  12 247.711 20.0667   3
  -2   2  12 245.052 19.1265   4
   2   2  12 256.877 21.0128   1
   2  -2  12 222.680 24.8872   9
  -2  -2  12 246.290 24.1891   5
  -2  -2  12 230.750 18.8315   2
  -2   2  12 193.376 22.5375   1
   2  -3 -12 5.25379 10.5591   4
  -3  -2 -12 3.71806 11.6428   4
   3   2 -12 11.2021 8.82141   2
  -2   3 -12 -3.4606 9.84910   3
  -2   3 -12 4.07905 7.55625   8
   3   2 -12 0.27557 13.4139   3
  -3  -2 -12 4.46088 9.54658   1
   2  -3 -12 18.2068 8.37220   2
   3   2 -12 15.4155 13.9823   9
   2  -3 -12 3.80980 7.26918   5
  -2   3 -12 15.6098 7.60084   7
   2  -3  12 -8.7409 9.77017   3
   3   2  12 6.08215 7.63480   8
   3   2  12 6.54678 9.13530   3
  -2   3  12 9.08673 10.1963   4
   2  -3  12 5.19049 11.7982   9
  -3  -2  12 8.90797 8.81041   2
  -2   3  12 22.9931 12.0245   1
  -3  -2  12 11.5642 8.64661   5
  -1   3 -12 517.292 34.2123   8
   3   1 -12 571.512 33.8246   2
   3   1 -12 586.348 38.2836   9
  -1   3 -12 578.511 36.3121   3
   1  -3 -12 581.583 36.0520   4
  -3  -1 -12 458.387 34.5298   1
   1  -3 -12 558.050 33.3438   5
  -3  -1 -12 532.538 33.7157   8
   3   1  12 501.986 34.2714   8
  -1   3  12 587.532 34.9535   4
   1  -3  12 545.251 38.0159   9
  -3  -1  12 585.092 33.7891   5
  -1   3  12 532.728 35.8589   1
   3   1  12 595.678 35.4746   3
  -3  -1  12 588.921 34.2556   2
   0  -3 -12 103.897 14.1764   4
   3   0 -12 81.2983 11.9301   5
   3   0 -12 99.0384 12.9720   2
   0   3 -12 105.325 18.0093   3
   3   0 -12 107.248 17.7339   9
  -3   0 -12 85.1727 11.7325   1
  -3   0 -12 92.5177 11.1843   8
   0   3 -12 89.3875 13.5601   8
   0  -3 -12 107.891 12.3639   5
   0   3 -12 126.757 21.2986   9
   0   3  12 91.9275 12.5316   4
   0  -3  12 105.245 12.6382   2
  -3   0  12 97.2661 12.4835   5
   3   0  12 94.7558 15.1162   3
   0  -3  12 104.983 15.7242   9
   0   3  12 93.7443 13.0694   8
   0   3  12 93.5537 13.0958   1
   3   0  12 85.7781 13.2334   8
   3  -1 -12 580.901 34.2458   5
   1   3 -12 617.816 37.3906   3
   3  -1 -12 594.564 34.2374   2
   1   3 -12 585.442 39.1472   9
  -3   1 -12 534.907 34.1395   8
  -1  -3 -12 523.540 35.7785   1
  -1  -3 -12 513.705 36.0017   4
   3  -1 -12 608.546 38.2957   9
   1   3  12 552.116 33.9898   8
  -1  -3  12 552.471 34.6986   2
  -3   1  12 527.555 34.2195   4
  -1  -3  12 587.006 38.5093   9
  -3   1  12 571.440 34.0447   5
   3  -1  12 551.800 36.3538   3
   1   3  12 552.264 35.8891   1
   3  -2 -12 27.7319 8.42905   2
  -3   2 -12 1.40482 7.24023   8
  -2  -3 -12 9.10408 10.2512   1
  -3   2 -12 6.38435 10.5742   1
   2   3 -12 12.0059 13.5840   3
   3  -2 -12 11.6689 7.87835   5
  -2  -3 -12 15.9056 11.4695   4
   2   3 -12 31.1438 15.2225   9
  -3   2 -12 9.66577 9.34148   3
  -3   2 -12 14.0801 6.13395   7
  -3   2  12 7.99414 8.15977   5
  -2  -3  12 12.0219 8.71694   2
   2   3  12 -1.1772 12.0996   1
   3  -2  12 13.9133 13.1286   9
  -3   2  12 14.8898 9.40418   4
   2   3  12 13.3139 8.01427   8
  -2  -3  12 7.17914 12.5011   9
  -2  -3  12 26.0592 9.39018   5
   3  -2  12 12.7459 10.1506   3
  -3   3 -12 520.213 44.2206   1
   3   3 -12 583.891 38.7426   9
   3  -3 -12 589.956 33.3760   7
  -3  -3 -12 498.663 35.2456   1
  -3   3 -12 549.842 33.0204   7
   3  -3 -12 583.422 34.0502   2
   3   3 -12 591.218 40.7070   3
  -3  -3 -12 560.625 32.1902   7
   3   3 -12 552.593 32.1738   7
   3  -3 -12 561.592 33.7417   5
  -3  -3 -12 504.598 36.8594   4
  -3   3 -12 551.596 34.4911   8
  -3   3 -12 539.634 36.3354   3
   3  -3  12 530.452 37.4306   3
   3   3  12 491.171 36.0755   1
   3  -3  12 504.973 39.1035   9
  -3   3  12 603.327 35.2066   4
   3   3  12 472.788 33.9871   8
  -3  -3  12 537.388 34.3940   2
  -3   3  12 568.318 37.3280   1
  -3  -3  12 550.189 34.2573   5
   3  -4 -12 293.969 23.3012   5
  -4  -3 -12 277.086 25.1053   1
  -4  -3 -12 317.333 21.6152   7
   4   3 -12 329.532 29.1451   9
  -3   4 -12 249.862 26.2208   3
   4   3 -12 338.991 36.7744   3
  -4  -3 -12 304.472 28.5864   4
   4   3 -12 282.945 21.7718   7
  -3   4 -12 306.972 24.4000   8
  -3   4 -12 314.051 23.4617   7
   3  -4 -12 313.518 24.8937   2
   3  -4 -12 351.826 23.4274   7
  -3   4  12 345.415 25.5365   4
   4   3  12 312.832 23.6995   8
  -3   4  12 360.846 28.2424   1
   3  -4  12 286.398 27.5874   3
   4   3  12 382.496 28.3531   3
   3  -4  12 330.716 29.6179   9
  -4  -3  12 299.323 24.2235   2
  -4  -3  12 311.264 24.3866   5
   3  -4  12 311.994 22.8959   6
   2  -4 -12 71.8041 11.4943   5
   2  -4 -12 70.0233 10.4584   7
   4   2 -12 87.7215 13.1880   2
   4   2 -12 82.2376 17.3105   9
   4   2 -12 64.7593 8.97705   7
  -2   4 -12 61.2998 9.91705   7
   2  -4 -12 67.1163 11.6415   2
  -2   4 -12 73.5113 11.9711   8
  -4  -2 -12 73.8917 11.1923   7
  -4  -2 -12 59.6973 11.6560   1
  -2   4 -12 79.5800 14.8317   3
   2  -4 -12 64.9888 13.3507   4
  -4  -2 -12 46.7300 15.3072   4
  -2   4  12 64.9044 13.9328   1
   4   2  12 85.2245 14.1888   8
   2  -4  12 67.2707 14.3940   3
   4   2  12 58.5633 12.8548   3
  -4  -2  12 64.7847 11.8579   5
  -2   4  12 85.6175 13.9440   4
  -4  -2  12 83.6377 12.1179   2
   2  -4  12 69.7918 15.1785   9
  -4  -1 -12 79.3055 15.6980   4
  -1   4 -12 70.0447 14.9064   3
   1  -4 -12 95.6004 13.2250   5
  -4  -1 -12 85.6521 12.5041   1
  -4  -1 -12 75.7523 10.3791   7
   1  -4 -12 71.2872 13.3826   4
  -1   4 -12 75.9463 11.6591   8
   4   1 -12 105.918 17.5462   9
  -4  -1 -12 78.5817 11.8473   8
   4   1 -12 71.2020 10.5159   7
  -1   4 -12 84.3502 13.4449   7
   4   1 -12 69.3870 12.1423   2
  -1   4  12 61.0496 14.2191   1
  -1   4  12 120.456 16.2155   4
   4   1  12 59.7047 10.6822   8
   1  -4  12 61.2086 13.0676   9
   1  -4  12 75.7273 13.3115   2
   4   1  12 64.6724 12.2929   3
  -4  -1  12 72.7714 11.5385   5
  -4  -1  12 90.6624 11.9500   2
  -4   0 -12 29.8540 10.5596   1
  -4   0 -12 15.2176 5.86359   7
   0   4 -12 28.1984 9.65358   8
   0  -4 -12 18.2161 11.4399   4
   0  -4 -12 21.9034 9.29299   5
   0   4 -12 23.2755 8.34636   7
   0  -4 -12 25.0482 9.08197   7
  -4   0 -12 29.9159 7.17289   8
   4   0 -12 40.5187 10.0937   2
   4   0 -12 21.2541 14.9167   9
   0   4 -12 17.5734 14.7808   9
   0   4 -12 20.0985 12.7393   3
  -4   0  12 19.7715 9.35165   5
  -4   0  12 23.2503 10.7539   4
   0  -4  12 37.0834 11.6779   9
   0  -4  12 12.3281 10.9199   2
   4   0  12 21.3576 8.65082   8
   0   4  12 40.6238 12.6341   1
   0   4  12 29.6410 9.53527   8
   0   4  12 10.2393 10.7930   4
   4   0  12 41.5453 11.0972   3
  -1  -4 -12 61.1123 9.57086   7
   4  -1 -12 72.4396 16.2323   9
   4  -1 -12 74.0309 11.3546   2
  -1  -4 -12 75.2176 13.1019   4
  -4   1 -12 74.7574 12.3498   1
  -1  -4 -12 74.5767 11.7291   5
   1   4 -12 93.5135 16.4389   9
   4  -1 -12 75.9009 11.7512   5
  -4   1 -12 62.8748 9.85283   8
   4  -1 -12 59.7492 8.72578   7
   1   4 -12 77.6680 12.7788   7
  -4   1 -12 93.9645 10.6224   7
   1   4 -12 81.6411 16.1570   3
  -1  -4  12 75.6516 14.4397   9
   4  -1  12 71.1345 12.6998   3
  -1  -4  12 57.6397 12.4209   2
  -4   1  12 69.8016 12.4412   4
  -4   1  12 66.0482 11.3898   5
   4  -1  12 51.2410 15.6776   9
   1   4  12 106.888 14.6731   1
   1   4  12 82.5802 13.4537   8
   4  -2 -12 74.6045 11.0502   5
  -4   2 -12 58.9423 13.5558   1
  -4   2 -12 76.0243 10.2890   7
  -4   2 -12 50.8923 9.67949   8
  -2  -4 -12 64.5931 13.2087   1
   2   4 -12 75.0869 17.8767   3
   4  -2 -12 73.6676 11.1863   2
   4  -2 -12 76.1538 11.6607   7
  -2  -4 -12 59.2130 13.2717   5
  -2  -4 -12 58.3066 8.87913   7
   2   4 -12 68.4457 16.6282   9
  -2  -4 -12 71.5559 13.9927   4
   2   4 -12 50.8240 9.28459   7
  -4   2  12 68.1365 11.0376   5
   4  -2  12 53.9541 17.3088   9
  -2  -4  12 65.4132 12.1994   2
   2   4  12 61.0520 11.4038   8
   4  -2  12 49.8078 13.1170   3
  -2  -4  12 79.2943 15.2083   9
  -4   2  12 72.9602 13.3731   4
   2   4  12 88.4012 15.4578   1
   3   4 -12 313.372 33.7431   3
   4  -3 -12 320.860 22.8381   5
  -4   3 -12 310.407 30.3199   1
  -4   3 -12 289.559 22.4126   8
   3   4 -12 308.190 21.3765   7
  -4   3 -12 268.576 26.6870   3
  -4   3 -12 299.966 21.2389   7
   4  -3 -12 308.500 22.7103   7
  -3  -4 -12 327.283 21.0402   7
  -3  -4 -12 299.611 26.0178   1
  -3  -4 -12 280.894 26.7972   4
   3   4 -12 353.796 30.0521   9
   4  -3 -12 349.850 24.2981   2
   3   4  12 284.286 27.7800   1
   4  -3  12 302.253 33.4342   9
   4  -3  12 283.639 28.0876   3
  -4   3  12 340.044 26.0978   4
  -4   3  12 314.052 23.4013   5
  -3  -4  12 285.208 24.8741   2
  -3  -4  12 294.912 25.6525   5
   4  -3  12 337.113 22.6972   6
   3   4  12 266.283 22.3382   6
   3   4  12 283.877 23.7338   8
  -2   5 -12 50.4139 16.2025   3
  -5  -2 -12 28.0605 18.8931   4
  -2   5 -12 34.3214 13.1670   8
   2  -5 -12 66.2588 14.2598   4
   2  -5 -12 70.6473 12.6336   5
   5   2 -12 84.4283 19.3576   9
   5   2 -12 49.6241 10.0601   7
  -2   5 -12 49.1053 9.90301   7
  -5  -2 -12 35.3205 12.6883   1
   5   2 -12 66.3339 13.6225   2
  -5  -2 -12 68.4584 11.8166   7
   2  -5 -12 53.7577 10.1678   7
   2  -5  12 85.4988 14.3883   9
  -2   5  12 82.0914 14.9245   1
  -5  -2  12 42.0518 11.8740   5
   5   2  12 66.7756 14.8525   3
  -5  -2  12 63.5004 11.9531   2
   2  -5  12 59.1740 10.8462   6
   2  -5  12 49.6503 15.4808   3
   2  -5  12 67.4426 14.8867   2
  -2   5  12 59.8447 14.1924   4
   5   2  12 46.7397 11.5402   8
   5   2  12 44.8653 10.8889   6
   5   1 -12 474.501 35.9465   9
   1  -5 -12 376.276 27.0067   7
   5   1 -12 425.115 26.0836   7
  -1   5 -12 414.396 33.8527   3
  -1   5 -12 400.655 27.3809   7
   1  -5 -12 410.917 29.3780   5
   5   1 -12 426.300 29.4064   2
   1  -5 -12 434.649 31.5536   4
  -5  -1 -12 375.924 30.1601   1
  -5  -1 -12 403.809 25.9420   7
  -1   5 -12 372.794 31.1667   8
  -5  -1 -12 481.091 51.1880   4
  -5  -1 -12 398.935 27.6758   8
   5   1  12 439.157 26.6921   6
   5   1  12 387.845 32.0262   3
  -5  -1  12 449.694 28.5667   2
   1  -5  12 415.573 30.9460   9
  -1   5  12 440.868 30.0780   4
   1  -5  12 440.210 28.4990   6
  -5  -1  12 399.265 28.6540   5
  -1   5  12 473.175 32.0194   1
   1  -5  12 390.064 31.8232   2
   5   1  12 346.859 28.4820   8
   0  -5 -12 357.850 26.1050   5
   0  -5 -12 345.931 26.7180   4
  -5   0 -12 318.059 27.8976   1
  -5   0 -12 316.581 23.7970   8
  -5   0 -12 311.363 21.8968   7
   0  -5 -12 337.104 23.5925   7
   5   0 -12 367.706 33.7422   9
   5   0 -12 405.365 25.6925   2
   0   5 -12 330.248 30.7088   3
   5   0 -12 344.624 22.4977   7
   0   5 -12 299.905 28.0171   8
  -5   0  12 316.102 27.2612   4
   5   0  12 332.112 28.9757   3
   0  -5  12 341.655 23.9823   6
  -5   0  12 352.033 25.1814   5
   5   0  12 341.843 25.5150   8
   0  -5  12 346.576 27.7054   9
   0  -5  12 320.106 27.3159   2
   0   5  12 382.631 27.1090   8
   0   5  12 305.849 26.5728   4
   0   5  12 314.290 28.3448   1
   5   0  12 342.984 22.4073   6
   1   5 -12 467.520 34.3628   9
   5  -1 -12 434.350 38.8807   9
  -5   1 -12 401.997 26.4347   7
   5  -1 -12 426.881 26.8078   7
   5  -1 -12 426.344 29.1037   2
  -1  -5 -12 395.165 29.8586   4
  -1  -5 -12 429.031 27.8812   7
  -1  -5 -12 429.896 30.7142   5
   1   5 -12 428.095 35.2372   3
   1   5 -12 454.171 27.6525   7
  -5   1 -12 397.794 27.8328   8
  -5   1 -12 367.538 31.2639   1
   5  -1  12 375.769 32.3095   3
   1   5  12 448.792 32.2886   1
   5  -1  12 424.270 26.7890   6
  -5   1  12 431.082 30.5438   4
  -5   1  12 462.529 28.8059   5
   1   5  12 389.885 30.2861   8
  -1  -5  12 406.439 30.9323   2
  -1  -5  12 413.439 31.4448   9
   5  -1  12 382.385 29.3977   8
  -2  -5 -12 60.4535 9.93783   7
  -5   2 -12 47.3510 14.8962   1
   2   5 -12 56.9559 11.1960   7
   5  -2 -12 45.7622 10.0524   7
  -5   2 -12 51.0053 9.34548   8
  -5   2 -12 61.2010 9.52839   7
  -2  -5 -12 33.3625 13.1253   4
  -2  -5 -12 52.6741 15.1822   5
   5  -2 -12 63.9902 12.9802   5
   5  -2 -12 70.9221 12.2215   2
   2   5 -12 70.2880 21.3884   3
   2   5 -12 46.5722 16.6002   9
   5  -2  12 57.3922 14.4718   3
   2   5  12 34.1143 12.4917   8
  -5   2  12 62.4414 13.4773   4
   2   5  12 64.2663 15.6527   1
  -2  -5  12 50.7696 13.3038   2
   5  -2  12 50.7370 9.95732   6
  -2  -5  12 52.4031 10.6891   6
  -5   2  12 42.0139 11.9249   5
  -2  -5  12 39.9344 13.5688   9
   5  -2  12 70.5132 18.6198   9
   0   0 -13 7.30402 6.62709   8
   0   0 -13 14.0542 13.1588   1
   0   0 -13 8.31298 15.1541   9
   0   0 -13 4.22544 8.39502   3
   0   0  13 18.4227 16.1659   9
   0   0  13 7.86817 9.84630   3
   0   0  13 2.12274 7.23638   8
   1   0 -13 -2.9731 8.97369   2
   0  -1 -13 9.04382 7.83297   5
   0  -1 -13 -11.878 14.4682   1
   1   0 -13 5.79660 11.9986   5
  -1   0 -13 -7.9179 8.39870   3
   0  -1 -13 10.0320 10.8135   4
  -1   0 -13 14.4795 22.5823   1
   1   0 -13 10.6947 20.0683   9
   0   1 -13 -3.6229 8.61888   3
  -1   0 -13 -2.9244 6.20792   8
   0   1 -13 3.38798 15.1922   9
   0   1 -13 5.27988 6.99212   8
  -1   0  13 0.11101 9.04787   5
   0   1  13 19.3121 13.6814   1
   1   0  13 7.26898 11.4482   1
   0   1  13 18.4921 9.10437   4
   0   1  13 -9.1063 8.91800   5
   0   1  13 -2.8691 8.82170   8
   0  -1  13 0.41596 14.9012   9
   1   0  13 9.87703 7.15186   8
   0  -1  13 -0.2389 9.52526   3
   1   0  13 4.09306 8.91316   3
   0  -1  13 -2.8005 10.1237   8
  -1   0  13 6.62619 9.41817   2
   0  -1  13 19.7393 16.1629   2
   1  -1 -13 3.24588 7.72612   5
  -1   1 -13 -2.4955 6.52068   8
   1   1 -13 7.57884 8.71596   2
   1   1 -13 2.42459 14.8650   3
  -1  -1 -13 -5.9196 11.5208   4
  -1   1 -13 -1.6515 8.75945   3
  -1  -1 -13 12.9198 6.35960   8
   1  -1 -13 -4.9874 9.77364   4
   1   1 -13 10.6728 15.2307   9
  -1  -1 -13 15.9080 10.6928   1
  -1   1  13 13.1768 8.44725   5
   1   1  13 17.1972 11.9527   1
   1   1  13 -0.6333 7.05170   8
   1  -1  13 15.0933 8.53059   8
   1   1  13 10.5445 9.47910   4
   1  -1  13 1.63449 9.05398   3
  -1  -1  13 -9.8124 9.84960   3
  -1  -1  13 0.71247 9.15989   2
   1  -1  13 -21.178 13.6952   9
  -1   1  13 3.32039 9.28322   4
  -1   1  13 6.82481 11.5389   2
  -1  -1  13 3.88901 15.0124   9
  -2  -1 -13 417.205 27.6318   4
   2   1 -13 368.664 24.6761   2
   2   1 -13 399.042 32.3756   9
  -2  -1 -13 370.818 26.8449   1
  -1   2 -13 316.829 24.0895   8
  -1   2 -13 334.790 26.6837   3
   1  -2 -13 368.165 26.7716   4
   1  -2 -13 370.129 24.1498   5
  -2  -1 -13 347.466 24.1036   8
   2   1  13 362.560 24.9332   8
   2   1  13 413.884 26.5217   3
   1  -2  13 305.369 31.0195   9
  -1   2  13 361.431 24.0802   5
  -1   2  13 326.732 25.6106   4
  -2  -1  13 367.356 25.2828   2
  -1   2  13 328.907 27.9815   1
   1  -2  13 344.553 28.3611   3
  -2  -1  13 354.728 24.6555   5
   0   2 -13 1.95072 7.09933   8
   0  -2 -13 7.96920 7.69177   5
  -2   0 -13 4.40471 10.0451   1
   0   2 -13 -9.9432 9.58775   3
   2   0 -13 -13.617 8.46928   2
   0  -2 -13 20.6504 10.6910   4
   0   2 -13 -1.3097 16.2307   9
   2   0 -13 3.78487 8.45702   5
   2   0 -13 -9.8791 14.6596   9
  -2   0  13 3.12343 9.71439   2
   2   0  13 24.3196 9.11420   8
   2   0  13 23.5336 9.91111   3
   0  -2  13 -6.3981 11.0638   3
  -2   0  13 -4.8310 10.2745   4
   0  -2  13 0.11636 10.1079   2
  -2   0  13 -2.0937 8.59951   5
   0   2  13 24.6001 11.6018   1
   0   2  13 1.45174 9.96455   4
   0  -2  13 -7.5047 13.8325   9
   0   2  13 6.19690 7.69578   8
   1   2 -13 366.839 29.2908   3
   2  -1 -13 380.126 24.7196   5
   2  -1 -13 390.207 24.8694   2
  -1  -2 -13 348.421 28.1012   1
  -1  -2 -13 352.393 28.9335   4
  -2   1 -13 333.720 24.6211   8
  -2   1 -13 341.685 26.8739   3
  -2   1 -13 350.989 28.7518   1
   1   2 -13 370.753 32.5513   9
   2  -1  13 390.065 28.3613   3
   2  -1  13 348.221 26.2466   8
  -2   1  13 355.145 25.4909   4
   1   2  13 369.882 27.5184   1
   1   2  13 386.293 25.1696   8
  -1  -2  13 417.710 32.6090   9
   2  -1  13 427.949 31.8107   9
  -1  -2  13 346.186 25.6567   2
  -2   1  13 376.073 24.8986   5
  -2  -2 -13 266.499 23.9830   1
   2   2 -13 311.791 29.8528   9
  -2  -2 -13 294.317 24.9429   4
   2   2 -13 287.070 26.3975   3
   2  -2 -13 268.147 21.1381   2
  -2   2 -13 243.964 20.6070   8
  -2   2 -13 252.920 23.4886   3
   2  -2 -13 280.157 20.1840   5
  -2   2  13 279.597 22.0027   4
   2  -2  13 276.239 25.1739   3
   2  -2  13 258.865 28.5164   9
   2   2  13 266.269 21.6191   8
  -2  -2  13 263.162 21.2916   5
  -2  -2  13 330.621 29.9914   9
  -2  -2  13 285.587 22.2541   2
  -2   2  13 273.624 20.8216   5
   2   2  13 284.394 24.8620   1
  -3  -2 -13 97.2687 13.9231   1
   2  -3 -13 108.009 14.1716   5
   3   2 -13 122.369 20.1468   9
  -2   3 -13 100.982 14.6366   3
   2  -3 -13 115.289 16.2886   2
   3   2 -13 97.3044 14.5849   2
  -3  -2 -13 129.799 17.7992   4
  -2   3 -13 107.322 15.2470   8
  -2   3  13 140.806 21.8726   1
  -3  -2  13 105.305 14.2047   2
   3   2  13 115.882 19.4488   3
   2  -3  13 99.0566 17.5357   9
  -2   3  13 118.133 17.4408   4
  -3  -2  13 104.856 16.0379   5
   2  -3  13 118.696 20.4652   3
   3   2  13 117.212 16.4335   8
  -1   3 -13 92.7193 14.8022   8
   1  -3 -13 116.293 16.9442   4
  -3  -1 -13 125.103 18.0114   1
   3   1 -13 174.217 23.6730   9
   1  -3 -13 98.1293 13.8479   5
  -3  -1 -13 125.526 17.8656   4
  -3  -1 -13 92.9508 13.6400   8
   3   1 -13 129.923 16.3703   2
  -1   3 -13 118.212 16.1014   3
  -1   3  13 129.601 17.0881   1
   1  -3  13 104.940 16.1679   3
   1  -3  13 99.4419 16.7772   9
  -3  -1  13 130.940 16.7808   2
   3   1  13 98.5110 15.4324   8
  -3  -1  13 115.704 13.8090   5
  -1   3  13 113.905 15.1043   4
   3   1  13 130.741 19.1847   3
   1  -3  13 87.9251 20.2055   2
   3   0 -13 13.1211 16.2721   9
  -3   0 -13 3.48868 11.8534   1
  -3   0 -13 -4.9284 6.62246   8
   0   3 -13 -13.565 16.7769   9
   0  -3 -13 0.77707 8.72355   5
   0  -3 -13 -1.5291 11.4622   4
   0   3 -13 -1.9407 8.29241   8
   0   3 -13 10.4570 12.0787   3
   3   0 -13 28.7943 9.88200   2
  -3   0  13 -15.687 11.1144   4
   3   0  13 9.99929 9.09539   8
   0  -3  13 -6.3484 11.2896   2
   0  -3  13 -1.6819 13.4968   9
  -3   0  13 9.09323 10.7003   2
   0   3  13 3.52240 11.2655   4
  -3   0  13 6.97140 9.21514   5
   0   3  13 5.21415 12.3134   1
   3   0  13 20.8913 10.6841   3
   1   3 -13 132.864 17.7182   3
   3  -1 -13 138.441 15.8969   2
  -1  -3 -13 116.415 16.3135   1
  -3   1 -13 90.0620 14.8289   1
  -1  -3 -13 93.1511 16.0044   4
  -1  -3 -13 117.258 16.5208   5
   3  -1 -13 112.064 14.9212   5
  -3   1 -13 87.7215 13.2150   8
   1   3 -13 150.279 20.7926   9
   3  -1  13 114.585 16.4379   8
   3  -1  13 91.7552 15.0306   3
   3  -1  13 168.553 26.8859   9
   1   3  13 108.710 15.1940   8
  -1  -3  13 128.210 15.0963   2
  -1  -3  13 107.596 17.6589   9
  -3   1  13 106.159 14.6294   4
  -3   1  13 101.064 14.7306   5
   1   3  13 86.2449 16.6318   1
   2   3 -13 100.798 19.5871   9
  -2  -3 -13 99.6431 16.3660   4
   3  -2 -13 114.913 16.6036   2
   3  -2 -13 117.161 15.2597   5
   2   3 -13 122.849 18.3201   3
  -3   2 -13 111.646 17.0345   1
  -3   2 -13 88.6921 14.5621   3
  -3   2 -13 113.866 14.6167   8
  -2  -3 -13 128.076 20.5336   1
   3  -2  13 122.635 19.9771   9
   2   3  13 108.703 17.0012   1
  -3   2  13 126.000 15.0826   5
  -2  -3  13 128.462 19.7648   9
  -2  -3  13 115.786 17.5828   2
   2   3  13 114.020 15.8957   8
  -3   2  13 107.652 16.8396   4
   3  -2  13 134.610 21.1181   3
  -3   3 -13 13.3016 7.55832   7
   3  -3 -13 24.8080 10.9958   2
   3  -3 -13 0.50374 9.76295   5
  -3  -3 -13 20.3517 12.0066   1
  -3  -3 -13 11.8230 8.28467   7
   3   3 -13 -1.7231 17.8058   9
   3   3 -13 -7.6449 17.9971   3
  -3   3 -13 0.15061 9.44712   8
  -3   3 -13 2.31695 11.4913   3
  -3  -3 -13 25.0478 15.2549   4
   3   3 -13 4.33741 8.23139   7
  -3  -3  13 2.45044 10.8148   2
   3  -3  13 35.0299 17.0337   9
  -3  -3  13 21.3043 12.3160   5
  -3   3  13 2.99349 10.4879   5
   3  -3  13 -7.5908 12.1872   3
  -3   3  13 -5.9438 11.6120   4
   3   3  13 21.2736 15.5345   1
   3   3  13 5.41951 9.97427   8
   2  -4 -13 308.051 24.4588   5
   2  -4 -13 301.867 28.6896   4
  -4  -2 -13 346.236 22.2731   7
   4   2 -13 323.614 22.0155   7
  -4  -2 -13 273.370 32.4212   4
  -4  -2 -13 300.284 27.3142   1
  -2   4 -13 327.669 26.2891   8
  -2   4 -13 363.687 24.2057   7
   4   2 -13 361.835 32.8906   9
   4   2 -13 345.142 26.4757   2
  -2   4 -13 286.120 28.3919   3
   2  -4  13 386.397 31.0116   9
   2  -4  13 284.293 30.6996   3
  -4  -2  13 297.950 25.1432   5
   4   2  13 337.849 29.1801   3
  -4  -2  13 315.508 26.1367   2
  -2   4  13 367.300 27.3984   4
   4   2  13 309.781 25.8967   8
  -2   4  13 349.395 29.6276   1
  -4  -1 -13 246.338 17.8063   7
  -4  -1 -13 242.513 19.6301   8
   1  -4 -13 252.747 21.0465   5
  -1   4 -13 216.459 22.7954   8
   4   1 -13 258.490 22.8678   2
   4   1 -13 227.857 31.4478   9
  -4  -1 -13 208.668 24.2082   1
   1  -4 -13 210.279 25.5076   4
  -1   4 -13 252.984 25.5738   3
  -1   4 -13 275.364 20.6462   7
  -1   4  13 204.703 26.2746   1
  -4  -1  13 228.024 22.0008   2
   1  -4  13 301.301 26.3442   9
  -4  -1  13 217.479 21.7482   5
  -1   4  13 272.736 24.0543   4
   4   1  13 242.790 24.9799   3
   1  -4  13 235.046 25.7573   2
   4   1  13 251.429 21.2575   8
  -4   0 -13 6.44717 8.04416   8
   4   0 -13 13.4538 19.7599   9
   0   4 -13 -8.1203 14.6583   8
   0  -4 -13 19.3058 10.9314   5
   4   0 -13 23.1619 11.6765   2
  -4   0 -13 -3.6873 11.5872   1
  -4   0 -13 0.46901 5.98569   7
   0   4 -13 -12.499 14.2138   3
   0   4 -13 18.4573 10.2241   7
   0  -4 -13 -8.3717 12.3191   4
   0   4  13 -12.538 12.0725   4
   4   0  13 9.32701 9.64343   8
   4   0  13 -7.7472 12.0355   3
  -4   0  13 3.30059 11.7644   2
   0  -4  13 -7.3146 12.4078   2
   0   4  13 -13.405 13.9277   1
   0  -4  13 29.7743 12.7236   9
  -4   0  13 -8.7746 12.6255   4
  -4   0  13 -21.765 10.0628   5
  -4   1 -13 235.051 19.5588   8
   1   4 -13 244.481 29.6026   9
   4  -1 -13 276.981 22.2821   2
  -4   1 -13 232.962 17.9622   7
   1   4 -13 255.697 19.5758   7
  -4   1 -13 221.514 25.7548   1
  -1  -4 -13 267.365 22.5184   5
   1   4 -13 282.162 28.7200   3
   4  -1 -13 264.288 21.2685   5
  -1  -4 -13 224.574 25.5129   4
   4  -1  13 222.077 21.6547   8
  -1  -4  13 205.831 26.3257   9
  -4   1  13 240.401 21.0529   5
  -1  -4  13 234.360 23.9268   2
   4  -1  13 275.358 25.1531   3
   1   4  13 225.646 25.5457   1
  -4   1  13 227.807 22.9694   4
   1   4  13 263.304 21.7386   8
  -4   2 -13 296.909 21.8844   7
   4  -2 -13 335.511 24.9556   5
   2   4 -13 356.044 33.7667   9
   2   4 -13 358.883 33.5699   3
  -4   2 -13 318.160 24.0801   8
  -2  -4 -13 349.496 28.7199   4
   4  -2 -13 337.612 26.0451   2
  -4   2 -13 270.820 30.9058   1
   2   4 -13 277.386 22.5115   7
  -2  -4 -13 332.698 28.6752   1
  -2  -4 -13 317.184 22.6836   7
   4  -2  13 322.630 28.8720   3
  -2  -4  13 389.408 31.2950   9
  -4   2  13 307.267 27.3759   4
   4  -2  13 314.088 37.6731   9
  -2  -4  13 332.759 27.0166   2
   2   4  13 303.326 29.8431   1
   2   4  13 318.097 25.2952   8
  -4   2  13 337.400 24.3957   5
   0  -1 -14 416.870 29.8839   4
  -1   0 -14 426.553 34.3733   1
   1   0 -14 436.209 27.9803   2
   0   1 -14 346.660 29.3368   3
  -1   0 -14 347.439 26.6700   8
  -1   0  14 445.331 31.9608   2
   1   0  14 373.321 27.6349   8
   1   0  14 408.940 30.4586   3
   0   1  14 410.942 34.1533   1
   0  -1  14 410.804 30.7629   3
   0   1  14 407.571 32.5321   4
   0  -1  14 448.977 37.0428   9
  -1   1 -14 7.92343 8.10512   8
  -1  -1 -14 9.59233 18.8515   1
  -1   1 -14 6.38251 10.9680   3
   1   1 -14 39.1774 19.4415   9
   1  -1 -14 -5.2130 9.80820   5
   1  -1  14 -12.828 11.6553   3
   1  -1  14 -2.2368 9.46365   8
  -1  -1  14 -20.110 18.6351   9
   1   1  14 -2.7341 14.7027   1
   1   1  14 6.36433 9.11229   8
  -1   1  14 1.44405 11.1231   4
  -1   1  14 2.71987 10.7487   5
  -1  -1  14 7.65351 11.4271   2
   1  -1  14 21.7720 18.3577   9
   1  -2 -14 301.524 27.0332   4
   2   1 -14 300.372 24.8188   2
   1  -2 -14 314.395 22.6283   5
  -1   2 -14 288.739 26.0031   3
   2   1 -14 313.339 33.5664   9
  -2  -1 -14 265.944 27.7022   1
  -1   2 -14 268.236 22.9196   8
   2   1  14 241.768 22.8251   8
   1  -2  14 355.528 32.5434   9
   2   1  14 279.774 27.0637   1
  -2  -1  14 368.012 35.4268   9
  -1   2  14 291.122 23.1394   5
  -2  -1  14 305.842 25.2743   2
  -1   2  14 323.721 37.6196   1
  -1   2  14 298.013 25.1901   4
   1  -2  14 280.574 28.3918   3
  -2  -1  14 302.896 24.0266   5
   0  -2 -14 31.9315 14.9683   4
   2   0 -14 59.6406 12.2413   2
   0   2 -14 30.4006 13.4957   3
  -2   0 -14 43.6953 14.4883   1
  -2   0 -14 44.2537 9.47061   8
   0   2  14 4.15478 14.8267   1
   0  -2  14 48.4440 17.9599   9
   0   2  14 66.0973 13.6487   4
   2   0  14 39.6403 11.2151   8
  -2   0  14 34.4290 12.3172   5
   2   0  14 47.5640 12.7275   3
   0  -2  14 18.1163 13.6899   3
  -2   0  14 58.5735 13.1778   2
   2  -1 -14 294.091 23.2123   5
   2  -1 -14 353.245 24.4670   2
   1   2 -14 320.383 34.3337   9
   1   2 -14 302.275 27.4060   3
  -1  -2 -14 293.443 27.2875   4
  -1  -2 -14 249.846 27.9703   1
  -2   1 -14 256.476 21.8296   8
  -2   1  14 339.350 25.3193   2
  -1  -2  14 272.384 34.0716   9
   1   2  14 303.398 23.1934   8
  -1  -2  14 313.024 25.5701   2
   2  -1  14 309.543 27.6098   3
   2  -1  14 226.434 23.7642   8
  -2   1  14 283.236 23.9897   4
   1   2  14 276.256 25.3789   4
  -2   1  14 294.009 23.3067   5
   1   2  14 314.189 28.9680   1
   2  -2 -14 3.05846 10.3980   5
  -2  -2 -14 -24.549 14.8825   4
  -2   2 -14 12.3728 11.7693   3
   2   2 -14 19.9589 20.4386   9
  -2   2 -14 7.45708 9.50980   8
  -2  -2 -14 13.4457 14.2314   1
   2   2  14 4.65778 10.5102   8
   2  -2  14 4.36483 13.5517   3
   2   2  14 -14.379 15.4731   1
  -2   2  14 27.1704 12.2627   4
  -2   2  14 4.20091 10.4113   5
  -2  -2  14 9.99475 12.1695   2
  -2  -2  14 -12.340 19.3047   9
   2  -2  14 35.9950 17.9578   9
  -1   3 -14 11.3702 13.7617   3
  -3  -1 -14 52.3222 14.7555   1
   1  -3 -14 51.8276 15.2717   4
   3   1 -14 32.9000 13.1471   2
   3   1 -14 65.5657 21.8701   9
   1  -3  14 10.9524 14.7814   3
  -3  -1  14 46.3432 13.5481   2
   3   1  14 34.4362 14.5817   3
  -1   3  14 55.9723 16.7115   1
  -1   3  14 41.5031 14.4297   4
   1  -3  14 66.4905 17.9169   9
  -3  -1  14 38.5810 13.0501   5
   3   0 -14 695.886 61.0334   9
   0  -3 -14 767.245 47.3598   4
   0  -3 -14 709.569 43.9076   5
  -3   0 -14 628.541 46.2948   1
  -3   0 -14 683.144 43.9307   8
   3   0 -14 811.004 45.1809   2
   0   3 -14 755.163 47.8819   3
  -3   0  14 735.322 44.3222   5
   3   0  14 639.803 44.7755   8
   0  -3  14 674.131 46.3498   2
   0  -3  14 723.954 48.9485   3
  -3   0  14 786.879 45.8215   2
   0   3  14 745.336 45.9374   4
   0   3  14 723.215 46.8918   1
   3   0  14 763.652 46.8133   3
   0  -3  14 817.494 50.0045   9
   1   3 -14 12.8436 21.4992   9
   3  -1 -14 47.1939 12.7640   2
  -1  -3 -14 36.5326 15.7139   4
  -3   1 -14 46.9411 16.9752   1
   3  -1  14 67.2360 14.5480   3
   1   3  14 58.2788 15.5698   1
  -3   1  14 30.2863 14.1602   2
  -3   1  14 38.6922 14.6090   4
  -3   1  14 21.1900 12.1255   5
   1   3  14 14.1732 14.7639   4
  -1  -3  14 43.3703 14.0954   2
  -1  -3  14 6.33549 17.4542   9
   0   0   0    0.00    0.00   0

 _exptl_absorpt_process_details 'SADABS 2014/5'
 _exptl_absorpt_correction_type   multi-scan
 _exptl_absorpt_correction_T_max  0.7471
 _exptl_absorpt_correction_T_min  0.4078
 _exptl_special_details
)
 The following wavelength and cell were deduced by SADABS from the
 direction cosines etc. They are given here for emergency use only:
 CELL 0.71076    5.586    5.583    8.945   89.978   89.982   90.023
)

;
_shelx_hkl_checksum              22243
loop_
_space_group_symop_operation_xyz
'x, y, z'
'-x, -y, z'
'y, -x, -z'
'-y, x, -z'
'x, -y, z+1/2'
'-x, y, z+1/2'
'y, x, -z+1/2'
'-y, -x, -z+1/2'
loop_
_atom_site_label
_atom_site_type_symbol
_atom_site_fract_x
_atom_site_fract_y
_atom_site_fract_z
_atom_site_U_iso_or_equiv
_atom_site_adp_type
_atom_site_occupancy
_atom_site_site_symmetry_order
_atom_site_calc_flag
_atom_site_refinement_flags_posn
_atom_site_refinement_flags_adp
_atom_site_refinement_flags_occupancy
Ge1 Ge 0.65469(14) 0.22012(16) 0.08497(12) 0.00606(17) Uani 1 1 d . . .
Ge2 Ge 0.17682(13) 0.17682(13) 0.250000 0.00242(18) Uani 1 2 d S T P
Fe1 Fe 0.000000 0.500000 0.12591(18) 0.0022(2) Uani 1 2 d S T P
Fe2 Fe 0.500000 0.500000 0.250000 0.0029(3) Uani 1 4 d S T P
Fe3 Fe 0.000000 0.000000 0.000000 0.0022(3) Uani 1 4 d S T P
loop_
_atom_site_aniso_label
_atom_site_aniso_U_11
_atom_site_aniso_U_22
_atom_site_aniso_U_33
_atom_site_aniso_U_23
_atom_site_aniso_U_13
_atom_site_aniso_U_12
Ge1 0.0016(3) 0.0107(4) 0.0059(3) -0.0051(3) 0.0002(3) -0.0008(3)
Ge2 0.0021(2) 0.0021(2) 0.0031(4) 0.0016(3) -0.0016(3) -0.0017(3)
Fe1 0.0015(5) 0.0020(5) 0.0031(5) 0.000 0.000 -0.0002(4)
Fe2 0.0021(4) 0.0021(4) 0.0046(7) 0.000 0.000 -0.0012(6)
Fe3 0.0021(4) 0.0021(4) 0.0025(7) 0.000 0.000 0.000
loop_
_atom_type_symbol
_atom_type_description
_atom_type_scat_dispersion_real
_atom_type_scat_dispersion_imag
_atom_type_scat_source
Fe Fe 0.3463 0.8444 'International Tables Vol C Tables 4.2.6.8 and 6.1.1.4'
Ge Ge 0.1547 1.8001 'International Tables Vol C Tables 4.2.6.8 and 6.1.1.4'
loop_
_geom_angle_atom_site_label_1
_geom_angle_atom_site_label_2
_geom_angle_atom_site_label_3
_geom_angle
_geom_angle_site_symmetry_1
_geom_angle_site_symmetry_3
Fe2 Ge1 Fe3 147.50(4) . 1_655
Fe2 Ge1 Fe1 135.11(4) . 3
Fe3 Ge1 Fe1 77.30(3) 1_655 3
Fe2 Ge1 Fe1 76.90(4) . 1_655
Fe3 Ge1 Fe1 75.45(3) 1_655 1_655
Fe1 Ge1 Fe1 135.00(4) 3 1_655
Fe2 Ge1 Ge2 108.73(4) . 2_655
Fe3 Ge1 Ge2 59.84(2) 1_655 2_655
Fe1 Ge1 Ge2 97.34(4) 3 2_655
Fe1 Ge1 Ge2 99.01(4) 1_655 2_655
Fe1 Ge2 Fe1 151.37(5) 7 .
Fe1 Ge2 Fe2 75.68(2) 7 .
Fe1 Ge2 Fe2 75.68(2) . .
Fe1 Ge2 Fe3 122.24(3) 7 .
Fe1 Ge2 Fe3 74.25(3) . .
Fe2 Ge2 Fe3 122.00(2) . .
Fe1 Ge2 Fe3 74.25(3) 7 5
Fe1 Ge2 Fe3 122.24(3) . 5
Fe2 Ge2 Fe3 122.00(2) . 5
Fe3 Ge2 Fe3 116.00(4) . 5
Fe1 Ge2 Ge2 104.32(2) 7 2
Fe1 Ge2 Ge2 104.32(2) . 2
Fe2 Ge2 Ge2 180.00(2) . 2
Fe3 Ge2 Ge2 58.00(2) . 2
Fe3 Ge2 Ge2 58.00(2) 5 2
Fe1 Ge2 Ge1 70.07(4) 7 2_655
Fe1 Ge2 Ge1 119.93(4) . 2_655
Fe2 Ge2 Ge1 108.63(2) . 2_655
Fe3 Ge2 Ge1 52.25(2) . 2_655
Fe3 Ge2 Ge1 105.89(3) 5 2_655
Ge2 Ge2 Ge1 71.37(2) 2 2_655
Fe1 Ge2 Ge1 119.93(4) 7 8_565
Fe1 Ge2 Ge1 70.07(4) . 8_565
Fe2 Ge2 Ge1 108.63(2) . 8_565
Fe3 Ge2 Ge1 105.89(3) . 8_565
Fe3 Ge2 Ge1 52.25(2) 5 8_565
Ge2 Ge2 Ge1 71.37(2) 2 8_565
Ge1 Ge2 Ge1 142.75(5) 2_655 8_565
Ge2 Fe1 Ge2 123.33(7) 2_565 .
Ge2 Fe1 Ge1 83.05(3) 2_565 4
Ge2 Fe1 Ge1 149.69(5) . 4
Ge2 Fe1 Ge1 149.69(5) 2_565 3_565
Ge2 Fe1 Ge1 83.05(3) . 3_565
Ge1 Fe1 Ge1 77.11(7) 4 3_565
Ge2 Fe1 Ge1 103.04(4) 2_565 1_455
Ge2 Fe1 Ge1 85.00(3) . 1_455
Ge1 Fe1 Ge1 73.58(5) 4 1_455
Ge1 Fe1 Ge1 93.13(5) 3_565 1_455
Ge2 Fe1 Ge1 85.00(3) 2_565 2_665
Ge2 Fe1 Ge1 103.04(4) . 2_665
Ge1 Fe1 Ge1 93.13(5) 4 2_665
Ge1 Fe1 Ge1 73.58(5) 3_565 2_665
Ge1 Fe1 Ge1 163.23(9) 1_455 2_665
Ge1 Fe2 Ge1 100.88(5) 8_665 7
Ge1 Fe2 Ge1 155.35(4) 8_665 2_665
Ge1 Fe2 Ge1 84.40(5) 7 2_665
Ge1 Fe2 Ge1 84.40(5) 8_665 .
Ge1 Fe2 Ge1 155.35(4) 7 .
Ge1 Fe2 Ge1 100.88(5) 2_665 .
Ge1 Fe2 Ge2 77.68(2) 8_665 2_665
Ge1 Fe2 Ge2 102.32(2) 7 2_665
Ge1 Fe2 Ge2 77.68(2) 2_665 2_665
Ge1 Fe2 Ge2 102.32(2) . 2_665
Ge1 Fe2 Ge2 102.32(2) 8_665 .
Ge1 Fe2 Ge2 77.68(2) 7 .
Ge1 Fe2 Ge2 102.32(2) 2_665 .
Ge1 Fe2 Ge2 77.68(2) . .
Ge2 Fe2 Ge2 180.0 2_665 .
Ge1 Fe3 Ge1 143.25(5) 4_545 3_565
Ge1 Fe3 Ge1 95.702(15) 4_545 2_655
Ge1 Fe3 Ge1 95.702(15) 3_565 2_655
Ge1 Fe3 Ge1 95.702(15) 4_545 1_455
Ge1 Fe3 Ge1 95.702(15) 3_565 1_455
Ge1 Fe3 Ge1 143.25(5) 2_655 1_455
Ge1 Fe3 Ge2 139.32(3) 4_545 .
Ge1 Fe3 Ge2 77.08(3) 3_565 .
Ge1 Fe3 Ge2 67.91(2) 2_655 .
Ge1 Fe3 Ge2 80.87(2) 1_455 .
Ge1 Fe3 Ge2 80.87(2) 4_545 4
Ge1 Fe3 Ge2 67.91(2) 3_565 4
Ge1 Fe3 Ge2 139.32(3) 2_655 4
Ge1 Fe3 Ge2 77.07(3) 1_455 4
Ge2 Fe3 Ge2 135.99(3) . 4
Ge1 Fe3 Ge2 67.91(2) 4_545 3
Ge1 Fe3 Ge2 80.87(2) 3_565 3
Ge1 Fe3 Ge2 77.07(3) 2_655 3
Ge1 Fe3 Ge2 139.32(3) 1_455 3
Ge2 Fe3 Ge2 135.99(3) . 3
Ge2 Fe3 Ge2 64.00(4) 4 3
Ge1 Fe3 Ge2 77.07(3) 4_545 2
Ge1 Fe3 Ge2 139.32(3) 3_565 2
Ge1 Fe3 Ge2 80.87(2) 2_655 2
Ge1 Fe3 Ge2 67.91(2) 1_455 2
Ge2 Fe3 Ge2 64.00(4) . 2
Ge2 Fe3 Ge2 135.99(3) 4 2
Ge2 Fe3 Ge2 135.99(3) 3 2
loop_
_geom_bond_atom_site_label_1
_geom_bond_atom_site_label_2
_geom_bond_distance
_geom_bond_site_symmetry_2
Ge1 Fe2 2.3165(10) .
Ge1 Fe3 2.4098(9) 1_655
Ge1 Fe1 2.4107(16) 3
Ge1 Fe1 2.5092(9) 1_655
Ge1 Ge2 2.8243(10) 2_655
Ge2 Fe1 2.3374(9) 7
Ge2 Fe1 2.3374(9) .
Ge2 Fe2 2.5525(11) .
Ge2 Fe3 2.6354(7) .
Ge2 Fe3 2.6354(7) 5
Ge2 Ge2 2.793(2) 2
