#------------------------------------------------------------------------------
#$Date: 2016-02-16 22:30:59 +0200 (Tue, 16 Feb 2016) $
#$Revision: 176467 $
#$URL: svn://www.crystallography.net/cod/cif/4/34/17/4341768.cif $
#------------------------------------------------------------------------------
#
# This file is available in the Crystallography Open Database (COD),
# http://www.crystallography.net/
#
# All data on this site have been placed in the public domain by the
# contributors.
#
data_4341768
loop_
_publ_author_name
'Akselrud, Lev'
'Wosylus, Aron'
'Castillo, Rodrigo'
'Aydemir, Umut'
'Prots, Yurii'
'Schnelle, Walter'
'Grin, Yuri'
'Schwarz, Ulrich'
_publ_section_title
;
 BaGe6 and BaGe6-x: Incommensurately Ordered Vacancies as Electron Traps.
;
_journal_name_full               'Inorganic chemistry'
_journal_page_first              141126111906003
_journal_paper_doi               10.1021/ic5021065
_journal_year                    2014
_chemical_formula_sum            'Ba Ge6'
_chemical_formula_weight         572.9
_chemical_name_systematic        ' ?'
_space_group_IT_number           63
_symmetry_cell_setting           orthorhombic
_symmetry_Int_Tables_number      63
_symmetry_space_group_name_Hall  '-C 2c 2'
_symmetry_space_group_name_H-M   'C m c m'
_cell_angle_alpha                90
_cell_angle_beta                 90
_cell_angle_gamma                90
_cell_formula_units_Z            4
_cell_length_a                   4.7690(7)
_cell_length_b                   10.777(2)
_cell_length_c                   12.385(2)
_cell_measurement_temperature    293
_cell_volume                     636.53(18)
_diffrn_ambient_temperature      293
_diffrn_radiation_probe          x-ray
_diffrn_radiation_wavelength     1.54051
_exptl_absorpt_coefficient_mu    78.845
_exptl_crystal_density_diffrn    5.9777
_exptl_crystal_F_000             864
_pd_char_colour                  Grey
_pd_instr_location               ' ?'
_pd_meas_2theta_range_inc        0.005
_pd_meas_2theta_range_max        100.300
_pd_meas_2theta_range_min        10.025
_pd_meas_number_of_points        18056
_pd_proc_2theta_range_inc        0.005
_pd_proc_2theta_range_max        100.3
_pd_proc_2theta_range_min        10.025
_pd_proc_ls_pref_orient_corr     'March & Dollase'
_pd_proc_ls_profile_function     Pseudo-Voigt
_pd_proc_ls_prof_R_factor        0.0568
_pd_proc_ls_prof_wR_expected     0.0258
_pd_proc_ls_prof_wR_factor       0.0889
_refine_diff_density_max         1.13
_refine_diff_density_min         -1.12
_refine_ls_goodness_of_fit_all   3.45
_refine_ls_number_constraints    0
_refine_ls_number_parameters     24
_refine_ls_number_restraints     0
_refine_ls_R_factor_all          0.0289
_refine_ls_R_factor_gt           0.0286
_refine_ls_shift/su_max          0.0428
_refine_ls_shift/su_mean         0.0097
_refine_ls_weighting_scheme      sigma
_refine_ls_wR_factor_all         0.0477
_refine_ls_wR_factor_gt          0.0477
_cod_data_source_file            ic5021065_si_002.cif
_cod_data_source_block           I
_cod_depositor_comments
;
The following automatic conversions were performed:

'_diffrn_radiation_probe' value 'X-ray' changed to 'x-ray' according
to
/home/saulius/struct/COD-crude-data--automatic-downloads/rss-feeds/ACS/lib/dictionaries/cif_core.dic
dictionary named 'cif_core.dic' version 2.4.2 from 2011-04-26.

Automatic conversion script
Id: cif_fix_values 2935 2014-11-11 08:27:57Z andrius 
;
_cod_original_cell_volume        636.6(2)
_cod_original_formula_sum        'Ba1 Ge6'
_cod_database_code               4341768
loop_
_symmetry_equiv_pos_as_xyz
' x, y, z'
'-x, y, z'
' x, -y, 1/2+z'
'-x, -y, 1/2+z'
'-x, -y, -z'
' x, -y, -z'
'-x, y, 1/2-z'
' x, y, 1/2-z'
' 1/2+x, 1/2+y, z'
' 1/2-x, 1/2+y, z'
' 1/2+x, 1/2-y, 1/2+z'
' 1/2-x, 1/2-y, 1/2+z'
' 1/2-x, 1/2-y, -z'
' 1/2+x, 1/2-y, -z'
' 1/2-x, 1/2+y, 1/2-z'
' 1/2+x, 1/2+y, 1/2-z'
loop_
_atom_site_label
_atom_site_type_symbol
_atom_site_fract_x
_atom_site_fract_y
_atom_site_fract_z
_atom_site_adp_type
_atom_site_U_iso_or_equiv
_atom_site_site_symmetry_multiplicity
_atom_site_occupancy
_atom_site_calc_flag
Ba1 Ba 0 0.2696(18) 0.25 Uiso 0.014(5) 4 1 d
Ge1 Ge 0 0.249(3) 0.5357(13) Uiso 0.017(3) 8 1 d
Ge2 Ge 0 0.446(2) 0.6440(16) Uiso 0.017(3) 8 1 d
Ge3 Ge 0 0.0234(18) 0.598(2) Uiso 0.017(3) 8 1 d
loop_
_atom_type_symbol
_atom_type_scat_dispersion_real
_atom_type_scat_dispersion_imag
_atom_type_scat_source
Ba -1.0460 8.462 'International Tables Vol C tables 4.2.6.8 and 6.1.1.1'
Ge -1.0890 0.886 'International Tables Vol C tables 4.2.6.8 and 6.1.1.1'
loop_
_geom_angle_atom_site_label_1
_geom_angle_atom_site_label_2
_geom_angle_atom_site_label_3
_geom_angle
_geom_angle_site_symmetry_1
_geom_angle_site_symmetry_3
_geom_angle_publ_flag
Ge2 Ba1 Ge2 46.37(4) 3_564 5_566 yes
Ge2 Ba1 Ge1 116.78(6) 3_564 . yes
Ge2 Ba1 Ge1 70.40(5) 3_564 7_555 yes
Ge2 Ba1 Ge1 76.06(5) 3_564 11_554 yes
Ge2 Ba1 Ge1 76.06(5) 3_564 11_454 yes
Ge2 Ba1 Ge1 110.12(5) 3_564 13_556 yes
Ge2 Ba1 Ge1 110.12(5) 3_564 13_456 yes
Ge2 Ba1 Ge2 116.90(5) 3_564 11_554 yes
Ge2 Ba1 Ge2 116.90(5) 3_564 11_454 yes
Ge2 Ba1 Ge2 137.84(5) 3_564 13_556 yes
Ge2 Ba1 Ge2 137.84(5) 3_564 13_456 yes
Ge2 Ba1 Ge3 126.01(5) 3_564 3_554 yes
Ge2 Ba1 Ge3 172.38(6) 3_564 5_556 yes
Ge2 Ba1 Ge3 42.21(4) 3_564 11_554 yes
Ge2 Ba1 Ge3 42.21(4) 3_564 11_454 yes
Ge2 Ba1 Ge3 69.67(5) 3_564 13_556 yes
Ge2 Ba1 Ge3 69.67(5) 3_564 13_456 yes
Ge2 Ba1 Ba1 90.00(4) 3_564 1_655 yes
Ge2 Ba1 Ba1 90.00(4) 3_564 1_455 yes
Ge2 Ba1 Ge1 70.40(5) 5_566 . yes
Ge2 Ba1 Ge1 116.78(6) 5_566 7_555 yes
Ge2 Ba1 Ge1 110.12(5) 5_566 11_554 yes
Ge2 Ba1 Ge1 110.12(5) 5_566 11_454 yes
Ge2 Ba1 Ge1 76.06(5) 5_566 13_556 yes
Ge2 Ba1 Ge1 76.06(5) 5_566 13_456 yes
Ge2 Ba1 Ge2 137.84(5) 5_566 11_554 yes
Ge2 Ba1 Ge2 137.84(5) 5_566 11_454 yes
Ge2 Ba1 Ge2 116.90(5) 5_566 13_556 yes
Ge2 Ba1 Ge2 116.90(5) 5_566 13_456 yes
Ge2 Ba1 Ge3 172.38(6) 5_566 3_554 yes
Ge2 Ba1 Ge3 126.01(5) 5_566 5_556 yes
Ge2 Ba1 Ge3 69.67(5) 5_566 11_554 yes
Ge2 Ba1 Ge3 69.67(5) 5_566 11_454 yes
Ge2 Ba1 Ge3 42.21(4) 5_566 13_556 yes
Ge2 Ba1 Ge3 42.21(4) 5_566 13_456 yes
Ge2 Ba1 Ba1 90.00(4) 5_566 1_655 yes
Ge2 Ba1 Ba1 90.00(4) 5_566 1_455 yes
loop_
_geom_bond_atom_site_label_1
_geom_bond_atom_site_label_2
_geom_bond_distance
_geom_bond_site_symmetry_2
_geom_bond_publ_flag
Ba1 Ge2 3.33(3) 3_564 yes
Ba1 Ge2 3.33(3) 5_566 yes
Ba1 Ge1 3.55(2) . yes
Ba1 Ge1 3.55(2) 7_555 yes
Ba1 Ge1 3.574(12) 11_554 yes
Ba1 Ge1 3.574(12) 11_454 yes
Ba1 Ge1 3.574(12) 13_556 yes
Ba1 Ge1 3.574(12) 13_456 yes
Ba1 Ge2 3.58(2) 11_554 yes
Ba1 Ge2 3.58(2) 11_454 yes
Ba1 Ge2 3.58(2) 13_556 yes
Ba1 Ge2 3.58(2) 13_456 yes
Ba1 Ge3 3.68(3) 3_554 yes
Ba1 Ge3 3.68(3) 5_556 yes
Ba1 Ge3 3.77(2) 11_554 yes
Ba1 Ge3 3.77(2) 11_454 yes
Ba1 Ge3 3.77(2) 13_556 yes
Ba1 Ge3 3.77(2) 13_456 yes
Ba1 Ba1 4.7690(6) 1_655 yes
Ba1 Ba1 4.7690(6) 1_455 yes
Ge1 Ge2 2.51(4) . yes
Ge1 Ge1 2.543(8) 13_556 yes
Ge1 Ge1 2.543(8) 13_456 yes
Ge1 Ge3 2.55(4) . yes
Ge1 Ge3 3.37(4) 5_556 yes
Ge2 Ge3 2.590(12) 9_555 yes
Ge2 Ge3 2.590(12) 9_455 yes
Ge2 Ge2 2.63(3) 7_556 yes
Ge2 Ge2 3.75(3) 5_566 yes
Ge3 Ge3 2.48(4) 5_556 yes
Ge3 Ge3 3.77(4) 7_556 yes
loop_
_pd_proc_point_id
_pd_proc_2theta_corrected
_pd_proc_intensity_net
_pd_calc_intensity_net
_pd_proc_ls_weight
1 10.0020 642.00 674.60 25.34
2 10.0070 633.00 673.78 25.16
3 10.0120 705.00 672.98 26.55
4 10.0170 766.00 672.17 27.68
5 10.0220 784.00 671.37 28.00
6 10.0270 825.00 670.58 28.72
7 10.0320 832.00 669.78 28.84
8 10.0370 778.00 668.99 27.89
9 10.0420 770.00 668.21 27.75
10 10.0470 779.00 667.43 27.91
11 10.0520 759.00 666.66 27.55
12 10.0570 736.00 665.88 27.13
13 10.0620 732.00 665.12 27.06
14 10.0670 673.00 664.35 25.94
15 10.0720 594.00 663.59 24.37
16 10.0770 562.00 662.84 23.71
17 10.0820 563.00 662.09 23.73
18 10.0870 594.00 661.34 24.37
19 10.0920 627.00 660.59 25.04
20 10.0970 626.00 659.85 25.02
21 10.1020 649.00 659.12 25.48
22 10.1070 693.00 658.39 26.32
23 10.1120 765.00 657.66 27.66
24 10.1170 816.00 656.93 28.57
25 10.1220 761.00 656.21 27.59
26 10.1270 681.00 655.50 26.10
27 10.1320 623.00 654.78 24.96
28 10.1370 600.00 654.08 24.49
29 10.1420 608.00 653.37 24.66
30 10.1470 675.00 652.67 25.98
31 10.1520 683.00 651.97 26.13
32 10.1570 645.00 651.28 25.40
33 10.1620 641.00 650.59 25.32
34 10.1670 636.00 649.91 25.22
35 10.1720 569.00 649.22 23.85
36 10.1770 481.00 648.54 21.93
37 10.1820 433.00 647.87 20.81
38 10.1870 391.00 647.20 19.77
39 10.1920 367.00 646.53 19.16
40 10.1970 376.00 645.87 19.39
41 10.2020 414.00 645.21 20.35
42 10.2070 472.00 644.55 21.73
43 10.2120 578.00 643.90 24.04
44 10.2170 585.00 643.25 24.19
45 10.2220 616.00 642.60 24.82
46 10.2270 699.00 641.96 26.44
47 10.2320 706.00 641.33 26.57
48 10.2370 630.00 640.69 25.10
49 10.2420 562.00 640.06 23.71
50 10.2470 581.00 639.43 24.10
51 10.2520 599.00 638.81 24.47
52 10.2570 584.00 638.19 24.17
53 10.2620 564.00 637.57 23.75
54 10.2670 539.00 636.96 23.22
55 10.2720 519.00 636.35 22.78
56 10.2770 468.00 635.74 21.63
57 10.2820 504.00 635.14 22.45
58 10.2870 580.00 634.54 24.08
59 10.2920 574.00 633.94 23.96
60 10.2970 562.00 633.35 23.71
61 10.3020 601.00 632.76 24.52
62 10.3070 646.00 632.18 25.42
63 10.3120 657.00 631.59 25.63
64 10.3170 633.00 631.02 25.16
65 10.3220 631.00 630.44 25.12
66 10.3270 669.00 629.87 25.86
67 10.3320 762.00 629.30 27.60
68 10.3370 761.00 628.73 27.59
69 10.3420 719.00 628.17 26.81
70 10.3470 651.00 627.61 25.51
71 10.3520 633.00 627.06 25.16
72 10.3570 627.00 626.51 25.04
73 10.3620 640.00 625.96 25.30
74 10.3670 601.00 625.41 24.52
75 10.3720 607.00 624.87 24.64
76 10.3770 657.00 624.33 25.63
77 10.3820 568.00 623.80 23.83
78 10.3870 514.00 623.27 22.67
79 10.3920 615.00 622.74 24.80
80 10.3970 702.00 622.21 26.50
81 10.4020 713.00 621.69 26.70
82 10.4070 693.00 621.17 26.32
83 10.4120 731.00 620.65 27.04
84 10.4170 757.00 620.14 27.51
85 10.4220 789.00 619.63 28.09
86 10.4270 841.00 619.12 29.00
87 10.4320 825.00 618.62 28.72
88 10.4370 773.00 618.12 27.80
89 10.4420 714.00 617.62 26.72
90 10.4470 692.00 617.13 26.31
91 10.4520 715.00 616.63 26.74
92 10.4570 730.00 616.15 27.02
93 10.4620 710.00 615.66 26.65
94 10.4670 644.00 615.18 25.38
95 10.4720 579.00 614.70 24.06
96 10.4770 625.00 614.22 25.00
97 10.4820 651.00 613.75 25.51
98 10.4870 639.00 613.28 25.28
99 10.4920 587.00 612.81 24.23
100 10.4970 591.00 612.35 24.31
101 10.5020 644.00 611.89 25.38
102 10.5070 700.00 611.43 26.46
103 10.5120 789.00 610.97 28.09
104 10.5170 803.00 610.52 28.34
105 10.5220 802.00 610.07 28.32
106 10.5270 834.00 609.63 28.88
107 10.5320 822.00 609.18 28.67
108 10.5370 795.00 608.74 28.20
109 10.5420 772.00 608.31 27.78
110 10.5470 792.00 607.87 28.14
111 10.5520 708.00 607.44 26.61
112 10.5570 734.00 607.01 27.09
113 10.5620 743.00 606.59 27.26
114 10.5670 734.00 606.16 27.09
115 10.5720 742.00 605.74 27.24
116 10.5770 732.00 605.32 27.06
117 10.5820 654.00 604.91 25.57
118 10.5870 637.00 604.50 25.24
119 10.5920 656.00 604.09 25.61
120 10.5970 733.00 603.68 27.07
121 10.6020 732.00 603.28 27.06
122 10.6070 756.00 602.88 27.50
123 10.6120 800.00 602.48 28.28
124 10.6170 799.00 602.09 28.27
125 10.6220 734.00 601.69 27.09
126 10.6270 760.00 601.30 27.57
127 10.6320 698.00 600.92 26.42
128 10.6370 759.00 600.53 27.55
129 10.6420 707.00 600.15 26.59
130 10.6470 751.00 599.77 27.40
131 10.6520 644.00 599.39 25.38
132 10.6570 609.00 599.02 24.68
133 10.6620 635.00 598.65 25.20
134 10.6670 641.00 598.28 25.32
135 10.6720 665.00 597.91 25.79
136 10.6770 647.00 597.55 25.44
137 10.6820 654.00 597.19 25.57
138 10.6870 675.00 596.83 25.98
139 10.6920 600.00 596.48 24.49
140 10.6970 585.00 596.13 24.19
141 10.7020 639.00 595.78 25.28
142 10.7070 678.00 595.43 26.04
143 10.7120 689.00 595.08 26.25
144 10.7170 735.00 594.74 27.11
145 10.7220 689.00 594.40 26.25
146 10.7270 728.00 594.06 26.98
147 10.7320 679.00 593.73 26.06
148 10.7370 603.00 593.40 24.56
149 10.7420 613.00 593.07 24.76
150 10.7470 631.00 592.74 25.12
151 10.7520 631.00 592.41 25.12
152 10.7570 584.00 592.09 24.17
153 10.7620 471.00 591.77 21.70
154 10.7670 489.00 591.45 22.11
155 10.7720 637.00 591.14 25.24
156 10.7770 706.00 590.83 26.57
157 10.7820 702.00 590.52 26.50
158 10.7870 658.00 590.21 25.65
159 10.7920 672.00 589.90 25.92
160 10.7970 603.00 589.60 24.56
161 10.8020 629.00 589.30 25.08
162 10.8070 682.00 589.00 26.12
163 10.8120 689.00 588.71 26.25
164 10.8170 747.00 588.41 27.33
165 10.8220 731.00 588.12 27.04
166 10.8270 677.00 587.83 26.02
167 10.8320 665.00 587.55 25.79
168 10.8370 654.00 587.26 25.57
169 10.8420 630.00 586.98 25.10
170 10.8470 671.00 586.70 25.90
171 10.8520 741.00 586.42 27.22
172 10.8570 696.00 586.15 26.38
173 10.8620 644.00 585.88 25.38
174 10.8670 655.00 585.60 25.59
175 10.8720 635.00 585.34 25.20
176 10.8770 560.00 585.07 23.66
177 10.8820 577.00 584.81 24.02
178 10.8870 548.00 584.55 23.41
179 10.8920 535.00 584.29 23.13
180 10.8970 512.00 584.03 22.63
181 10.9020 562.00 583.78 23.71
182 10.9070 628.00 583.52 25.06
183 10.9120 697.00 583.27 26.40
184 10.9170 617.00 583.02 24.84
185 10.9220 544.00 582.78 23.32
186 10.9270 538.00 582.53 23.19
187 10.9320 530.00 582.29 23.02
188 10.9370 518.00 582.05 22.76
189 10.9420 563.00 581.82 23.73
190 10.9470 563.00 581.58 23.73
191 10.9520 576.00 581.35 24.00
192 10.9570 587.00 581.12 24.23
193 10.9620 522.00 580.89 22.85
194 10.9670 463.00 580.66 21.52
195 10.9720 461.00 580.44 21.47
196 10.9770 450.00 580.21 21.21
197 10.9820 454.00 579.99 21.31
198 10.9870 501.00 579.78 22.38
199 10.9920 521.00 579.56 22.83
200 10.9970 516.00 579.34 22.72
201 11.0020 545.00 579.13 23.35
202 11.0070 605.00 578.92 24.60
203 11.0120 642.00 578.71 25.34
204 11.0170 662.00 578.51 25.73
205 11.0220 695.00 578.30 26.36
206 11.0270 710.00 578.10 26.65
207 11.0320 702.00 577.90 26.50
208 11.0370 688.00 577.70 26.23
209 11.0420 635.00 577.51 25.20
210 11.0470 566.00 577.31 23.79
211 11.0520 501.00 577.12 22.38
212 11.0570 514.00 576.93 22.67
213 11.0620 510.00 576.74 22.58
214 11.0670 445.00 576.55 21.09
215 11.0720 440.00 576.37 20.98
216 11.0770 468.00 576.19 21.63
217 11.0820 507.00 576.01 22.52
218 11.0870 485.00 575.83 22.02
219 11.0920 460.00 575.65 21.45
220 11.0970 483.00 575.47 21.98
221 11.1020 532.00 575.30 23.07
222 11.1070 612.00 575.13 24.74
223 11.1120 678.00 574.96 26.04
224 11.1170 640.00 574.79 25.30
225 11.1220 576.00 574.63 24.00
226 11.1270 620.00 574.46 24.90
227 11.1320 627.00 574.30 25.04
228 11.1370 660.00 574.14 25.69
229 11.1420 723.00 573.98 26.89
230 11.1470 750.00 573.83 27.39
231 11.1520 709.00 573.67 26.63
232 11.1570 673.00 573.52 25.94
233 11.1620 563.00 573.37 23.73
234 11.1670 504.00 573.22 22.45
235 11.1720 508.00 573.07 22.54
236 11.1770 609.00 572.92 24.68
237 11.1820 590.00 572.78 24.29
238 11.1870 582.00 572.64 24.12
239 11.1920 571.00 572.50 23.90
240 11.1970 576.00 572.36 24.00
241 11.2020 483.00 572.22 21.98
242 11.2070 524.00 572.08 22.89
243 11.2120 651.00 571.95 25.51
244 11.2170 680.00 571.82 26.08
245 11.2220 759.00 571.69 27.55
246 11.2270 734.00 571.56 27.09
247 11.2320 716.00 571.43 26.76
248 11.2370 799.00 571.31 28.27
249 11.2420 760.00 571.18 27.57
250 11.2470 619.00 571.06 24.88
251 11.2520 645.00 570.94 25.40
252 11.2570 678.00 570.82 26.04
253 11.2620 631.00 570.71 25.12
254 11.2670 568.00 570.59 23.83
255 11.2720 521.00 570.47 22.83
256 11.2770 609.00 570.36 24.68
257 11.2820 688.00 570.25 26.23
258 11.2870 638.00 570.14 25.26
259 11.2920 663.00 570.04 25.75
260 11.2970 690.00 569.93 26.27
261 11.3020 699.00 569.83 26.44
262 11.3070 760.00 569.72 27.57
263 11.3120 746.00 569.62 27.31
264 11.3170 763.00 569.52 27.62
265 11.3220 704.00 569.42 26.53
266 11.3270 706.00 569.33 26.57
267 11.3320 693.00 569.23 26.32
268 11.3370 666.00 569.14 25.81
269 11.3420 643.00 569.05 25.36
270 11.3470 623.00 568.96 24.96
271 11.3520 585.00 568.87 24.19
272 11.3570 557.00 568.78 23.60
273 11.3620 541.00 568.70 23.26
274 11.3670 519.00 568.61 22.78
275 11.3720 479.00 568.53 21.89
276 11.3770 417.00 568.45 20.42
277 11.3820 368.00 568.37 19.18
278 11.3870 422.00 568.29 20.54
279 11.3920 447.00 568.21 21.14
280 11.3970 438.00 568.14 20.93
281 11.4020 454.00 568.06 21.31
282 11.4070 450.00 567.99 21.21
283 11.4120 421.00 567.92 20.52
284 11.4170 415.00 567.85 20.37
285 11.4220 430.00 567.78 20.74
286 11.4270 493.00 567.72 22.20
287 11.4320 561.00 567.65 23.69
288 11.4370 541.00 567.59 23.26
289 11.4420 537.00 567.52 23.17
290 11.4470 534.00 567.46 23.11
291 11.4520 473.00 567.40 21.75
292 11.4570 439.00 567.34 20.95
293 11.4620 485.00 567.29 22.02
294 11.4670 526.00 567.23 22.93
295 11.4720 516.00 567.18 22.72
296 11.4770 500.00 567.12 22.36
297 11.4820 484.00 567.07 22.00
298 11.4870 440.00 567.02 20.98
299 11.4920 395.00 566.97 19.87
300 11.4970 369.00 566.92 19.21
301 11.5020 350.00 566.88 18.71
302 11.5070 335.00 566.83 18.30
303 11.5120 430.00 566.79 20.74
304 11.5170 516.00 566.75 22.72
305 11.5220 504.00 566.71 22.45
306 11.5270 544.00 566.67 23.32
307 11.5320 603.00 566.63 24.56
308 11.5370 649.00 566.59 25.48
309 11.5420 630.00 566.55 25.10
310 11.5470 574.00 566.91 23.96
311 11.5520 578.00 566.90 24.04
312 11.5570 532.00 566.88 23.07
313 11.5620 488.00 566.87 22.09
314 11.5670 487.00 566.87 22.07
315 11.5720 443.00 566.86 21.05
316 11.5770 388.00 566.86 19.70
317 11.5820 410.00 566.86 20.25
318 11.5870 485.00 566.86 22.02
319 11.5920 540.00 566.87 23.24
320 11.5970 528.00 566.88 22.98
321 11.6020 523.00 566.88 22.87
322 11.6070 518.00 566.90 22.76
323 11.6120 555.00 566.91 23.56
324 11.6170 564.00 566.92 23.75
325 11.6220 589.00 566.94 24.27
326 11.6270 618.00 566.96 24.86
327 11.6320 648.00 566.98 25.46
328 11.6370 659.00 567.00 25.67
329 11.6420 674.00 567.03 25.96
330 11.6470 631.00 567.05 25.12
331 11.6520 638.00 567.08 25.26
332 11.6570 629.00 567.11 25.08
333 11.6620 601.00 567.14 24.52
334 11.6670 668.00 567.17 25.85
335 11.6720 659.00 567.20 25.67
336 11.6770 593.00 567.24 24.35
337 11.6820 657.00 567.28 25.63
338 11.6870 599.00 567.32 24.47
339 11.6920 650.00 567.36 25.50
340 11.6970 690.00 567.40 26.27
341 11.7020 709.00 567.44 26.63
342 11.7070 679.00 567.49 26.06
343 11.7120 722.00 567.53 26.87
344 11.7170 709.00 567.58 26.63
345 11.7220 589.00 567.63 24.27
346 11.7270 625.00 567.68 25.00
347 11.7320 543.00 567.74 23.30
348 11.7370 623.00 567.79 24.96
349 11.7420 660.00 567.85 25.69
350 11.7470 623.00 567.91 24.96
351 11.7520 617.00 567.97 24.84
352 11.7570 600.00 568.03 24.49
353 11.7620 614.00 568.09 24.78
354 11.7670 555.00 568.16 23.56
355 11.7720 489.00 568.22 22.11
356 11.7770 473.00 568.29 21.75
357 11.7820 485.00 568.36 22.02
358 11.7870 493.00 568.43 22.20
359 11.7920 456.00 568.51 21.35
360 11.7970 468.00 568.58 21.63
361 11.8020 549.00 568.66 23.43
362 11.8070 527.00 568.73 22.96
363 11.8120 558.00 568.81 23.62
364 11.8170 547.00 568.90 23.39
365 11.8220 538.00 568.98 23.19
366 11.8270 608.00 569.06 24.66
367 11.8320 603.00 569.15 24.56
368 11.8370 515.00 569.24 22.69
369 11.8420 476.00 569.33 21.82
370 11.8470 467.00 569.42 21.61
371 11.8520 526.00 569.51 22.93
372 11.8570 576.00 569.61 24.00
373 11.8620 559.00 569.71 23.64
374 11.8670 556.00 569.80 23.58
375 11.8720 549.00 569.91 23.43
376 11.8770 568.00 570.01 23.83
377 11.8820 543.00 570.11 23.30
378 11.8870 533.00 570.22 23.09
379 11.8920 574.00 570.33 23.96
380 11.8970 586.00 570.44 24.21
381 11.9020 649.00 570.55 25.48
382 11.9070 638.00 570.66 25.26
383 11.9120 631.00 570.78 25.12
384 11.9170 652.00 570.90 25.53
385 11.9220 691.00 571.02 26.29
386 11.9270 719.00 571.14 26.81
387 11.9320 706.00 571.27 26.57
388 11.9370 690.00 571.39 26.27
389 11.9420 666.00 571.52 25.81
390 11.9470 734.00 571.65 27.09
391 11.9520 752.00 571.78 27.42
392 11.9570 755.00 571.92 27.48
393 11.9620 733.00 572.06 27.07
394 11.9670 614.00 572.20 24.78
395 11.9720 589.00 572.34 24.27
396 11.9770 624.00 572.48 24.98
397 11.9820 646.00 572.63 25.42
398 11.9870 638.00 572.78 25.26
399 11.9920 580.00 572.93 24.08
400 11.9970 585.00 573.09 24.19
401 12.0020 617.00 573.24 24.84
402 12.0070 644.00 573.40 25.38
403 12.0120 612.00 573.56 24.74
404 12.0170 608.00 573.73 24.66
405 12.0220 581.00 573.90 24.10
406 12.0270 616.00 574.07 24.82
407 12.0320 667.00 574.24 25.83
408 12.0370 654.00 574.42 25.57
409 12.0420 622.00 574.60 24.94
410 12.0470 603.00 574.78 24.56
411 12.0520 563.00 574.97 23.73
412 12.0570 512.00 575.16 22.63
413 12.0620 539.00 575.35 23.22
414 12.0670 544.00 575.55 23.32
415 12.0720 563.00 575.75 23.73
416 12.0770 588.00 575.95 24.25
417 12.0820 530.00 576.16 23.02
418 12.0870 450.00 576.37 21.21
419 12.0920 426.00 576.58 20.64
420 12.0970 420.00 576.80 20.49
421 12.1020 398.00 577.03 19.95
422 12.1070 378.00 577.26 19.44
423 12.1120 409.00 577.49 20.22
424 12.1170 465.00 577.73 21.56
425 12.1220 487.00 577.97 22.07
426 12.1270 562.00 578.22 23.71
427 12.1320 622.00 578.47 24.94
428 12.1370 644.00 578.73 25.38
429 12.1420 665.00 578.99 25.79
430 12.1470 651.00 579.26 25.51
431 12.1520 640.00 579.54 25.30
432 12.1570 618.00 579.82 24.86
433 12.1620 593.00 580.11 24.35
434 12.1670 577.00 580.41 24.02
435 12.1720 577.00 580.71 24.02
436 12.1770 611.00 581.02 24.72
437 12.1820 577.00 581.34 24.02
438 12.1870 520.00 581.67 22.80
439 12.1920 575.00 582.01 23.98
440 12.1970 643.00 582.35 25.36
441 12.2020 636.00 582.71 25.22
442 12.2070 636.00 583.08 25.22
443 12.2120 670.00 677.30 25.88
444 12.2170 712.00 680.79 26.68
445 12.2220 761.00 684.35 27.59
446 12.2270 736.00 687.95 27.13
447 12.2320 688.00 691.61 26.23
448 12.2370 697.00 695.33 26.40
449 12.2420 710.00 699.11 26.65
450 12.2470 663.00 702.95 25.75
451 12.2520 635.00 706.85 25.20
452 12.2570 677.00 710.82 26.02
453 12.2620 752.00 714.86 27.42
454 12.2670 741.00 718.97 27.22
455 12.2720 682.00 723.15 26.12
456 12.2770 642.00 727.41 25.34
457 12.2820 608.00 731.75 24.66
458 12.2870 683.00 736.17 26.13
459 12.2920 709.00 740.68 26.63
460 12.2970 688.00 745.28 26.23
461 12.3020 682.00 749.97 26.12
462 12.3070 665.00 754.76 25.79
463 12.3120 729.00 759.64 27.00
464 12.3170 842.00 764.61 29.02
465 12.3220 828.00 769.68 28.77
466 12.3270 863.00 774.83 29.38
467 12.3320 886.00 780.06 29.77
468 12.3370 829.00 785.37 28.79
469 12.3420 872.00 790.75 29.53
470 12.3470 864.00 796.17 29.39
471 12.3520 808.00 801.64 28.43
472 12.3570 819.00 807.11 28.62
473 12.3620 854.00 812.59 29.22
474 12.3670 816.00 818.03 28.57
475 12.3720 849.00 823.42 29.14
476 12.3770 827.00 828.73 28.76
477 12.3820 825.00 833.92 28.72
478 12.3870 849.00 838.97 29.14
479 12.3920 781.00 843.85 27.95
480 12.3970 723.00 848.55 26.89
481 12.4020 743.00 853.05 27.26
482 12.4070 746.00 857.37 27.31
483 12.4120 817.00 861.52 28.58
484 12.4170 789.00 865.54 28.09
485 12.4220 929.00 869.47 30.48
486 12.4270 936.00 873.38 30.59
487 12.4320 881.00 877.31 29.68
488 12.4370 893.00 881.31 29.88
489 12.4420 869.00 885.44 29.48
490 12.4470 936.00 889.72 30.59
491 12.4520 962.00 894.19 31.02
492 12.4570 923.00 898.86 30.38
493 12.4620 908.00 903.76 30.13
494 12.4670 851.00 908.89 29.17
495 12.4720 884.00 914.25 29.73
496 12.4770 926.00 919.86 30.43
497 12.4820 937.00 925.70 30.61
498 12.4870 893.00 931.78 29.88
499 12.4920 823.00 938.09 28.69
500 12.4970 810.00 944.64 28.46
501 12.5020 810.00 951.40 28.46
502 12.5070 781.00 958.38 27.95
503 12.5120 793.00 965.58 28.16
504 12.5170 812.00 972.99 28.50
505 12.5220 887.00 980.60 29.78
506 12.5270 940.00 988.42 30.66
507 12.5320 878.00 996.44 29.63
508 12.5370 872.00 1004.67 29.53
509 12.5420 904.00 1013.09 30.07
510 12.5470 920.00 1021.73 30.33
511 12.5520 974.00 1030.57 31.21
512 12.5570 968.00 1039.62 31.11
513 12.5620 941.00 1048.89 30.68
514 12.5670 976.00 1058.38 31.24
515 12.5720 972.00 1068.10 31.18
516 12.5770 937.00 1078.05 30.61
517 12.5820 862.00 1088.25 29.36
518 12.5870 825.00 1098.69 28.72
519 12.5920 893.00 1109.40 29.88
520 12.5970 1008.00 1120.37 31.75
521 12.6020 1052.00 1131.63 32.43
522 12.6070 1077.00 1143.17 32.82
523 12.6120 1113.00 1155.02 33.36
524 12.6170 1154.00 1167.18 33.97
525 12.6220 1247.00 1179.68 35.31
526 12.6270 1316.00 1192.51 36.28
527 12.6320 1291.00 1205.70 35.93
528 12.6370 1305.00 1219.27 36.12
529 12.6420 1296.00 1233.23 36.00
530 12.6470 1205.00 1247.61 34.71
531 12.6520 1196.00 1262.41 34.58
532 12.6570 1244.00 1277.67 35.27
533 12.6620 1303.00 1293.40 36.10
534 12.6670 1274.00 1309.63 35.69
535 12.6720 1142.00 1326.39 33.79
536 12.6770 1087.00 1343.71 32.97
537 12.6820 1109.00 1361.61 33.30
538 12.6870 1111.00 1380.13 33.33
539 12.6920 1166.00 1399.31 34.15
540 12.6970 1141.00 1419.19 33.78
541 12.7020 1183.00 1439.80 34.39
542 12.7070 1214.00 1461.21 34.84
543 12.7120 1250.00 1483.44 35.36
544 12.7170 1318.00 1506.58 36.30
545 12.7220 1374.00 1530.67 37.07
546 12.7270 1415.00 1555.79 37.62
547 12.7320 1483.00 1582.01 38.51
548 12.7370 1522.00 1609.42 39.01
549 12.7420 1629.00 1638.12 40.36
550 12.7470 1664.00 1668.21 40.79
551 12.7520 1688.00 1699.83 41.09
552 12.7570 1726.00 1733.11 41.55
553 12.7620 1760.00 1768.22 41.95
554 12.7670 1859.00 1805.35 43.12
555 12.7720 1951.00 1844.70 44.17
556 12.7770 1935.00 1886.52 43.99
557 12.7820 2013.00 1931.07 44.87
558 12.7870 2068.00 1978.62 45.48
559 12.7920 2048.00 2029.49 45.25
560 12.7970 2112.00 2083.97 45.96
561 12.8020 2268.00 2142.38 47.62
562 12.8070 2382.00 2204.93 48.81
563 12.8120 2450.00 2271.82 49.50
564 12.8170 2629.00 2343.07 51.27
565 12.8220 2806.00 2418.57 52.97
566 12.8270 2899.00 2497.97 53.84
567 12.8320 3034.00 2580.58 55.08
568 12.8370 3105.00 2665.47 55.72
569 12.8420 3098.00 2751.16 55.66
570 12.8470 3091.00 2835.81 55.60
571 12.8520 3105.00 2916.99 55.72
572 12.8570 3145.00 2991.79 56.08
573 12.8620 3155.00 3056.70 56.17
574 12.8670 3172.00 3107.70 56.32
575 12.8720 3170.00 3140.33 56.30
576 12.8770 3137.00 3149.96 56.01
577 12.8820 3039.00 3132.25 55.13
578 12.8870 2915.00 3083.83 53.99
579 12.8920 2898.00 3003.25 53.83
580 12.8970 2852.00 2891.70 53.40
581 12.9020 2707.00 2753.34 52.03
582 12.9070 2509.00 2594.71 50.09
583 12.9120 2375.00 2423.73 48.73
584 12.9170 2245.00 2248.21 47.38
585 12.9220 2099.00 2074.84 45.81
586 12.9270 1979.00 1908.88 44.49
587 12.9320 1870.00 1753.87 43.24
588 12.9370 1706.00 1612.03 41.30
589 12.9420 1500.00 1484.38 38.73
590 12.9470 1371.00 1371.19 37.03
591 12.9520 1292.00 1272.07 35.94
592 12.9570 1174.00 1186.27 34.26
593 12.9620 1029.00 1112.64 32.08
594 12.9670 995.00 1050.01 31.54
595 12.9720 977.00 997.02 31.26
596 12.9770 913.00 952.40 30.22
597 12.9820 862.00 914.87 29.36
598 12.9870 839.00 883.31 28.97
599 12.9920 909.00 856.67 30.15
600 12.9970 926.00 834.09 30.43
601 13.0020 873.00 814.82 29.55
602 13.0070 832.00 798.21 28.84
603 13.0120 856.00 783.78 29.26
604 13.0170 951.00 771.12 30.84
605 13.0220 886.00 759.91 29.77
606 13.0270 908.00 749.90 30.13
607 13.0320 861.00 740.89 29.34
608 13.0370 924.00 732.73 30.40
609 13.0420 910.00 725.30 30.17
610 13.0470 818.00 718.50 28.60
611 13.0520 779.00 712.26 27.91
612 13.0570 856.00 706.50 29.26
613 13.0620 878.00 701.18 29.63
614 13.0670 818.00 696.25 28.60
615 13.0720 723.00 691.68 26.89
616 13.0770 757.00 687.43 27.51
617 13.0820 784.00 683.47 28.00
618 13.0870 753.00 679.77 27.44
619 13.0920 678.00 676.31 26.04
620 13.0970 689.00 673.08 26.25
621 13.1020 727.00 670.05 26.96
622 13.1070 777.00 667.21 27.87
623 13.1120 787.00 664.55 28.05
624 13.1170 758.00 662.04 27.53
625 13.1220 716.00 659.68 26.76
626 13.1270 720.00 657.46 26.83
627 13.1320 743.00 655.36 27.26
628 13.1370 739.00 653.38 27.18
629 13.1420 676.00 651.51 26.00
630 13.1470 642.00 649.75 25.34
631 13.1520 608.00 648.08 24.66
632 13.1570 549.00 646.49 23.43
633 13.1620 543.00 644.99 23.30
634 13.1670 522.00 643.57 22.85
635 13.1720 537.00 642.22 23.17
636 13.1770 573.00 640.94 23.94
637 13.1820 532.00 639.73 23.07
638 13.1870 480.00 638.57 21.91
639 13.1920 448.00 637.47 21.17
640 13.1970 442.00 636.42 21.02
641 13.2020 509.00 635.43 22.56
642 13.2070 581.00 634.48 24.10
643 13.2120 628.00 633.58 25.06
644 13.2170 668.00 632.72 25.85
645 13.2220 674.00 631.90 25.96
646 13.2270 658.00 631.11 25.65
647 13.2320 625.00 630.36 25.00
648 13.2370 611.00 629.65 24.72
649 13.2420 605.00 628.97 24.60
650 13.2470 564.00 628.32 23.75
651 13.2520 484.00 627.70 22.00
652 13.2570 466.00 627.11 21.59
653 13.2620 546.00 626.54 23.37
654 13.2670 583.00 626.00 24.15
655 13.2720 516.00 625.48 22.72
656 13.2770 500.00 624.88 22.36
657 13.2820 510.00 624.41 22.58
658 13.2870 537.00 623.95 23.17
659 13.2920 564.00 623.52 23.75
660 13.2970 659.00 623.11 25.67
661 13.3020 722.00 622.71 26.87
662 13.3070 800.00 622.34 28.28
663 13.3120 869.00 623.08 29.48
664 13.3170 850.00 622.75 29.15
665 13.3220 855.00 622.43 29.24
666 13.3270 804.00 622.14 28.35
667 13.3320 797.00 621.85 28.23
668 13.3370 785.00 621.58 28.02
669 13.3420 669.00 621.32 25.86
670 13.3470 554.00 621.08 23.54
671 13.3520 485.00 620.84 22.02
672 13.3570 494.00 620.62 22.23
673 13.3620 429.00 620.41 20.71
674 13.3670 476.00 620.22 21.82
675 13.3720 477.00 620.03 21.84
676 13.3770 465.00 619.85 21.56
677 13.3820 525.00 619.68 22.91
678 13.3870 560.00 619.53 23.66
679 13.3920 573.00 619.38 23.94
680 13.3970 512.00 619.24 22.63
681 13.4020 535.00 619.11 23.13
682 13.4070 543.00 618.99 23.30
683 13.4120 581.00 618.87 24.10
684 13.4170 597.00 618.77 24.43
685 13.4220 528.00 618.67 22.98
686 13.4270 607.00 618.58 24.64
687 13.4320 574.00 618.50 23.96
688 13.4370 585.00 618.43 24.19
689 13.4420 592.00 618.36 24.33
690 13.4470 471.00 618.31 21.70
691 13.4520 508.00 618.26 22.54
692 13.4570 549.00 618.22 23.43
693 13.4620 475.00 618.18 21.79
694 13.4670 460.00 618.16 21.45
695 13.4720 498.00 618.14 22.32
696 13.4770 457.00 618.13 21.38
697 13.4820 483.00 618.13 21.98
698 13.4870 479.00 618.14 21.89
699 13.4920 518.00 618.16 22.76
700 13.4970 610.00 618.18 24.70
701 13.5020 748.00 618.22 27.35
702 13.5070 812.00 618.27 28.50
703 13.5120 800.00 618.33 28.28
704 13.5170 796.00 618.40 28.21
705 13.5220 776.00 618.48 27.86
706 13.5270 821.00 618.58 28.65
707 13.5320 808.00 618.69 28.43
708 13.5370 712.00 618.81 26.68
709 13.5420 642.00 618.95 25.34
710 13.5470 643.00 619.10 25.36
711 13.5520 640.00 619.26 25.30
712 13.5570 618.00 619.44 24.86
713 13.5620 611.00 619.64 24.72
714 13.5670 615.00 619.84 24.80
715 13.5720 590.00 620.06 24.29
716 13.5770 633.00 620.30 25.16
717 13.5820 637.00 620.54 25.24
718 13.5870 588.00 611.17 24.25
719 13.5920 597.00 611.57 24.43
720 13.5970 634.00 611.98 25.18
721 13.6020 701.00 612.39 26.48
722 13.6070 769.00 612.82 27.73
723 13.6120 743.00 613.25 27.26
724 13.6170 711.00 613.69 26.66
725 13.6220 701.00 614.14 26.48
726 13.6270 728.00 614.60 26.98
727 13.6320 742.00 615.06 27.24
728 13.6370 684.00 615.53 26.15
729 13.6420 643.00 616.01 25.36
730 13.6470 608.00 616.50 24.66
731 13.6520 625.00 616.99 25.00
732 13.6570 669.00 617.48 25.86
733 13.6620 664.00 617.99 25.77
734 13.6670 679.00 618.50 26.06
735 13.6720 719.00 619.01 26.81
736 13.6770 663.00 619.53 25.75
737 13.6820 661.00 620.06 25.71
738 13.6870 755.00 620.59 27.48
739 13.6920 810.00 621.13 28.46
740 13.6970 848.00 621.67 29.12
741 13.7020 857.00 622.22 29.27
742 13.7070 822.00 622.78 28.67
743 13.7120 765.00 623.34 27.66
744 13.7170 757.00 623.91 27.51
745 13.7220 773.00 624.48 27.80
746 13.7270 764.00 625.06 27.64
747 13.7320 772.00 625.65 27.78
748 13.7370 698.00 626.24 26.42
749 13.7420 609.00 626.84 24.68
750 13.7470 615.00 627.45 24.80
751 13.7520 680.00 628.07 26.08
752 13.7570 731.00 628.69 27.04
753 13.7620 758.00 629.32 27.53
754 13.7670 752.00 629.95 27.42
755 13.7720 728.00 630.60 26.98
756 13.7770 687.00 631.25 26.21
757 13.7820 681.00 631.91 26.10
758 13.7870 747.00 632.57 27.33
759 13.7920 784.00 633.25 28.00
760 13.7970 843.00 633.93 29.03
761 13.8020 818.00 634.63 28.60
762 13.8070 765.00 635.33 27.66
763 13.8120 748.00 636.04 27.35
764 13.8170 788.00 636.76 28.07
765 13.8220 828.00 637.49 28.77
766 13.8270 796.00 638.23 28.21
767 13.8320 736.00 638.98 27.13
768 13.8370 758.00 639.74 27.53
769 13.8420 809.00 640.51 28.44
770 13.8470 823.00 641.29 28.69
771 13.8520 749.00 642.09 27.37
772 13.8570 723.00 642.89 26.89
773 13.8620 753.00 643.71 27.44
774 13.8670 738.00 644.54 27.17
775 13.8720 662.00 645.38 25.73
776 13.8770 693.00 646.24 26.32
777 13.8820 768.00 647.11 27.71
778 13.8870 800.00 647.99 28.28
779 13.8920 793.00 648.89 28.16
780 13.8970 777.00 649.80 27.87
781 13.9020 760.00 650.72 27.57
782 13.9070 787.00 651.66 28.05
783 13.9120 830.00 652.62 28.81
784 13.9170 838.00 653.60 28.95
785 13.9220 765.00 654.59 27.66
786 13.9270 683.00 655.60 26.13
787 13.9320 690.00 656.63 26.27
788 13.9370 705.00 657.68 26.55
789 13.9420 684.00 658.75 26.15
790 13.9470 685.00 659.84 26.17
791 13.9520 659.00 660.95 25.67
792 13.9570 625.00 662.08 25.00
793 13.9620 648.00 663.23 25.46
794 13.9670 688.00 664.41 26.23
795 13.9720 683.00 665.62 26.13
796 13.9770 671.00 666.85 25.90
797 13.9820 695.00 668.10 26.36
798 13.9870 678.00 669.39 26.04
799 13.9920 637.00 670.71 25.24
800 13.9970 623.00 672.05 24.96
801 14.0020 651.00 673.43 25.51
802 14.0070 690.00 674.84 26.27
803 14.0120 667.00 676.28 25.83
804 14.0170 666.00 677.76 25.81
805 14.0220 691.00 679.28 26.29
806 14.0270 695.00 680.84 26.36
807 14.0320 667.00 682.44 25.83
808 14.0370 648.00 684.09 25.46
809 14.0420 628.00 685.78 25.06
810 14.0470 621.00 687.52 24.92
811 14.0520 613.00 689.32 24.76
812 14.0570 601.00 691.17 24.52
813 14.0620 578.00 693.07 24.04
814 14.0670 565.00 695.04 23.77
815 14.0720 571.00 697.08 23.90
816 14.0770 576.00 699.18 24.00
817 14.0820 618.00 701.36 24.86
818 14.0870 666.00 703.62 25.81
819 14.0920 708.00 705.97 26.61
820 14.0970 718.00 708.41 26.80
821 14.1020 742.00 710.96 27.24
822 14.1070 763.00 713.61 27.62
823 14.1120 740.00 716.38 27.20
824 14.1170 704.00 719.27 26.53
825 14.1220 690.00 722.30 26.27
826 14.1270 701.00 725.48 26.48
827 14.1320 678.00 728.82 26.04
828 14.1370 612.00 732.34 24.74
829 14.1420 546.00 736.04 23.37
830 14.1470 572.00 739.94 23.92
831 14.1520 627.00 744.04 25.04
832 14.1570 639.00 748.37 25.28
833 14.1620 602.00 752.93 24.54
834 14.1670 588.00 757.72 24.25
835 14.1720 639.00 762.75 25.28
836 14.1770 660.00 768.02 25.69
837 14.1820 646.00 773.51 25.42
838 14.1870 687.00 779.22 26.21
839 14.1920 712.00 785.13 26.68
840 14.1970 710.00 791.19 26.65
841 14.2020 700.00 797.38 26.46
842 14.2070 757.00 803.64 27.51
843 14.2120 802.00 809.90 28.32
844 14.2170 820.00 816.09 28.64
845 14.2220 826.00 822.14 28.74
846 14.2270 917.00 827.92 30.28
847 14.2320 884.00 833.35 29.73
848 14.2370 832.00 838.29 28.84
849 14.2420 836.00 842.61 28.91
850 14.2470 837.00 846.19 28.93
851 14.2520 866.00 848.86 29.43
852 14.2570 880.00 850.51 29.66
853 14.2620 817.00 850.99 28.58
854 14.2670 770.00 850.18 27.75
855 14.2720 808.00 847.99 28.43
856 14.2770 835.00 844.36 28.90
857 14.2820 856.00 839.29 29.26
858 14.2870 872.00 832.83 29.53
859 14.2920 903.00 825.09 30.05
860 14.2970 968.00 816.23 31.11
861 14.3020 1031.00 806.46 32.11
862 14.3070 1022.00 796.02 31.97
863 14.3120 972.00 785.12 31.18
864 14.3170 928.00 774.02 30.46
865 14.3220 897.00 762.90 29.95
866 14.3270 853.00 751.97 29.21
867 14.3320 817.00 741.35 28.58
868 14.3370 717.00 731.18 26.78
869 14.3420 642.00 721.54 25.34
870 14.3470 618.00 712.49 24.86
871 14.3520 615.00 704.08 24.80
872 14.3570 622.00 696.33 24.94
873 14.3620 647.00 689.24 25.44
874 14.3670 582.00 682.82 24.12
875 14.3720 526.00 677.03 22.93
876 14.3770 513.00 671.86 22.65
877 14.3820 546.00 667.26 23.37
878 14.3870 616.00 663.20 24.82
879 14.3920 656.00 659.64 25.61
880 14.3970 629.00 656.52 25.08
881 14.4020 656.00 653.80 25.61
882 14.4070 683.00 651.44 26.13
883 14.4120 734.00 649.40 27.09
884 14.4170 658.00 647.64 25.65
885 14.4220 681.00 646.11 26.10
886 14.4270 652.00 644.79 25.53
887 14.4320 648.00 643.66 25.46
888 14.4370 684.00 642.67 26.15
889 14.4420 691.00 641.81 26.29
890 14.4470 686.00 641.06 26.19
891 14.4520 744.00 640.40 27.28
892 14.4570 763.00 639.82 27.62
893 14.4620 789.00 639.31 28.09
894 14.4670 831.00 638.85 28.83
895 14.4720 784.00 638.44 28.00
896 14.4770 725.00 638.07 26.93
897 14.4820 673.00 637.74 25.94
898 14.4870 668.00 637.43 25.85
899 14.4920 728.00 637.16 26.98
900 14.4970 784.00 636.91 28.00
901 14.5020 798.00 636.68 28.25
902 14.5070 822.00 636.47 28.67
903 14.5120 867.00 636.28 29.44
904 14.5170 877.00 636.10 29.61
905 14.5220 784.00 635.94 28.00
906 14.5270 756.00 635.79 27.50
907 14.5320 714.00 635.66 26.72
908 14.5370 688.00 635.53 26.23
909 14.5420 634.00 635.42 25.18
910 14.5470 662.00 635.32 25.73
911 14.5520 682.00 635.22 26.12
912 14.5570 613.00 635.14 24.76
913 14.5620 600.00 635.06 24.49
914 14.5670 627.00 634.99 25.04
915 14.5720 629.00 634.93 25.08
916 14.5770 623.00 634.88 24.96
917 14.5820 560.00 634.83 23.66
918 14.5870 573.00 634.78 23.94
919 14.5920 515.00 634.75 22.69
920 14.5970 495.00 634.72 22.25
921 14.6020 563.00 634.69 23.73
922 14.6070 605.00 634.66 24.60
923 14.6120 578.00 634.65 24.04
924 14.6170 663.00 634.63 25.75
925 14.6220 682.00 634.62 26.12
926 14.6270 654.00 634.62 25.57
927 14.6320 659.00 634.61 25.67
928 14.6370 586.00 634.61 24.21
929 14.6420 537.00 634.62 23.17
930 14.6470 598.00 634.63 24.45
931 14.6520 567.00 634.63 23.81
932 14.6570 490.00 634.65 22.14
933 14.6620 411.00 634.66 20.27
934 14.6670 382.00 634.68 19.54
935 14.6720 456.00 634.70 21.35
936 14.6770 438.00 634.72 20.93
937 14.6820 535.00 634.74 23.13
938 14.6870 571.00 634.77 23.90
939 14.6920 576.00 634.79 24.00
940 14.6970 630.00 634.83 25.10
941 14.7020 698.00 634.86 26.42
942 14.7070 755.00 634.89 27.48
943 14.7120 727.00 634.92 26.96
944 14.7170 648.00 634.96 25.46
945 14.7220 689.00 634.99 26.25
946 14.7270 703.00 635.03 26.51
947 14.7320 674.00 635.07 25.96
948 14.7370 644.00 635.11 25.38
949 14.7420 671.00 635.15 25.90
950 14.7470 784.00 635.20 28.00
951 14.7520 709.00 635.24 26.63
952 14.7570 656.00 635.28 25.61
953 14.7620 663.00 635.33 25.75
954 14.7670 536.00 635.38 23.15
955 14.7720 620.00 635.42 24.90
956 14.7770 713.00 635.47 26.70
957 14.7820 655.00 635.52 25.59
958 14.7870 595.00 635.57 24.39
959 14.7920 699.00 635.62 26.44
960 14.7970 755.00 635.67 27.48
961 14.8020 730.00 635.72 27.02
962 14.8070 751.00 635.78 27.40
963 14.8120 793.00 635.83 28.16
964 14.8170 732.00 635.88 27.06
965 14.8220 644.00 635.94 25.38
966 14.8270 725.00 635.99 26.93
967 14.8320 661.00 636.04 25.71
968 14.8370 596.00 636.10 24.41
969 14.8420 606.00 636.16 24.62
970 14.8470 684.00 636.21 26.15
971 14.8520 692.00 636.27 26.31
972 14.8570 649.00 636.32 25.48
973 14.8620 626.00 636.38 25.02
974 14.8670 618.00 636.44 24.86
975 14.8720 568.00 636.49 23.83
976 14.8770 565.00 636.55 23.77
977 14.8820 544.00 636.61 23.32
978 14.8870 486.00 636.67 22.05
979 14.8920 534.00 636.73 23.11
980 14.8970 616.00 636.78 24.82
981 14.9020 652.00 636.84 25.53
982 14.9070 701.00 636.90 26.48
983 14.9120 839.00 636.96 28.97
984 14.9170 857.00 637.02 29.27
985 14.9220 791.00 637.08 28.12
986 14.9270 704.00 637.14 26.53
987 14.9320 639.00 637.20 25.28
988 14.9370 711.00 637.26 26.66
989 14.9420 757.00 637.32 27.51
990 14.9470 649.00 637.38 25.48
991 14.9520 633.00 637.44 25.16
992 14.9570 662.00 637.50 25.73
993 14.9620 654.00 637.56 25.57
994 14.9670 596.00 637.62 24.41
995 14.9720 622.00 637.68 24.94
996 14.9770 604.00 637.74 24.58
997 14.9820 569.00 637.80 23.85
998 14.9870 603.00 637.86 24.56
999 14.9920 693.00 637.92 26.32
1000 14.9970 690.00 637.98 26.27
1001 15.0020 739.00 638.03 27.18
1002 15.0070 727.00 638.09 26.96
1003 15.0120 735.00 638.16 27.11
1004 15.0170 703.00 638.22 26.51
1005 15.0220 702.00 638.28 26.50
1006 15.0270 697.00 638.33 26.40
1007 15.0320 654.00 638.39 25.57
1008 15.0370 646.00 638.45 25.42
1009 15.0420 641.00 638.51 25.32
1010 15.0470 639.00 638.57 25.28
1011 15.0520 693.00 638.63 26.32
1012 15.0570 687.00 638.69 26.21
1013 15.0620 669.00 638.75 25.86
1014 15.0670 624.00 638.81 24.98
1015 15.0720 567.00 638.87 23.81
1016 15.0770 532.00 638.93 23.07
1017 15.0820 592.00 638.99 24.33
1018 15.0870 665.00 639.04 25.79
1019 15.0920 621.00 639.10 24.92
1020 15.0970 618.00 639.16 24.86
1021 15.1020 625.00 639.22 25.00
1022 15.1070 648.00 639.28 25.46
1023 15.1120 607.00 639.34 24.64
1024 15.1170 660.00 639.39 25.69
1025 15.1220 670.00 639.45 25.88
1026 15.1270 617.00 639.51 24.84
1027 15.1320 519.00 639.57 22.78
1028 15.1370 473.00 639.62 21.75
1029 15.1420 479.00 639.68 21.89
1030 15.1470 460.00 639.74 21.45
1031 15.1520 465.00 639.79 21.56
1032 15.1570 518.00 639.85 22.76
1033 15.1620 442.00 639.91 21.02
1034 15.1670 378.00 639.96 19.44
1035 15.1720 432.00 640.02 20.78
1036 15.1770 463.00 640.08 21.52
1037 15.1820 413.00 640.13 20.32
1038 15.1870 392.00 640.19 19.80
1039 15.1920 467.00 640.24 21.61
1040 15.1970 595.00 640.30 24.39
1041 15.2020 632.00 640.35 25.14
1042 15.2070 631.00 640.41 25.12
1043 15.2120 629.00 640.46 25.08
1044 15.2170 610.00 640.52 24.70
1045 15.2220 643.00 640.57 25.36
1046 15.2270 664.00 640.62 25.77
1047 15.2320 593.00 640.68 24.35
1048 15.2370 548.00 640.73 23.41
1049 15.2420 556.00 640.79 23.58
1050 15.2470 500.00 640.84 22.36
1051 15.2520 435.00 640.89 20.86
1052 15.2570 429.00 640.95 20.71
1053 15.2620 418.00 641.00 20.44
1054 15.2670 436.00 641.05 20.88
1055 15.2720 444.00 640.51 21.07
1056 15.2770 432.00 640.57 20.78
1057 15.2820 430.00 640.62 20.74
1058 15.2870 495.00 640.68 22.25
1059 15.2920 533.00 640.74 23.09
1060 15.2970 587.00 640.79 24.23
1061 15.3020 662.00 640.85 25.73
1062 15.3070 662.00 640.91 25.73
1063 15.3120 607.00 640.96 24.64
1064 15.3170 652.00 641.02 25.53
1065 15.3220 654.00 641.07 25.57
1066 15.3270 681.00 641.13 26.10
1067 15.3320 618.00 641.18 24.86
1068 15.3370 561.00 641.24 23.69
1069 15.3420 552.00 641.29 23.49
1070 15.3470 578.00 641.34 24.04
1071 15.3520 514.00 641.40 22.67
1072 15.3570 477.00 641.45 21.84
1073 15.3620 523.00 641.50 22.87
1074 15.3670 526.00 641.55 22.93
1075 15.3720 496.00 641.61 22.27
1076 15.3770 501.00 641.66 22.38
1077 15.3820 544.00 641.71 23.32
1078 15.3870 537.00 641.76 23.17
1079 15.3920 515.00 641.81 22.69
1080 15.3970 553.00 641.86 23.52
1081 15.4020 618.00 641.91 24.86
1082 15.4070 680.00 641.96 26.08
1083 15.4120 657.00 642.01 25.63
1084 15.4170 563.00 642.06 23.73
1085 15.4220 538.00 642.11 23.19
1086 15.4270 596.00 642.16 24.41
1087 15.4320 594.00 642.21 24.37
1088 15.4370 594.00 642.26 24.37
1089 15.4420 656.00 642.30 25.61
1090 15.4470 691.00 642.35 26.29
1091 15.4520 643.00 642.40 25.36
1092 15.4570 559.00 642.45 23.64
1093 15.4620 583.00 642.49 24.15
1094 15.4670 597.00 642.54 24.43
1095 15.4720 557.00 642.59 23.60
1096 15.4770 575.00 642.63 23.98
1097 15.4820 599.00 642.68 24.47
1098 15.4870 593.00 642.72 24.35
1099 15.4920 611.00 642.77 24.72
1100 15.4970 648.00 642.81 25.46
1101 15.5020 669.00 642.86 25.86
1102 15.5070 651.00 642.90 25.51
1103 15.5120 622.00 642.95 24.94
1104 15.5170 641.00 642.99 25.32
1105 15.5220 684.00 643.03 26.15
1106 15.5270 677.00 643.08 26.02
1107 15.5320 647.00 643.12 25.44
1108 15.5370 660.00 643.16 25.69
1109 15.5420 666.00 643.20 25.81
1110 15.5470 669.00 643.25 25.86
1111 15.5520 627.00 643.29 25.04
1112 15.5570 553.00 643.33 23.52
1113 15.5620 546.00 643.37 23.37
1114 15.5670 588.00 643.41 24.25
1115 15.5720 589.00 643.45 24.27
1116 15.5770 560.00 643.49 23.66
1117 15.5820 574.00 643.53 23.96
1118 15.5870 622.00 643.57 24.94
1119 15.5920 669.00 643.61 25.86
1120 15.5970 675.00 643.65 25.98
1121 15.6020 669.00 643.69 25.86
1122 15.6070 656.00 643.73 25.61
1123 15.6120 668.00 643.77 25.85
1124 15.6170 731.00 643.80 27.04
1125 15.6220 739.00 643.84 27.18
1126 15.6270 662.00 643.88 25.73
1127 15.6320 560.00 643.92 23.66
1128 15.6370 530.00 644.96 23.02
1129 15.6420 570.00 645.02 23.87
1130 15.6470 578.00 645.07 24.04
1131 15.6520 520.00 645.13 22.80
1132 15.6570 526.00 645.18 22.93
1133 15.6620 569.00 645.24 23.85
1134 15.6670 571.00 645.30 23.90
1135 15.6720 568.00 645.36 23.83
1136 15.6770 555.00 645.42 23.56
1137 15.6820 532.00 645.48 23.07
1138 15.6870 553.00 645.54 23.52
1139 15.6920 579.00 645.60 24.06
1140 15.6970 633.00 645.66 25.16
1141 15.7020 667.00 645.72 25.83
1142 15.7070 688.00 645.79 26.23
1143 15.7120 687.00 645.86 26.21
1144 15.7170 602.00 645.92 24.54
1145 15.7220 510.00 646.00 22.58
1146 15.7270 506.00 646.07 22.49
1147 15.7320 477.00 646.15 21.84
1148 15.7370 410.00 646.23 20.25
1149 15.7420 394.00 646.31 19.85
1150 15.7470 404.00 646.40 20.10
1151 15.7520 432.00 646.49 20.78
1152 15.7570 456.00 646.59 21.35
1153 15.7620 476.00 646.70 21.82
1154 15.7670 492.00 646.81 22.18
1155 15.7720 490.00 646.93 22.14
1156 15.7770 506.00 647.06 22.49
1157 15.7820 537.00 647.20 23.17
1158 15.7870 534.00 647.35 23.11
1159 15.7920 563.00 647.51 23.73
1160 15.7970 608.00 647.68 24.66
1161 15.8020 638.00 647.86 25.26
1162 15.8070 631.00 648.06 25.12
1163 15.8120 571.00 648.27 23.90
1164 15.8170 563.00 648.49 23.73
1165 15.8220 539.00 648.72 23.22
1166 15.8270 477.00 648.97 21.84
1167 15.8320 516.00 649.22 22.72
1168 15.8370 499.00 649.49 22.34
1169 15.8420 459.00 649.76 21.42
1170 15.8470 497.00 650.05 22.29
1171 15.8520 538.00 650.35 23.19
1172 15.8570 543.00 650.65 23.30
1173 15.8620 530.00 650.96 23.02
1174 15.8670 564.00 651.28 23.75
1175 15.8720 567.00 651.61 23.81
1176 15.8770 561.00 651.95 23.69
1177 15.8820 560.00 652.29 23.66
1178 15.8870 521.00 652.64 22.83
1179 15.8920 519.00 652.99 22.78
1180 15.8970 569.00 653.35 23.85
1181 15.9020 640.00 653.72 25.30
1182 15.9070 691.00 654.09 26.29
1183 15.9120 685.00 654.47 26.17
1184 15.9170 656.00 654.86 25.61
1185 15.9220 671.00 655.25 25.90
1186 15.9270 669.00 655.65 25.86
1187 15.9320 663.00 656.05 25.75
1188 15.9370 640.00 656.46 25.30
1189 15.9420 625.00 656.88 25.00
1190 15.9470 600.00 657.30 24.49
1191 15.9520 534.00 657.73 23.11
1192 15.9570 480.00 658.17 21.91
1193 15.9620 457.00 658.61 21.38
1194 15.9670 492.00 659.06 22.18
1195 15.9720 508.00 659.52 22.54
1196 15.9770 517.00 659.98 22.74
1197 15.9820 536.00 660.46 23.15
1198 15.9870 564.00 660.94 23.75
1199 15.9920 633.00 661.43 25.16
1200 15.9970 702.00 661.92 26.50
1201 16.0020 736.00 662.43 27.13
1202 16.0070 783.00 662.94 27.98
1203 16.0120 756.00 663.47 27.50
1204 16.0170 759.00 664.00 27.55
1205 16.0220 733.00 664.54 27.07
1206 16.0270 735.00 665.09 27.11
1207 16.0320 742.00 665.66 27.24
1208 16.0370 754.00 666.23 27.46
1209 16.0420 709.00 666.81 26.63
1210 16.0470 645.00 667.40 25.40
1211 16.0520 603.00 668.01 24.56
1212 16.0570 616.00 668.62 24.82
1213 16.0620 702.00 669.25 26.50
1214 16.0670 704.00 669.90 26.53
1215 16.0720 658.00 670.55 25.65
1216 16.0770 633.00 671.22 25.16
1217 16.0820 622.00 671.90 24.94
1218 16.0870 658.00 672.59 25.65
1219 16.0920 713.00 673.31 26.70
1220 16.0970 732.00 674.03 27.06
1221 16.1020 735.00 674.78 27.11
1222 16.1070 743.00 675.53 27.26
1223 16.1120 802.00 676.31 28.32
1224 16.1170 822.00 677.10 28.67
1225 16.1220 860.00 677.92 29.33
1226 16.1270 922.00 678.75 30.36
1227 16.1320 861.00 679.60 29.34
1228 16.1370 815.00 680.48 28.55
1229 16.1420 728.00 681.37 26.98
1230 16.1470 630.00 682.29 25.10
1231 16.1520 649.00 683.23 25.48
1232 16.1570 690.00 684.20 26.27
1233 16.1620 737.00 685.19 27.15
1234 16.1670 771.00 686.22 27.77
1235 16.1720 731.00 687.26 27.04
1236 16.1770 748.00 688.34 27.35
1237 16.1820 750.00 689.46 27.39
1238 16.1870 805.00 690.60 28.37
1239 16.1920 848.00 691.78 29.12
1240 16.1970 859.00 692.99 29.31
1241 16.2020 951.00 694.25 30.84
1242 16.2070 1003.00 695.54 31.67
1243 16.2120 974.00 696.88 31.21
1244 16.2170 958.00 698.27 30.95
1245 16.2220 990.00 699.70 31.46
1246 16.2270 1029.00 701.18 32.08
1247 16.2320 945.00 702.72 30.74
1248 16.2370 893.00 704.32 29.88
1249 16.2420 882.00 705.98 29.70
1250 16.2470 830.00 707.70 28.81
1251 16.2520 891.00 709.50 29.85
1252 16.2570 921.00 711.38 30.35
1253 16.2620 931.00 713.34 30.51
1254 16.2670 954.00 715.39 30.89
1255 16.2720 966.00 717.53 31.08
1256 16.2770 999.00 719.79 31.61
1257 16.2820 1026.00 722.16 32.03
1258 16.2870 1077.00 724.66 32.82
1259 16.2920 1080.00 727.31 32.86
1260 16.2970 1103.00 730.11 33.21
1261 16.3020 1137.00 733.09 33.72
1262 16.3070 1092.00 736.25 33.05
1263 16.3120 1086.00 739.61 32.95
1264 16.3170 1031.00 743.21 32.11
1265 16.3220 1012.00 747.04 31.81
1266 16.3270 1010.00 751.13 31.78
1267 16.3320 998.00 755.49 31.59
1268 16.3370 986.00 760.13 31.40
1269 16.3420 972.00 765.05 31.18
1270 16.3470 963.00 770.24 31.03
1271 16.3520 938.00 775.69 30.63
1272 16.3570 884.00 781.35 29.73
1273 16.3620 868.00 787.20 29.46
1274 16.3670 848.00 793.15 29.12
1275 16.3720 913.00 799.13 30.22
1276 16.3770 872.00 805.03 29.53
1277 16.3820 982.00 810.72 31.34
1278 16.3870 1074.00 816.05 32.77
1279 16.3920 951.00 820.87 30.84
1280 16.3970 908.00 824.97 30.13
1281 16.4020 894.00 828.15 29.90
1282 16.4070 911.00 830.22 30.18
1283 16.4120 884.00 830.95 29.73
1284 16.4170 900.00 830.16 30.00
1285 16.4220 867.00 827.72 29.44
1286 16.4270 785.00 823.54 28.02
1287 16.4320 839.00 817.64 28.97
1288 16.4370 741.00 810.14 27.22
1289 16.4420 784.00 801.28 28.00
1290 16.4470 760.00 791.35 27.57
1291 16.4520 770.00 780.71 27.75
1292 16.4570 751.00 769.70 27.40
1293 16.4620 684.00 758.65 26.15
1294 16.4670 704.00 747.82 26.53
1295 16.4720 663.00 737.41 25.75
1296 16.4770 676.00 727.60 26.00
1297 16.4820 698.00 718.48 26.42
1298 16.4870 662.00 710.12 25.73
1299 16.4920 718.00 702.56 26.80
1300 16.4970 855.00 695.78 29.24
1301 16.5020 881.00 689.78 29.68
1302 16.5070 833.00 684.51 28.86
1303 16.5120 763.00 679.93 27.62
1304 16.5170 739.00 675.97 27.18
1305 16.5220 813.00 672.57 28.51
1306 16.5270 844.00 669.67 29.05
1307 16.5320 820.00 667.20 28.64
1308 16.5370 821.00 665.11 28.65
1309 16.5420 812.00 663.33 28.50
1310 16.5470 800.00 661.82 28.28
1311 16.5520 793.00 660.52 28.16
1312 16.5570 815.00 659.41 28.55
1313 16.5620 809.00 658.45 28.44
1314 16.5670 754.00 657.62 27.46
1315 16.5720 674.00 656.88 25.96
1316 16.5770 674.00 656.23 25.96
1317 16.5820 687.00 655.64 26.21
1318 16.5870 727.00 655.12 26.96
1319 16.5920 636.00 654.64 25.22
1320 16.5970 744.00 654.20 27.28
1321 16.6020 819.00 653.79 28.62
1322 16.6070 840.00 653.42 28.98
1323 16.6120 828.00 653.07 28.77
1324 16.6170 751.00 652.74 27.40
1325 16.6220 612.00 652.44 24.74
1326 16.6270 673.00 652.15 25.94
1327 16.6320 664.00 651.88 25.77
1328 16.6370 701.00 651.63 26.48
1329 16.6420 590.00 651.39 24.29
1330 16.6470 621.00 651.16 24.92
1331 16.6520 644.00 650.95 25.38
1332 16.6570 621.00 650.75 24.92
1333 16.6620 576.00 650.55 24.00
1334 16.6670 595.00 650.37 24.39
1335 16.6720 688.00 650.19 26.23
1336 16.6770 712.00 650.02 26.68
1337 16.6820 830.00 649.86 28.81
1338 16.6870 833.00 649.71 28.86
1339 16.6920 735.00 649.56 27.11
1340 16.6970 731.00 649.42 27.04
1341 16.7020 833.00 649.29 28.86
1342 16.7070 843.00 649.16 29.03
1343 16.7120 841.00 649.03 29.00
1344 16.7170 814.00 648.91 28.53
1345 16.7220 801.00 648.80 28.30
1346 16.7270 799.00 648.69 28.27
1347 16.7320 896.00 648.58 29.93
1348 16.7370 867.00 648.47 29.44
1349 16.7420 839.00 648.37 28.97
1350 16.7470 826.00 648.27 28.74
1351 16.7520 822.00 648.18 28.67
1352 16.7570 876.00 648.09 29.60
1353 16.7620 906.00 648.00 30.10
1354 16.7670 817.00 647.91 28.58
1355 16.7720 810.00 647.83 28.46
1356 16.7770 738.00 647.74 27.17
1357 16.7820 780.00 647.66 27.93
1358 16.7870 790.00 647.58 28.11
1359 16.7920 741.00 647.51 27.22
1360 16.7970 773.00 647.43 27.80
1361 16.8020 839.00 647.36 28.97
1362 16.8070 862.00 647.29 29.36
1363 16.8120 954.00 647.22 30.89
1364 16.8170 995.00 647.15 31.54
1365 16.8220 957.00 647.08 30.94
1366 16.8270 842.00 647.01 29.02
1367 16.8320 756.00 646.95 27.50
1368 16.8370 775.00 646.89 27.84
1369 16.8420 693.00 646.82 26.32
1370 16.8470 656.00 646.76 25.61
1371 16.8520 662.00 646.70 25.73
1372 16.8570 573.00 646.64 23.94
1373 16.8620 568.00 646.58 23.83
1374 16.8670 681.00 646.52 26.10
1375 16.8720 725.00 646.47 26.93
1376 16.8770 718.00 646.41 26.80
1377 16.8820 646.00 646.35 25.42
1378 16.8870 629.00 646.30 25.08
1379 16.8920 575.00 646.24 23.98
1380 16.8970 651.00 646.19 25.51
1381 16.9020 771.00 646.13 27.77
1382 16.9070 819.00 646.08 28.62
1383 16.9120 819.00 646.03 28.62
1384 16.9170 748.00 645.98 27.35
1385 16.9220 698.00 645.92 26.42
1386 16.9270 626.00 645.87 25.02
1387 16.9320 676.00 645.82 26.00
1388 16.9370 731.00 645.77 27.04
1389 16.9420 724.00 646.19 26.91
1390 16.9470 728.00 646.14 26.98
1391 16.9520 730.00 646.10 27.02
1392 16.9570 738.00 646.06 27.17
1393 16.9620 794.00 646.02 28.18
1394 16.9670 757.00 645.97 27.51
1395 16.9720 695.00 645.93 26.36
1396 16.9770 674.00 645.89 25.96
1397 16.9820 620.00 645.85 24.90
1398 16.9870 620.00 645.81 24.90
1399 16.9920 694.00 645.77 26.34
1400 16.9970 816.00 645.73 28.57
1401 17.0020 896.00 645.69 29.93
1402 17.0070 892.00 645.65 29.87
1403 17.0120 845.00 645.61 29.07
1404 17.0170 821.00 645.57 28.65
1405 17.0220 806.00 645.53 28.39
1406 17.0270 706.00 645.49 26.57
1407 17.0320 663.00 645.45 25.75
1408 17.0370 655.00 645.42 25.59
1409 17.0420 678.00 645.38 26.04
1410 17.0470 653.00 645.34 25.55
1411 17.0520 639.00 645.30 25.28
1412 17.0570 607.00 645.27 24.64
1413 17.0620 622.00 645.23 24.94
1414 17.0670 640.00 645.20 25.30
1415 17.0720 643.00 645.16 25.36
1416 17.0770 660.00 645.12 25.69
1417 17.0820 716.00 645.09 26.76
1418 17.0870 696.00 645.05 26.38
1419 17.0920 666.00 645.02 25.81
1420 17.0970 721.00 644.98 26.85
1421 17.1020 749.00 644.95 27.37
1422 17.1070 726.00 644.91 26.94
1423 17.1120 748.00 644.88 27.35
1424 17.1170 790.00 644.85 28.11
1425 17.1220 745.00 644.81 27.29
1426 17.1270 733.00 644.78 27.07
1427 17.1320 687.00 644.75 26.21
1428 17.1370 669.00 644.72 25.86
1429 17.1420 661.00 644.68 25.71
1430 17.1470 657.00 644.65 25.63
1431 17.1520 600.00 644.62 24.49
1432 17.1570 591.00 644.59 24.31
1433 17.1620 594.00 644.56 24.37
1434 17.1670 569.00 644.53 23.85
1435 17.1720 660.00 644.50 25.69
1436 17.1770 695.00 644.47 26.36
1437 17.1820 694.00 644.44 26.34
1438 17.1870 735.00 644.42 27.11
1439 17.1920 781.00 644.39 27.95
1440 17.1970 830.00 644.36 28.81
1441 17.2020 820.00 644.34 28.64
1442 17.2070 792.00 644.31 28.14
1443 17.2120 787.00 644.28 28.05
1444 17.2170 806.00 644.26 28.39
1445 17.2220 796.00 644.24 28.21
1446 17.2270 770.00 644.21 27.75
1447 17.2320 807.00 644.19 28.41
1448 17.2370 779.00 644.17 27.91
1449 17.2420 722.00 643.64 26.87
1450 17.2470 680.00 643.63 26.08
1451 17.2520 720.00 643.62 26.83
1452 17.2570 727.00 643.61 26.96
1453 17.2620 746.00 643.60 27.31
1454 17.2670 746.00 643.59 27.31
1455 17.2720 763.00 643.59 27.62
1456 17.2770 781.00 643.59 27.95
1457 17.2820 799.00 643.59 28.27
1458 17.2870 796.00 643.59 28.21
1459 17.2920 849.00 643.60 29.14
1460 17.2970 925.00 643.61 30.41
1461 17.3020 948.00 643.63 30.79
1462 17.3070 968.00 643.65 31.11
1463 17.3120 942.00 643.67 30.69
1464 17.3170 953.00 643.70 30.87
1465 17.3220 955.00 643.73 30.90
1466 17.3270 973.00 643.77 31.19
1467 17.3320 949.00 643.82 30.81
1468 17.3370 861.00 643.88 29.34
1469 17.3420 846.00 643.94 29.09
1470 17.3470 845.00 644.01 29.07
1471 17.3520 787.00 644.09 28.05
1472 17.3570 803.00 644.17 28.34
1473 17.3620 857.00 644.27 29.27
1474 17.3670 819.00 644.38 28.62
1475 17.3720 792.00 644.49 28.14
1476 17.3770 832.00 644.61 28.84
1477 17.3820 891.00 644.74 29.85
1478 17.3870 942.00 644.89 30.69
1479 17.3920 949.00 645.04 30.81
1480 17.3970 979.00 645.19 31.29
1481 17.4020 1009.00 645.36 31.76
1482 17.4070 986.00 645.53 31.40
1483 17.4120 912.00 645.72 30.20
1484 17.4170 897.00 645.91 29.95
1485 17.4220 890.00 646.10 29.83
1486 17.4270 909.00 646.31 30.15
1487 17.4320 935.00 646.52 30.58
1488 17.4370 883.00 646.74 29.72
1489 17.4420 800.00 646.96 28.28
1490 17.4470 748.00 647.19 27.35
1491 17.4520 805.00 647.43 28.37
1492 17.4570 823.00 647.68 28.69
1493 17.4620 764.00 647.93 27.64
1494 17.4670 785.00 648.18 28.02
1495 17.4720 786.00 648.45 28.04
1496 17.4770 757.00 648.72 27.51
1497 17.4820 782.00 648.99 27.96
1498 17.4870 803.00 649.27 28.34
1499 17.4920 852.00 649.56 29.19
1500 17.4970 918.00 649.86 30.30
1501 17.5020 898.00 650.16 29.97
1502 17.5070 830.00 650.47 28.81
1503 17.5120 815.00 650.78 28.55
1504 17.5170 840.00 651.10 28.98
1505 17.5220 862.00 651.43 29.36
1506 17.5270 820.00 651.77 28.64
1507 17.5320 794.00 652.11 28.18
1508 17.5370 866.00 652.47 29.43
1509 17.5420 881.00 652.83 29.68
1510 17.5470 840.00 653.19 28.98
1511 17.5520 804.00 653.57 28.35
1512 17.5570 760.00 653.96 27.57
1513 17.5620 743.00 654.35 27.26
1514 17.5670 729.00 654.76 27.00
1515 17.5720 709.00 655.17 26.63
1516 17.5770 722.00 655.59 26.87
1517 17.5820 827.00 656.03 28.76
1518 17.5870 894.00 656.47 29.90
1519 17.5920 870.00 656.92 29.50
1520 17.5970 903.00 657.39 30.05
1521 17.6020 948.00 657.87 30.79
1522 17.6070 928.00 658.36 30.46
1523 17.6120 888.00 658.86 29.80
1524 17.6170 844.00 659.38 29.05
1525 17.6220 799.00 659.91 28.27
1526 17.6270 772.00 660.46 27.78
1527 17.6320 757.00 661.02 27.51
1528 17.6370 715.00 661.59 26.74
1529 17.6420 703.00 662.18 26.51
1530 17.6470 683.00 662.79 26.13
1531 17.6520 641.00 663.42 25.32
1532 17.6570 644.00 664.06 25.38
1533 17.6620 652.00 664.73 25.53
1534 17.6670 632.00 665.41 25.14
1535 17.6720 624.00 666.12 24.98
1536 17.6770 651.00 666.84 25.51
1537 17.6820 680.00 667.59 26.08
1538 17.6870 683.00 668.37 26.13
1539 17.6920 687.00 669.17 26.21
1540 17.6970 708.00 670.00 26.61
1541 17.7020 717.00 670.86 26.78
1542 17.7070 687.00 671.74 26.21
1543 17.7120 639.00 672.67 25.28
1544 17.7170 587.00 673.62 24.23
1545 17.7220 584.00 674.61 24.17
1546 17.7270 575.00 675.65 23.98
1547 17.7320 585.00 676.72 24.19
1548 17.7370 648.00 677.84 25.46
1549 17.7420 612.00 679.01 24.74
1550 17.7470 583.00 680.23 24.15
1551 17.7520 620.00 681.51 24.90
1552 17.7570 635.00 682.84 25.20
1553 17.7620 632.00 684.25 25.14
1554 17.7670 632.00 685.72 25.14
1555 17.7720 633.00 687.28 25.16
1556 17.7770 646.00 688.91 25.42
1557 17.7820 714.00 690.63 26.72
1558 17.7870 739.00 692.45 27.18
1559 17.7920 766.00 694.37 27.68
1560 17.7970 779.00 696.39 27.91
1561 17.8020 840.00 698.53 28.98
1562 17.8070 926.00 700.78 30.43
1563 17.8120 970.00 703.15 31.14
1564 17.8170 982.00 705.64 31.34
1565 17.8220 958.00 708.25 30.95
1566 17.8270 925.00 710.97 30.41
1567 17.8320 897.00 713.80 29.95
1568 17.8370 873.00 716.73 29.55
1569 17.8420 860.00 719.74 29.33
1570 17.8470 837.00 729.37 28.93
1571 17.8520 852.00 732.52 29.19
1572 17.8570 869.00 735.69 29.48
1573 17.8620 844.00 738.82 29.05
1574 17.8670 832.00 741.89 28.84
1575 17.8720 818.00 744.84 28.60
1576 17.8770 825.00 747.61 28.72
1577 17.8820 907.00 750.16 30.12
1578 17.8870 950.00 752.41 30.82
1579 17.8920 968.00 754.30 31.11
1580 17.8970 967.00 755.75 31.10
1581 17.9020 986.00 756.71 31.40
1582 17.9070 1014.00 757.09 31.84
1583 17.9120 997.00 756.83 31.58
1584 17.9170 924.00 755.89 30.40
1585 17.9220 861.00 754.24 29.34
1586 17.9270 832.00 751.86 28.84
1587 17.9320 867.00 748.78 29.44
1588 17.9370 896.00 745.04 29.93
1589 17.9420 832.00 740.73 28.84
1590 17.9470 740.00 735.94 27.20
1591 17.9520 758.00 730.78 27.53
1592 17.9570 781.00 725.38 27.95
1593 17.9620 778.00 719.84 27.89
1594 17.9670 806.00 714.28 28.39
1595 17.9720 834.00 708.78 28.88
1596 17.9770 845.00 703.43 29.07
1597 17.9820 875.00 698.27 29.58
1598 17.9870 923.00 693.37 30.38
1599 17.9920 946.00 688.74 30.76
1600 17.9970 958.00 684.43 30.95
1601 18.0020 926.00 680.43 30.43
1602 18.0070 874.00 676.75 29.56
1603 18.0120 878.00 673.40 29.63
1604 18.0170 899.00 670.36 29.98
1605 18.0220 908.00 667.62 30.13
1606 18.0270 863.00 665.17 29.38
1607 18.0320 879.00 662.99 29.65
1608 18.0370 925.00 661.06 30.41
1609 18.0420 893.00 659.35 29.88
1610 18.0470 821.00 657.85 28.65
1611 18.0520 823.00 656.53 28.69
1612 18.0570 857.00 655.38 29.27
1613 18.0620 823.00 654.38 28.69
1614 18.0670 771.00 653.50 27.77
1615 18.0720 783.00 652.73 27.98
1616 18.0770 869.00 652.06 29.48
1617 18.0820 866.00 651.47 29.43
1618 18.0870 896.00 650.96 29.93
1619 18.0920 963.00 650.50 31.03
1620 18.0970 997.00 650.09 31.58
1621 18.1020 976.00 649.73 31.24
1622 18.1070 932.00 649.41 30.53
1623 18.1120 915.00 649.12 30.25
1624 18.1170 910.00 648.86 30.17
1625 18.1220 905.00 648.63 30.08
1626 18.1270 890.00 648.41 29.83
1627 18.1320 816.00 648.22 28.57
1628 18.1370 817.00 648.04 28.58
1629 18.1420 890.00 647.87 29.83
1630 18.1470 867.00 647.72 29.44
1631 18.1520 765.00 647.59 27.66
1632 18.1570 785.00 647.46 28.02
1633 18.1620 814.00 647.34 28.53
1634 18.1670 740.00 647.24 27.20
1635 18.1720 686.00 647.14 26.19
1636 18.1770 724.00 647.05 26.91
1637 18.1820 790.00 646.97 28.11
1638 18.1870 820.00 646.90 28.64
1639 18.1920 829.00 646.84 28.79
1640 18.1970 837.00 646.78 28.93
1641 18.2020 829.00 646.73 28.79
1642 18.2070 789.00 646.68 28.09
1643 18.2120 843.00 646.64 29.03
1644 18.2170 780.00 646.61 27.93
1645 18.2220 686.00 646.58 26.19
1646 18.2270 655.00 646.56 25.59
1647 18.2320 678.00 646.55 26.04
1648 18.2370 657.00 646.54 25.63
1649 18.2420 716.00 646.53 26.76
1650 18.2470 679.00 646.53 26.06
1651 18.2520 683.00 646.53 26.13
1652 18.2570 642.00 646.54 25.34
1653 18.2620 602.00 646.56 24.54
1654 18.2670 574.00 646.58 23.96
1655 18.2720 582.00 646.60 24.12
1656 18.2770 550.00 646.63 23.45
1657 18.2820 613.00 646.66 24.76
1658 18.2870 679.00 646.69 26.06
1659 18.2920 766.00 646.73 27.68
1660 18.2970 830.00 646.78 28.81
1661 18.3020 852.00 646.83 29.19
1662 18.3070 888.00 646.88 29.80
1663 18.3120 848.00 646.94 29.12
1664 18.3170 783.00 647.00 27.98
1665 18.3220 733.00 647.07 27.07
1666 18.3270 711.00 647.14 26.66
1667 18.3320 676.00 647.21 26.00
1668 18.3370 666.00 647.29 25.81
1669 18.3420 619.00 647.38 24.88
1670 18.3470 597.00 647.47 24.43
1671 18.3520 578.00 647.56 24.04
1672 18.3570 590.00 647.66 24.29
1673 18.3620 594.00 647.76 24.37
1674 18.3670 554.00 647.87 23.54
1675 18.3720 584.00 647.98 24.17
1676 18.3770 568.00 648.10 23.83
1677 18.3820 599.00 648.22 24.47
1678 18.3870 620.00 648.34 24.90
1679 18.3920 712.00 648.48 26.68
1680 18.3970 773.00 648.61 27.80
1681 18.4020 799.00 648.76 28.27
1682 18.4070 788.00 648.90 28.07
1683 18.4120 806.00 649.06 28.39
1684 18.4170 846.00 649.22 29.09
1685 18.4220 823.00 649.38 28.69
1686 18.4270 720.00 649.55 26.83
1687 18.4320 668.00 649.73 25.85
1688 18.4370 692.00 649.91 26.31
1689 18.4420 718.00 650.10 26.80
1690 18.4470 686.00 650.29 26.19
1691 18.4520 689.00 650.49 26.25
1692 18.4570 654.00 650.70 25.57
1693 18.4620 659.00 650.92 25.67
1694 18.4670 648.00 651.14 25.46
1695 18.4720 665.00 651.37 25.79
1696 18.4770 635.00 651.61 25.20
1697 18.4820 654.00 651.85 25.57
1698 18.4870 735.00 652.11 27.11
1699 18.4920 794.00 652.37 28.18
1700 18.4970 833.00 652.64 28.86
1701 18.5020 819.00 652.92 28.62
1702 18.5070 761.00 653.21 27.59
1703 18.5120 759.00 653.51 27.55
1704 18.5170 709.00 653.81 26.63
1705 18.5220 776.00 654.13 27.86
1706 18.5270 793.00 654.46 28.16
1707 18.5320 683.00 654.80 26.13
1708 18.5370 587.00 655.15 24.23
1709 18.5420 643.00 655.51 25.36
1710 18.5470 717.00 655.89 26.78
1711 18.5520 710.00 656.27 26.65
1712 18.5570 667.00 656.67 25.83
1713 18.5620 626.00 657.09 25.02
1714 18.5670 650.00 657.52 25.50
1715 18.5720 668.00 657.96 25.85
1716 18.5770 701.00 658.42 26.48
1717 18.5820 725.00 658.90 26.93
1718 18.5870 792.00 659.40 28.14
1719 18.5920 833.00 659.91 28.86
1720 18.5970 902.00 660.45 30.03
1721 18.6020 942.00 661.00 30.69
1722 18.6070 981.00 661.58 31.32
1723 18.6120 925.00 662.18 30.41
1724 18.6170 852.00 662.81 29.19
1725 18.6220 844.00 663.47 29.05
1726 18.6270 916.00 664.16 30.27
1727 18.6320 873.00 664.87 29.55
1728 18.6370 935.00 665.62 30.58
1729 18.6420 833.00 666.41 28.86
1730 18.6470 884.00 667.23 29.73
1731 18.6520 876.00 668.10 29.60
1732 18.6570 854.00 669.01 29.22
1733 18.6620 766.00 669.97 27.68
1734 18.6670 775.00 670.98 27.84
1735 18.6720 790.00 672.05 28.11
1736 18.6770 764.00 673.17 27.64
1737 18.6820 776.00 674.36 27.86
1738 18.6870 765.00 675.62 27.66
1739 18.6920 850.00 676.95 29.15
1740 18.6970 908.00 678.36 30.13
1741 18.7020 885.00 679.85 29.75
1742 18.7070 792.00 681.43 28.14
1743 18.7120 791.00 683.10 28.12
1744 18.7170 860.00 684.88 29.33
1745 18.7220 772.00 686.76 27.78
1746 18.7270 688.00 688.75 26.23
1747 18.7320 736.00 690.87 27.13
1748 18.7370 735.00 693.11 27.11
1749 18.7420 792.00 695.48 28.14
1750 18.7470 808.00 698.00 28.43
1751 18.7520 832.00 700.66 28.84
1752 18.7570 839.00 703.47 28.97
1753 18.7620 749.00 706.45 27.37
1754 18.7670 742.00 709.59 27.24
1755 18.7720 688.00 712.90 26.23
1756 18.7770 782.00 716.38 27.96
1757 18.7820 837.00 720.05 28.93
1758 18.7870 802.00 723.91 28.32
1759 18.7920 740.00 727.96 27.20
1760 18.7970 750.00 732.20 27.39
1761 18.8020 733.00 736.64 27.07
1762 18.8070 755.00 741.28 27.48
1763 18.8120 806.00 746.12 28.39
1764 18.8170 778.00 751.16 27.89
1765 18.8220 792.00 756.41 28.14
1766 18.8270 779.00 761.87 27.91
1767 18.8320 803.00 767.53 28.34
1768 18.8370 764.00 773.40 27.64
1769 18.8420 772.00 779.48 27.78
1770 18.8470 781.00 785.76 27.95
1771 18.8520 759.00 792.25 27.55
1772 18.8570 688.00 798.94 26.23
1773 18.8620 728.00 805.84 26.98
1774 18.8670 675.00 812.94 25.98
1775 18.8720 680.00 820.25 26.08
1776 18.8770 687.00 827.76 26.21
1777 18.8820 657.00 835.48 25.63
1778 18.8870 774.00 843.41 27.82
1779 18.8920 847.00 851.55 29.10
1780 18.8970 784.00 859.89 28.00
1781 18.9020 819.00 868.45 28.62
1782 18.9070 824.00 877.22 28.71
1783 18.9120 878.00 886.20 29.63
1784 18.9170 856.00 895.40 29.26
1785 18.9220 844.00 904.83 29.05
1786 18.9270 869.00 914.47 29.48
1787 18.9320 830.00 924.35 28.81
1788 18.9370 762.00 934.16 27.60
1789 18.9420 737.00 944.51 27.15
1790 18.9470 748.00 955.10 27.35
1791 18.9520 755.00 965.95 27.48
1792 18.9570 775.00 977.05 27.84
1793 18.9620 748.00 988.42 27.35
1794 18.9670 800.00 1000.05 28.28
1795 18.9720 867.00 1011.97 29.44
1796 18.9770 836.00 1024.17 28.91
1797 18.9820 867.00 1036.68 29.44
1798 18.9870 891.00 1049.50 29.85
1799 18.9920 971.00 1062.64 31.16
1800 18.9970 984.00 1076.11 31.37
1801 19.0020 994.00 1089.94 31.53
1802 19.0070 1079.00 1104.12 32.85
1803 19.0120 1063.00 1118.69 32.60
1804 19.0170 1053.00 1133.65 32.45
1805 19.0220 992.00 1149.03 31.50
1806 19.0270 928.00 1164.83 30.46
1807 19.0320 972.00 1181.10 31.18
1808 19.0370 990.00 1197.84 31.46
1809 19.0420 1030.00 1215.08 32.09
1810 19.0470 1020.00 1232.84 31.94
1811 19.0520 1120.00 1251.17 33.47
1812 19.0570 1150.00 1270.07 33.91
1813 19.0620 1124.00 1289.58 33.53
1814 19.0670 1090.00 1309.74 33.02
1815 19.0720 1176.00 1330.58 34.29
1816 19.0770 1126.00 1352.14 33.56
1817 19.0820 1244.00 1374.44 35.27
1818 19.0870 1313.00 1397.53 36.24
1819 19.0920 1410.00 1421.45 37.55
1820 19.0970 1454.00 1446.24 38.13
1821 19.1020 1512.00 1471.91 38.88
1822 19.1070 1568.00 1498.54 39.60
1823 19.1120 1618.00 1526.15 40.22
1824 19.1170 1585.00 1554.77 39.81
1825 19.1220 1566.00 1584.44 39.57
1826 19.1270 1614.00 1615.18 40.17
1827 19.1320 1639.00 1647.03 40.48
1828 19.1370 1698.00 1679.98 41.21
1829 19.1420 1690.00 1714.08 41.11
1830 19.1470 1773.00 1749.31 42.11
1831 19.1520 1820.00 1785.66 42.66
1832 19.1570 1811.00 1823.12 42.56
1833 19.1620 1885.00 1861.66 43.42
1834 19.1670 1887.00 1901.25 43.44
1835 19.1720 1916.00 1941.80 43.77
1836 19.1770 2022.00 1983.26 44.97
1837 19.1820 2020.00 2025.52 44.94
1838 19.1870 2090.00 2068.49 45.72
1839 19.1920 2267.00 2112.02 47.61
1840 19.1970 2378.00 2155.94 48.76
1841 19.2020 2409.00 2200.11 49.08
1842 19.2070 2426.00 2244.29 49.25
1843 19.2120 2428.00 2288.29 49.27
1844 19.2170 2467.00 2331.81 49.67
1845 19.2220 2508.00 2374.64 50.08
1846 19.2270 2513.00 2416.42 50.13
1847 19.2320 2529.00 2456.85 50.29
1848 19.2370 2647.00 2495.61 51.45
1849 19.2420 2689.00 2532.29 51.86
1850 19.2470 2664.00 2566.53 51.61
1851 19.2520 2658.00 2597.87 51.56
1852 19.2570 2696.00 2625.94 51.92
1853 19.2620 2841.00 2650.27 53.30
1854 19.2670 2821.00 2670.44 53.11
1855 19.2720 2787.00 2685.98 52.79
1856 19.2770 2761.00 2696.49 52.55
1857 19.2820 2762.00 2701.57 52.55
1858 19.2870 2844.00 2700.86 53.33
1859 19.2920 2879.00 2694.06 53.66
1860 19.2970 2820.00 2680.96 53.10
1861 19.3020 2768.00 2661.40 52.61
1862 19.3070 2699.00 2635.38 51.95
1863 19.3120 2545.00 2603.01 50.45
1864 19.3170 2453.00 2564.45 49.53
1865 19.3220 2422.00 2520.09 49.21
1866 19.3270 2324.00 2470.35 48.21
1867 19.3320 2262.00 2415.84 47.56
1868 19.3370 2187.00 2357.10 46.77
1869 19.3420 2139.00 2294.87 46.25
1870 19.3470 2070.00 2229.94 45.50
1871 19.3520 1985.00 2162.80 44.55
1872 19.3570 1923.00 2094.26 43.85
1873 19.3620 1866.00 2024.93 43.20
1874 19.3670 1813.00 1955.47 42.58
1875 19.3720 1758.00 1886.34 41.93
1876 19.3770 1740.00 1818.08 41.71
1877 19.3820 1728.00 1751.06 41.57
1878 19.3870 1686.00 1685.71 41.06
1879 19.3920 1690.00 1622.23 41.11
1880 19.3970 1604.00 1560.93 40.05
1881 19.4020 1481.00 1502.00 38.48
1882 19.4070 1396.00 1445.52 37.36
1883 19.4120 1425.00 1391.68 37.75
1884 19.4170 1404.00 1340.49 37.47
1885 19.4220 1315.00 1292.06 36.26
1886 19.4270 1323.00 1246.32 36.37
1887 19.4320 1313.00 1203.32 36.24
1888 19.4370 1292.00 1162.99 35.94
1889 19.4420 1273.00 1125.28 35.68
1890 19.4470 1227.00 1090.12 35.03
1891 19.4520 1157.00 1057.42 34.01
1892 19.4570 1096.00 1027.09 33.11
1893 19.4620 1084.00 999.03 32.92
1894 19.4670 1085.00 973.11 32.94
1895 19.4720 1052.00 949.22 32.43
1896 19.4770 1056.00 927.24 32.50
1897 19.4820 1071.00 907.06 32.73
1898 19.4870 1018.00 888.53 31.91
1899 19.4920 1007.00 871.56 31.73
1900 19.4970 964.00 856.02 31.05
1901 19.5020 989.00 841.80 31.45
1902 19.5070 996.00 828.78 31.56
1903 19.5120 967.00 816.87 31.10
1904 19.5170 1013.00 805.96 31.83
1905 19.5220 1002.00 795.98 31.65
1906 19.5270 954.00 786.82 30.89
1907 19.5320 910.00 778.41 30.17
1908 19.5370 862.00 770.68 29.36
1909 19.5420 853.00 763.56 29.21
1910 19.5470 874.00 756.99 29.56
1911 19.5520 869.00 750.91 29.48
1912 19.5570 785.00 745.28 28.02
1913 19.5620 747.00 740.05 27.33
1914 19.5670 724.00 735.17 26.91
1915 19.5720 755.00 730.61 27.48
1916 19.5770 805.00 726.34 28.37
1917 19.5820 802.00 722.33 28.32
1918 19.5870 762.00 718.56 27.60
1919 19.5920 756.00 715.00 27.50
1920 19.5970 730.00 711.63 27.02
1921 19.6020 703.00 708.44 26.51
1922 19.6070 676.00 705.40 26.00
1923 19.6120 703.00 702.52 26.51
1924 19.6170 708.00 699.76 26.61
1925 19.6220 703.00 697.14 26.51
1926 19.6270 723.00 694.62 26.89
1927 19.6320 722.00 692.21 26.87
1928 19.6370 717.00 689.90 26.78
1929 19.6420 756.00 687.68 27.50
1930 19.6470 750.00 685.55 27.39
1931 19.6520 680.00 683.50 26.08
1932 19.6570 581.00 681.52 24.10
1933 19.6620 566.00 679.62 23.79
1934 19.6670 592.00 677.78 24.33
1935 19.6720 638.00 676.01 25.26
1936 19.6770 678.00 674.29 26.04
1937 19.6820 723.00 672.64 26.89
1938 19.6870 713.00 671.04 26.70
1939 19.6920 668.00 669.49 25.85
1940 19.6970 606.00 667.99 24.62
1941 19.7020 591.00 666.54 24.31
1942 19.7070 596.00 665.13 24.41
1943 19.7120 611.00 663.77 24.72
1944 19.7170 639.00 662.45 25.28
1945 19.7220 663.00 661.17 25.75
1946 19.7270 647.00 659.93 25.44
1947 19.7320 598.00 658.72 24.45
1948 19.7370 519.00 657.55 22.78
1949 19.7420 489.00 656.41 22.11
1950 19.7470 488.00 655.30 22.09
1951 19.7520 489.00 654.23 22.11
1952 19.7570 478.00 653.19 21.86
1953 19.7620 490.00 652.17 22.14
1954 19.7670 475.00 651.18 21.79
1955 19.7720 455.00 650.22 21.33
1956 19.7770 497.00 649.29 22.29
1957 19.7820 543.00 648.38 23.30
1958 19.7870 598.00 647.50 24.45
1959 19.7920 661.00 646.64 25.71
1960 19.7970 693.00 645.80 26.32
1961 19.8020 684.00 644.98 26.15
1962 19.8070 623.00 644.19 24.96
1963 19.8120 571.00 643.42 23.90
1964 19.8170 575.00 642.66 23.98
1965 19.8220 578.00 641.93 24.04
1966 19.8270 546.00 641.22 23.37
1967 19.8320 533.00 640.53 23.09
1968 19.8370 544.00 639.86 23.32
1969 19.8420 501.00 639.20 22.38
1970 19.8470 517.00 638.56 22.74
1971 19.8520 551.00 637.94 23.47
1972 19.8570 482.00 637.34 21.95
1973 19.8620 449.00 636.75 21.19
1974 19.8670 526.00 636.18 22.93
1975 19.8720 601.00 635.63 24.52
1976 19.8770 649.00 635.09 25.48
1977 19.8820 649.00 634.56 25.48
1978 19.8870 664.00 634.05 25.77
1979 19.8920 676.00 633.55 26.00
1980 19.8970 730.00 633.07 27.02
1981 19.9020 753.00 632.60 27.44
1982 19.9070 745.00 632.14 27.29
1983 19.9120 701.00 631.69 26.48
1984 19.9170 611.00 631.26 24.72
1985 19.9220 557.00 630.84 23.60
1986 19.9270 537.00 630.42 23.17
1987 19.9320 584.00 630.03 24.17
1988 19.9370 594.00 629.64 24.37
1989 19.9420 556.00 629.26 23.58
1990 19.9470 543.00 628.89 23.30
1991 19.9520 563.00 628.53 23.73
1992 19.9570 554.00 628.18 23.54
1993 19.9620 563.00 627.84 23.73
1994 19.9670 556.00 627.51 23.58
1995 19.9720 588.00 627.19 24.25
1996 19.9770 597.00 626.88 24.43
1997 19.9820 570.00 626.58 23.87
1998 19.9870 533.00 626.29 23.09
1999 19.9920 543.00 626.01 23.30
2000 19.9970 579.00 625.73 24.06
2001 20.0020 615.00 625.46 24.80
2002 20.0070 642.00 625.21 25.34
2003 20.0120 648.00 624.96 25.46
2004 20.0170 621.00 624.72 24.92
2005 20.0220 579.00 624.48 24.06
2006 20.0270 537.00 624.26 23.17
2007 20.0320 559.00 624.04 23.64
2008 20.0370 574.00 623.84 23.96
2009 20.0420 533.00 623.64 23.09
2010 20.0470 478.00 623.45 21.86
2011 20.0520 454.00 623.27 21.31
2012 20.0570 442.00 623.09 21.02
2013 20.0620 424.00 622.93 20.59
2014 20.0670 430.00 622.77 20.74
2015 20.0720 466.00 622.63 21.59
2016 20.0770 491.00 622.49 22.16
2017 20.0820 506.00 622.36 22.49
2018 20.0870 561.00 622.24 23.69
2019 20.0920 566.00 622.13 23.79
2020 20.0970 540.00 622.03 23.24
2021 20.1020 534.00 621.94 23.11
2022 20.1070 535.00 621.85 23.13
2023 20.1120 518.00 621.78 22.76
2024 20.1170 497.00 622.40 22.29
2025 20.1220 475.00 622.35 21.79
2026 20.1270 490.00 622.32 22.14
2027 20.1320 520.00 622.30 22.80
2028 20.1370 524.00 622.30 22.89
2029 20.1420 500.00 622.30 22.36
2030 20.1470 490.00 622.33 22.14
2031 20.1520 472.00 622.36 21.73
2032 20.1570 415.00 622.41 20.37
2033 20.1620 359.00 622.48 18.95
2034 20.1670 356.00 622.56 18.87
2035 20.1720 439.00 622.67 20.95
2036 20.1770 463.00 622.79 21.52
2037 20.1820 456.00 622.93 21.35
2038 20.1870 523.00 623.10 22.87
2039 20.1920 550.00 623.29 23.45
2040 20.1970 516.00 623.50 22.72
2041 20.2020 500.00 623.74 22.36
2042 20.2070 514.00 624.01 22.67
2043 20.2120 544.00 624.31 23.32
2044 20.2170 546.00 624.63 23.37
2045 20.2220 534.00 624.99 23.11
2046 20.2270 539.00 625.38 23.22
2047 20.2320 536.00 625.79 23.15
2048 20.2370 475.00 626.24 21.79
2049 20.2420 447.00 626.72 21.14
2050 20.2470 467.00 627.21 21.61
2051 20.2520 522.00 627.74 22.85
2052 20.2570 557.00 628.28 23.60
2053 20.2620 514.00 628.82 22.67
2054 20.2670 473.00 629.38 21.75
2055 20.2720 491.00 629.93 22.16
2056 20.2770 464.00 630.47 21.54
2057 20.2820 423.00 630.98 20.57
2058 20.2870 471.00 631.45 21.70
2059 20.2920 556.00 631.88 23.58
2060 20.2970 609.00 632.23 24.68
2061 20.3020 609.00 632.51 24.68
2062 20.3070 564.00 632.68 23.75
2063 20.3120 512.00 632.74 22.63
2064 20.3170 490.00 632.67 22.14
2065 20.3220 491.00 632.44 22.16
2066 20.3270 536.00 632.06 23.15
2067 20.3320 543.00 631.51 23.30
2068 20.3370 473.00 630.79 21.75
2069 20.3420 430.00 629.90 20.74
2070 20.3470 406.00 628.86 20.15
2071 20.3520 423.00 627.69 20.57
2072 20.3570 426.00 626.40 20.64
2073 20.3620 408.00 625.02 20.20
2074 20.3670 420.00 623.59 20.49
2075 20.3720 452.00 622.13 21.26
2076 20.3770 500.00 620.67 22.36
2077 20.3820 490.00 619.22 22.14
2078 20.3870 461.00 617.80 21.47
2079 20.3920 508.00 616.43 22.54
2080 20.3970 580.00 615.12 24.08
2081 20.4020 642.00 613.88 25.34
2082 20.4070 667.00 612.71 25.83
2083 20.4120 666.00 611.62 25.81
2084 20.4170 630.00 610.60 25.10
2085 20.4220 617.00 609.66 24.84
2086 20.4270 646.00 608.79 25.42
2087 20.4320 638.00 607.99 25.26
2088 20.4370 611.00 607.26 24.72
2089 20.4420 575.00 606.60 23.98
2090 20.4470 526.00 605.99 22.93
2091 20.4520 534.00 605.43 23.11
2092 20.4570 603.00 604.93 24.56
2093 20.4620 611.00 604.47 24.72
2094 20.4670 559.00 604.04 23.64
2095 20.4720 523.00 603.66 22.87
2096 20.4770 533.00 603.30 23.09
2097 20.4820 545.00 602.97 23.35
2098 20.4870 558.00 602.66 23.62
2099 20.4920 626.00 602.38 25.02
2100 20.4970 664.00 602.51 25.77
2101 20.5020 657.00 607.20 25.63
2102 20.5070 634.00 607.01 25.18
2103 20.5120 617.00 606.84 24.84
2104 20.5170 593.00 606.68 24.35
2105 20.5220 539.00 606.53 23.22
2106 20.5270 529.00 606.38 23.00
2107 20.5320 541.00 606.25 23.26
2108 20.5370 518.00 606.12 22.76
2109 20.5420 476.00 606.00 21.82
2110 20.5470 506.00 605.89 22.49
2111 20.5520 517.00 605.78 22.74
2112 20.5570 478.00 605.67 21.86
2113 20.5620 453.00 605.58 21.28
2114 20.5670 415.00 605.48 20.37
2115 20.5720 421.00 605.40 20.52
2116 20.5770 454.00 605.31 21.31
2117 20.5820 481.00 605.23 21.93
2118 20.5870 557.00 605.16 23.60
2119 20.5920 609.00 605.09 24.68
2120 20.5970 623.00 605.02 24.96
2121 20.6020 614.00 604.96 24.78
2122 20.6070 621.00 604.91 24.92
2123 20.6120 606.00 604.85 24.62
2124 20.6170 630.00 604.81 25.10
2125 20.6220 697.00 604.76 26.40
2126 20.6270 683.00 604.73 26.13
2127 20.6320 604.00 604.69 24.58
2128 20.6370 568.00 604.66 23.83
2129 20.6420 526.00 604.64 22.93
2130 20.6470 517.00 604.62 22.74
2131 20.6520 559.00 604.60 23.64
2132 20.6570 560.00 604.59 23.66
2133 20.6620 560.00 604.59 23.66
2134 20.6670 534.00 604.59 23.11
2135 20.6720 540.00 604.60 23.24
2136 20.6770 595.00 604.61 24.39
2137 20.6820 664.00 604.63 25.77
2138 20.6870 679.00 604.66 26.06
2139 20.6920 647.00 604.69 25.44
2140 20.6970 604.00 604.73 24.58
2141 20.7020 633.00 604.78 25.16
2142 20.7070 675.00 604.84 25.98
2143 20.7120 672.00 604.90 25.92
2144 20.7170 682.00 604.97 26.12
2145 20.7220 688.00 605.06 26.23
2146 20.7270 625.00 605.15 25.00
2147 20.7320 586.00 605.26 24.21
2148 20.7370 570.00 605.38 23.87
2149 20.7420 497.00 605.51 22.29
2150 20.7470 416.00 605.65 20.40
2151 20.7520 436.00 605.81 20.88
2152 20.7570 430.00 605.98 20.74
2153 20.7620 402.00 606.18 20.05
2154 20.7670 403.00 606.39 20.07
2155 20.7720 449.00 606.61 21.19
2156 20.7770 471.00 606.86 21.70
2157 20.7820 490.00 607.13 22.14
2158 20.7870 506.00 607.42 22.49
2159 20.7920 534.00 607.73 23.11
2160 20.7970 584.00 608.07 24.17
2161 20.8020 603.00 603.35 24.56
2162 20.8070 582.00 603.78 24.12
2163 20.8120 553.00 604.22 23.52
2164 20.8170 503.00 604.70 22.43
2165 20.8220 467.00 605.20 21.61
2166 20.8270 462.00 605.72 21.49
2167 20.8320 458.00 606.28 21.40
2168 20.8370 497.00 606.87 22.29
2169 20.8420 532.00 607.48 23.07
2170 20.8470 525.00 608.12 22.91
2171 20.8520 526.00 608.80 22.93
2172 20.8570 522.00 609.50 22.85
2173 20.8620 527.00 610.23 22.96
2174 20.8670 562.00 610.99 23.71
2175 20.8720 621.00 611.78 24.92
2176 20.8770 635.00 612.59 25.20
2177 20.8820 656.00 613.44 25.61
2178 20.8870 702.00 614.32 26.50
2179 20.8920 665.00 615.22 25.79
2180 20.8970 636.00 616.16 25.22
2181 20.9020 677.00 617.13 26.02
2182 20.9070 681.00 618.13 26.10
2183 20.9120 643.00 619.16 25.36
2184 20.9170 556.00 620.22 23.58
2185 20.9220 523.00 621.31 22.87
2186 20.9270 514.00 622.44 22.67
2187 20.9320 526.00 623.60 22.93
2188 20.9370 522.00 624.79 22.85
2189 20.9420 483.00 626.03 21.98
2190 20.9470 410.00 627.30 20.25
2191 20.9520 455.00 628.61 21.33
2192 20.9570 469.00 629.96 21.66
2193 20.9620 458.00 631.35 21.40
2194 20.9670 508.00 632.78 22.54
2195 20.9720 515.00 634.26 22.69
2196 20.9770 536.00 635.79 23.15
2197 20.9820 601.00 637.37 24.52
2198 20.9870 635.00 639.01 25.20
2199 20.9920 642.00 640.70 25.34
2200 20.9970 681.00 642.46 26.10
2201 21.0020 682.00 644.28 26.12
2202 21.0070 658.00 646.16 25.65
2203 21.0120 639.00 648.12 25.28
2204 21.0170 623.00 650.17 24.96
2205 21.0220 610.00 652.29 24.70
2206 21.0270 564.00 654.51 23.75
2207 21.0320 480.00 656.82 21.91
2208 21.0370 486.00 659.24 22.05
2209 21.0420 520.00 661.78 22.80
2210 21.0470 502.00 668.50 22.41
2211 21.0520 466.00 671.33 21.59
2212 21.0570 499.00 674.30 22.34
2213 21.0620 506.00 677.43 22.49
2214 21.0670 524.00 680.73 22.89
2215 21.0720 564.00 684.20 23.75
2216 21.0770 625.00 687.85 25.00
2217 21.0820 694.00 691.72 26.34
2218 21.0870 732.00 695.79 27.06
2219 21.0920 713.00 700.10 26.70
2220 21.0970 705.00 704.65 26.55
2221 21.1020 722.00 709.46 26.87
2222 21.1070 760.00 714.53 27.57
2223 21.1120 782.00 719.89 27.96
2224 21.1170 757.00 725.54 27.51
2225 21.1220 745.00 731.49 27.29
2226 21.1270 759.00 737.76 27.55
2227 21.1320 739.00 744.34 27.18
2228 21.1370 662.00 751.25 25.73
2229 21.1420 636.00 758.49 25.22
2230 21.1470 693.00 766.06 26.32
2231 21.1520 712.00 773.95 26.68
2232 21.1570 699.00 782.18 26.44
2233 21.1620 729.00 790.72 27.00
2234 21.1670 735.00 799.58 27.11
2235 21.1720 740.00 808.73 27.20
2236 21.1770 786.00 818.17 28.04
2237 21.1820 839.00 827.88 28.97
2238 21.1870 879.00 837.81 29.65
2239 21.1920 945.00 847.96 30.74
2240 21.1970 1031.00 858.29 32.11
2241 21.2020 1065.00 868.75 32.63
2242 21.2070 1057.00 879.30 32.51
2243 21.2120 1057.00 889.90 32.51
2244 21.2170 1058.00 900.48 32.53
2245 21.2220 1032.00 911.00 32.12
2246 21.2270 1088.00 921.37 32.98
2247 21.2320 1039.00 931.55 32.23
2248 21.2370 931.00 941.45 30.51
2249 21.2420 906.00 950.99 30.10
2250 21.2470 893.00 960.11 29.88
2251 21.2520 886.00 968.73 29.77
2252 21.2570 926.00 976.78 30.43
2253 21.2620 961.00 984.18 31.00
2254 21.2670 954.00 990.90 30.89
2255 21.2720 1007.00 996.89 31.73
2256 21.2770 1056.00 1002.14 32.50
2257 21.2820 1060.00 1006.68 32.56
2258 21.2870 1156.00 1010.54 34.00
2259 21.2920 1174.00 1013.80 34.26
2260 21.2970 1148.00 1016.54 33.88
2261 21.3020 1198.00 1018.90 34.61
2262 21.3070 1194.00 1021.01 34.55
2263 21.3120 1128.00 1023.00 33.59
2264 21.3170 1156.00 1025.03 34.00
2265 21.3220 1147.00 1027.23 33.87
2266 21.3270 1090.00 1029.72 33.02
2267 21.3320 1020.00 1032.63 31.94
2268 21.3370 1060.00 1036.05 32.56
2269 21.3420 1111.00 1040.07 33.33
2270 21.3470 1102.00 1044.71 33.20
2271 21.3520 1037.00 1050.17 32.20
2272 21.3570 998.00 1056.43 31.59
2273 21.3620 1015.00 1063.55 31.86
2274 21.3670 1044.00 1071.58 32.31
2275 21.3720 1159.00 1080.54 34.04
2276 21.3770 1162.00 1090.48 34.09
2277 21.3820 1209.00 1101.43 34.77
2278 21.3870 1285.00 1113.42 35.85
2279 21.3920 1305.00 1126.49 36.12
2280 21.3970 1278.00 1140.67 35.75
2281 21.4020 1272.00 1155.99 35.67
2282 21.4070 1294.00 1172.49 35.97
2283 21.4120 1297.00 1190.20 36.01
2284 21.4170 1294.00 1209.17 35.97
2285 21.4220 1290.00 1229.44 35.92
2286 21.4270 1249.00 1251.04 35.34
2287 21.4320 1297.00 1274.01 36.01
2288 21.4370 1327.00 1298.38 36.43
2289 21.4420 1343.00 1324.21 36.65
2290 21.4470 1372.00 1351.49 37.04
2291 21.4520 1376.00 1380.25 37.09
2292 21.4570 1353.00 1410.46 36.78
2293 21.4620 1358.00 1442.13 36.85
2294 21.4670 1362.00 1475.20 36.91
2295 21.4720 1379.00 1509.60 37.13
2296 21.4770 1445.00 1545.20 38.01
2297 21.4820 1558.00 1581.89 39.47
2298 21.4870 1616.00 1619.49 40.20
2299 21.4920 1633.00 1657.74 40.41
2300 21.4970 1630.00 1696.41 40.37
2301 21.5020 1627.00 1735.15 40.34
2302 21.5070 1683.00 1773.59 41.02
2303 21.5120 1782.00 1811.26 42.21
2304 21.5170 1839.00 1847.74 42.88
2305 21.5220 1822.00 1882.44 42.68
2306 21.5270 1842.00 1914.78 42.92
2307 21.5320 1737.00 1944.11 41.68
2308 21.5370 1677.00 1969.74 40.95
2309 21.5420 1726.00 1990.97 41.55
2310 21.5470 1735.00 2007.05 41.65
2311 21.5520 1717.00 2017.26 41.44
2312 21.5570 1736.00 2020.94 41.67
2313 21.5620 1685.00 2017.50 41.05
2314 21.5670 1639.00 2006.51 40.48
2315 21.5720 1639.00 1987.73 40.48
2316 21.5770 1633.00 1961.17 40.41
2317 21.5820 1630.00 1927.11 40.37
2318 21.5870 1628.00 1886.12 40.35
2319 21.5920 1621.00 1839.03 40.26
2320 21.5970 1572.00 1786.82 39.65
2321 21.6020 1480.00 1730.69 38.47
2322 21.6070 1404.00 1671.82 37.47
2323 21.6120 1378.00 1611.33 37.12
2324 21.6170 1336.00 1550.34 36.55
2325 21.6220 1338.00 1489.77 36.58
2326 21.6270 1301.00 1430.50 36.07
2327 21.6320 1236.00 1373.12 35.16
2328 21.6370 1176.00 1318.22 34.29
2329 21.6420 1149.00 1266.17 33.90
2330 21.6470 1112.00 1217.32 33.35
2331 21.6520 1076.00 1171.82 32.80
2332 21.6570 1058.00 1129.78 32.53
2333 21.6620 1008.00 1091.30 31.75
2334 21.6670 1027.00 1056.30 32.05
2335 21.6720 1009.00 1024.76 31.76
2336 21.6770 993.00 996.56 31.51
2337 21.6820 976.00 971.57 31.24
2338 21.6870 1028.00 949.61 32.06
2339 21.6920 1073.00 930.51 32.76
2340 21.6970 1143.00 914.08 33.81
2341 21.7020 1138.00 900.10 33.73
2342 21.7070 1073.00 888.39 32.76
2343 21.7120 1005.00 878.72 31.70
2344 21.7170 1054.00 870.91 32.47
2345 21.7220 979.00 864.77 31.29
2346 21.7270 955.00 860.10 30.90
2347 21.7320 942.00 856.75 30.69
2348 21.7370 913.00 854.55 30.22
2349 21.7420 884.00 853.35 29.73
2350 21.7470 923.00 853.03 30.38
2351 21.7520 940.00 853.44 30.66
2352 21.7570 906.00 854.48 30.10
2353 21.7620 868.00 856.04 29.46
2354 21.7670 924.00 858.04 30.40
2355 21.7720 940.00 860.36 30.66
2356 21.7770 969.00 862.94 31.13
2357 21.7820 1002.00 865.70 31.65
2358 21.7870 1009.00 868.57 31.76
2359 21.7920 997.00 871.48 31.58
2360 21.7970 983.00 874.36 31.35
2361 21.8020 998.00 877.17 31.59
2362 21.8070 979.00 879.85 31.29
2363 21.8120 931.00 882.36 30.51
2364 21.8170 928.00 884.65 30.46
2365 21.8220 911.00 886.71 30.18
2366 21.8270 921.00 888.50 30.35
2367 21.8320 955.00 890.02 30.90
2368 21.8370 946.00 891.28 30.76
2369 21.8420 875.00 892.28 29.58
2370 21.8470 889.00 893.07 29.82
2371 21.8520 933.00 893.68 30.55
2372 21.8570 919.00 894.16 30.32
2373 21.8620 953.00 894.57 30.87
2374 21.8670 982.00 894.96 31.34
2375 21.8720 952.00 895.40 30.85
2376 21.8770 986.00 895.95 31.40
2377 21.8820 1008.00 896.67 31.75
2378 21.8870 1067.00 897.62 32.67
2379 21.8920 1032.00 898.84 32.12
2380 21.8970 989.00 900.39 31.45
2381 21.9020 1031.00 902.31 32.11
2382 21.9070 1064.00 904.63 32.62
2383 21.9120 1077.00 907.39 32.82
2384 21.9170 1040.00 910.62 32.25
2385 21.9220 1070.00 914.34 32.71
2386 21.9270 1028.00 918.59 32.06
2387 21.9320 1006.00 923.37 31.72
2388 21.9370 986.00 928.71 31.40
2389 21.9420 994.00 934.63 31.53
2390 21.9470 946.00 941.15 30.76
2391 21.9520 995.00 948.29 31.54
2392 21.9570 1045.00 956.06 32.33
2393 21.9620 996.00 964.48 31.56
2394 21.9670 992.00 973.58 31.50
2395 21.9720 1025.00 983.37 32.02
2396 21.9770 1066.00 993.87 32.65
2397 21.9820 1118.00 1005.10 33.44
2398 21.9870 1061.00 1017.08 32.57
2399 21.9920 1066.00 1029.84 32.65
2400 21.9970 1046.00 1043.40 32.34
2401 22.0020 1090.00 1057.76 33.02
2402 22.0070 1109.00 1072.96 33.30
2403 22.0120 1057.00 1088.99 32.51
2404 22.0170 1079.00 1105.88 32.85
2405 22.0220 1092.00 1123.60 33.05
2406 22.0270 1085.00 1142.16 32.94
2407 22.0320 1102.00 1161.56 33.20
2408 22.0370 1112.00 1181.73 33.35
2409 22.0420 1157.00 1202.65 34.01
2410 22.0470 1230.00 1224.24 35.07
2411 22.0520 1256.00 1246.43 35.44
2412 22.0570 1264.00 1269.10 35.55
2413 22.0620 1275.00 1292.12 35.71
2414 22.0670 1320.00 1315.35 36.33
2415 22.0720 1375.00 1338.57 37.08
2416 22.0770 1397.00 1361.59 37.38
2417 22.0820 1514.00 1384.12 38.91
2418 22.0870 1573.00 1405.91 39.66
2419 22.0920 1545.00 1426.59 39.31
2420 22.0970 1525.00 1445.83 39.05
2421 22.1020 1593.00 1463.18 39.91
2422 22.1070 1553.00 1478.24 39.41
2423 22.1120 1539.00 1490.52 39.23
2424 22.1170 1500.00 1499.53 38.73
2425 22.1220 1408.00 1504.80 37.52
2426 22.1270 1377.00 1505.86 37.11
2427 22.1320 1326.00 1502.32 36.41
2428 22.1370 1294.00 1493.88 35.97
2429 22.1420 1258.00 1480.35 35.47
2430 22.1470 1220.00 1461.76 34.93
2431 22.1520 1205.00 1438.27 34.71
2432 22.1570 1281.00 1410.26 35.79
2433 22.1620 1298.00 1378.30 36.03
2434 22.1670 1217.00 1343.05 34.89
2435 22.1720 1201.00 1305.29 34.66
2436 22.1770 1175.00 1265.80 34.28
2437 22.1820 1109.00 1225.35 33.30
2438 22.1870 1075.00 1184.63 32.79
2439 22.1920 1067.00 1144.24 32.67
2440 22.1970 1017.00 1104.73 31.89
2441 22.2020 1005.00 1066.45 31.70
2442 22.2070 958.00 1029.74 30.95
2443 22.2120 906.00 994.80 30.10
2444 22.2170 810.00 961.83 28.46
2445 22.2220 802.00 930.85 28.32
2446 22.2270 805.00 901.96 28.37
2447 22.2320 688.00 875.13 26.23
2448 22.2370 671.00 850.33 25.90
2449 22.2420 604.00 827.50 24.58
2450 22.2470 576.00 806.57 24.00
2451 22.2520 575.00 787.45 23.98
2452 22.2570 637.00 770.03 25.24
2453 22.2620 605.00 754.20 24.60
2454 22.2670 614.00 739.85 24.78
2455 22.2720 625.00 726.86 25.00
2456 22.2770 597.00 715.12 24.43
2457 22.2820 573.00 704.52 23.94
2458 22.2870 565.00 694.94 23.77
2459 22.2920 628.00 686.29 25.06
2460 22.2970 695.00 678.47 26.36
2461 22.3020 715.00 671.39 26.74
2462 22.3070 678.00 664.97 26.04
2463 22.3120 706.00 659.13 26.57
2464 22.3170 700.00 653.81 26.46
2465 22.3220 610.00 648.95 24.70
2466 22.3270 578.00 644.49 24.04
2467 22.3320 567.00 640.38 23.81
2468 22.3370 534.00 636.59 23.11
2469 22.3420 554.00 633.08 23.54
2470 22.3470 531.00 629.82 23.04
2471 22.3520 517.00 626.77 22.74
2472 22.3570 541.00 623.92 23.26
2473 22.3620 545.00 621.24 23.35
2474 22.3670 522.00 618.73 22.85
2475 22.3720 546.00 616.36 23.37
2476 22.3770 512.00 614.11 22.63
2477 22.3820 578.00 611.99 24.04
2478 22.3870 631.00 609.97 25.12
2479 22.3920 656.00 608.05 25.61
2480 22.3970 657.00 606.22 25.63
2481 22.4020 579.00 604.48 24.06
2482 22.4070 561.00 602.81 23.69
2483 22.4120 605.00 601.22 24.60
2484 22.4170 570.00 599.70 23.87
2485 22.4220 530.00 598.24 23.02
2486 22.4270 500.00 596.84 22.36
2487 22.4320 512.00 595.50 22.63
2488 22.4370 575.00 594.21 23.98
2489 22.4420 530.00 592.97 23.02
2490 22.4470 512.00 591.77 22.63
2491 22.4520 484.00 590.62 22.00
2492 22.4570 529.00 589.51 23.00
2493 22.4620 551.00 588.44 23.47
2494 22.4670 490.00 587.41 22.14
2495 22.4720 466.00 585.92 21.59
2496 22.4770 454.00 584.96 21.31
2497 22.4820 465.00 584.03 21.56
2498 22.4870 492.00 583.14 22.18
2499 22.4920 553.00 582.27 23.52
2500 22.4970 567.00 581.43 23.81
2501 22.5020 590.00 580.61 24.29
2502 22.5070 596.00 579.82 24.41
2503 22.5120 561.00 579.06 23.69
2504 22.5170 556.00 578.31 23.58
2505 22.5220 478.00 577.59 21.86
2506 22.5270 449.00 576.89 21.19
2507 22.5320 474.00 576.21 21.77
2508 22.5370 483.00 575.54 21.98
2509 22.5420 492.00 574.90 22.18
2510 22.5470 452.00 574.27 21.26
2511 22.5520 457.00 573.66 21.38
2512 22.5570 405.00 573.06 20.12
2513 22.5620 395.00 572.48 19.87
2514 22.5670 401.00 571.91 20.02
2515 22.5720 468.00 571.35 21.63
2516 22.5770 497.00 570.81 22.29
2517 22.5820 496.00 570.28 22.27
2518 22.5870 443.00 569.77 21.05
2519 22.5920 479.00 569.26 21.89
2520 22.5970 541.00 568.77 23.26
2521 22.6020 537.00 568.29 23.17
2522 22.6070 446.00 567.82 21.12
2523 22.6120 425.00 567.35 20.62
2524 22.6170 456.00 566.90 21.35
2525 22.6220 432.00 566.46 20.78
2526 22.6270 386.00 566.03 19.65
2527 22.6320 318.00 565.60 17.83
2528 22.6370 297.00 565.18 17.23
2529 22.6420 311.00 565.00 17.64
2530 22.6470 370.00 564.60 19.24
2531 22.6520 355.00 564.21 18.84
2532 22.6570 309.00 563.82 17.58
2533 22.6620 301.00 563.44 17.35
2534 22.6670 392.00 563.07 19.80
2535 22.6720 411.00 559.08 20.27
2536 22.6770 407.00 558.75 20.17
2537 22.6820 408.00 558.43 20.20
2538 22.6870 428.00 558.11 20.69
2539 22.6920 434.00 557.80 20.83
2540 22.6970 463.00 557.49 21.52
2541 22.7020 488.00 557.19 22.09
2542 22.7070 476.00 556.90 21.82
2543 22.7120 511.00 556.60 22.61
2544 22.7170 449.00 556.32 21.19
2545 22.7220 493.00 556.03 22.20
2546 22.7270 491.00 555.75 22.16
2547 22.7320 421.00 555.48 20.52
2548 22.7370 348.00 555.21 18.65
2549 22.7420 391.00 554.94 19.77
2550 22.7470 391.00 554.67 19.77
2551 22.7520 358.00 554.41 18.92
2552 22.7570 409.00 554.16 20.22
2553 22.7620 413.00 553.90 20.32
2554 22.7670 442.00 553.65 21.02
2555 22.7720 506.00 553.41 22.49
2556 22.7770 509.00 553.16 22.56
2557 22.7820 481.00 552.92 21.93
2558 22.7870 520.00 552.68 22.80
2559 22.7920 542.00 552.45 23.28
2560 22.7970 581.00 552.21 24.10
2561 22.8020 579.00 551.98 24.06
2562 22.8070 569.00 551.76 23.85
2563 22.8120 494.00 551.53 22.23
2564 22.8170 486.00 551.31 22.05
2565 22.8220 484.00 551.09 22.00
2566 22.8270 534.00 550.87 23.11
2567 22.8320 480.00 550.66 21.91
2568 22.8370 471.00 550.44 21.70
2569 22.8420 492.00 550.23 22.18
2570 22.8470 494.00 550.02 22.23
2571 22.8520 443.00 549.82 21.05
2572 22.8570 435.00 549.61 20.86
2573 22.8620 439.00 549.41 20.95
2574 22.8670 376.00 549.21 19.39
2575 22.8720 472.00 549.01 21.73
2576 22.8770 550.00 548.81 23.45
2577 22.8820 492.00 548.62 22.18
2578 22.8870 499.00 548.42 22.34
2579 22.8920 538.00 548.23 23.19
2580 22.8970 600.00 548.04 24.49
2581 22.9020 586.00 547.85 24.21
2582 22.9070 590.00 547.66 24.29
2583 22.9120 542.00 547.47 23.28
2584 22.9170 519.00 547.29 22.78
2585 22.9220 511.00 547.11 22.61
2586 22.9270 524.00 546.92 22.89
2587 22.9320 465.00 546.74 21.56
2588 22.9370 446.00 546.57 21.12
2589 22.9420 463.00 546.39 21.52
2590 22.9470 423.00 546.21 20.57
2591 22.9520 470.00 546.03 21.68
2592 22.9570 538.00 545.86 23.19
2593 22.9620 510.00 545.69 22.58
2594 22.9670 494.00 545.52 22.23
2595 22.9720 541.00 545.34 23.26
2596 22.9770 579.00 545.18 24.06
2597 22.9820 622.00 545.01 24.94
2598 22.9870 662.00 544.84 25.73
2599 22.9920 619.00 544.67 24.88
2600 22.9970 635.00 544.51 25.20
2601 23.0020 606.00 544.34 24.62
2602 23.0070 606.00 544.18 24.62
2603 23.0120 539.00 544.02 23.22
2604 23.0170 557.00 543.85 23.60
2605 23.0220 555.00 543.69 23.56
2606 23.0270 549.00 543.53 23.43
2607 23.0320 508.00 543.38 22.54
2608 23.0370 509.00 543.22 22.56
2609 23.0420 494.00 543.06 22.23
2610 23.0470 527.00 542.90 22.96
2611 23.0520 486.00 542.75 22.05
2612 23.0570 492.00 542.59 22.18
2613 23.0620 514.00 542.44 22.67
2614 23.0670 484.00 542.28 22.00
2615 23.0720 539.00 542.13 23.22
2616 23.0770 576.00 541.98 24.00
2617 23.0820 624.00 541.83 24.98
2618 23.0870 658.00 541.68 25.65
2619 23.0920 630.00 541.53 25.10
2620 23.0970 670.00 541.38 25.88
2621 23.1020 601.00 541.23 24.52
2622 23.1070 528.00 541.08 22.98
2623 23.1120 492.00 540.94 22.18
2624 23.1170 447.00 540.79 21.14
2625 23.1220 471.00 540.64 21.70
2626 23.1270 467.00 540.50 21.61
2627 23.1320 455.00 540.35 21.33
2628 23.1370 461.00 540.21 21.47
2629 23.1420 444.00 540.07 21.07
2630 23.1470 469.00 539.92 21.66
2631 23.1520 455.00 539.78 21.33
2632 23.1570 421.00 539.64 20.52
2633 23.1620 422.00 539.49 20.54
2634 23.1670 471.00 539.35 21.70
2635 23.1720 456.00 539.21 21.35
2636 23.1770 504.00 539.07 22.45
2637 23.1820 554.00 538.93 23.54
2638 23.1870 567.00 538.79 23.81
2639 23.1920 519.00 538.66 22.78
2640 23.1970 531.00 538.20 23.04
2641 23.2020 555.00 538.07 23.56
2642 23.2070 535.00 537.93 23.13
2643 23.2120 511.00 537.80 22.61
2644 23.2170 520.00 537.66 22.80
2645 23.2220 459.00 537.53 21.42
2646 23.2270 475.00 537.40 21.79
2647 23.2320 525.00 537.26 22.91
2648 23.2370 367.00 537.13 19.16
2649 23.2420 369.00 537.00 19.21
2650 23.2470 368.00 536.86 19.18
2651 23.2520 377.00 536.73 19.42
2652 23.2570 448.00 536.60 21.17
2653 23.2620 444.00 536.47 21.07
2654 23.2670 469.00 533.32 21.66
2655 23.2720 435.00 533.21 20.86
2656 23.2770 422.00 533.11 20.54
2657 23.2820 522.00 533.00 22.85
2658 23.2870 530.00 532.90 23.02
2659 23.2920 520.00 532.79 22.80
2660 23.2970 549.00 532.69 23.43
2661 23.3020 599.00 532.58 24.47
2662 23.3070 593.00 532.48 24.35
2663 23.3120 547.00 532.38 23.39
2664 23.3170 514.00 532.27 22.67
2665 23.3220 497.00 532.17 22.29
2666 23.3270 472.00 532.06 21.73
2667 23.3320 491.00 531.96 22.16
2668 23.3370 493.00 531.85 22.20
2669 23.3420 509.00 531.75 22.56
2670 23.3470 530.00 531.65 23.02
2671 23.3520 495.00 531.54 22.25
2672 23.3570 563.00 531.44 23.73
2673 23.3620 492.00 531.33 22.18
2674 23.3670 470.00 531.23 21.68
2675 23.3720 479.00 531.13 21.89
2676 23.3770 451.00 531.02 21.24
2677 23.3820 489.00 530.92 22.11
2678 23.3870 525.00 530.81 22.91
2679 23.3920 467.00 530.71 21.61
2680 23.3970 475.00 530.60 21.79
2681 23.4020 525.00 530.50 22.91
2682 23.4070 567.00 530.40 23.81
2683 23.4120 540.00 530.29 23.24
2684 23.4170 521.00 530.19 22.83
2685 23.4220 469.00 530.09 21.66
2686 23.4270 441.00 529.98 21.00
2687 23.4320 401.00 529.88 20.02
2688 23.4370 357.00 529.78 18.89
2689 23.4420 323.00 529.67 17.97
2690 23.4470 303.00 529.57 17.41
2691 23.4520 310.00 529.46 17.61
2692 23.4570 375.00 529.36 19.36
2693 23.4620 425.00 529.26 20.62
2694 23.4670 436.00 529.15 20.88
2695 23.4720 399.00 529.05 19.98
2696 23.4770 332.00 528.95 18.22
2697 23.4820 327.00 528.84 18.08
2698 23.4870 371.00 528.74 19.26
2699 23.4920 382.00 528.64 19.54
2700 23.4970 362.00 528.53 19.03
2701 23.5020 399.00 528.43 19.98
2702 23.5070 442.00 528.33 21.02
2703 23.5120 475.00 528.22 21.79
2704 23.5170 459.00 528.12 21.42
2705 23.5220 478.00 528.02 21.86
2706 23.5270 498.00 527.91 22.32
2707 23.5320 462.00 527.81 21.49
2708 23.5370 475.00 527.71 21.79
2709 23.5420 519.00 527.61 22.78
2710 23.5470 570.00 538.92 23.87
2711 23.5520 531.00 538.91 23.04
2712 23.5570 493.00 538.89 22.20
2713 23.5620 546.00 538.88 23.37
2714 23.5670 570.00 538.86 23.87
2715 23.5720 590.00 538.85 24.29
2716 23.5770 661.00 538.84 25.71
2717 23.5820 660.00 538.83 25.69
2718 23.5870 667.00 538.82 25.83
2719 23.5920 745.00 538.81 27.29
2720 23.5970 795.00 538.80 28.20
2721 23.6020 761.00 538.79 27.59
2722 23.6070 737.00 538.79 27.15
2723 23.6120 761.00 538.78 27.59
2724 23.6170 788.00 538.78 28.07
2725 23.6220 783.00 538.78 27.98
2726 23.6270 777.00 538.78 27.87
2727 23.6320 732.00 538.78 27.06
2728 23.6370 713.00 538.78 26.70
2729 23.6420 725.00 538.79 26.93
2730 23.6470 678.00 549.44 26.04
2731 23.6520 613.00 549.53 24.76
2732 23.6570 568.00 549.63 23.83
2733 23.6620 539.00 549.73 23.22
2734 23.6670 598.00 549.83 24.45
2735 23.6720 658.00 549.93 25.65
2736 23.6770 643.00 550.04 25.36
2737 23.6820 648.00 550.15 25.46
2738 23.6870 643.00 550.26 25.36
2739 23.6920 683.00 550.38 26.13
2740 23.6970 720.00 550.49 26.83
2741 23.7020 645.00 550.62 25.40
2742 23.7070 606.00 550.74 24.62
2743 23.7120 558.00 550.87 23.62
2744 23.7170 526.00 551.00 22.93
2745 23.7220 491.00 551.13 22.16
2746 23.7270 514.00 551.27 22.67
2747 23.7320 508.00 551.41 22.54
2748 23.7370 518.00 551.55 22.76
2749 23.7420 404.00 551.69 20.10
2750 23.7470 365.00 551.84 19.10
2751 23.7520 411.00 551.99 20.27
2752 23.7570 424.00 552.15 20.59
2753 23.7620 459.00 552.31 21.42
2754 23.7670 491.00 552.47 22.16
2755 23.7720 499.00 552.64 22.34
2756 23.7770 579.00 552.81 24.06
2757 23.7820 623.00 552.99 24.96
2758 23.7870 617.00 553.17 24.84
2759 23.7920 581.00 553.35 24.10
2760 23.7970 579.00 553.54 24.06
2761 23.8020 610.00 553.73 24.70
2762 23.8070 716.00 553.92 26.76
2763 23.8120 692.00 554.12 26.31
2764 23.8170 674.00 554.33 25.96
2765 23.8220 634.00 554.54 25.18
2766 23.8270 590.00 554.75 24.29
2767 23.8320 615.00 554.97 24.80
2768 23.8370 575.00 555.19 23.98
2769 23.8420 599.00 555.42 24.47
2770 23.8470 628.00 555.65 25.06
2771 23.8520 648.00 555.89 25.46
2772 23.8570 694.00 556.13 26.34
2773 23.8620 683.00 556.38 26.13
2774 23.8670 664.00 556.63 25.77
2775 23.8720 650.00 556.89 25.50
2776 23.8770 655.00 557.15 25.59
2777 23.8820 615.00 557.42 24.80
2778 23.8870 651.00 557.70 25.51
2779 23.8920 672.00 557.98 25.92
2780 23.8970 704.00 558.27 26.53
2781 23.9020 631.00 558.56 25.12
2782 23.9070 575.00 558.86 23.98
2783 23.9120 586.00 559.17 24.21
2784 23.9170 559.00 559.48 23.64
2785 23.9220 529.00 559.80 23.00
2786 23.9270 483.00 560.13 21.98
2787 23.9320 491.00 560.46 22.16
2788 23.9370 477.00 560.81 21.84
2789 23.9420 443.00 561.15 21.05
2790 23.9470 466.00 561.51 21.59
2791 23.9520 442.00 561.87 21.02
2792 23.9570 428.00 562.24 20.69
2793 23.9620 382.00 562.62 19.54
2794 23.9670 414.00 563.01 20.35
2795 23.9720 443.00 563.41 21.05
2796 23.9770 507.00 563.81 22.52
2797 23.9820 561.00 564.23 23.69
2798 23.9870 595.00 564.65 24.39
2799 23.9920 499.00 571.59 22.34
2800 23.9970 528.00 572.05 22.98
2801 24.0020 514.00 572.53 22.67
2802 24.0070 460.00 573.02 21.45
2803 24.0120 496.00 573.51 22.27
2804 24.0170 427.00 574.02 20.66
2805 24.0220 413.00 574.53 20.32
2806 24.0270 460.00 575.06 21.45
2807 24.0320 511.00 575.60 22.61
2808 24.0370 536.00 576.15 23.15
2809 24.0420 532.00 576.72 23.07
2810 24.0470 445.00 577.29 21.09
2811 24.0520 426.00 577.88 20.64
2812 24.0570 458.00 578.48 21.40
2813 24.0620 476.00 579.09 21.82
2814 24.0670 489.00 579.72 22.11
2815 24.0720 477.00 580.36 21.84
2816 24.0770 455.00 581.01 21.33
2817 24.0820 508.00 581.68 22.54
2818 24.0870 533.00 582.37 23.09
2819 24.0920 526.00 583.07 22.93
2820 24.0970 473.00 583.78 21.75
2821 24.1020 476.00 584.51 21.82
2822 24.1070 531.00 585.26 23.04
2823 24.1120 537.00 586.03 23.17
2824 24.1170 483.00 586.81 21.98
2825 24.1220 491.00 587.61 22.16
2826 24.1270 562.00 588.43 23.71
2827 24.1320 588.00 589.27 24.25
2828 24.1370 515.00 590.13 22.69
2829 24.1420 461.00 591.01 21.47
2830 24.1470 460.00 591.91 21.45
2831 24.1520 505.00 592.83 22.47
2832 24.1570 518.00 593.77 22.76
2833 24.1620 517.00 594.74 22.74
2834 24.1670 436.00 595.73 20.88
2835 24.1720 481.00 596.75 21.93
2836 24.1770 576.00 597.79 24.00
2837 24.1820 629.00 598.85 25.08
2838 24.1870 627.00 599.95 25.04
2839 24.1920 623.00 601.07 24.96
2840 24.1970 554.00 602.22 23.54
2841 24.2020 595.00 603.40 24.39
2842 24.2070 573.00 604.61 23.94
2843 24.2120 589.00 605.85 24.27
2844 24.2170 517.00 607.13 22.74
2845 24.2220 523.00 608.44 22.87
2846 24.2270 553.00 609.78 23.52
2847 24.2320 533.00 611.16 23.09
2848 24.2370 542.00 612.58 23.28
2849 24.2420 529.00 614.04 23.00
2850 24.2470 575.00 615.54 23.98
2851 24.2520 577.00 617.08 24.02
2852 24.2570 526.00 618.66 22.93
2853 24.2620 544.00 620.29 23.32
2854 24.2670 596.00 621.97 24.41
2855 24.2720 632.00 623.69 25.14
2856 24.2770 649.00 625.47 25.48
2857 24.2820 652.00 627.29 25.53
2858 24.2870 717.00 629.18 26.78
2859 24.2920 741.00 631.12 27.22
2860 24.2970 728.00 633.12 26.98
2861 24.3020 739.00 635.18 27.18
2862 24.3070 697.00 637.30 26.40
2863 24.3120 709.00 639.50 26.63
2864 24.3170 700.00 641.76 26.46
2865 24.3220 651.00 644.10 25.51
2866 24.3270 686.00 646.51 26.19
2867 24.3320 665.00 649.00 25.79
2868 24.3370 707.00 651.58 26.59
2869 24.3420 755.00 654.24 27.48
2870 24.3470 695.00 657.00 26.36
2871 24.3520 691.00 659.85 26.29
2872 24.3570 715.00 662.80 26.74
2873 24.3620 740.00 665.86 27.20
2874 24.3670 672.00 669.03 25.92
2875 24.3720 719.00 672.33 26.81
2876 24.3770 789.00 675.74 28.09
2877 24.3820 805.00 679.30 28.37
2878 24.3870 822.00 682.99 28.67
2879 24.3920 804.00 686.84 28.35
2880 24.3970 795.00 690.84 28.20
2881 24.4020 750.00 695.02 27.39
2882 24.4070 732.00 699.38 27.06
2883 24.4120 775.00 703.93 27.84
2884 24.4170 794.00 708.70 28.18
2885 24.4220 849.00 713.68 29.14
2886 24.4270 796.00 718.92 28.21
2887 24.4320 774.00 724.41 27.82
2888 24.4370 818.00 730.17 28.60
2889 24.4420 800.00 736.24 28.28
2890 24.4470 794.00 742.63 28.18
2891 24.4520 801.00 749.36 28.30
2892 24.4570 771.00 756.47 27.77
2893 24.4620 774.00 763.98 27.82
2894 24.4670 757.00 771.92 27.51
2895 24.4720 793.00 780.32 28.16
2896 24.4770 830.00 789.22 28.81
2897 24.4820 884.00 798.65 29.73
2898 24.4870 961.00 808.64 31.00
2899 24.4920 1075.00 819.24 32.79
2900 24.4970 1055.00 830.50 32.48
2901 24.5020 1072.00 842.43 32.74
2902 24.5070 1053.00 855.11 32.45
2903 24.5120 1067.00 868.56 32.67
2904 24.5170 1046.00 882.83 32.34
2905 24.5220 1089.00 897.97 33.00
2906 24.5270 1125.00 914.02 33.54
2907 24.5320 1176.00 931.03 34.29
2908 24.5370 1143.00 949.05 33.81
2909 24.5420 1081.00 968.12 32.88
2910 24.5470 1033.00 988.26 32.14
2911 24.5520 1080.00 1009.55 32.86
2912 24.5570 1049.00 1031.99 32.39
2913 24.5620 1006.00 1055.63 31.72
2914 24.5670 1024.00 1080.50 32.00
2915 24.5720 1172.00 1106.64 34.23
2916 24.5770 1230.00 1134.06 35.07
2917 24.5820 1268.00 1162.78 35.61
2918 24.5870 1355.00 1192.83 36.81
2919 24.5920 1413.00 1224.23 37.59
2920 24.5970 1483.00 1256.99 38.51
2921 24.6020 1544.00 1291.12 39.29
2922 24.6070 1556.00 1326.62 39.45
2923 24.6120 1576.00 1363.55 39.70
2924 24.6170 1584.00 1401.88 39.80
2925 24.6220 1609.00 1441.65 40.11
2926 24.6270 1671.00 1482.83 40.88
2927 24.6320 1712.00 1525.50 41.38
2928 24.6370 1685.00 1569.64 41.05
2929 24.6420 1770.00 1615.29 42.07
2930 24.6470 1814.00 1662.43 42.59
2931 24.6520 1799.00 1711.14 42.41
2932 24.6570 1897.00 1761.44 43.55
2933 24.6620 1958.00 1813.33 44.25
2934 24.6670 1979.00 1866.91 44.49
2935 24.6720 2093.00 1922.18 45.75
2936 24.6770 2094.00 1979.22 45.76
2937 24.6820 2138.00 2038.03 46.24
2938 24.6870 2243.00 2098.74 47.36
2939 24.6920 2389.00 2161.41 48.88
2940 24.6970 2507.00 2226.09 50.07
2941 24.7020 2634.00 2292.87 51.32
2942 24.7070 2688.00 2361.86 51.85
2943 24.7120 2711.00 2433.17 52.07
2944 24.7170 2734.00 2506.84 52.29
2945 24.7220 2854.00 2583.10 53.42
2946 24.7270 3004.00 2661.98 54.81
2947 24.7320 3041.00 2743.66 55.15
2948 24.7370 3075.00 2828.27 55.45
2949 24.7420 3110.00 2915.96 55.77
2950 24.7470 3245.00 3006.91 56.96
2951 24.7520 3391.00 3101.23 58.23
2952 24.7570 3521.00 3199.10 59.34
2953 24.7620 3589.00 3300.67 59.91
2954 24.7670 3635.00 3406.16 60.29
2955 24.7720 3757.00 3515.62 61.29
2956 24.7770 3913.00 3629.19 62.55
2957 24.7820 4027.00 3747.13 63.46
2958 24.7870 4265.00 3869.41 65.31
2959 24.7920 4494.00 3996.19 67.04
2960 24.7970 4598.00 4127.39 67.81
2961 24.8020 4742.00 4263.20 68.86
2962 24.8070 4821.00 4403.43 69.43
2963 24.8120 4944.00 4548.01 70.31
2964 24.8170 5074.00 4696.92 71.23
2965 24.8220 5201.00 4849.79 72.12
2966 24.8270 5381.00 5006.44 73.36
2967 24.8320 5466.00 5166.32 73.93
2968 24.8370 5510.00 5329.19 74.23
2969 24.8420 5759.00 5494.31 75.89
2970 24.8470 5891.00 5661.14 76.75
2971 24.8520 5948.00 5828.71 77.12
2972 24.8570 6025.00 5996.31 77.62
2973 24.8620 6144.00 6162.94 78.38
2974 24.8670 6331.00 6327.34 79.57
2975 24.8720 6483.00 6488.33 80.52
2976 24.8770 6712.00 6644.53 81.93
2977 24.8820 6940.00 6794.48 83.31
2978 24.8870 7080.00 6936.48 84.14
2979 24.8920 7144.00 7068.84 84.52
2980 24.8970 7228.00 7189.75 85.02
2981 24.9020 7361.00 7297.29 85.80
2982 24.9070 7434.00 7389.55 86.22
2983 24.9120 7406.00 7464.48 86.06
2984 24.9170 7415.00 7520.25 86.11
2985 24.9220 7388.00 7554.99 85.95
2986 24.9270 7377.00 7567.08 85.89
2987 24.9320 7263.00 7555.16 85.22
2988 24.9370 7154.00 7518.20 84.58
2989 24.9420 7026.00 7455.61 83.82
2990 24.9470 6900.00 7367.39 83.07
2991 24.9520 6741.00 7253.88 82.10
2992 24.9570 6512.00 7116.21 80.70
2993 24.9620 6320.00 6955.84 79.50
2994 24.9670 6312.00 6774.97 79.45
2995 24.9720 6192.00 6575.78 78.69
2996 24.9770 5942.00 6361.16 77.08
2997 24.9820 5813.00 6133.98 76.24
2998 24.9870 5599.00 5896.96 74.83
2999 24.9920 5488.00 5653.22 74.08
3000 24.9970 5284.00 5405.35 72.69
3001 25.0020 4968.00 5156.19 70.48
3002 25.0070 4634.00 4907.74 68.07
3003 25.0120 4415.00 4662.30 66.45
3004 25.0170 4222.00 4421.50 64.98
3005 25.0220 4016.00 4187.09 63.37
3006 25.0270 3808.00 3960.07 61.71
3007 25.0320 3737.00 3741.43 61.13
3008 25.0370 3601.00 3532.08 60.01
3009 25.0420 3349.00 3332.52 57.87
3010 25.0470 3161.00 3143.11 56.22
3011 25.0520 3024.00 2964.00 54.99
3012 25.0570 2835.00 2795.40 53.24
3013 25.0620 2683.00 2637.25 51.80
3014 25.0670 2613.00 2489.25 51.12
3015 25.0720 2533.00 2351.31 50.33
3016 25.0770 2406.00 2223.05 49.05
3017 25.0820 2247.00 2104.22 47.40
3018 25.0870 2150.00 1994.27 46.37
3019 25.0920 2065.00 1892.85 45.44
3020 25.0970 2018.00 1799.45 44.92
3021 25.1020 1909.00 1713.68 43.69
3022 25.1070 1836.00 1634.95 42.85
3023 25.1120 1775.00 1562.79 42.13
3024 25.1170 1743.00 1496.93 41.75
3025 25.1220 1657.00 1436.54 40.71
3026 25.1270 1610.00 1381.36 40.12
3027 25.1320 1553.00 1330.93 39.41
3028 25.1370 1475.00 1284.87 38.41
3029 25.1420 1434.00 1242.75 37.87
3030 25.1470 1395.00 1204.23 37.35
3031 25.1520 1311.00 1168.97 36.21
3032 25.1570 1228.00 1136.65 35.04
3033 25.1620 1226.00 1106.98 35.01
3034 25.1670 1216.00 1079.70 34.87
3035 25.1720 1224.00 1054.58 34.99
3036 25.1770 1182.00 1031.39 34.38
3037 25.1820 1212.00 1009.94 34.81
3038 25.1870 1186.00 990.04 34.44
3039 25.1920 1079.00 971.56 32.85
3040 25.1970 1144.00 954.33 33.82
3041 25.2020 1197.00 938.24 34.60
3042 25.2070 1173.00 923.18 34.25
3043 25.2120 1096.00 909.04 33.11
3044 25.2170 1104.00 895.75 33.23
3045 25.2220 1080.00 883.21 32.86
3046 25.2270 960.00 871.38 30.98
3047 25.2320 915.00 860.18 30.25
3048 25.2370 877.00 849.55 29.61
3049 25.2420 896.00 839.46 29.93
3050 25.2470 922.00 829.86 30.36
3051 25.2520 898.00 820.73 29.97
3052 25.2570 852.00 812.00 29.19
3053 25.2620 865.00 803.67 29.41
3054 25.2670 913.00 795.71 30.22
3055 25.2720 912.00 788.09 30.20
3056 25.2770 886.00 780.79 29.77
3057 25.2820 949.00 773.79 30.81
3058 25.2870 920.00 767.08 30.33
3059 25.2920 975.00 760.63 31.23
3060 25.2970 993.00 754.43 31.51
3061 25.3020 981.00 748.47 31.32
3062 25.3070 939.00 742.75 30.64
3063 25.3120 919.00 737.23 30.32
3064 25.3170 897.00 731.92 29.95
3065 25.3220 973.00 726.81 31.19
3066 25.3270 978.00 721.88 31.27
3067 25.3320 850.00 717.13 29.15
3068 25.3370 841.00 712.54 29.00
3069 25.3420 841.00 708.12 29.00
3070 25.3470 871.00 703.85 29.51
3071 25.3520 842.00 699.73 29.02
3072 25.3570 817.00 695.75 28.58
3073 25.3620 856.00 691.91 29.26
3074 25.3670 862.00 688.19 29.36
3075 25.3720 899.00 684.60 29.98
3076 25.3770 810.00 681.13 28.46
3077 25.3820 768.00 677.77 27.71
3078 25.3870 791.00 674.52 28.12
3079 25.3920 758.00 671.38 27.53
3080 25.3970 795.00 668.33 28.20
3081 25.4020 854.00 665.39 29.22
3082 25.4070 824.00 662.54 28.71
3083 25.4120 776.00 659.78 27.86
3084 25.4170 787.00 657.10 28.05
3085 25.4220 740.00 654.52 27.20
3086 25.4270 763.00 652.01 27.62
3087 25.4320 830.00 649.58 28.81
3088 25.4370 830.00 647.22 28.81
3089 25.4420 789.00 644.94 28.09
3090 25.4470 803.00 642.73 28.34
3091 25.4520 780.00 640.58 27.93
3092 25.4570 833.00 638.50 28.86
3093 25.4620 859.00 636.49 29.31
3094 25.4670 851.00 634.81 29.17
3095 25.4720 834.00 632.92 28.88
3096 25.4770 809.00 631.08 28.44
3097 25.4820 899.00 629.31 29.98
3098 25.4870 999.00 627.58 31.61
3099 25.4920 1036.00 625.91 32.19
3100 25.4970 1039.00 624.29 32.23
3101 25.5020 1013.00 622.72 31.83
3102 25.5070 961.00 621.20 31.00
3103 25.5120 953.00 619.73 30.87
3104 25.5170 962.00 618.30 31.02
3105 25.5220 959.00 616.92 30.97
3106 25.5270 949.00 615.59 30.81
3107 25.5320 923.00 614.29 30.38
3108 25.5370 927.00 613.04 30.45
3109 25.5420 819.00 611.84 28.62
3110 25.5470 771.00 610.67 27.77
3111 25.5520 786.00 609.54 28.04
3112 25.5570 862.00 608.45 29.36
3113 25.5620 842.00 607.41 29.02
3114 25.5670 926.00 606.40 30.43
3115 25.5720 912.00 605.42 30.20
3116 25.5770 903.00 604.49 30.05
3117 25.5820 892.00 603.59 29.87
3118 25.5870 895.00 602.73 29.92
3119 25.5920 899.00 601.91 29.98
3120 25.5970 884.00 601.12 29.73
3121 25.6020 868.00 600.36 29.46
3122 25.6070 874.00 599.64 29.56
3123 25.6120 858.00 598.95 29.29
3124 25.6170 805.00 598.30 28.37
3125 25.6220 769.00 597.67 27.73
3126 25.6270 796.00 597.08 28.21
3127 25.6320 808.00 596.52 28.43
3128 25.6370 878.00 595.99 29.63
3129 25.6420 775.00 595.49 27.84
3130 25.6470 731.00 595.03 27.04
3131 25.6520 695.00 594.59 26.36
3132 25.6570 729.00 594.17 27.00
3133 25.6620 732.00 593.79 27.06
3134 25.6670 826.00 593.44 28.74
3135 25.6720 778.00 593.11 27.89
3136 25.6770 804.00 592.82 28.35
3137 25.6820 860.00 592.54 29.33
3138 25.6870 919.00 592.30 30.32
3139 25.6920 900.00 592.09 30.00
3140 25.6970 912.00 591.90 30.20
3141 25.7020 902.00 591.74 30.03
3142 25.7070 859.00 591.61 29.31
3143 25.7120 856.00 591.51 29.26
3144 25.7170 823.00 591.43 28.69
3145 25.7220 799.00 591.38 28.27
3146 25.7270 827.00 591.36 28.76
3147 25.7320 776.00 591.37 27.86
3148 25.7370 828.00 591.40 28.77
3149 25.7420 826.00 591.47 28.74
3150 25.7470 783.00 591.56 27.98
3151 25.7520 828.00 591.68 28.77
3152 25.7570 872.00 591.84 29.53
3153 25.7620 885.00 592.02 29.75
3154 25.7670 853.00 592.23 29.21
3155 25.7720 838.00 592.48 28.95
3156 25.7770 919.00 592.76 30.32
3157 25.7820 929.00 593.07 30.48
3158 25.7870 897.00 593.41 29.95
3159 25.7920 892.00 593.79 29.87
3160 25.7970 917.00 594.20 30.28
3161 25.8020 895.00 594.66 29.92
3162 25.8070 913.00 595.15 30.22
3163 25.8120 900.00 595.68 30.00
3164 25.8170 937.00 596.25 30.61
3165 25.8220 925.00 596.86 30.41
3166 25.8270 951.00 597.52 30.84
3167 25.8320 928.00 598.23 30.46
3168 25.8370 943.00 598.98 30.71
3169 25.8420 934.00 599.79 30.56
3170 25.8470 997.00 600.65 31.58
3171 25.8520 928.00 601.56 30.46
3172 25.8570 881.00 602.53 29.68
3173 25.8620 920.00 603.56 30.33
3174 25.8670 945.00 604.64 30.74
3175 25.8720 944.00 605.78 30.72
3176 25.8770 911.00 606.98 30.18
3177 25.8820 942.00 608.23 30.69
3178 25.8870 964.00 609.53 31.05
3179 25.8920 956.00 610.86 30.92
3180 25.8970 967.00 612.24 31.10
3181 25.9020 978.00 613.64 31.27
3182 25.9070 1058.00 615.05 32.53
3183 25.9120 999.00 616.45 31.61
3184 25.9170 949.00 617.83 30.81
3185 25.9220 924.00 619.15 30.40
3186 25.9270 917.00 620.41 30.28
3187 25.9320 961.00 621.55 31.00
3188 25.9370 913.00 622.57 30.22
3189 25.9420 872.00 623.41 29.53
3190 25.9470 859.00 624.06 29.31
3191 25.9520 863.00 624.49 29.38
3192 25.9570 863.00 624.71 29.38
3193 25.9620 872.00 624.72 29.53
3194 25.9670 905.00 624.56 30.08
3195 25.9720 926.00 624.26 30.43
3196 25.9770 990.00 623.87 31.46
3197 25.9820 1014.00 623.46 31.84
3198 25.9870 1062.00 623.06 32.59
3199 25.9920 1038.00 622.73 32.22
3200 25.9970 1020.00 622.50 31.94
3201 26.0020 997.00 622.39 31.58
3202 26.0070 972.00 622.42 31.18
3203 26.0120 988.00 622.59 31.43
3204 26.0170 970.00 622.93 31.14
3205 26.0220 948.00 623.42 30.79
3206 26.0270 977.00 624.06 31.26
3207 26.0320 1018.00 624.86 31.91
3208 26.0370 982.00 625.81 31.34
3209 26.0420 891.00 626.90 29.85
3210 26.0470 862.00 628.14 29.36
3211 26.0520 914.00 629.51 30.23
3212 26.0570 955.00 631.02 30.90
3213 26.0620 907.00 632.66 30.12
3214 26.0670 965.00 634.43 31.06
3215 26.0720 1030.00 636.33 32.09
3216 26.0770 1065.00 638.35 32.63
3217 26.0820 1059.00 640.50 32.54
3218 26.0870 1098.00 642.77 33.14
3219 26.0920 1077.00 645.17 32.82
3220 26.0970 1031.00 647.70 32.11
3221 26.1020 1051.00 650.36 32.42
3222 26.1070 1102.00 653.16 33.20
3223 26.1120 1077.00 656.09 32.82
3224 26.1170 1079.00 659.18 32.85
3225 26.1220 1046.00 662.41 32.34
3226 26.1270 1050.00 665.80 32.40
3227 26.1320 1031.00 669.35 32.11
3228 26.1370 1048.00 673.06 32.37
3229 26.1420 1047.00 676.96 32.36
3230 26.1470 1068.00 681.03 32.68
3231 26.1520 1030.00 685.30 32.09
3232 26.1570 1016.00 689.78 31.87
3233 26.1620 1034.00 694.46 32.16
3234 26.1670 996.00 699.36 31.56
3235 26.1720 1087.00 704.48 32.97
3236 26.1770 1133.00 709.85 33.66
3237 26.1820 1136.00 715.47 33.70
3238 26.1870 1195.00 721.35 34.57
3239 26.1920 1182.00 727.51 34.38
3240 26.1970 1173.00 733.95 34.25
3241 26.2020 1206.00 740.69 34.73
3242 26.2070 1199.00 747.74 34.63
3243 26.2120 1181.00 755.12 34.37
3244 26.2170 1192.00 762.83 34.53
3245 26.2220 1226.00 770.90 35.01
3246 26.2270 1207.00 779.34 34.74
3247 26.2320 1182.00 788.16 34.38
3248 26.2370 1106.00 797.39 33.26
3249 26.2420 1079.00 807.03 32.85
3250 26.2470 1172.00 817.10 34.23
3251 26.2520 1221.00 827.63 34.94
3252 26.2570 1193.00 830.00 34.54
3253 26.2620 1170.00 841.54 34.21
3254 26.2670 1142.00 853.59 33.79
3255 26.2720 1134.00 866.15 33.67
3256 26.2770 1169.00 879.25 34.19
3257 26.2820 1156.00 892.92 34.00
3258 26.2870 1177.00 907.16 34.31
3259 26.2920 1233.00 922.01 35.11
3260 26.2970 1269.00 937.46 35.62
3261 26.3020 1215.00 953.56 34.86
3262 26.3070 1267.00 970.30 35.59
3263 26.3120 1311.00 987.72 36.21
3264 26.3170 1309.00 1005.84 36.18
3265 26.3220 1257.00 1024.66 35.45
3266 26.3270 1238.00 1044.22 35.19
3267 26.3320 1248.00 1064.52 35.33
3268 26.3370 1253.00 1085.59 35.40
3269 26.3420 1319.00 1107.44 36.32
3270 26.3470 1382.00 1130.09 37.18
3271 26.3520 1418.00 1153.54 37.66
3272 26.3570 1414.00 1177.82 37.60
3273 26.3620 1418.00 1202.95 37.66
3274 26.3670 1436.00 1228.93 37.89
3275 26.3720 1500.00 1255.76 38.73
3276 26.3770 1547.00 1283.48 39.33
3277 26.3820 1556.00 1312.08 39.45
3278 26.3870 1653.00 1341.56 40.66
3279 26.3920 1713.00 1371.94 41.39
3280 26.3970 1754.00 1403.21 41.88
3281 26.4020 1754.00 1426.03 41.88
3282 26.4070 1854.00 1459.17 43.06
3283 26.4120 1836.00 1493.20 42.85
3284 26.4170 1799.00 1528.14 42.41
3285 26.4220 1761.00 1563.96 41.96
3286 26.4270 1864.00 1600.65 43.17
3287 26.4320 1891.00 1638.21 43.49
3288 26.4370 1857.00 1676.62 43.09
3289 26.4420 1933.00 1715.88 43.97
3290 26.4470 1962.00 1755.94 44.29
3291 26.4520 1967.00 1796.81 44.35
3292 26.4570 1994.00 1838.45 44.65
3293 26.4620 2016.00 1880.84 44.90
3294 26.4670 2031.00 1923.92 45.07
3295 26.4720 2032.00 1967.70 45.08
3296 26.4770 2054.00 2012.10 45.32
3297 26.4820 2164.00 2057.09 46.52
3298 26.4870 2219.00 2102.66 47.11
3299 26.4920 2304.00 2148.73 48.00
3300 26.4970 2309.00 2195.25 48.05
3301 26.5020 2361.00 2242.15 48.59
3302 26.5070 2447.00 2289.41 49.47
3303 26.5120 2409.00 2336.93 49.08
3304 26.5170 2430.00 2384.67 49.29
3305 26.5220 2420.00 2432.51 49.19
3306 26.5270 2435.00 2480.42 49.35
3307 26.5320 2472.00 2528.33 49.72
3308 26.5370 2487.00 2576.12 49.87
3309 26.5420 2502.00 2623.72 50.02
3310 26.5470 2574.00 2671.03 50.73
3311 26.5520 2561.00 2717.97 50.61
3312 26.5570 2593.00 2764.42 50.92
3313 26.5620 2694.00 2810.27 51.90
3314 26.5670 2718.00 2855.47 52.13
3315 26.5720 2812.00 2899.84 53.03
3316 26.5770 2840.00 2943.32 53.29
3317 26.5820 2858.00 2985.73 53.46
3318 26.5870 2918.00 3027.02 54.02
3319 26.5920 3038.00 3067.01 55.12
3320 26.5970 3091.00 3105.61 55.60
3321 26.6020 3200.00 3142.66 56.57
3322 26.6070 3221.00 3178.05 56.75
3323 26.6120 3273.00 3211.66 57.21
3324 26.6170 3267.00 3243.32 57.16
3325 26.6220 3298.00 3272.94 57.43
3326 26.6270 3352.00 3300.36 57.90
3327 26.6320 3350.00 3325.47 57.88
3328 26.6370 3389.00 3348.11 58.22
3329 26.6420 3410.00 3368.20 58.40
3330 26.6470 3399.00 3385.60 58.30
3331 26.6520 3476.00 3400.20 58.96
3332 26.6570 3528.00 3411.89 59.40
3333 26.6620 3593.00 3420.60 59.94
3334 26.6670 3603.00 3426.22 60.03
3335 26.6720 3635.00 3428.70 60.29
3336 26.6770 3542.00 3427.97 59.51
3337 26.6820 3586.00 3423.99 59.88
3338 26.6870 3614.00 3416.73 60.12
3339 26.6920 3612.00 3406.20 60.10
3340 26.6970 3605.00 3392.39 60.04
3341 26.7020 3524.00 3375.32 59.36
3342 26.7070 3437.00 3355.06 58.63
3343 26.7120 3456.00 3331.66 58.79
3344 26.7170 3467.00 3305.21 58.88
3345 26.7220 3413.00 3275.79 58.42
3346 26.7270 3352.00 3243.55 57.90
3347 26.7320 3311.00 3208.61 57.54
3348 26.7370 3300.00 3171.08 57.45
3349 26.7420 3204.00 3131.17 56.60
3350 26.7470 3150.00 3088.99 56.12
3351 26.7520 3082.00 3044.79 55.52
3352 26.7570 3040.00 2998.67 55.14
3353 26.7620 2912.00 2950.86 53.96
3354 26.7670 2865.00 2901.53 53.53
3355 26.7720 2858.00 2850.89 53.46
3356 26.7770 2863.00 2799.10 53.51
3357 26.7820 2852.00 2746.32 53.40
3358 26.7870 2812.00 2692.78 53.03
3359 26.7920 2789.00 2638.59 52.81
3360 26.7970 2762.00 2583.97 52.55
3361 26.8020 2627.00 2529.02 51.25
3362 26.8070 2547.00 2473.96 50.47
3363 26.8120 2526.00 2418.78 50.26
3364 26.8170 2486.00 2363.79 49.86
3365 26.8220 2387.00 2309.07 48.86
3366 26.8270 2320.00 2254.71 48.17
3367 26.8320 2304.00 2200.82 48.00
3368 26.8370 2258.00 2147.47 47.52
3369 26.8420 2249.00 2094.80 47.42
3370 26.8470 2221.00 2042.86 47.13
3371 26.8520 2156.00 1991.74 46.43
3372 26.8570 2078.00 1941.50 45.59
3373 26.8620 2043.00 1892.17 45.20
3374 26.8670 1995.00 1843.88 44.67
3375 26.8720 1964.00 1796.60 44.32
3376 26.8770 1936.00 1750.42 44.00
3377 26.8820 1933.00 1705.36 43.97
3378 26.8870 1868.00 1661.45 43.22
3379 26.8920 1854.00 1618.71 43.06
3380 26.8970 1904.00 1577.19 43.63
3381 26.9020 1873.00 1536.89 43.28
3382 26.9070 1785.00 1497.80 42.25
3383 26.9120 1733.00 1459.96 41.63
3384 26.9170 1657.00 1423.35 40.71
3385 26.9220 1651.00 1388.01 40.63
3386 26.9270 1647.00 1353.90 40.58
3387 26.9320 1605.00 1321.03 40.06
3388 26.9370 1545.00 1289.41 39.31
3389 26.9420 1531.00 1258.99 39.13
3390 26.9470 1510.00 1229.78 38.86
3391 26.9520 1405.00 1201.76 37.48
3392 26.9570 1382.00 1174.94 37.18
3393 26.9620 1410.00 1149.26 37.55
3394 26.9670 1433.00 1124.72 37.85
3395 26.9720 1422.00 1101.29 37.71
3396 26.9770 1420.00 1078.96 37.68
3397 26.9820 1403.00 1057.69 37.46
3398 26.9870 1323.00 1037.25 36.37
3399 26.9920 1311.00 1018.03 36.21
3400 26.9970 1352.00 999.79 36.77
3401 27.0020 1347.00 982.49 36.70
3402 27.0070 1344.00 966.12 36.66
3403 27.0120 1282.00 950.75 35.81
3404 27.0170 1217.00 936.13 34.89
3405 27.0220 1197.00 922.32 34.60
3406 27.0270 1214.00 909.31 34.84
3407 27.0320 1196.00 897.05 34.58
3408 27.0370 1200.00 885.52 34.64
3409 27.0420 1215.00 874.66 34.86
3410 27.0470 1163.00 864.47 34.10
3411 27.0520 1185.00 854.89 34.42
3412 27.0570 1262.00 845.90 35.52
3413 27.0620 1293.00 837.46 35.96
3414 27.0670 1280.00 829.52 35.78
3415 27.0720 1273.00 822.07 35.68
3416 27.0770 1264.00 815.05 35.55
3417 27.0820 1262.00 808.45 35.52
3418 27.0870 1301.00 802.21 36.07
3419 27.0920 1272.00 796.31 35.67
3420 27.0970 1229.00 790.70 35.06
3421 27.1020 1180.00 785.36 34.35
3422 27.1070 1220.00 780.25 34.93
3423 27.1120 1251.00 775.34 35.37
3424 27.1170 1285.00 770.58 35.85
3425 27.1220 1281.00 765.95 35.79
3426 27.1270 1302.00 761.42 36.08
3427 27.1320 1283.00 756.95 35.82
3428 27.1370 1304.00 752.51 36.11
3429 27.1420 1331.00 748.07 36.48
3430 27.1470 1331.00 743.61 36.48
3431 27.1520 1306.00 739.10 36.14
3432 27.1570 1274.00 779.11 35.69
3433 27.1620 1255.00 774.71 35.43
3434 27.1670 1223.00 770.21 34.97
3435 27.1720 1154.00 765.59 33.97
3436 27.1770 1196.00 760.86 34.58
3437 27.1820 1220.00 756.02 34.93
3438 27.1870 1263.00 751.06 35.54
3439 27.1920 1275.00 745.99 35.71
3440 27.1970 1283.00 740.83 35.82
3441 27.2020 1295.00 735.57 35.99
3442 27.2070 1347.00 730.26 36.70
3443 27.2120 1325.00 724.90 36.40
3444 27.2170 1351.00 719.50 36.76
3445 27.2220 1309.00 714.10 36.18
3446 27.2270 1246.00 708.70 35.30
3447 27.2320 1274.00 703.34 35.69
3448 27.2370 1265.00 698.02 35.57
3449 27.2420 1248.00 692.77 35.33
3450 27.2470 1246.00 687.59 35.30
3451 27.2520 1232.00 682.51 35.10
3452 27.2570 1259.00 677.53 35.48
3453 27.2620 1282.00 672.67 35.81
3454 27.2670 1267.00 667.93 35.59
3455 27.2720 1276.00 663.33 35.72
3456 27.2770 1290.00 658.85 35.92
3457 27.2820 1256.00 654.53 35.44
3458 27.2870 1281.00 650.35 35.79
3459 27.2920 1294.00 646.31 35.97
3460 27.2970 1312.00 642.42 36.22
3461 27.3020 1352.00 638.69 36.77
3462 27.3070 1303.00 635.10 36.10
3463 27.3120 1268.00 631.67 35.61
3464 27.3170 1228.00 628.38 35.04
3465 27.3220 1199.00 625.23 34.63
3466 27.3270 1146.00 622.23 33.85
3467 27.3320 1115.00 619.36 33.39
3468 27.3370 1120.00 616.63 33.47
3469 27.3420 1094.00 614.03 33.08
3470 27.3470 1068.00 611.55 32.68
3471 27.3520 1042.00 609.20 32.28
3472 27.3570 1030.00 606.97 32.09
3473 27.3620 1026.00 604.85 32.03
3474 27.3670 1026.00 602.84 32.03
3475 27.3720 1044.00 600.93 32.31
3476 27.3770 1070.00 599.12 32.71
3477 27.3820 1069.00 597.40 32.70
3478 27.3870 1110.00 595.77 33.32
3479 27.3920 1085.00 594.22 32.94
3480 27.3970 1026.00 592.76 32.03
3481 27.4020 1009.00 591.37 31.76
3482 27.4070 987.00 590.05 31.42
3483 27.4120 1002.00 588.80 31.65
3484 27.4170 957.00 587.62 30.94
3485 27.4220 934.00 586.49 30.56
3486 27.4270 910.00 585.42 30.17
3487 27.4320 860.00 584.40 29.33
3488 27.4370 822.00 583.44 28.67
3489 27.4420 806.00 582.52 28.39
3490 27.4470 807.00 581.65 28.41
3491 27.4520 794.00 580.82 28.18
3492 27.4570 765.00 580.03 27.66
3493 27.4620 753.00 579.28 27.44
3494 27.4670 769.00 578.56 27.73
3495 27.4720 782.00 577.88 27.96
3496 27.4770 812.00 577.23 28.50
3497 27.4820 820.00 576.62 28.64
3498 27.4870 820.00 576.04 28.64
3499 27.4920 808.00 575.48 28.43
3500 27.4970 762.00 574.96 27.60
3501 27.5020 725.00 574.46 26.93
3502 27.5070 749.00 573.98 27.37
3503 27.5120 735.00 573.54 27.11
3504 27.5170 655.00 573.11 25.59
3505 27.5220 661.00 572.72 25.71
3506 27.5270 707.00 572.34 26.59
3507 27.5320 714.00 571.99 26.72
3508 27.5370 677.00 571.66 26.02
3509 27.5420 651.00 571.35 25.51
3510 27.5470 632.00 571.06 25.14
3511 27.5520 637.00 570.80 25.24
3512 27.5570 608.00 570.55 24.66
3513 27.5620 589.00 570.33 24.27
3514 27.5670 598.00 570.13 24.45
3515 27.5720 614.00 569.94 24.78
3516 27.5770 654.00 569.78 25.57
3517 27.5820 679.00 569.63 26.06
3518 27.5870 693.00 569.51 26.32
3519 27.5920 694.00 569.40 26.34
3520 27.5970 656.00 569.31 25.61
3521 27.6020 646.00 569.24 25.42
3522 27.6070 628.00 569.19 25.06
3523 27.6120 630.00 569.15 25.10
3524 27.6170 614.00 569.14 24.78
3525 27.6220 580.00 569.14 24.08
3526 27.6270 555.00 569.16 23.56
3527 27.6320 541.00 569.20 23.26
3528 27.6370 519.00 569.26 22.78
3529 27.6420 412.00 569.33 20.30
3530 27.6470 373.00 569.42 19.31
3531 27.6520 423.00 569.53 20.57
3532 27.6570 477.00 569.66 21.84
3533 27.6620 468.00 569.80 21.63
3534 27.6670 428.00 569.97 20.69
3535 27.6720 418.00 570.15 20.44
3536 27.6770 465.00 570.35 21.56
3537 27.6820 436.00 570.56 20.88
3538 27.6870 387.00 570.79 19.67
3539 27.6920 420.00 571.04 20.49
3540 27.6970 462.00 571.31 21.49
3541 27.7020 435.00 571.60 20.86
3542 27.7070 407.00 571.90 20.17
3543 27.7120 385.00 572.22 19.62
3544 27.7170 401.00 572.57 20.02
3545 27.7220 379.00 572.92 19.47
3546 27.7270 318.00 573.30 17.83
3547 27.7320 268.00 573.69 16.37
3548 27.7370 253.00 574.10 15.91
3549 27.7420 248.00 574.54 15.75
3550 27.7470 257.00 574.98 16.03
3551 27.7520 284.00 575.45 16.85
3552 27.7570 310.00 575.94 17.61
3553 27.7620 312.00 576.45 17.66
3554 27.7670 326.00 576.97 18.06
3555 27.7720 360.00 577.52 18.97
3556 27.7770 397.00 578.08 19.92
3557 27.7820 455.00 578.66 21.33
3558 27.7870 494.00 579.27 22.23
3559 27.7920 501.00 579.89 22.38
3560 27.7970 508.00 580.53 22.54
3561 27.8020 502.00 581.19 22.41
3562 27.8070 455.00 581.88 21.33
3563 27.8120 451.00 582.58 21.24
3564 27.8170 426.00 583.31 20.64
3565 27.8220 398.00 584.06 19.95
3566 27.8270 410.00 584.83 20.25
3567 27.8320 423.00 585.62 20.57
3568 27.8370 428.00 586.43 20.69
3569 27.8420 394.00 587.27 19.85
3570 27.8470 404.00 588.13 20.10
3571 27.8520 463.00 589.01 21.52
3572 27.8570 467.00 589.91 21.61
3573 27.8620 449.00 590.84 21.19
3574 27.8670 427.00 591.79 20.66
3575 27.8720 435.00 592.77 20.86
3576 27.8770 442.00 593.78 21.02
3577 27.8820 412.00 594.80 20.30
3578 27.8870 437.00 595.86 20.90
3579 27.8920 448.00 596.94 21.17
3580 27.8970 423.00 598.04 20.57
3581 27.9020 413.00 599.17 20.32
3582 27.9070 457.00 600.34 21.38
3583 27.9120 497.00 601.52 22.29
3584 27.9170 465.00 602.74 21.56
3585 27.9220 432.00 603.99 20.78
3586 27.9270 410.00 605.26 20.25
3587 27.9320 366.00 606.57 19.13
3588 27.9370 342.00 607.90 18.49
3589 27.9420 337.00 609.27 18.36
3590 27.9470 339.00 610.67 18.41
3591 27.9520 346.00 612.10 18.60
3592 27.9570 392.00 613.56 19.80
3593 27.9620 440.00 615.06 20.98
3594 27.9670 486.00 616.59 22.05
3595 27.9720 480.00 618.16 21.91
3596 27.9770 484.00 619.76 22.00
3597 27.9820 525.00 621.40 22.91
3598 27.9870 580.00 623.07 24.08
3599 27.9920 641.00 624.79 25.32
3600 27.9970 624.00 626.54 24.98
3601 28.0020 604.00 628.33 24.58
3602 28.0070 605.00 630.16 24.60
3603 28.0120 591.00 632.04 24.31
3604 28.0170 595.00 633.96 24.39
3605 28.0220 613.00 635.91 24.76
3606 28.0270 617.00 637.92 24.84
3607 28.0320 615.00 639.97 24.80
3608 28.0370 609.00 642.06 24.68
3609 28.0420 558.00 644.21 23.62
3610 28.0470 482.00 646.40 21.95
3611 28.0520 488.00 648.64 22.09
3612 28.0570 551.00 650.93 23.47
3613 28.0620 577.00 653.27 24.02
3614 28.0670 583.00 655.67 24.15
3615 28.0720 588.00 658.12 24.25
3616 28.0770 574.00 660.63 23.96
3617 28.0820 583.00 663.20 24.15
3618 28.0870 614.00 665.82 24.78
3619 28.0920 615.00 668.51 24.80
3620 28.0970 613.00 671.25 24.76
3621 28.1020 631.00 674.06 25.12
3622 28.1070 643.00 676.94 25.36
3623 28.1120 643.00 679.88 25.36
3624 28.1170 610.00 682.90 24.70
3625 28.1220 564.00 685.98 23.75
3626 28.1270 581.00 689.14 24.10
3627 28.1320 586.00 692.37 24.21
3628 28.1370 533.00 695.67 23.09
3629 28.1420 535.00 699.06 23.13
3630 28.1470 574.00 702.53 23.96
3631 28.1520 572.00 744.41 23.92
3632 28.1570 573.00 748.30 23.94
3633 28.1620 579.00 752.27 24.06
3634 28.1670 567.00 756.34 23.81
3635 28.1720 525.00 760.51 22.91
3636 28.1770 512.00 764.77 22.63
3637 28.1820 572.00 769.14 23.92
3638 28.1870 650.00 773.61 25.50
3639 28.1920 714.00 778.19 26.72
3640 28.1970 716.00 782.89 26.76
3641 28.2020 700.00 787.70 26.46
3642 28.2070 682.00 792.63 26.12
3643 28.2120 689.00 797.68 26.25
3644 28.2170 690.00 802.85 26.27
3645 28.2220 675.00 808.17 25.98
3646 28.2270 681.00 813.61 26.10
3647 28.2320 654.00 819.20 25.57
3648 28.2370 634.00 824.93 25.18
3649 28.2420 669.00 830.81 25.86
3650 28.2470 663.00 836.85 25.75
3651 28.2520 641.00 843.05 25.32
3652 28.2570 644.00 849.42 25.38
3653 28.2620 675.00 855.97 25.98
3654 28.2670 718.00 862.69 26.80
3655 28.2720 755.00 869.60 27.48
3656 28.2770 769.00 876.71 27.73
3657 28.2820 781.00 884.03 27.95
3658 28.2870 775.00 891.55 27.84
3659 28.2920 791.00 899.31 28.12
3660 28.2970 774.00 907.29 27.82
3661 28.3020 757.00 915.52 27.51
3662 28.3070 790.00 923.99 28.11
3663 28.3120 785.00 932.74 28.02
3664 28.3170 730.00 941.77 27.02
3665 28.3220 719.00 951.10 26.81
3666 28.3270 753.00 960.73 27.44
3667 28.3320 778.00 970.69 27.89
3668 28.3370 786.00 981.00 28.04
3669 28.3420 776.00 991.67 27.86
3670 28.3470 788.00 1002.73 28.07
3671 28.3520 799.00 1014.19 28.27
3672 28.3570 802.00 1026.09 28.32
3673 28.3620 821.00 1038.45 28.65
3674 28.3670 862.00 1051.29 29.36
3675 28.3720 879.00 1064.66 29.65
3676 28.3770 926.00 1078.57 30.43
3677 28.3820 959.00 1093.07 30.97
3678 28.3870 985.00 1108.20 31.38
3679 28.3920 1060.00 1123.99 32.56
3680 28.3970 1151.00 1140.49 33.93
3681 28.4020 1178.00 1157.75 34.32
3682 28.4070 1177.00 1175.82 34.31
3683 28.4120 1192.00 1194.75 34.53
3684 28.4170 1192.00 1214.61 34.53
3685 28.4220 1166.00 1235.44 34.15
3686 28.4270 1186.00 1257.33 34.44
3687 28.4320 1228.00 1280.33 35.04
3688 28.4370 1262.00 1304.52 35.52
3689 28.4420 1262.00 1330.00 35.52
3690 28.4470 1241.00 1356.82 35.23
3691 28.4520 1319.00 1385.10 36.32
3692 28.4570 1399.00 1414.90 37.40
3693 28.4620 1454.00 1446.35 38.13
3694 28.4670 1466.00 1479.53 38.29
3695 28.4720 1458.00 1514.56 38.18
3696 28.4770 1498.00 1551.54 38.70
3697 28.4820 1587.00 1590.60 39.84
3698 28.4870 1699.00 1631.87 41.22
3699 28.4920 1795.00 1675.46 42.37
3700 28.4970 1832.00 1721.52 42.80
3701 28.5020 1898.00 1770.17 43.57
3702 28.5070 1944.00 1821.58 44.09
3703 28.5120 2020.00 1875.86 44.94
3704 28.5170 2002.00 1933.19 44.74
3705 28.5220 1962.00 1993.71 44.29
3706 28.5270 2016.00 2057.58 44.90
3707 28.5320 2108.00 2125.00 45.91
3708 28.5370 2230.00 2196.05 47.22
3709 28.5420 2350.00 2270.99 48.48
3710 28.5470 2428.00 2349.93 49.27
3711 28.5520 2470.00 2433.09 49.70
3712 28.5570 2585.00 2520.55 50.84
3713 28.5620 2674.00 2612.56 51.71
3714 28.5670 2797.00 2709.32 52.89
3715 28.5720 2854.00 2810.89 53.42
3716 28.5770 2942.00 2917.59 54.24
3717 28.5820 3045.00 3029.48 55.18
3718 28.5870 3162.00 3146.81 56.23
3719 28.5920 3296.00 3269.65 57.41
3720 28.5970 3497.00 3398.32 59.14
3721 28.6020 3672.00 3532.90 60.60
3722 28.6070 3701.00 3673.59 60.84
3723 28.6120 3784.00 3820.58 61.51
3724 28.6170 3978.00 3974.06 63.07
3725 28.6220 4164.00 4134.27 64.53
3726 28.6270 4262.00 4301.29 65.28
3727 28.6320 4385.00 4475.36 66.22
3728 28.6370 4583.00 4656.67 67.70
3729 28.6420 4806.00 4845.41 69.33
3730 28.6470 5017.00 5041.77 70.83
3731 28.6520 5181.00 5245.94 71.98
3732 28.6570 5319.00 5458.08 72.93
3733 28.6620 5544.00 5678.38 74.46
3734 28.6670 5771.00 5907.15 75.97
3735 28.6720 6015.00 6144.22 77.56
3736 28.6770 6336.00 6389.88 79.60
3737 28.6820 6626.00 6644.23 81.40
3738 28.6870 6813.00 6907.35 82.54
3739 28.6920 7049.00 7179.30 83.96
3740 28.6970 7343.00 7460.08 85.69
3741 28.7020 7696.00 7749.68 87.73
3742 28.7070 8040.00 8048.02 89.67
3743 28.7120 8323.00 8355.20 91.23
3744 28.7170 8584.00 8670.39 92.65
3745 28.7220 8845.00 8994.23 94.05
3746 28.7270 9152.00 9325.74 95.67
3747 28.7320 9439.00 9664.53 97.15
3748 28.7370 9709.00 10010.80 98.53
3749 28.7420 10131.00 10363.40 100.65
3750 28.7470 10434.00 10721.80 102.15
3751 28.7520 10787.00 11085.40 103.86
3752 28.7570 11111.00 11453.30 105.41
3753 28.7620 11452.00 11824.50 107.01
3754 28.7670 11886.00 12198.30 109.02
3755 28.7720 12258.00 12572.70 110.72
3756 28.7770 12713.00 12947.30 112.75
3757 28.7820 13026.00 13320.50 114.13
3758 28.7870 13414.00 13690.60 115.82
3759 28.7920 13787.00 14055.90 117.42
3760 28.7970 14212.00 14414.80 119.21
3761 28.8020 14632.00 14765.50 120.96
3762 28.8070 14929.00 15105.80 122.18
3763 28.8120 15228.00 15433.80 123.40
3764 28.8170 15601.00 15747.10 124.90
3765 28.8220 15936.00 16043.40 126.24
3766 28.8270 16192.00 16320.40 127.25
3767 28.8320 16560.00 16575.50 128.69
3768 28.8370 16804.00 16806.30 129.63
3769 28.8420 17011.00 17010.00 130.43
3770 28.8470 17083.00 17184.20 130.70
3771 28.8520 17249.00 17326.40 131.34
3772 28.8570 17432.00 17434.20 132.03
3773 28.8620 17634.00 17505.40 132.79
3774 28.8670 17652.00 17538.20 132.86
3775 28.8720 17745.00 17530.80 133.21
3776 28.8770 17741.00 17482.10 133.20
3777 28.8820 17604.00 17391.20 132.68
3778 28.8870 17569.00 17258.00 132.55
3779 28.8920 17481.00 17082.70 132.22
3780 28.8970 17262.00 16866.30 131.38
3781 28.9020 17002.00 16610.60 130.39
3782 28.9070 16745.00 16316.90 129.40
3783 28.9120 16457.00 15988.60 128.29
3784 28.9170 16022.00 15628.20 126.58
3785 28.9220 15612.00 15239.60 124.95
3786 28.9270 15169.00 14826.20 123.16
3787 28.9320 14712.00 14391.80 121.29
3788 28.9370 14271.00 13940.30 119.46
3789 28.9420 13849.00 13475.50 117.68
3790 28.9470 13342.00 13001.20 115.51
3791 28.9520 12786.00 12520.30 113.07
3792 28.9570 12321.00 12037.00 111.00
3793 28.9620 11814.00 11553.80 108.69
3794 28.9670 11370.00 11073.50 106.63
3795 28.9720 10938.00 10598.50 104.58
3796 28.9770 10531.00 10130.80 102.62
3797 28.9820 10107.00 9672.49 100.53
3798 28.9870 9580.00 9225.00 97.88
3799 28.9920 9132.00 8789.72 95.56
3800 28.9970 8669.00 8367.49 93.11
3801 29.0020 8242.00 7960.04 90.79
3802 29.0070 7806.00 7567.00 88.35
3803 29.0120 7490.00 7189.71 86.54
3804 29.0170 7172.00 6828.29 84.69
3805 29.0220 6818.00 6482.97 82.57
3806 29.0270 6460.00 6153.88 80.37
3807 29.0320 6112.00 5841.00 78.18
3808 29.0370 5796.00 5544.23 76.13
3809 29.0420 5552.00 5263.37 74.51
3810 29.0470 5411.00 4998.16 73.56
3811 29.0520 5169.00 4748.07 71.90
3812 29.0570 4937.00 4513.19 70.26
3813 29.0620 4645.00 4292.57 68.15
3814 29.0670 4358.00 4085.75 66.02
3815 29.0720 4141.00 3892.45 64.35
3816 29.0770 3931.00 3711.97 62.70
3817 29.0820 3776.00 3543.74 61.45
3818 29.0870 3586.00 3387.15 59.88
3819 29.0920 3394.00 3241.61 58.26
3820 29.0970 3246.00 3106.50 56.97
3821 29.1020 3085.00 2981.23 55.54
3822 29.1070 2968.00 2865.20 54.48
3823 29.1120 2834.00 2757.84 53.24
3824 29.1170 2743.00 2658.58 52.37
3825 29.1220 2644.00 2566.82 51.42
3826 29.1270 2505.00 2482.15 50.05
3827 29.1320 2439.00 2404.01 49.39
3828 29.1370 2385.00 2331.93 48.84
3829 29.1420 2284.00 2265.44 47.79
3830 29.1470 2193.00 2204.13 46.83
3831 29.1520 2094.00 2147.59 45.76
3832 29.1570 2007.00 2095.46 44.80
3833 29.1620 1935.00 2047.39 43.99
3834 29.1670 1882.00 2003.02 43.38
3835 29.1720 1825.00 1962.15 42.72
3836 29.1770 1821.00 1924.40 42.67
3837 29.1820 1820.00 1889.60 42.66
3838 29.1870 1762.00 1857.51 41.98
3839 29.1920 1710.00 1827.87 41.35
3840 29.1970 1704.00 1800.55 41.28
3841 29.2020 1628.00 1775.37 40.35
3842 29.2070 1566.00 1752.17 39.57
3843 29.2120 1476.00 1730.82 38.42
3844 29.2170 1419.00 1711.21 37.67
3845 29.2220 1443.00 1693.21 37.99
3846 29.2270 1457.00 1676.77 38.17
3847 29.2320 1481.00 1661.78 38.48
3848 29.2370 1430.00 1648.16 37.82
3849 29.2420 1344.00 1635.87 36.66
3850 29.2470 1347.00 1624.86 36.70
3851 29.2520 1358.00 1615.09 36.85
3852 29.2570 1363.00 1606.52 36.92
3853 29.2620 1337.00 1599.13 36.56
3854 29.2670 1222.00 1592.90 34.96
3855 29.2720 1218.00 1587.82 34.90
3856 29.2770 1259.00 1583.89 35.48
3857 29.2820 1297.00 1581.10 36.01
3858 29.2870 1283.00 1579.48 35.82
3859 29.2920 1216.00 1579.02 34.87
3860 29.2970 1238.00 1579.76 35.19
3861 29.3020 1214.00 1581.71 34.84
3862 29.3070 1226.00 1584.92 35.01
3863 29.3120 1238.00 1589.42 35.19
3864 29.3170 1231.00 1595.25 35.09
3865 29.3220 1156.00 1602.46 34.00
3866 29.3270 1154.00 1611.11 33.97
3867 29.3320 1241.00 1621.25 35.23
3868 29.3370 1297.00 1632.97 36.01
3869 29.3420 1271.00 1646.31 35.65
3870 29.3470 1229.00 1661.38 35.06
3871 29.3520 1254.00 1678.24 35.41
3872 29.3570 1367.00 1696.97 36.97
3873 29.3620 1398.00 1717.72 37.39
3874 29.3670 1412.00 1740.54 37.58
3875 29.3720 1432.00 1765.56 37.84
3876 29.3770 1456.00 1792.88 38.16
3877 29.3820 1532.00 1822.63 39.14
3878 29.3870 1537.00 1854.93 39.20
3879 29.3920 1600.00 1889.93 40.00
3880 29.3970 1679.00 1927.69 40.98
3881 29.4020 1675.00 1968.43 40.93
3882 29.4070 1705.00 2012.29 41.29
3883 29.4120 1784.00 2059.37 42.24
3884 29.4170 1874.00 2109.83 43.29
3885 29.4220 1853.00 2163.83 43.05
3886 29.4270 1900.00 2221.53 43.59
3887 29.4320 2010.00 2283.07 44.83
3888 29.4370 2100.00 2348.62 45.83
3889 29.4420 2213.00 2418.34 47.04
3890 29.4470 2262.00 2492.38 47.56
3891 29.4520 2229.00 2565.02 47.21
3892 29.4570 2285.00 2648.15 47.80
3893 29.4620 2437.00 2736.19 49.37
3894 29.4670 2576.00 2829.14 50.75
3895 29.4720 2713.00 2927.20 52.09
3896 29.4770 2876.00 3030.55 53.63
3897 29.4820 3030.00 3139.35 55.05
3898 29.4870 3141.00 3253.77 56.04
3899 29.4920 3301.00 3373.98 57.45
3900 29.4970 3473.00 3500.15 58.93
3901 29.5020 3578.00 3632.48 59.82
3902 29.5070 3708.00 3771.23 60.89
3903 29.5120 3818.00 3916.31 61.79
3904 29.5170 3957.00 4068.31 62.90
3905 29.5220 4138.00 4227.12 64.33
3906 29.5270 4339.00 4393.05 65.87
3907 29.5320 4527.00 4566.29 67.28
3908 29.5370 4688.00 4747.04 68.47
3909 29.5420 4806.00 4935.50 69.33
3910 29.5470 4907.00 5131.86 70.05
3911 29.5520 5056.00 5336.29 71.11
3912 29.5570 5337.00 5548.98 73.05
3913 29.5620 5565.00 5770.05 74.60
3914 29.5670 5770.00 5999.65 75.96
3915 29.5720 6115.00 6237.86 78.20
3916 29.5770 6433.00 6484.93 80.21
3917 29.5820 6639.00 6740.54 81.48
3918 29.5870 7014.00 7004.83 83.75
3919 29.5920 7360.00 7277.74 85.79
3920 29.5970 7615.00 7559.12 87.26
3921 29.6020 7933.00 7848.77 89.07
3922 29.6070 8214.00 8148.92 90.63
3923 29.6120 8464.00 8454.23 92.00
3924 29.6170 8763.00 8766.73 93.61
3925 29.6220 9018.00 9086.10 94.96
3926 29.6270 9339.00 9411.02 96.64
3927 29.6320 9651.00 9741.65 98.24
3928 29.6370 9974.00 10076.40 99.87
3929 29.6420 10283.00 10414.60 101.40
3930 29.6470 10580.00 10755.00 102.86
3931 29.6520 10892.00 11096.50 104.36
3932 29.6570 11274.00 11437.50 106.18
3933 29.6620 11664.00 11776.80 108.00
3934 29.6670 11924.00 12112.40 109.20
3935 29.6720 12244.00 12442.80 110.65
3936 29.6770 12544.00 12766.00 112.00
3937 29.6820 12993.00 13079.50 113.99
3938 29.6870 13433.00 13381.70 115.90
3939 29.6920 13864.00 13670.10 117.75
3940 29.6970 14232.00 13941.90 119.30
3941 29.7020 14424.00 14194.80 120.10
3942 29.7070 14650.00 14426.10 121.04
3943 29.7120 14935.00 14633.00 122.21
3944 29.7170 15103.00 14812.90 122.89
3945 29.7220 15210.00 14963.10 123.33
3946 29.7270 15439.00 15080.80 124.25
3947 29.7320 15471.00 15163.70 124.38
3948 29.7370 15450.00 15209.50 124.30
3949 29.7420 15445.00 15216.20 124.28
3950 29.7470 15420.00 15182.30 124.18
3951 29.7520 15498.00 15106.80 124.49
3952 29.7570 15524.00 14989.30 124.60
3953 29.7620 15342.00 14829.80 123.86
3954 29.7670 15133.00 14629.30 123.02
3955 29.7720 14860.00 14389.20 121.90
3956 29.7770 14701.00 14111.80 121.25
3957 29.7820 14461.00 13799.90 120.25
3958 29.7870 14122.00 13456.70 118.84
3959 29.7920 13748.00 13085.60 117.25
3960 29.7970 13184.00 12691.50 114.82
3961 29.8020 12603.00 12277.20 112.26
3962 29.8070 12079.00 11847.90 109.90
3963 29.8120 11646.00 11407.10 107.92
3964 29.8170 11132.00 10958.80 105.51
3965 29.8220 10569.00 10506.50 102.81
3966 29.8270 10117.00 10053.60 100.58
3967 29.8320 9688.00 9603.05 98.43
3968 29.8370 9236.00 9157.46 96.10
3969 29.8420 8789.00 8719.16 93.75
3970 29.8470 8339.00 8289.86 91.32
3971 29.8520 7955.00 7872.14 89.19
3972 29.8570 7581.00 7466.53 87.07
3973 29.8620 7261.00 7074.21 85.21
3974 29.8670 6922.00 6696.64 83.20
3975 29.8720 6564.00 6334.25 81.02
3976 29.8770 6280.00 5987.54 79.25
3977 29.8820 6016.00 5656.86 77.56
3978 29.8870 5730.00 5342.36 75.70
3979 29.8920 5436.00 5044.10 73.73
3980 29.8970 5169.00 4761.99 71.90
3981 29.9020 4844.00 4495.83 69.60
3982 29.9070 4601.00 4245.16 67.83
3983 29.9120 4422.00 4010.11 66.50
3984 29.9170 4195.00 3789.59 64.77
3985 29.9220 3972.00 3583.56 63.02
3986 29.9270 3780.00 3391.30 61.48
3987 29.9320 3572.00 3212.24 59.77
3988 29.9370 3350.00 3045.73 57.88
3989 29.9420 3192.00 2891.16 56.50
3990 29.9470 3071.00 2747.85 55.42
3991 29.9520 2916.00 2615.15 54.00
3992 29.9570 2783.00 2492.41 52.75
3993 29.9620 2700.00 2378.90 51.96
3994 29.9670 2661.00 2274.21 51.58
3995 29.9720 2572.00 2177.44 50.71
3996 29.9770 2465.00 2088.19 49.65
3997 29.9820 2304.00 2005.82 48.00
3998 29.9870 2203.00 1929.80 46.94
3999 29.9920 2146.00 1859.60 46.32
4000 29.9970 2081.00 1794.74 45.62
4001 30.0020 2030.00 1734.75 45.06
4002 30.0070 1964.00 1679.23 44.32
4003 30.0120 1875.00 1627.76 43.30
4004 30.0170 1777.00 1579.96 42.15
4005 30.0220 1726.00 1535.55 41.55
4006 30.0270 1659.00 1494.23 40.73
4007 30.0320 1589.00 1455.62 39.86
4008 30.0370 1533.00 1419.55 39.15
4009 30.0420 1469.00 1385.76 38.33
4010 30.0470 1413.00 1354.05 37.59
4011 30.0520 1305.00 1324.23 36.12
4012 30.0570 1223.00 1296.11 34.97
4013 30.0620 1187.00 1269.56 34.45
4014 30.0670 1143.00 1244.44 33.81
4015 30.0720 1110.00 1220.61 33.32
4016 30.0770 1080.00 1197.96 32.86
4017 30.0820 1042.00 1176.43 32.28
4018 30.0870 1061.00 1155.89 32.57
4019 30.0920 1057.00 1136.28 32.51
4020 30.0970 1023.00 1117.53 31.98
4021 30.1020 996.00 1099.58 31.56
4022 30.1070 956.00 1082.37 30.92
4023 30.1120 911.00 1065.85 30.18
4024 30.1170 851.00 1049.97 29.17
4025 30.1220 785.00 1034.70 28.02
4026 30.1270 742.00 1019.99 27.24
4027 30.1320 756.00 1005.81 27.50
4028 30.1370 836.00 992.15 28.91
4029 30.1420 856.00 978.95 29.26
4030 30.1470 764.00 966.22 27.64
4031 30.1520 674.00 953.91 25.96
4032 30.1570 691.00 942.00 26.29
4033 30.1620 694.00 930.49 26.34
4034 30.1670 685.00 919.35 26.17
4035 30.1720 734.00 908.55 27.09
4036 30.1770 763.00 898.10 27.62
4037 30.1820 786.00 887.97 28.04
4038 30.1870 780.00 878.15 27.93
4039 30.1920 760.00 868.61 27.57
4040 30.1970 732.00 859.38 27.06
4041 30.2020 739.00 850.40 27.18
4042 30.2070 760.00 841.69 27.57
4043 30.2120 776.00 833.23 27.86
4044 30.2170 757.00 825.01 27.51
4045 30.2220 726.00 817.03 26.94
4046 30.2270 692.00 809.27 26.31
4047 30.2320 659.00 801.72 25.67
4048 30.2370 650.00 794.38 25.50
4049 30.2420 646.00 787.24 25.42
4050 30.2470 614.00 780.29 24.78
4051 30.2520 602.00 773.53 24.54
4052 30.2570 635.00 766.95 25.20
4053 30.2620 633.00 760.53 25.16
4054 30.2670 652.00 754.29 25.53
4055 30.2720 629.00 748.21 25.08
4056 30.2770 635.00 742.28 25.20
4057 30.2820 678.00 736.51 26.04
4058 30.2870 667.00 730.88 25.83
4059 30.2920 682.00 725.39 26.12
4060 30.2970 693.00 720.03 26.32
4061 30.3020 694.00 714.81 26.34
4062 30.3070 676.00 709.72 26.00
4063 30.3120 657.00 704.75 25.63
4064 30.3170 675.00 699.89 25.98
4065 30.3220 689.00 695.16 26.25
4066 30.3270 664.00 690.54 25.77
4067 30.3320 625.00 686.03 25.00
4068 30.3370 603.00 681.62 24.56
4069 30.3420 588.00 677.31 24.25
4070 30.3470 568.00 673.11 23.83
4071 30.3520 570.00 669.00 23.87
4072 30.3570 610.00 664.99 24.70
4073 30.3620 646.00 661.07 25.42
4074 30.3670 678.00 679.22 26.04
4075 30.3720 698.00 675.61 26.42
4076 30.3770 733.00 672.09 27.07
4077 30.3820 767.00 668.65 27.69
4078 30.3870 778.00 665.29 27.89
4079 30.3920 770.00 662.02 27.75
4080 30.3970 779.00 658.82 27.91
4081 30.4020 797.00 655.69 28.23
4082 30.4070 798.00 652.64 28.25
4083 30.4120 787.00 649.66 28.05
4084 30.4170 778.00 646.75 27.89
4085 30.4220 797.00 643.91 28.23
4086 30.4270 802.00 641.13 28.32
4087 30.4320 763.00 638.42 27.62
4088 30.4370 732.00 635.78 27.06
4089 30.4420 787.00 633.19 28.05
4090 30.4470 845.00 630.67 29.07
4091 30.4520 827.00 628.21 28.76
4092 30.4570 776.00 625.80 27.86
4093 30.4620 764.00 623.46 27.64
4094 30.4670 780.00 621.17 27.93
4095 30.4720 804.00 618.93 28.35
4096 30.4770 855.00 616.75 29.24
4097 30.4820 862.00 614.63 29.36
4098 30.4870 850.00 612.55 29.15
4099 30.4920 854.00 610.53 29.22
4100 30.4970 854.00 608.55 29.22
4101 30.5020 842.00 606.63 29.02
4102 30.5070 779.00 604.76 27.91
4103 30.5120 733.00 602.94 27.07
4104 30.5170 757.00 601.16 27.51
4105 30.5220 764.00 599.43 27.64
4106 30.5270 757.00 597.75 27.51
4107 30.5320 749.00 596.11 27.37
4108 30.5370 731.00 594.53 27.04
4109 30.5420 766.00 592.98 27.68
4110 30.5470 796.00 591.48 28.21
4111 30.5520 768.00 590.03 27.71
4112 30.5570 741.00 588.62 27.22
4113 30.5620 708.00 587.26 26.61
4114 30.5670 719.00 585.93 26.81
4115 30.5720 760.00 584.66 27.57
4116 30.5770 781.00 583.42 27.95
4117 30.5820 824.00 582.23 28.71
4118 30.5870 831.00 581.09 28.83
4119 30.5920 814.00 579.99 28.53
4120 30.5970 773.00 578.93 27.80
4121 30.6020 764.00 577.92 27.64
4122 30.6070 771.00 576.95 27.77
4123 30.6120 774.00 575.92 27.82
4124 30.6170 779.00 575.04 27.91
4125 30.6220 738.00 574.21 27.17
4126 30.6270 710.00 573.43 26.65
4127 30.6320 706.00 572.70 26.57
4128 30.6370 697.00 572.01 26.40
4129 30.6420 691.00 571.37 26.29
4130 30.6470 700.00 570.79 26.46
4131 30.6520 679.00 570.25 26.06
4132 30.6570 662.00 530.82 25.73
4133 30.6620 711.00 530.61 26.66
4134 30.6670 772.00 530.46 27.78
4135 30.6720 808.00 530.37 28.43
4136 30.6770 804.00 530.34 28.35
4137 30.6820 790.00 530.37 28.11
4138 30.6870 793.00 530.47 28.16
4139 30.6920 796.00 530.64 28.21
4140 30.6970 794.00 530.89 28.18
4141 30.7020 743.00 531.21 27.26
4142 30.7070 721.00 531.61 26.85
4143 30.7120 702.00 532.10 26.50
4144 30.7170 688.00 532.68 26.23
4145 30.7220 691.00 533.36 26.29
4146 30.7270 704.00 534.14 26.53
4147 30.7320 728.00 535.03 26.98
4148 30.7370 728.00 536.04 26.98
4149 30.7420 718.00 537.16 26.80
4150 30.7470 691.00 538.42 26.29
4151 30.7520 681.00 539.81 26.10
4152 30.7570 638.00 541.35 25.26
4153 30.7620 646.00 543.04 25.42
4154 30.7670 646.00 544.90 25.42
4155 30.7720 646.00 546.92 25.42
4156 30.7770 695.00 549.13 26.36
4157 30.7820 739.00 551.53 27.18
4158 30.7870 696.00 554.13 26.38
4159 30.7920 697.00 556.95 26.40
4160 30.7970 706.00 559.99 26.57
4161 30.8020 670.00 563.26 25.88
4162 30.8070 681.00 566.79 26.10
4163 30.8120 693.00 570.57 26.32
4164 30.8170 678.00 574.62 26.04
4165 30.8220 671.00 578.96 25.90
4166 30.8270 679.00 583.59 26.06
4167 30.8320 700.00 588.53 26.46
4168 30.8370 684.00 593.79 26.15
4169 30.8420 612.00 599.38 24.74
4170 30.8470 593.00 605.31 24.35
4171 30.8520 576.00 611.60 24.00
4172 30.8570 558.00 618.25 23.62
4173 30.8620 534.00 625.29 23.11
4174 30.8670 552.00 632.72 23.49
4175 30.8720 557.00 640.55 23.60
4176 30.8770 635.00 648.80 25.20
4177 30.8820 703.00 657.48 26.51
4178 30.8870 689.00 666.61 26.25
4179 30.8920 702.00 676.19 26.50
4180 30.8970 711.00 686.25 26.66
4181 30.9020 695.00 696.79 26.36
4182 30.9070 696.00 707.84 26.38
4183 30.9120 700.00 719.40 26.46
4184 30.9170 649.00 731.50 25.48
4185 30.9220 659.00 744.14 25.67
4186 30.9270 650.00 757.35 25.50
4187 30.9320 657.00 771.13 25.63
4188 30.9370 683.00 785.49 26.13
4189 30.9420 704.00 800.46 26.53
4190 30.9470 760.00 816.03 27.57
4191 30.9520 804.00 832.22 28.35
4192 30.9570 767.00 849.03 27.69
4193 30.9620 752.00 866.47 27.42
4194 30.9670 821.00 884.52 28.65
4195 30.9720 847.00 903.20 29.10
4196 30.9770 856.00 922.45 29.26
4197 30.9820 872.00 942.31 29.53
4198 30.9870 875.00 962.74 29.58
4199 30.9920 901.00 983.68 30.02
4200 30.9970 940.00 1005.14 30.66
4201 31.0020 962.00 1027.05 31.02
4202 31.0070 984.00 1049.35 31.37
4203 31.0120 1010.00 1072.00 31.78
4204 31.0170 1036.00 1094.91 32.19
4205 31.0220 1007.00 1118.01 31.73
4206 31.0270 1032.00 1141.20 32.12
4207 31.0320 1027.00 1164.39 32.05
4208 31.0370 1071.00 1187.46 32.73
4209 31.0420 1108.00 1210.31 33.29
4210 31.0470 1116.00 1232.74 33.41
4211 31.0520 1081.00 1254.68 32.88
4212 31.0570 1112.00 1275.92 33.35
4213 31.0620 1165.00 1363.28 34.13
4214 31.0670 1225.00 1382.97 35.00
4215 31.0720 1272.00 1401.45 35.67
4216 31.0770 1310.00 1418.51 36.19
4217 31.0820 1318.00 1433.96 36.30
4218 31.0870 1337.00 1447.58 36.56
4219 31.0920 1339.00 1459.17 36.59
4220 31.0970 1328.00 1468.53 36.44
4221 31.1020 1358.00 1475.47 36.85
4222 31.1070 1361.00 1479.80 36.89
4223 31.1120 1289.00 1481.39 35.90
4224 31.1170 1257.00 1480.10 35.45
4225 31.1220 1279.00 1475.88 35.76
4226 31.1270 1253.00 1468.67 35.40
4227 31.1320 1231.00 1458.51 35.09
4228 31.1370 1208.00 1445.46 34.76
4229 31.1420 1190.00 1429.64 34.50
4230 31.1470 1222.00 1411.28 34.96
4231 31.1520 1163.00 1390.55 34.10
4232 31.1570 1179.00 1367.73 34.34
4233 31.1620 1216.00 1343.15 34.87
4234 31.1670 1225.00 1317.05 35.00
4235 31.1720 1157.00 1289.81 34.01
4236 31.1770 1118.00 1261.70 33.44
4237 31.1820 1112.00 1233.03 33.35
4238 31.1870 1052.00 1204.07 32.43
4239 31.1920 1032.00 1175.09 32.12
4240 31.1970 1058.00 1146.29 32.53
4241 31.2020 1014.00 1117.90 31.84
4242 31.2070 856.00 1090.07 29.26
4243 31.2120 859.00 1062.95 29.31
4244 31.2170 837.00 1036.68 28.93
4245 31.2220 833.00 1011.36 28.86
4246 31.2270 801.00 1015.36 28.30
4247 31.2320 733.00 992.29 27.07
4248 31.2370 775.00 970.36 27.84
4249 31.2420 757.00 949.59 27.51
4250 31.2470 720.00 930.00 26.83
4251 31.2520 657.00 911.61 25.63
4252 31.2570 672.00 894.41 25.92
4253 31.2620 694.00 878.38 26.34
4254 31.2670 648.00 863.50 25.46
4255 31.2720 612.00 849.77 24.74
4256 31.2770 632.00 837.14 25.14
4257 31.2820 592.00 825.56 24.33
4258 31.2870 586.00 815.01 24.21
4259 31.2920 598.00 805.43 24.45
4260 31.2970 609.00 796.80 24.68
4261 31.3020 571.00 789.05 23.90
4262 31.3070 575.00 782.14 23.98
4263 31.3120 547.00 776.02 23.39
4264 31.3170 535.00 770.65 23.13
4265 31.3220 562.00 765.98 23.71
4266 31.3270 542.00 761.97 23.28
4267 31.3320 531.00 758.57 23.04
4268 31.3370 428.00 755.73 20.69
4269 31.3420 473.00 753.44 21.75
4270 31.3470 503.00 751.63 22.43
4271 31.3520 465.00 750.29 21.56
4272 31.3570 476.00 749.38 21.82
4273 31.3620 493.00 748.87 22.20
4274 31.3670 539.00 748.73 23.22
4275 31.3720 567.00 748.94 23.81
4276 31.3770 590.00 749.47 24.29
4277 31.3820 579.00 750.32 24.06
4278 31.3870 525.00 751.45 22.91
4279 31.3920 517.00 752.86 22.74
4280 31.3970 552.00 754.53 23.49
4281 31.4020 611.00 723.16 24.72
4282 31.4070 538.00 725.52 23.19
4283 31.4120 518.00 728.11 22.76
4284 31.4170 598.00 730.93 24.45
4285 31.4220 631.00 733.97 25.12
4286 31.4270 593.00 737.23 24.35
4287 31.4320 549.00 740.71 23.43
4288 31.4370 575.00 744.40 23.98
4289 31.4420 596.00 748.32 24.41
4290 31.4470 589.00 752.45 24.27
4291 31.4520 617.00 756.80 24.84
4292 31.4570 646.00 761.38 25.42
4293 31.4620 650.00 766.19 25.50
4294 31.4670 678.00 771.25 26.04
4295 31.4720 683.00 776.55 26.13
4296 31.4770 661.00 782.10 25.71
4297 31.4820 627.00 787.93 25.04
4298 31.4870 622.00 794.03 24.94
4299 31.4920 707.00 800.42 26.59
4300 31.4970 723.00 807.13 26.89
4301 31.5020 728.00 814.15 26.98
4302 31.5070 732.00 821.52 27.06
4303 31.5120 679.00 829.24 26.06
4304 31.5170 701.00 837.35 26.48
4305 31.5220 747.00 845.87 27.33
4306 31.5270 722.00 854.82 26.87
4307 31.5320 718.00 864.22 26.80
4308 31.5370 744.00 874.12 27.28
4309 31.5420 760.00 884.54 27.57
4310 31.5470 799.00 895.53 28.27
4311 31.5520 781.00 907.11 27.95
4312 31.5570 788.00 919.34 28.07
4313 31.5620 872.00 932.23 29.53
4314 31.5670 943.00 945.88 30.71
4315 31.5720 1002.00 960.30 31.65
4316 31.5770 1044.00 975.56 32.31
4317 31.5820 1030.00 991.71 32.09
4318 31.5870 997.00 1008.82 31.58
4319 31.5920 1034.00 1026.96 32.16
4320 31.5970 1123.00 1046.20 33.51
4321 31.6020 1199.00 1066.59 34.63
4322 31.6070 1237.00 1088.23 35.17
4323 31.6120 1203.00 1111.22 34.68
4324 31.6170 1179.00 1135.58 34.34
4325 31.6220 1164.00 1161.48 34.12
4326 31.6270 1213.00 1188.96 34.83
4327 31.6320 1268.00 1218.13 35.61
4328 31.6370 1316.00 1249.10 36.28
4329 31.6420 1357.00 1281.97 36.84
4330 31.6470 1429.00 1316.84 37.80
4331 31.6520 1457.00 1353.84 38.17
4332 31.6570 1467.00 1393.07 38.30
4333 31.6620 1562.00 1434.66 39.52
4334 31.6670 1639.00 1478.75 40.48
4335 31.6720 1714.00 1525.41 41.40
4336 31.6770 1788.00 1574.80 42.28
4337 31.6820 1854.00 1627.02 43.06
4338 31.6870 1892.00 1682.22 43.50
4339 31.6920 1900.00 1740.52 43.59
4340 31.6970 1932.00 1802.05 43.95
4341 31.7020 1999.00 1866.94 44.71
4342 31.7070 2095.00 1935.31 45.77
4343 31.7120 2171.00 2007.29 46.59
4344 31.7170 2212.00 2083.01 47.03
4345 31.7220 2282.00 2162.66 47.77
4346 31.7270 2319.00 2246.26 48.16
4347 31.7320 2401.00 2333.92 49.00
4348 31.7370 2473.00 2425.96 49.73
4349 31.7420 2553.00 2522.32 50.53
4350 31.7470 2659.00 2623.20 51.57
4351 31.7520 2802.00 2728.70 52.93
4352 31.7570 2980.00 2838.96 54.59
4353 31.7620 3058.00 2954.09 55.30
4354 31.7670 3079.00 3074.27 55.49
4355 31.7720 3193.00 3199.36 56.51
4356 31.7770 3346.00 3329.70 57.84
4357 31.7820 3509.00 3465.37 59.24
4358 31.7870 3650.00 3606.15 60.42
4359 31.7920 3770.00 3752.45 61.40
4360 31.7970 4003.00 3904.01 63.27
4361 31.8020 4160.00 4060.91 64.50
4362 31.8070 4263.00 4223.10 65.29
4363 31.8120 4420.00 4390.51 66.48
4364 31.8170 4566.00 4563.03 67.57
4365 31.8220 4746.00 4740.49 68.89
4366 31.8270 4874.00 4944.05 69.81
4367 31.8320 5071.00 5130.90 71.21
4368 31.8370 5246.00 5322.06 72.43
4369 31.8420 5439.00 5516.90 73.75
4370 31.8470 5594.00 5715.10 74.79
4371 31.8520 5797.00 5916.18 76.14
4372 31.8570 6044.00 6119.55 77.74
4373 31.8620 6313.00 6324.57 79.45
4374 31.8670 6475.00 6530.52 80.47
4375 31.8720 6683.00 6736.61 81.75
4376 31.8770 6877.00 6941.94 82.93
4377 31.8820 7206.00 7145.68 84.89
4378 31.8870 7536.00 7346.39 86.81
4379 31.8920 7741.00 7543.47 87.98
4380 31.8970 7941.00 7735.28 89.11
4381 31.9020 8076.00 7920.56 89.87
4382 31.9070 8248.00 8098.28 90.82
4383 31.9120 8480.00 8266.62 92.09
4384 31.9170 8692.00 8424.19 93.23
4385 31.9220 8906.00 8569.40 94.37
4386 31.9270 9028.00 8700.64 95.02
4387 31.9320 9103.00 8816.28 95.41
4388 31.9370 9135.00 8914.70 95.58
4389 31.9420 9220.00 8994.31 96.02
4390 31.9470 9305.00 9053.62 96.46
4391 31.9520 9370.00 9091.29 96.80
4392 31.9570 9437.00 9106.08 97.14
4393 31.9620 9484.00 9097.07 97.39
4394 31.9670 9475.00 9063.63 97.34
4395 31.9720 9460.00 9005.44 97.26
4396 31.9770 9437.00 8922.57 97.14
4397 31.9820 9268.00 8815.48 96.27
4398 31.9870 9095.00 8685.06 95.37
4399 31.9920 9004.00 8532.58 94.89
4400 31.9970 8802.00 8359.66 93.82
4401 32.0020 8539.00 8168.11 92.41
4402 32.0070 8308.00 7960.50 91.15
4403 32.0120 8085.00 7738.60 89.92
4404 32.0170 7790.00 7505.27 88.26
4405 32.0220 7450.00 7262.96 86.31
4406 32.0270 7173.00 7013.55 84.69
4407 32.0320 6934.00 6759.80 83.27
4408 32.0370 6700.00 6503.67 81.85
4409 32.0420 6439.00 6247.11 80.24
4410 32.0470 6177.00 5991.87 78.59
4411 32.0520 5903.00 5739.33 76.83
4412 32.0570 5648.00 5491.21 75.15
4413 32.0620 5396.00 5248.66 73.46
4414 32.0670 5143.00 5012.18 71.71
4415 32.0720 4878.00 4783.09 69.84
4416 32.0770 4660.00 4562.05 68.26
4417 32.0820 4500.00 4349.14 67.08
4418 32.0870 4383.00 4145.21 66.20
4419 32.0920 4189.00 3950.29 64.72
4420 32.0970 3992.00 3789.45 63.18
4421 32.1020 3834.00 3613.55 61.92
4422 32.1070 3686.00 3447.00 60.71
4423 32.1120 3532.00 3290.06 59.43
4424 32.1170 3350.00 3142.31 57.88
4425 32.1220 3206.00 3003.58 56.62
4426 32.1270 3065.00 2873.85 55.36
4427 32.1320 2925.00 2752.85 54.08
4428 32.1370 2831.00 2640.05 53.21
4429 32.1420 2745.00 2535.38 52.39
4430 32.1470 2649.00 2438.47 51.47
4431 32.1520 2576.00 2348.78 50.75
4432 32.1570 2514.00 2266.14 50.14
4433 32.1620 2429.00 2190.06 49.28
4434 32.1670 2327.00 2120.31 48.24
4435 32.1720 2210.00 2056.38 47.01
4436 32.1770 2166.00 1997.89 46.54
4437 32.1820 2153.00 1944.58 46.40
4438 32.1870 2097.00 1896.09 45.79
4439 32.1920 2060.00 1851.97 45.39
4440 32.1970 2019.00 1812.00 44.93
4441 32.2020 1950.00 1775.84 44.16
4442 32.2070 1883.00 1743.21 43.39
4443 32.2120 1838.00 1713.82 42.87
4444 32.2170 1834.00 1687.40 42.83
4445 32.2220 1820.00 1663.77 42.66
4446 32.2270 1802.00 1642.66 42.45
4447 32.2320 1787.00 1623.86 42.27
4448 32.2370 1723.00 1607.23 41.51
4449 32.2420 1641.00 1592.55 40.51
4450 32.2470 1593.00 1579.71 39.91
4451 32.2520 1585.00 1568.54 39.81
4452 32.2570 1604.00 1558.94 40.05
4453 32.2620 1611.00 1550.78 40.14
4454 32.2670 1605.00 1543.96 40.06
4455 32.2720 1602.00 1538.41 40.03
4456 32.2770 1603.00 1534.04 40.04
4457 32.2820 1622.00 1530.79 40.27
4458 32.2870 1623.00 1528.59 40.29
4459 32.2920 1611.00 1527.40 40.14
4460 32.2970 1572.00 1527.19 39.65
4461 32.3020 1579.00 1527.90 39.74
4462 32.3070 1566.00 1529.53 39.57
4463 32.3120 1547.00 1532.03 39.33
4464 32.3170 1530.00 1535.40 39.12
4465 32.3220 1531.00 1539.63 39.13
4466 32.3270 1558.00 1544.71 39.47
4467 32.3320 1549.00 1550.64 39.36
4468 32.3370 1538.00 1557.42 39.22
4469 32.3420 1555.00 1565.06 39.43
4470 32.3470 1570.00 1573.57 39.62
4471 32.3520 1556.00 1582.98 39.45
4472 32.3570 1506.00 1593.29 38.81
4473 32.3620 1512.00 1604.52 38.88
4474 32.3670 1570.00 1616.73 39.62
4475 32.3720 1606.00 1629.93 40.07
4476 32.3770 1625.00 1644.17 40.31
4477 32.3820 1644.00 1659.47 40.55
4478 32.3870 1708.00 1675.90 41.33
4479 32.3920 1777.00 1693.51 42.15
4480 32.3970 1798.00 1712.33 42.40
4481 32.4020 1834.00 1732.45 42.83
4482 32.4070 1852.00 1753.94 43.03
4483 32.4120 1823.00 1776.85 42.70
4484 32.4170 1828.00 1801.25 42.76
4485 32.4220 1881.00 1827.28 43.37
4486 32.4270 1939.00 1854.97 44.03
4487 32.4320 1979.00 1884.46 44.49
4488 32.4370 2011.00 1915.80 44.84
4489 32.4420 2013.00 1949.15 44.87
4490 32.4470 2054.00 1984.64 45.32
4491 32.4520 2120.00 2022.31 46.04
4492 32.4570 2154.00 2062.38 46.41
4493 32.4620 2160.00 2104.99 46.48
4494 32.4670 2224.00 2150.22 47.16
4495 32.4720 2322.00 2198.22 48.19
4496 32.4770 2397.00 2249.27 48.96
4497 32.4820 2442.00 2303.43 49.42
4498 32.4870 2493.00 2374.25 49.93
4499 32.4920 2572.00 2435.32 50.71
4500 32.4970 2661.00 2500.09 51.58
4501 32.5020 2751.00 2568.81 52.45
4502 32.5070 2814.00 2641.56 53.05
4503 32.5120 2833.00 2718.68 53.23
4504 32.5170 2869.00 2800.40 53.56
4505 32.5220 2980.00 2886.80 54.59
4506 32.5270 3122.00 2978.26 55.87
4507 32.5320 3226.00 3075.04 56.80
4508 32.5370 3348.00 3177.24 57.86
4509 32.5420 3495.00 3285.17 59.12
4510 32.5470 3589.00 3399.07 59.91
4511 32.5520 3707.00 3519.18 60.89
4512 32.5570 3854.00 3645.85 62.08
4513 32.5620 3984.00 3779.03 63.12
4514 32.5670 4133.00 3919.31 64.29
4515 32.5720 4322.00 4066.79 65.74
4516 32.5770 4521.00 4221.47 67.24
4517 32.5820 4723.00 4383.97 68.72
4518 32.5870 4951.00 4554.20 70.36
4519 32.5920 5167.00 4732.46 71.88
4520 32.5970 5336.00 4918.94 73.05
4521 32.6020 5535.00 5113.82 74.40
4522 32.6070 5695.00 5317.26 75.47
4523 32.6120 5871.00 5529.40 76.62
4524 32.6170 6121.00 5750.38 78.24
4525 32.6220 6351.00 5980.44 79.69
4526 32.6270 6607.00 6219.35 81.28
4527 32.6320 6867.00 6467.13 82.87
4528 32.6370 7075.00 6724.32 84.11
4529 32.6420 7269.00 6990.37 85.26
4530 32.6470 7466.00 7265.19 86.41
4531 32.6520 7729.00 7549.23 87.91
4532 32.6570 8024.00 7841.77 89.58
4533 32.6620 8385.00 8142.77 91.57
4534 32.6670 8758.00 8451.96 93.58
4535 32.6720 9092.00 8768.98 95.35
4536 32.6770 9434.00 9093.65 97.13
4537 32.6820 9814.00 9422.88 99.07
4538 32.6870 10148.00 9760.43 100.74
4539 32.6920 10465.00 10104.20 102.30
4540 32.6970 10772.00 10452.70 103.79
4541 32.7020 11049.00 10805.10 105.11
4542 32.7070 11417.00 11161.30 106.85
4543 32.7120 11743.00 11519.50 108.36
4544 32.7170 12049.00 11879.00 109.77
4545 32.7220 12418.00 12238.00 111.44
4546 32.7270 12765.00 12595.80 112.98
4547 32.7320 13063.00 12950.90 114.29
4548 32.7370 13303.00 13301.20 115.34
4549 32.7420 13572.00 13645.70 116.50
4550 32.7470 13971.00 13982.60 118.20
4551 32.7520 14400.00 14309.60 120.00
4552 32.7570 14793.00 14624.70 121.63
4553 32.7620 15145.00 14926.60 123.07
4554 32.7670 15574.00 15212.40 124.80
4555 32.7720 15931.00 15480.10 126.22
4556 32.7770 16282.00 15727.40 127.60
4557 32.7820 16603.00 15952.20 128.85
4558 32.7870 16882.00 16152.10 129.93
4559 32.7920 17201.00 16324.60 131.15
4560 32.7970 17457.00 16467.90 132.12
4561 32.8020 17536.00 16579.90 132.42
4562 32.8070 17546.00 16658.70 132.46
4563 32.8120 17488.00 16702.90 132.24
4564 32.8170 17437.00 16711.20 132.05
4565 32.8220 17372.00 16682.90 131.80
4566 32.8270 17244.00 16617.70 131.32
4567 32.8320 17032.00 16515.70 130.51
4568 32.8370 16767.00 16377.60 129.49
4569 32.8420 16535.00 16204.60 128.59
4570 32.8470 16309.00 15998.80 127.71
4571 32.8520 16040.00 15761.90 126.65
4572 32.8570 15655.00 15496.80 125.12
4573 32.8620 15227.00 15206.90 123.40
4574 32.8670 14903.00 14894.70 122.08
4575 32.8720 14549.00 14564.30 120.62
4576 32.8770 14164.00 14219.00 119.01
4577 32.8820 13766.00 13862.50 117.33
4578 32.8870 13347.00 13498.10 115.53
4579 32.8920 12922.00 13129.30 113.68
4580 32.8970 12560.00 12759.10 112.07
4581 32.9020 12123.00 12390.50 110.10
4582 32.9070 11628.00 12025.90 107.83
4583 32.9120 11217.00 11668.40 105.91
4584 32.9170 10848.00 11320.10 104.15
4585 32.9220 10500.00 10982.20 102.47
4586 32.9270 10162.00 10657.20 100.81
4587 32.9320 9899.00 10346.40 99.49
4588 32.9370 9670.00 10051.20 98.34
4589 32.9420 9396.00 9772.51 96.93
4590 32.9470 9116.00 9511.45 95.48
4591 32.9520 8858.00 9268.78 94.12
4592 32.9570 8628.00 9045.17 92.89
4593 32.9620 8480.00 8841.03 92.09
4594 32.9670 8386.00 8657.08 91.58
4595 32.9720 8390.00 8493.62 91.60
4596 32.9770 8346.00 8350.57 91.36
4597 32.9820 8285.00 8228.42 91.02
4598 32.9870 8256.00 8127.25 90.86
4599 32.9920 8245.00 8046.93 90.80
4600 32.9970 8241.00 7987.63 90.78
4601 33.0020 8175.00 7949.26 90.42
4602 33.0070 8194.00 7931.79 90.52
4603 33.0120 8225.00 7935.07 90.69
4604 33.0170 8202.00 7959.02 90.56
4605 33.0220 8227.00 8003.41 90.70
4606 33.0270 8410.00 8068.16 91.71
4607 33.0320 8523.00 8153.13 92.32
4608 33.0370 8556.00 8257.98 92.50
4609 33.0420 8626.00 8382.47 92.88
4610 33.0470 8715.00 8526.63 93.35
4611 33.0520 8946.00 8689.91 94.58
4612 33.0570 9142.00 8872.24 95.61
4613 33.0620 9335.00 9072.91 96.62
4614 33.0670 9601.00 9291.94 97.98
4615 33.0720 9761.00 9528.96 98.80
4616 33.0770 9991.00 9783.01 99.96
4617 33.0820 10338.00 10054.10 101.68
4618 33.0870 10665.00 10341.50 103.27
4619 33.0920 10949.00 10644.40 104.64
4620 33.0970 11267.00 10976.00 106.15
4621 33.1020 11513.00 11308.00 107.30
4622 33.1070 11798.00 11652.80 108.62
4623 33.1120 12090.00 12009.50 109.96
4624 33.1170 12406.00 12377.00 111.38
4625 33.1220 12710.00 12754.00 112.74
4626 33.1270 13040.00 13139.30 114.19
4627 33.1320 13344.00 13530.40 115.52
4628 33.1370 13695.00 13926.50 117.03
4629 33.1420 14045.00 14325.70 118.51
4630 33.1470 14293.00 14725.10 119.55
4631 33.1520 14762.00 15123.50 121.50
4632 33.1570 15176.00 15517.90 123.19
4633 33.1620 15456.00 15906.10 124.32
4634 33.1670 15913.00 16285.30 126.15
4635 33.1720 16528.00 16653.00 128.56
4636 33.1770 16929.00 17006.30 130.11
4637 33.1820 17192.00 17342.80 131.12
4638 33.1870 17457.00 17659.10 132.12
4639 33.1920 17754.00 17953.40 133.24
4640 33.1970 18030.00 18223.40 134.28
4641 33.2020 18306.00 18466.80 135.30
4642 33.2070 18502.00 18682.80 136.02
4643 33.2120 18703.00 18870.00 136.76
4644 33.2170 18785.00 19028.50 137.06
4645 33.2220 18823.00 19158.50 137.20
4646 33.2270 19016.00 19261.00 137.90
4647 33.2320 19188.00 19337.60 138.52
4648 33.2370 19279.00 19389.90 138.85
4649 33.2420 19301.00 19420.30 138.93
4650 33.2470 19320.00 19430.90 139.00
4651 33.2520 19234.00 19424.10 138.69
4652 33.2570 19315.00 19401.80 138.98
4653 33.2620 19385.00 19366.10 139.23
4654 33.2670 19539.00 19318.60 139.78
4655 33.2720 19628.00 19260.60 140.10
4656 33.2770 19634.00 19192.90 140.12
4657 33.2820 19580.00 19116.50 139.93
4658 33.2870 19531.00 19031.50 139.75
4659 33.2920 19507.00 18938.60 139.67
4660 33.2970 19327.00 18837.30 139.02
4661 33.3020 19104.00 18727.70 138.22
4662 33.3070 18972.00 18609.80 137.74
4663 33.3120 18692.00 18483.20 136.72
4664 33.3170 18545.00 18347.60 136.18
4665 33.3220 18390.00 18203.00 135.61
4666 33.3270 18152.00 18049.40 134.73
4667 33.3320 18062.00 17886.50 134.40
4668 33.3370 17958.00 17714.80 134.01
4669 33.3420 17713.00 17534.50 133.09
4670 33.3470 17514.00 17346.20 132.34
4671 33.3520 17201.00 17150.40 131.15
4672 33.3570 16941.00 16947.80 130.16
4673 33.3620 16719.00 16739.60 129.30
4674 33.3670 16478.00 16526.60 128.37
4675 33.3720 16301.00 16309.60 127.68
4676 33.3770 16109.00 16090.30 126.92
4677 33.3820 15967.00 15869.80 126.36
4678 33.3870 15640.00 15648.90 125.06
4679 33.3920 15228.00 15429.30 123.40
4680 33.3970 14995.00 15211.90 122.45
4681 33.4020 14692.00 14998.00 121.21
4682 33.4070 14464.00 14788.50 120.27
4683 33.4120 14286.00 14584.50 119.52
4684 33.4170 14045.00 14387.30 118.51
4685 33.4220 13908.00 14197.20 117.93
4686 33.4270 13705.00 14015.30 117.07
4687 33.4320 13563.00 13842.30 116.46
4688 33.4370 13350.00 13678.80 115.54
4689 33.4420 13213.00 13525.40 114.95
4690 33.4470 13079.00 13382.60 114.36
4691 33.4520 13014.00 13250.70 114.08
4692 33.4570 12956.00 13130.10 113.82
4693 33.4620 12965.00 13021.10 113.86
4694 33.4670 12869.00 12923.90 113.44
4695 33.4720 12929.00 12838.80 113.71
4696 33.4770 12850.00 12765.70 113.36
4697 33.4820 12880.00 12704.60 113.49
4698 33.4870 12924.00 12655.80 113.68
4699 33.4920 12900.00 12619.00 113.58
4700 33.4970 12957.00 12594.20 113.83
4701 33.5020 12916.00 12581.20 113.65
4702 33.5070 12935.00 12579.90 113.73
4703 33.5120 13001.00 12590.10 114.02
4704 33.5170 13021.00 12611.50 114.11
4705 33.5220 12983.00 12643.80 113.94
4706 33.5270 13081.00 12686.70 114.37
4707 33.5320 13263.00 12739.90 115.17
4708 33.5370 13323.00 12803.00 115.43
4709 33.5420 13407.00 12875.40 115.79
4710 33.5470 13486.00 12957.00 116.13
4711 33.5520 13550.00 13047.20 116.40
4712 33.5570 13633.00 13145.40 116.76
4713 33.5620 13851.00 13251.30 117.69
4714 33.5670 14048.00 13364.20 118.52
4715 33.5720 14218.00 13483.90 119.24
4716 33.5770 14395.00 13609.40 119.98
4717 33.5820 14515.00 13740.60 120.48
4718 33.5870 14677.00 13876.70 121.15
4719 33.5920 14766.00 14017.20 121.51
4720 33.5970 14929.00 14161.40 122.18
4721 33.6020 15184.00 14309.10 123.22
4722 33.6070 15335.00 14459.40 123.83
4723 33.6120 15411.00 14611.70 124.14
4724 33.6170 15449.00 14746.40 124.29
4725 33.6220 15715.00 14901.50 125.36
4726 33.6270 15862.00 15057.10 125.94
4727 33.6320 16074.00 15212.40 126.78
4728 33.6370 16102.00 15367.10 126.89
4729 33.6420 16327.00 15520.70 127.78
4730 33.6470 16552.00 15672.40 128.65
4731 33.6520 16587.00 15821.80 128.79
4732 33.6570 16746.00 15968.60 129.41
4733 33.6620 16986.00 16111.90 130.33
4734 33.6670 17202.00 16251.30 131.16
4735 33.6720 17464.00 16386.50 132.15
4736 33.6770 17573.00 16516.70 132.56
4737 33.6820 17592.00 16641.50 132.63
4738 33.6870 17684.00 16760.20 132.98
4739 33.6920 17744.00 16872.50 133.21
4740 33.6970 17845.00 16977.90 133.59
4741 33.7020 17970.00 17075.40 134.05
4742 33.7070 17942.00 17164.70 133.95
4743 33.7120 17956.00 17245.20 134.00
4744 33.7170 18027.00 17316.00 134.26
4745 33.7220 18117.00 17376.40 134.60
4746 33.7270 18115.00 17425.80 134.59
4747 33.7320 18150.00 17463.20 134.72
4748 33.7370 18150.00 17487.80 134.72
4749 33.7420 18184.00 17498.60 134.85
4750 33.7470 18158.00 17494.60 134.75
4751 33.7520 18225.00 17474.80 135.00
4752 33.7570 18224.00 17438.20 135.00
4753 33.7620 18209.00 17383.80 134.94
4754 33.7670 18130.00 17310.30 134.65
4755 33.7720 18063.00 17217.10 134.40
4756 33.7770 17930.00 17103.10 133.90
4757 33.7820 17794.00 16967.70 133.39
4758 33.7870 17588.00 16810.30 132.62
4759 33.7920 17294.00 16630.70 131.51
4760 33.7970 17120.00 16428.80 130.84
4761 33.8020 16901.00 16204.90 130.00
4762 33.8070 16588.00 15959.60 128.79
4763 33.8120 16288.00 15694.20 127.62
4764 33.8170 15999.00 15409.40 126.49
4765 33.8220 15663.00 15107.40 125.15
4766 33.8270 15229.00 14790.00 123.41
4767 33.8320 14880.00 14458.80 121.98
4768 33.8370 14555.00 14116.70 120.64
4769 33.8420 14185.00 13765.70 119.10
4770 33.8470 13765.00 13408.20 117.32
4771 33.8520 13339.00 13046.70 115.50
4772 33.8570 12996.00 12682.90 114.00
4773 33.8620 12579.00 12319.90 112.16
4774 33.8670 12195.00 11958.70 110.43
4775 33.8720 11775.00 11601.20 108.51
4776 33.8770 11385.00 11249.20 106.70
4777 33.8820 10997.00 10904.30 104.87
4778 33.8870 10689.00 10566.90 103.39
4779 33.8920 10329.00 10238.50 101.63
4780 33.8970 9959.00 9919.93 99.79
4781 33.9020 9655.00 9611.22 98.26
4782 33.9070 9312.00 9313.44 96.50
4783 33.9120 9009.00 9026.49 94.92
4784 33.9170 8774.00 8751.16 93.67
4785 33.9220 8478.00 8486.93 92.08
4786 33.9270 8222.00 8233.81 90.68
4787 33.9320 8040.00 7992.02 89.67
4788 33.9370 7822.00 7761.33 88.44
4789 33.9420 7555.00 7540.99 86.92
4790 33.9470 7313.00 7331.12 85.52
4791 33.9520 7134.00 7131.29 84.46
4792 33.9570 6976.00 6940.62 83.52
4793 33.9620 6842.00 6759.02 82.72
4794 33.9670 6717.00 6585.70 81.96
4795 33.9720 6525.00 6420.43 80.78
4796 33.9770 6340.00 6262.29 79.62
4797 33.9820 6212.00 6110.72 78.82
4798 33.9870 6093.00 5965.44 78.06
4799 33.9920 5937.00 5825.61 77.05
4800 33.9970 5742.00 5690.73 75.78
4801 34.0020 5626.00 5560.52 75.01
4802 34.0070 5494.00 5434.60 74.12
4803 34.0120 5396.00 5312.40 73.46
4804 34.0170 5219.00 5193.94 72.24
4805 34.0220 5079.00 5079.00 71.27
4806 34.0270 4904.00 4967.53 70.03
4807 34.0320 4818.00 4859.56 69.41
4808 34.0370 4718.00 4755.09 68.69
4809 34.0420 4681.00 4654.51 68.42
4810 34.0470 4550.00 4557.78 67.45
4811 34.0520 4425.00 4465.14 66.52
4812 34.0570 4313.00 4376.93 65.67
4813 34.0620 4256.00 4293.33 65.24
4814 34.0670 4164.00 4214.56 64.53
4815 34.0720 4111.00 4140.81 64.12
4816 34.0770 4070.00 4072.27 63.80
4817 34.0820 4024.00 4009.10 63.44
4818 34.0870 3981.00 3951.43 63.10
4819 34.0920 3905.00 3899.33 62.49
4820 34.0970 3822.00 3853.00 61.82
4821 34.1020 3780.00 3812.36 61.48
4822 34.1070 3763.00 3777.55 61.34
4823 34.1120 3759.00 3748.59 61.31
4824 34.1170 3744.00 3725.43 61.19
4825 34.1220 3722.00 3708.10 61.01
4826 34.1270 3688.00 3696.57 60.73
4827 34.1320 3658.00 3690.82 60.48
4828 34.1370 3579.00 3690.77 59.82
4829 34.1420 3508.00 3696.40 59.23
4830 34.1470 3568.00 3707.62 59.73
4831 34.1520 3635.00 3724.37 60.29
4832 34.1570 3679.00 3746.60 60.65
4833 34.1620 3644.00 3774.21 60.37
4834 34.1670 3647.00 3807.09 60.39
4835 34.1720 3715.00 3845.25 60.95
4836 34.1770 3757.00 3888.54 61.29
4837 34.1820 3851.00 3936.90 62.06
4838 34.1870 3918.00 3990.26 62.59
4839 34.1920 3957.00 4048.54 62.90
4840 34.1970 3964.00 4111.72 62.96
4841 34.2020 3974.00 4179.58 63.04
4842 34.2070 4020.00 4252.18 63.40
4843 34.2120 4134.00 4329.46 64.30
4844 34.2170 4189.00 4411.23 64.72
4845 34.2220 4231.00 4497.38 65.05
4846 34.2270 4345.00 4587.99 65.92
4847 34.2320 4480.00 4682.78 66.93
4848 34.2370 4592.00 4781.58 67.76
4849 34.2420 4731.00 4884.47 68.78
4850 34.2470 4816.00 4991.05 69.40
4851 34.2520 4903.00 5101.26 70.02
4852 34.2570 4995.00 5214.62 70.68
4853 34.2620 5126.00 5331.08 71.60
4854 34.2670 5257.00 5450.30 72.51
4855 34.2720 5436.00 5571.66 73.73
4856 34.2770 5647.00 5694.95 75.15
4857 34.2820 5819.00 5819.66 76.28
4858 34.2870 5933.00 5945.04 77.03
4859 34.2920 6029.00 6070.42 77.65
4860 34.2970 6206.00 6195.29 78.78
4861 34.3020 6332.00 6318.56 79.57
4862 34.3070 6430.00 6439.44 80.19
4863 34.3120 6539.00 6556.62 80.86
4864 34.3170 6648.00 6669.15 81.54
4865 34.3220 6818.00 6775.74 82.57
4866 34.3270 6945.00 6874.76 83.34
4867 34.3320 7004.00 6964.89 83.69
4868 34.3370 7081.00 7044.50 84.15
4869 34.3420 7124.00 7111.80 84.40
4870 34.3470 7157.00 7165.13 84.60
4871 34.3520 7193.00 7202.83 84.81
4872 34.3570 7205.00 7223.35 84.88
4873 34.3620 7235.00 7225.31 85.06
4874 34.3670 7244.00 7207.67 85.11
4875 34.3720 7205.00 7169.76 84.88
4876 34.3770 7181.00 7111.34 84.74
4877 34.3820 7092.00 7032.90 84.21
4878 34.3870 6929.00 6935.12 83.24
4879 34.3920 6779.00 6819.58 82.33
4880 34.3970 6685.00 6688.18 81.76
4881 34.4020 6538.00 6542.79 80.86
4882 34.4070 6369.00 6386.07 79.81
4883 34.4120 6186.00 6220.39 78.65
4884 34.4170 6012.00 6048.10 77.54
4885 34.4220 5862.00 5871.46 76.56
4886 34.4270 5707.00 5692.48 75.54
4887 34.4320 5540.00 5512.78 74.43
4888 34.4370 5323.00 5334.24 72.96
4889 34.4420 5158.00 5157.60 71.82
4890 34.4470 5041.00 4984.21 71.00
4891 34.4520 4919.00 4814.85 70.14
4892 34.4570 4771.00 4649.77 69.07
4893 34.4620 4603.00 4489.74 67.85
4894 34.4670 4453.00 4334.96 66.73
4895 34.4720 4333.00 4193.24 65.83
4896 34.4770 4200.00 4049.47 64.81
4897 34.4820 4029.00 3911.19 63.47
4898 34.4870 3877.00 3778.65 62.27
4899 34.4920 3744.00 3651.50 61.19
4900 34.4970 3605.00 3529.63 60.04
4901 34.5020 3479.00 3413.08 58.98
4902 34.5070 3356.00 3301.65 57.93
4903 34.5120 3275.00 3194.96 57.23
4904 34.5170 3157.00 3093.03 56.19
4905 34.5220 3019.00 2995.64 54.95
4906 34.5270 2940.00 2902.40 54.22
4907 34.5320 2886.00 2813.29 53.72
4908 34.5370 2821.00 2727.99 53.11
4909 34.5420 2692.00 2646.48 51.88
4910 34.5470 2569.00 2568.39 50.69
4911 34.5520 2517.00 2493.53 50.17
4912 34.5570 2513.00 2421.85 50.13
4913 34.5620 2439.00 2353.17 49.39
4914 34.5670 2299.00 2287.19 47.95
4915 34.5720 2229.00 2223.92 47.21
4916 34.5770 2186.00 2163.21 46.75
4917 34.5820 2123.00 2104.81 46.08
4918 34.5870 2083.00 2048.74 45.64
4919 34.5920 2041.00 1994.81 45.18
4920 34.5970 1997.00 1943.04 44.69
4921 34.6020 1932.00 1893.22 43.95
4922 34.6070 1815.00 1845.28 42.60
4923 34.6120 1729.00 1799.24 41.58
4924 34.6170 1703.00 1754.93 41.27
4925 34.6220 1665.00 1693.74 40.80
4926 34.6270 1643.00 1652.89 40.53
4927 34.6320 1613.00 1578.44 40.16
4928 34.6370 1554.00 1540.87 39.42
4929 34.6420 1492.00 1504.77 38.63
4930 34.6470 1421.00 1470.08 37.70
4931 34.6520 1369.00 1436.75 37.00
4932 34.6570 1368.00 1404.74 36.99
4933 34.6620 1377.00 1373.98 37.11
4934 34.6670 1371.00 1344.49 37.03
4935 34.6720 1331.00 1316.17 36.48
4936 34.6770 1291.00 1288.97 35.93
4937 34.6820 1256.00 1262.89 35.44
4938 34.6870 1204.00 1237.87 34.70
4939 34.6920 1177.00 1213.87 34.31
4940 34.6970 1195.00 1190.86 34.57
4941 34.7020 1179.00 1168.79 34.34
4942 34.7070 1122.00 1147.62 33.50
4943 34.7120 1088.00 1127.33 32.98
4944 34.7170 1054.00 1107.86 32.47
4945 34.7220 1010.00 1089.21 31.78
4946 34.7270 998.00 1071.31 31.59
4947 34.7320 987.00 1054.15 31.42
4948 34.7370 941.00 1037.70 30.68
4949 34.7420 919.00 1021.91 30.32
4950 34.7470 913.00 1006.76 30.22
4951 34.7520 894.00 992.22 29.90
4952 34.7570 890.00 978.27 29.83
4953 34.7620 888.00 964.86 29.80
4954 34.7670 895.00 951.98 29.92
4955 34.7720 898.00 939.62 29.97
4956 34.7770 894.00 927.73 29.90
4957 34.7820 896.00 916.29 29.93
4958 34.7870 868.00 905.29 29.46
4959 34.7920 825.00 894.70 28.72
4960 34.7970 779.00 884.50 27.91
4961 34.8020 794.00 874.67 28.18
4962 34.8070 806.00 865.19 28.39
4963 34.8120 785.00 856.05 28.02
4964 34.8170 760.00 847.23 27.57
4965 34.8220 745.00 838.71 27.29
4966 34.8270 735.00 830.48 27.11
4967 34.8320 733.00 822.52 27.07
4968 34.8370 702.00 814.81 26.50
4969 34.8420 635.00 807.35 25.20
4970 34.8470 615.00 800.13 24.80
4971 34.8520 641.00 793.12 25.32
4972 34.8570 684.00 786.33 26.15
4973 34.8620 708.00 779.75 26.61
4974 34.8670 715.00 773.34 26.74
4975 34.8720 674.00 767.12 25.96
4976 34.8770 623.00 761.08 24.96
4977 34.8820 631.00 755.20 25.12
4978 34.8870 638.00 749.48 25.26
4979 34.8920 614.00 743.90 24.78
4980 34.8970 611.00 738.47 24.72
4981 34.9020 634.00 733.18 25.18
4982 34.9070 634.00 728.02 25.18
4983 34.9120 602.00 722.98 24.54
4984 34.9170 566.00 718.07 23.79
4985 34.9220 529.00 713.27 23.00
4986 34.9270 515.00 708.58 22.69
4987 34.9320 519.00 703.99 22.78
4988 34.9370 475.00 699.52 21.79
4989 34.9420 462.00 695.14 21.49
4990 34.9470 478.00 690.85 21.86
4991 34.9520 470.00 686.65 21.68
4992 34.9570 476.00 682.54 21.82
4993 34.9620 493.00 678.52 22.20
4994 34.9670 510.00 674.58 22.58
4995 34.9720 529.00 670.72 23.00
4996 34.9770 581.00 666.93 24.10
4997 34.9820 589.00 663.22 24.27
4998 34.9870 586.00 659.58 24.21
4999 34.9920 630.00 656.01 25.10
5000 34.9970 645.00 652.51 25.40
5001 35.0020 625.00 649.07 25.00
5002 35.0070 609.00 645.70 24.68
5003 35.0120 587.00 642.38 24.23
5004 35.0170 539.00 639.13 23.22
5005 35.0220 518.00 635.94 22.76
5006 35.0270 468.00 632.80 21.63
5007 35.0320 412.00 629.72 20.30
5008 35.0370 369.00 626.69 19.21
5009 35.0420 356.00 623.72 18.87
5010 35.0470 401.00 620.79 20.02
5011 35.0520 450.00 617.92 21.21
5012 35.0570 494.00 615.10 22.23
5013 35.0620 517.00 612.32 22.74
5014 35.0670 500.00 609.59 22.36
5015 35.0720 484.00 606.90 22.00
5016 35.0770 513.00 604.27 22.65
5017 35.0820 528.00 601.66 22.98
5018 35.0870 525.00 599.11 22.91
5019 35.0920 473.00 596.60 21.75
5020 35.0970 443.00 594.12 21.05
5021 35.1020 465.00 591.69 21.56
5022 35.1070 502.00 589.29 22.41
5023 35.1120 466.00 586.94 21.59
5024 35.1170 414.00 584.62 20.35
5025 35.1220 393.00 582.34 19.82
5026 35.1270 426.00 580.09 20.64
5027 35.1320 426.00 577.88 20.64
5028 35.1370 416.00 575.70 20.40
5029 35.1420 415.00 573.56 20.37
5030 35.1470 382.00 571.45 19.54
5031 35.1520 370.00 569.37 19.24
5032 35.1570 345.00 567.32 18.57
5033 35.1620 411.00 565.31 20.27
5034 35.1670 433.00 563.33 20.81
5035 35.1720 415.00 561.37 20.37
5036 35.1770 431.00 559.45 20.76
5037 35.1820 470.00 557.55 21.68
5038 35.1870 477.00 555.69 21.84
5039 35.1920 471.00 553.85 21.70
5040 35.1970 453.00 552.04 21.28
5041 35.2020 487.00 550.26 22.07
5042 35.2070 481.00 548.50 21.93
5043 35.2120 496.00 546.78 22.27
5044 35.2170 505.00 545.07 22.47
5045 35.2220 460.00 543.40 21.45
5046 35.2270 476.00 541.75 21.82
5047 35.2320 464.00 540.12 21.54
5048 35.2370 434.00 538.52 20.83
5049 35.2420 438.00 536.95 20.93
5050 35.2470 470.00 535.40 21.68
5051 35.2520 505.00 533.87 22.47
5052 35.2570 522.00 532.36 22.85
5053 35.2620 522.00 530.88 22.85
5054 35.2670 545.00 529.43 23.35
5055 35.2720 569.00 527.99 23.85
5056 35.2770 617.00 526.58 24.84
5057 35.2820 696.00 525.19 26.38
5058 35.2870 686.00 523.82 26.19
5059 35.2920 655.00 522.47 25.59
5060 35.2970 655.00 521.15 25.59
5061 35.3020 627.00 559.23 25.04
5062 35.3070 620.00 558.20 24.90
5063 35.3120 604.00 557.20 24.58
5064 35.3170 593.00 556.22 24.35
5065 35.3220 573.00 555.26 23.94
5066 35.3270 571.00 554.32 23.90
5067 35.3320 539.00 553.41 23.22
5068 35.3370 542.00 552.51 23.28
5069 35.3420 566.00 551.64 23.79
5070 35.3470 588.00 550.79 24.25
5071 35.3520 571.00 549.96 23.90
5072 35.3570 574.00 549.14 23.96
5073 35.3620 594.00 548.35 24.37
5074 35.3670 638.00 547.58 25.26
5075 35.3720 616.00 546.82 24.82
5076 35.3770 651.00 546.09 25.51
5077 35.3820 670.00 545.37 25.88
5078 35.3870 685.00 544.67 26.17
5079 35.3920 679.00 543.98 26.06
5080 35.3970 661.00 543.32 25.71
5081 35.4020 700.00 542.67 26.46
5082 35.4070 691.00 542.03 26.29
5083 35.4120 662.00 541.41 25.73
5084 35.4170 669.00 540.81 25.86
5085 35.4220 617.00 540.22 24.84
5086 35.4270 580.00 539.64 24.08
5087 35.4320 597.00 539.08 24.43
5088 35.4370 640.00 538.53 25.30
5089 35.4420 601.00 537.98 24.52
5090 35.4470 572.00 537.46 23.92
5091 35.4520 564.00 536.94 23.75
5092 35.4570 525.00 536.43 22.91
5093 35.4620 545.00 535.93 23.35
5094 35.4670 581.00 535.44 24.10
5095 35.4720 604.00 509.22 24.58
5096 35.4770 563.00 508.86 23.73
5097 35.4820 513.00 508.51 22.65
5098 35.4870 530.00 508.17 23.02
5099 35.4920 529.00 507.83 23.00
5100 35.4970 498.00 507.49 22.32
5101 35.5020 514.00 507.16 22.67
5102 35.5070 492.00 506.84 22.18
5103 35.5120 491.00 506.52 22.16
5104 35.5170 494.00 506.21 22.23
5105 35.5220 479.00 505.90 21.89
5106 35.5270 468.00 505.59 21.63
5107 35.5320 485.00 505.30 22.02
5108 35.5370 490.00 483.07 22.14
5109 35.5420 474.00 482.90 21.77
5110 35.5470 446.00 482.75 21.12
5111 35.5520 430.00 482.60 20.74
5112 35.5570 443.00 482.46 21.05
5113 35.5620 521.00 479.35 22.83
5114 35.5670 477.00 479.24 21.84
5115 35.5720 467.00 479.15 21.61
5116 35.5770 510.00 479.07 22.58
5117 35.5820 536.00 478.99 23.15
5118 35.5870 470.00 478.93 21.68
5119 35.5920 469.00 478.88 21.66
5120 35.5970 462.00 478.85 21.49
5121 35.6020 480.00 478.83 21.91
5122 35.6070 479.00 478.82 21.89
5123 35.6120 492.00 478.82 22.18
5124 35.6170 496.00 478.85 22.27
5125 35.6220 487.00 478.88 22.07
5126 35.6270 455.00 478.93 21.33
5127 35.6320 502.00 479.00 22.41
5128 35.6370 511.00 479.08 22.61
5129 35.6420 545.00 479.18 23.35
5130 35.6470 496.00 479.30 22.27
5131 35.6520 484.00 479.43 22.00
5132 35.6570 443.00 479.58 21.05
5133 35.6620 461.00 479.75 21.47
5134 35.6670 539.00 479.93 23.22
5135 35.6720 546.00 480.14 23.37
5136 35.6770 522.00 480.36 22.85
5137 35.6820 418.00 468.44 20.44
5138 35.6870 427.00 468.79 20.66
5139 35.6920 446.00 469.15 21.12
5140 35.6970 437.00 469.53 20.90
5141 35.7020 431.00 469.92 20.76
5142 35.7070 438.00 470.33 20.93
5143 35.7120 403.00 470.76 20.07
5144 35.7170 441.00 471.21 21.00
5145 35.7220 462.00 471.67 21.49
5146 35.7270 389.00 472.15 19.72
5147 35.7320 366.00 472.65 19.13
5148 35.7370 356.00 473.16 18.87
5149 35.7420 422.00 473.70 20.54
5150 35.7470 473.00 474.25 21.75
5151 35.7520 426.00 474.82 20.64
5152 35.7570 402.00 475.40 20.05
5153 35.7620 456.00 476.01 21.35
5154 35.7670 482.00 476.70 21.95
5155 35.7720 488.00 477.35 22.09
5156 35.7770 509.00 478.01 22.56
5157 35.7820 551.00 478.69 23.47
5158 35.7870 507.00 479.39 22.52
5159 35.7920 478.00 480.10 21.86
5160 35.7970 477.00 480.84 21.84
5161 35.8020 482.00 481.60 21.95
5162 35.8070 495.00 482.38 22.25
5163 35.8120 528.00 483.17 22.98
5164 35.8170 542.00 483.99 23.28
5165 35.8220 555.00 484.83 23.56
5166 35.8270 546.00 485.70 23.37
5167 35.8320 578.00 486.58 24.04
5168 35.8370 565.00 487.49 23.77
5169 35.8420 572.00 488.42 23.92
5170 35.8470 610.00 489.37 24.70
5171 35.8520 568.00 490.35 23.83
5172 35.8570 561.00 491.35 23.69
5173 35.8620 551.00 492.38 23.47
5174 35.8670 569.00 493.43 23.85
5175 35.8720 591.00 494.51 24.31
5176 35.8770 622.00 495.62 24.94
5177 35.8820 643.00 496.75 25.36
5178 35.8870 622.00 497.92 24.94
5179 35.8920 598.00 499.11 24.45
5180 35.8970 566.00 500.34 23.79
5181 35.9020 510.00 501.60 22.58
5182 35.9070 542.00 502.89 23.28
5183 35.9120 544.00 504.22 23.32
5184 35.9170 551.00 505.58 23.47
5185 35.9220 542.00 506.98 23.28
5186 35.9270 566.00 508.42 23.79
5187 35.9320 570.00 509.90 23.87
5188 35.9370 550.00 511.42 23.45
5189 35.9420 553.00 512.98 23.52
5190 35.9470 563.00 514.59 23.73
5191 35.9520 560.00 516.24 23.66
5192 35.9570 544.00 517.95 23.32
5193 35.9620 534.00 519.71 23.11
5194 35.9670 579.00 521.52 24.06
5195 35.9720 599.00 523.38 24.47
5196 35.9770 633.00 525.30 25.16
5197 35.9820 658.00 527.29 25.65
5198 35.9870 694.00 529.33 26.34
5199 35.9920 720.00 531.45 26.83
5200 35.9970 701.00 535.77 26.48
5201 36.0020 625.00 538.03 25.00
5202 36.0070 618.00 540.37 24.86
5203 36.0120 657.00 542.79 25.63
5204 36.0170 653.00 545.29 25.55
5205 36.0220 620.00 547.87 24.90
5206 36.0270 643.00 550.54 25.36
5207 36.0320 672.00 553.31 25.92
5208 36.0370 680.00 556.17 26.08
5209 36.0420 693.00 559.13 26.32
5210 36.0470 738.00 562.19 27.17
5211 36.0520 748.00 565.36 27.35
5212 36.0570 767.00 568.64 27.69
5213 36.0620 775.00 572.04 27.84
5214 36.0670 802.00 575.55 28.32
5215 36.0720 787.00 579.19 28.05
5216 36.0770 846.00 582.94 29.09
5217 36.0820 887.00 586.83 29.78
5218 36.0870 874.00 590.85 29.56
5219 36.0920 852.00 595.01 29.19
5220 36.0970 861.00 599.30 29.34
5221 36.1020 853.00 603.74 29.21
5222 36.1070 870.00 608.31 29.50
5223 36.1120 894.00 613.03 29.90
5224 36.1170 882.00 617.90 29.70
5225 36.1220 888.00 622.92 29.80
5226 36.1270 899.00 628.08 29.98
5227 36.1320 895.00 633.39 29.92
5228 36.1370 872.00 638.85 29.53
5229 36.1420 870.00 644.47 29.50
5230 36.1470 896.00 650.22 29.93
5231 36.1520 895.00 679.89 29.92
5232 36.1570 914.00 686.10 30.23
5233 36.1620 962.00 692.45 31.02
5234 36.1670 996.00 698.95 31.56
5235 36.1720 1000.00 705.57 31.62
5236 36.1770 1029.00 712.33 32.08
5237 36.1820 1000.00 719.22 31.62
5238 36.1870 941.00 726.23 30.68
5239 36.1920 942.00 733.34 30.69
5240 36.1970 987.00 740.57 31.42
5241 36.2020 974.00 747.89 31.21
5242 36.2070 932.00 755.30 30.53
5243 36.2120 920.00 762.79 30.33
5244 36.2170 928.00 770.34 30.46
5245 36.2220 916.00 777.95 30.27
5246 36.2270 913.00 785.59 30.22
5247 36.2320 947.00 793.27 30.77
5248 36.2370 962.00 800.96 31.02
5249 36.2420 959.00 808.65 30.97
5250 36.2470 954.00 816.33 30.89
5251 36.2520 901.00 823.97 30.02
5252 36.2570 912.00 831.56 30.20
5253 36.2620 913.00 839.09 30.22
5254 36.2670 949.00 846.54 30.81
5255 36.2720 961.00 853.82 31.00
5256 36.2770 960.00 861.06 30.98
5257 36.2820 936.00 868.16 30.59
5258 36.2870 954.00 875.13 30.89
5259 36.2920 947.00 881.94 30.77
5260 36.2970 934.00 888.59 30.56
5261 36.3020 901.00 895.08 30.02
5262 36.3070 866.00 901.40 29.43
5263 36.3120 835.00 907.55 28.90
5264 36.3170 826.00 913.56 28.74
5265 36.3220 821.00 919.79 28.65
5266 36.3270 834.00 925.51 28.88
5267 36.3320 859.00 931.14 29.31
5268 36.3370 868.00 936.67 29.46
5269 36.3420 872.00 942.17 29.53
5270 36.3470 898.00 947.64 29.97
5271 36.3520 900.00 953.13 30.00
5272 36.3570 863.00 958.69 29.38
5273 36.3620 830.00 964.35 28.81
5274 36.3670 853.00 970.15 29.21
5275 36.3720 880.00 976.15 29.66
5276 36.3770 883.00 982.37 29.72
5277 36.3820 865.00 988.87 29.41
5278 36.3870 843.00 995.69 29.03
5279 36.3920 848.00 1002.87 29.12
5280 36.3970 853.00 1010.45 29.21
5281 36.4020 870.00 1018.47 29.50
5282 36.4070 859.00 1026.98 29.31
5283 36.4120 829.00 1036.02 28.79
5284 36.4170 804.00 1045.62 28.35
5285 36.4220 816.00 1055.84 28.57
5286 36.4270 877.00 1066.72 29.61
5287 36.4320 922.00 1078.29 30.36
5288 36.4370 893.00 1090.60 29.88
5289 36.4420 888.00 1103.72 29.80
5290 36.4470 907.00 1117.68 30.12
5291 36.4520 936.00 1132.54 30.59
5292 36.4570 977.00 1148.36 31.26
5293 36.4620 1003.00 1165.20 31.67
5294 36.4670 1009.00 1183.15 31.76
5295 36.4720 1010.00 1202.23 31.78
5296 36.4770 1050.00 1222.56 32.40
5297 36.4820 1091.00 1244.23 33.03
5298 36.4870 1140.00 1267.28 33.76
5299 36.4920 1167.00 1291.87 34.16
5300 36.4970 1171.00 1318.06 34.22
5301 36.5020 1204.00 1345.97 34.70
5302 36.5070 1243.00 1375.73 35.26
5303 36.5120 1267.00 1407.46 35.59
5304 36.5170 1312.00 1441.32 36.22
5305 36.5220 1353.00 1477.43 36.78
5306 36.5270 1401.00 1515.98 37.43
5307 36.5320 1440.00 1557.15 37.95
5308 36.5370 1437.00 1601.08 37.91
5309 36.5420 1489.00 1647.96 38.59
5310 36.5470 1565.00 1698.08 39.56
5311 36.5520 1627.00 1751.58 40.34
5312 36.5570 1699.00 1808.71 41.22
5313 36.5620 1742.00 1869.73 41.74
5314 36.5670 1780.00 1934.89 42.19
5315 36.5720 1883.00 2004.47 43.39
5316 36.5770 2035.00 2078.74 45.11
5317 36.5820 2162.00 2158.01 46.50
5318 36.5870 2252.00 2242.63 47.46
5319 36.5920 2342.00 2332.81 48.39
5320 36.5970 2404.00 2428.86 49.03
5321 36.6020 2457.00 2531.31 49.57
5322 36.6070 2513.00 2640.31 50.13
5323 36.6120 2596.00 2756.17 50.95
5324 36.6170 2690.00 2879.49 51.87
5325 36.6220 2803.00 3010.35 52.94
5326 36.6270 2909.00 3149.29 53.94
5327 36.6320 3033.00 3296.33 55.07
5328 36.6370 3142.00 3452.10 56.05
5329 36.6420 3267.00 3616.92 57.16
5330 36.6470 3420.00 3790.76 58.48
5331 36.6520 3570.00 3974.24 59.75
5332 36.6570 3807.00 4167.65 61.70
5333 36.6620 4053.00 4370.96 63.66
5334 36.6670 4270.00 4584.37 65.35
5335 36.6720 4496.00 4808.53 67.05
5336 36.6770 4722.00 5043.13 68.72
5337 36.6820 4944.00 5288.60 70.31
5338 36.6870 5165.00 5544.51 71.87
5339 36.6920 5401.00 5811.39 73.49
5340 36.6970 5635.00 6089.23 75.07
5341 36.7020 5876.00 6377.33 76.66
5342 36.7070 6198.00 6676.11 78.73
5343 36.7120 6473.00 6985.34 80.46
5344 36.7170 6712.00 7304.26 81.93
5345 36.7220 6991.00 7632.42 83.61
5346 36.7270 7273.00 7969.96 85.28
5347 36.7320 7607.00 8315.55 87.22
5348 36.7370 7978.00 8668.67 89.32
5349 36.7420 8332.00 9028.41 91.28
5350 36.7470 8712.00 9393.74 93.34
5351 36.7520 9132.00 9763.75 95.56
5352 36.7570 9576.00 10136.30 97.86
5353 36.7620 9982.00 10491.70 99.91
5354 36.7670 10391.00 10866.50 101.94
5355 36.7720 10806.00 11238.90 103.95
5356 36.7770 11217.00 11608.00 105.91
5357 36.7820 11615.00 11970.80 107.77
5358 36.7870 12025.00 12325.30 109.66
5359 36.7920 12393.00 12668.90 111.32
5360 36.7970 12685.00 12999.00 112.63
5361 36.8020 12960.00 13312.50 113.84
5362 36.8070 13262.00 13606.70 115.16
5363 36.8120 13521.00 13877.90 116.28
5364 36.8170 13744.00 14123.50 117.24
5365 36.8220 13938.00 14339.60 118.06
5366 36.8270 14060.00 14523.10 118.57
5367 36.8320 14148.00 14671.10 118.94
5368 36.8370 14206.00 14780.30 119.19
5369 36.8420 14265.00 14848.00 119.44
5370 36.8470 14356.00 14872.00 119.82
5371 36.8520 14316.00 14850.50 119.65
5372 36.8570 14197.00 14782.40 119.15
5373 36.8620 14054.00 14667.50 118.55
5374 36.8670 13849.00 14506.10 117.68
5375 36.8720 13599.00 14299.60 116.61
5376 36.8770 13273.00 14050.30 115.21
5377 36.8820 12884.00 13761.30 113.51
5378 36.8870 12473.00 13435.80 111.68
5379 36.8920 12052.00 13078.40 109.78
5380 36.8970 11590.00 12693.90 107.66
5381 36.9020 11119.00 12286.10 105.45
5382 36.9070 10684.00 11860.70 103.36
5383 36.9120 10260.00 11421.90 101.29
5384 36.9170 9800.00 10975.00 98.99
5385 36.9220 9367.00 10523.20 96.78
5386 36.9270 9005.00 10070.40 94.89
5387 36.9320 8632.00 9620.53 92.91
5388 36.9370 8223.00 9176.58 90.68
5389 36.9420 7804.00 8740.18 88.34
5390 36.9470 7389.00 8314.40 85.96
5391 36.9520 7056.00 7901.00 84.00
5392 36.9570 6767.00 7500.61 82.26
5393 36.9620 6458.00 7115.21 80.36
5394 36.9670 6159.00 6745.16 78.48
5395 36.9720 5862.00 6391.85 76.56
5396 36.9770 5540.00 6054.98 74.43
5397 36.9820 5241.00 5734.81 72.39
5398 36.9870 5010.00 5432.08 70.78
5399 36.9920 4776.00 5146.08 69.11
5400 36.9970 4563.00 4876.67 67.55
5401 37.0020 4364.00 4623.91 66.06
5402 37.0070 4165.00 4387.40 64.54
5403 37.0120 3988.00 4166.20 63.15
5404 37.0170 3783.00 3960.26 61.51
5405 37.0220 3616.00 3768.86 60.13
5406 37.0270 3522.00 3591.37 59.35
5407 37.0320 3350.00 3427.15 57.88
5408 37.0370 3169.00 3275.44 56.29
5409 37.0420 3033.00 3135.87 55.07
5410 37.0470 2926.00 3007.45 54.09
5411 37.0520 2808.00 2889.53 52.99
5412 37.0570 2701.00 2781.62 51.97
5413 37.0620 2634.00 2682.96 51.32
5414 37.0670 2578.00 2592.95 50.77
5415 37.0720 2486.00 2510.97 49.86
5416 37.0770 2365.00 2436.44 48.63
5417 37.0820 2311.00 2364.50 48.07
5418 37.0870 2287.00 2303.29 47.82
5419 37.0920 2206.00 2247.94 46.97
5420 37.0970 2116.00 2198.11 46.00
5421 37.1020 2032.00 2153.28 45.08
5422 37.1070 1986.00 2113.06 44.56
5423 37.1120 1955.00 2077.19 44.22
5424 37.1170 1901.00 2045.24 43.60
5425 37.1220 1898.00 2016.97 43.57
5426 37.1270 1904.00 1992.12 43.63
5427 37.1320 1874.00 1970.42 43.29
5428 37.1370 1856.00 1951.67 43.08
5429 37.1420 1860.00 1935.68 43.13
5430 37.1470 1873.00 1922.27 43.28
5431 37.1520 1897.00 1911.29 43.55
5432 37.1570 1900.00 1902.61 43.59
5433 37.1620 1899.00 1896.11 43.58
5434 37.1670 1891.00 1891.70 43.49
5435 37.1720 1837.00 1889.27 42.86
5436 37.1770 1832.00 1888.76 42.80
5437 37.1820 1818.00 1890.09 42.64
5438 37.1870 1831.00 1893.21 42.79
5439 37.1920 1845.00 1898.07 42.95
5440 37.1970 1860.00 1904.64 43.13
5441 37.2020 1875.00 1912.86 43.30
5442 37.2070 1871.00 1922.72 43.26
5443 37.2120 1854.00 1934.20 43.06
5444 37.2170 1851.00 1947.26 43.02
5445 37.2220 1879.00 1961.90 43.35
5446 37.2270 1903.00 1978.13 43.62
5447 37.2320 1892.00 1995.91 43.50
5448 37.2370 1909.00 2015.23 43.69
5449 37.2420 1940.00 2036.13 44.05
5450 37.2470 2001.00 2058.58 44.73
5451 37.2520 2030.00 2082.61 45.06
5452 37.2570 2029.00 2108.17 45.04
5453 37.2620 2058.00 2135.32 45.37
5454 37.2670 2107.00 2164.08 45.90
5455 37.2720 2129.00 2194.40 46.14
5456 37.2770 2137.00 2226.35 46.23
5457 37.2820 2166.00 2259.96 46.54
5458 37.2870 2167.00 2295.20 46.55
5459 37.2920 2191.00 2332.09 46.81
5460 37.2970 2255.00 2370.72 47.49
5461 37.3020 2268.00 2411.06 47.62
5462 37.3070 2328.00 2453.19 48.25
5463 37.3120 2367.00 2497.04 48.65
5464 37.3170 2414.00 2542.76 49.13
5465 37.3220 2474.00 2590.37 49.74
5466 37.3270 2486.00 2639.84 49.86
5467 37.3320 2510.00 2691.30 50.10
5468 37.3370 2529.00 2744.81 50.29
5469 37.3420 2619.00 2800.35 51.18
5470 37.3470 2697.00 2858.03 51.93
5471 37.3520 2775.00 2917.90 52.68
5472 37.3570 2874.00 2980.05 53.61
5473 37.3620 2938.00 3044.54 54.20
5474 37.3670 3028.00 3111.46 55.03
5475 37.3720 3147.00 3180.89 56.10
5476 37.3770 3249.00 3252.99 57.00
5477 37.3820 3293.00 3327.69 57.38
5478 37.3870 3376.00 3405.26 58.10
5479 37.3920 3445.00 3485.81 58.69
5480 37.3970 3525.00 3569.29 59.37
5481 37.4020 3625.00 3656.05 60.21
5482 37.4070 3720.00 3746.04 60.99
5483 37.4120 3803.00 3839.46 61.67
5484 37.4170 3901.00 3936.43 62.46
5485 37.4220 4021.00 4037.11 63.41
5486 37.4270 4108.00 4141.62 64.09
5487 37.4320 4221.00 4250.18 64.97
5488 37.4370 4338.00 4362.71 65.86
5489 37.4420 4484.00 4479.66 66.96
5490 37.4470 4559.00 4600.92 67.52
5491 37.4520 4694.00 4726.62 68.51
5492 37.4570 4845.00 4857.14 69.61
5493 37.4620 4968.00 4992.34 70.48
5494 37.4670 5162.00 5132.40 71.85
5495 37.4720 5311.00 5277.43 72.88
5496 37.4770 5434.00 5427.51 73.72
5497 37.4820 5606.00 5582.81 74.87
5498 37.4870 5818.00 5743.05 76.28
5499 37.4920 5971.00 5908.59 77.27
5500 37.4970 6083.00 6079.46 77.99
5501 37.5020 6232.00 6255.39 78.94
5502 37.5070 6361.00 6436.34 79.76
5503 37.5120 6501.00 6622.62 80.63
5504 37.5170 6651.00 6813.73 81.55
5505 37.5220 6853.00 7009.52 82.78
5506 37.5270 7031.00 7210.22 83.85
5507 37.5320 7278.00 7415.17 85.31
5508 37.5370 7457.00 7624.37 86.35
5509 37.5420 7629.00 7837.05 87.34
5510 37.5470 7905.00 8053.25 88.91
5511 37.5520 8120.00 8272.48 90.11
5512 37.5570 8348.00 8493.92 91.37
5513 37.5620 8609.00 8716.94 92.78
5514 37.5670 8789.00 8941.30 93.75
5515 37.5720 9055.00 9165.76 95.16
5516 37.5770 9247.00 9389.45 96.16
5517 37.5820 9450.00 9611.85 97.21
5518 37.5870 9652.00 9831.45 98.24
5519 37.5920 9834.00 10047.40 99.17
5520 37.5970 10014.00 10257.90 100.07
5521 37.6020 10213.00 10462.10 101.06
5522 37.6070 10406.00 10658.40 102.01
5523 37.6120 10506.00 10844.80 102.50
5524 37.6170 10668.00 11020.10 103.29
5525 37.6220 10805.00 11182.30 103.95
5526 37.6270 10937.00 11329.30 104.58
5527 37.6320 11150.00 11459.20 105.59
5528 37.6370 11275.00 11570.20 106.18
5529 37.6420 11351.00 11660.10 106.54
5530 37.6470 11495.00 11726.80 107.21
5531 37.6520 11573.00 11768.50 107.58
5532 37.6570 11599.00 11785.20 107.70
5533 37.6620 11605.00 11771.80 107.73
5534 37.6670 11612.00 11729.00 107.76
5535 37.6720 11539.00 11655.90 107.42
5536 37.6770 11510.00 11552.10 107.29
5537 37.6820 11384.00 11418.00 106.70
5538 37.6870 11145.00 11254.20 105.57
5539 37.6920 10865.00 11062.30 104.24
5540 37.6970 10563.00 10843.90 102.78
5541 37.7020 10400.00 10601.50 101.98
5542 37.7070 10137.00 10337.70 100.68
5543 37.7120 9771.00 10055.60 98.85
5544 37.7170 9403.00 9758.15 96.97
5545 37.7220 9144.00 9449.09 95.62
5546 37.7270 8831.00 9130.76 93.97
5547 37.7320 8483.00 8806.80 92.10
5548 37.7370 8092.00 8480.02 89.96
5549 37.7420 7783.00 8152.31 88.22
5550 37.7470 7512.00 7826.61 86.67
5551 37.7520 7221.00 7504.71 84.98
5552 37.7570 6871.00 7188.32 82.89
5553 37.7620 6549.00 6878.90 80.93
5554 37.7670 6257.00 6577.67 79.10
5555 37.7720 5914.00 6285.62 76.90
5556 37.7770 5641.00 6003.53 75.11
5557 37.7820 5372.00 5731.83 73.29
5558 37.7870 5165.00 5471.33 71.87
5559 37.7920 4912.00 5222.30 70.09
5560 37.7970 4605.00 4984.44 67.86
5561 37.8020 4479.00 4758.29 66.93
5562 37.8070 4287.00 4543.69 65.48
5563 37.8120 4120.00 4340.51 64.19
5564 37.8170 3868.00 4148.57 62.19
5565 37.8220 3729.00 3967.52 61.07
5566 37.8270 3589.00 3797.44 59.91
5567 37.8320 3428.00 3637.61 58.55
5568 37.8370 3318.00 3487.72 57.60
5569 37.8420 3243.00 3347.56 56.95
5570 37.8470 3167.00 3216.71 56.28
5571 37.8520 3081.00 3094.49 55.51
5572 37.8570 3003.00 2980.73 54.80
5573 37.8620 2839.00 2874.99 53.28
5574 37.8670 2782.00 2776.62 52.74
5575 37.8720 2701.00 2685.41 51.97
5576 37.8770 2647.00 2600.83 51.45
5577 37.8820 2536.00 2522.65 50.36
5578 37.8870 2492.00 2450.32 49.92
5579 37.8920 2432.00 2383.47 49.32
5580 37.8970 2416.00 2321.90 49.15
5581 37.9020 2355.00 2265.13 48.53
5582 37.9070 2214.00 2212.87 47.05
5583 37.9120 2154.00 2164.90 46.41
5584 37.9170 2232.00 2120.94 47.24
5585 37.9220 2184.00 2080.63 46.73
5586 37.9270 2107.00 2043.84 45.90
5587 37.9320 2093.00 2010.28 45.75
5588 37.9370 2000.00 1979.82 44.72
5589 37.9420 1981.00 1952.21 44.51
5590 37.9470 2000.00 1927.26 44.72
5591 37.9520 2024.00 1904.87 44.99
5592 37.9570 2025.00 1884.83 45.00
5593 37.9620 1988.00 1867.00 44.59
5594 37.9670 1933.00 1851.26 43.97
5595 37.9720 1941.00 1837.49 44.06
5596 37.9770 1979.00 1825.54 44.49
5597 37.9820 1910.00 1815.32 43.70
5598 37.9870 1929.00 1806.70 43.92
5599 37.9920 1948.00 1799.57 44.14
5600 37.9970 1913.00 1793.83 43.74
5601 38.0020 1901.00 1789.37 43.60
5602 38.0070 1909.00 1786.09 43.69
5603 38.0120 1887.00 1783.88 43.44
5604 38.0170 1894.00 1782.65 43.52
5605 38.0220 1849.00 1782.29 43.00
5606 38.0270 1863.00 1782.69 43.16
5607 38.0320 1820.00 1783.76 42.66
5608 38.0370 1800.00 1785.38 42.43
5609 38.0420 1807.00 1787.44 42.51
5610 38.0470 1854.00 1789.85 43.06
5611 38.0520 1890.00 1792.48 43.47
5612 38.0570 1963.00 1795.23 44.31
5613 38.0620 1958.00 1797.98 44.25
5614 38.0670 1985.00 1800.62 44.55
5615 38.0720 2006.00 1803.03 44.79
5616 38.0770 2007.00 1805.09 44.80
5617 38.0820 1955.00 1806.68 44.22
5618 38.0870 1901.00 1807.70 43.60
5619 38.0920 1935.00 1808.02 43.99
5620 38.0970 1903.00 1807.54 43.62
5621 38.1020 1903.00 1806.13 43.62
5622 38.1070 1906.00 1803.71 43.66
5623 38.1120 1915.00 1800.17 43.76
5624 38.1170 1853.00 1795.42 43.05
5625 38.1220 1849.00 1789.38 43.00
5626 38.1270 1897.00 1781.99 43.55
5627 38.1320 1862.00 1773.20 43.15
5628 38.1370 1856.00 1762.94 43.08
5629 38.1420 1872.00 1751.21 43.27
5630 38.1470 1833.00 1738.01 42.81
5631 38.1520 1816.00 1723.30 42.61
5632 38.1570 1823.00 1707.16 42.70
5633 38.1620 1813.00 1689.59 42.58
5634 38.1670 1821.00 1670.69 42.67
5635 38.1720 1784.00 1650.50 42.24
5636 38.1770 1748.00 1629.10 41.81
5637 38.1820 1700.00 1606.61 41.23
5638 38.1870 1683.00 1583.15 41.02
5639 38.1920 1607.00 1558.77 40.09
5640 38.1970 1546.00 1533.32 39.32
5641 38.2020 1549.00 1507.57 39.36
5642 38.2070 1568.00 1481.25 39.60
5643 38.2120 1524.00 1454.53 39.04
5644 38.2170 1509.00 1427.50 38.85
5645 38.2220 1501.00 1400.31 38.74
5646 38.2270 1416.00 1373.02 37.63
5647 38.2320 1384.00 1345.71 37.20
5648 38.2370 1372.00 1318.53 37.04
5649 38.2420 1349.00 1291.52 36.73
5650 38.2470 1327.00 1264.73 36.43
5651 38.2520 1288.00 1238.29 35.89
5652 38.2570 1229.00 1212.23 35.06
5653 38.2620 1228.00 1186.60 35.04
5654 38.2670 1198.00 1161.45 34.61
5655 38.2720 1145.00 1136.82 33.84
5656 38.2770 1126.00 1112.76 33.56
5657 38.2820 1093.00 1089.28 33.06
5658 38.2870 1084.00 1066.40 32.92
5659 38.2920 1042.00 1044.19 32.28
5660 38.2970 1006.00 1022.61 31.72
5661 38.3020 997.00 1001.68 31.58
5662 38.3070 1025.00 981.44 32.02
5663 38.3120 1030.00 961.88 32.09
5664 38.3170 1023.00 943.00 31.98
5665 38.3220 944.00 924.80 30.72
5666 38.3270 882.00 907.27 29.70
5667 38.3320 855.00 890.41 29.24
5668 38.3370 863.00 874.22 29.38
5669 38.3420 817.00 858.67 28.58
5670 38.3470 812.00 846.68 28.50
5671 38.3520 854.00 832.43 29.22
5672 38.3570 864.00 818.80 29.39
5673 38.3620 825.00 805.78 28.72
5674 38.3670 813.00 793.32 28.51
5675 38.3720 761.00 781.43 27.59
5676 38.3770 710.00 770.09 26.65
5677 38.3820 754.00 759.27 27.46
5678 38.3870 779.00 748.96 27.91
5679 38.3920 722.00 739.13 26.87
5680 38.3970 707.00 729.78 26.59
5681 38.4020 699.00 720.87 26.44
5682 38.4070 698.00 712.38 26.42
5683 38.4120 675.00 704.30 25.98
5684 38.4170 667.00 696.62 25.83
5685 38.4220 679.00 689.30 26.06
5686 38.4270 695.00 682.33 26.36
5687 38.4320 651.00 675.69 25.51
5688 38.4370 670.00 669.38 25.88
5689 38.4420 647.00 663.36 25.44
5690 38.4470 672.00 657.61 25.92
5691 38.4520 657.00 616.81 25.63
5692 38.4570 652.00 611.80 25.53
5693 38.4620 691.00 607.03 26.29
5694 38.4670 724.00 602.48 26.91
5695 38.4720 713.00 598.14 26.70
5696 38.4770 745.00 593.99 27.29
5697 38.4820 759.00 590.03 27.55
5698 38.4870 753.00 586.24 27.44
5699 38.4920 723.00 582.61 26.89
5700 38.4970 666.00 579.14 25.81
5701 38.5020 605.00 575.81 24.60
5702 38.5070 567.00 572.61 23.81
5703 38.5120 576.00 569.55 24.00
5704 38.5170 615.00 566.59 24.80
5705 38.5220 618.00 563.76 24.86
5706 38.5270 616.00 561.03 24.82
5707 38.5320 611.00 558.40 24.72
5708 38.5370 618.00 555.87 24.86
5709 38.5420 626.00 553.43 25.02
5710 38.5470 623.00 551.07 24.96
5711 38.5520 596.00 548.80 24.41
5712 38.5570 573.00 546.60 23.94
5713 38.5620 612.00 544.48 24.74
5714 38.5670 616.00 542.42 24.82
5715 38.5720 608.00 540.44 24.66
5716 38.5770 593.00 538.52 24.35
5717 38.5820 565.00 536.66 23.77
5718 38.5870 553.00 534.86 23.52
5719 38.5920 558.00 533.12 23.62
5720 38.5970 550.00 531.43 23.45
5721 38.6020 567.00 529.80 23.81
5722 38.6070 567.00 528.22 23.81
5723 38.6120 568.00 526.69 23.83
5724 38.6170 535.00 525.22 23.13
5725 38.6220 552.00 523.78 23.49
5726 38.6270 560.00 522.40 23.66
5727 38.6320 571.00 521.07 23.90
5728 38.6370 586.00 519.77 24.21
5729 38.6420 603.00 518.53 24.56
5730 38.6470 614.00 517.33 24.78
5731 38.6520 618.00 516.17 24.86
5732 38.6570 585.00 515.05 24.19
5733 38.6620 557.00 513.98 23.60
5734 38.6670 595.00 512.95 24.39
5735 38.6720 631.00 511.96 25.12
5736 38.6770 612.00 511.02 24.74
5737 38.6820 609.00 510.11 24.68
5738 38.6870 630.00 509.25 25.10
5739 38.6920 632.00 508.43 25.14
5740 38.6970 627.00 507.65 25.04
5741 38.7020 625.00 506.92 25.00
5742 38.7070 617.00 506.23 24.84
5743 38.7120 579.00 505.58 24.06
5744 38.7170 540.00 504.97 23.24
5745 38.7220 534.00 504.41 23.11
5746 38.7270 562.00 503.89 23.71
5747 38.7320 548.00 503.41 23.41
5748 38.7370 501.00 502.98 22.38
5749 38.7420 490.00 502.60 22.14
5750 38.7470 532.00 502.27 23.07
5751 38.7520 562.00 502.04 23.71
5752 38.7570 552.00 501.80 23.49
5753 38.7620 551.00 501.61 23.47
5754 38.7670 577.00 501.47 24.02
5755 38.7720 576.00 501.38 24.00
5756 38.7770 563.00 501.34 23.73
5757 38.7820 497.00 501.36 22.29
5758 38.7870 462.00 501.43 21.49
5759 38.7920 499.00 501.56 22.34
5760 38.7970 548.00 501.74 23.41
5761 38.8020 548.00 501.98 23.41
5762 38.8070 538.00 502.28 23.19
5763 38.8120 526.00 502.64 22.93
5764 38.8170 539.00 503.07 23.22
5765 38.8220 575.00 503.56 23.98
5766 38.8270 585.00 504.11 24.19
5767 38.8320 558.00 504.73 23.62
5768 38.8370 547.00 505.42 23.39
5769 38.8420 539.00 506.18 23.22
5770 38.8470 511.00 507.01 22.61
5771 38.8520 473.00 507.91 21.75
5772 38.8570 498.00 508.88 22.32
5773 38.8620 550.00 509.93 23.45
5774 38.8670 595.00 511.06 24.39
5775 38.8720 625.00 512.26 25.00
5776 38.8770 649.00 513.55 25.48
5777 38.8820 647.00 514.91 25.44
5778 38.8870 614.00 516.36 24.78
5779 38.8920 574.00 517.89 23.96
5780 38.8970 581.00 519.51 24.10
5781 38.9020 620.00 521.21 24.90
5782 38.9070 605.00 522.99 24.60
5783 38.9120 557.00 524.87 23.60
5784 38.9170 554.00 526.83 23.54
5785 38.9220 568.00 528.89 23.83
5786 38.9270 527.00 531.03 22.96
5787 38.9320 520.00 533.26 22.80
5788 38.9370 556.00 535.59 23.58
5789 38.9420 572.00 538.00 23.92
5790 38.9470 590.00 540.51 24.29
5791 38.9520 606.00 543.11 24.62
5792 38.9570 615.00 545.80 24.80
5793 38.9620 618.00 548.59 24.86
5794 38.9670 622.00 551.46 24.94
5795 38.9720 621.00 554.42 24.92
5796 38.9770 600.00 557.48 24.49
5797 38.9820 562.00 560.63 23.71
5798 38.9870 570.00 563.86 23.87
5799 38.9920 597.00 567.18 24.43
5800 38.9970 586.00 570.60 24.21
5801 39.0020 562.00 574.09 23.71
5802 39.0070 562.00 577.68 23.71
5803 39.0120 567.00 581.34 23.81
5804 39.0170 574.00 585.10 23.96
5805 39.0220 584.00 588.93 24.17
5806 39.0270 576.00 592.85 24.00
5807 39.0320 591.00 596.85 24.31
5808 39.0370 621.00 600.93 24.92
5809 39.0420 628.00 605.10 25.06
5810 39.0470 621.00 609.35 24.92
5811 39.0520 644.00 613.67 25.38
5812 39.0570 680.00 618.09 26.08
5813 39.0620 693.00 622.59 26.32
5814 39.0670 695.00 627.17 26.36
5815 39.0720 687.00 631.85 26.21
5816 39.0770 678.00 636.62 26.04
5817 39.0820 695.00 641.49 26.36
5818 39.0870 721.00 646.47 26.85
5819 39.0920 729.00 651.55 27.00
5820 39.0970 723.00 656.74 26.89
5821 39.1020 726.00 662.07 26.94
5822 39.1070 712.00 667.52 26.68
5823 39.1120 677.00 673.11 26.02
5824 39.1170 660.00 678.87 25.69
5825 39.1220 678.00 684.78 26.04
5826 39.1270 728.00 690.88 26.98
5827 39.1320 785.00 697.17 28.02
5828 39.1370 798.00 703.66 28.25
5829 39.1420 781.00 710.39 27.95
5830 39.1470 772.00 717.34 27.78
5831 39.1520 778.00 724.55 27.89
5832 39.1570 771.00 732.04 27.77
5833 39.1620 747.00 739.80 27.33
5834 39.1670 774.00 747.85 27.82
5835 39.1720 816.00 756.22 28.57
5836 39.1770 849.00 764.90 29.14
5837 39.1820 858.00 773.92 29.29
5838 39.1870 861.00 783.29 29.34
5839 39.1920 872.00 793.02 29.53
5840 39.1970 838.00 803.13 28.95
5841 39.2020 814.00 813.63 28.53
5842 39.2070 832.00 824.57 28.84
5843 39.2120 853.00 835.94 29.21
5844 39.2170 905.00 847.77 30.08
5845 39.2220 951.00 860.10 30.84
5846 39.2270 951.00 872.96 30.84
5847 39.2320 949.00 886.37 30.81
5848 39.2370 954.00 879.09 30.89
5849 39.2420 979.00 893.84 31.29
5850 39.2470 1037.00 909.25 32.20
5851 39.2520 1062.00 925.35 32.59
5852 39.2570 1041.00 942.13 32.26
5853 39.2620 1020.00 959.66 31.94
5854 39.2670 1016.00 977.93 31.87
5855 39.2720 1023.00 996.92 31.98
5856 39.2770 1025.00 1016.69 32.02
5857 39.2820 1029.00 1037.17 32.08
5858 39.2870 1025.00 1058.33 32.02
5859 39.2920 1039.00 1080.11 32.23
5860 39.2970 1049.00 1102.44 32.39
5861 39.3020 1086.00 1125.22 32.95
5862 39.3070 1090.00 1148.27 33.02
5863 39.3120 1052.00 1171.42 32.43
5864 39.3170 1049.00 1194.49 32.39
5865 39.3220 1045.00 1217.15 32.33
5866 39.3270 1063.00 1239.07 32.60
5867 39.3320 1091.00 1259.92 33.03
5868 39.3370 1123.00 1279.21 33.51
5869 39.3420 1125.00 1296.46 33.54
5870 39.3470 1118.00 1311.09 33.44
5871 39.3520 1127.00 1322.56 33.57
5872 39.3570 1148.00 1330.30 33.88
5873 39.3620 1141.00 1333.77 33.78
5874 39.3670 1117.00 1332.59 33.42
5875 39.3720 1085.00 1326.48 32.94
5876 39.3770 1096.00 1315.43 33.11
5877 39.3820 1113.00 1299.64 33.36
5878 39.3870 1128.00 1279.52 33.59
5879 39.3920 1129.00 1255.75 33.60
5880 39.3970 1093.00 1229.12 33.06
5881 39.4020 1048.00 1200.42 32.37
5882 39.4070 1034.00 1170.56 32.16
5883 39.4120 995.00 1140.27 31.54
5884 39.4170 970.00 1110.26 31.14
5885 39.4220 938.00 1081.01 30.63
5886 39.4270 930.00 1052.89 30.50
5887 39.4320 983.00 1026.23 31.35
5888 39.4370 977.00 1001.20 31.26
5889 39.4420 972.00 977.84 31.18
5890 39.4470 972.00 956.21 31.18
5891 39.4520 945.00 936.28 30.74
5892 39.4570 901.00 917.98 30.02
5893 39.4620 924.00 901.24 30.40
5894 39.4670 963.00 886.29 31.03
5895 39.4720 963.00 872.36 31.03
5896 39.4770 960.00 859.65 30.98
5897 39.4820 954.00 848.11 30.89
5898 39.4870 942.00 837.52 30.69
5899 39.4920 924.00 827.79 30.40
5900 39.4970 906.00 818.84 30.10
5901 39.5020 902.00 810.58 30.03
5902 39.5070 906.00 802.90 30.10
5903 39.5120 877.00 795.72 29.61
5904 39.5170 850.00 788.97 29.15
5905 39.5220 857.00 782.58 29.27
5906 39.5270 833.00 776.49 28.86
5907 39.5320 832.00 770.67 28.84
5908 39.5370 830.00 765.06 28.81
5909 39.5420 836.00 759.64 28.91
5910 39.5470 834.00 754.38 28.88
5911 39.5520 844.00 749.27 29.05
5912 39.5570 833.00 744.30 28.86
5913 39.5620 797.00 739.47 28.23
5914 39.5670 774.00 734.77 27.82
5915 39.5720 776.00 730.20 27.86
5916 39.5770 756.00 725.78 27.50
5917 39.5820 750.00 721.51 27.39
5918 39.5870 752.00 717.41 27.42
5919 39.5920 729.00 713.50 27.00
5920 39.5970 714.00 709.79 26.72
5921 39.6020 688.00 706.29 26.23
5922 39.6070 650.00 703.02 25.50
5923 39.6120 606.00 700.00 24.62
5924 39.6170 629.00 697.24 25.08
5925 39.6220 638.00 694.77 25.26
5926 39.6270 612.00 692.60 24.74
5927 39.6320 627.00 690.74 25.04
5928 39.6370 648.00 689.21 25.46
5929 39.6420 636.00 688.03 25.22
5930 39.6470 631.00 687.20 25.12
5931 39.6520 672.00 686.75 25.92
5932 39.6570 685.00 686.68 26.17
5933 39.6620 685.00 687.01 26.17
5934 39.6670 664.00 687.74 25.77
5935 39.6720 697.00 688.90 26.40
5936 39.6770 703.00 690.47 26.51
5937 39.6820 706.00 692.49 26.57
5938 39.6870 685.00 694.94 26.17
5939 39.6920 691.00 697.84 26.29
5940 39.6970 716.00 701.19 26.76
5941 39.7020 699.00 705.00 26.44
5942 39.7070 698.00 709.27 26.42
5943 39.7120 646.00 714.00 25.42
5944 39.7170 635.00 719.19 25.20
5945 39.7220 662.00 724.84 25.73
5946 39.7270 702.00 730.95 26.50
5947 39.7320 744.00 737.51 27.28
5948 39.7370 702.00 744.53 26.50
5949 39.7420 729.00 751.98 27.00
5950 39.7470 750.00 759.88 27.39
5951 39.7520 739.00 768.20 27.18
5952 39.7570 771.00 776.93 27.77
5953 39.7620 810.00 786.07 28.46
5954 39.7670 857.00 795.60 29.27
5955 39.7720 858.00 805.49 29.29
5956 39.7770 871.00 815.74 29.51
5957 39.7820 883.00 826.33 29.72
5958 39.7870 849.00 837.23 29.14
5959 39.7920 824.00 848.42 28.71
5960 39.7970 816.00 859.88 28.57
5961 39.8020 819.00 871.57 28.62
5962 39.8070 845.00 883.47 29.07
5963 39.8120 851.00 895.54 29.17
5964 39.8170 852.00 907.76 29.19
5965 39.8220 896.00 920.10 29.93
5966 39.8270 907.00 932.50 30.12
5967 39.8320 900.00 944.94 30.00
5968 39.8370 883.00 957.38 29.72
5969 39.8420 908.00 969.77 30.13
5970 39.8470 938.00 982.07 30.63
5971 39.8520 908.00 994.23 30.13
5972 39.8570 928.00 1006.23 30.46
5973 39.8620 955.00 1018.00 30.90
5974 39.8670 1000.00 1029.50 31.62
5975 39.8720 1034.00 1040.71 32.16
5976 39.8770 1051.00 1051.55 32.42
5977 39.8820 1059.00 1061.99 32.54
5978 39.8870 1088.00 1072.00 32.98
5979 39.8920 1084.00 1081.52 32.92
5980 39.8970 1064.00 1090.52 32.62
5981 39.9020 1051.00 1098.98 32.42
5982 39.9070 1048.00 1106.84 32.37
5983 39.9120 1063.00 1114.09 32.60
5984 39.9170 1056.00 1120.68 32.50
5985 39.9220 1071.00 1126.60 32.73
5986 39.9270 1106.00 1131.77 33.26
5987 39.9320 1115.00 1136.28 33.39
5988 39.9370 1121.00 1140.05 33.48
5989 39.9420 1114.00 1143.08 33.38
5990 39.9470 1076.00 1145.35 32.80
5991 39.9520 1081.00 1146.85 32.88
5992 39.9570 1078.00 1147.57 32.83
5993 39.9620 1100.00 1147.50 33.17
5994 39.9670 1100.00 1146.64 33.17
5995 39.9720 1081.00 1144.98 32.88
5996 39.9770 1100.00 1142.53 33.17
5997 39.9820 1077.00 1139.28 32.82
5998 39.9870 1080.00 1135.24 32.86
5999 39.9920 1092.00 1130.42 33.05
6000 39.9970 1049.00 1124.82 32.39
6001 40.0020 1065.00 1118.46 32.63
6002 40.0070 1051.00 1111.36 32.42
6003 40.0120 1016.00 1103.53 31.87
6004 40.0170 984.00 1095.00 31.37
6005 40.0220 962.00 1085.80 31.02
6006 40.0270 972.00 1075.95 31.18
6007 40.0320 950.00 1065.50 30.82
6008 40.0370 919.00 1054.48 30.32
6009 40.0420 872.00 1042.94 29.53
6010 40.0470 896.00 1030.91 29.93
6011 40.0520 850.00 1018.43 29.15
6012 40.0570 863.00 1005.57 29.38
6013 40.0620 858.00 992.37 29.29
6014 40.0670 853.00 978.86 29.21
6015 40.0720 866.00 965.12 29.43
6016 40.0770 866.00 951.17 29.43
6017 40.0820 877.00 937.08 29.61
6018 40.0870 818.00 922.88 28.60
6019 40.0920 777.00 908.60 27.87
6020 40.0970 815.00 894.36 28.55
6021 40.1020 789.00 880.09 28.09
6022 40.1070 738.00 865.86 27.17
6023 40.1120 707.00 851.74 26.59
6024 40.1170 723.00 837.72 26.89
6025 40.1220 705.00 823.86 26.55
6026 40.1270 670.00 810.17 25.88
6027 40.1320 645.00 796.68 25.40
6028 40.1370 641.00 783.42 25.32
6029 40.1420 611.00 770.39 24.72
6030 40.1470 607.00 757.62 24.64
6031 40.1520 646.00 745.12 25.42
6032 40.1570 657.00 732.90 25.63
6033 40.1620 677.00 720.98 26.02
6034 40.1670 661.00 709.38 25.71
6035 40.1720 588.00 698.07 24.25
6036 40.1770 576.00 687.09 24.00
6037 40.1820 584.00 676.44 24.17
6038 40.1870 585.00 666.11 24.19
6039 40.1920 550.00 656.12 23.45
6040 40.1970 545.00 646.46 23.35
6041 40.2020 557.00 637.13 23.60
6042 40.2070 541.00 628.14 23.26
6043 40.2120 543.00 619.47 23.30
6044 40.2170 554.00 611.13 23.54
6045 40.2220 543.00 603.12 23.30
6046 40.2270 514.00 595.43 22.67
6047 40.2320 497.00 588.06 22.29
6048 40.2370 482.00 581.01 21.95
6049 40.2420 464.00 574.26 21.54
6050 40.2470 454.00 567.81 21.31
6051 40.2520 466.00 561.66 21.59
6052 40.2570 456.00 555.80 21.35
6053 40.2620 459.00 550.22 21.42
6054 40.2670 507.00 544.92 22.52
6055 40.2720 494.00 539.89 22.23
6056 40.2770 492.00 535.12 22.18
6057 40.2820 484.00 530.60 22.00
6058 40.2870 510.00 526.34 22.58
6059 40.2920 497.00 522.31 22.29
6060 40.2970 478.00 518.51 21.86
6061 40.3020 469.00 514.93 21.66
6062 40.3070 467.00 511.57 21.61
6063 40.3120 477.00 508.42 21.84
6064 40.3170 457.00 505.46 21.38
6065 40.3220 432.00 502.70 20.78
6066 40.3270 450.00 500.12 21.21
6067 40.3320 461.00 495.73 21.47
6068 40.3370 456.00 493.50 21.35
6069 40.3420 485.00 491.43 22.02
6070 40.3470 496.00 489.51 22.27
6071 40.3520 511.00 487.73 22.61
6072 40.3570 509.00 486.08 22.56
6073 40.3620 494.00 484.57 22.23
6074 40.3670 514.00 483.17 22.67
6075 40.3720 501.00 481.89 22.38
6076 40.3770 498.00 480.71 22.32
6077 40.3820 471.00 479.62 21.70
6078 40.3870 484.00 478.63 22.00
6079 40.3920 444.00 477.71 21.07
6080 40.3970 391.00 481.18 19.77
6081 40.4020 381.00 480.41 19.52
6082 40.4070 413.00 479.71 20.32
6083 40.4120 434.00 479.05 20.83
6084 40.4170 406.00 478.44 20.15
6085 40.4220 400.00 475.37 20.00
6086 40.4270 419.00 474.85 20.47
6087 40.4320 438.00 474.34 20.93
6088 40.4370 463.00 473.84 21.52
6089 40.4420 435.00 473.35 20.86
6090 40.4470 416.00 472.85 20.40
6091 40.4520 445.00 472.34 21.09
6092 40.4570 445.00 471.82 21.09
6093 40.4620 439.00 471.27 20.95
6094 40.4670 447.00 470.69 21.14
6095 40.4720 475.00 470.07 21.79
6096 40.4770 470.00 469.42 21.68
6097 40.4820 460.00 468.72 21.45
6098 40.4870 471.00 467.98 21.70
6099 40.4920 456.00 467.20 21.35
6100 40.4970 439.00 466.36 20.95
6101 40.5020 452.00 465.48 21.26
6102 40.5070 455.00 464.56 21.33
6103 40.5120 444.00 463.60 21.07
6104 40.5170 461.00 462.60 21.47
6105 40.5220 450.00 461.57 21.21
6106 40.5270 414.00 460.51 20.35
6107 40.5320 392.00 459.44 19.80
6108 40.5370 388.00 458.34 19.70
6109 40.5420 409.00 457.24 20.22
6110 40.5470 437.00 456.14 20.90
6111 40.5520 478.00 455.04 21.86
6112 40.5570 476.00 453.94 21.82
6113 40.5620 485.00 452.86 22.02
6114 40.5670 448.00 451.78 21.17
6115 40.5720 431.00 450.73 20.76
6116 40.5770 456.00 449.70 21.35
6117 40.5820 489.00 448.70 22.11
6118 40.5870 516.00 447.72 22.72
6119 40.5920 513.00 446.77 22.65
6120 40.5970 509.00 445.85 22.56
6121 40.6020 491.00 444.96 22.16
6122 40.6070 454.00 444.10 21.31
6123 40.6120 431.00 443.27 20.76
6124 40.6170 441.00 442.48 21.00
6125 40.6220 431.00 441.72 20.76
6126 40.6270 434.00 440.99 20.83
6127 40.6320 427.00 440.30 20.66
6128 40.6370 385.00 439.63 19.62
6129 40.6420 400.00 439.00 20.00
6130 40.6470 435.00 438.40 20.86
6131 40.6520 432.00 437.83 20.78
6132 40.6570 436.00 437.29 20.88
6133 40.6620 465.00 436.78 21.56
6134 40.6670 506.00 436.30 22.49
6135 40.6720 501.00 435.84 22.38
6136 40.6770 452.00 435.41 21.26
6137 40.6820 433.00 435.00 20.81
6138 40.6870 447.00 434.62 21.14
6139 40.6920 438.00 434.26 20.93
6140 40.6970 443.00 433.92 21.05
6141 40.7020 422.00 433.60 20.54
6142 40.7070 387.00 433.30 19.67
6143 40.7120 371.00 433.02 19.26
6144 40.7170 383.00 432.76 19.57
6145 40.7220 389.00 432.51 19.72
6146 40.7270 410.00 432.28 20.25
6147 40.7320 465.00 432.06 21.56
6148 40.7370 496.00 431.86 22.27
6149 40.7420 476.00 431.67 21.82
6150 40.7470 450.00 431.50 21.21
6151 40.7520 442.00 431.33 21.02
6152 40.7570 426.00 431.18 20.64
6153 40.7620 448.00 431.04 21.17
6154 40.7670 483.00 430.91 21.98
6155 40.7720 504.00 430.79 22.45
6156 40.7770 489.00 430.67 22.11
6157 40.7820 462.00 430.57 21.49
6158 40.7870 465.00 430.47 21.56
6159 40.7920 432.00 430.38 20.78
6160 40.7970 421.00 430.30 20.52
6161 40.8020 438.00 430.22 20.93
6162 40.8070 456.00 430.16 21.35
6163 40.8120 461.00 430.09 21.47
6164 40.8170 438.00 430.04 20.93
6165 40.8220 438.00 429.99 20.93
6166 40.8270 442.00 429.95 21.02
6167 40.8320 466.00 429.91 21.59
6168 40.8370 481.00 429.88 21.93
6169 40.8420 463.00 429.85 21.52
6170 40.8470 458.00 429.83 21.40
6171 40.8520 479.00 429.81 21.89
6172 40.8570 471.00 429.92 21.70
6173 40.8620 448.00 429.91 21.17
6174 40.8670 437.00 429.91 20.90
6175 40.8720 424.00 429.91 20.59
6176 40.8770 445.00 429.92 21.09
6177 40.8820 480.00 429.93 21.91
6178 40.8870 480.00 429.95 21.91
6179 40.8920 471.00 429.97 21.70
6180 40.8970 469.00 429.99 21.66
6181 40.9020 436.00 430.02 20.88
6182 40.9070 422.00 430.06 20.54
6183 40.9120 442.00 430.10 21.02
6184 40.9170 471.00 430.14 21.70
6185 40.9220 475.00 430.19 21.79
6186 40.9270 473.00 430.24 21.75
6187 40.9320 440.00 430.30 20.98
6188 40.9370 419.00 430.36 20.47
6189 40.9420 438.00 430.43 20.93
6190 40.9470 454.00 430.50 21.31
6191 40.9520 460.00 430.58 21.45
6192 40.9570 471.00 430.66 21.70
6193 40.9620 474.00 430.74 21.77
6194 40.9670 468.00 424.87 21.63
6195 40.9720 472.00 424.99 21.73
6196 40.9770 482.00 425.11 21.95
6197 40.9820 456.00 425.23 21.35
6198 40.9870 439.00 425.36 20.95
6199 40.9920 424.00 425.50 20.59
6200 40.9970 396.00 425.64 19.90
6201 41.0020 384.00 425.79 19.60
6202 41.0070 375.00 425.95 19.36
6203 41.0120 416.00 426.11 20.40
6204 41.0170 445.00 426.29 21.09
6205 41.0220 461.00 426.47 21.47
6206 41.0270 474.00 426.65 21.77
6207 41.0320 459.00 426.85 21.42
6208 41.0370 470.00 427.06 21.68
6209 41.0420 474.00 427.27 21.77
6210 41.0470 464.00 427.50 21.54
6211 41.0520 463.00 427.73 21.52
6212 41.0570 475.00 431.51 21.79
6213 41.0620 501.00 431.79 22.38
6214 41.0670 529.00 432.08 23.00
6215 41.0720 537.00 432.83 23.17
6216 41.0770 497.00 433.14 22.29
6217 41.0820 480.00 433.47 21.91
6218 41.0870 464.00 433.82 21.54
6219 41.0920 431.00 434.17 20.76
6220 41.0970 426.00 434.55 20.64
6221 41.1020 437.00 434.95 20.90
6222 41.1070 463.00 435.36 21.52
6223 41.1120 463.00 435.79 21.52
6224 41.1170 431.00 436.23 20.76
6225 41.1220 434.00 436.70 20.83
6226 41.1270 451.00 437.19 21.24
6227 41.1320 466.00 437.70 21.59
6228 41.1370 456.00 438.23 21.35
6229 41.1420 460.00 438.79 21.45
6230 41.1470 473.00 439.36 21.75
6231 41.1520 488.00 439.96 22.09
6232 41.1570 491.00 440.58 22.16
6233 41.1620 488.00 441.23 22.09
6234 41.1670 482.00 441.89 21.95
6235 41.1720 481.00 442.59 21.93
6236 41.1770 475.00 443.30 21.79
6237 41.1820 475.00 444.04 21.79
6238 41.1870 447.00 444.80 21.14
6239 41.1920 459.00 445.58 21.42
6240 41.1970 485.00 446.37 22.02
6241 41.2020 486.00 447.19 22.05
6242 41.2070 471.00 448.04 21.70
6243 41.2120 470.00 448.90 21.68
6244 41.2170 490.00 449.77 22.14
6245 41.2220 469.00 450.67 21.66
6246 41.2270 442.00 451.57 21.02
6247 41.2320 462.00 452.49 21.49
6248 41.2370 479.00 453.42 21.89
6249 41.2420 485.00 454.35 22.02
6250 41.2470 490.00 455.29 22.14
6251 41.2520 480.00 456.23 21.91
6252 41.2570 488.00 457.17 22.09
6253 41.2620 501.00 458.10 22.38
6254 41.2670 508.00 459.03 22.54
6255 41.2720 494.00 459.95 22.23
6256 41.2770 462.00 460.85 21.49
6257 41.2820 447.00 461.73 21.14
6258 41.2870 463.00 462.59 21.52
6259 41.2920 476.00 463.42 21.82
6260 41.2970 467.00 464.22 21.61
6261 41.3020 461.00 464.99 21.47
6262 41.3070 460.00 465.71 21.45
6263 41.3120 445.00 466.39 21.09
6264 41.3170 441.00 467.02 21.00
6265 41.3220 468.00 467.60 21.63
6266 41.3270 488.00 468.12 22.09
6267 41.3320 496.00 468.58 22.27
6268 41.3370 531.00 468.97 23.04
6269 41.3420 566.00 469.30 23.79
6270 41.3470 544.00 469.55 23.32
6271 41.3520 506.00 469.74 22.49
6272 41.3570 487.00 469.87 22.07
6273 41.3620 497.00 469.92 22.29
6274 41.3670 512.00 469.91 22.63
6275 41.3720 508.00 469.83 22.54
6276 41.3770 502.00 469.70 22.41
6277 41.3820 506.00 469.51 22.49
6278 41.3870 499.00 469.27 22.34
6279 41.3920 490.00 468.99 22.14
6280 41.3970 504.00 468.67 22.45
6281 41.4020 508.00 468.32 22.54
6282 41.4070 469.00 467.95 21.66
6283 41.4120 414.00 467.56 20.35
6284 41.4170 431.00 467.16 20.76
6285 41.4220 481.00 466.75 21.93
6286 41.4270 491.00 466.35 22.16
6287 41.4320 463.00 465.95 21.52
6288 41.4370 459.00 465.56 21.42
6289 41.4420 479.00 465.19 21.89
6290 41.4470 474.00 464.85 21.77
6291 41.4520 478.00 464.52 21.86
6292 41.4570 515.00 464.23 22.69
6293 41.4620 534.00 463.97 23.11
6294 41.4670 498.00 463.74 22.32
6295 41.4720 479.00 463.56 21.89
6296 41.4770 478.00 463.41 21.86
6297 41.4820 455.00 463.31 21.33
6298 41.4870 453.00 463.25 21.28
6299 41.4920 496.00 463.24 22.27
6300 41.4970 528.00 463.28 22.98
6301 41.5020 507.00 463.36 22.52
6302 41.5070 513.00 463.51 22.65
6303 41.5120 515.00 463.70 22.69
6304 41.5170 477.00 463.95 21.84
6305 41.5220 447.00 464.25 21.14
6306 41.5270 448.00 464.61 21.17
6307 41.5320 480.00 465.04 21.91
6308 41.5370 507.00 465.52 22.52
6309 41.5420 505.00 466.06 22.47
6310 41.5470 482.00 466.66 21.95
6311 41.5520 481.00 467.33 21.93
6312 41.5570 485.00 468.06 22.02
6313 41.5620 483.00 468.86 21.98
6314 41.5670 491.00 469.73 22.16
6315 41.5720 499.00 470.66 22.34
6316 41.5770 506.00 471.66 22.49
6317 41.5820 519.00 472.73 22.78
6318 41.5870 502.00 473.88 22.41
6319 41.5920 489.00 475.10 22.11
6320 41.5970 514.00 476.39 22.67
6321 41.6020 521.00 477.75 22.83
6322 41.6070 521.00 479.20 22.83
6323 41.6120 522.00 480.71 22.85
6324 41.6170 539.00 482.31 23.22
6325 41.6220 540.00 483.99 23.24
6326 41.6270 522.00 485.75 22.85
6327 41.6320 514.00 487.59 22.67
6328 41.6370 516.00 489.51 22.72
6329 41.6420 522.00 491.51 22.85
6330 41.6470 548.00 493.60 23.41
6331 41.6520 602.00 495.77 24.54
6332 41.6570 628.00 498.02 25.06
6333 41.6620 630.00 500.36 25.10
6334 41.6670 636.00 502.78 25.22
6335 41.6720 638.00 505.28 25.26
6336 41.6770 636.00 507.86 25.22
6337 41.6820 653.00 510.52 25.55
6338 41.6870 636.00 513.26 25.22
6339 41.6920 619.00 516.08 24.88
6340 41.6970 616.00 518.97 24.82
6341 41.7020 606.00 521.94 24.62
6342 41.7070 618.00 524.98 24.86
6343 41.7120 616.00 528.08 24.82
6344 41.7170 603.00 531.24 24.56
6345 41.7220 593.00 534.46 24.35
6346 41.7270 605.00 537.74 24.60
6347 41.7320 636.00 541.07 25.22
6348 41.7370 638.00 544.43 25.26
6349 41.7420 618.00 547.84 24.86
6350 41.7470 612.00 551.28 24.74
6351 41.7520 639.00 554.74 25.28
6352 41.7570 648.00 558.21 25.46
6353 41.7620 665.00 561.70 25.79
6354 41.7670 663.00 565.19 25.75
6355 41.7720 639.00 568.67 25.28
6356 41.7770 613.00 572.13 24.76
6357 41.7820 581.00 575.57 24.10
6358 41.7870 564.00 578.97 23.75
6359 41.7920 569.00 582.32 23.85
6360 41.7970 578.00 585.61 24.04
6361 41.8020 607.00 588.83 24.64
6362 41.8070 634.00 591.97 25.18
6363 41.8120 625.00 595.01 25.00
6364 41.8170 635.00 597.96 25.20
6365 41.8220 633.00 600.78 25.16
6366 41.8270 634.00 603.46 25.18
6367 41.8320 634.00 606.01 25.18
6368 41.8370 636.00 608.76 25.22
6369 41.8420 632.00 610.99 25.14
6370 41.8470 642.00 613.03 25.34
6371 41.8520 684.00 614.89 26.15
6372 41.8570 700.00 616.54 26.46
6373 41.8620 682.00 617.98 26.12
6374 41.8670 679.00 619.21 26.06
6375 41.8720 643.00 620.21 25.36
6376 41.8770 624.00 620.98 24.98
6377 41.8820 653.00 621.52 25.55
6378 41.8870 664.00 621.82 25.77
6379 41.8920 644.00 621.88 25.38
6380 41.8970 635.00 622.12 25.20
6381 41.9020 650.00 621.71 25.50
6382 41.9070 665.00 621.07 25.79
6383 41.9120 673.00 620.21 25.94
6384 41.9170 655.00 619.14 25.59
6385 41.9220 631.00 617.86 25.12
6386 41.9270 588.00 616.38 24.25
6387 41.9320 555.00 614.72 23.56
6388 41.9370 585.00 612.89 24.19
6389 41.9420 595.00 610.90 24.39
6390 41.9470 647.00 608.76 25.44
6391 41.9520 684.00 606.49 26.15
6392 41.9570 688.00 604.11 26.23
6393 41.9620 670.00 601.61 25.88
6394 41.9670 606.00 599.02 24.62
6395 41.9720 594.00 596.35 24.37
6396 41.9770 602.00 593.61 24.54
6397 41.9820 600.00 590.81 24.49
6398 41.9870 585.00 587.97 24.19
6399 41.9920 583.00 586.73 24.15
6400 41.9970 583.00 583.35 24.15
6401 42.0020 568.00 580.42 23.83
6402 42.0070 561.00 577.48 23.69
6403 42.0120 534.00 574.53 23.11
6404 42.0170 553.00 571.58 23.52
6405 42.0220 548.00 568.64 23.41
6406 42.0270 536.00 565.71 23.15
6407 42.0320 537.00 562.80 23.17
6408 42.0370 530.00 559.93 23.02
6409 42.0420 550.00 557.08 23.45
6410 42.0470 530.00 554.28 23.02
6411 42.0520 530.00 551.51 23.02
6412 42.0570 545.00 548.80 23.35
6413 42.0620 524.00 546.14 22.89
6414 42.0670 544.00 543.54 23.32
6415 42.0720 561.00 541.01 23.69
6416 42.0770 568.00 538.54 23.83
6417 42.0820 562.00 536.15 23.71
6418 42.0870 576.00 533.83 24.00
6419 42.0920 565.00 531.58 23.77
6420 42.0970 562.00 529.42 23.71
6421 42.1020 522.00 527.34 22.85
6422 42.1070 490.00 525.34 22.14
6423 42.1120 461.00 523.43 21.47
6424 42.1170 481.00 521.59 21.93
6425 42.1220 488.00 519.49 22.09
6426 42.1270 497.00 517.83 22.29
6427 42.1320 504.00 516.26 22.45
6428 42.1370 525.00 514.77 22.91
6429 42.1420 553.00 513.36 23.52
6430 42.1470 563.00 512.03 23.73
6431 42.1520 592.00 510.78 24.33
6432 42.1570 590.00 509.61 24.29
6433 42.1620 584.00 508.52 24.17
6434 42.1670 553.00 507.50 23.52
6435 42.1720 527.00 506.55 22.96
6436 42.1770 537.00 505.68 23.17
6437 42.1820 549.00 504.87 23.43
6438 42.1870 532.00 504.13 23.07
6439 42.1920 510.00 502.96 22.58
6440 42.1970 550.00 502.35 23.45
6441 42.2020 540.00 501.79 23.24
6442 42.2070 540.00 501.29 23.24
6443 42.2120 510.00 500.85 22.58
6444 42.2170 488.00 500.46 22.09
6445 42.2220 467.00 500.12 21.61
6446 42.2270 465.00 499.83 21.56
6447 42.2320 454.00 499.58 21.31
6448 42.2370 449.00 499.38 21.19
6449 42.2420 503.00 499.22 22.43
6450 42.2470 521.00 499.09 22.83
6451 42.2520 553.00 499.01 23.52
6452 42.2570 555.00 498.90 23.56
6453 42.2620 513.00 498.89 22.65
6454 42.2670 541.00 498.90 23.26
6455 42.2720 565.00 498.95 23.77
6456 42.2770 553.00 499.03 23.52
6457 42.2820 542.00 499.14 23.28
6458 42.2870 546.00 499.27 23.37
6459 42.2920 544.00 499.43 23.32
6460 42.2970 531.00 499.61 23.04
6461 42.3020 542.00 499.82 23.28
6462 42.3070 546.00 500.05 23.37
6463 42.3120 542.00 500.29 23.28
6464 42.3170 539.00 500.56 23.22
6465 42.3220 537.00 500.85 23.17
6466 42.3270 506.00 501.16 22.49
6467 42.3320 557.00 501.48 23.60
6468 42.3370 573.00 501.82 23.94
6469 42.3420 525.00 502.18 22.91
6470 42.3470 548.00 502.55 23.41
6471 42.3520 542.00 502.94 23.28
6472 42.3570 562.00 503.34 23.71
6473 42.3620 542.00 503.76 23.28
6474 42.3670 551.00 504.20 23.47
6475 42.3720 516.00 504.64 22.72
6476 42.3770 528.00 505.10 22.98
6477 42.3820 561.00 505.58 23.69
6478 42.3870 613.00 506.07 24.76
6479 42.3920 568.00 506.57 23.83
6480 42.3970 569.00 507.08 23.85
6481 42.4020 561.00 507.61 23.69
6482 42.4070 579.00 508.15 24.06
6483 42.4120 557.00 508.70 23.60
6484 42.4170 555.00 509.27 23.56
6485 42.4220 574.00 509.85 23.96
6486 42.4270 559.00 510.44 23.64
6487 42.4320 514.00 511.04 22.67
6488 42.4370 485.00 511.66 22.02
6489 42.4420 502.00 512.29 22.41
6490 42.4470 558.00 512.93 23.62
6491 42.4520 572.00 513.59 23.92
6492 42.4570 552.00 514.26 23.49
6493 42.4620 548.00 514.95 23.41
6494 42.4670 528.00 515.65 22.98
6495 42.4720 532.00 516.36 23.07
6496 42.4770 555.00 517.09 23.56
6497 42.4820 561.00 517.83 23.69
6498 42.4870 558.00 518.59 23.62
6499 42.4920 600.00 519.36 24.49
6500 42.4970 584.00 520.15 24.17
6501 42.5020 563.00 520.95 23.73
6502 42.5070 500.00 521.77 22.36
6503 42.5120 509.00 522.61 22.56
6504 42.5170 464.00 523.46 21.54
6505 42.5220 498.00 524.33 22.32
6506 42.5270 485.00 525.22 22.02
6507 42.5320 488.00 526.13 22.09
6508 42.5370 492.00 527.06 22.18
6509 42.5420 536.00 528.01 23.15
6510 42.5470 543.00 528.98 23.30
6511 42.5520 487.00 529.97 22.07
6512 42.5570 508.00 530.98 22.54
6513 42.5620 490.00 532.01 22.14
6514 42.5670 537.00 533.07 23.17
6515 42.5720 514.00 534.15 22.67
6516 42.5770 494.00 535.25 22.23
6517 42.5820 492.00 536.38 22.18
6518 42.5870 503.00 536.44 22.43
6519 42.5920 508.00 537.63 22.54
6520 42.5970 490.00 538.85 22.14
6521 42.6020 500.00 540.10 22.36
6522 42.6070 461.00 541.37 21.47
6523 42.6120 458.00 542.68 21.40
6524 42.6170 460.00 544.03 21.45
6525 42.6220 482.00 545.40 21.95
6526 42.6270 507.00 546.81 22.52
6527 42.6320 501.00 548.26 22.38
6528 42.6370 544.00 549.74 23.32
6529 42.6420 545.00 551.27 23.35
6530 42.6470 601.00 552.83 24.52
6531 42.6520 600.00 554.44 24.49
6532 42.6570 576.00 556.09 24.00
6533 42.6620 588.00 557.79 24.25
6534 42.6670 633.00 559.53 25.16
6535 42.6720 641.00 561.32 25.32
6536 42.6770 642.00 563.16 25.34
6537 42.6820 630.00 565.05 25.10
6538 42.6870 566.00 567.00 23.79
6539 42.6920 580.00 568.99 24.08
6540 42.6970 579.00 571.05 24.06
6541 42.7020 606.00 573.16 24.62
6542 42.7070 623.00 575.33 24.96
6543 42.7120 648.00 577.57 25.46
6544 42.7170 631.00 579.86 25.12
6545 42.7220 691.00 582.22 26.29
6546 42.7270 680.00 584.75 26.08
6547 42.7320 688.00 587.24 26.23
6548 42.7370 659.00 589.80 25.67
6549 42.7420 640.00 592.43 25.30
6550 42.7470 682.00 595.12 26.12
6551 42.7520 744.00 597.89 27.28
6552 42.7570 723.00 600.73 26.89
6553 42.7620 717.00 603.64 26.78
6554 42.7670 722.00 606.63 26.87
6555 42.7720 723.00 609.69 26.89
6556 42.7770 747.00 612.83 27.33
6557 42.7820 766.00 616.04 27.68
6558 42.7870 722.00 619.32 26.87
6559 42.7920 715.00 622.68 26.74
6560 42.7970 707.00 626.12 26.59
6561 42.8020 700.00 629.63 26.46
6562 42.8070 708.00 633.22 26.61
6563 42.8120 732.00 636.87 27.06
6564 42.8170 732.00 640.60 27.06
6565 42.8220 694.00 644.41 26.34
6566 42.8270 718.00 648.29 26.80
6567 42.8320 720.00 652.24 26.83
6568 42.8370 688.00 656.26 26.23
6569 42.8420 723.00 660.34 26.89
6570 42.8470 770.00 664.50 27.75
6571 42.8520 814.00 668.72 28.53
6572 42.8570 815.00 673.01 28.55
6573 42.8620 820.00 677.37 28.64
6574 42.8670 848.00 681.79 29.12
6575 42.8720 866.00 686.27 29.43
6576 42.8770 857.00 690.82 29.27
6577 42.8820 841.00 695.43 29.00
6578 42.8870 825.00 700.10 28.72
6579 42.8920 844.00 704.84 29.05
6580 42.8970 861.00 709.64 29.34
6581 42.9020 824.00 714.51 28.71
6582 42.9070 841.00 719.44 29.00
6583 42.9120 842.00 724.45 29.02
6584 42.9170 833.00 729.53 28.86
6585 42.9220 819.00 734.68 28.62
6586 42.9270 863.00 739.93 29.38
6587 42.9320 894.00 745.27 29.90
6588 42.9370 872.00 750.70 29.53
6589 42.9420 866.00 758.77 29.43
6590 42.9470 878.00 764.45 29.63
6591 42.9520 903.00 770.27 30.05
6592 42.9570 914.00 776.24 30.23
6593 42.9620 938.00 782.39 30.63
6594 42.9670 917.00 788.73 30.28
6595 42.9720 933.00 795.27 30.55
6596 42.9770 951.00 802.05 30.84
6597 42.9820 961.00 809.10 31.00
6598 42.9870 928.00 816.42 30.46
6599 42.9920 935.00 824.06 30.58
6600 42.9970 929.00 832.05 30.48
6601 43.0020 891.00 840.41 29.85
6602 43.0070 889.00 849.17 29.82
6603 43.0120 893.00 858.38 29.88
6604 43.0170 919.00 868.05 30.32
6605 43.0220 927.00 878.22 30.45
6606 43.0270 950.00 888.94 30.82
6607 43.0320 975.00 900.23 31.23
6608 43.0370 1035.00 912.12 32.17
6609 43.0420 1058.00 924.65 32.53
6610 43.0470 1063.00 937.85 32.60
6611 43.0520 1111.00 951.76 33.33
6612 43.0570 1119.00 966.41 33.45
6613 43.0620 1137.00 981.82 33.72
6614 43.0670 1109.00 998.05 33.30
6615 43.0720 1132.00 1015.11 33.65
6616 43.0770 1162.00 1033.03 34.09
6617 43.0820 1218.00 1051.85 34.90
6618 43.0870 1183.00 1071.59 34.39
6619 43.0920 1171.00 1092.30 34.22
6620 43.0970 1196.00 1113.95 34.58
6621 43.1020 1190.00 1136.62 34.50
6622 43.1070 1179.00 1160.33 34.34
6623 43.1120 1187.00 1185.04 34.45
6624 43.1170 1215.00 1210.85 34.86
6625 43.1220 1271.00 1237.71 35.65
6626 43.1270 1309.00 1265.67 36.18
6627 43.1320 1299.00 1294.71 36.04
6628 43.1370 1307.00 1324.86 36.15
6629 43.1420 1352.00 1356.12 36.77
6630 43.1470 1395.00 1388.47 37.35
6631 43.1520 1463.00 1421.92 38.25
6632 43.1570 1529.00 1456.46 39.10
6633 43.1620 1524.00 1492.09 39.04
6634 43.1670 1492.00 1528.73 38.63
6635 43.1720 1503.00 1566.44 38.77
6636 43.1770 1546.00 1605.13 39.32
6637 43.1820 1619.00 1644.78 40.24
6638 43.1870 1666.00 1685.35 40.82
6639 43.1920 1684.00 1726.79 41.04
6640 43.1970 1698.00 1769.06 41.21
6641 43.2020 1683.00 1812.10 41.02
6642 43.2070 1718.00 1855.83 41.45
6643 43.2120 1739.00 1900.22 41.70
6644 43.2170 1767.00 1945.14 42.04
6645 43.2220 1792.00 1990.51 42.33
6646 43.2270 1811.00 2036.30 42.56
6647 43.2320 1896.00 2082.34 43.54
6648 43.2370 2013.00 2128.53 44.87
6649 43.2420 2073.00 2174.86 45.53
6650 43.2470 2091.00 2221.10 45.73
6651 43.2520 2094.00 2267.21 45.76
6652 43.2570 2153.00 2312.96 46.40
6653 43.2620 2174.00 2358.32 46.63
6654 43.2670 2209.00 2403.08 47.00
6655 43.2720 2290.00 2447.14 47.85
6656 43.2770 2412.00 2490.38 49.11
6657 43.2820 2457.00 2532.66 49.57
6658 43.2870 2452.00 2573.76 49.52
6659 43.2920 2527.00 2613.55 50.27
6660 43.2970 2588.00 2651.94 50.87
6661 43.3020 2619.00 2688.73 51.18
6662 43.3070 2654.00 2723.82 51.52
6663 43.3120 2695.00 2757.02 51.91
6664 43.3170 2739.00 2788.26 52.34
6665 43.3220 2807.00 2817.45 52.98
6666 43.3270 2838.00 2844.42 53.27
6667 43.3320 2887.00 2869.15 53.73
6668 43.3370 2912.00 2891.59 53.96
6669 43.3420 2927.00 2911.65 54.10
6670 43.3470 2952.00 2929.34 54.33
6671 43.3520 2977.00 2944.67 54.56
6672 43.3570 2977.00 2957.64 54.56
6673 43.3620 2956.00 2968.32 54.37
6674 43.3670 2977.00 2976.77 54.56
6675 43.3720 2974.00 2983.07 54.53
6676 43.3770 2989.00 2987.34 54.67
6677 43.3820 2997.00 2989.68 54.74
6678 43.3870 2962.00 2990.24 54.42
6679 43.3920 2925.00 2989.15 54.08
6680 43.3970 2928.00 2986.57 54.11
6681 43.4020 2924.00 2982.63 54.07
6682 43.4070 2909.00 2977.50 53.94
6683 43.4120 2873.00 2971.31 53.60
6684 43.4170 2823.00 2964.22 53.13
6685 43.4220 2831.00 2956.37 53.21
6686 43.4270 2871.00 2947.87 53.58
6687 43.4320 2838.00 2938.84 53.27
6688 43.4370 2781.00 2929.42 52.74
6689 43.4420 2774.00 2919.67 52.67
6690 43.4470 2790.00 2909.70 52.82
6691 43.4520 2805.00 2899.58 52.96
6692 43.4570 2816.00 2889.36 53.07
6693 43.4620 2800.00 2879.12 52.92
6694 43.4670 2799.00 2868.88 52.91
6695 43.4720 2772.00 2858.68 52.65
6696 43.4770 2708.00 2848.55 52.04
6697 43.4820 2696.00 2838.49 51.92
6698 43.4870 2670.00 2828.51 51.67
6699 43.4920 2645.00 2818.60 51.43
6700 43.4970 2653.00 2808.76 51.51
6701 43.5020 2700.00 2798.97 51.96
6702 43.5070 2701.00 2789.22 51.97
6703 43.5120 2686.00 2779.46 51.83
6704 43.5170 2665.00 2769.67 51.62
6705 43.5220 2703.00 2759.82 51.99
6706 43.5270 2692.00 2749.86 51.88
6707 43.5320 2661.00 2739.75 51.58
6708 43.5370 2662.00 2729.46 51.59
6709 43.5420 2721.00 2718.94 52.16
6710 43.5470 2750.00 2708.14 52.44
6711 43.5520 2733.00 2697.02 52.28
6712 43.5570 2714.00 2685.54 52.10
6713 43.5620 2730.00 2673.67 52.25
6714 43.5670 2741.00 2661.34 52.35
6715 43.5720 2734.00 2648.55 52.29
6716 43.5770 2751.00 2635.25 52.45
6717 43.5820 2724.00 2621.40 52.19
6718 43.5870 2713.00 2607.00 52.09
6719 43.5920 2718.00 2592.00 52.13
6720 43.5970 2681.00 2576.43 51.78
6721 43.6020 2633.00 2560.23 51.31
6722 43.6070 2573.00 2543.40 50.72
6723 43.6120 2564.00 2525.97 50.64
6724 43.6170 2588.00 2507.92 50.87
6725 43.6220 2565.00 2489.24 50.65
6726 43.6270 2514.00 2469.97 50.14
6727 43.6320 2499.00 2450.13 49.99
6728 43.6370 2505.00 2429.70 50.05
6729 43.6420 2493.00 2408.74 49.93
6730 43.6470 2451.00 2387.26 49.51
6731 43.6520 2425.00 2365.29 49.24
6732 43.6570 2411.00 2342.86 49.10
6733 43.6620 2389.00 2319.98 48.88
6734 43.6670 2350.00 2296.74 48.48
6735 43.6720 2280.00 2273.12 47.75
6736 43.6770 2202.00 2249.16 46.93
6737 43.6820 2153.00 2224.91 46.40
6738 43.6870 2168.00 2200.43 46.56
6739 43.6920 2172.00 2175.67 46.60
6740 43.6970 2146.00 2150.74 46.32
6741 43.7020 2104.00 2125.64 45.87
6742 43.7070 2098.00 2100.41 45.80
6743 43.7120 2084.00 2075.07 45.65
6744 43.7170 2049.00 2049.63 45.27
6745 43.7220 1979.00 2024.17 44.49
6746 43.7270 1954.00 1998.65 44.20
6747 43.7320 1952.00 1973.11 44.18
6748 43.7370 1937.00 1947.62 44.01
6749 43.7420 1908.00 1922.11 43.68
6750 43.7470 1877.00 1896.67 43.32
6751 43.7520 1866.00 1871.30 43.20
6752 43.7570 1866.00 1845.99 43.20
6753 43.7620 1793.00 1820.78 42.34
6754 43.7670 1745.00 1795.67 41.77
6755 43.7720 1732.00 1770.68 41.62
6756 43.7770 1710.00 1745.81 41.35
6757 43.7820 1693.00 1721.07 41.15
6758 43.7870 1694.00 1696.49 41.16
6759 43.7920 1691.00 1672.08 41.12
6760 43.7970 1671.00 1647.81 40.88
6761 43.8020 1649.00 1623.75 40.61
6762 43.8070 1616.00 1599.87 40.20
6763 43.8120 1565.00 1576.20 39.56
6764 43.8170 1515.00 1552.74 38.92
6765 43.8220 1513.00 1529.52 38.90
6766 43.8270 1494.00 1506.53 38.65
6767 43.8320 1453.00 1483.80 38.12
6768 43.8370 1392.00 1461.31 37.31
6769 43.8420 1365.00 1439.13 36.95
6770 43.8470 1376.00 1417.24 37.09
6771 43.8520 1403.00 1395.63 37.46
6772 43.8570 1391.00 1374.35 37.30
6773 43.8620 1391.00 1353.41 37.30
6774 43.8670 1368.00 1332.78 36.99
6775 43.8720 1320.00 1312.51 36.33
6776 43.8770 1339.00 1292.57 36.59
6777 43.8820 1354.00 1273.03 36.80
6778 43.8870 1351.00 1253.85 36.76
6779 43.8920 1331.00 1235.02 36.48
6780 43.8970 1287.00 1216.60 35.87
6781 43.9020 1242.00 1198.55 35.24
6782 43.9070 1230.00 1180.86 35.07
6783 43.9120 1239.00 1163.58 35.20
6784 43.9170 1234.00 1146.69 35.13
6785 43.9220 1238.00 1130.16 35.19
6786 43.9270 1250.00 1114.01 35.36
6787 43.9320 1232.00 1098.24 35.10
6788 43.9370 1221.00 1082.86 34.94
6789 43.9420 1216.00 1067.83 34.87
6790 43.9470 1199.00 1053.16 34.63
6791 43.9520 1155.00 1038.87 33.99
6792 43.9570 1126.00 1024.91 33.56
6793 43.9620 1137.00 1011.30 33.72
6794 43.9670 1139.00 998.04 33.75
6795 43.9720 1117.00 985.12 33.42
6796 43.9770 1099.00 972.52 33.15
6797 43.9820 1102.00 960.22 33.20
6798 43.9870 1100.00 948.28 33.17
6799 43.9920 1115.00 936.66 33.39
6800 43.9970 1092.00 925.36 33.05
6801 44.0020 1066.00 914.38 32.65
6802 44.0070 1051.00 903.72 32.42
6803 44.0120 1051.00 893.36 32.42
6804 44.0170 1028.00 883.32 32.06
6805 44.0220 1001.00 873.59 31.64
6806 44.0270 986.00 864.31 31.40
6807 44.0320 1017.00 855.20 31.89
6808 44.0370 1068.00 846.38 32.68
6809 44.0420 1079.00 837.87 32.85
6810 44.0470 1049.00 829.97 32.39
6811 44.0520 1028.00 822.05 32.06
6812 44.0570 1018.00 814.43 31.91
6813 44.0620 996.00 807.10 31.56
6814 44.0670 972.00 800.05 31.18
6815 44.0720 929.00 793.29 30.48
6816 44.0770 895.00 786.93 29.92
6817 44.0820 877.00 780.71 29.61
6818 44.0870 886.00 774.77 29.77
6819 44.0920 918.00 769.09 30.30
6820 44.0970 941.00 763.67 30.68
6821 44.1020 918.00 758.50 30.30
6822 44.1070 940.00 753.57 30.66
6823 44.1120 954.00 748.89 30.89
6824 44.1170 937.00 744.45 30.61
6825 44.1220 942.00 740.23 30.69
6826 44.1270 957.00 736.25 30.94
6827 44.1320 928.00 732.49 30.46
6828 44.1370 908.00 728.94 30.13
6829 44.1420 931.00 725.60 30.51
6830 44.1470 917.00 722.48 30.28
6831 44.1520 911.00 719.55 30.18
6832 44.1570 912.00 716.82 30.20
6833 44.1620 904.00 714.28 30.07
6834 44.1670 887.00 711.94 29.78
6835 44.1720 856.00 709.78 29.26
6836 44.1770 870.00 707.80 29.50
6837 44.1820 876.00 706.00 29.60
6838 44.1870 872.00 704.37 29.53
6839 44.1920 865.00 702.91 29.41
6840 44.1970 879.00 701.62 29.65
6841 44.2020 890.00 700.49 29.83
6842 44.2070 879.00 699.53 29.65
6843 44.2120 874.00 698.72 29.56
6844 44.2170 845.00 698.07 29.07
6845 44.2220 859.00 697.57 29.31
6846 44.2270 859.00 697.22 29.31
6847 44.2320 819.00 697.02 28.62
6848 44.2370 796.00 696.96 28.21
6849 44.2420 844.00 697.05 29.05
6850 44.2470 871.00 697.28 29.51
6851 44.2520 873.00 697.65 29.55
6852 44.2570 864.00 698.15 29.39
6853 44.2620 831.00 698.79 28.83
6854 44.2670 829.00 699.57 28.79
6855 44.2720 862.00 700.47 29.36
6856 44.2770 871.00 701.50 29.51
6857 44.2820 838.00 702.66 28.95
6858 44.2870 819.00 703.95 28.62
6859 44.2920 830.00 705.35 28.81
6860 44.2970 858.00 706.88 29.29
6861 44.3020 845.00 708.52 29.07
6862 44.3070 816.00 710.28 28.57
6863 44.3120 808.00 712.15 28.43
6864 44.3170 817.00 714.13 28.58
6865 44.3220 791.00 716.21 28.12
6866 44.3270 807.00 718.39 28.41
6867 44.3320 839.00 720.67 28.97
6868 44.3370 840.00 723.04 28.98
6869 44.3420 842.00 725.50 29.02
6870 44.3470 848.00 728.05 29.12
6871 44.3520 866.00 730.67 29.43
6872 44.3570 878.00 733.05 29.63
6873 44.3620 869.00 735.81 29.48
6874 44.3670 860.00 738.65 29.33
6875 44.3720 859.00 741.53 29.31
6876 44.3770 877.00 744.47 29.61
6877 44.3820 859.00 747.45 29.31
6878 44.3870 866.00 750.47 29.43
6879 44.3920 871.00 753.51 29.51
6880 44.3970 862.00 756.58 29.36
6881 44.4020 811.00 759.65 28.48
6882 44.4070 794.00 762.73 28.18
6883 44.4120 816.00 765.80 28.57
6884 44.4170 808.00 768.86 28.43
6885 44.4220 808.00 771.89 28.43
6886 44.4270 856.00 774.89 29.26
6887 44.4320 874.00 777.85 29.56
6888 44.4370 878.00 780.75 29.63
6889 44.4420 873.00 783.59 29.55
6890 44.4470 808.00 786.36 28.43
6891 44.4520 803.00 789.04 28.34
6892 44.4570 831.00 791.63 28.83
6893 44.4620 804.00 794.12 28.35
6894 44.4670 788.00 796.50 28.07
6895 44.4720 840.00 798.76 28.98
6896 44.4770 897.00 800.89 29.95
6897 44.4820 912.00 802.89 30.20
6898 44.4870 892.00 804.74 29.87
6899 44.4920 873.00 806.45 29.55
6900 44.4970 837.00 808.01 28.93
6901 44.5020 853.00 809.41 29.21
6902 44.5070 847.00 810.66 29.10
6903 44.5120 832.00 811.75 28.84
6904 44.5170 832.00 812.69 28.84
6905 44.5220 808.00 813.47 28.43
6906 44.5270 812.00 814.11 28.50
6907 44.5320 805.00 814.61 28.37
6908 44.5370 823.00 814.97 28.69
6909 44.5420 791.00 815.20 28.12
6910 44.5470 821.00 815.32 28.65
6911 44.5520 828.00 816.27 28.77
6912 44.5570 850.00 816.20 29.15
6913 44.5620 856.00 816.05 29.26
6914 44.5670 863.00 815.84 29.38
6915 44.5720 887.00 815.59 29.78
6916 44.5770 889.00 815.31 29.82
6917 44.5820 850.00 815.01 29.15
6918 44.5870 852.00 814.72 29.19
6919 44.5920 838.00 814.45 28.95
6920 44.5970 839.00 814.22 28.97
6921 44.6020 836.00 814.05 28.91
6922 44.6070 807.00 813.95 28.41
6923 44.6120 813.00 813.95 28.51
6924 44.6170 817.00 814.05 28.58
6925 44.6220 817.00 814.28 28.58
6926 44.6270 762.00 814.66 27.60
6927 44.6320 738.00 815.18 27.17
6928 44.6370 726.00 815.88 26.94
6929 44.6420 736.00 816.77 27.13
6930 44.6470 787.00 817.85 28.05
6931 44.6520 781.00 819.15 27.95
6932 44.6570 786.00 820.67 28.04
6933 44.6620 774.00 822.44 27.82
6934 44.6670 802.00 824.45 28.32
6935 44.6720 824.00 826.72 28.71
6936 44.6770 860.00 829.27 29.33
6937 44.6820 842.00 832.09 29.02
6938 44.6870 860.00 835.21 29.33
6939 44.6920 820.00 838.63 28.64
6940 44.6970 787.00 842.36 28.05
6941 44.7020 796.00 846.40 28.21
6942 44.7070 778.00 850.77 27.89
6943 44.7120 774.00 855.47 27.82
6944 44.7170 770.00 860.50 27.75
6945 44.7220 796.00 865.88 28.21
6946 44.7270 795.00 871.61 28.20
6947 44.7320 785.00 877.69 28.02
6948 44.7370 817.00 884.12 28.58
6949 44.7420 833.00 890.92 28.86
6950 44.7470 832.00 898.08 28.84
6951 44.7520 836.00 905.60 28.91
6952 44.7570 877.00 913.48 29.61
6953 44.7620 888.00 921.81 29.80
6954 44.7670 904.00 930.43 30.07
6955 44.7720 876.00 939.40 29.60
6956 44.7770 881.00 948.75 29.68
6957 44.7820 927.00 958.45 30.45
6958 44.7870 920.00 968.51 30.33
6959 44.7920 933.00 978.91 30.55
6960 44.7970 938.00 989.66 30.63
6961 44.8020 938.00 1000.76 30.63
6962 44.8070 897.00 1012.19 29.95
6963 44.8120 886.00 1023.93 29.77
6964 44.8170 914.00 1036.00 30.23
6965 44.8220 958.00 1048.36 30.95
6966 44.8270 979.00 1061.01 31.29
6967 44.8320 963.00 1073.96 31.03
6968 44.8370 978.00 1087.17 31.27
6969 44.8420 1032.00 1100.64 32.12
6970 44.8470 1047.00 1114.32 32.36
6971 44.8520 1081.00 1128.24 32.88
6972 44.8570 1085.00 1142.36 32.94
6973 44.8620 1057.00 1156.64 32.51
6974 44.8670 1071.00 1171.10 32.73
6975 44.8720 1085.00 1185.70 32.94
6976 44.8770 1071.00 1200.40 32.73
6977 44.8820 1101.00 1215.19 33.18
6978 44.8870 1108.00 1230.06 33.29
6979 44.8920 1120.00 1244.95 33.47
6980 44.8970 1154.00 1259.85 33.97
6981 44.9020 1162.00 1274.73 34.09
6982 44.9070 1168.00 1289.56 34.18
6983 44.9120 1152.00 1304.32 33.94
6984 44.9170 1163.00 1318.94 34.10
6985 44.9220 1212.00 1333.42 34.81
6986 44.9270 1220.00 1347.72 34.93
6987 44.9320 1217.00 1361.79 34.89
6988 44.9370 1243.00 1375.61 35.26
6989 44.9420 1253.00 1389.14 35.40
6990 44.9470 1302.00 1402.34 36.08
6991 44.9520 1350.00 1415.18 36.74
6992 44.9570 1362.00 1427.62 36.91
6993 44.9620 1394.00 1439.62 37.34
6994 44.9670 1442.00 1451.16 37.97
6995 44.9720 1471.00 1462.18 38.35
6996 44.9770 1463.00 1472.68 38.25
6997 44.9820 1448.00 1482.60 38.05
6998 44.9870 1437.00 1491.92 37.91
6999 44.9920 1448.00 1500.63 38.05
7000 44.9970 1438.00 1508.69 37.92
7001 45.0020 1403.00 1516.09 37.46
7002 45.0070 1408.00 1522.80 37.52
7003 45.0120 1427.00 1528.81 37.78
7004 45.0170 1409.00 1534.12 37.54
7005 45.0220 1441.00 1538.71 37.96
7006 45.0270 1467.00 1542.59 38.30
7007 45.0320 1444.00 1545.76 38.00
7008 45.0370 1451.00 1548.23 38.09
7009 45.0420 1426.00 1550.02 37.76
7010 45.0470 1421.00 1551.13 37.70
7011 45.0520 1422.00 1551.60 37.71
7012 45.0570 1468.00 1551.45 38.31
7013 45.0620 1475.00 1550.71 38.41
7014 45.0670 1500.00 1549.42 38.73
7015 45.0720 1555.00 1547.61 39.43
7016 45.0770 1548.00 1545.34 39.34
7017 45.0820 1532.00 1542.64 39.14
7018 45.0870 1499.00 1539.57 38.72
7019 45.0920 1482.00 1536.06 38.50
7020 45.0970 1519.00 1532.39 38.97
7021 45.1020 1510.00 1528.49 38.86
7022 45.1070 1504.00 1524.44 38.78
7023 45.1120 1466.00 1520.27 38.29
7024 45.1170 1458.00 1516.04 38.18
7025 45.1220 1443.00 1511.80 37.99
7026 45.1270 1437.00 1507.62 37.91
7027 45.1320 1415.00 1503.54 37.62
7028 45.1370 1394.00 1499.61 37.34
7029 45.1420 1404.00 1495.88 37.47
7030 45.1470 1427.00 1492.40 37.78
7031 45.1520 1455.00 1489.21 38.14
7032 45.1570 1481.00 1486.36 38.48
7033 45.1620 1521.00 1483.89 39.00
7034 45.1670 1529.00 1481.83 39.10
7035 45.1720 1529.00 1480.22 39.10
7036 45.1770 1531.00 1479.09 39.13
7037 45.1820 1510.00 1478.48 38.86
7038 45.1870 1509.00 1478.41 38.85
7039 45.1920 1533.00 1478.90 39.15
7040 45.1970 1551.00 1479.98 39.38
7041 45.2020 1524.00 1481.65 39.04
7042 45.2070 1487.00 1484.05 38.56
7043 45.2120 1457.00 1486.97 38.17
7044 45.2170 1441.00 1490.53 37.96
7045 45.2220 1446.00 1494.72 38.03
7046 45.2270 1436.00 1499.55 37.89
7047 45.2320 1433.00 1505.02 37.85
7048 45.2370 1427.00 1511.11 37.78
7049 45.2420 1466.00 1517.80 38.29
7050 45.2470 1526.00 1525.10 39.06
7051 45.2520 1539.00 1532.97 39.23
7052 45.2570 1544.00 1541.37 39.29
7053 45.2620 1568.00 1550.31 39.60
7054 45.2670 1565.00 1559.72 39.56
7055 45.2720 1552.00 1569.56 39.40
7056 45.2770 1546.00 1579.82 39.32
7057 45.2820 1576.00 1590.41 39.70
7058 45.2870 1602.00 1601.31 40.03
7059 45.2920 1580.00 1612.44 39.75
7060 45.2970 1559.00 1623.75 39.48
7061 45.3020 1540.00 1635.17 39.24
7062 45.3070 1525.00 1646.64 39.05
7063 45.3120 1535.00 1658.06 39.18
7064 45.3170 1571.00 1669.38 39.64
7065 45.3220 1596.00 1680.50 39.95
7066 45.3270 1600.00 1691.33 40.00
7067 45.3320 1610.00 1701.82 40.12
7068 45.3370 1649.00 1711.84 40.61
7069 45.3420 1666.00 1721.31 40.82
7070 45.3470 1667.00 1730.15 40.83
7071 45.3520 1664.00 1738.25 40.79
7072 45.3570 1652.00 1745.53 40.64
7073 45.3620 1658.00 1751.89 40.72
7074 45.3670 1681.00 1757.25 41.00
7075 45.3720 1683.00 1761.53 41.02
7076 45.3770 1716.00 1764.64 41.42
7077 45.3820 1767.00 1766.50 42.04
7078 45.3870 1798.00 1767.07 42.40
7079 45.3920 1820.00 1766.27 42.66
7080 45.3970 1798.00 1764.06 42.40
7081 45.4020 1772.00 1760.39 42.10
7082 45.4070 1782.00 1755.26 42.21
7083 45.4120 1769.00 1748.64 42.06
7084 45.4170 1743.00 1740.55 41.75
7085 45.4220 1740.00 1730.98 41.71
7086 45.4270 1720.00 1719.96 41.47
7087 45.4320 1689.00 1707.53 41.10
7088 45.4370 1672.00 1693.77 40.89
7089 45.4420 1665.00 1678.69 40.80
7090 45.4470 1671.00 1662.39 40.88
7091 45.4520 1688.00 1644.97 41.09
7092 45.4570 1670.00 1626.47 40.87
7093 45.4620 1640.00 1607.01 40.50
7094 45.4670 1648.00 1586.67 40.60
7095 45.4720 1628.00 1565.60 40.35
7096 45.4770 1564.00 1543.81 39.55
7097 45.4820 1505.00 1521.46 38.79
7098 45.4870 1466.00 1498.67 38.29
7099 45.4920 1454.00 1475.49 38.13
7100 45.4970 1437.00 1452.00 37.91
7101 45.5020 1396.00 1428.33 37.36
7102 45.5070 1353.00 1404.54 36.78
7103 45.5120 1324.00 1380.72 36.39
7104 45.5170 1317.00 1356.92 36.29
7105 45.5220 1274.00 1333.23 35.69
7106 45.5270 1220.00 1309.69 34.93
7107 45.5320 1177.00 1286.38 34.31
7108 45.5370 1167.00 1263.32 34.16
7109 45.5420 1185.00 1240.60 34.42
7110 45.5470 1184.00 1218.22 34.41
7111 45.5520 1178.00 1196.24 34.32
7112 45.5570 1152.00 1174.69 33.94
7113 45.5620 1134.00 1153.60 33.67
7114 45.5670 1093.00 1132.98 33.06
7115 45.5720 1062.00 1112.87 32.59
7116 45.5770 1062.00 1093.28 32.59
7117 45.5820 1038.00 1074.22 32.22
7118 45.5870 978.00 1055.72 31.27
7119 45.5920 938.00 1037.75 30.63
7120 45.5970 935.00 1020.38 30.58
7121 45.6020 902.00 1003.55 30.03
7122 45.6070 896.00 987.30 29.93
7123 45.6120 901.00 971.64 30.02
7124 45.6170 901.00 956.52 30.02
7125 45.6220 876.00 941.99 29.60
7126 45.6270 865.00 928.02 29.41
7127 45.6320 889.00 914.60 29.82
7128 45.6370 899.00 901.74 29.98
7129 45.6420 880.00 889.41 29.66
7130 45.6470 882.00 877.63 29.70
7131 45.6520 895.00 866.36 29.92
7132 45.6570 878.00 855.60 29.63
7133 45.6620 863.00 845.34 29.38
7134 45.6670 823.00 835.58 28.69
7135 45.6720 821.00 826.28 28.65
7136 45.6770 806.00 814.13 28.39
7137 45.6820 794.00 805.75 28.18
7138 45.6870 769.00 797.81 27.73
7139 45.6920 735.00 790.28 27.11
7140 45.6970 703.00 783.15 26.51
7141 45.7020 693.00 776.42 26.32
7142 45.7070 693.00 770.05 26.32
7143 45.7120 704.00 764.03 26.53
7144 45.7170 721.00 758.37 26.85
7145 45.7220 689.00 753.03 26.25
7146 45.7270 665.00 748.00 25.79
7147 45.7320 693.00 743.27 26.32
7148 45.7370 668.00 738.83 25.85
7149 45.7420 673.00 734.65 25.94
7150 45.7470 682.00 730.73 26.12
7151 45.7520 667.00 727.05 25.83
7152 45.7570 710.00 723.61 26.65
7153 45.7620 671.00 720.39 25.90
7154 45.7670 639.00 717.36 25.28
7155 45.7720 626.00 714.54 25.02
7156 45.7770 615.00 711.89 24.80
7157 45.7820 655.00 710.72 25.59
7158 45.7870 669.00 708.41 25.86
7159 45.7920 686.00 706.26 26.19
7160 45.7970 676.00 704.24 26.00
7161 45.8020 659.00 702.36 25.67
7162 45.8070 655.00 700.59 25.59
7163 45.8120 640.00 698.95 25.30
7164 45.8170 661.00 697.41 25.71
7165 45.8220 661.00 695.96 25.71
7166 45.8270 665.00 694.61 25.79
7167 45.8320 668.00 693.34 25.85
7168 45.8370 640.00 692.15 25.30
7169 45.8420 632.00 691.03 25.14
7170 45.8470 632.00 689.97 25.14
7171 45.8520 684.00 688.98 26.15
7172 45.8570 685.00 688.04 26.17
7173 45.8620 674.00 687.14 25.96
7174 45.8670 637.00 686.30 25.24
7175 45.8720 639.00 685.50 25.28
7176 45.8770 684.00 684.73 26.15
7177 45.8820 685.00 684.00 26.17
7178 45.8870 638.00 683.30 25.26
7179 45.8920 624.00 682.64 24.98
7180 45.8970 592.00 682.00 24.33
7181 45.9020 586.00 681.39 24.21
7182 45.9070 601.00 680.80 24.52
7183 45.9120 597.00 680.24 24.43
7184 45.9170 613.00 679.71 24.76
7185 45.9220 600.00 679.20 24.49
7186 45.9270 599.00 678.71 24.47
7187 45.9320 623.00 678.25 24.96
7188 45.9370 613.00 677.82 24.76
7189 45.9420 599.00 677.41 24.47
7190 45.9470 615.00 677.03 24.80
7191 45.9520 648.00 676.67 25.46
7192 45.9570 637.00 676.35 25.24
7193 45.9620 615.00 676.06 24.80
7194 45.9670 584.00 675.80 24.17
7195 45.9720 583.00 675.58 24.15
7196 45.9770 572.00 675.40 23.92
7197 45.9820 590.00 675.25 24.29
7198 45.9870 588.00 675.14 24.25
7199 45.9920 649.00 675.07 25.48
7200 45.9970 686.00 675.03 26.19
7201 46.0020 659.00 675.04 25.67
7202 46.0070 651.00 675.09 25.51
7203 46.0120 665.00 675.19 25.79
7204 46.0170 632.00 675.32 25.14
7205 46.0220 633.00 675.49 25.16
7206 46.0270 632.00 675.71 25.14
7207 46.0320 617.00 675.96 24.84
7208 46.0370 598.00 676.25 24.45
7209 46.0420 599.00 676.57 24.47
7210 46.0470 591.00 676.92 24.31
7211 46.0520 620.00 677.31 24.90
7212 46.0570 611.00 677.72 24.72
7213 46.0620 610.00 678.15 24.70
7214 46.0670 591.00 678.60 24.31
7215 46.0720 593.00 679.07 24.35
7216 46.0770 602.00 679.55 24.54
7217 46.0820 630.00 679.94 25.10
7218 46.0870 629.00 680.42 25.08
7219 46.0920 646.00 680.89 25.42
7220 46.0970 612.00 681.35 24.74
7221 46.1020 610.00 681.80 24.70
7222 46.1070 620.00 682.22 24.90
7223 46.1120 594.00 686.86 24.37
7224 46.1170 590.00 687.24 24.29
7225 46.1220 602.00 687.57 24.54
7226 46.1270 624.00 687.86 24.98
7227 46.1320 657.00 688.10 25.63
7228 46.1370 663.00 688.29 25.75
7229 46.1420 688.00 688.42 26.23
7230 46.1470 683.00 688.49 26.13
7231 46.1520 646.00 688.51 25.42
7232 46.1570 595.00 690.11 24.39
7233 46.1620 602.00 690.01 24.54
7234 46.1670 619.00 689.86 24.88
7235 46.1720 645.00 689.66 25.40
7236 46.1770 621.00 689.40 24.92
7237 46.1820 621.00 689.11 24.92
7238 46.1870 643.00 688.78 25.36
7239 46.1920 636.00 688.43 25.22
7240 46.1970 627.00 688.06 25.04
7241 46.2020 646.00 687.68 25.42
7242 46.2070 671.00 687.30 25.90
7243 46.2120 651.00 686.94 25.51
7244 46.2170 661.00 686.60 25.71
7245 46.2220 664.00 686.29 25.77
7246 46.2270 642.00 686.03 25.34
7247 46.2320 656.00 685.81 25.61
7248 46.2370 682.00 685.66 26.12
7249 46.2420 672.00 685.58 25.92
7250 46.2470 704.00 685.57 26.53
7251 46.2520 686.00 685.64 26.19
7252 46.2570 699.00 685.80 26.44
7253 46.2620 691.00 686.06 26.29
7254 46.2670 681.00 686.41 26.10
7255 46.2720 697.00 686.86 26.40
7256 46.2770 694.00 687.41 26.34
7257 46.2820 671.00 688.07 25.90
7258 46.2870 644.00 688.83 25.38
7259 46.2920 625.00 689.69 25.00
7260 46.2970 632.00 690.66 25.14
7261 46.3020 656.00 691.73 25.61
7262 46.3070 685.00 692.90 26.17
7263 46.3120 660.00 694.54 25.69
7264 46.3170 642.00 695.90 25.34
7265 46.3220 627.00 697.35 25.04
7266 46.3270 631.00 698.88 25.12
7267 46.3320 683.00 700.49 26.13
7268 46.3370 677.00 702.17 26.02
7269 46.3420 670.00 703.92 25.88
7270 46.3470 725.00 705.72 26.93
7271 46.3520 717.00 707.58 26.78
7272 46.3570 720.00 709.47 26.83
7273 46.3620 745.00 711.40 27.29
7274 46.3670 758.00 713.36 27.53
7275 46.3720 734.00 715.33 27.09
7276 46.3770 695.00 717.31 26.36
7277 46.3820 693.00 719.29 26.32
7278 46.3870 721.00 721.25 26.85
7279 46.3920 718.00 723.19 26.80
7280 46.3970 714.00 725.10 26.72
7281 46.4020 724.00 726.97 26.91
7282 46.4070 739.00 728.80 27.18
7283 46.4120 734.00 730.57 27.09
7284 46.4170 722.00 732.27 26.87
7285 46.4220 729.00 733.91 27.00
7286 46.4270 737.00 735.47 27.15
7287 46.4320 738.00 736.96 27.17
7288 46.4370 732.00 738.37 27.06
7289 46.4420 719.00 739.71 26.81
7290 46.4470 729.00 740.97 27.00
7291 46.4520 740.00 742.16 27.20
7292 46.4570 766.00 743.28 27.68
7293 46.4620 801.00 744.34 28.30
7294 46.4670 819.00 745.35 28.62
7295 46.4720 821.00 746.33 28.65
7296 46.4770 816.00 747.27 28.57
7297 46.4820 777.00 748.21 27.87
7298 46.4870 782.00 749.16 27.96
7299 46.4920 787.00 750.12 28.05
7300 46.4970 794.00 751.13 28.18
7301 46.5020 785.00 752.19 28.02
7302 46.5070 752.00 753.33 27.42
7303 46.5120 744.00 754.56 27.28
7304 46.5170 733.00 755.91 27.07
7305 46.5220 759.00 757.39 27.55
7306 46.5270 773.00 759.03 27.80
7307 46.5320 766.00 760.83 27.68
7308 46.5370 756.00 762.81 27.50
7309 46.5420 755.00 764.99 27.48
7310 46.5470 780.00 767.39 27.93
7311 46.5520 819.00 770.01 28.62
7312 46.5570 809.00 772.87 28.44
7313 46.5620 783.00 775.97 27.98
7314 46.5670 756.00 779.34 27.50
7315 46.5720 725.00 782.53 26.93
7316 46.5770 745.00 786.42 27.29
7317 46.5820 786.00 790.59 28.04
7318 46.5870 797.00 795.02 28.23
7319 46.5920 782.00 799.73 27.96
7320 46.5970 794.00 804.71 28.18
7321 46.6020 828.00 809.95 28.77
7322 46.6070 837.00 815.46 28.93
7323 46.6120 838.00 821.21 28.95
7324 46.6170 860.00 827.21 29.33
7325 46.6220 873.00 833.45 29.55
7326 46.6270 835.00 839.90 28.90
7327 46.6320 828.00 846.54 28.77
7328 46.6370 839.00 853.38 28.97
7329 46.6420 843.00 860.37 29.03
7330 46.6470 888.00 867.50 29.80
7331 46.6520 900.00 874.76 30.00
7332 46.6570 908.00 882.10 30.13
7333 46.6620 937.00 889.51 30.61
7334 46.6670 977.00 896.93 31.26
7335 46.6720 970.00 904.35 31.14
7336 46.6770 968.00 911.75 31.11
7337 46.6820 994.00 919.06 31.53
7338 46.6870 1000.00 926.25 31.62
7339 46.6920 998.00 933.30 31.59
7340 46.6970 985.00 940.14 31.38
7341 46.7020 986.00 946.75 31.40
7342 46.7070 992.00 953.07 31.50
7343 46.7120 1004.00 959.06 31.69
7344 46.7170 1016.00 964.69 31.87
7345 46.7220 1032.00 969.89 32.12
7346 46.7270 1028.00 974.63 32.06
7347 46.7320 1038.00 978.88 32.22
7348 46.7370 1088.00 982.58 32.98
7349 46.7420 1103.00 985.70 33.21
7350 46.7470 1085.00 988.21 32.94
7351 46.7520 1080.00 990.08 32.86
7352 46.7570 1077.00 991.28 32.82
7353 46.7620 1072.00 991.80 32.74
7354 46.7670 1091.00 991.64 33.03
7355 46.7720 1113.00 990.77 33.36
7356 46.7770 1111.00 989.20 33.33
7357 46.7820 1091.00 986.95 33.03
7358 46.7870 1080.00 984.03 32.86
7359 46.7920 1060.00 980.47 32.56
7360 46.7970 1051.00 976.29 32.42
7361 46.8020 1059.00 971.54 32.54
7362 46.8070 1046.00 966.24 32.34
7363 46.8120 997.00 960.64 31.58
7364 46.8170 974.00 954.40 31.21
7365 46.8220 989.00 947.78 31.45
7366 46.8270 992.00 940.81 31.50
7367 46.8320 966.00 933.55 31.08
7368 46.8370 955.00 926.04 30.90
7369 46.8420 958.00 918.35 30.95
7370 46.8470 940.00 910.53 30.66
7371 46.8520 920.00 902.60 30.33
7372 46.8570 946.00 894.62 30.76
7373 46.8620 1001.00 886.64 31.64
7374 46.8670 1022.00 878.68 31.97
7375 46.8720 998.00 870.78 31.59
7376 46.8770 961.00 862.97 31.00
7377 46.8820 939.00 855.29 30.64
7378 46.8870 925.00 847.74 30.41
7379 46.8920 888.00 840.36 29.80
7380 46.8970 859.00 833.18 29.31
7381 46.9020 848.00 826.19 29.12
7382 46.9070 831.00 819.41 28.83
7383 46.9120 829.00 812.86 28.79
7384 46.9170 833.00 806.56 28.86
7385 46.9220 825.00 800.49 28.72
7386 46.9270 822.00 794.67 28.67
7387 46.9320 821.00 789.09 28.65
7388 46.9370 816.00 783.78 28.57
7389 46.9420 809.00 778.72 28.44
7390 46.9470 782.00 773.91 27.96
7391 46.9520 757.00 769.34 27.51
7392 46.9570 770.00 765.02 27.75
7393 46.9620 794.00 760.94 28.18
7394 46.9670 800.00 757.08 28.28
7395 46.9720 838.00 753.46 28.95
7396 46.9770 860.00 750.04 29.33
7397 46.9820 819.00 746.83 28.62
7398 46.9870 790.00 743.82 28.11
7399 46.9920 784.00 740.99 28.00
7400 46.9970 776.00 738.33 27.86
7401 47.0020 761.00 735.83 27.59
7402 47.0070 749.00 733.48 27.37
7403 47.0120 747.00 728.01 27.33
7404 47.0170 762.00 725.93 27.60
7405 47.0220 790.00 723.95 28.11
7406 47.0270 794.00 722.07 28.18
7407 47.0320 771.00 720.28 27.77
7408 47.0370 754.00 718.55 27.46
7409 47.0420 736.00 716.88 27.13
7410 47.0470 730.00 715.26 27.02
7411 47.0520 737.00 713.67 27.15
7412 47.0570 739.00 712.11 27.18
7413 47.0620 738.00 710.56 27.17
7414 47.0670 762.00 709.02 27.60
7415 47.0720 761.00 707.47 27.59
7416 47.0770 756.00 705.92 27.50
7417 47.0820 750.00 704.34 27.39
7418 47.0870 735.00 702.76 27.11
7419 47.0920 737.00 701.14 27.15
7420 47.0970 728.00 699.50 26.98
7421 47.1020 736.00 697.83 27.13
7422 47.1070 724.00 696.13 26.91
7423 47.1120 704.00 694.41 26.53
7424 47.1170 692.00 692.65 26.31
7425 47.1220 697.00 690.87 26.40
7426 47.1270 700.00 689.07 26.46
7427 47.1320 688.00 687.26 26.23
7428 47.1370 677.00 685.42 26.02
7429 47.1420 671.00 683.57 25.90
7430 47.1470 671.00 681.72 25.90
7431 47.1520 670.00 679.86 25.88
7432 47.1570 694.00 678.00 26.34
7433 47.1620 703.00 676.15 26.51
7434 47.1670 700.00 674.32 26.46
7435 47.1720 718.00 672.49 26.80
7436 47.1770 739.00 670.67 27.18
7437 47.1820 727.00 668.89 26.96
7438 47.1870 722.00 667.14 26.87
7439 47.1920 741.00 665.42 27.22
7440 47.1970 730.00 663.44 27.02
7441 47.2020 714.00 661.80 26.72
7442 47.2070 704.00 660.21 26.53
7443 47.2120 719.00 658.66 26.81
7444 47.2170 730.00 657.17 27.02
7445 47.2220 692.00 655.73 26.31
7446 47.2270 679.00 654.35 26.06
7447 47.2320 669.00 653.03 25.86
7448 47.2370 643.00 651.77 25.36
7449 47.2420 655.00 650.24 25.59
7450 47.2470 682.00 649.12 26.12
7451 47.2520 709.00 648.07 26.63
7452 47.2570 723.00 647.10 26.89
7453 47.2620 739.00 646.21 27.18
7454 47.2670 753.00 645.39 27.44
7455 47.2720 751.00 644.66 27.40
7456 47.2770 742.00 644.02 27.24
7457 47.2820 731.00 643.46 27.04
7458 47.2870 717.00 642.99 26.78
7459 47.2920 722.00 642.63 26.87
7460 47.2970 731.00 642.35 27.04
7461 47.3020 732.00 642.18 27.06
7462 47.3070 733.00 642.12 27.07
7463 47.3120 728.00 642.17 26.98
7464 47.3170 716.00 642.33 26.76
7465 47.3220 708.00 642.61 26.61
7466 47.3270 682.00 643.01 26.12
7467 47.3320 637.00 643.54 25.24
7468 47.3370 651.00 644.21 25.51
7469 47.3420 670.00 645.03 25.88
7470 47.3470 663.00 645.99 25.75
7471 47.3520 672.00 647.11 25.92
7472 47.3570 699.00 648.40 26.44
7473 47.3620 712.00 649.86 26.68
7474 47.3670 725.00 651.51 26.93
7475 47.3720 736.00 653.36 27.13
7476 47.3770 735.00 673.90 27.11
7477 47.3820 756.00 676.24 27.50
7478 47.3870 780.00 678.81 27.93
7479 47.3920 790.00 681.62 28.11
7480 47.3970 790.00 684.70 28.11
7481 47.4020 757.00 688.06 27.51
7482 47.4070 728.00 691.72 26.98
7483 47.4120 728.00 695.69 26.98
7484 47.4170 727.00 699.98 26.96
7485 47.4220 747.00 704.63 27.33
7486 47.4270 774.00 709.64 27.82
7487 47.4320 803.00 715.03 28.34
7488 47.4370 820.00 720.82 28.64
7489 47.4420 811.00 727.03 28.48
7490 47.4470 819.00 733.67 28.62
7491 47.4520 815.00 740.77 28.55
7492 47.4570 791.00 748.33 28.12
7493 47.4620 809.00 756.36 28.44
7494 47.4670 815.00 764.88 28.55
7495 47.4720 813.00 773.88 28.51
7496 47.4770 854.00 783.38 29.22
7497 47.4820 884.00 793.37 29.73
7498 47.4870 867.00 803.84 29.44
7499 47.4920 845.00 814.82 29.07
7500 47.4970 840.00 826.25 28.98
7501 47.5020 849.00 838.14 29.14
7502 47.5070 842.00 850.44 29.02
7503 47.5120 806.00 863.15 28.39
7504 47.5170 804.00 876.24 28.35
7505 47.5220 829.00 889.63 28.79
7506 47.5270 841.00 903.31 29.00
7507 47.5320 857.00 917.22 29.27
7508 47.5370 873.00 931.27 29.55
7509 47.5420 903.00 945.39 30.05
7510 47.5470 944.00 959.52 30.72
7511 47.5520 986.00 973.53 31.40
7512 47.5570 999.00 987.34 31.61
7513 47.5620 984.00 1000.80 31.37
7514 47.5670 968.00 1013.81 31.11
7515 47.5720 995.00 1026.21 31.54
7516 47.5770 1056.00 1037.84 32.50
7517 47.5820 1078.00 1048.55 32.83
7518 47.5870 1049.00 1058.17 32.39
7519 47.5920 1033.00 1066.53 32.14
7520 47.5970 1031.00 1073.45 32.11
7521 47.6020 999.00 1078.80 31.61
7522 47.6070 1008.00 1082.42 31.75
7523 47.6120 1039.00 1084.22 32.23
7524 47.6170 1041.00 1084.11 32.26
7525 47.6220 1027.00 1082.06 32.05
7526 47.6270 997.00 1078.08 31.58
7527 47.6320 983.00 1072.23 31.35
7528 47.6370 986.00 1064.62 31.40
7529 47.6420 998.00 1055.38 31.59
7530 47.6470 1010.00 1044.72 31.78
7531 47.6520 1024.00 1032.81 32.00
7532 47.6570 1046.00 1019.91 32.34
7533 47.6620 1067.00 1006.24 32.67
7534 47.6670 1083.00 992.01 32.91
7535 47.6720 1080.00 977.45 32.86
7536 47.6770 1075.00 962.75 32.79
7537 47.6820 1055.00 948.06 32.48
7538 47.6870 1031.00 933.57 32.11
7539 47.6920 1039.00 919.36 32.23
7540 47.6970 1032.00 905.57 32.12
7541 47.7020 1005.00 892.26 31.70
7542 47.7070 989.00 879.47 31.45
7543 47.7120 955.00 867.27 30.90
7544 47.7170 932.00 855.69 30.53
7545 47.7220 945.00 844.73 30.74
7546 47.7270 959.00 834.40 30.97
7547 47.7320 953.00 824.70 30.87
7548 47.7370 946.00 815.63 30.76
7549 47.7420 957.00 807.17 30.94
7550 47.7470 963.00 799.29 31.03
7551 47.7520 941.00 791.99 30.68
7552 47.7570 944.00 785.24 30.72
7553 47.7620 961.00 779.01 31.00
7554 47.7670 958.00 773.27 30.95
7555 47.7720 977.00 768.00 31.26
7556 47.7770 970.00 763.17 31.14
7557 47.7820 941.00 758.76 30.68
7558 47.7870 924.00 754.72 30.40
7559 47.7920 922.00 751.05 30.36
7560 47.7970 920.00 747.71 30.33
7561 47.8020 906.00 744.67 30.10
7562 47.8070 879.00 741.91 29.65
7563 47.8120 859.00 739.41 29.31
7564 47.8170 896.00 737.14 29.93
7565 47.8220 903.00 735.08 30.05
7566 47.8270 863.00 733.22 29.38
7567 47.8320 858.00 731.52 29.29
7568 47.8370 836.00 729.98 28.91
7569 47.8420 824.00 728.58 28.71
7570 47.8470 843.00 727.31 29.03
7571 47.8520 845.00 726.15 29.07
7572 47.8570 826.00 725.09 28.74
7573 47.8620 827.00 724.12 28.76
7574 47.8670 840.00 723.23 28.98
7575 47.8720 838.00 722.41 28.95
7576 47.8770 842.00 721.66 29.02
7577 47.8820 839.00 720.97 28.97
7578 47.8870 849.00 720.33 29.14
7579 47.8920 842.00 719.75 29.02
7580 47.8970 824.00 719.22 28.71
7581 47.9020 788.00 718.75 28.07
7582 47.9070 751.00 718.32 27.40
7583 47.9120 755.00 717.93 27.48
7584 47.9170 774.00 717.60 27.82
7585 47.9220 772.00 714.94 27.78
7586 47.9270 755.00 714.72 27.48
7587 47.9320 719.00 714.55 26.81
7588 47.9370 701.00 714.43 26.48
7589 47.9420 710.00 714.37 26.65
7590 47.9470 727.00 714.37 26.96
7591 47.9520 742.00 714.43 27.24
7592 47.9570 762.00 714.55 27.60
7593 47.9620 772.00 714.74 27.78
7594 47.9670 774.00 714.99 27.82
7595 47.9720 772.00 715.31 27.78
7596 47.9770 746.00 715.71 27.31
7597 47.9820 709.00 716.17 26.63
7598 47.9870 695.00 716.71 26.36
7599 47.9920 698.00 717.33 26.42
7600 47.9970 715.00 718.03 26.74
7601 48.0020 708.00 718.80 26.61
7602 48.0070 699.00 719.67 26.44
7603 48.0120 697.00 720.61 26.40
7604 48.0170 674.00 721.65 25.96
7605 48.0220 681.00 722.77 26.10
7606 48.0270 698.00 723.98 26.42
7607 48.0320 711.00 725.28 26.66
7608 48.0370 728.00 726.68 26.98
7609 48.0420 739.00 728.17 27.18
7610 48.0470 761.00 729.77 27.59
7611 48.0520 737.00 731.46 27.15
7612 48.0570 699.00 733.25 26.44
7613 48.0620 704.00 735.15 26.53
7614 48.0670 731.00 737.16 27.04
7615 48.0720 756.00 739.28 27.50
7616 48.0770 779.00 741.51 27.91
7617 48.0820 781.00 743.86 27.95
7618 48.0870 745.00 746.33 27.29
7619 48.0920 719.00 748.93 26.81
7620 48.0970 731.00 751.66 27.04
7621 48.1020 704.00 754.52 26.53
7622 48.1070 695.00 757.53 26.36
7623 48.1120 697.00 760.67 26.40
7624 48.1170 717.00 762.40 26.78
7625 48.1220 726.00 765.86 26.94
7626 48.1270 714.00 769.50 26.72
7627 48.1320 712.00 773.31 26.68
7628 48.1370 715.00 777.30 26.74
7629 48.1420 755.00 781.49 27.48
7630 48.1470 778.00 785.86 27.89
7631 48.1520 801.00 790.46 28.30
7632 48.1570 833.00 795.27 28.86
7633 48.1620 855.00 800.30 29.24
7634 48.1670 870.00 805.58 29.50
7635 48.1720 885.00 811.10 29.75
7636 48.1770 892.00 816.88 29.87
7637 48.1820 884.00 822.93 29.73
7638 48.1870 912.00 829.24 30.20
7639 48.1920 926.00 835.86 30.43
7640 48.1970 911.00 842.77 30.18
7641 48.2020 892.00 849.98 29.87
7642 48.2070 863.00 857.51 29.38
7643 48.2120 854.00 865.38 29.22
7644 48.2170 867.00 873.58 29.44
7645 48.2220 884.00 882.13 29.73
7646 48.2270 919.00 891.03 30.32
7647 48.2320 943.00 900.31 30.71
7648 48.2370 950.00 909.96 30.82
7649 48.2420 958.00 919.99 30.95
7650 48.2470 955.00 930.42 30.90
7651 48.2520 948.00 941.26 30.79
7652 48.2570 965.00 952.50 31.06
7653 48.2620 1003.00 964.16 31.67
7654 48.2670 1007.00 976.27 31.73
7655 48.2720 1002.00 988.79 31.65
7656 48.2770 1057.00 1001.76 32.51
7657 48.2820 1068.00 1015.18 32.68
7658 48.2870 1061.00 1029.05 32.57
7659 48.2920 1093.00 1043.38 33.06
7660 48.2970 1116.00 1058.18 33.41
7661 48.3020 1123.00 1073.44 33.51
7662 48.3070 1145.00 1089.18 33.84
7663 48.3120 1165.00 1105.36 34.13
7664 48.3170 1200.00 1122.05 34.64
7665 48.3220 1208.00 1139.19 34.76
7666 48.3270 1231.00 1156.79 35.09
7667 48.3320 1236.00 1174.74 35.16
7668 48.3370 1227.00 1193.29 35.03
7669 48.3420 1261.00 1212.29 35.51
7670 48.3470 1297.00 1231.74 36.01
7671 48.3520 1340.00 1251.64 36.61
7672 48.3570 1388.00 1271.99 37.26
7673 48.3620 1416.00 1292.73 37.63
7674 48.3670 1430.00 1313.90 37.82
7675 48.3720 1467.00 1335.47 38.30
7676 48.3770 1465.00 1357.41 38.28
7677 48.3820 1454.00 1379.69 38.13
7678 48.3870 1490.00 1402.34 38.60
7679 48.3920 1529.00 1425.29 39.10
7680 48.3970 1597.00 1448.52 39.96
7681 48.4020 1624.00 1477.32 40.30
7682 48.4070 1649.00 1501.09 40.61
7683 48.4120 1667.00 1525.08 40.83
7684 48.4170 1706.00 1549.22 41.30
7685 48.4220 1735.00 1573.51 41.65
7686 48.4270 1730.00 1597.93 41.59
7687 48.4320 1735.00 1622.41 41.65
7688 48.4370 1770.00 1646.90 42.07
7689 48.4420 1804.00 1671.43 42.47
7690 48.4470 1818.00 1695.89 42.64
7691 48.4520 1858.00 1720.25 43.10
7692 48.4570 1902.00 1744.52 43.61
7693 48.4620 1920.00 1768.61 43.82
7694 48.4670 1915.00 1805.13 43.76
7695 48.4720 1945.00 1828.79 44.10
7696 48.4770 1980.00 1852.18 44.50
7697 48.4820 2021.00 1875.25 44.96
7698 48.4870 2015.00 1897.93 44.89
7699 48.4920 2023.00 1920.22 44.98
7700 48.4970 2092.00 1942.08 45.74
7701 48.5020 2150.00 1963.45 46.37
7702 48.5070 2123.00 1984.31 46.08
7703 48.5120 2106.00 2004.64 45.89
7704 48.5170 2081.00 2024.39 45.62
7705 48.5220 2097.00 2043.54 45.79
7706 48.5270 2133.00 2062.08 46.18
7707 48.5320 2138.00 2079.97 46.24
7708 48.5370 2167.00 2097.21 46.55
7709 48.5420 2202.00 2125.29 46.93
7710 48.5470 2223.00 2141.20 47.15
7711 48.5520 2252.00 2161.92 47.46
7712 48.5570 2293.00 2176.43 47.89
7713 48.5620 2314.00 2190.23 48.10
7714 48.5670 2290.00 2203.32 47.85
7715 48.5720 2268.00 2215.70 47.62
7716 48.5770 2258.00 2227.38 47.52
7717 48.5820 2255.00 2238.37 47.49
7718 48.5870 2282.00 2248.67 47.77
7719 48.5920 2297.00 2258.32 47.93
7720 48.5970 2334.00 2267.30 48.31
7721 48.6020 2282.00 2275.65 47.77
7722 48.6070 2273.00 2283.38 47.68
7723 48.6120 2247.00 2290.50 47.40
7724 48.6170 2225.00 2297.04 47.17
7725 48.6220 2213.00 2302.99 47.04
7726 48.6270 2218.00 2308.37 47.10
7727 48.6320 2249.00 2313.19 47.42
7728 48.6370 2264.00 2317.45 47.58
7729 48.6420 2243.00 2321.16 47.36
7730 48.6470 2253.00 2324.29 47.47
7731 48.6520 2270.00 2327.83 47.64
7732 48.6570 2304.00 2329.81 48.00
7733 48.6620 2272.00 2331.18 47.67
7734 48.6670 2234.00 2339.11 47.27
7735 48.6720 2224.00 2339.22 47.16
7736 48.6770 2195.00 2338.65 46.85
7737 48.6820 2168.00 2337.36 46.56
7738 48.6870 2162.00 2335.32 46.50
7739 48.6920 2166.00 2332.50 46.54
7740 48.6970 2156.00 2328.84 46.43
7741 48.7020 2131.00 2324.34 46.16
7742 48.7070 2098.00 2318.93 45.80
7743 48.7120 2045.00 2312.58 45.22
7744 48.7170 2045.00 2305.27 45.22
7745 48.7220 2065.00 2296.97 45.44
7746 48.7270 2074.00 2287.42 45.54
7747 48.7320 2086.00 2277.05 45.67
7748 48.7370 2071.00 2265.64 45.51
7749 48.7420 2041.00 2253.15 45.18
7750 48.7470 2059.00 2239.60 45.38
7751 48.7520 2035.00 2224.98 45.11
7752 48.7570 1998.00 2209.32 44.70
7753 48.7620 1958.00 2192.62 44.25
7754 48.7670 2001.00 2174.89 44.73
7755 48.7720 1991.00 2156.21 44.62
7756 48.7770 1931.00 2136.58 43.94
7757 48.7820 1918.00 2116.03 43.79
7758 48.7870 1930.00 2094.65 43.93
7759 48.7920 1908.00 2072.49 43.68
7760 48.7970 1836.00 2049.56 42.85
7761 48.8020 1760.00 2025.97 41.95
7762 48.8070 1740.00 2001.76 41.71
7763 48.8120 1702.00 1977.03 41.26
7764 48.8170 1689.00 1951.80 41.10
7765 48.8220 1671.00 1926.14 40.88
7766 48.8270 1628.00 1900.18 40.35
7767 48.8320 1625.00 1873.91 40.31
7768 48.8370 1568.00 1847.41 39.60
7769 48.8420 1588.00 1820.78 39.85
7770 48.8470 1637.00 1794.05 40.46
7771 48.8520 1582.00 1767.28 39.77
7772 48.8570 1578.00 1740.54 39.72
7773 48.8620 1499.00 1713.86 38.72
7774 48.8670 1439.00 1687.31 37.93
7775 48.8720 1375.00 1660.92 37.08
7776 48.8770 1394.00 1634.72 37.34
7777 48.8820 1379.00 1608.81 37.13
7778 48.8870 1331.00 1583.14 36.48
7779 48.8920 1304.00 1557.52 36.11
7780 48.8970 1266.00 1532.56 35.58
7781 48.9020 1270.00 1507.94 35.64
7782 48.9070 1263.00 1483.73 35.54
7783 48.9120 1224.00 1459.95 34.99
7784 48.9170 1194.00 1436.61 34.55
7785 48.9220 1192.00 1413.73 34.53
7786 48.9270 1152.00 1391.33 33.94
7787 48.9320 1132.00 1369.41 33.65
7788 48.9370 1159.00 1348.02 34.04
7789 48.9420 1129.00 1327.10 33.60
7790 48.9470 1087.00 1306.73 32.97
7791 48.9520 1095.00 1286.89 33.09
7792 48.9570 1060.00 1267.56 32.56
7793 48.9620 1042.00 1248.78 32.28
7794 48.9670 1048.00 1230.53 32.37
7795 48.9720 1021.00 1212.83 31.95
7796 48.9770 972.00 1195.66 31.18
7797 48.9820 967.00 1179.01 31.10
7798 48.9870 969.00 1162.92 31.13
7799 48.9920 935.00 1147.36 30.58
7800 48.9970 895.00 1132.31 29.92
7801 49.0020 883.00 1117.79 29.72
7802 49.0070 874.00 1103.80 29.56
7803 49.0120 871.00 1090.29 29.51
7804 49.0170 835.00 1077.30 28.90
7805 49.0220 813.00 1064.81 28.51
7806 49.0270 812.00 1052.79 28.50
7807 49.0320 792.00 1040.38 28.14
7808 49.0370 792.00 1029.31 28.14
7809 49.0420 803.00 1018.71 28.34
7810 49.0470 790.00 1008.55 28.11
7811 49.0520 784.00 998.83 28.00
7812 49.0570 829.00 989.53 28.79
7813 49.0620 853.00 980.66 29.21
7814 49.0670 812.00 973.18 28.50
7815 49.0720 780.00 965.10 27.93
7816 49.0770 764.00 957.41 27.64
7817 49.0820 764.00 950.08 27.64
7818 49.0870 754.00 943.11 27.46
7819 49.0920 760.00 936.49 27.57
7820 49.0970 757.00 930.21 27.51
7821 49.1020 753.00 924.26 27.44
7822 49.1070 704.00 918.61 26.53
7823 49.1120 694.00 913.38 26.34
7824 49.1170 733.00 906.82 27.07
7825 49.1220 726.00 902.05 26.94
7826 49.1270 742.00 897.56 27.24
7827 49.1320 729.00 893.33 27.00
7828 49.1370 744.00 889.35 27.28
7829 49.1420 742.00 885.51 27.24
7830 49.1470 718.00 882.00 26.80
7831 49.1520 699.00 878.71 26.44
7832 49.1570 689.00 875.64 26.25
7833 49.1620 673.00 872.76 25.94
7834 49.1670 702.00 870.09 26.50
7835 49.1720 704.00 867.59 26.53
7836 49.1770 716.00 865.28 26.76
7837 49.1820 705.00 863.14 26.55
7838 49.1870 689.00 861.16 26.25
7839 49.1920 686.00 859.35 26.19
7840 49.1970 691.00 857.68 26.29
7841 49.2020 710.00 856.15 26.65
7842 49.2070 651.00 854.77 25.51
7843 49.2120 661.00 853.51 25.71
7844 49.2170 660.00 852.39 25.69
7845 49.2220 647.00 851.38 25.44
7846 49.2270 618.00 850.50 24.86
7847 49.2320 640.00 849.72 25.30
7848 49.2370 604.00 849.05 24.58
7849 49.2420 610.00 848.49 24.70
7850 49.2470 590.00 848.03 24.29
7851 49.2520 622.00 847.67 24.94
7852 49.2570 656.00 847.39 25.61
7853 49.2620 672.00 847.21 25.92
7854 49.2670 711.00 847.12 26.66
7855 49.2720 664.00 847.11 25.77
7856 49.2770 611.00 847.18 24.72
7857 49.2820 626.00 847.33 25.02
7858 49.2870 639.00 847.56 25.28
7859 49.2920 624.00 847.86 24.98
7860 49.2970 609.00 848.24 24.68
7861 49.3020 601.00 848.69 24.52
7862 49.3070 612.00 849.21 24.74
7863 49.3120 645.00 849.80 25.40
7864 49.3170 639.00 850.46 25.28
7865 49.3220 627.00 851.18 25.04
7866 49.3270 618.00 851.97 24.86
7867 49.3320 623.00 852.82 24.96
7868 49.3370 595.00 853.74 24.39
7869 49.3420 634.00 854.72 25.18
7870 49.3470 673.00 855.77 25.94
7871 49.3520 684.00 856.87 26.15
7872 49.3570 642.00 858.04 25.34
7873 49.3620 648.00 859.27 25.46
7874 49.3670 692.00 860.57 26.31
7875 49.3720 692.00 861.92 26.31
7876 49.3770 644.00 863.34 25.38
7877 49.3820 643.00 864.82 25.36
7878 49.3870 640.00 866.36 25.30
7879 49.3920 668.00 867.97 25.85
7880 49.3970 672.00 869.63 25.92
7881 49.4020 674.00 871.36 25.96
7882 49.4070 625.00 873.16 25.00
7883 49.4120 646.00 875.02 25.42
7884 49.4170 675.00 876.94 25.98
7885 49.4220 681.00 878.93 26.10
7886 49.4270 696.00 880.91 26.38
7887 49.4320 702.00 883.04 26.50
7888 49.4370 714.00 885.23 26.72
7889 49.4420 673.00 887.50 25.94
7890 49.4470 692.00 889.84 26.31
7891 49.4520 711.00 892.24 26.66
7892 49.4570 713.00 894.72 26.70
7893 49.4620 721.00 897.28 26.85
7894 49.4670 739.00 899.92 27.18
7895 49.4720 760.00 902.63 27.57
7896 49.4770 738.00 905.42 27.17
7897 49.4820 744.00 908.29 27.28
7898 49.4870 757.00 911.25 27.51
7899 49.4920 742.00 914.30 27.24
7900 49.4970 761.00 917.43 27.59
7901 49.5020 774.00 920.65 27.82
7902 49.5070 751.00 923.96 27.40
7903 49.5120 722.00 927.37 26.87
7904 49.5170 738.00 930.88 27.17
7905 49.5220 760.00 934.48 27.57
7906 49.5270 762.00 938.19 27.60
7907 49.5320 766.00 942.01 27.68
7908 49.5370 776.00 945.93 27.86
7909 49.5420 808.00 949.97 28.43
7910 49.5470 822.00 954.12 28.67
7911 49.5520 860.00 958.40 29.33
7912 49.5570 883.00 962.79 29.72
7913 49.5620 908.00 967.31 30.13
7914 49.5670 901.00 971.97 30.02
7915 49.5720 921.00 976.77 30.35
7916 49.5770 971.00 981.70 31.16
7917 49.5820 950.00 986.78 30.82
7918 49.5870 964.00 992.01 31.05
7919 49.5920 985.00 997.41 31.38
7920 49.5970 1041.00 1002.96 32.26
7921 49.6020 1045.00 1008.68 32.33
7922 49.6070 1042.00 1014.59 32.28
7923 49.6120 1048.00 1020.66 32.37
7924 49.6170 1101.00 1026.94 33.18
7925 49.6220 1123.00 1033.41 33.51
7926 49.6270 1138.00 1040.09 33.73
7927 49.6320 1199.00 1046.98 34.63
7928 49.6370 1209.00 1054.10 34.77
7929 49.6420 1204.00 1061.45 34.70
7930 49.6470 1199.00 1069.04 34.63
7931 49.6520 1217.00 1076.90 34.89
7932 49.6570 1216.00 1085.01 34.87
7933 49.6620 1230.00 1093.41 35.07
7934 49.6670 1255.00 1102.09 35.43
7935 49.6720 1326.00 1111.08 36.41
7936 49.6770 1318.00 1120.39 36.30
7937 49.6820 1336.00 1130.02 36.55
7938 49.6870 1368.00 1140.00 36.99
7939 49.6920 1380.00 1150.36 37.15
7940 49.6970 1417.00 1161.08 37.64
7941 49.7020 1413.00 1172.21 37.59
7942 49.7070 1396.00 1183.75 37.36
7943 49.7120 1415.00 1195.73 37.62
7944 49.7170 1479.00 1208.18 38.46
7945 49.7220 1496.00 1221.09 38.68
7946 49.7270 1512.00 1234.51 38.88
7947 49.7320 1508.00 1248.47 38.83
7948 49.7370 1510.00 1262.95 38.86
7949 49.7420 1536.00 1278.02 39.19
7950 49.7470 1572.00 1293.70 39.65
7951 49.7520 1618.00 1310.01 40.22
7952 49.7570 1661.00 1326.97 40.76
7953 49.7620 1727.00 1344.62 41.56
7954 49.7670 1762.00 1362.99 41.98
7955 49.7720 1787.00 1382.11 42.27
7956 49.7770 1811.00 1402.02 42.56
7957 49.7820 1803.00 1422.74 42.46
7958 49.7870 1832.00 1444.33 42.80
7959 49.7920 1862.00 1466.78 43.15
7960 49.7970 1855.00 1490.19 43.07
7961 49.8020 1887.00 1514.54 43.44
7962 49.8070 1909.00 1539.90 43.69
7963 49.8120 1881.00 1566.29 43.37
7964 49.8170 1885.00 1593.76 43.42
7965 49.8220 1890.00 1622.35 43.47
7966 49.8270 1944.00 1652.10 44.09
7967 49.8320 2021.00 1683.05 44.96
7968 49.8370 2042.00 1715.26 45.19
7969 49.8420 2046.00 1748.73 45.23
7970 49.8470 2080.00 1783.49 45.61
7971 49.8520 2120.00 1819.66 46.04
7972 49.8570 2166.00 1857.21 46.54
7973 49.8620 2204.00 1896.18 46.95
7974 49.8670 2244.00 1936.67 47.37
7975 49.8720 2246.00 1978.66 47.39
7976 49.8770 2223.00 2022.19 47.15
7977 49.8820 2199.00 2067.32 46.89
7978 49.8870 2231.00 2114.07 47.23
7979 49.8920 2254.00 2162.50 47.48
7980 49.8970 2289.00 2212.55 47.84
7981 49.9020 2359.00 2264.35 48.57
7982 49.9070 2411.00 2317.92 49.10
7983 49.9120 2460.00 2373.21 49.60
7984 49.9170 2481.00 2430.25 49.81
7985 49.9220 2516.00 2489.16 50.16
7986 49.9270 2570.00 2549.84 50.70
7987 49.9320 2592.00 2612.38 50.91
7988 49.9370 2666.00 2676.67 51.63
7989 49.9420 2732.00 2742.82 52.27
7990 49.9470 2771.00 2810.84 52.64
7991 49.9520 2823.00 2880.58 53.13
7992 49.9570 2925.00 2952.17 54.08
7993 49.9620 2998.00 3025.60 54.75
7994 49.9670 3059.00 3100.72 55.31
7995 49.9720 3102.00 3177.52 55.70
7996 49.9770 3133.00 3256.11 55.97
7997 49.9820 3179.00 3336.28 56.38
7998 49.9870 3265.00 3417.97 57.14
7999 49.9920 3304.00 3501.30 57.48
8000 49.9970 3359.00 3586.02 57.96
8001 50.0020 3454.00 3672.17 58.77
8002 50.0070 3544.00 3759.47 59.53
8003 50.0120 3595.00 3848.01 59.96
8004 50.0170 3630.00 3937.68 60.25
8005 50.0220 3721.00 4028.17 61.00
8006 50.0270 3786.00 4119.53 61.53
8007 50.0320 3883.00 4211.62 62.31
8008 50.0370 3977.00 4304.16 63.06
8009 50.0420 4051.00 4397.04 63.65
8010 50.0470 4167.00 4490.08 64.55
8011 50.0520 4259.00 4583.09 65.26
8012 50.0570 4407.00 4675.93 66.39
8013 50.0620 4533.00 4768.18 67.33
8014 50.0670 4663.00 4859.80 68.29
8015 50.0720 4730.00 4950.55 68.78
8016 50.0770 4853.00 5040.00 69.66
8017 50.0820 4961.00 5128.12 70.43
8018 50.0870 5001.00 5214.45 70.72
8019 50.0920 4995.00 5298.77 70.68
8020 50.0970 5052.00 5380.79 71.08
8021 50.1020 5145.00 5460.21 71.73
8022 50.1070 5255.00 5536.73 72.49
8023 50.1120 5313.00 5610.03 72.89
8024 50.1170 5343.00 5679.83 73.10
8025 50.1220 5390.00 5745.84 73.42
8026 50.1270 5481.00 5807.69 74.03
8027 50.1320 5562.00 5865.08 74.58
8028 50.1370 5643.00 5917.75 75.12
8029 50.1420 5702.00 5965.53 75.51
8030 50.1470 5754.00 6008.07 75.86
8031 50.1520 5799.00 6045.22 76.15
8032 50.1570 5883.00 6076.70 76.70
8033 50.1620 5952.00 6102.36 77.15
8034 50.1670 6002.00 6122.04 77.47
8035 50.1720 6078.00 6135.65 77.96
8036 50.1770 6115.00 6143.08 78.20
8037 50.1820 6103.00 6144.31 78.12
8038 50.1870 6053.00 6139.34 77.80
8039 50.1920 6055.00 6128.20 77.81
8040 50.1970 6025.00 6110.97 77.62
8041 50.2020 5953.00 6087.79 77.16
8042 50.2070 5825.00 6058.76 76.32
8043 50.2120 5777.00 6024.11 76.01
8044 50.2170 5785.00 5984.02 76.06
8045 50.2220 5800.00 5938.83 76.16
8046 50.2270 5743.00 5888.74 75.78
8047 50.2320 5627.00 5834.02 75.01
8048 50.2370 5570.00 5775.12 74.63
8049 50.2420 5499.00 5712.24 74.16
8050 50.2470 5471.00 5645.73 73.97
8051 50.2520 5444.00 5576.02 73.78
8052 50.2570 5404.00 5503.48 73.51
8053 50.2620 5372.00 5428.28 73.29
8054 50.2670 5283.00 5350.94 72.68
8055 50.2720 5227.00 5271.80 72.30
8056 50.2770 5146.00 5191.02 71.74
8057 50.2820 5027.00 5109.07 70.90
8058 50.2870 4903.00 5026.17 70.02
8059 50.2920 4778.00 4942.76 69.12
8060 50.2970 4655.00 4858.96 68.23
8061 50.3020 4607.00 4775.02 67.87
8062 50.3070 4581.00 4691.31 67.68
8063 50.3120 4497.00 4608.05 67.06
8064 50.3170 4399.00 4525.30 66.32
8065 50.3220 4299.00 4443.41 65.57
8066 50.3270 4231.00 4362.53 65.05
8067 50.3320 4185.00 4282.81 64.69
8068 50.3370 4141.00 4204.42 64.35
8069 50.3420 4092.00 4127.44 63.97
8070 50.3470 4048.00 4052.17 63.62
8071 50.3520 4010.00 3978.57 63.32
8072 50.3570 3937.00 3906.75 62.75
8073 50.3620 3877.00 3836.94 62.27
8074 50.3670 3818.00 3769.06 61.79
8075 50.3720 3762.00 3703.31 61.34
8076 50.3770 3726.00 3639.72 61.04
8077 50.3820 3661.00 3578.34 60.51
8078 50.3870 3603.00 3519.24 60.03
8079 50.3920 3544.00 3462.45 59.53
8080 50.3970 3452.00 3408.00 58.75
8081 50.4020 3374.00 3355.94 58.09
8082 50.4070 3307.00 3306.29 57.51
8083 50.4120 3290.00 3259.02 57.36
8084 50.4170 3288.00 3214.26 57.34
8085 50.4220 3234.00 3171.89 56.87
8086 50.4270 3173.00 3131.99 56.33
8087 50.4320 3141.00 3094.55 56.04
8088 50.4370 3123.00 3059.54 55.88
8089 50.4420 3085.00 3026.98 55.54
8090 50.4470 3073.00 2996.83 55.43
8091 50.4520 3070.00 2969.09 55.41
8092 50.4570 3065.00 2943.75 55.36
8093 50.4620 3099.00 2920.75 55.67
8094 50.4670 3095.00 2900.08 55.63
8095 50.4720 3058.00 2881.78 55.30
8096 50.4770 3049.00 2865.75 55.22
8097 50.4820 3013.00 2852.00 54.89
8098 50.4870 2966.00 2840.48 54.46
8099 50.4920 2909.00 2831.15 53.94
8100 50.4970 2897.00 2824.00 53.82
8101 50.5020 2938.00 2818.98 54.20
8102 50.5070 2958.00 2816.08 54.39
8103 50.5120 2960.00 2815.22 54.41
8104 50.5170 2958.00 2816.40 54.39
8105 50.5220 2948.00 2819.57 54.30
8106 50.5270 2934.00 2824.70 54.17
8107 50.5320 2963.00 2831.76 54.43
8108 50.5370 3017.00 2840.69 54.93
8109 50.5420 3017.00 2851.47 54.93
8110 50.5470 3011.00 2864.07 54.87
8111 50.5520 3072.00 2878.44 55.43
8112 50.5570 3123.00 2894.46 55.88
8113 50.5620 3148.00 2912.26 56.11
8114 50.5670 3192.00 2931.74 56.50
8115 50.5720 3224.00 2952.86 56.78
8116 50.5770 3246.00 2975.54 56.97
8117 50.5820 3254.00 2999.96 57.04
8118 50.5870 3251.00 3025.76 57.02
8119 50.5920 3286.00 3053.01 57.32
8120 50.5970 3355.00 3081.70 57.92
8121 50.6020 3408.00 3111.83 58.38
8122 50.6070 3425.00 3143.32 58.52
8123 50.6120 3422.00 3176.13 58.50
8124 50.6170 3420.00 3210.25 58.48
8125 50.6220 3463.00 3245.61 58.85
8126 50.6270 3546.00 3282.22 59.55
8127 50.6320 3612.00 3319.94 60.10
8128 50.6370 3660.00 3358.83 60.50
8129 50.6420 3719.00 3398.82 60.98
8130 50.6470 3770.00 3439.81 61.40
8131 50.6520 3788.00 3481.85 61.55
8132 50.6570 3833.00 3524.81 61.91
8133 50.6620 3919.00 3568.67 62.60
8134 50.6670 3982.00 3613.39 63.10
8135 50.6720 4040.00 3658.91 63.56
8136 50.6770 4136.00 3705.18 64.31
8137 50.6820 4222.00 3752.18 64.98
8138 50.6870 4243.00 3799.75 65.14
8139 50.6920 4269.00 3847.95 65.34
8140 50.6970 4304.00 3896.72 65.60
8141 50.7020 4365.00 3945.90 66.07
8142 50.7070 4463.00 3995.57 66.81
8143 50.7120 4527.00 4045.58 67.28
8144 50.7170 4593.00 4095.90 67.77
8145 50.7220 4668.00 4146.48 68.32
8146 50.7270 4676.00 4197.28 68.38
8147 50.7320 4727.00 4248.25 68.75
8148 50.7370 4813.00 4299.35 69.38
8149 50.7420 4868.00 4350.55 69.77
8150 50.7470 4907.00 4401.84 70.05
8151 50.7520 4980.00 4453.15 70.57
8152 50.7570 5062.00 4504.46 71.15
8153 50.7620 5143.00 4555.87 71.71
8154 50.7670 5205.00 4607.28 72.15
8155 50.7720 5225.00 4658.73 72.28
8156 50.7770 5262.00 4710.33 72.54
8157 50.7820 5285.00 4762.04 72.70
8158 50.7870 5326.00 4813.98 72.98
8159 50.7920 5398.00 4866.10 73.47
8160 50.7970 5443.00 4918.60 73.78
8161 50.8020 5492.00 4971.55 74.11
8162 50.8070 5527.00 5024.98 74.34
8163 50.8120 5538.00 5078.99 74.42
8164 50.8170 5619.00 5133.79 74.96
8165 50.8220 5731.00 5189.39 75.70
8166 50.8270 5767.00 5245.89 75.94
8167 50.8320 5782.00 5303.52 76.04
8168 50.8370 5815.00 5362.29 76.26
8169 50.8420 5863.00 5422.37 76.57
8170 50.8470 5912.00 5483.77 76.89
8171 50.8520 5961.00 5546.71 77.21
8172 50.8570 6024.00 5611.31 77.61
8173 50.8620 6113.00 5677.52 78.19
8174 50.8670 6118.00 5745.59 78.22
8175 50.8720 6119.00 5815.61 78.22
8176 50.8770 6131.00 5887.56 78.30
8177 50.8820 6228.00 5961.54 78.92
8178 50.8870 6261.00 6037.78 79.13
8179 50.8920 6250.00 6116.18 79.06
8180 50.8970 6297.00 6196.87 79.35
8181 50.9020 6390.00 6279.90 79.94
8182 50.9070 6499.00 6365.32 80.62
8183 50.9120 6560.00 6453.24 80.99
8184 50.9170 6565.00 6543.51 81.02
8185 50.9220 6595.00 6636.33 81.21
8186 50.9270 6660.00 6731.73 81.61
8187 50.9320 6708.00 6829.56 81.90
8188 50.9370 6762.00 6929.83 82.23
8189 50.9420 6857.00 7032.71 82.81
8190 50.9470 7013.00 7137.96 83.74
8191 50.9520 7099.00 7245.60 84.26
8192 50.9570 7221.00 7355.58 84.98
8193 50.9620 7332.00 7467.80 85.63
8194 50.9670 7467.00 7582.26 86.41
8195 50.9720 7575.00 7698.60 87.03
8196 50.9770 7635.00 7816.93 87.38
8197 50.9820 7731.00 7937.10 87.93
8198 50.9870 7788.00 8058.82 88.25
8199 50.9920 7818.00 8182.00 88.42
8200 50.9970 7981.00 8306.31 89.34
8201 51.0020 8133.00 8431.60 90.18
8202 51.0070 8278.00 8557.62 90.98
8203 51.0120 8382.00 8684.13 91.55
8204 51.0170 8457.00 8810.83 91.96
8205 51.0220 8609.00 8937.42 92.78
8206 51.0270 8708.00 9063.61 93.32
8207 51.0320 8846.00 9189.13 94.05
8208 51.0370 8994.00 9313.49 94.84
8209 51.0420 9080.00 9436.32 95.29
8210 51.0470 9233.00 9557.50 96.09
8211 51.0520 9427.00 9676.43 97.09
8212 51.0570 9510.00 9792.80 97.52
8213 51.0620 9581.00 9906.23 97.88
8214 51.0670 9745.00 10015.40 98.72
8215 51.0720 9889.00 10121.90 99.44
8216 51.0770 10014.00 10224.20 100.07
8217 51.0820 10075.00 10322.20 100.37
8218 51.0870 10115.00 10415.50 100.57
8219 51.0920 10250.00 10503.60 101.24
8220 51.0970 10394.00 10586.30 101.95
8221 51.1020 10521.00 10663.50 102.57
8222 51.1070 10632.00 10734.60 103.11
8223 51.1120 10701.00 10799.50 103.45
8224 51.1170 10768.00 10858.00 103.77
8225 51.1220 10854.00 10909.90 104.18
8226 51.1270 10916.00 10955.10 104.48
8227 51.1320 10940.00 10993.30 104.59
8228 51.1370 10971.00 11024.60 104.74
8229 51.1420 11052.00 11048.80 105.13
8230 51.1470 11046.00 11065.90 105.10
8231 51.1520 11142.00 11075.90 105.56
8232 51.1570 11189.00 11078.90 105.78
8233 51.1620 11192.00 11074.90 105.79
8234 51.1670 11254.00 11064.00 106.08
8235 51.1720 11196.00 11046.50 105.81
8236 51.1770 11120.00 11022.40 105.45
8237 51.1820 11094.00 10992.20 105.33
8238 51.1870 11043.00 10956.00 105.09
8239 51.1920 10945.00 10914.10 104.62
8240 51.1970 10855.00 10867.00 104.19
8241 51.2020 10797.00 10815.00 103.91
8242 51.2070 10780.00 10758.60 103.83
8243 51.2120 10727.00 10698.20 103.57
8244 51.2170 10688.00 10634.30 103.38
8245 51.2220 10604.00 10567.50 102.98
8246 51.2270 10519.00 10498.20 102.56
8247 51.2320 10500.00 10426.90 102.47
8248 51.2370 10427.00 10354.10 102.11
8249 51.2420 10301.00 10280.50 101.49
8250 51.2470 10217.00 10206.40 101.08
8251 51.2520 10132.00 10132.30 100.66
8252 51.2570 10053.00 10058.80 100.26
8253 51.2620 9994.00 9986.34 99.97
8254 51.2670 9856.00 9915.20 99.28
8255 51.2720 9747.00 9845.97 98.73
8256 51.2770 9678.00 9778.82 98.38
8257 51.2820 9607.00 9714.23 98.02
8258 51.2870 9547.00 9652.46 97.71
8259 51.2920 9464.00 9593.78 97.28
8260 51.2970 9351.00 9543.54 96.70
8261 51.3020 9250.00 9491.76 96.18
8262 51.3070 9217.00 9443.67 96.01
8263 51.3120 9179.00 9399.51 95.81
8264 51.3170 9048.00 9359.28 95.12
8265 51.3220 8982.00 9323.14 94.77
8266 51.3270 9052.00 9291.14 95.14
8267 51.3320 9074.00 9263.26 95.26
8268 51.3370 9113.00 9239.54 95.46
8269 51.3420 9134.00 9219.95 95.57
8270 51.3470 9034.00 9204.43 95.05
8271 51.3520 9016.00 9192.92 94.95
8272 51.3570 9032.00 9185.31 95.04
8273 51.3620 9107.00 9181.48 95.43
8274 51.3670 9084.00 9181.29 95.31
8275 51.3720 9026.00 9184.59 95.01
8276 51.3770 9025.00 9191.19 95.00
8277 51.3820 9089.00 9200.90 95.34
8278 51.3870 9116.00 9213.53 95.48
8279 51.3920 9113.00 9228.82 95.46
8280 51.3970 9100.00 9250.35 95.39
8281 51.4020 9141.00 9270.32 95.61
8282 51.4070 9137.00 9292.24 95.59
8283 51.4120 9147.00 9315.88 95.64
8284 51.4170 9182.00 9340.92 95.82
8285 51.4220 9262.00 9367.17 96.24
8286 51.4270 9256.00 9394.37 96.21
8287 51.4320 9227.00 9422.23 96.06
8288 51.4370 9391.00 9450.51 96.91
8289 51.4420 9455.00 9479.03 97.24
8290 51.4470 9486.00 9507.52 97.40
8291 51.4520 9553.00 9535.77 97.74
8292 51.4570 9552.00 9563.64 97.73
8293 51.4620 9561.00 9590.90 97.78
8294 51.4670 9594.00 9617.42 97.95
8295 51.4720 9584.00 9643.00 97.90
8296 51.4770 9578.00 9666.55 97.87
8297 51.4820 9571.00 9690.00 97.83
8298 51.4870 9521.00 9712.18 97.58
8299 51.4920 9564.00 9733.05 97.80
8300 51.4970 9572.00 9752.53 97.84
8301 51.5020 9477.00 9770.52 97.35
8302 51.5070 9477.00 9786.97 97.35
8303 51.5120 9489.00 9801.84 97.41
8304 51.5170 9571.00 9815.06 97.83
8305 51.5220 9624.00 9826.56 98.10
8306 51.5270 9628.00 9836.28 98.12
8307 51.5320 9559.00 9844.16 97.77
8308 51.5370 9545.00 9850.12 97.70
8309 51.5420 9557.00 9854.05 97.76
8310 51.5470 9562.00 9855.87 97.79
8311 51.5520 9652.00 9855.46 98.24
8312 51.5570 9690.00 9852.69 98.44
8313 51.5620 9730.00 9847.44 98.64
8314 51.5670 9687.00 9839.55 98.42
8315 51.5720 9679.00 9828.88 98.38
8316 51.5770 9659.00 9815.25 98.28
8317 51.5820 9603.00 9798.49 97.99
8318 51.5870 9573.00 9778.43 97.84
8319 51.5920 9507.00 9754.87 97.50
8320 51.5970 9547.00 9727.67 97.71
8321 51.6020 9518.00 9696.60 97.56
8322 51.6070 9504.00 9661.53 97.49
8323 51.6120 9506.00 9622.31 97.50
8324 51.6170 9442.00 9578.72 97.17
8325 51.6220 9411.00 9530.69 97.01
8326 51.6270 9361.00 9478.08 96.75
8327 51.6320 9397.00 9420.80 96.94
8328 51.6370 9364.00 9358.76 96.77
8329 51.6420 9231.00 9291.93 96.08
8330 51.6470 9239.00 9220.26 96.12
8331 51.6520 9235.00 9143.78 96.10
8332 51.6570 9205.00 9062.46 95.94
8333 51.6620 9088.00 8976.47 95.33
8334 51.6670 8959.00 8885.91 94.65
8335 51.6720 8861.00 8790.72 94.13
8336 51.6770 8830.00 8691.23 93.97
8337 51.6820 8713.00 8587.56 93.34
8338 51.6870 8636.00 8479.89 92.93
8339 51.6920 8572.00 8368.46 92.59
8340 51.6970 8399.00 8250.87 91.65
8341 51.7020 8317.00 8132.71 91.20
8342 51.7070 8152.00 8011.46 90.29
8343 51.7120 7914.00 7887.40 88.96
8344 51.7170 7783.00 7760.96 88.22
8345 51.7220 7655.00 7632.46 87.49
8346 51.7270 7574.00 7501.90 87.03
8347 51.7320 7479.00 7369.84 86.48
8348 51.7370 7300.00 7236.57 85.44
8349 51.7420 7165.00 7102.10 84.65
8350 51.7470 7078.00 6966.97 84.13
8351 51.7520 7036.00 6831.25 83.88
8352 51.7570 6891.00 6695.48 83.01
8353 51.7620 6734.00 6559.62 82.06
8354 51.7670 6612.00 6423.90 81.31
8355 51.7720 6423.00 6288.80 80.14
8356 51.7770 6237.00 6154.26 78.97
8357 51.7820 6057.00 6020.47 77.83
8358 51.7870 5886.00 5887.79 76.72
8359 51.7920 5744.00 5756.37 75.79
8360 51.7970 5653.00 5626.10 75.19
8361 51.8020 5508.00 5497.38 74.22
8362 51.8070 5421.00 5370.18 73.63
8363 51.8120 5318.00 5244.85 72.92
8364 51.8170 5144.00 5121.26 71.72
8365 51.8220 4935.00 4999.48 70.25
8366 51.8270 4781.00 4879.87 69.14
8367 51.8320 4672.00 4762.23 68.35
8368 51.8370 4519.00 4646.65 67.22
8369 51.8420 4489.00 4533.34 67.00
8370 51.8470 4438.00 4422.27 66.62
8371 51.8520 4341.00 4313.47 65.89
8372 51.8570 4224.00 4206.98 64.99
8373 51.8620 4146.00 4102.83 64.39
8374 51.8670 4047.00 4001.05 63.62
8375 51.8720 3934.00 3901.65 62.72
8376 51.8770 3819.00 3804.56 61.80
8377 51.8820 3691.00 3710.01 60.75
8378 51.8870 3537.00 3617.78 59.47
8379 51.8920 3437.00 3527.88 58.63
8380 51.8970 3337.00 3440.48 57.77
8381 51.9020 3278.00 3355.33 57.25
8382 51.9070 3192.00 3272.60 56.50
8383 51.9120 3107.00 3192.19 55.74
8384 51.9170 3067.00 3114.10 55.38
8385 51.9220 3013.00 3038.30 54.89
8386 51.9270 2924.00 2964.75 54.07
8387 51.9320 2865.00 2893.38 53.53
8388 51.9370 2804.00 2824.30 52.95
8389 51.9420 2737.00 2757.29 52.32
8390 51.9470 2641.00 2692.45 51.39
8391 51.9520 2608.00 2629.73 51.07
8392 51.9570 2553.00 2568.96 50.53
8393 51.9620 2514.00 2510.24 50.14
8394 51.9670 2434.00 2453.48 49.34
8395 51.9720 2393.00 2398.63 48.92
8396 51.9770 2335.00 2345.65 48.32
8397 51.9820 2302.00 2294.46 47.98
8398 51.9870 2252.00 2245.12 47.46
8399 51.9920 2242.00 2197.47 47.35
8400 51.9970 2183.00 2151.47 46.72
8401 52.0020 2118.00 2107.14 46.02
8402 52.0070 2053.00 2064.43 45.31
8403 52.0120 2043.00 2023.20 45.20
8404 52.0170 1967.00 1983.49 44.35
8405 52.0220 1934.00 1945.26 43.98
8406 52.0270 1914.00 1908.37 43.75
8407 52.0320 1875.00 1872.86 43.30
8408 52.0370 1841.00 1838.64 42.91
8409 52.0420 1814.00 1805.73 42.59
8410 52.0470 1799.00 1774.02 42.41
8411 52.0520 1767.00 1743.45 42.04
8412 52.0570 1789.00 1714.05 42.30
8413 52.0620 1774.00 1685.74 42.12
8414 52.0670 1713.00 1658.46 41.39
8415 52.0720 1652.00 1632.19 40.64
8416 52.0770 1568.00 1606.91 39.60
8417 52.0820 1537.00 1582.53 39.20
8418 52.0870 1529.00 1559.06 39.10
8419 52.0920 1509.00 1536.43 38.85
8420 52.0970 1521.00 1514.65 39.00
8421 52.1020 1522.00 1493.65 39.01
8422 52.1070 1458.00 1473.38 38.18
8423 52.1120 1413.00 1453.86 37.59
8424 52.1170 1408.00 1435.02 37.52
8425 52.1220 1401.00 1418.01 37.43
8426 52.1270 1401.00 1400.58 37.43
8427 52.1320 1356.00 1383.65 36.82
8428 52.1370 1324.00 1367.29 36.39
8429 52.1420 1325.00 1351.48 36.40
8430 52.1470 1313.00 1336.20 36.24
8431 52.1520 1304.00 1321.43 36.11
8432 52.1570 1274.00 1307.13 35.69
8433 52.1620 1268.00 1293.29 35.61
8434 52.1670 1237.00 1279.90 35.17
8435 52.1720 1204.00 1266.93 34.70
8436 52.1770 1183.00 1254.35 34.39
8437 52.1820 1153.00 1242.15 33.96
8438 52.1870 1155.00 1230.33 33.99
8439 52.1920 1154.00 1218.85 33.97
8440 52.1970 1154.00 1207.71 33.97
8441 52.2020 1171.00 1196.88 34.22
8442 52.2070 1159.00 1186.36 34.04
8443 52.2120 1166.00 1176.13 34.15
8444 52.2170 1140.00 1166.17 33.76
8445 52.2220 1141.00 1156.49 33.78
8446 52.2270 1150.00 1147.05 33.91
8447 52.2320 1110.00 1137.86 33.32
8448 52.2370 1078.00 1128.92 32.83
8449 52.2420 1106.00 1120.18 33.26
8450 52.2470 1119.00 1111.67 33.45
8451 52.2520 1126.00 1103.36 33.56
8452 52.2570 1140.00 1095.24 33.76
8453 52.2620 1108.00 1087.32 33.29
8454 52.2670 1107.00 1079.58 33.27
8455 52.2720 1141.00 1072.02 33.78
8456 52.2770 1124.00 1064.62 33.53
8457 52.2820 1086.00 1057.38 32.95
8458 52.2870 1068.00 1050.30 32.68
8459 52.2920 1062.00 1043.37 32.59
8460 52.2970 1070.00 1036.58 32.71
8461 52.3020 1027.00 1029.94 32.05
8462 52.3070 1022.00 1023.43 31.97
8463 52.3120 1071.00 1017.05 32.73
8464 52.3170 1081.00 1010.79 32.88
8465 52.3220 1066.00 1004.66 32.65
8466 52.3270 1054.00 998.65 32.47
8467 52.3320 1007.00 992.75 31.73
8468 52.3370 991.00 986.95 31.48
8469 52.3420 959.00 981.27 30.97
8470 52.3470 987.00 975.70 31.42
8471 52.3520 1005.00 970.21 31.70
8472 52.3570 970.00 964.83 31.14
8473 52.3620 936.00 959.55 30.59
8474 52.3670 937.00 954.35 30.61
8475 52.3720 959.00 949.25 30.97
8476 52.3770 974.00 944.23 31.21
8477 52.3820 966.00 939.30 31.08
8478 52.3870 930.00 934.46 30.50
8479 52.3920 914.00 929.69 30.23
8480 52.3970 885.00 925.00 29.75
8481 52.4020 859.00 920.39 29.31
8482 52.4070 831.00 915.85 28.83
8483 52.4120 812.00 911.39 28.50
8484 52.4170 861.00 907.47 29.34
8485 52.4220 881.00 903.15 29.68
8486 52.4270 887.00 898.90 29.78
8487 52.4320 899.00 894.71 29.98
8488 52.4370 875.00 890.59 29.58
8489 52.4420 855.00 886.53 29.24
8490 52.4470 855.00 882.54 29.24
8491 52.4520 865.00 878.60 29.41
8492 52.4570 848.00 874.73 29.12
8493 52.4620 816.00 870.91 28.57
8494 52.4670 816.00 867.15 28.57
8495 52.4720 818.00 863.45 28.60
8496 52.4770 798.00 859.80 28.25
8497 52.4820 793.00 856.21 28.16
8498 52.4870 784.00 852.66 28.00
8499 52.4920 802.00 849.17 28.32
8500 52.4970 800.00 845.73 28.28
8501 52.5020 772.00 842.34 27.78
8502 52.5070 746.00 839.00 27.31
8503 52.5120 738.00 835.70 27.17
8504 52.5170 752.00 832.46 27.42
8505 52.5220 737.00 829.26 27.15
8506 52.5270 710.00 826.10 26.65
8507 52.5320 715.00 822.98 26.74
8508 52.5370 729.00 819.92 27.00
8509 52.5420 734.00 816.89 27.09
8510 52.5470 713.00 813.91 26.70
8511 52.5520 702.00 810.96 26.50
8512 52.5570 709.00 808.06 26.63
8513 52.5620 719.00 805.20 26.81
8514 52.5670 710.00 802.38 26.65
8515 52.5720 713.00 799.59 26.70
8516 52.5770 710.00 796.84 26.65
8517 52.5820 722.00 796.62 26.87
8518 52.5870 688.00 793.96 26.23
8519 52.5920 648.00 791.33 25.46
8520 52.5970 652.00 788.73 25.53
8521 52.6020 654.00 786.17 25.57
8522 52.6070 642.00 783.65 25.34
8523 52.6120 645.00 781.16 25.40
8524 52.6170 659.00 778.70 25.67
8525 52.6220 641.00 776.27 25.32
8526 52.6270 618.00 773.88 24.86
8527 52.6320 632.00 771.52 25.14
8528 52.6370 616.00 769.19 24.82
8529 52.6420 578.00 766.90 24.04
8530 52.6470 564.00 764.63 23.75
8531 52.6520 596.00 762.40 24.41
8532 52.6570 625.00 760.19 25.00
8533 52.6620 633.00 758.01 25.16
8534 52.6670 628.00 755.86 25.06
8535 52.6720 633.00 753.75 25.16
8536 52.6770 616.00 751.66 24.82
8537 52.6820 619.00 749.59 24.88
8538 52.6870 638.00 747.56 25.26
8539 52.6920 629.00 745.55 25.08
8540 52.6970 601.00 743.58 24.52
8541 52.7020 569.00 741.62 23.85
8542 52.7070 530.00 739.70 23.02
8543 52.7120 526.00 737.80 22.93
8544 52.7170 546.00 735.93 23.37
8545 52.7220 548.00 734.08 23.41
8546 52.7270 554.00 732.26 23.54
8547 52.7320 568.00 730.47 23.83
8548 52.7370 579.00 728.70 24.06
8549 52.7420 608.00 726.96 24.66
8550 52.7470 614.00 725.24 24.78
8551 52.7520 609.00 723.54 24.68
8552 52.7570 603.00 721.87 24.56
8553 52.7620 586.00 720.23 24.21
8554 52.7670 578.00 718.61 24.04
8555 52.7720 589.00 717.01 24.27
8556 52.7770 574.00 715.44 23.96
8557 52.7820 565.00 713.89 23.77
8558 52.7870 551.00 712.36 23.47
8559 52.7920 526.00 710.86 22.93
8560 52.7970 507.00 709.39 22.52
8561 52.8020 497.00 707.93 22.29
8562 52.8070 493.00 706.50 22.20
8563 52.8120 512.00 705.09 22.63
8564 52.8170 528.00 703.71 22.98
8565 52.8220 531.00 702.35 23.04
8566 52.8270 525.00 701.01 22.91
8567 52.8320 534.00 699.72 23.11
8568 52.8370 578.00 698.43 24.04
8569 52.8420 623.00 697.16 24.96
8570 52.8470 637.00 695.91 25.24
8571 52.8520 632.00 694.68 25.14
8572 52.8570 617.00 693.47 24.84
8573 52.8620 599.00 692.29 24.47
8574 52.8670 597.00 691.13 24.43
8575 52.8720 600.00 689.99 24.49
8576 52.8770 591.00 688.87 24.31
8577 52.8820 582.00 687.78 24.12
8578 52.8870 550.00 686.70 23.45
8579 52.8920 522.00 685.65 22.85
8580 52.8970 521.00 684.61 22.83
8581 52.9020 540.00 683.60 23.24
8582 52.9070 545.00 682.61 23.35
8583 52.9120 559.00 681.64 23.64
8584 52.9170 581.00 680.69 24.10
8585 52.9220 593.00 678.83 24.35
8586 52.9270 596.00 677.92 24.41
8587 52.9320 594.00 677.03 24.37
8588 52.9370 615.00 676.17 24.80
8589 52.9420 617.00 675.32 24.84
8590 52.9470 588.00 674.49 24.25
8591 52.9520 582.00 673.68 24.12
8592 52.9570 575.00 672.89 23.98
8593 52.9620 568.00 672.12 23.83
8594 52.9670 570.00 671.36 23.87
8595 52.9720 553.00 670.63 23.52
8596 52.9770 566.00 669.91 23.79
8597 52.9820 574.00 669.21 23.96
8598 52.9870 559.00 668.53 23.64
8599 52.9920 563.00 667.87 23.73
8600 52.9970 576.00 667.23 24.00
8601 53.0020 572.00 666.60 23.92
8602 53.0070 542.00 666.00 23.28
8603 53.0120 563.00 665.41 23.73
8604 53.0170 593.00 664.85 24.35
8605 53.0220 599.00 664.30 24.47
8606 53.0270 595.00 663.78 24.39
8607 53.0320 579.00 652.67 24.06
8608 53.0370 592.00 652.22 24.33
8609 53.0420 629.00 651.80 25.08
8610 53.0470 646.00 651.40 25.42
8611 53.0520 639.00 651.29 25.28
8612 53.0570 644.00 650.94 25.38
8613 53.0620 632.00 650.62 25.14
8614 53.0670 616.00 650.32 24.82
8615 53.0720 629.00 650.05 25.08
8616 53.0770 621.00 649.81 24.92
8617 53.0820 597.00 649.60 24.43
8618 53.0870 586.00 649.43 24.21
8619 53.0920 593.00 649.28 24.35
8620 53.0970 603.00 649.17 24.56
8621 53.1020 597.00 649.72 24.43
8622 53.1070 592.00 649.68 24.33
8623 53.1120 588.00 649.67 24.25
8624 53.1170 616.00 649.70 24.82
8625 53.1220 645.00 649.77 25.40
8626 53.1270 640.00 649.87 25.30
8627 53.1320 643.00 650.01 25.36
8628 53.1370 662.00 650.19 25.73
8629 53.1420 656.00 650.23 25.61
8630 53.1470 665.00 650.48 25.79
8631 53.1520 666.00 650.78 25.81
8632 53.1570 664.00 651.11 25.77
8633 53.1620 657.00 651.48 25.63
8634 53.1670 654.00 651.89 25.57
8635 53.1720 674.00 652.33 25.96
8636 53.1770 689.00 652.82 26.25
8637 53.1820 680.00 653.34 26.08
8638 53.1870 648.00 653.90 25.46
8639 53.1920 647.00 654.50 25.44
8640 53.1970 669.00 655.14 25.86
8641 53.2020 694.00 655.80 26.34
8642 53.2070 703.00 656.51 26.51
8643 53.2120 693.00 657.25 26.32
8644 53.2170 687.00 658.02 26.21
8645 53.2220 683.00 658.83 26.13
8646 53.2270 668.00 659.66 25.85
8647 53.2320 700.00 660.53 26.46
8648 53.2370 724.00 661.42 26.91
8649 53.2420 740.00 662.34 27.20
8650 53.2470 749.00 663.28 27.37
8651 53.2520 754.00 664.25 27.46
8652 53.2570 764.00 665.23 27.64
8653 53.2620 758.00 666.23 27.53
8654 53.2670 767.00 667.23 27.69
8655 53.2720 784.00 668.24 28.00
8656 53.2770 781.00 669.26 27.95
8657 53.2820 770.00 670.27 27.75
8658 53.2870 769.00 671.28 27.73
8659 53.2920 769.00 672.26 27.73
8660 53.2970 765.00 673.22 27.66
8661 53.3020 784.00 674.16 28.00
8662 53.3070 773.00 675.05 27.80
8663 53.3120 756.00 675.90 27.50
8664 53.3170 754.00 676.70 27.46
8665 53.3220 754.00 677.42 27.46
8666 53.3270 782.00 678.06 27.96
8667 53.3320 816.00 678.61 28.57
8668 53.3370 834.00 679.06 28.88
8669 53.3420 849.00 679.38 29.14
8670 53.3470 849.00 679.57 29.14
8671 53.3520 843.00 679.60 29.03
8672 53.3570 828.00 679.46 28.77
8673 53.3620 820.00 679.14 28.64
8674 53.3670 802.00 678.61 28.32
8675 53.3720 826.00 677.87 28.74
8676 53.3770 803.00 676.90 28.34
8677 53.3820 754.00 675.71 27.46
8678 53.3870 740.00 674.30 27.20
8679 53.3920 730.00 672.67 27.02
8680 53.3970 719.00 670.84 26.81
8681 53.4020 714.00 668.83 26.72
8682 53.4070 686.00 666.66 26.19
8683 53.4120 707.00 664.37 26.59
8684 53.4170 729.00 661.98 27.00
8685 53.4220 697.00 659.52 26.40
8686 53.4270 675.00 657.02 25.98
8687 53.4320 703.00 654.50 26.51
8688 53.4370 735.00 651.98 27.11
8689 53.4420 736.00 649.49 27.13
8690 53.4470 741.00 647.04 27.22
8691 53.4520 720.00 644.63 26.83
8692 53.4570 714.00 642.28 26.72
8693 53.4620 710.00 639.99 26.65
8694 53.4670 669.00 637.77 25.86
8695 53.4720 632.00 635.63 25.14
8696 53.4770 632.00 633.55 25.14
8697 53.4820 651.00 631.55 25.51
8698 53.4870 699.00 629.63 26.44
8699 53.4920 692.00 627.78 26.31
8700 53.4970 711.00 626.01 26.66
8701 53.5020 717.00 624.30 26.78
8702 53.5070 708.00 622.67 26.61
8703 53.5120 713.00 621.10 26.70
8704 53.5170 708.00 619.60 26.61
8705 53.5220 685.00 618.17 26.17
8706 53.5270 649.00 616.80 25.48
8707 53.5320 639.00 615.50 25.28
8708 53.5370 656.00 614.25 25.61
8709 53.5420 703.00 613.06 26.51
8710 53.5470 742.00 611.93 27.24
8711 53.5520 778.00 610.85 27.89
8712 53.5570 787.00 609.83 28.05
8713 53.5620 776.00 608.86 27.86
8714 53.5670 745.00 607.93 27.29
8715 53.5720 727.00 607.06 26.96
8716 53.5770 747.00 606.23 27.33
8717 53.5820 747.00 605.45 27.33
8718 53.5870 710.00 604.71 26.65
8719 53.5920 703.00 604.01 26.51
8720 53.5970 690.00 603.36 26.27
8721 53.6020 672.00 602.63 25.92
8722 53.6070 622.00 602.06 24.94
8723 53.6120 627.00 601.52 25.04
8724 53.6170 655.00 601.02 25.59
8725 53.6220 704.00 600.56 26.53
8726 53.6270 692.00 600.13 26.31
8727 53.6320 690.00 599.74 26.27
8728 53.6370 698.00 599.38 26.42
8729 53.6420 708.00 599.04 26.61
8730 53.6470 714.00 598.74 26.72
8731 53.6520 716.00 598.47 26.76
8732 53.6570 698.00 598.23 26.42
8733 53.6620 688.00 598.02 26.23
8734 53.6670 695.00 592.54 26.36
8735 53.6720 698.00 592.41 26.42
8736 53.6770 711.00 592.29 26.66
8737 53.6820 702.00 592.20 26.50
8738 53.6870 696.00 592.14 26.38
8739 53.6920 673.00 592.09 25.94
8740 53.6970 662.00 592.07 25.73
8741 53.7020 669.00 592.07 25.86
8742 53.7070 652.00 592.09 25.53
8743 53.7120 670.00 592.12 25.88
8744 53.7170 699.00 592.18 26.44
8745 53.7220 715.00 592.25 26.74
8746 53.7270 690.00 592.34 26.27
8747 53.7320 688.00 592.45 26.23
8748 53.7370 688.00 592.57 26.23
8749 53.7420 681.00 592.71 26.10
8750 53.7470 678.00 592.86 26.04
8751 53.7520 682.00 593.02 26.12
8752 53.7570 702.00 593.20 26.50
8753 53.7620 683.00 593.39 26.13
8754 53.7670 676.00 593.59 26.00
8755 53.7720 679.00 593.80 26.06
8756 53.7770 691.00 594.02 26.29
8757 53.7820 680.00 594.25 26.08
8758 53.7870 710.00 594.49 26.65
8759 53.7920 707.00 594.74 26.59
8760 53.7970 710.00 594.99 26.65
8761 53.8020 691.00 595.26 26.29
8762 53.8070 661.00 595.53 25.71
8763 53.8120 670.00 595.81 25.88
8764 53.8170 686.00 596.10 26.19
8765 53.8220 677.00 596.40 26.02
8766 53.8270 656.00 596.70 25.61
8767 53.8320 666.00 597.01 25.81
8768 53.8370 674.00 597.32 25.96
8769 53.8420 649.00 597.64 25.48
8770 53.8470 639.00 597.97 25.28
8771 53.8520 628.00 587.21 25.06
8772 53.8570 643.00 587.60 25.36
8773 53.8620 655.00 587.98 25.59
8774 53.8670 661.00 588.38 25.71
8775 53.8720 673.00 588.78 25.94
8776 53.8770 690.00 589.19 26.27
8777 53.8820 704.00 589.61 26.53
8778 53.8870 716.00 590.03 26.76
8779 53.8920 674.00 590.47 25.96
8780 53.8970 665.00 590.91 25.79
8781 53.9020 701.00 591.36 26.48
8782 53.9070 735.00 591.82 27.11
8783 53.9120 715.00 592.29 26.74
8784 53.9170 694.00 592.78 26.34
8785 53.9220 681.00 593.27 26.10
8786 53.9270 702.00 593.78 26.50
8787 53.9320 681.00 596.37 26.10
8788 53.9370 673.00 596.91 25.94
8789 53.9420 661.00 597.47 25.71
8790 53.9470 662.00 598.03 25.73
8791 53.9520 672.00 598.62 25.92
8792 53.9570 659.00 599.22 25.67
8793 53.9620 669.00 599.84 25.86
8794 53.9670 694.00 600.48 26.34
8795 53.9720 717.00 600.77 26.78
8796 53.9770 716.00 601.45 26.76
8797 53.9820 690.00 602.15 26.27
8798 53.9870 672.00 602.87 25.92
8799 53.9920 651.00 603.62 25.51
8800 53.9970 655.00 604.39 25.59
8801 54.0020 641.00 605.19 25.32
8802 54.0070 624.00 606.01 24.98
8803 54.0120 652.00 606.86 25.53
8804 54.0170 671.00 607.74 25.90
8805 54.0220 657.00 608.66 25.63
8806 54.0270 658.00 609.59 25.65
8807 54.0320 663.00 610.57 25.75
8808 54.0370 663.00 611.58 25.75
8809 54.0420 654.00 612.61 25.57
8810 54.0470 688.00 613.69 26.23
8811 54.0520 690.00 614.80 26.27
8812 54.0570 646.00 615.96 25.42
8813 54.0620 645.00 617.15 25.40
8814 54.0670 627.00 618.38 25.04
8815 54.0720 637.00 619.66 25.24
8816 54.0770 653.00 620.96 25.55
8817 54.0820 652.00 622.33 25.53
8818 54.0870 639.00 623.74 25.28
8819 54.0920 629.00 625.21 25.08
8820 54.0970 653.00 626.72 25.55
8821 54.1020 676.00 628.29 26.00
8822 54.1070 693.00 629.91 26.32
8823 54.1120 636.00 631.59 25.22
8824 54.1170 626.00 633.33 25.02
8825 54.1220 646.00 635.13 25.42
8826 54.1270 656.00 637.00 25.61
8827 54.1320 671.00 638.92 25.90
8828 54.1370 643.00 640.92 25.36
8829 54.1420 635.00 642.99 25.20
8830 54.1470 681.00 645.13 26.10
8831 54.1520 697.00 647.35 26.40
8832 54.1570 708.00 649.64 26.61
8833 54.1620 699.00 652.02 26.44
8834 54.1670 702.00 654.48 26.50
8835 54.1720 703.00 657.02 26.51
8836 54.1770 725.00 659.66 26.93
8837 54.1820 735.00 662.39 27.11
8838 54.1870 750.00 665.22 27.39
8839 54.1920 747.00 668.14 27.33
8840 54.1970 758.00 671.17 27.53
8841 54.2020 769.00 674.31 27.73
8842 54.2070 729.00 677.55 27.00
8843 54.2120 707.00 680.92 26.59
8844 54.2170 706.00 684.40 26.57
8845 54.2220 721.00 687.99 26.85
8846 54.2270 724.00 691.72 26.91
8847 54.2320 743.00 695.77 27.26
8848 54.2370 755.00 699.76 27.48
8849 54.2420 759.00 703.89 27.55
8850 54.2470 770.00 708.16 27.75
8851 54.2520 815.00 712.59 28.55
8852 54.2570 838.00 717.16 28.95
8853 54.2620 848.00 721.90 29.12
8854 54.2670 846.00 726.79 29.09
8855 54.2720 800.00 731.85 28.28
8856 54.2770 789.00 737.09 28.09
8857 54.2820 789.00 742.50 28.09
8858 54.2870 801.00 748.09 28.30
8859 54.2920 794.00 752.91 28.18
8860 54.2970 818.00 751.97 28.60
8861 54.3020 820.00 758.17 28.64
8862 54.3070 815.00 764.57 28.55
8863 54.3120 828.00 771.16 28.77
8864 54.3170 827.00 777.97 28.76
8865 54.3220 837.00 785.01 28.93
8866 54.3270 831.00 792.25 28.83
8867 54.3320 846.00 799.74 29.09
8868 54.3370 885.00 807.44 29.75
8869 54.3420 901.00 815.39 30.02
8870 54.3470 922.00 823.57 30.36
8871 54.3520 903.00 832.00 30.05
8872 54.3570 928.00 840.68 30.46
8873 54.3620 912.00 849.62 30.20
8874 54.3670 938.00 858.81 30.63
8875 54.3720 930.00 868.28 30.50
8876 54.3770 946.00 878.00 30.76
8877 54.3820 976.00 887.98 31.24
8878 54.3870 998.00 898.26 31.59
8879 54.3920 1034.00 908.80 32.16
8880 54.3970 1042.00 919.61 32.28
8881 54.4020 1045.00 930.73 32.33
8882 54.4070 1052.00 942.12 32.43
8883 54.4120 1068.00 953.80 32.68
8884 54.4170 1060.00 965.76 32.56
8885 54.4220 1036.00 978.02 32.19
8886 54.4270 1020.00 990.57 31.94
8887 54.4320 1061.00 1003.42 32.57
8888 54.4370 1095.00 1016.54 33.09
8889 54.4420 1143.00 1029.98 33.81
8890 54.4470 1159.00 1043.70 34.04
8891 54.4520 1175.00 1057.71 34.28
8892 54.4570 1157.00 1072.02 34.01
8893 54.4620 1183.00 1086.62 34.39
8894 54.4670 1181.00 1101.51 34.37
8895 54.4720 1190.00 1116.68 34.50
8896 54.4770 1225.00 1132.13 35.00
8897 54.4820 1225.00 1147.88 35.00
8898 54.4870 1256.00 1163.88 35.44
8899 54.4920 1258.00 1180.16 35.47
8900 54.4970 1263.00 1196.73 35.54
8901 54.5020 1280.00 1213.54 35.78
8902 54.5070 1318.00 1230.60 36.30
8903 54.5120 1307.00 1247.94 36.15
8904 54.5170 1311.00 1265.50 36.21
8905 54.5220 1318.00 1283.30 36.30
8906 54.5270 1328.00 1301.33 36.44
8907 54.5320 1338.00 1319.58 36.58
8908 54.5370 1363.00 1338.06 36.92
8909 54.5420 1362.00 1356.70 36.91
8910 54.5470 1360.00 1375.55 36.88
8911 54.5520 1409.00 1394.58 37.54
8912 54.5570 1483.00 1413.77 38.51
8913 54.5620 1520.00 1433.09 38.99
8914 54.5670 1512.00 1452.58 38.88
8915 54.5720 1524.00 1472.17 39.04
8916 54.5770 1542.00 1491.87 39.27
8917 54.5820 1564.00 1511.65 39.55
8918 54.5870 1619.00 1531.50 40.24
8919 54.5920 1648.00 1551.42 40.60
8920 54.5970 1632.00 1571.34 40.40
8921 54.6020 1606.00 1591.29 40.07
8922 54.6070 1650.00 1611.23 40.62
8923 54.6120 1664.00 1631.12 40.79
8924 54.6170 1673.00 1650.98 40.90
8925 54.6220 1680.00 1670.74 40.99
8926 54.6270 1686.00 1690.40 41.06
8927 54.6320 1712.00 1709.94 41.38
8928 54.6370 1746.00 1729.33 41.79
8929 54.6420 1777.00 1748.55 42.15
8930 54.6470 1806.00 1767.57 42.50
8931 54.6520 1844.00 1786.37 42.94
8932 54.6570 1882.00 1804.94 43.38
8933 54.6620 1891.00 1823.13 43.49
8934 54.6670 1893.00 1841.14 43.51
8935 54.6720 1895.00 1858.87 43.53
8936 54.6770 1907.00 1876.28 43.67
8937 54.6820 1885.00 1893.36 43.42
8938 54.6870 1936.00 1910.09 44.00
8939 54.6920 1971.00 1926.47 44.40
8940 54.6970 1974.00 1942.50 44.43
8941 54.7020 1958.00 1958.15 44.25
8942 54.7070 1997.00 1973.43 44.69
8943 54.7120 2009.00 1988.37 44.82
8944 54.7170 2043.00 2002.93 45.20
8945 54.7220 2017.00 2017.13 44.91
8946 54.7270 1999.00 2032.84 44.71
8947 54.7320 2000.00 2046.38 44.72
8948 54.7370 1999.00 2059.60 44.71
8949 54.7420 2041.00 2072.53 45.18
8950 54.7470 2094.00 2085.19 45.76
8951 54.7520 2140.00 2097.60 46.26
8952 54.7570 2155.00 2109.76 46.42
8953 54.7620 2155.00 2121.74 46.42
8954 54.7670 2182.00 2133.56 46.71
8955 54.7720 2198.00 2145.23 46.88
8956 54.7770 2201.00 2156.79 46.91
8957 54.7820 2184.00 2168.30 46.73
8958 54.7870 2183.00 2179.75 46.72
8959 54.7920 2191.00 2191.19 46.81
8960 54.7970 2183.00 2202.67 46.72
8961 54.8020 2194.00 2214.20 46.84
8962 54.8070 2205.00 2225.83 46.96
8963 54.8120 2240.00 2237.56 47.33
8964 54.8170 2223.00 2249.46 47.15
8965 54.8220 2207.00 2261.54 46.98
8966 54.8270 2225.00 2273.82 47.17
8967 54.8320 2241.00 2286.34 47.34
8968 54.8370 2262.00 2299.12 47.56
8969 54.8420 2285.00 2312.18 47.80
8970 54.8470 2312.00 2325.52 48.08
8971 54.8520 2312.00 2339.21 48.08
8972 54.8570 2339.00 2353.22 48.36
8973 54.8620 2337.00 2367.58 48.34
8974 54.8670 2352.00 2382.31 48.50
8975 54.8720 2392.00 2385.20 48.91
8976 54.8770 2405.00 2400.73 49.04
8977 54.8820 2381.00 2416.62 48.80
8978 54.8870 2359.00 2432.91 48.57
8979 54.8920 2372.00 2449.60 48.70
8980 54.8970 2420.00 2466.66 49.19
8981 54.9020 2417.00 2484.13 49.16
8982 54.9070 2398.00 2501.97 48.97
8983 54.9120 2426.00 2520.19 49.25
8984 54.9170 2450.00 2538.77 49.50
8985 54.9220 2434.00 2557.71 49.34
8986 54.9270 2444.00 2576.99 49.44
8987 54.9320 2460.00 2596.62 49.60
8988 54.9370 2532.00 2616.54 50.32
8989 54.9420 2582.00 2636.77 50.81
8990 54.9470 2596.00 2657.28 50.95
8991 54.9520 2589.00 2678.03 50.88
8992 54.9570 2581.00 2699.04 50.80
8993 54.9620 2597.00 2720.25 50.96
8994 54.9670 2616.00 2741.66 51.15
8995 54.9720 2620.00 2763.23 51.19
8996 54.9770 2638.00 2784.95 51.36
8997 54.9820 2669.00 2806.79 51.66
8998 54.9870 2670.00 2828.72 51.67
8999 54.9920 2651.00 2850.72 51.49
9000 54.9970 2673.00 2872.78 51.70
9001 55.0020 2736.00 2896.53 52.31
9002 55.0070 2777.00 2918.58 52.70
9003 55.0120 2765.00 2940.63 52.58
9004 55.0170 2806.00 2962.61 52.97
9005 55.0220 2847.00 2984.50 53.36
9006 55.0270 2860.00 3006.32 53.48
9007 55.0320 2867.00 3028.01 53.54
9008 55.0370 2890.00 3049.57 53.76
9009 55.0420 2911.00 3070.95 53.95
9010 55.0470 2932.00 3092.17 54.15
9011 55.0520 2980.00 3113.22 54.59
9012 55.0570 2991.00 3134.04 54.69
9013 55.0620 2979.00 3154.62 54.58
9014 55.0670 3024.00 3175.00 54.99
9015 55.0720 3079.00 3195.12 55.49
9016 55.0770 3108.00 3214.96 55.75
9017 55.0820 3085.00 3234.55 55.54
9018 55.0870 3059.00 3253.85 55.31
9019 55.0920 3076.00 3272.86 55.46
9020 55.0970 3098.00 3291.54 55.66
9021 55.1020 3091.00 3309.91 55.60
9022 55.1070 3080.00 3327.95 55.50
9023 55.1120 3122.00 3345.63 55.87
9024 55.1170 3151.00 3362.95 56.13
9025 55.1220 3141.00 3379.91 56.04
9026 55.1270 3207.00 3396.46 56.63
9027 55.1320 3264.00 3412.58 57.13
9028 55.1370 3262.00 3428.29 57.11
9029 55.1420 3288.00 3443.54 57.34
9030 55.1470 3291.00 3458.30 57.37
9031 55.1520 3310.00 3472.55 57.53
9032 55.1570 3360.00 3486.27 57.97
9033 55.1620 3365.00 3499.43 58.01
9034 55.1670 3373.00 3511.97 58.08
9035 55.1720 3386.00 3523.88 58.19
9036 55.1770 3338.00 3535.13 57.78
9037 55.1820 3280.00 3545.66 57.27
9038 55.1870 3305.00 3555.43 57.49
9039 55.1920 3344.00 3564.41 57.83
9040 55.1970 3347.00 3572.55 57.85
9041 55.2020 3357.00 3579.80 57.94
9042 55.2070 3373.00 3586.12 58.08
9043 55.2120 3400.00 3591.47 58.31
9044 55.2170 3392.00 3595.79 58.24
9045 55.2220 3370.00 3599.03 58.05
9046 55.2270 3400.00 3601.16 58.31
9047 55.2320 3426.00 3602.13 58.53
9048 55.2370 3461.00 3601.89 58.83
9049 55.2420 3508.00 3600.39 59.23
9050 55.2470 3542.00 3597.61 59.51
9051 55.2520 3529.00 3593.50 59.41
9052 55.2570 3500.00 3588.03 59.16
9053 55.2620 3490.00 3581.16 59.08
9054 55.2670 3498.00 3572.88 59.14
9055 55.2720 3525.00 3563.15 59.37
9056 55.2770 3533.00 3551.96 59.44
9057 55.2820 3515.00 3539.28 59.29
9058 55.2870 3480.00 3525.14 58.99
9059 55.2920 3429.00 3509.51 58.56
9060 55.2970 3384.00 3492.38 58.17
9061 55.3020 3362.00 3473.79 57.98
9062 55.3070 3323.00 3453.74 57.65
9063 55.3120 3308.00 3432.25 57.52
9064 55.3170 3318.00 3409.34 57.60
9065 55.3220 3308.00 3385.04 57.52
9066 55.3270 3280.00 3359.42 57.27
9067 55.3320 3272.00 3332.47 57.20
9068 55.3370 3275.00 3304.26 57.23
9069 55.3420 3247.00 3274.85 56.98
9070 55.3470 3219.00 3244.31 56.74
9071 55.3520 3206.00 3212.64 56.62
9072 55.3570 3170.00 3179.96 56.30
9073 55.3620 3099.00 3146.34 55.67
9074 55.3670 3060.00 3111.77 55.32
9075 55.3720 3024.00 3076.41 54.99
9076 55.3770 2964.00 3040.26 54.44
9077 55.3820 2916.00 3003.48 54.00
9078 55.3870 2897.00 2966.07 53.82
9079 55.3920 2872.00 2928.10 53.59
9080 55.3970 2829.00 2889.71 53.19
9081 55.4020 2798.00 2850.91 52.90
9082 55.4070 2760.00 2807.33 52.54
9083 55.4120 2713.00 2767.96 52.09
9084 55.4170 2669.00 2728.43 51.66
9085 55.4220 2618.00 2688.74 51.17
9086 55.4270 2629.00 2649.01 51.27
9087 55.4320 2636.00 2609.26 51.34
9088 55.4370 2585.00 2569.63 50.84
9089 55.4420 2510.00 2530.10 50.10
9090 55.4470 2452.00 2490.72 49.52
9091 55.4520 2428.00 2451.62 49.27
9092 55.4570 2431.00 2412.77 49.31
9093 55.4620 2421.00 2374.22 49.20
9094 55.4670 2385.00 2336.06 48.84
9095 55.4720 2346.00 2298.32 48.44
9096 55.4770 2293.00 2261.02 47.89
9097 55.4820 2249.00 2224.21 47.42
9098 55.4870 2211.00 2187.93 47.02
9099 55.4920 2176.00 2152.19 46.65
9100 55.4970 2137.00 2117.05 46.23
9101 55.5020 2080.00 2082.49 45.61
9102 55.5070 2024.00 2048.62 44.99
9103 55.5120 2012.00 2015.39 44.86
9104 55.5170 2016.00 1982.84 44.90
9105 55.5220 1994.00 1951.03 44.65
9106 55.5270 1967.00 1919.91 44.35
9107 55.5320 1982.00 1889.57 44.52
9108 55.5370 1963.00 1859.99 44.31
9109 55.5420 1936.00 1831.20 44.00
9110 55.5470 1939.00 1803.20 44.03
9111 55.5520 1935.00 1776.01 43.99
9112 55.5570 1919.00 1749.63 43.81
9113 55.5620 1871.00 1724.12 43.26
9114 55.5670 1836.00 1699.42 42.85
9115 55.5720 1836.00 1675.57 42.85
9116 55.5770 1807.00 1652.62 42.51
9117 55.5820 1787.00 1630.51 42.27
9118 55.5870 1793.00 1609.29 42.34
9119 55.5920 1791.00 1588.95 42.32
9120 55.5970 1725.00 1569.50 41.53
9121 55.6020 1688.00 1550.94 41.09
9122 55.6070 1682.00 1533.26 41.01
9123 55.6120 1683.00 1516.51 41.02
9124 55.6170 1698.00 1500.65 41.21
9125 55.6220 1695.00 1485.67 41.17
9126 55.6270 1646.00 1471.62 40.57
9127 55.6320 1623.00 1458.47 40.29
9128 55.6370 1617.00 1446.21 40.21
9129 55.6420 1577.00 1434.87 39.71
9130 55.6470 1540.00 1424.44 39.24
9131 55.6520 1573.00 1414.89 39.66
9132 55.6570 1574.00 1406.25 39.67
9133 55.6620 1571.00 1398.51 39.64
9134 55.6670 1577.00 1391.67 39.71
9135 55.6720 1567.00 1385.72 39.59
9136 55.6770 1562.00 1380.65 39.52
9137 55.6820 1565.00 1376.48 39.56
9138 55.6870 1558.00 1373.19 39.47
9139 55.6920 1567.00 1370.77 39.59
9140 55.6970 1548.00 1369.22 39.34
9141 55.7020 1532.00 1368.54 39.14
9142 55.7070 1528.00 1368.72 39.09
9143 55.7120 1541.00 1369.76 39.26
9144 55.7170 1518.00 1371.64 38.96
9145 55.7220 1476.00 1374.37 38.42
9146 55.7270 1503.00 1377.93 38.77
9147 55.7320 1525.00 1382.32 39.05
9148 55.7370 1538.00 1387.52 39.22
9149 55.7420 1550.00 1393.53 39.37
9150 55.7470 1553.00 1400.35 39.41
9151 55.7520 1572.00 1407.96 39.65
9152 55.7570 1586.00 1416.35 39.82
9153 55.7620 1617.00 1425.50 40.21
9154 55.7670 1656.00 1435.42 40.69
9155 55.7720 1644.00 1446.09 40.55
9156 55.7770 1595.00 1457.50 39.94
9157 55.7820 1586.00 1469.62 39.82
9158 55.7870 1584.00 1482.47 39.80
9159 55.7920 1594.00 1495.99 39.92
9160 55.7970 1645.00 1510.19 40.56
9161 55.8020 1675.00 1525.07 40.93
9162 55.8070 1691.00 1540.59 41.12
9163 55.8120 1713.00 1556.73 41.39
9164 55.8170 1732.00 1573.47 41.62
9165 55.8220 1755.00 1590.80 41.89
9166 55.8270 1769.00 1608.69 42.06
9167 55.8320 1742.00 1627.12 41.74
9168 55.8370 1741.00 1646.07 41.73
9169 55.8420 1783.00 1665.51 42.23
9170 55.8470 1828.00 1685.38 42.76
9171 55.8520 1860.00 1705.70 43.13
9172 55.8570 1885.00 1726.41 43.42
9173 55.8620 1886.00 1747.47 43.43
9174 55.8670 1882.00 1768.87 43.38
9175 55.8720 1913.00 1791.94 43.74
9176 55.8770 1960.00 1813.88 44.27
9177 55.8820 2004.00 1836.02 44.77
9178 55.8870 2004.00 1858.33 44.77
9179 55.8920 2007.00 1880.77 44.80
9180 55.8970 1998.00 1903.25 44.70
9181 55.9020 1975.00 1925.76 44.44
9182 55.9070 1980.00 1948.26 44.50
9183 55.9120 1989.00 1970.65 44.60
9184 55.9170 2022.00 1992.89 44.97
9185 55.9220 2057.00 2014.96 45.35
9186 55.9270 2085.00 2037.04 45.66
9187 55.9320 2118.00 2058.52 46.02
9188 55.9370 2137.00 2079.62 46.23
9189 55.9420 2184.00 2100.27 46.73
9190 55.9470 2213.00 2120.43 47.04
9191 55.9520 2214.00 2139.99 47.05
9192 55.9570 2210.00 2158.92 47.01
9193 55.9620 2242.00 2177.16 47.35
9194 55.9670 2268.00 2194.62 47.62
9195 55.9720 2292.00 2211.24 47.87
9196 55.9770 2312.00 2226.99 48.08
9197 55.9820 2323.00 2241.77 48.20
9198 55.9870 2330.00 2255.53 48.27
9199 55.9920 2332.00 2268.23 48.29
9200 55.9970 2350.00 2279.81 48.48
9201 56.0020 2351.00 2290.21 48.49
9202 56.0070 2348.00 2299.38 48.46
9203 56.0120 2359.00 2307.29 48.57
9204 56.0170 2365.00 2313.91 48.63
9205 56.0220 2381.00 2319.18 48.80
9206 56.0270 2400.00 2323.10 48.99
9207 56.0320 2428.00 2326.24 49.27
9208 56.0370 2414.00 2327.36 49.13
9209 56.0420 2431.00 2327.07 49.31
9210 56.0470 2428.00 2325.35 49.27
9211 56.0520 2441.00 2322.21 49.41
9212 56.0570 2436.00 2317.65 49.36
9213 56.0620 2420.00 2311.68 49.19
9214 56.0670 2415.00 2304.31 49.14
9215 56.0720 2396.00 2295.56 48.95
9216 56.0770 2353.00 2285.47 48.51
9217 56.0820 2327.00 2274.05 48.24
9218 56.0870 2309.00 2261.33 48.05
9219 56.0920 2285.00 2247.36 47.80
9220 56.0970 2275.00 2232.18 47.70
9221 56.1020 2209.00 2215.84 47.00
9222 56.1070 2196.00 2198.37 46.86
9223 56.1120 2194.00 2179.82 46.84
9224 56.1170 2158.00 2160.26 46.45
9225 56.1220 2130.00 2139.59 46.15
9226 56.1270 2097.00 2118.12 45.79
9227 56.1320 2057.00 2095.83 45.35
9228 56.1370 2003.00 2072.69 44.75
9229 56.1420 2021.00 2048.83 44.96
9230 56.1470 2023.00 2025.47 44.98
9231 56.1520 1996.00 2000.27 44.68
9232 56.1570 1976.00 1974.52 44.45
9233 56.1620 1933.00 1948.26 43.97
9234 56.1670 1921.00 1921.54 43.83
9235 56.1720 1894.00 1894.42 43.52
9236 56.1770 1886.00 1866.93 43.43
9237 56.1820 1864.00 1839.18 43.17
9238 56.1870 1830.00 1811.21 42.78
9239 56.1920 1781.00 1783.02 42.20
9240 56.1970 1759.00 1754.72 41.94
9241 56.2020 1731.00 1726.35 41.61
9242 56.2070 1674.00 1697.91 40.91
9243 56.2120 1643.00 1669.50 40.53
9244 56.2170 1622.00 1641.13 40.27
9245 56.2220 1592.00 1612.86 39.90
9246 56.2270 1542.00 1584.72 39.27
9247 56.2320 1494.00 1556.73 38.65
9248 56.2370 1481.00 1528.98 38.48
9249 56.2420 1453.00 1501.44 38.12
9250 56.2470 1426.00 1474.15 37.76
9251 56.2520 1434.00 1447.17 37.87
9252 56.2570 1408.00 1420.53 37.52
9253 56.2620 1345.00 1394.19 36.67
9254 56.2670 1318.00 1368.23 36.30
9255 56.2720 1270.00 1342.68 35.64
9256 56.2770 1243.00 1317.49 35.26
9257 56.2820 1224.00 1292.74 34.99
9258 56.2870 1209.00 1268.41 34.77
9259 56.2920 1212.00 1244.55 34.81
9260 56.2970 1199.00 1221.14 34.63
9261 56.3020 1154.00 1198.17 33.97
9262 56.3070 1077.00 1175.70 32.82
9263 56.3120 1059.00 1153.73 32.54
9264 56.3170 1061.00 1132.21 32.57
9265 56.3220 1061.00 1111.20 32.57
9266 56.3270 1037.00 1090.70 32.20
9267 56.3320 1017.00 1070.67 31.89
9268 56.3370 1011.00 1051.16 31.80
9269 56.3420 1000.00 1032.13 31.62
9270 56.3470 962.00 1013.63 31.02
9271 56.3520 932.00 995.61 30.53
9272 56.3570 898.00 978.08 29.97
9273 56.3620 884.00 961.05 29.73
9274 56.3670 893.00 944.51 29.88
9275 56.3720 897.00 928.44 29.95
9276 56.3770 906.00 912.85 30.10
9277 56.3820 873.00 897.97 29.55
9278 56.3870 841.00 883.32 29.00
9279 56.3920 844.00 869.13 29.05
9280 56.3970 856.00 855.40 29.26
9281 56.4020 840.00 842.10 28.98
9282 56.4070 829.00 829.25 28.79
9283 56.4120 810.00 816.81 28.46
9284 56.4170 793.00 804.80 28.16
9285 56.4220 805.00 793.19 28.37
9286 56.4270 798.00 781.99 28.25
9287 56.4320 792.00 771.17 28.14
9288 56.4370 771.00 760.74 27.77
9289 56.4420 756.00 750.68 27.50
9290 56.4470 751.00 740.98 27.40
9291 56.4520 745.00 731.64 27.29
9292 56.4570 746.00 722.63 27.31
9293 56.4620 738.00 713.96 27.17
9294 56.4670 743.00 705.60 27.26
9295 56.4720 716.00 697.57 26.76
9296 56.4770 675.00 689.83 25.98
9297 56.4820 662.00 682.39 25.73
9298 56.4870 676.00 673.61 26.00
9299 56.4920 679.00 666.73 26.06
9300 56.4970 672.00 660.11 25.92
9301 56.5020 672.00 653.75 25.92
9302 56.5070 657.00 647.64 25.63
9303 56.5120 665.00 641.77 25.79
9304 56.5170 652.00 636.12 25.53
9305 56.5220 657.00 630.70 25.63
9306 56.5270 638.00 625.49 25.26
9307 56.5320 590.00 620.49 24.29
9308 56.5370 596.00 615.68 24.41
9309 56.5420 609.00 611.07 24.68
9310 56.5470 599.00 606.63 24.47
9311 56.5520 585.00 602.38 24.19
9312 56.5570 596.00 598.29 24.41
9313 56.5620 604.00 594.36 24.58
9314 56.5670 596.00 590.59 24.41
9315 56.5720 587.00 586.97 24.23
9316 56.5770 607.00 583.51 24.64
9317 56.5820 618.00 580.17 24.86
9318 56.5870 602.00 576.97 24.54
9319 56.5920 576.00 573.90 24.00
9320 56.5970 540.00 570.95 23.24
9321 56.6020 521.00 568.12 22.83
9322 56.6070 541.00 565.41 23.26
9323 56.6120 572.00 562.81 23.92
9324 56.6170 579.00 560.31 24.06
9325 56.6220 556.00 557.91 23.58
9326 56.6270 533.00 555.62 23.09
9327 56.6320 535.00 555.43 23.13
9328 56.6370 556.00 553.34 23.58
9329 56.6420 562.00 551.33 23.71
9330 56.6470 549.00 549.41 23.43
9331 56.6520 539.00 547.57 23.22
9332 56.6570 525.00 545.82 22.91
9333 56.6620 532.00 544.14 23.07
9334 56.6670 536.00 542.55 23.15
9335 56.6720 556.00 541.03 23.58
9336 56.6770 587.00 539.59 24.23
9337 56.6820 590.00 538.22 24.29
9338 56.6870 570.00 536.92 23.87
9339 56.6920 558.00 535.69 23.62
9340 56.6970 586.00 534.53 24.21
9341 56.7020 600.00 533.44 24.49
9342 56.7070 593.00 532.41 24.35
9343 56.7120 601.00 531.46 24.52
9344 56.7170 608.00 530.56 24.66
9345 56.7220 605.00 529.73 24.60
9346 56.7270 613.00 528.97 24.76
9347 56.7320 632.00 528.27 25.14
9348 56.7370 628.00 527.63 25.06
9349 56.7420 609.00 527.06 24.68
9350 56.7470 599.00 526.55 24.47
9351 56.7520 597.00 526.10 24.43
9352 56.7570 616.00 525.92 24.82
9353 56.7620 635.00 525.59 25.20
9354 56.7670 639.00 525.33 25.28
9355 56.7720 635.00 525.13 25.20
9356 56.7770 615.00 524.99 24.80
9357 56.7820 616.00 524.91 24.82
9358 56.7870 638.00 524.90 25.26
9359 56.7920 670.00 524.95 25.88
9360 56.7970 677.00 525.05 26.02
9361 56.8020 669.00 525.22 25.86
9362 56.8070 681.00 525.45 26.10
9363 56.8120 695.00 525.74 26.36
9364 56.8170 697.00 526.10 26.40
9365 56.8220 687.00 526.51 26.21
9366 56.8270 664.00 526.99 25.77
9367 56.8320 679.00 527.52 26.06
9368 56.8370 693.00 528.12 26.32
9369 56.8420 693.00 528.78 26.32
9370 56.8470 723.00 529.49 26.89
9371 56.8520 764.00 530.27 27.64
9372 56.8570 758.00 531.11 27.53
9373 56.8620 744.00 532.00 27.28
9374 56.8670 737.00 532.95 27.15
9375 56.8720 715.00 533.96 26.74
9376 56.8770 695.00 535.03 26.36
9377 56.8820 702.00 536.14 26.50
9378 56.8870 713.00 537.32 26.70
9379 56.8920 723.00 538.54 26.89
9380 56.8970 720.00 539.82 26.83
9381 56.9020 696.00 541.15 26.38
9382 56.9070 707.00 542.53 26.59
9383 56.9120 719.00 543.95 26.81
9384 56.9170 695.00 545.41 26.36
9385 56.9220 669.00 546.92 25.86
9386 56.9270 676.00 548.47 26.00
9387 56.9320 686.00 550.06 26.19
9388 56.9370 683.00 551.68 26.13
9389 56.9420 688.00 553.33 26.23
9390 56.9470 681.00 555.02 26.10
9391 56.9520 663.00 556.73 25.75
9392 56.9570 662.00 558.46 25.73
9393 56.9620 669.00 560.21 25.86
9394 56.9670 662.00 561.98 25.73
9395 56.9720 630.00 563.76 25.10
9396 56.9770 604.00 565.55 24.58
9397 56.9820 594.00 567.35 24.37
9398 56.9870 596.00 569.15 24.41
9399 56.9920 604.00 570.95 24.58
9400 56.9970 604.00 572.74 24.58
9401 57.0020 589.00 574.53 24.27
9402 57.0070 578.00 576.30 24.04
9403 57.0120 570.00 578.06 23.87
9404 57.0170 568.00 579.81 23.83
9405 57.0220 595.00 581.54 24.39
9406 57.0270 605.00 583.25 24.60
9407 57.0320 578.00 584.94 24.04
9408 57.0370 558.00 586.61 23.62
9409 57.0420 554.00 588.26 23.54
9410 57.0470 549.00 589.90 23.43
9411 57.0520 556.00 591.52 23.58
9412 57.0570 572.00 593.13 23.92
9413 57.0620 562.00 594.73 23.71
9414 57.0670 556.00 596.33 23.58
9415 57.0720 577.00 597.92 24.02
9416 57.0770 603.00 599.53 24.56
9417 57.0820 597.00 601.16 24.43
9418 57.0870 582.00 602.80 24.12
9419 57.0920 583.00 604.48 24.15
9420 57.0970 575.00 606.20 23.98
9421 57.1020 572.00 607.98 23.92
9422 57.1070 567.00 609.81 23.81
9423 57.1120 584.00 611.72 24.17
9424 57.1170 614.00 613.71 24.78
9425 57.1220 623.00 615.80 24.96
9426 57.1270 598.00 618.00 24.45
9427 57.1320 592.00 620.32 24.33
9428 57.1370 598.00 622.77 24.45
9429 57.1420 602.00 625.36 24.54
9430 57.1470 617.00 628.11 24.84
9431 57.1520 648.00 631.03 25.46
9432 57.1570 646.00 634.13 25.42
9433 57.1620 647.00 637.41 25.44
9434 57.1670 651.00 640.90 25.51
9435 57.1720 649.00 644.61 25.48
9436 57.1770 663.00 648.54 25.75
9437 57.1820 657.00 652.70 25.63
9438 57.1870 648.00 657.11 25.46
9439 57.1920 629.00 661.77 25.08
9440 57.1970 613.00 666.70 24.76
9441 57.2020 606.00 671.90 24.62
9442 57.2070 638.00 677.38 25.26
9443 57.2120 647.00 683.15 25.44
9444 57.2170 622.00 689.21 24.94
9445 57.2220 611.00 695.57 24.72
9446 57.2270 646.00 702.25 25.42
9447 57.2320 668.00 709.24 25.85
9448 57.2370 661.00 716.55 25.71
9449 57.2420 679.00 724.19 26.06
9450 57.2470 711.00 732.15 26.66
9451 57.2520 733.00 740.45 27.07
9452 57.2570 721.00 749.06 26.85
9453 57.2620 723.00 758.02 26.89
9454 57.2670 717.00 767.32 26.78
9455 57.2720 708.00 776.94 26.61
9456 57.2770 705.00 786.90 26.55
9457 57.2820 715.00 797.18 26.74
9458 57.2870 720.00 807.79 26.83
9459 57.2920 719.00 818.72 26.81
9460 57.2970 718.00 829.95 26.80
9461 57.3020 721.00 841.50 26.85
9462 57.3070 748.00 853.33 27.35
9463 57.3120 778.00 865.45 27.89
9464 57.3170 806.00 877.84 28.39
9465 57.3220 804.00 890.47 28.35
9466 57.3270 780.00 903.35 27.93
9467 57.3320 792.00 916.45 28.14
9468 57.3370 846.00 929.74 29.09
9469 57.3420 878.00 943.23 29.63
9470 57.3470 905.00 956.83 30.08
9471 57.3520 924.00 970.59 30.40
9472 57.3570 918.00 984.41 30.30
9473 57.3620 925.00 998.28 30.41
9474 57.3670 939.00 1012.21 30.64
9475 57.3720 992.00 1026.10 31.50
9476 57.3770 1010.00 1039.93 31.78
9477 57.3820 995.00 1053.67 31.54
9478 57.3870 1002.00 1067.26 31.65
9479 57.3920 1020.00 1080.66 31.94
9480 57.3970 1007.00 1093.81 31.73
9481 57.4020 976.00 1106.68 31.24
9482 57.4070 971.00 1119.21 31.16
9483 57.4120 1016.00 1131.33 31.87
9484 57.4170 1019.00 1143.01 31.92
9485 57.4220 1042.00 1154.19 32.28
9486 57.4270 1091.00 1164.81 33.03
9487 57.4320 1096.00 1174.83 33.11
9488 57.4370 1096.00 1184.19 33.11
9489 57.4420 1108.00 1192.85 33.29
9490 57.4470 1115.00 1200.78 33.39
9491 57.4520 1152.00 1207.91 33.94
9492 57.4570 1182.00 1214.23 34.38
9493 57.4620 1195.00 1219.71 34.57
9494 57.4670 1219.00 1224.31 34.91
9495 57.4720 1231.00 1228.03 35.09
9496 57.4770 1246.00 1230.86 35.30
9497 57.4820 1217.00 1232.79 34.89
9498 57.4870 1217.00 1233.83 34.89
9499 57.4920 1245.00 1233.99 35.28
9500 57.4970 1225.00 1233.30 35.00
9501 57.5020 1220.00 1231.77 34.93
9502 57.5070 1251.00 1229.45 35.37
9503 57.5120 1245.00 1226.36 35.28
9504 57.5170 1221.00 1222.56 34.94
9505 57.5220 1228.00 1218.10 35.04
9506 57.5270 1253.00 1213.03 35.40
9507 57.5320 1260.00 1207.40 35.50
9508 57.5370 1247.00 1201.27 35.31
9509 57.5420 1228.00 1194.70 35.04
9510 57.5470 1194.00 1187.76 34.55
9511 57.5520 1175.00 1182.82 34.28
9512 57.5570 1189.00 1175.31 34.48
9513 57.5620 1192.00 1167.62 34.53
9514 57.5670 1185.00 1159.78 34.42
9515 57.5720 1179.00 1151.85 34.34
9516 57.5770 1152.00 1143.92 33.94
9517 57.5820 1117.00 1136.00 33.42
9518 57.5870 1107.00 1128.14 33.27
9519 57.5920 1104.00 1120.41 33.23
9520 57.5970 1127.00 1112.84 33.57
9521 57.6020 1104.00 1105.46 33.23
9522 57.6070 1068.00 1098.33 32.68
9523 57.6120 1090.00 1091.47 33.02
9524 57.6170 1128.00 1084.92 33.59
9525 57.6220 1094.00 1078.70 33.08
9526 57.6270 1057.00 1072.84 32.51
9527 57.6320 1030.00 1067.36 32.09
9528 57.6370 1042.00 1062.29 32.28
9529 57.6420 1029.00 1057.65 32.08
9530 57.6470 1087.00 1053.45 32.97
9531 57.6520 1083.00 1049.72 32.91
9532 57.6570 1106.00 1046.46 33.26
9533 57.6620 1131.00 1043.69 33.63
9534 57.6670 1115.00 1041.43 33.39
9535 57.6720 1083.00 1039.68 32.91
9536 57.6770 1061.00 1038.45 32.57
9537 57.6820 1038.00 1037.74 32.22
9538 57.6870 1083.00 1037.58 32.91
9539 57.6920 1089.00 1037.96 33.00
9540 57.6970 1057.00 1038.88 32.51
9541 57.7020 1049.00 1040.36 32.39
9542 57.7070 1059.00 1042.39 32.54
9543 57.7120 1066.00 1044.98 32.65
9544 57.7170 1017.00 1048.13 31.89
9545 57.7220 1014.00 1051.83 31.84
9546 57.7270 1055.00 1056.10 32.48
9547 57.7320 1074.00 1060.93 32.77
9548 57.7370 1100.00 1066.32 33.17
9549 57.7420 1106.00 1072.26 33.26
9550 57.7470 1136.00 1078.77 33.70
9551 57.7520 1135.00 1085.82 33.69
9552 57.7570 1160.00 1093.43 34.06
9553 57.7620 1188.00 1101.59 34.47
9554 57.7670 1196.00 1110.30 34.58
9555 57.7720 1184.00 1119.55 34.41
9556 57.7770 1189.00 1129.34 34.48
9557 57.7820 1203.00 1139.66 34.68
9558 57.7870 1217.00 1150.52 34.89
9559 57.7920 1231.00 1161.88 35.09
9560 57.7970 1260.00 1173.78 35.50
9561 57.8020 1233.00 1186.21 35.11
9562 57.8070 1217.00 1199.12 34.89
9563 57.8120 1227.00 1212.52 35.03
9564 57.8170 1269.00 1226.45 35.62
9565 57.8220 1275.00 1240.82 35.71
9566 57.8270 1289.00 1255.67 35.90
9567 57.8320 1263.00 1271.04 35.54
9568 57.8370 1289.00 1286.85 35.90
9569 57.8420 1332.00 1303.10 36.50
9570 57.8470 1351.00 1319.81 36.76
9571 57.8520 1375.00 1336.94 37.08
9572 57.8570 1414.00 1354.49 37.60
9573 57.8620 1431.00 1372.45 37.83
9574 57.8670 1462.00 1390.81 38.24
9575 57.8720 1483.00 1409.55 38.51
9576 57.8770 1503.00 1428.66 38.77
9577 57.8820 1456.00 1448.13 38.16
9578 57.8870 1489.00 1467.93 38.59
9579 57.8920 1522.00 1488.05 39.01
9580 57.8970 1558.00 1508.47 39.47
9581 57.9020 1543.00 1529.18 39.28
9582 57.9070 1592.00 1550.16 39.90
9583 57.9120 1622.00 1571.40 40.27
9584 57.9170 1637.00 1592.81 40.46
9585 57.9220 1646.00 1614.48 40.57
9586 57.9270 1651.00 1636.30 40.63
9587 57.9320 1672.00 1658.26 40.89
9588 57.9370 1745.00 1680.34 41.77
9589 57.9420 1764.00 1702.52 42.00
9590 57.9470 1769.00 1724.77 42.06
9591 57.9520 1799.00 1747.05 42.41
9592 57.9570 1838.00 1769.34 42.87
9593 57.9620 1867.00 1791.60 43.21
9594 57.9670 1925.00 1813.80 43.87
9595 57.9720 1923.00 1835.90 43.85
9596 57.9770 1944.00 1857.86 44.09
9597 57.9820 1902.00 1879.66 43.61
9598 57.9870 1976.00 1901.25 44.45
9599 57.9920 1974.00 1922.58 44.43
9600 57.9970 1952.00 1943.62 44.18
9601 58.0020 1935.00 1964.32 43.99
9602 58.0070 2002.00 1984.64 44.74
9603 58.0120 2056.00 2004.52 45.34
9604 58.0170 2042.00 2023.95 45.19
9605 58.0220 2050.00 2042.80 45.28
9606 58.0270 2077.00 2061.09 45.57
9607 58.0320 2112.00 2078.76 45.96
9608 58.0370 2173.00 2096.81 46.62
9609 58.0420 2142.00 2113.00 46.28
9610 58.0470 2180.00 2128.42 46.69
9611 58.0520 2220.00 2142.96 47.12
9612 58.0570 2198.00 2156.57 46.88
9613 58.0620 2247.00 2169.19 47.40
9614 58.0670 2283.00 2180.78 47.78
9615 58.0720 2299.00 2191.26 47.95
9616 58.0770 2266.00 2200.59 47.60
9617 58.0820 2190.00 2208.70 46.80
9618 58.0870 2207.00 2215.57 46.98
9619 58.0920 2218.00 2221.12 47.10
9620 58.0970 2263.00 2225.34 47.57
9621 58.1020 2237.00 2228.07 47.30
9622 58.1070 2192.00 2229.50 46.82
9623 58.1120 2167.00 2229.50 46.55
9624 58.1170 2208.00 2228.06 46.99
9625 58.1220 2210.00 2225.17 47.01
9626 58.1270 2244.00 2220.83 47.37
9627 58.1320 2247.00 2215.06 47.40
9628 58.1370 2237.00 2207.86 47.30
9629 58.1420 2240.00 2199.25 47.33
9630 58.1470 2301.00 2189.29 47.97
9631 58.1520 2297.00 2177.98 47.93
9632 58.1570 2260.00 2165.36 47.54
9633 58.1620 2218.00 2151.49 47.10
9634 58.1670 2212.00 2136.42 47.03
9635 58.1720 2211.00 2118.50 47.02
9636 58.1770 2130.00 2101.16 46.15
9637 58.1820 2069.00 2082.78 45.49
9638 58.1870 2064.00 2063.39 45.43
9639 58.1920 2074.00 2043.07 45.54
9640 58.1970 2063.00 2021.87 45.42
9641 58.2020 2020.00 1999.84 44.94
9642 58.2070 1914.00 1977.04 43.75
9643 58.2120 1904.00 1953.54 43.63
9644 58.2170 1904.00 1929.39 43.63
9645 58.2220 1903.00 1904.65 43.62
9646 58.2270 1840.00 1879.38 42.90
9647 58.2320 1818.00 1853.64 42.64
9648 58.2370 1811.00 1827.48 42.56
9649 58.2420 1805.00 1800.96 42.49
9650 58.2470 1796.00 1774.13 42.38
9651 58.2520 1783.00 1747.02 42.23
9652 58.2570 1772.00 1719.78 42.10
9653 58.2620 1693.00 1692.32 41.15
9654 58.2670 1631.00 1664.80 40.39
9655 58.2720 1630.00 1637.27 40.37
9656 58.2770 1583.00 1609.66 39.79
9657 58.2820 1548.00 1582.13 39.34
9658 58.2870 1521.00 1554.67 39.00
9659 58.2920 1484.00 1527.34 38.52
9660 58.2970 1445.00 1500.16 38.01
9661 58.3020 1411.00 1473.17 37.56
9662 58.3070 1412.00 1446.41 37.58
9663 58.3120 1388.00 1419.90 37.26
9664 58.3170 1389.00 1393.67 37.27
9665 58.3220 1356.00 1367.75 36.82
9666 58.3270 1328.00 1342.25 36.44
9667 58.3320 1270.00 1317.00 35.64
9668 58.3370 1225.00 1292.13 35.00
9669 58.3420 1199.00 1267.64 34.63
9670 58.3470 1190.00 1243.56 34.50
9671 58.3520 1174.00 1219.89 34.26
9672 58.3570 1178.00 1196.63 34.32
9673 58.3620 1165.00 1173.86 34.13
9674 58.3670 1171.00 1151.51 34.22
9675 58.3720 1166.00 1131.68 34.15
9676 58.3770 1151.00 1110.26 33.93
9677 58.3820 1119.00 1089.33 33.45
9678 58.3870 1091.00 1068.83 33.03
9679 58.3920 1047.00 1048.82 32.36
9680 58.3970 1020.00 1029.32 31.94
9681 58.4020 1024.00 1010.25 32.00
9682 58.4070 1032.00 991.68 32.12
9683 58.4120 986.00 973.59 31.40
9684 58.4170 964.00 955.98 31.05
9685 58.4220 932.00 938.85 30.53
9686 58.4270 884.00 922.18 29.73
9687 58.4320 866.00 905.99 29.43
9688 58.4370 871.00 890.27 29.51
9689 58.4420 869.00 875.00 29.48
9690 58.4470 876.00 860.20 29.60
9691 58.4520 878.00 845.84 29.63
9692 58.4570 838.00 831.93 28.95
9693 58.4620 793.00 818.47 28.16
9694 58.4670 790.00 805.41 28.11
9695 58.4720 787.00 792.83 28.05
9696 58.4770 782.00 780.64 27.96
9697 58.4820 754.00 768.85 27.46
9698 58.4870 726.00 757.50 26.94
9699 58.4920 706.00 746.53 26.57
9700 58.4970 715.00 735.94 26.74
9701 58.5020 711.00 725.74 26.66
9702 58.5070 710.00 715.92 26.65
9703 58.5120 692.00 706.46 26.31
9704 58.5170 686.00 697.36 26.19
9705 58.5220 663.00 688.61 25.75
9706 58.5270 636.00 680.20 25.22
9707 58.5320 640.00 672.12 25.30
9708 58.5370 662.00 664.36 25.73
9709 58.5420 669.00 656.92 25.86
9710 58.5470 640.00 649.78 25.30
9711 58.5520 625.00 642.94 25.00
9712 58.5570 610.00 636.39 24.70
9713 58.5620 602.00 630.12 24.54
9714 58.5670 597.00 624.12 24.43
9715 58.5720 593.00 617.24 24.35
9716 58.5770 604.00 611.76 24.58
9717 58.5820 620.00 606.52 24.90
9718 58.5870 623.00 601.52 24.96
9719 58.5920 627.00 596.75 25.04
9720 58.5970 609.00 592.21 24.68
9721 58.6020 596.00 587.88 24.41
9722 58.6070 554.00 583.75 23.54
9723 58.6120 516.00 579.83 22.72
9724 58.6170 538.00 576.09 23.19
9725 58.6220 563.00 572.54 23.73
9726 58.6270 552.00 569.17 23.49
9727 58.6320 553.00 565.97 23.52
9728 58.6370 540.00 562.94 23.24
9729 58.6420 491.00 560.06 22.16
9730 58.6470 509.00 557.34 22.56
9731 58.6520 535.00 554.76 23.13
9732 58.6570 529.00 552.33 23.00
9733 58.6620 526.00 550.03 22.93
9734 58.6670 533.00 547.86 23.09
9735 58.6720 549.00 545.82 23.43
9736 58.6770 549.00 543.90 23.43
9737 58.6820 525.00 542.10 22.91
9738 58.6870 515.00 540.41 22.69
9739 58.6920 506.00 538.84 22.49
9740 58.6970 507.00 537.36 22.52
9741 58.7020 530.00 535.96 23.02
9742 58.7070 550.00 534.69 23.45
9743 58.7120 571.00 533.51 23.90
9744 58.7170 572.00 532.43 23.92
9745 58.7220 566.00 531.44 23.79
9746 58.7270 555.00 530.53 23.56
9747 58.7320 551.00 529.71 23.47
9748 58.7370 536.00 528.97 23.15
9749 58.7420 515.00 528.32 22.69
9750 58.7470 538.00 527.74 23.19
9751 58.7520 559.00 527.25 23.64
9752 58.7570 539.00 526.83 23.22
9753 58.7620 531.00 526.48 23.04
9754 58.7670 560.00 526.21 23.66
9755 58.7720 555.00 526.01 23.56
9756 58.7770 538.00 525.88 23.19
9757 58.7820 516.00 525.82 22.72
9758 58.7870 490.00 525.83 22.14
9759 58.7920 473.00 525.90 21.75
9760 58.7970 438.00 526.05 20.93
9761 58.8020 443.00 526.26 21.05
9762 58.8070 485.00 526.53 22.02
9763 58.8120 505.00 526.88 22.47
9764 58.8170 473.00 527.28 21.75
9765 58.8220 446.00 527.75 21.12
9766 58.8270 435.00 528.29 20.86
9767 58.8320 439.00 528.89 20.95
9768 58.8370 455.00 529.55 21.33
9769 58.8420 471.00 530.28 21.70
9770 58.8470 483.00 531.08 21.98
9771 58.8520 497.00 531.94 22.29
9772 58.8570 490.00 532.86 22.14
9773 58.8620 485.00 533.85 22.02
9774 58.8670 480.00 534.91 21.91
9775 58.8720 465.00 536.03 21.56
9776 58.8770 452.00 537.23 21.26
9777 58.8820 463.00 538.49 21.52
9778 58.8870 490.00 539.83 22.14
9779 58.8920 499.00 541.23 22.34
9780 58.8970 510.00 542.72 22.58
9781 58.9020 516.00 544.27 22.72
9782 58.9070 492.00 545.91 22.18
9783 58.9120 480.00 547.62 21.91
9784 58.9170 480.00 549.41 21.91
9785 58.9220 489.00 551.29 22.11
9786 58.9270 490.00 553.25 22.14
9787 58.9320 495.00 555.30 22.25
9788 58.9370 523.00 557.42 22.87
9789 58.9420 528.00 559.65 22.98
9790 58.9470 536.00 561.95 23.15
9791 58.9520 558.00 564.34 23.62
9792 58.9570 545.00 566.83 23.35
9793 58.9620 512.00 569.41 22.63
9794 58.9670 528.00 572.08 22.98
9795 58.9720 551.00 574.83 23.47
9796 58.9770 530.00 577.68 23.02
9797 58.9820 511.00 580.61 22.61
9798 58.9870 517.00 583.63 22.74
9799 58.9920 513.00 586.74 22.65
9800 58.9970 488.00 589.93 22.09
9801 59.0020 502.00 593.20 22.41
9802 59.0070 517.00 596.55 22.74
9803 59.0120 511.00 599.98 22.61
9804 59.0170 481.00 603.48 21.93
9805 59.0220 476.00 607.04 21.82
9806 59.0270 490.00 610.66 22.14
9807 59.0320 512.00 614.35 22.63
9808 59.0370 537.00 618.08 23.17
9809 59.0420 567.00 621.85 23.81
9810 59.0470 565.00 625.67 23.77
9811 59.0520 562.00 627.13 23.71
9812 59.0570 564.00 631.00 23.75
9813 59.0620 551.00 634.89 23.47
9814 59.0670 543.00 638.80 23.30
9815 59.0720 527.00 642.70 22.96
9816 59.0770 531.00 646.59 23.04
9817 59.0820 534.00 650.46 23.11
9818 59.0870 545.00 654.06 23.35
9819 59.0920 516.00 657.88 22.72
9820 59.0970 504.00 661.65 22.45
9821 59.1020 518.00 665.38 22.76
9822 59.1070 527.00 669.05 22.96
9823 59.1120 545.00 672.66 23.35
9824 59.1170 567.00 676.20 23.81
9825 59.1220 557.00 679.67 23.60
9826 59.1270 552.00 683.06 23.49
9827 59.1320 582.00 686.37 24.12
9828 59.1370 588.00 689.60 24.25
9829 59.1420 594.00 692.74 24.37
9830 59.1470 600.00 695.80 24.49
9831 59.1520 611.00 698.77 24.72
9832 59.1570 613.00 701.67 24.76
9833 59.1620 654.00 704.49 25.57
9834 59.1670 639.00 707.23 25.28
9835 59.1720 644.00 709.92 25.38
9836 59.1770 644.00 712.54 25.38
9837 59.1820 652.00 715.11 25.53
9838 59.1870 653.00 717.64 25.55
9839 59.1920 637.00 720.14 25.24
9840 59.1970 652.00 718.30 25.53
9841 59.2020 672.00 720.77 25.92
9842 59.2070 695.00 723.24 26.36
9843 59.2120 696.00 725.72 26.38
9844 59.2170 688.00 728.21 26.23
9845 59.2220 657.00 730.73 25.63
9846 59.2270 685.00 733.28 26.17
9847 59.2320 697.00 735.88 26.40
9848 59.2370 706.00 738.54 26.57
9849 59.2420 715.00 741.25 26.74
9850 59.2470 689.00 744.03 26.25
9851 59.2520 675.00 746.89 25.98
9852 59.2570 677.00 749.82 26.02
9853 59.2620 705.00 752.84 26.55
9854 59.2670 681.00 755.95 26.10
9855 59.2720 662.00 759.14 25.73
9856 59.2770 664.00 762.42 25.77
9857 59.2820 673.00 765.80 25.94
9858 59.2870 682.00 769.26 26.12
9859 59.2920 657.00 772.81 25.63
9860 59.2970 651.00 776.46 25.51
9861 59.3020 659.00 780.19 25.67
9862 59.3070 675.00 784.00 25.98
9863 59.3120 674.00 787.89 25.96
9864 59.3170 686.00 791.85 26.19
9865 59.3220 715.00 795.88 26.74
9866 59.3270 677.00 799.97 26.02
9867 59.3320 691.00 804.11 26.29
9868 59.3370 692.00 808.30 26.31
9869 59.3420 740.00 812.53 27.20
9870 59.3470 784.00 816.78 28.00
9871 59.3520 805.00 821.07 28.37
9872 59.3570 780.00 825.37 27.93
9873 59.3620 780.00 829.67 27.93
9874 59.3670 770.00 833.98 27.75
9875 59.3720 789.00 838.27 28.09
9876 59.3770 818.00 842.56 28.60
9877 59.3820 793.00 846.80 28.16
9878 59.3870 791.00 851.03 28.12
9879 59.3920 748.00 855.22 27.35
9880 59.3970 759.00 859.36 27.55
9881 59.4020 764.00 863.45 27.64
9882 59.4070 783.00 867.51 27.98
9883 59.4120 811.00 871.50 28.48
9884 59.4170 802.00 875.43 28.32
9885 59.4220 816.00 879.31 28.57
9886 59.4270 824.00 883.13 28.71
9887 59.4320 823.00 886.90 28.69
9888 59.4370 820.00 890.61 28.64
9889 59.4420 849.00 894.27 29.14
9890 59.4470 870.00 897.89 29.50
9891 59.4520 880.00 901.46 29.66
9892 59.4570 867.00 905.00 29.44
9893 59.4620 882.00 908.52 29.70
9894 59.4670 865.00 912.01 29.41
9895 59.4720 853.00 915.49 29.21
9896 59.4770 842.00 918.97 29.02
9897 59.4820 854.00 922.45 29.22
9898 59.4870 859.00 925.95 29.31
9899 59.4920 855.00 929.48 29.24
9900 59.4970 825.00 933.04 28.72
9901 59.5020 879.00 936.64 29.65
9902 59.5070 890.00 940.29 29.83
9903 59.5120 891.00 941.60 29.85
9904 59.5170 909.00 945.40 30.15
9905 59.5220 911.00 949.27 30.18
9906 59.5270 901.00 953.24 30.02
9907 59.5320 925.00 957.30 30.41
9908 59.5370 927.00 961.46 30.45
9909 59.5420 948.00 965.73 30.79
9910 59.5470 950.00 970.11 30.82
9911 59.5520 961.00 974.61 31.00
9912 59.5570 902.00 979.24 30.03
9913 59.5620 899.00 983.99 29.98
9914 59.5670 924.00 988.87 30.40
9915 59.5720 968.00 993.88 31.11
9916 59.5770 935.00 999.02 30.58
9917 59.5820 940.00 1004.29 30.66
9918 59.5870 976.00 1009.70 31.24
9919 59.5920 1003.00 1015.25 31.67
9920 59.5970 983.00 1020.91 31.35
9921 59.6020 1006.00 1026.71 31.72
9922 59.6070 971.00 1032.64 31.16
9923 59.6120 966.00 1038.68 31.08
9924 59.6170 938.00 1044.84 30.63
9925 59.6220 957.00 1051.13 30.94
9926 59.6270 939.00 1057.53 30.64
9927 59.6320 922.00 1064.02 30.36
9928 59.6370 942.00 1070.63 30.69
9929 59.6420 959.00 1077.33 30.97
9930 59.6470 996.00 1084.12 31.56
9931 59.6520 1013.00 1091.00 31.83
9932 59.6570 1021.00 1097.96 31.95
9933 59.6620 1028.00 1104.99 32.06
9934 59.6670 1043.00 1112.10 32.30
9935 59.6720 1073.00 1119.26 32.76
9936 59.6770 1079.00 1126.49 32.85
9937 59.6820 1067.00 1133.76 32.67
9938 59.6870 1059.00 1141.08 32.54
9939 59.6920 1053.00 1148.44 32.45
9940 59.6970 1062.00 1155.83 32.59
9941 59.7020 1086.00 1163.25 32.95
9942 59.7070 1099.00 1170.69 33.15
9943 59.7120 1083.00 1178.15 32.91
9944 59.7170 1082.00 1185.62 32.89
9945 59.7220 1070.00 1193.08 32.71
9946 59.7270 1092.00 1200.55 33.05
9947 59.7320 1110.00 1208.02 33.32
9948 59.7370 1122.00 1215.45 33.50
9949 59.7420 1145.00 1222.88 33.84
9950 59.7470 1159.00 1229.81 34.04
9951 59.7520 1169.00 1237.17 34.19
9952 59.7570 1185.00 1244.48 34.42
9953 59.7620 1183.00 1251.74 34.39
9954 59.7670 1174.00 1258.94 34.26
9955 59.7720 1194.00 1266.07 34.55
9956 59.7770 1178.00 1273.13 34.32
9957 59.7820 1166.00 1280.10 34.15
9958 59.7870 1155.00 1286.97 33.99
9959 59.7920 1174.00 1293.74 34.26
9960 59.7970 1173.00 1300.39 34.25
9961 59.8020 1221.00 1306.92 34.94
9962 59.8070 1246.00 1313.32 35.30
9963 59.8120 1254.00 1319.56 35.41
9964 59.8170 1258.00 1325.66 35.47
9965 59.8220 1261.00 1331.58 35.51
9966 59.8270 1288.00 1337.34 35.89
9967 59.8320 1278.00 1342.91 35.75
9968 59.8370 1294.00 1348.29 35.97
9969 59.8420 1303.00 1353.46 36.10
9970 59.8470 1297.00 1358.42 36.01
9971 59.8520 1306.00 1363.18 36.14
9972 59.8570 1332.00 1367.71 36.50
9973 59.8620 1334.00 1372.00 36.52
9974 59.8670 1333.00 1376.08 36.51
9975 59.8720 1353.00 1379.91 36.78
9976 59.8770 1335.00 1383.50 36.54
9977 59.8820 1338.00 1386.86 36.58
9978 59.8870 1349.00 1389.97 36.73
9979 59.8920 1318.00 1392.84 36.30
9980 59.8970 1311.00 1395.47 36.21
9981 59.9020 1306.00 1397.85 36.14
9982 59.9070 1310.00 1400.00 36.19
9983 59.9120 1284.00 1401.92 35.83
9984 59.9170 1274.00 1403.60 35.69
9985 59.9220 1302.00 1404.87 36.08
9986 59.9270 1310.00 1406.09 36.19
9987 59.9320 1324.00 1407.09 36.39
9988 59.9370 1299.00 1407.86 36.04
9989 59.9420 1298.00 1408.42 36.03
9990 59.9470 1301.00 1408.75 36.07
9991 59.9520 1289.00 1408.88 35.90
9992 59.9570 1255.00 1408.79 35.43
9993 59.9620 1296.00 1408.48 36.00
9994 59.9670 1365.00 1407.97 36.95
9995 59.9720 1363.00 1407.24 36.92
9996 59.9770 1352.00 1406.29 36.77
9997 59.9820 1349.00 1405.13 36.73
9998 59.9870 1338.00 1403.74 36.58
9999 59.9920 1340.00 1402.14 36.61
10000 59.9970 1344.00 1400.30 36.66
10001 60.0020 1357.00 1398.23 36.84
10002 60.0070 1349.00 1395.92 36.73
10003 60.0120 1321.00 1393.36 36.35
10004 60.0170 1315.00 1390.55 36.26
10005 60.0220 1343.00 1387.47 36.65
10006 60.0270 1332.00 1384.13 36.50
10007 60.0320 1347.00 1380.51 36.70
10008 60.0370 1348.00 1376.61 36.72
10009 60.0420 1332.00 1372.41 36.50
10010 60.0470 1332.00 1367.92 36.50
10011 60.0520 1362.00 1363.12 36.91
10012 60.0570 1378.00 1358.00 37.12
10013 60.0620 1361.00 1352.58 36.89
10014 60.0670 1321.00 1346.83 36.35
10015 60.0720 1320.00 1340.75 36.33
10016 60.0770 1344.00 1334.36 36.66
10017 60.0820 1354.00 1327.63 36.80
10018 60.0870 1312.00 1320.58 36.22
10019 60.0920 1286.00 1313.20 35.86
10020 60.0970 1286.00 1305.51 35.86
10021 60.1020 1272.00 1297.50 35.67
10022 60.1070 1250.00 1289.18 35.36
10023 60.1120 1229.00 1280.56 35.06
10024 60.1170 1200.00 1271.65 34.64
10025 60.1220 1194.00 1262.47 34.55
10026 60.1270 1195.00 1253.02 34.57
10027 60.1320 1201.00 1243.32 34.66
10028 60.1370 1232.00 1238.91 35.10
10029 60.1420 1242.00 1228.77 35.24
10030 60.1470 1233.00 1218.43 35.11
10031 60.1520 1203.00 1207.90 34.68
10032 60.1570 1161.00 1197.21 34.07
10033 60.1620 1165.00 1186.35 34.13
10034 60.1670 1157.00 1175.40 34.01
10035 60.1720 1131.00 1164.33 33.63
10036 60.1770 1114.00 1153.15 33.38
10037 60.1820 1110.00 1141.92 33.32
10038 60.1870 1104.00 1130.66 33.23
10039 60.1920 1106.00 1119.33 33.26
10040 60.1970 1091.00 1108.02 33.03
10041 60.2020 1058.00 1096.72 32.53
10042 60.2070 1058.00 1085.42 32.53
10043 60.2120 1073.00 1074.18 32.76
10044 60.2170 1044.00 1062.99 32.31
10045 60.2220 1005.00 1051.88 31.70
10046 60.2270 989.00 1040.86 31.45
10047 60.2320 978.00 1029.93 31.27
10048 60.2370 961.00 1019.12 31.00
10049 60.2420 970.00 1008.44 31.14
10050 60.2470 962.00 997.89 31.02
10051 60.2520 956.00 987.49 30.92
10052 60.2570 960.00 977.25 30.98
10053 60.2620 954.00 967.17 30.89
10054 60.2670 948.00 955.48 30.79
10055 60.2720 933.00 945.76 30.55
10056 60.2770 915.00 936.22 30.25
10057 60.2820 906.00 926.87 30.10
10058 60.2870 914.00 917.70 30.23
10059 60.2920 905.00 908.76 30.08
10060 60.2970 878.00 900.01 29.63
10061 60.3020 862.00 891.45 29.36
10062 60.3070 836.00 883.10 28.91
10063 60.3120 835.00 874.97 28.90
10064 60.3170 878.00 867.04 29.63
10065 60.3220 908.00 859.33 30.13
10066 60.3270 889.00 851.82 29.82
10067 60.3320 849.00 846.49 29.14
10068 60.3370 814.00 839.41 28.53
10069 60.3420 811.00 832.54 28.48
10070 60.3470 830.00 825.87 28.81
10071 60.3520 827.00 819.41 28.76
10072 60.3570 818.00 813.16 28.60
10073 60.3620 818.00 807.10 28.60
10074 60.3670 802.00 801.24 28.32
10075 60.3720 769.00 795.58 27.73
10076 60.3770 747.00 790.12 27.33
10077 60.3820 762.00 784.03 27.60
10078 60.3870 788.00 778.95 28.07
10079 60.3920 778.00 774.05 27.89
10080 60.3970 754.00 769.34 27.46
10081 60.4020 746.00 764.80 27.31
10082 60.4070 735.00 760.44 27.11
10083 60.4120 723.00 756.25 26.89
10084 60.4170 708.00 752.24 26.61
10085 60.4220 716.00 748.39 26.76
10086 60.4270 743.00 744.71 27.26
10087 60.4320 733.00 741.19 27.07
10088 60.4370 718.00 737.83 26.80
10089 60.4420 710.00 734.62 26.65
10090 60.4470 717.00 731.57 26.78
10091 60.4520 747.00 728.66 27.33
10092 60.4570 748.00 725.91 27.35
10093 60.4620 720.00 723.30 26.83
10094 60.4670 689.00 720.83 26.25
10095 60.4720 692.00 718.49 26.31
10096 60.4770 714.00 716.30 26.72
10097 60.4820 708.00 715.28 26.61
10098 60.4870 690.00 713.35 26.27
10099 60.4920 669.00 711.55 25.86
10100 60.4970 656.00 709.99 25.61
10101 60.5020 655.00 708.44 25.59
10102 60.5070 671.00 707.01 25.90
10103 60.5120 704.00 705.69 26.53
10104 60.5170 712.00 704.49 26.68
10105 60.5220 686.00 703.39 26.19
10106 60.5270 662.00 702.40 25.73
10107 60.5320 664.00 701.51 25.77
10108 60.5370 674.00 700.72 25.96
10109 60.5420 683.00 700.01 26.13
10110 60.5470 679.00 699.40 26.06
10111 60.5520 671.00 698.86 25.90
10112 60.5570 661.00 698.41 25.71
10113 60.5620 677.00 698.02 26.02
10114 60.5670 680.00 697.70 26.08
10115 60.5720 657.00 697.42 25.63
10116 60.5770 652.00 697.20 25.53
10117 60.5820 642.00 697.02 25.34
10118 60.5870 632.00 696.87 25.14
10119 60.5920 648.00 696.74 25.46
10120 60.5970 669.00 696.62 25.86
10121 60.6020 665.00 696.51 25.79
10122 60.6070 671.00 696.39 25.90
10123 60.6120 658.00 696.24 25.65
10124 60.6170 658.00 696.07 25.65
10125 60.6220 694.00 695.85 26.34
10126 60.6270 700.00 695.58 26.46
10127 60.6320 678.00 695.24 26.04
10128 60.6370 704.00 694.82 26.53
10129 60.6420 725.00 694.31 26.93
10130 60.6470 734.00 693.70 27.09
10131 60.6520 705.00 692.97 26.55
10132 60.6570 696.00 692.12 26.38
10133 60.6620 715.00 691.14 26.74
10134 60.6670 689.00 690.02 26.25
10135 60.6720 666.00 688.74 25.81
10136 60.6770 671.00 687.31 25.90
10137 60.6820 687.00 685.72 26.21
10138 60.6870 672.00 683.97 25.92
10139 60.6920 673.00 682.05 25.94
10140 60.6970 683.00 679.96 26.13
10141 60.7020 639.00 677.71 25.28
10142 60.7070 604.00 675.29 24.58
10143 60.7120 608.00 672.72 24.66
10144 60.7170 634.00 670.00 25.18
10145 60.7220 665.00 667.13 25.79
10146 60.7270 692.00 664.13 26.31
10147 60.7320 684.00 660.99 26.15
10148 60.7370 641.00 657.76 25.32
10149 60.7420 623.00 654.41 24.96
10150 60.7470 643.00 650.97 25.36
10151 60.7520 642.00 647.46 25.34
10152 60.7570 633.00 643.89 25.16
10153 60.7620 649.00 640.25 25.48
10154 60.7670 646.00 636.58 25.42
10155 60.7720 636.00 632.89 25.22
10156 60.7770 637.00 629.18 25.24
10157 60.7820 642.00 625.47 25.34
10158 60.7870 622.00 621.78 24.94
10159 60.7920 640.00 618.10 25.30
10160 60.7970 651.00 614.46 25.51
10161 60.8020 611.00 610.87 24.72
10162 60.8070 594.00 607.32 24.37
10163 60.8120 571.00 603.84 23.90
10164 60.8170 584.00 600.43 24.17
10165 60.8220 609.00 597.11 24.68
10166 60.8270 624.00 593.87 24.98
10167 60.8320 619.00 590.72 24.88
10168 60.8370 635.00 587.68 25.20
10169 60.8420 609.00 584.49 24.68
10170 60.8470 604.00 581.67 24.58
10171 60.8520 595.00 578.97 24.39
10172 60.8570 581.00 576.40 24.10
10173 60.8620 601.00 573.96 24.52
10174 60.8670 601.00 571.66 24.52
10175 60.8720 598.00 569.49 24.45
10176 60.8770 584.00 567.47 24.17
10177 60.8820 576.00 565.60 24.00
10178 60.8870 550.00 563.88 23.45
10179 60.8920 532.00 563.43 23.07
10180 60.8970 519.00 562.03 22.78
10181 60.9020 493.00 560.79 22.20
10182 60.9070 476.00 559.72 21.82
10183 60.9120 493.00 558.82 22.20
10184 60.9170 537.00 558.09 23.17
10185 60.9220 550.00 557.54 23.45
10186 60.9270 539.00 558.53 23.22
10187 60.9320 549.00 558.34 23.43
10188 60.9370 541.00 558.46 23.26
10189 60.9420 535.00 558.64 23.13
10190 60.9470 526.00 559.01 22.93
10191 60.9520 518.00 559.57 22.76
10192 60.9570 525.00 560.33 22.91
10193 60.9620 541.00 561.29 23.26
10194 60.9670 535.00 562.45 23.13
10195 60.9720 526.00 563.81 22.93
10196 60.9770 520.00 565.39 22.80
10197 60.9820 560.00 567.17 23.66
10198 60.9870 569.00 569.16 23.85
10199 60.9920 596.00 571.38 24.41
10200 60.9970 599.00 573.81 24.47
10201 61.0020 587.00 576.47 24.23
10202 61.0070 575.00 579.35 23.98
10203 61.0120 568.00 582.47 23.83
10204 61.0170 576.00 585.82 24.00
10205 61.0220 570.00 589.40 23.87
10206 61.0270 574.00 593.23 23.96
10207 61.0320 583.00 597.31 24.15
10208 61.0370 594.00 601.63 24.37
10209 61.0420 582.00 606.21 24.12
10210 61.0470 631.00 611.05 25.12
10211 61.0520 665.00 616.15 25.79
10212 61.0570 651.00 621.52 25.51
10213 61.0620 667.00 627.16 25.83
10214 61.0670 675.00 633.08 25.98
10215 61.0720 641.00 639.29 25.32
10216 61.0770 661.00 645.77 25.71
10217 61.0820 644.00 652.55 25.38
10218 61.0870 664.00 659.64 25.77
10219 61.0920 670.00 667.01 25.88
10220 61.0970 690.00 674.69 26.27
10221 61.1020 690.00 682.70 26.27
10222 61.1070 701.00 691.02 26.48
10223 61.1120 741.00 699.65 27.22
10224 61.1170 718.00 708.63 26.80
10225 61.1220 721.00 717.93 26.85
10226 61.1270 723.00 727.58 26.89
10227 61.1320 723.00 737.57 26.89
10228 61.1370 736.00 747.91 27.13
10229 61.1420 733.00 758.61 27.07
10230 61.1470 742.00 769.67 27.24
10231 61.1520 757.00 781.09 27.51
10232 61.1570 760.00 792.89 27.57
10233 61.1620 760.00 805.06 27.57
10234 61.1670 783.00 817.62 27.98
10235 61.1720 794.00 830.56 28.18
10236 61.1770 811.00 843.90 28.48
10237 61.1820 836.00 857.65 28.91
10238 61.1870 828.00 871.76 28.77
10239 61.1920 833.00 886.30 28.86
10240 61.1970 797.00 901.26 28.23
10241 61.2020 781.00 916.60 27.95
10242 61.2070 837.00 932.37 28.93
10243 61.2120 878.00 948.58 29.63
10244 61.2170 870.00 965.19 29.50
10245 61.2220 894.00 982.23 29.90
10246 61.2270 890.00 999.68 29.83
10247 61.2320 909.00 1017.57 30.15
10248 61.2370 977.00 1035.88 31.26
10249 61.2420 1012.00 1054.62 31.81
10250 61.2470 1015.00 1073.79 31.86
10251 61.2520 1059.00 1093.38 32.54
10252 61.2570 1141.00 1113.39 33.78
10253 61.2620 1133.00 1133.83 33.66
10254 61.2670 1084.00 1154.69 32.92
10255 61.2720 1105.00 1175.97 33.24
10256 61.2770 1121.00 1197.66 33.48
10257 61.2820 1138.00 1219.75 33.73
10258 61.2870 1167.00 1242.25 34.16
10259 61.2920 1182.00 1265.14 34.38
10260 61.2970 1214.00 1288.41 34.84
10261 61.3020 1228.00 1312.07 35.04
10262 61.3070 1288.00 1336.12 35.89
10263 61.3120 1295.00 1360.46 35.99
10264 61.3170 1347.00 1385.21 36.70
10265 61.3220 1351.00 1410.26 36.76
10266 61.3270 1344.00 1435.59 36.66
10267 61.3320 1388.00 1461.29 37.26
10268 61.3370 1456.00 1487.23 38.16
10269 61.3420 1476.00 1513.44 38.42
10270 61.3470 1521.00 1539.89 39.00
10271 61.3520 1518.00 1566.56 38.96
10272 61.3570 1510.00 1593.43 38.86
10273 61.3620 1537.00 1620.47 39.20
10274 61.3670 1539.00 1647.65 39.23
10275 61.3720 1561.00 1674.96 39.51
10276 61.3770 1552.00 1702.35 39.40
10277 61.3820 1577.00 1731.01 39.71
10278 61.3870 1609.00 1758.49 40.11
10279 61.3920 1630.00 1785.97 40.37
10280 61.3970 1669.00 1813.40 40.85
10281 61.4020 1735.00 1840.75 41.65
10282 61.4070 1796.00 1866.34 42.38
10283 61.4120 1795.00 1893.46 42.37
10284 61.4170 1814.00 1920.30 42.59
10285 61.4220 1898.00 1946.95 43.57
10286 61.4270 1959.00 1973.34 44.26
10287 61.4320 1938.00 1999.38 44.02
10288 61.4370 1948.00 2025.01 44.14
10289 61.4420 1943.00 2050.29 44.08
10290 61.4470 1984.00 2075.07 44.54
10291 61.4520 2040.00 2099.32 45.17
10292 61.4570 2092.00 2123.07 45.74
10293 61.4620 2115.00 2146.19 45.99
10294 61.4670 2105.00 2168.66 45.88
10295 61.4720 2104.00 2190.44 45.87
10296 61.4770 2129.00 2211.47 46.14
10297 61.4820 2194.00 2231.72 46.84
10298 61.4870 2282.00 2251.13 47.77
10299 61.4920 2298.00 2269.67 47.94
10300 61.4970 2337.00 2287.29 48.34
10301 61.5020 2348.00 2303.94 48.46
10302 61.5070 2392.00 2319.60 48.91
10303 61.5120 2401.00 2334.21 49.00
10304 61.5170 2399.00 2347.74 48.98
10305 61.5220 2423.00 2360.16 49.22
10306 61.5270 2482.00 2371.43 49.82
10307 61.5320 2507.00 2381.52 50.07
10308 61.5370 2473.00 2390.42 49.73
10309 61.5420 2528.00 2398.06 50.28
10310 61.5470 2547.00 2404.47 50.47
10311 61.5520 2578.00 2409.60 50.77
10312 61.5570 2608.00 2413.43 51.07
10313 61.5620 2569.00 2415.97 50.69
10314 61.5670 2559.00 2417.20 50.59
10315 61.5720 2577.00 2417.12 50.76
10316 61.5770 2563.00 2415.74 50.63
10317 61.5820 2568.00 2413.05 50.68
10318 61.5870 2510.00 2409.07 50.10
10319 61.5920 2519.00 2404.32 50.19
10320 61.5970 2524.00 2397.82 50.24
10321 61.6020 2494.00 2390.11 49.94
10322 61.6070 2441.00 2381.20 49.41
10323 61.6120 2424.00 2371.15 49.23
10324 61.6170 2436.00 2359.98 49.36
10325 61.6220 2454.00 2347.76 49.54
10326 61.6270 2463.00 2334.53 49.63
10327 61.6320 2419.00 2320.35 49.18
10328 61.6370 2367.00 2305.28 48.65
10329 61.6420 2363.00 2289.36 48.61
10330 61.6470 2350.00 2272.73 48.48
10331 61.6520 2328.00 2255.39 48.25
10332 61.6570 2310.00 2237.40 48.06
10333 61.6620 2235.00 2218.90 47.28
10334 61.6670 2172.00 2199.95 46.60
10335 61.6720 2189.00 2180.54 46.79
10336 61.6770 2205.00 2160.84 46.96
10337 61.6820 2190.00 2140.88 46.80
10338 61.6870 2169.00 2121.83 46.57
10339 61.6920 2137.00 2101.55 46.23
10340 61.6970 2100.00 2081.22 45.83
10341 61.7020 2067.00 2060.87 45.46
10342 61.7070 2029.00 2040.57 45.04
10343 61.7120 2011.00 2020.23 44.84
10344 61.7170 1989.00 2000.15 44.60
10345 61.7220 1979.00 1980.22 44.49
10346 61.7270 2035.00 1960.48 45.11
10347 61.7320 2040.00 1940.92 45.17
10348 61.7370 2014.00 1921.56 44.88
10349 61.7420 1974.00 1902.39 44.43
10350 61.7470 1987.00 1883.39 44.58
10351 61.7520 1998.00 1864.49 44.70
10352 61.7570 1970.00 1845.75 44.38
10353 61.7620 1918.00 1827.03 43.79
10354 61.7670 1873.00 1808.26 43.28
10355 61.7720 1855.00 1789.44 43.07
10356 61.7770 1882.00 1770.43 43.38
10357 61.7820 1916.00 1751.13 43.77
10358 61.7870 1895.00 1731.49 43.53
10359 61.7920 1817.00 1711.40 42.63
10360 61.7970 1771.00 1690.76 42.08
10361 61.8020 1752.00 1669.48 41.86
10362 61.8070 1722.00 1647.49 41.50
10363 61.8120 1692.00 1624.73 41.13
10364 61.8170 1685.00 1601.14 41.05
10365 61.8220 1686.00 1576.71 41.06
10366 61.8270 1667.00 1551.43 40.83
10367 61.8320 1634.00 1525.33 40.42
10368 61.8370 1579.00 1498.47 39.74
10369 61.8420 1503.00 1470.90 38.77
10370 61.8470 1458.00 1442.73 38.18
10371 61.8520 1448.00 1414.06 38.05
10372 61.8570 1425.00 1385.02 37.75
10373 61.8620 1382.00 1355.73 37.18
10374 61.8670 1356.00 1326.33 36.82
10375 61.8720 1331.00 1296.93 36.48
10376 61.8770 1335.00 1267.63 36.54
10377 61.8820 1322.00 1238.65 36.36
10378 61.8870 1256.00 1209.94 35.44
10379 61.8920 1194.00 1181.71 34.55
10380 61.8970 1205.00 1154.02 34.71
10381 61.9020 1226.00 1126.84 35.01
10382 61.9070 1232.00 1100.32 35.10
10383 61.9120 1202.00 1074.47 34.67
10384 61.9170 1149.00 1049.33 33.90
10385 61.9220 1112.00 1024.91 33.35
10386 61.9270 1073.00 1001.23 32.76
10387 61.9320 1052.00 978.29 32.43
10388 61.9370 1066.00 956.10 32.65
10389 61.9420 1035.00 934.66 32.17
10390 61.9470 1007.00 913.96 31.73
10391 61.9520 998.00 893.98 31.59
10392 61.9570 964.00 874.72 31.05
10393 61.9620 929.00 856.16 30.48
10394 61.9670 916.00 838.26 30.27
10395 61.9720 906.00 821.07 30.10
10396 61.9770 883.00 804.51 29.72
10397 61.9820 883.00 788.55 29.72
10398 61.9870 864.00 773.24 29.39
10399 61.9920 847.00 758.50 29.10
10400 61.9970 828.00 744.31 28.77
10401 62.0020 816.00 730.69 28.57
10402 62.0070 812.00 717.60 28.50
10403 62.0120 788.00 704.99 28.07
10404 62.0170 772.00 692.95 27.78
10405 62.0220 770.00 681.32 27.75
10406 62.0270 764.00 670.11 27.64
10407 62.0320 758.00 659.35 27.53
10408 62.0370 742.00 648.99 27.24
10409 62.0420 731.00 639.03 27.04
10410 62.0470 715.00 629.45 26.74
10411 62.0520 693.00 620.23 26.32
10412 62.0570 684.00 611.35 26.15
10413 62.0620 676.00 602.80 26.00
10414 62.0670 682.00 594.56 26.12
10415 62.0720 687.00 586.63 26.21
10416 62.0770 667.00 578.98 25.83
10417 62.0820 639.00 571.61 25.28
10418 62.0870 629.00 564.50 25.08
10419 62.0920 629.00 557.64 25.08
10420 62.0970 635.00 551.03 25.20
10421 62.1020 615.00 544.64 24.80
10422 62.1070 583.00 538.47 24.15
10423 62.1120 589.00 532.52 24.27
10424 62.1170 599.00 526.76 24.47
10425 62.1220 598.00 521.44 24.45
10426 62.1270 612.00 516.06 24.74
10427 62.1320 600.00 510.86 24.49
10428 62.1370 587.00 505.83 24.23
10429 62.1420 574.00 500.95 23.96
10430 62.1470 567.00 496.24 23.81
10431 62.1520 555.00 491.67 23.56
10432 62.1570 551.00 487.25 23.47
10433 62.1620 552.00 480.93 23.49
10434 62.1670 541.00 476.79 23.26
10435 62.1720 527.00 472.77 22.96
10436 62.1770 545.00 468.87 23.35
10437 62.1820 539.00 465.09 23.22
10438 62.1870 501.00 461.42 22.38
10439 62.1920 492.00 457.87 22.18
10440 62.1970 488.00 454.42 22.09
10441 62.2020 482.00 451.07 21.95
10442 62.2070 475.00 447.81 21.79
10443 62.2120 475.00 444.65 21.79
10444 62.2170 500.00 441.51 22.36
10445 62.2220 496.00 438.54 22.27
10446 62.2270 492.00 435.64 22.18
10447 62.2320 486.00 432.83 22.05
10448 62.2370 479.00 430.10 21.89
10449 62.2420 466.00 427.45 21.59
10450 62.2470 476.00 424.87 21.82
10451 62.2520 474.00 422.36 21.77
10452 62.2570 464.00 419.92 21.54
10453 62.2620 451.00 417.55 21.24
10454 62.2670 461.00 415.25 21.47
10455 62.2720 475.00 413.01 21.79
10456 62.2770 483.00 410.84 21.98
10457 62.2820 488.00 408.72 22.09
10458 62.2870 499.00 406.66 22.34
10459 62.2920 494.00 404.66 22.23
10460 62.2970 486.00 402.71 22.05
10461 62.3020 492.00 400.82 22.18
10462 62.3070 471.00 398.98 21.70
10463 62.3120 472.00 398.94 21.73
10464 62.3170 465.00 397.20 21.56
10465 62.3220 445.00 395.51 21.09
10466 62.3270 457.00 393.88 21.38
10467 62.3320 479.00 392.29 21.89
10468 62.3370 492.00 390.74 22.18
10469 62.3420 498.00 389.23 22.32
10470 62.3470 476.00 387.78 21.82
10471 62.3520 445.00 386.36 21.09
10472 62.3570 418.00 384.99 20.44
10473 62.3620 413.00 383.66 20.32
10474 62.3670 426.00 382.36 20.64
10475 62.3720 413.00 380.83 20.32
10476 62.3770 398.00 379.62 19.95
10477 62.3820 399.00 378.44 19.98
10478 62.3870 424.00 377.31 20.59
10479 62.3920 431.00 376.20 20.76
10480 62.3970 417.00 375.14 20.42
10481 62.4020 417.00 374.11 20.42
10482 62.4070 418.00 373.12 20.44
10483 62.4120 423.00 372.16 20.57
10484 62.4170 435.00 371.24 20.86
10485 62.4220 431.00 370.35 20.76
10486 62.4270 409.00 369.49 20.22
10487 62.4320 415.00 368.67 20.37
10488 62.4370 428.00 367.88 20.69
10489 62.4420 439.00 367.13 20.95
10490 62.4470 457.00 366.40 21.38
10491 62.4520 455.00 365.71 21.33
10492 62.4570 451.00 365.05 21.24
10493 62.4620 453.00 364.43 21.28
10494 62.4670 457.00 363.83 21.38
10495 62.4720 438.00 363.27 20.93
10496 62.4770 411.00 362.74 20.27
10497 62.4820 401.00 362.24 20.02
10498 62.4870 409.00 361.77 20.22
10499 62.4920 410.00 361.33 20.25
10500 62.4970 410.00 360.92 20.25
10501 62.5020 414.00 360.54 20.35
10502 62.5070 397.00 360.20 19.92
10503 62.5120 390.00 359.88 19.75
10504 62.5170 403.00 359.59 20.07
10505 62.5220 395.00 359.34 19.87
10506 62.5270 370.00 359.11 19.24
10507 62.5320 362.00 358.92 19.03
10508 62.5370 369.00 358.76 19.21
10509 62.5420 410.00 358.63 20.25
10510 62.5470 443.00 358.52 21.05
10511 62.5520 442.00 358.45 21.02
10512 62.5570 442.00 358.42 21.02
10513 62.5620 454.00 358.41 21.31
10514 62.5670 485.00 358.43 22.02
10515 62.5720 480.00 358.49 21.91
10516 62.5770 454.00 358.57 21.31
10517 62.5820 423.00 358.69 20.57
10518 62.5870 391.00 358.85 19.77
10519 62.5920 376.00 359.03 19.39
10520 62.5970 351.00 359.25 18.74
10521 62.6020 358.00 359.50 18.92
10522 62.6070 415.00 359.79 20.37
10523 62.6120 427.00 360.11 20.66
10524 62.6170 415.00 360.42 20.37
10525 62.6220 447.00 360.81 21.14
10526 62.6270 465.00 361.24 21.56
10527 62.6320 459.00 361.71 21.42
10528 62.6370 452.00 362.22 21.26
10529 62.6420 445.00 362.76 21.09
10530 62.6470 422.00 363.35 20.54
10531 62.6520 382.00 363.98 19.54
10532 62.6570 384.00 364.65 19.60
10533 62.6620 388.00 365.36 19.70
10534 62.6670 367.00 366.12 19.16
10535 62.6720 368.00 366.93 19.18
10536 62.6770 398.00 367.78 19.95
10537 62.6820 413.00 368.68 20.32
10538 62.6870 410.00 369.64 20.25
10539 62.6920 404.00 370.65 20.10
10540 62.6970 405.00 371.71 20.12
10541 62.7020 413.00 372.83 20.32
10542 62.7070 398.00 374.01 19.95
10543 62.7120 402.00 375.25 20.05
10544 62.7170 415.00 376.56 20.37
10545 62.7220 407.00 377.93 20.17
10546 62.7270 411.00 379.38 20.27
10547 62.7320 413.00 380.89 20.32
10548 62.7370 408.00 382.48 20.20
10549 62.7420 406.00 384.15 20.15
10550 62.7470 414.00 385.91 20.35
10551 62.7520 406.00 387.75 20.15
10552 62.7570 413.00 389.68 20.32
10553 62.7620 450.00 391.71 21.21
10554 62.7670 465.00 393.84 21.56
10555 62.7720 457.00 396.07 21.38
10556 62.7770 436.00 398.40 20.88
10557 62.7820 417.00 400.86 20.42
10558 62.7870 412.00 403.43 20.30
10559 62.7920 425.00 406.12 20.62
10560 62.7970 444.00 408.95 21.07
10561 62.8020 443.00 411.91 21.05
10562 62.8070 430.00 415.01 20.74
10563 62.8120 430.00 418.26 20.74
10564 62.8170 441.00 421.67 21.00
10565 62.8220 439.00 425.23 20.95
10566 62.8270 439.00 428.96 20.95
10567 62.8320 455.00 432.86 21.33
10568 62.8370 464.00 436.95 21.54
10569 62.8420 459.00 441.23 21.42
10570 62.8470 446.00 445.10 21.12
10571 62.8520 444.00 449.77 21.07
10572 62.8570 463.00 454.66 21.52
10573 62.8620 483.00 459.77 21.98
10574 62.8670 499.00 465.10 22.34
10575 62.8720 485.00 470.67 22.02
10576 62.8770 479.00 476.49 21.89
10577 62.8820 494.00 482.54 22.23
10578 62.8870 492.00 488.86 22.18
10579 62.8920 491.00 495.46 22.16
10580 62.8970 496.00 502.31 22.27
10581 62.9020 491.00 509.45 22.16
10582 62.9070 496.00 516.89 22.27
10583 62.9120 513.00 524.62 22.65
10584 62.9170 538.00 532.65 23.19
10585 62.9220 568.00 541.00 23.83
10586 62.9270 565.00 549.66 23.77
10587 62.9320 558.00 558.65 23.62
10588 62.9370 551.00 567.97 23.47
10589 62.9420 571.00 577.62 23.90
10590 62.9470 612.00 587.62 24.74
10591 62.9520 629.00 597.97 25.08
10592 62.9570 624.00 608.66 24.98
10593 62.9620 591.00 619.71 24.31
10594 62.9670 581.00 631.12 24.10
10595 62.9720 600.00 642.90 24.49
10596 62.9770 623.00 655.03 24.96
10597 62.9820 647.00 667.54 25.44
10598 62.9870 669.00 680.41 25.86
10599 62.9920 683.00 693.64 26.13
10600 62.9970 679.00 707.24 26.06
10601 63.0020 669.00 721.22 25.86
10602 63.0070 680.00 735.52 26.08
10603 63.0120 709.00 750.20 26.63
10604 63.0170 748.00 765.24 27.35
10605 63.0220 784.00 780.59 28.00
10606 63.0270 785.00 796.31 28.02
10607 63.0320 793.00 812.33 28.16
10608 63.0370 841.00 828.66 29.00
10609 63.0420 872.00 845.29 29.53
10610 63.0470 865.00 862.21 29.41
10611 63.0520 867.00 879.39 29.44
10612 63.0570 864.00 896.82 29.39
10613 63.0620 876.00 914.48 29.60
10614 63.0670 897.00 932.34 29.95
10615 63.0720 920.00 950.37 30.33
10616 63.0770 976.00 968.56 31.24
10617 63.0820 1025.00 986.64 32.02
10618 63.0870 1039.00 1005.03 32.23
10619 63.0920 1017.00 1023.47 31.89
10620 63.0970 1008.00 1041.91 31.75
10621 63.1020 1012.00 1060.33 31.81
10622 63.1070 1006.00 1078.67 31.72
10623 63.1120 1038.00 1096.89 32.22
10624 63.1170 1087.00 1114.95 32.97
10625 63.1220 1130.00 1132.81 33.62
10626 63.1270 1164.00 1150.38 34.12
10627 63.1320 1148.00 1167.60 33.88
10628 63.1370 1148.00 1184.50 33.88
10629 63.1420 1189.00 1200.93 34.48
10630 63.1470 1218.00 1216.87 34.90
10631 63.1520 1231.00 1232.31 35.09
10632 63.1570 1250.00 1247.13 35.36
10633 63.1620 1283.00 1261.32 35.82
10634 63.1670 1289.00 1274.81 35.90
10635 63.1720 1275.00 1287.58 35.71
10636 63.1770 1299.00 1299.56 36.04
10637 63.1820 1351.00 1310.74 36.76
10638 63.1870 1351.00 1321.08 36.76
10639 63.1920 1338.00 1330.55 36.58
10640 63.1970 1351.00 1339.13 36.76
10641 63.2020 1350.00 1346.82 36.74
10642 63.2070 1358.00 1353.60 36.85
10643 63.2120 1374.00 1359.48 37.07
10644 63.2170 1379.00 1364.47 37.13
10645 63.2220 1409.00 1368.56 37.54
10646 63.2270 1462.00 1371.80 38.24
10647 63.2320 1497.00 1374.21 38.69
10648 63.2370 1514.00 1375.81 38.91
10649 63.2420 1507.00 1376.64 38.82
10650 63.2470 1476.00 1376.75 38.42
10651 63.2520 1440.00 1376.16 37.95
10652 63.2570 1395.00 1374.93 37.35
10653 63.2620 1376.00 1373.11 37.09
10654 63.2670 1367.00 1370.75 36.97
10655 63.2720 1350.00 1367.89 36.74
10656 63.2770 1336.00 1364.58 36.55
10657 63.2820 1342.00 1360.87 36.63
10658 63.2870 1362.00 1356.79 36.91
10659 63.2920 1375.00 1352.39 37.08
10660 63.2970 1402.00 1347.72 37.44
10661 63.3020 1407.00 1342.79 37.51
10662 63.3070 1369.00 1337.65 37.00
10663 63.3120 1347.00 1332.31 36.70
10664 63.3170 1363.00 1326.81 36.92
10665 63.3220 1362.00 1321.17 36.91
10666 63.3270 1357.00 1315.40 36.84
10667 63.3320 1340.00 1309.52 36.61
10668 63.3370 1331.00 1303.53 36.48
10669 63.3420 1336.00 1297.44 36.55
10670 63.3470 1309.00 1291.27 36.18
10671 63.3520 1284.00 1285.00 35.83
10672 63.3570 1300.00 1278.62 36.06
10673 63.3620 1294.00 1272.16 35.97
10674 63.3670 1264.00 1265.57 35.55
10675 63.3720 1258.00 1258.89 35.47
10676 63.3770 1284.00 1252.09 35.83
10677 63.3820 1303.00 1244.84 36.10
10678 63.3870 1296.00 1237.78 36.00
10679 63.3920 1303.00 1230.57 36.10
10680 63.3970 1300.00 1223.23 36.06
10681 63.4020 1286.00 1215.73 35.86
10682 63.4070 1254.00 1208.08 35.41
10683 63.4120 1238.00 1200.29 35.19
10684 63.4170 1233.00 1192.34 35.11
10685 63.4220 1212.00 1184.24 34.81
10686 63.4270 1204.00 1176.01 34.70
10687 63.4320 1235.00 1167.65 35.14
10688 63.4370 1266.00 1159.17 35.58
10689 63.4420 1280.00 1150.60 35.78
10690 63.4470 1271.00 1141.94 35.65
10691 63.4520 1246.00 1133.22 35.30
10692 63.4570 1240.00 1124.47 35.21
10693 63.4620 1224.00 1115.68 34.99
10694 63.4670 1204.00 1106.92 34.70
10695 63.4720 1198.00 1098.21 34.61
10696 63.4770 1175.00 1089.54 34.28
10697 63.4820 1146.00 1080.97 33.85
10698 63.4870 1142.00 1072.54 33.79
10699 63.4920 1139.00 1064.24 33.75
10700 63.4970 1142.00 1056.93 33.79
10701 63.5020 1106.00 1049.03 33.26
10702 63.5070 1077.00 1041.36 32.82
10703 63.5120 1105.00 1033.95 33.24
10704 63.5170 1121.00 1026.83 33.48
10705 63.5220 1133.00 1020.02 33.66
10706 63.5270 1141.00 1013.55 33.78
10707 63.5320 1131.00 1007.42 33.63
10708 63.5370 1141.00 1000.55 33.78
10709 63.5420 1154.00 995.20 33.97
10710 63.5470 1166.00 990.27 34.15
10711 63.5520 1142.00 985.76 33.79
10712 63.5570 1096.00 981.68 33.11
10713 63.5620 1080.00 977.78 32.86
10714 63.5670 1094.00 974.63 33.08
10715 63.5720 1141.00 971.96 33.78
10716 63.5770 1154.00 969.79 33.97
10717 63.5820 1137.00 968.11 33.72
10718 63.5870 1135.00 966.94 33.69
10719 63.5920 1119.00 966.29 33.45
10720 63.5970 1109.00 966.15 33.30
10721 63.6020 1091.00 966.53 33.03
10722 63.6070 1071.00 967.45 32.73
10723 63.6120 1090.00 968.89 33.02
10724 63.6170 1103.00 970.87 33.21
10725 63.6220 1122.00 973.39 33.50
10726 63.6270 1165.00 975.50 34.13
10727 63.6320 1177.00 977.94 34.31
10728 63.6370 1153.00 982.07 33.96
10729 63.6420 1151.00 986.74 33.93
10730 63.6470 1146.00 991.95 33.85
10731 63.6520 1141.00 997.69 33.78
10732 63.6570 1142.00 1003.95 33.79
10733 63.6620 1141.00 1010.74 33.78
10734 63.6670 1154.00 1018.05 33.97
10735 63.6720 1160.00 1025.88 34.06
10736 63.6770 1163.00 1034.22 34.10
10737 63.6820 1173.00 1043.07 34.25
10738 63.6870 1182.00 1052.39 34.38
10739 63.6920 1180.00 1062.22 34.35
10740 63.6970 1188.00 1072.53 34.47
10741 63.7020 1186.00 1083.28 34.44
10742 63.7070 1173.00 1094.52 34.25
10743 63.7120 1204.00 1106.20 34.70
10744 63.7170 1240.00 1118.31 35.21
10745 63.7220 1239.00 1130.84 35.20
10746 63.7270 1244.00 1143.78 35.27
10747 63.7320 1274.00 1157.12 35.69
10748 63.7370 1319.00 1170.83 36.32
10749 63.7420 1335.00 1184.90 36.54
10750 63.7470 1340.00 1199.31 36.61
10751 63.7520 1367.00 1214.05 36.97
10752 63.7570 1379.00 1228.75 37.13
10753 63.7620 1383.00 1244.06 37.19
10754 63.7670 1424.00 1259.64 37.74
10755 63.7720 1472.00 1275.44 38.37
10756 63.7770 1468.00 1291.45 38.31
10757 63.7820 1468.00 1307.64 38.31
10758 63.7870 1493.00 1324.00 38.64
10759 63.7920 1486.00 1340.43 38.55
10760 63.7970 1479.00 1356.97 38.46
10761 63.8020 1504.00 1373.58 38.78
10762 63.8070 1534.00 1390.19 39.17
10763 63.8120 1544.00 1406.75 39.29
10764 63.8170 1557.00 1423.30 39.46
10765 63.8220 1571.00 1439.73 39.64
10766 63.8270 1582.00 1456.00 39.77
10767 63.8320 1598.00 1472.13 39.97
10768 63.8370 1629.00 1488.02 40.36
10769 63.8420 1648.00 1503.64 40.60
10770 63.8470 1668.00 1518.94 40.84
10771 63.8520 1699.00 1533.90 41.22
10772 63.8570 1724.00 1548.45 41.52
10773 63.8620 1728.00 1562.57 41.57
10774 63.8670 1696.00 1576.20 41.18
10775 63.8720 1687.00 1589.30 41.07
10776 63.8770 1722.00 1601.84 41.50
10777 63.8820 1752.00 1613.78 41.86
10778 63.8870 1774.00 1625.08 42.12
10779 63.8920 1783.00 1635.71 42.23
10780 63.8970 1779.00 1645.65 42.18
10781 63.9020 1780.00 1654.86 42.19
10782 63.9070 1815.00 1663.37 42.60
10783 63.9120 1852.00 1671.09 43.03
10784 63.9170 1844.00 1678.01 42.94
10785 63.9220 1834.00 1684.16 42.83
10786 63.9270 1875.00 1689.52 43.30
10787 63.9320 1948.00 1694.09 44.14
10788 63.9370 1956.00 1697.88 44.23
10789 63.9420 1916.00 1700.89 43.77
10790 63.9470 1903.00 1703.15 43.62
10791 63.9520 1892.00 1704.66 43.50
10792 63.9570 1898.00 1705.44 43.57
10793 63.9620 1903.00 1705.53 43.62
10794 63.9670 1872.00 1704.95 43.27
10795 63.9720 1856.00 1703.73 43.08
10796 63.9770 1852.00 1701.91 43.03
10797 63.9820 1826.00 1699.51 42.73
10798 63.9870 1798.00 1696.58 42.40
10799 63.9920 1790.00 1693.14 42.31
10800 63.9970 1784.00 1689.26 42.24
10801 64.0020 1787.00 1684.95 42.27
10802 64.0070 1800.00 1680.26 42.43
10803 64.0120 1791.00 1675.23 42.32
10804 64.0170 1756.00 1669.92 41.90
10805 64.0220 1737.00 1664.34 41.68
10806 64.0270 1780.00 1658.53 42.19
10807 64.0320 1809.00 1652.55 42.53
10808 64.0370 1790.00 1646.44 42.31
10809 64.0420 1754.00 1640.20 41.88
10810 64.0470 1728.00 1633.90 41.57
10811 64.0520 1743.00 1627.57 41.75
10812 64.0570 1747.00 1621.23 41.80
10813 64.0620 1741.00 1614.91 41.73
10814 64.0670 1719.00 1608.67 41.46
10815 64.0720 1682.00 1602.49 41.01
10816 64.0770 1665.00 1596.43 40.80
10817 64.0820 1674.00 1590.52 40.91
10818 64.0870 1674.00 1584.76 40.91
10819 64.0920 1641.00 1579.19 40.51
10820 64.0970 1612.00 1573.83 40.15
10821 64.1020 1606.00 1568.69 40.07
10822 64.1070 1597.00 1563.80 39.96
10823 64.1120 1609.00 1559.16 40.11
10824 64.1170 1604.00 1554.81 40.05
10825 64.1220 1584.00 1550.74 39.80
10826 64.1270 1578.00 1546.97 39.72
10827 64.1320 1589.00 1543.53 39.86
10828 64.1370 1607.00 1540.40 40.09
10829 64.1420 1601.00 1537.70 40.01
10830 64.1470 1599.00 1535.25 39.99
10831 64.1520 1603.00 1533.14 40.04
10832 64.1570 1599.00 1531.39 39.99
10833 64.1620 1573.00 1530.00 39.66
10834 64.1670 1554.00 1528.97 39.42
10835 64.1720 1577.00 1528.30 39.71
10836 64.1770 1571.00 1528.01 39.64
10837 64.1820 1544.00 1528.07 39.29
10838 64.1870 1577.00 1528.49 39.71
10839 64.1920 1607.00 1529.27 40.09
10840 64.1970 1590.00 1530.42 39.87
10841 64.2020 1579.00 1531.93 39.74
10842 64.2070 1580.00 1533.79 39.75
10843 64.2120 1566.00 1535.99 39.57
10844 64.2170 1566.00 1538.54 39.57
10845 64.2220 1594.00 1541.43 39.92
10846 64.2270 1615.00 1544.64 40.19
10847 64.2320 1615.00 1548.18 40.19
10848 64.2370 1611.00 1552.05 40.14
10849 64.2420 1606.00 1556.20 40.07
10850 64.2470 1629.00 1560.66 40.36
10851 64.2520 1659.00 1565.42 40.73
10852 64.2570 1648.00 1570.44 40.60
10853 64.2620 1631.00 1575.73 40.39
10854 64.2670 1619.00 1581.27 40.24
10855 64.2720 1607.00 1587.05 40.09
10856 64.2770 1608.00 1593.07 40.10
10857 64.2820 1607.00 1599.29 40.09
10858 64.2870 1610.00 1605.71 40.12
10859 64.2920 1615.00 1612.32 40.19
10860 64.2970 1638.00 1619.09 40.47
10861 64.3020 1645.00 1626.01 40.56
10862 64.3070 1638.00 1633.07 40.47
10863 64.3120 1646.00 1640.25 40.57
10864 64.3170 1650.00 1647.50 40.62
10865 64.3220 1670.00 1654.85 40.87
10866 64.3270 1686.00 1662.25 41.06
10867 64.3320 1689.00 1669.68 41.10
10868 64.3370 1709.00 1677.11 41.34
10869 64.3420 1723.00 1684.53 41.51
10870 64.3470 1699.00 1691.92 41.22
10871 64.3520 1668.00 1699.23 40.84
10872 64.3570 1682.00 1706.46 41.01
10873 64.3620 1708.00 1713.58 41.33
10874 64.3670 1714.00 1720.53 41.40
10875 64.3720 1705.00 1727.32 41.29
10876 64.3770 1692.00 1733.92 41.13
10877 64.3820 1711.00 1740.26 41.36
10878 64.3870 1704.00 1746.35 41.28
10879 64.3920 1678.00 1752.15 40.96
10880 64.3970 1690.00 1757.61 41.11
10881 64.4020 1705.00 1762.73 41.29
10882 64.4070 1736.00 1767.47 41.67
10883 64.4120 1753.00 1771.78 41.87
10884 64.4170 1746.00 1775.67 41.79
10885 64.4220 1778.00 1779.08 42.17
10886 64.4270 1807.00 1782.00 42.51
10887 64.4320 1794.00 1784.41 42.36
10888 64.4370 1772.00 1786.28 42.10
10889 64.4420 1761.00 1787.60 41.96
10890 64.4470 1777.00 1788.35 42.15
10891 64.4520 1796.00 1788.51 42.38
10892 64.4570 1803.00 1788.08 42.46
10893 64.4620 1798.00 1787.06 42.40
10894 64.4670 1767.00 1785.44 42.04
10895 64.4720 1753.00 1783.22 41.87
10896 64.4770 1774.00 1780.41 42.12
10897 64.4820 1801.00 1777.02 42.44
10898 64.4870 1786.00 1773.05 42.26
10899 64.4920 1773.00 1768.54 42.11
10900 64.4970 1760.00 1763.48 41.95
10901 64.5020 1727.00 1757.91 41.56
10902 64.5070 1711.00 1751.86 41.36
10903 64.5120 1696.00 1745.36 41.18
10904 64.5170 1700.00 1738.43 41.23
10905 64.5220 1710.00 1731.10 41.35
10906 64.5270 1706.00 1723.42 41.30
10907 64.5320 1690.00 1715.41 41.11
10908 64.5370 1647.00 1707.11 40.58
10909 64.5420 1620.00 1698.57 40.25
10910 64.5470 1622.00 1689.81 40.27
10911 64.5520 1622.00 1680.87 40.27
10912 64.5570 1612.00 1671.80 40.15
10913 64.5620 1606.00 1662.62 40.07
10914 64.5670 1606.00 1653.37 40.07
10915 64.5720 1568.00 1644.09 39.60
10916 64.5770 1539.00 1634.81 39.23
10917 64.5820 1539.00 1625.55 39.23
10918 64.5870 1517.00 1616.37 38.95
10919 64.5920 1476.00 1607.27 38.42
10920 64.5970 1453.00 1598.27 38.12
10921 64.6020 1453.00 1589.43 38.12
10922 64.6070 1448.00 1580.77 38.05
10923 64.6120 1444.00 1572.28 38.00
10924 64.6170 1443.00 1564.02 37.99
10925 64.6220 1419.00 1555.99 37.67
10926 64.6270 1380.00 1548.20 37.15
10927 64.6320 1382.00 1540.68 37.18
10928 64.6370 1413.00 1533.45 37.59
10929 64.6420 1413.00 1526.52 37.59
10930 64.6470 1398.00 1519.89 37.39
10931 64.6520 1382.00 1513.59 37.18
10932 64.6570 1387.00 1507.62 37.24
10933 64.6620 1367.00 1501.98 36.97
10934 64.6670 1353.00 1496.70 36.78
10935 64.6720 1356.00 1491.77 36.82
10936 64.6770 1356.00 1487.20 36.82
10937 64.6820 1359.00 1482.99 36.86
10938 64.6870 1355.00 1479.15 36.81
10939 64.6920 1350.00 1475.68 36.74
10940 64.6970 1333.00 1472.57 36.51
10941 64.7020 1322.00 1469.84 36.36
10942 64.7070 1316.00 1467.47 36.28
10943 64.7120 1319.00 1465.47 36.32
10944 64.7170 1331.00 1463.83 36.48
10945 64.7220 1327.00 1462.55 36.43
10946 64.7270 1296.00 1461.62 36.00
10947 64.7320 1288.00 1461.04 35.89
10948 64.7370 1307.00 1460.80 36.15
10949 64.7420 1305.00 1460.89 36.12
10950 64.7470 1284.00 1461.30 35.83
10951 64.7520 1277.00 1462.03 35.74
10952 64.7570 1279.00 1463.06 35.76
10953 64.7620 1305.00 1464.38 36.12
10954 64.7670 1340.00 1465.98 36.61
10955 64.7720 1350.00 1467.84 36.74
10956 64.7770 1348.00 1469.96 36.72
10957 64.7820 1356.00 1472.31 36.82
10958 64.7870 1366.00 1474.88 36.96
10959 64.7920 1374.00 1477.66 37.07
10960 64.7970 1397.00 1480.62 37.38
10961 64.8020 1398.00 1483.75 37.39
10962 64.8070 1380.00 1487.04 37.15
10963 64.8120 1383.00 1490.45 37.19
10964 64.8170 1382.00 1493.97 37.18
10965 64.8220 1362.00 1497.58 36.91
10966 64.8270 1356.00 1501.25 36.82
10967 64.8320 1389.00 1504.98 37.27
10968 64.8370 1425.00 1508.72 37.75
10969 64.8420 1437.00 1512.45 37.91
10970 64.8470 1458.00 1516.17 38.18
10971 64.8520 1481.00 1519.83 38.48
10972 64.8570 1491.00 1523.41 38.61
10973 64.8620 1484.00 1526.90 38.52
10974 64.8670 1454.00 1530.27 38.13
10975 64.8720 1459.00 1531.44 38.20
10976 64.8770 1474.00 1534.49 38.39
10977 64.8820 1470.00 1537.34 38.34
10978 64.8870 1465.00 1539.98 38.28
10979 64.8920 1447.00 1542.36 38.04
10980 64.8970 1432.00 1544.48 37.84
10981 64.9020 1427.00 1546.80 37.78
10982 64.9070 1435.00 1548.33 37.88
10983 64.9120 1445.00 1549.53 38.01
10984 64.9170 1472.00 1550.39 38.37
10985 64.9220 1512.00 1550.88 38.88
10986 64.9270 1510.00 1551.00 38.86
10987 64.9320 1499.00 1550.74 38.72
10988 64.9370 1504.00 1550.07 38.78
10989 64.9420 1507.00 1548.99 38.82
10990 64.9470 1529.00 1547.49 39.10
10991 64.9520 1549.00 1545.57 39.36
10992 64.9570 1536.00 1543.22 39.19
10993 64.9620 1515.00 1540.44 38.92
10994 64.9670 1529.00 1537.24 39.10
10995 64.9720 1537.00 1533.61 39.20
10996 64.9770 1527.00 1529.55 39.08
10997 64.9820 1487.00 1525.09 38.56
10998 64.9870 1447.00 1520.21 38.04
10999 64.9920 1433.00 1514.94 37.85
11000 64.9970 1437.00 1509.28 37.91
11001 65.0020 1455.00 1503.26 38.14
11002 65.0070 1466.00 1496.87 38.29
11003 65.0120 1465.00 1490.14 38.28
11004 65.0170 1440.00 1483.10 37.95
11005 65.0220 1430.00 1475.74 37.82
11006 65.0270 1438.00 1468.09 37.92
11007 65.0320 1414.00 1460.20 37.60
11008 65.0370 1396.00 1452.06 37.36
11009 65.0420 1388.00 1443.68 37.26
11010 65.0470 1363.00 1435.13 36.92
11011 65.0520 1355.00 1426.39 36.81
11012 65.0570 1397.00 1417.49 37.38
11013 65.0620 1406.00 1408.48 37.50
11014 65.0670 1386.00 1399.36 37.23
11015 65.0720 1373.00 1390.14 37.05
11016 65.0770 1369.00 1380.89 37.00
11017 65.0820 1389.00 1371.58 37.27
11018 65.0870 1385.00 1362.27 37.22
11019 65.0920 1348.00 1352.97 36.72
11020 65.0970 1320.00 1343.69 36.33
11021 65.1020 1314.00 1334.47 36.25
11022 65.1070 1312.00 1325.32 36.22
11023 65.1120 1296.00 1316.26 36.00
11024 65.1170 1273.00 1307.31 35.68
11025 65.1220 1251.00 1298.48 35.37
11026 65.1270 1264.00 1289.46 35.55
11027 65.1320 1251.00 1280.94 35.37
11028 65.1370 1222.00 1272.58 34.96
11029 65.1420 1211.00 1264.42 34.80
11030 65.1470 1219.00 1256.46 34.91
11031 65.1520 1222.00 1248.69 34.96
11032 65.1570 1201.00 1241.17 34.66
11033 65.1620 1196.00 1233.88 34.58
11034 65.1670 1192.00 1226.81 34.53
11035 65.1720 1178.00 1220.00 34.32
11036 65.1770 1167.00 1213.45 34.16
11037 65.1820 1179.00 1207.15 34.34
11038 65.1870 1179.00 1201.12 34.34
11039 65.1920 1148.00 1195.36 33.88
11040 65.1970 1133.00 1189.86 33.66
11041 65.2020 1111.00 1184.63 33.33
11042 65.2070 1100.00 1179.68 33.17
11043 65.2120 1078.00 1174.99 32.83
11044 65.2170 1060.00 1170.58 32.56
11045 65.2220 1084.00 1166.43 32.92
11046 65.2270 1099.00 1162.53 33.15
11047 65.2320 1118.00 1158.89 33.44
11048 65.2370 1134.00 1155.50 33.67
11049 65.2420 1139.00 1152.35 33.75
11050 65.2470 1113.00 1149.42 33.36
11051 65.2520 1101.00 1146.72 33.18
11052 65.2570 1115.00 1144.23 33.39
11053 65.2620 1097.00 1141.93 33.12
11054 65.2670 1051.00 1139.82 32.42
11055 65.2720 1024.00 1137.89 32.00
11056 65.2770 1031.00 1136.10 32.11
11057 65.2820 1047.00 1134.45 32.36
11058 65.2870 1069.00 1132.92 32.70
11059 65.2920 1055.00 1131.49 32.48
11060 65.2970 1059.00 1130.15 32.54
11061 65.3020 1072.00 1128.86 32.74
11062 65.3070 1070.00 1127.62 32.71
11063 65.3120 1061.00 1126.40 32.57
11064 65.3170 1067.00 1125.17 32.67
11065 65.3220 1076.00 1123.92 32.80
11066 65.3270 1082.00 1122.62 32.89
11067 65.3320 1093.00 1121.24 33.06
11068 65.3370 1099.00 1119.77 33.15
11069 65.3420 1120.00 1118.18 33.47
11070 65.3470 1118.00 1116.45 33.44
11071 65.3520 1081.00 1114.47 32.88
11072 65.3570 1086.00 1112.39 32.95
11073 65.3620 1102.00 1110.09 33.20
11074 65.3670 1093.00 1107.57 33.06
11075 65.3720 1090.00 1104.81 33.02
11076 65.3770 1117.00 1101.77 33.42
11077 65.3820 1123.00 1098.45 33.51
11078 65.3870 1117.00 1094.83 33.42
11079 65.3920 1119.00 1090.90 33.45
11080 65.3970 1094.00 1086.66 33.08
11081 65.4020 1064.00 1082.52 32.62
11082 65.4070 1078.00 1077.60 32.83
11083 65.4120 1065.00 1072.35 32.63
11084 65.4170 1070.00 1066.73 32.71
11085 65.4220 1101.00 1060.77 33.18
11086 65.4270 1087.00 1054.47 32.97
11087 65.4320 1046.00 1047.81 32.34
11088 65.4370 1033.00 1040.81 32.14
11089 65.4420 1055.00 1033.49 32.48
11090 65.4470 1045.00 1025.83 32.33
11091 65.4520 1035.00 1017.86 32.17
11092 65.4570 1014.00 1009.58 31.84
11093 65.4620 996.00 1001.03 31.56
11094 65.4670 996.00 992.19 31.56
11095 65.4720 986.00 983.08 31.40
11096 65.4770 987.00 973.75 31.42
11097 65.4820 990.00 964.17 31.46
11098 65.4870 969.00 954.37 31.13
11099 65.4920 945.00 944.41 30.74
11100 65.4970 955.00 931.99 30.90
11101 65.5020 930.00 921.67 30.50
11102 65.5070 886.00 911.24 29.77
11103 65.5120 865.00 900.66 29.41
11104 65.5170 855.00 890.00 29.24
11105 65.5220 846.00 879.26 29.09
11106 65.5270 834.00 868.42 28.88
11107 65.5320 840.00 857.55 28.98
11108 65.5370 866.00 846.66 29.43
11109 65.5420 878.00 835.71 29.63
11110 65.5470 862.00 824.78 29.36
11111 65.5520 848.00 813.86 29.12
11112 65.5570 828.00 802.95 28.77
11113 65.5620 774.00 792.08 27.82
11114 65.5670 746.00 781.25 27.31
11115 65.5720 764.00 770.49 27.64
11116 65.5770 781.00 759.79 27.95
11117 65.5820 762.00 749.16 27.60
11118 65.5870 748.00 738.65 27.35
11119 65.5920 743.00 728.22 27.26
11120 65.5970 708.00 717.88 26.61
11121 65.6020 667.00 707.68 25.83
11122 65.6070 682.00 697.59 26.12
11123 65.6120 694.00 687.62 26.34
11124 65.6170 670.00 677.80 25.88
11125 65.6220 635.00 668.11 25.20
11126 65.6270 606.00 658.54 24.62
11127 65.6320 594.00 649.15 24.37
11128 65.6370 605.00 639.89 24.60
11129 65.6420 623.00 630.79 24.96
11130 65.6470 616.00 621.86 24.82
11131 65.6520 594.00 613.07 24.37
11132 65.6570 598.00 604.45 24.45
11133 65.6620 623.00 596.00 24.96
11134 65.6670 617.00 587.71 24.84
11135 65.6720 597.00 579.59 24.43
11136 65.6770 578.00 571.64 24.04
11137 65.6820 582.00 563.86 24.12
11138 65.6870 568.00 556.25 23.83
11139 65.6920 534.00 548.81 23.11
11140 65.6970 527.00 541.54 22.96
11141 65.7020 513.00 534.44 22.65
11142 65.7070 472.00 527.49 21.73
11143 65.7120 447.00 520.74 21.14
11144 65.7170 441.00 514.14 21.00
11145 65.7220 449.00 507.70 21.19
11146 65.7270 459.00 501.45 21.42
11147 65.7320 479.00 495.35 21.89
11148 65.7370 497.00 489.40 22.29
11149 65.7420 492.00 483.63 22.18
11150 65.7470 491.00 478.01 22.16
11151 65.7520 500.00 472.54 22.36
11152 65.7570 494.00 467.23 22.23
11153 65.7620 493.00 462.08 22.20
11154 65.7670 455.00 457.08 21.33
11155 65.7720 427.00 452.22 20.66
11156 65.7770 439.00 447.51 20.95
11157 65.7820 454.00 442.95 21.31
11158 65.7870 445.00 438.52 21.09
11159 65.7920 428.00 434.24 20.69
11160 65.7970 420.00 430.09 20.49
11161 65.8020 434.00 426.07 20.83
11162 65.8070 457.00 422.18 21.38
11163 65.8120 470.00 418.43 21.68
11164 65.8170 479.00 414.79 21.89
11165 65.8220 468.00 411.28 21.63
11166 65.8270 430.00 407.89 20.74
11167 65.8320 438.00 404.61 20.93
11168 65.8370 439.00 401.45 20.95
11169 65.8420 412.00 398.40 20.30
11170 65.8470 400.00 395.46 20.00
11171 65.8520 400.00 392.62 20.00
11172 65.8570 416.00 389.89 20.40
11173 65.8620 394.00 387.26 19.85
11174 65.8670 369.00 384.73 19.21
11175 65.8720 382.00 382.29 19.54
11176 65.8770 404.00 379.94 20.10
11177 65.8820 422.00 377.69 20.54
11178 65.8870 413.00 375.52 20.32
11179 65.8920 413.00 373.44 20.32
11180 65.8970 435.00 371.44 20.86
11181 65.9020 427.00 369.52 20.66
11182 65.9070 381.00 367.68 19.52
11183 65.9120 365.00 365.91 19.10
11184 65.9170 370.00 364.22 19.24
11185 65.9220 380.00 362.60 19.49
11186 65.9270 387.00 361.05 19.67
11187 65.9320 366.00 359.57 19.13
11188 65.9370 367.00 358.16 19.16
11189 65.9420 379.00 356.81 19.47
11190 65.9470 372.00 355.52 19.29
11191 65.9520 371.00 354.30 19.26
11192 65.9570 382.00 353.13 19.54
11193 65.9620 387.00 352.02 19.67
11194 65.9670 389.00 350.97 19.72
11195 65.9720 386.00 349.98 19.65
11196 65.9770 374.00 349.03 19.34
11197 65.9820 393.00 348.15 19.82
11198 65.9870 394.00 347.31 19.85
11199 65.9920 401.00 346.52 20.02
11200 65.9970 390.00 345.68 19.75
11201 66.0020 362.00 344.99 19.03
11202 66.0070 346.00 344.35 18.60
11203 66.0120 341.00 343.75 18.47
11204 66.0170 342.00 343.21 18.49
11205 66.0220 354.00 342.70 18.81
11206 66.0270 377.00 342.25 19.42
11207 66.0320 386.00 341.83 19.65
11208 66.0370 374.00 341.46 19.34
11209 66.0420 357.00 341.14 18.89
11210 66.0470 350.00 340.86 18.71
11211 66.0520 380.00 340.61 19.49
11212 66.0570 362.00 340.41 19.03
11213 66.0620 339.00 340.25 18.41
11214 66.0670 332.00 340.14 18.22
11215 66.0720 316.00 340.06 17.78
11216 66.0770 333.00 340.02 18.25
11217 66.0820 352.00 340.03 18.76
11218 66.0870 340.00 340.07 18.44
11219 66.0920 348.00 340.15 18.65
11220 66.0970 366.00 340.28 19.13
11221 66.1020 383.00 340.44 19.57
11222 66.1070 400.00 338.73 20.00
11223 66.1120 388.00 338.98 19.70
11224 66.1170 371.00 339.27 19.26
11225 66.1220 359.00 339.60 18.95
11226 66.1270 376.00 339.96 19.39
11227 66.1320 400.00 340.37 20.00
11228 66.1370 411.00 340.83 20.27
11229 66.1420 399.00 341.32 19.98
11230 66.1470 390.00 341.85 19.75
11231 66.1520 391.00 342.42 19.77
11232 66.1570 384.00 343.03 19.60
11233 66.1620 351.00 343.69 18.74
11234 66.1670 351.00 344.38 18.74
11235 66.1720 341.00 345.12 18.47
11236 66.1770 322.00 345.90 17.94
11237 66.1820 311.00 346.73 17.64
11238 66.1870 320.00 347.59 17.89
11239 66.1920 325.00 348.50 18.03
11240 66.1970 341.00 349.46 18.47
11241 66.2020 365.00 350.46 19.10
11242 66.2070 389.00 351.50 19.72
11243 66.2120 380.00 352.59 19.49
11244 66.2170 351.00 353.73 18.74
11245 66.2220 356.00 354.91 18.87
11246 66.2270 349.00 356.14 18.68
11247 66.2320 367.00 357.41 19.16
11248 66.2370 400.00 358.74 20.00
11249 66.2420 392.00 360.11 19.80
11250 66.2470 365.00 361.54 19.10
11251 66.2520 374.00 363.01 19.34
11252 66.2570 420.00 364.53 20.49
11253 66.2620 423.00 366.11 20.57
11254 66.2670 421.00 367.73 20.52
11255 66.2720 407.00 369.41 20.17
11256 66.2770 413.00 371.15 20.32
11257 66.2820 413.00 372.93 20.32
11258 66.2870 404.00 374.77 20.10
11259 66.2920 372.00 376.67 19.29
11260 66.2970 376.00 378.62 19.39
11261 66.3020 370.00 380.62 19.24
11262 66.3070 378.00 382.69 19.44
11263 66.3120 380.00 384.81 19.49
11264 66.3170 392.00 386.99 19.80
11265 66.3220 396.00 389.24 19.90
11266 66.3270 402.00 391.54 20.05
11267 66.3320 448.00 393.90 21.17
11268 66.3370 472.00 396.32 21.73
11269 66.3420 446.00 398.80 21.12
11270 66.3470 434.00 401.35 20.83
11271 66.3520 444.00 403.96 21.07
11272 66.3570 419.00 406.63 20.47
11273 66.3620 421.00 409.37 20.52
11274 66.3670 421.00 412.17 20.52
11275 66.3720 427.00 415.04 20.66
11276 66.3770 437.00 417.97 20.90
11277 66.3820 448.00 420.97 21.17
11278 66.3870 425.00 423.03 20.62
11279 66.3920 423.00 426.17 20.57
11280 66.3970 420.00 429.37 20.49
11281 66.4020 416.00 432.65 20.40
11282 66.4070 433.00 435.99 20.81
11283 66.4120 457.00 439.40 21.38
11284 66.4170 447.00 442.89 21.14
11285 66.4220 439.00 446.45 20.95
11286 66.4270 426.00 450.07 20.64
11287 66.4320 434.00 453.77 20.83
11288 66.4370 438.00 457.53 20.93
11289 66.4420 453.00 461.36 21.28
11290 66.4470 474.00 465.27 21.77
11291 66.4520 481.00 469.25 21.93
11292 66.4570 476.00 473.30 21.82
11293 66.4620 477.00 477.42 21.84
11294 66.4670 503.00 481.62 22.43
11295 66.4720 529.00 485.88 23.00
11296 66.4770 557.00 490.22 23.60
11297 66.4820 554.00 494.62 23.54
11298 66.4870 504.00 499.10 22.45
11299 66.4920 488.00 503.65 22.09
11300 66.4970 489.00 508.26 22.11
11301 66.5020 506.00 512.96 22.49
11302 66.5070 518.00 517.70 22.76
11303 66.5120 513.00 522.53 22.65
11304 66.5170 506.00 527.42 22.49
11305 66.5220 527.00 532.37 22.96
11306 66.5270 527.00 537.40 22.96
11307 66.5320 542.00 542.49 23.28
11308 66.5370 535.00 547.64 23.13
11309 66.5420 539.00 552.86 23.22
11310 66.5470 544.00 558.14 23.32
11311 66.5520 572.00 563.47 23.92
11312 66.5570 572.00 568.88 23.92
11313 66.5620 565.00 574.34 23.77
11314 66.5670 573.00 579.84 23.94
11315 66.5720 584.00 585.42 24.17
11316 66.5770 575.00 591.04 23.98
11317 66.5820 577.00 596.71 24.02
11318 66.5870 580.00 602.43 24.08
11319 66.5920 583.00 608.21 24.15
11320 66.5970 603.00 614.03 24.56
11321 66.6020 598.00 619.88 24.45
11322 66.6070 628.00 625.78 25.06
11323 66.6120 624.00 631.72 24.98
11324 66.6170 609.00 637.69 24.68
11325 66.6220 630.00 643.70 25.10
11326 66.6270 637.00 649.74 25.24
11327 66.6320 625.00 655.79 25.00
11328 66.6370 652.00 661.89 25.53
11329 66.6420 707.00 668.00 26.59
11330 66.6470 734.00 674.11 27.09
11331 66.6520 733.00 680.26 27.07
11332 66.6570 708.00 686.40 26.61
11333 66.6620 749.00 692.86 27.37
11334 66.6670 741.00 699.02 27.22
11335 66.6720 726.00 705.17 26.94
11336 66.6770 725.00 711.31 26.93
11337 66.6820 733.00 717.45 27.07
11338 66.6870 759.00 723.57 27.55
11339 66.6920 716.00 729.65 26.76
11340 66.6970 703.00 735.73 26.51
11341 66.7020 697.00 741.77 26.40
11342 66.7070 735.00 747.77 27.11
11343 66.7120 767.00 753.72 27.69
11344 66.7170 795.00 759.63 28.20
11345 66.7220 808.00 765.49 28.43
11346 66.7270 819.00 771.28 28.62
11347 66.7320 851.00 777.01 29.17
11348 66.7370 865.00 782.68 29.41
11349 66.7420 879.00 788.25 29.65
11350 66.7470 901.00 793.75 30.02
11351 66.7520 910.00 799.16 30.17
11352 66.7570 915.00 804.47 30.25
11353 66.7620 917.00 809.68 30.28
11354 66.7670 900.00 814.78 30.00
11355 66.7720 890.00 822.43 29.83
11356 66.7770 916.00 827.30 30.27
11357 66.7820 905.00 832.05 30.08
11358 66.7870 897.00 836.65 29.95
11359 66.7920 911.00 841.13 30.18
11360 66.7970 889.00 845.46 29.82
11361 66.8020 860.00 849.63 29.33
11362 66.8070 890.00 853.66 29.83
11363 66.8120 918.00 857.53 30.30
11364 66.8170 922.00 861.24 30.36
11365 66.8220 938.00 864.77 30.63
11366 66.8270 960.00 868.14 30.98
11367 66.8320 962.00 871.34 31.02
11368 66.8370 984.00 874.36 31.37
11369 66.8420 1034.00 877.20 32.16
11370 66.8470 1042.00 879.86 32.28
11371 66.8520 1033.00 882.34 32.14
11372 66.8570 1015.00 884.65 31.86
11373 66.8620 972.00 886.77 31.18
11374 66.8670 970.00 888.71 31.14
11375 66.8720 939.00 890.47 30.64
11376 66.8770 962.00 892.06 31.02
11377 66.8820 972.00 893.47 31.18
11378 66.8870 998.00 894.71 31.59
11379 66.8920 984.00 895.78 31.37
11380 66.8970 963.00 896.69 31.03
11381 66.9020 963.00 897.43 31.03
11382 66.9070 963.00 898.02 31.03
11383 66.9120 977.00 898.46 31.26
11384 66.9170 950.00 898.75 30.82
11385 66.9220 952.00 898.90 30.85
11386 66.9270 968.00 898.92 31.11
11387 66.9320 984.00 898.81 31.37
11388 66.9370 947.00 898.58 30.77
11389 66.9420 922.00 898.24 30.36
11390 66.9470 946.00 897.79 30.76
11391 66.9520 969.00 897.25 31.13
11392 66.9570 975.00 896.61 31.23
11393 66.9620 998.00 895.89 31.59
11394 66.9670 939.00 893.99 30.64
11395 66.9720 912.00 893.12 30.20
11396 66.9770 884.00 892.19 29.73
11397 66.9820 900.00 891.21 30.00
11398 66.9870 887.00 890.18 29.78
11399 66.9920 921.00 889.10 30.35
11400 66.9970 927.00 887.99 30.45
11401 67.0020 917.00 886.85 30.28
11402 67.0070 904.00 885.70 30.07
11403 67.0120 894.00 884.53 29.90
11404 67.0170 904.00 883.34 30.07
11405 67.0220 938.00 882.16 30.63
11406 67.0270 926.00 880.97 30.43
11407 67.0320 906.00 879.80 30.10
11408 67.0370 865.00 881.28 29.41
11409 67.0420 858.00 880.14 29.29
11410 67.0470 844.00 879.02 29.05
11411 67.0520 846.00 877.79 29.09
11412 67.0570 834.00 876.72 28.88
11413 67.0620 827.00 875.67 28.76
11414 67.0670 837.00 874.66 28.93
11415 67.0720 847.00 873.68 29.10
11416 67.0770 878.00 872.74 29.63
11417 67.0820 877.00 871.83 29.61
11418 67.0870 868.00 870.97 29.46
11419 67.0920 838.00 870.14 28.95
11420 67.0970 847.00 869.34 29.10
11421 67.1020 885.00 868.59 29.75
11422 67.1070 861.00 867.87 29.34
11423 67.1120 861.00 867.19 29.34
11424 67.1170 856.00 866.53 29.26
11425 67.1220 883.00 865.91 29.72
11426 67.1270 875.00 865.32 29.58
11427 67.1320 826.00 864.75 28.74
11428 67.1370 814.00 864.20 28.53
11429 67.1420 862.00 863.67 29.36
11430 67.1470 821.00 863.15 28.65
11431 67.1520 817.00 862.63 28.58
11432 67.1570 850.00 862.11 29.15
11433 67.1620 849.00 861.59 29.14
11434 67.1670 838.00 861.04 28.95
11435 67.1720 870.00 860.48 29.50
11436 67.1770 898.00 859.89 29.97
11437 67.1820 874.00 859.26 29.56
11438 67.1870 859.00 858.59 29.31
11439 67.1920 858.00 857.86 29.29
11440 67.1970 840.00 857.06 28.98
11441 67.2020 875.00 856.19 29.58
11442 67.2070 871.00 855.24 29.51
11443 67.2120 854.00 854.19 29.22
11444 67.2170 851.00 853.98 29.17
11445 67.2220 844.00 852.71 29.05
11446 67.2270 848.00 851.33 29.12
11447 67.2320 856.00 849.81 29.26
11448 67.2370 854.00 848.14 29.22
11449 67.2420 880.00 846.32 29.66
11450 67.2470 885.00 844.35 29.75
11451 67.2520 868.00 842.20 29.46
11452 67.2570 889.00 839.87 29.82
11453 67.2620 884.00 837.35 29.73
11454 67.2670 896.00 834.66 29.93
11455 67.2720 871.00 831.75 29.51
11456 67.2770 884.00 828.64 29.73
11457 67.2820 884.00 825.34 29.73
11458 67.2870 887.00 821.81 29.78
11459 67.2920 884.00 818.08 29.73
11460 67.2970 863.00 814.13 29.38
11461 67.3020 796.00 809.97 28.21
11462 67.3070 802.00 805.59 28.32
11463 67.3120 803.00 801.01 28.34
11464 67.3170 828.00 796.22 28.77
11465 67.3220 855.00 791.22 29.24
11466 67.3270 822.00 786.03 28.67
11467 67.3320 836.00 780.63 28.91
11468 67.3370 836.00 775.05 28.91
11469 67.3420 808.00 769.31 28.43
11470 67.3470 808.00 763.48 28.43
11471 67.3520 811.00 757.39 28.48
11472 67.3570 757.00 751.16 27.51
11473 67.3620 720.00 744.77 26.83
11474 67.3670 711.00 738.25 26.66
11475 67.3720 704.00 731.61 26.53
11476 67.3770 723.00 724.85 26.89
11477 67.3820 729.00 717.99 27.00
11478 67.3870 722.00 711.03 26.87
11479 67.3920 700.00 704.01 26.46
11480 67.3970 700.00 696.90 26.46
11481 67.4020 734.00 689.73 27.09
11482 67.4070 707.00 683.36 26.59
11483 67.4120 693.00 676.11 26.32
11484 67.4170 690.00 668.82 26.27
11485 67.4220 669.00 661.53 25.86
11486 67.4270 694.00 654.22 26.34
11487 67.4320 664.00 646.90 25.77
11488 67.4370 635.00 639.60 25.20
11489 67.4420 603.00 632.31 24.56
11490 67.4470 621.00 625.03 24.92
11491 67.4520 601.00 617.80 24.52
11492 67.4570 570.00 610.59 23.87
11493 67.4620 570.00 603.43 23.87
11494 67.4670 591.00 596.33 24.31
11495 67.4720 598.00 589.26 24.45
11496 67.4770 586.00 582.27 24.21
11497 67.4820 571.00 575.34 23.90
11498 67.4870 524.00 568.48 22.89
11499 67.4920 502.00 561.70 22.41
11500 67.4970 503.00 555.00 22.43
11501 67.5020 505.00 548.39 22.47
11502 67.5070 521.00 541.86 22.83
11503 67.5120 491.00 535.41 22.16
11504 67.5170 464.00 529.07 21.54
11505 67.5220 472.00 522.83 21.73
11506 67.5270 465.00 516.67 21.56
11507 67.5320 468.00 510.63 21.63
11508 67.5370 476.00 504.68 21.82
11509 67.5420 525.00 498.84 22.91
11510 67.5470 517.00 493.11 22.74
11511 67.5520 510.00 487.49 22.58
11512 67.5570 496.00 481.97 22.27
11513 67.5620 469.00 476.57 21.66
11514 67.5670 436.00 471.28 20.88
11515 67.5720 446.00 466.10 21.12
11516 67.5770 468.00 461.03 21.63
11517 67.5820 471.00 456.08 21.70
11518 67.5870 435.00 451.24 20.86
11519 67.5920 418.00 445.33 20.44
11520 67.5970 413.00 440.73 20.32
11521 67.6020 412.00 436.23 20.30
11522 67.6070 396.00 431.85 19.90
11523 67.6120 389.00 427.59 19.72
11524 67.6170 397.00 423.43 19.92
11525 67.6220 420.00 419.39 20.49
11526 67.6270 414.00 415.46 20.35
11527 67.6320 360.00 411.64 18.97
11528 67.6370 353.00 407.93 18.79
11529 67.6420 366.00 404.34 19.13
11530 67.6470 372.00 400.85 19.29
11531 67.6520 364.00 397.46 19.08
11532 67.6570 367.00 394.18 19.16
11533 67.6620 393.00 391.01 19.82
11534 67.6670 400.00 387.94 20.00
11535 67.6720 403.00 384.98 20.07
11536 67.6770 407.00 382.12 20.17
11537 67.6820 405.00 379.35 20.12
11538 67.6870 363.00 376.69 19.05
11539 67.6920 332.00 374.13 18.22
11540 67.6970 345.00 371.65 18.57
11541 67.7020 333.00 369.28 18.25
11542 67.7070 359.00 367.00 18.95
11543 67.7120 362.00 364.81 19.03
11544 67.7170 347.00 362.71 18.63
11545 67.7220 334.00 361.06 18.28
11546 67.7270 332.00 359.14 18.22
11547 67.7320 334.00 357.30 18.28
11548 67.7370 352.00 355.55 18.76
11549 67.7420 359.00 353.88 18.95
11550 67.7470 347.00 352.30 18.63
11551 67.7520 357.00 350.79 18.89
11552 67.7570 350.00 349.36 18.71
11553 67.7620 370.00 348.01 19.24
11554 67.7670 387.00 346.74 19.67
11555 67.7720 360.00 345.55 18.97
11556 67.7770 337.00 344.42 18.36
11557 67.7820 289.00 343.37 17.00
11558 67.7870 321.00 342.39 17.92
11559 67.7920 338.00 341.48 18.38
11560 67.7970 294.00 340.64 17.15
11561 67.8020 292.00 339.87 17.09
11562 67.8070 317.00 339.08 17.80
11563 67.8120 368.00 338.44 19.18
11564 67.8170 343.00 337.87 18.52
11565 67.8220 353.00 337.36 18.79
11566 67.8270 367.00 336.91 19.16
11567 67.8320 348.00 336.53 18.65
11568 67.8370 333.00 336.21 18.25
11569 67.8420 327.00 335.96 18.08
11570 67.8470 327.00 335.76 18.08
11571 67.8520 351.00 335.63 18.74
11572 67.8570 334.00 335.55 18.28
11573 67.8620 365.00 335.54 19.10
11574 67.8670 325.00 335.58 18.03
11575 67.8720 313.00 335.68 17.69
11576 67.8770 309.00 335.85 17.58
11577 67.8820 345.00 336.07 18.57
11578 67.8870 338.00 336.34 18.38
11579 67.8920 329.00 336.68 18.14
11580 67.8970 326.00 337.07 18.06
11581 67.9020 382.00 337.02 19.54
11582 67.9070 374.00 337.53 19.34
11583 67.9120 357.00 338.10 18.89
11584 67.9170 377.00 338.72 19.42
11585 67.9220 383.00 339.40 19.57
11586 67.9270 366.00 340.14 19.13
11587 67.9320 392.00 340.93 19.80
11588 67.9370 409.00 341.78 20.22
11589 67.9420 390.00 342.68 19.75
11590 67.9470 411.00 343.64 20.27
11591 67.9520 392.00 344.66 19.80
11592 67.9570 373.00 345.73 19.31
11593 67.9620 409.00 346.86 20.22
11594 67.9670 379.00 348.04 19.47
11595 67.9720 388.00 349.28 19.70
11596 67.9770 389.00 350.57 19.72
11597 67.9820 366.00 351.92 19.13
11598 67.9870 327.00 353.33 18.08
11599 67.9920 347.00 354.79 18.63
11600 67.9970 387.00 356.30 19.67
11601 68.0020 380.00 357.87 19.49
11602 68.0070 368.00 359.37 19.18
11603 68.0120 372.00 361.05 19.29
11604 68.0170 383.00 362.78 19.57
11605 68.0220 368.00 364.56 19.18
11606 68.0270 400.00 366.40 20.00
11607 68.0320 407.00 368.29 20.17
11608 68.0370 400.00 370.23 20.00
11609 68.0420 425.00 372.23 20.62
11610 68.0470 448.00 374.28 21.17
11611 68.0520 424.00 376.37 20.59
11612 68.0570 424.00 378.52 20.59
11613 68.0620 442.00 380.72 21.02
11614 68.0670 443.00 382.72 21.05
11615 68.0720 439.00 385.02 20.95
11616 68.0770 409.00 387.38 20.22
11617 68.0820 414.00 389.78 20.35
11618 68.0870 424.00 392.23 20.59
11619 68.0920 429.00 394.73 20.71
11620 68.0970 435.00 397.29 20.86
11621 68.1020 447.00 399.89 21.14
11622 68.1070 470.00 402.54 21.68
11623 68.1120 455.00 405.25 21.33
11624 68.1170 439.00 408.00 20.95
11625 68.1220 442.00 410.80 21.02
11626 68.1270 435.00 413.67 20.86
11627 68.1320 469.00 416.57 21.66
11628 68.1370 465.00 419.54 21.56
11629 68.1420 464.00 422.55 21.54
11630 68.1470 481.00 425.63 21.93
11631 68.1520 510.00 428.76 22.58
11632 68.1570 527.00 431.94 22.96
11633 68.1620 534.00 435.19 23.11
11634 68.1670 483.00 438.50 21.98
11635 68.1720 469.00 441.96 21.66
11636 68.1770 485.00 445.39 22.02
11637 68.1820 500.00 448.89 22.36
11638 68.1870 502.00 452.45 22.41
11639 68.1920 523.00 456.09 22.87
11640 68.1970 527.00 459.78 22.96
11641 68.2020 507.00 463.55 22.52
11642 68.2070 510.00 467.39 22.58
11643 68.2120 472.00 471.28 21.73
11644 68.2170 512.00 475.24 22.63
11645 68.2220 545.00 479.26 23.35
11646 68.2270 559.00 483.33 23.64
11647 68.2320 595.00 487.43 24.39
11648 68.2370 580.00 491.58 24.08
11649 68.2420 554.00 495.75 23.54
11650 68.2470 561.00 499.91 23.69
11651 68.2520 553.00 504.06 23.52
11652 68.2570 527.00 508.17 22.96
11653 68.2620 553.00 512.20 23.52
11654 68.2670 568.00 516.13 23.83
11655 68.2720 577.00 519.92 24.02
11656 68.2770 565.00 523.53 23.77
11657 68.2820 563.00 526.28 23.73
11658 68.2870 551.00 529.40 23.47
11659 68.2920 560.00 532.19 23.66
11660 68.2970 571.00 534.14 23.90
11661 68.3020 587.00 536.16 24.23
11662 68.3070 563.00 538.35 23.73
11663 68.3120 588.00 539.45 24.25
11664 68.3170 580.00 540.05 24.08
11665 68.3220 612.00 540.12 24.74
11666 68.3270 610.00 539.67 24.70
11667 68.3320 605.00 538.70 24.60
11668 68.3370 615.00 537.23 24.80
11669 68.3420 614.00 535.30 24.78
11670 68.3470 612.00 532.93 24.74
11671 68.3520 609.00 530.17 24.68
11672 68.3570 578.00 527.07 24.04
11673 68.3620 533.00 523.96 23.09
11674 68.3670 539.00 520.32 23.22
11675 68.3720 523.00 516.47 22.87
11676 68.3770 509.00 512.46 22.56
11677 68.3820 510.00 508.33 22.58
11678 68.3870 518.00 504.12 22.76
11679 68.3920 491.00 499.86 22.16
11680 68.3970 485.00 495.57 22.02
11681 68.4020 460.00 491.26 21.45
11682 68.4070 478.00 486.98 21.86
11683 68.4120 478.00 482.71 21.86
11684 68.4170 508.00 478.48 22.54
11685 68.4220 525.00 474.30 22.91
11686 68.4270 510.00 470.16 22.58
11687 68.4320 482.00 466.08 21.95
11688 68.4370 466.00 462.06 21.59
11689 68.4420 480.00 458.10 21.91
11690 68.4470 488.00 454.20 22.09
11691 68.4520 500.00 450.37 22.36
11692 68.4570 499.00 446.60 22.34
11693 68.4620 480.00 442.89 21.91
11694 68.4670 449.00 439.26 21.19
11695 68.4720 442.00 435.68 21.02
11696 68.4770 419.00 432.17 20.47
11697 68.4820 422.00 428.73 20.54
11698 68.4870 416.00 425.35 20.40
11699 68.4920 458.00 422.03 21.40
11700 68.4970 455.00 418.78 21.33
11701 68.5020 452.00 415.58 21.26
11702 68.5070 438.00 412.45 20.93
11703 68.5120 416.00 409.38 20.40
11704 68.5170 413.00 406.37 20.32
11705 68.5220 406.00 403.42 20.15
11706 68.5270 410.00 400.52 20.25
11707 68.5320 407.00 397.70 20.17
11708 68.5370 427.00 394.93 20.66
11709 68.5420 457.00 392.21 21.38
11710 68.5470 464.00 389.56 21.54
11711 68.5520 435.00 386.96 20.86
11712 68.5570 422.00 384.42 20.54
11713 68.5620 426.00 381.94 20.64
11714 68.5670 411.00 379.51 20.27
11715 68.5720 405.00 377.14 20.12
11716 68.5770 415.00 374.83 20.37
11717 68.5820 401.00 372.57 20.02
11718 68.5870 383.00 370.37 19.57
11719 68.5920 380.00 368.23 19.49
11720 68.5970 396.00 366.14 19.90
11721 68.6020 395.00 364.11 19.87
11722 68.6070 387.00 362.13 19.67
11723 68.6120 389.00 360.20 19.72
11724 68.6170 354.00 358.33 18.81
11725 68.6220 346.00 356.52 18.60
11726 68.6270 365.00 354.75 19.10
11727 68.6320 379.00 353.04 19.47
11728 68.6370 393.00 351.38 19.82
11729 68.6420 374.00 349.78 19.34
11730 68.6470 354.00 348.23 18.81
11731 68.6520 348.00 346.72 18.65
11732 68.6570 371.00 345.27 19.26
11733 68.6620 384.00 343.86 19.60
11734 68.6670 348.00 342.51 18.65
11735 68.6720 337.00 341.20 18.36
11736 68.6770 321.00 339.69 17.92
11737 68.6820 336.00 338.47 18.33
11738 68.6870 340.00 337.31 18.44
11739 68.6920 298.00 336.18 17.26
11740 68.6970 261.00 335.10 16.16
11741 68.7020 263.00 334.07 16.22
11742 68.7070 265.00 333.07 16.28
11743 68.7120 282.00 332.12 16.79
11744 68.7170 286.00 331.21 16.91
11745 68.7220 301.00 330.34 17.35
11746 68.7270 311.00 329.50 17.64
11747 68.7320 319.00 328.70 17.86
11748 68.7370 318.00 327.94 17.83
11749 68.7420 316.00 327.21 17.78
11750 68.7470 307.00 326.52 17.52
11751 68.7520 276.00 325.86 16.61
11752 68.7570 288.00 325.24 16.97
11753 68.7620 317.00 324.64 17.80
11754 68.7670 300.00 324.08 17.32
11755 68.7720 281.00 323.54 16.76
11756 68.7770 257.00 323.03 16.03
11757 68.7820 273.00 322.55 16.52
11758 68.7870 295.00 322.09 17.18
11759 68.7920 312.00 321.66 17.66
11760 68.7970 320.00 321.25 17.89
11761 68.8020 325.00 320.87 18.03
11762 68.8070 297.00 320.51 17.23
11763 68.8120 297.00 320.17 17.23
11764 68.8170 311.00 319.85 17.64
11765 68.8220 293.00 319.55 17.12
11766 68.8270 286.00 319.28 16.91
11767 68.8320 308.00 319.02 17.55
11768 68.8370 321.00 318.78 17.92
11769 68.8420 313.00 318.55 17.69
11770 68.8470 337.00 318.29 18.36
11771 68.8520 311.00 318.10 17.64
11772 68.8570 300.00 317.93 17.32
11773 68.8620 264.00 317.78 16.25
11774 68.8670 226.00 317.64 15.03
11775 68.8720 230.00 317.52 15.17
11776 68.8770 231.00 317.42 15.20
11777 68.8820 237.00 317.33 15.39
11778 68.8870 271.00 317.27 16.46
11779 68.8920 296.00 317.21 17.20
11780 68.8970 264.00 317.18 16.25
11781 68.9020 277.00 317.16 16.64
11782 68.9070 311.00 317.17 17.64
11783 68.9120 315.00 317.18 17.75
11784 68.9170 288.00 317.22 16.97
11785 68.9220 306.00 317.28 17.49
11786 68.9270 310.00 317.36 17.61
11787 68.9320 322.00 317.46 17.94
11788 68.9370 312.00 317.58 17.66
11789 68.9420 299.00 317.72 17.29
11790 68.9470 296.00 317.88 17.20
11791 68.9520 301.00 318.07 17.35
11792 68.9570 320.00 318.28 17.89
11793 68.9620 345.00 318.51 18.57
11794 68.9670 327.00 318.77 18.08
11795 68.9720 309.00 319.05 17.58
11796 68.9770 290.00 319.36 17.03
11797 68.9820 285.00 319.70 16.88
11798 68.9870 293.00 320.06 17.12
11799 68.9920 291.00 320.45 17.06
11800 68.9970 307.00 320.87 17.52
11801 69.0020 310.00 321.32 17.61
11802 69.0070 301.00 321.80 17.35
11803 69.0120 322.00 322.31 17.94
11804 69.0170 314.00 322.85 17.72
11805 69.0220 271.00 323.42 16.46
11806 69.0270 266.00 324.02 16.31
11807 69.0320 288.00 324.66 16.97
11808 69.0370 295.00 325.33 17.18
11809 69.0420 312.00 326.04 17.66
11810 69.0470 327.00 326.78 18.08
11811 69.0520 310.00 327.55 17.61
11812 69.0570 306.00 328.36 17.49
11813 69.0620 307.00 329.21 17.52
11814 69.0670 317.00 330.09 17.80
11815 69.0720 319.00 331.01 17.86
11816 69.0770 328.00 331.97 18.11
11817 69.0820 328.00 332.96 18.11
11818 69.0870 315.00 333.99 17.75
11819 69.0920 311.00 334.32 17.64
11820 69.0970 314.00 335.43 17.72
11821 69.1020 286.00 336.58 16.91
11822 69.1070 260.00 337.78 16.12
11823 69.1120 269.00 339.01 16.40
11824 69.1170 308.00 340.28 17.55
11825 69.1220 309.00 341.59 17.58
11826 69.1270 297.00 342.95 17.23
11827 69.1320 313.00 344.33 17.69
11828 69.1370 310.00 345.77 17.61
11829 69.1420 310.00 347.24 17.61
11830 69.1470 293.00 348.75 17.12
11831 69.1520 298.00 350.30 17.26
11832 69.1570 337.00 351.89 18.36
11833 69.1620 363.00 353.52 19.05
11834 69.1670 347.00 355.20 18.63
11835 69.1720 339.00 356.91 18.41
11836 69.1770 335.00 358.65 18.30
11837 69.1820 295.00 359.39 17.18
11838 69.1870 275.00 361.22 16.58
11839 69.1920 288.00 363.09 16.97
11840 69.1970 300.00 365.00 17.32
11841 69.2020 311.00 366.95 17.64
11842 69.2070 310.00 368.93 17.61
11843 69.2120 304.00 370.95 17.44
11844 69.2170 307.00 373.02 17.52
11845 69.2220 322.00 375.11 17.94
11846 69.2270 332.00 377.24 18.22
11847 69.2320 358.00 379.41 18.92
11848 69.2370 375.00 381.62 19.36
11849 69.2420 357.00 383.86 18.89
11850 69.2470 325.00 386.14 18.03
11851 69.2520 334.00 388.45 18.28
11852 69.2570 352.00 390.79 18.76
11853 69.2620 373.00 393.18 19.31
11854 69.2670 376.00 395.59 19.39
11855 69.2720 369.00 398.03 19.21
11856 69.2770 374.00 400.51 19.34
11857 69.2820 376.00 403.02 19.39
11858 69.2870 344.00 405.56 18.55
11859 69.2920 323.00 408.13 17.97
11860 69.2970 337.00 410.73 18.36
11861 69.3020 350.00 413.36 18.71
11862 69.3070 352.00 416.02 18.76
11863 69.3120 329.00 418.70 18.14
11864 69.3170 307.00 421.42 17.52
11865 69.3220 325.00 424.16 18.03
11866 69.3270 353.00 426.93 18.79
11867 69.3320 364.00 429.72 19.08
11868 69.3370 367.00 432.54 19.16
11869 69.3420 341.00 435.37 18.47
11870 69.3470 344.00 438.24 18.55
11871 69.3520 371.00 441.12 19.26
11872 69.3570 383.00 444.02 19.57
11873 69.3620 370.00 446.94 19.24
11874 69.3670 370.00 449.87 19.24
11875 69.3720 381.00 452.82 19.52
11876 69.3770 375.00 455.79 19.36
11877 69.3820 324.00 458.76 18.00
11878 69.3870 331.00 461.74 18.19
11879 69.3920 384.00 464.73 19.60
11880 69.3970 393.00 467.73 19.82
11881 69.4020 414.00 470.72 20.35
11882 69.4070 428.00 473.72 20.69
11883 69.4120 412.00 476.71 20.30
11884 69.4170 381.00 479.70 19.52
11885 69.4220 376.00 482.68 19.39
11886 69.4270 410.00 485.64 20.25
11887 69.4320 421.00 488.60 20.52
11888 69.4370 436.00 491.53 20.88
11889 69.4420 436.00 494.45 20.88
11890 69.4470 440.00 497.34 20.98
11891 69.4520 436.00 500.20 20.88
11892 69.4570 424.00 503.04 20.59
11893 69.4620 435.00 505.84 20.86
11894 69.4670 444.00 508.60 21.07
11895 69.4720 455.00 511.33 21.33
11896 69.4770 459.00 514.02 21.42
11897 69.4820 456.00 516.65 21.35
11898 69.4870 442.00 519.24 21.02
11899 69.4920 420.00 521.78 20.49
11900 69.4970 454.00 524.27 21.31
11901 69.5020 470.00 526.70 21.68
11902 69.5070 463.00 529.08 21.52
11903 69.5120 478.00 531.39 21.86
11904 69.5170 466.00 533.64 21.59
11905 69.5220 443.00 535.83 21.05
11906 69.5270 455.00 537.96 21.33
11907 69.5320 475.00 540.02 21.79
11908 69.5370 463.00 542.02 21.52
11909 69.5420 461.00 543.95 21.47
11910 69.5470 483.00 545.82 21.98
11911 69.5520 498.00 547.62 22.32
11912 69.5570 496.00 549.36 22.27
11913 69.5620 500.00 551.04 22.36
11914 69.5670 498.00 552.65 22.32
11915 69.5720 505.00 554.20 22.47
11916 69.5770 519.00 555.69 22.78
11917 69.5820 522.00 557.12 22.85
11918 69.5870 489.00 558.50 22.11
11919 69.5920 475.00 559.82 21.79
11920 69.5970 475.00 561.09 21.79
11921 69.6020 494.00 562.31 22.23
11922 69.6070 490.00 563.48 22.14
11923 69.6120 469.00 564.61 21.66
11924 69.6170 461.00 565.70 21.47
11925 69.6220 493.00 566.74 22.20
11926 69.6270 510.00 567.75 22.58
11927 69.6320 488.00 568.72 22.09
11928 69.6370 483.00 569.66 21.98
11929 69.6420 465.00 570.56 21.56
11930 69.6470 450.00 571.42 21.21
11931 69.6520 482.00 572.27 21.95
11932 69.6570 487.00 573.09 22.07
11933 69.6620 514.00 573.89 22.67
11934 69.6670 531.00 574.66 23.04
11935 69.6720 537.00 575.41 23.17
11936 69.6770 548.00 576.14 23.41
11937 69.6820 533.00 576.86 23.09
11938 69.6870 516.00 577.55 22.72
11939 69.6920 478.00 578.23 21.86
11940 69.6970 486.00 578.89 22.05
11941 69.7020 479.00 579.54 21.89
11942 69.7070 496.00 579.81 22.27
11943 69.7120 517.00 580.44 22.74
11944 69.7170 526.00 581.05 22.93
11945 69.7220 507.00 581.66 22.52
11946 69.7270 501.00 582.27 22.38
11947 69.7320 507.00 582.86 22.52
11948 69.7370 511.00 583.46 22.61
11949 69.7420 508.00 584.05 22.54
11950 69.7470 511.00 584.64 22.61
11951 69.7520 519.00 585.24 22.78
11952 69.7570 521.00 585.85 22.83
11953 69.7620 521.00 586.46 22.83
11954 69.7670 540.00 587.09 23.24
11955 69.7720 533.00 587.74 23.09
11956 69.7770 553.00 588.40 23.52
11957 69.7820 547.00 589.09 23.39
11958 69.7870 552.00 589.80 23.49
11959 69.7920 524.00 590.54 22.89
11960 69.7970 520.00 591.32 22.80
11961 69.8020 520.00 592.13 22.80
11962 69.8070 520.00 592.98 22.80
11963 69.8120 526.00 593.87 22.93
11964 69.8170 534.00 594.81 23.11
11965 69.8220 531.00 595.79 23.04
11966 69.8270 543.00 596.83 23.30
11967 69.8320 546.00 597.92 23.37
11968 69.8370 546.00 599.06 23.37
11969 69.8420 545.00 600.27 23.35
11970 69.8470 534.00 601.53 23.11
11971 69.8520 527.00 602.85 22.96
11972 69.8570 541.00 604.24 23.26
11973 69.8620 532.00 605.69 23.07
11974 69.8670 525.00 607.21 22.91
11975 69.8720 528.00 608.80 22.98
11976 69.8770 532.00 610.45 23.07
11977 69.8820 515.00 612.86 22.69
11978 69.8870 521.00 614.66 22.83
11979 69.8920 540.00 616.51 23.24
11980 69.8970 519.00 618.13 22.78
11981 69.9020 521.00 620.13 22.83
11982 69.9070 503.00 622.20 22.43
11983 69.9120 503.00 624.34 22.43
11984 69.9170 517.00 626.55 22.74
11985 69.9220 535.00 628.82 23.13
11986 69.9270 561.00 631.16 23.69
11987 69.9320 581.00 633.58 24.10
11988 69.9370 628.00 636.05 25.06
11989 69.9420 609.00 638.59 24.68
11990 69.9470 581.00 641.19 24.10
11991 69.9520 574.00 643.85 23.96
11992 69.9570 564.00 646.57 23.75
11993 69.9620 569.00 649.36 23.85
11994 69.9670 590.00 652.19 24.29
11995 69.9720 591.00 655.11 24.31
11996 69.9770 596.00 658.06 24.41
11997 69.9820 594.00 661.06 24.37
11998 69.9870 593.00 664.11 24.35
11999 69.9920 600.00 667.21 24.49
12000 69.9970 570.00 670.36 23.87
12001 70.0020 559.00 673.55 23.64
12002 70.0070 554.00 676.79 23.54
12003 70.0120 560.00 680.08 23.66
12004 70.0170 549.00 683.39 23.43
12005 70.0220 553.00 686.75 23.52
12006 70.0270 585.00 690.15 24.19
12007 70.0320 630.00 693.57 25.10
12008 70.0370 676.00 697.03 26.00
12009 70.0420 680.00 700.52 26.08
12010 70.0470 640.00 704.04 25.30
12011 70.0520 626.00 707.58 25.02
12012 70.0570 618.00 711.15 24.86
12013 70.0620 624.00 714.74 24.98
12014 70.0670 622.00 718.34 24.94
12015 70.0720 617.00 721.97 24.84
12016 70.0770 625.00 725.88 25.00
12017 70.0820 647.00 729.53 25.44
12018 70.0870 611.00 733.20 24.72
12019 70.0920 605.00 736.86 24.60
12020 70.0970 632.00 740.54 25.14
12021 70.1020 649.00 744.23 25.48
12022 70.1070 671.00 747.91 25.90
12023 70.1120 681.00 750.20 26.10
12024 70.1170 671.00 753.88 25.90
12025 70.1220 659.00 757.55 25.67
12026 70.1270 672.00 761.22 25.92
12027 70.1320 649.00 764.87 25.48
12028 70.1370 664.00 768.51 25.77
12029 70.1420 696.00 772.13 26.38
12030 70.1470 708.00 775.73 26.61
12031 70.1520 718.00 779.32 26.80
12032 70.1570 727.00 782.89 26.96
12033 70.1620 726.00 786.42 26.94
12034 70.1670 757.00 789.94 27.51
12035 70.1720 758.00 793.43 27.53
12036 70.1770 737.00 796.88 27.15
12037 70.1820 695.00 800.32 26.36
12038 70.1870 712.00 803.72 26.68
12039 70.1920 762.00 807.08 27.60
12040 70.1970 757.00 810.42 27.51
12041 70.2020 733.00 813.72 27.07
12042 70.2070 748.00 816.99 27.35
12043 70.2120 768.00 820.23 27.71
12044 70.2170 769.00 823.44 27.73
12045 70.2220 766.00 826.63 27.68
12046 70.2270 807.00 829.77 28.41
12047 70.2320 804.00 832.90 28.35
12048 70.2370 821.00 836.00 28.65
12049 70.2420 833.00 839.07 28.86
12050 70.2470 833.00 842.13 28.86
12051 70.2520 796.00 845.17 28.21
12052 70.2570 787.00 848.19 28.05
12053 70.2620 794.00 851.21 28.18
12054 70.2670 792.00 854.21 28.14
12055 70.2720 792.00 857.20 28.14
12056 70.2770 792.00 860.20 28.14
12057 70.2820 765.00 863.20 27.66
12058 70.2870 760.00 866.19 27.57
12059 70.2920 758.00 869.21 27.53
12060 70.2970 731.00 872.23 27.04
12061 70.3020 751.00 875.27 27.40
12062 70.3070 819.00 878.34 28.62
12063 70.3120 828.00 881.42 28.77
12064 70.3170 795.00 884.54 28.20
12065 70.3220 803.00 887.69 28.34
12066 70.3270 803.00 890.88 28.34
12067 70.3320 845.00 894.11 29.07
12068 70.3370 867.00 897.38 29.44
12069 70.3420 883.00 900.70 29.72
12070 70.3470 895.00 904.07 29.92
12071 70.3520 850.00 907.50 29.15
12072 70.3570 839.00 910.99 28.97
12073 70.3620 885.00 914.54 29.75
12074 70.3670 903.00 918.16 30.05
12075 70.3720 892.00 921.85 29.87
12076 70.3770 887.00 925.62 29.78
12077 70.3820 888.00 930.26 29.80
12078 70.3870 875.00 934.19 29.58
12079 70.3920 870.00 938.20 29.50
12080 70.3970 929.00 942.29 30.48
12081 70.4020 902.00 946.48 30.03
12082 70.4070 891.00 950.76 29.85
12083 70.4120 891.00 955.13 29.85
12084 70.4170 883.00 959.61 29.72
12085 70.4220 937.00 964.19 30.61
12086 70.4270 952.00 968.86 30.85
12087 70.4320 951.00 973.66 30.84
12088 70.4370 991.00 978.55 31.48
12089 70.4420 998.00 983.55 31.59
12090 70.4470 975.00 988.66 31.23
12091 70.4520 990.00 993.88 31.46
12092 70.4570 1015.00 999.22 31.86
12093 70.4620 998.00 1004.67 31.59
12094 70.4670 980.00 1010.23 31.31
12095 70.4720 960.00 1015.91 30.98
12096 70.4770 993.00 1021.68 31.51
12097 70.4820 1005.00 1027.59 31.70
12098 70.4870 1005.00 1033.61 31.70
12099 70.4920 1030.00 1039.73 32.09
12100 70.4970 1015.00 1045.97 31.86
12101 70.5020 1005.00 1052.33 31.70
12102 70.5070 987.00 1058.78 31.42
12103 70.5120 1012.00 1065.35 31.81
12104 70.5170 990.00 1072.10 31.46
12105 70.5220 1029.00 1078.86 32.08
12106 70.5270 1022.00 1085.71 31.97
12107 70.5320 1020.00 1092.66 31.94
12108 70.5370 1030.00 1099.69 32.09
12109 70.5420 1032.00 1106.80 32.12
12110 70.5470 1061.00 1113.99 32.57
12111 70.5520 1085.00 1121.25 32.94
12112 70.5570 1088.00 1128.58 32.98
12113 70.5620 1091.00 1135.96 33.03
12114 70.5670 1064.00 1143.39 32.62
12115 70.5720 1092.00 1150.87 33.05
12116 70.5770 1109.00 1158.38 33.30
12117 70.5820 1132.00 1165.93 33.65
12118 70.5870 1145.00 1173.47 33.84
12119 70.5920 1139.00 1181.04 33.75
12120 70.5970 1136.00 1188.60 33.70
12121 70.6020 1091.00 1196.14 33.03
12122 70.6070 1108.00 1203.66 33.29
12123 70.6120 1161.00 1211.15 34.07
12124 70.6170 1237.00 1218.58 35.17
12125 70.6220 1207.00 1225.94 34.74
12126 70.6270 1203.00 1233.25 34.68
12127 70.6320 1209.00 1240.45 34.77
12128 70.6370 1247.00 1247.55 35.31
12129 70.6420 1280.00 1254.54 35.78
12130 70.6470 1318.00 1261.39 36.30
12131 70.6520 1292.00 1268.09 35.94
12132 70.6570 1302.00 1274.80 36.08
12133 70.6620 1318.00 1281.16 36.30
12134 70.6670 1312.00 1287.33 36.22
12135 70.6720 1313.00 1293.29 36.24
12136 70.6770 1287.00 1299.02 35.87
12137 70.6820 1294.00 1304.51 35.97
12138 70.6870 1291.00 1309.75 35.93
12139 70.6920 1296.00 1314.72 36.00
12140 70.6970 1299.00 1319.41 36.04
12141 70.7020 1325.00 1323.80 36.40
12142 70.7070 1332.00 1327.88 36.50
12143 70.7120 1335.00 1331.64 36.54
12144 70.7170 1348.00 1335.05 36.72
12145 70.7220 1344.00 1338.14 36.66
12146 70.7270 1370.00 1340.87 37.01
12147 70.7320 1378.00 1343.23 37.12
12148 70.7370 1385.00 1345.24 37.22
12149 70.7420 1390.00 1346.87 37.28
12150 70.7470 1425.00 1348.11 37.75
12151 70.7520 1420.00 1348.99 37.68
12152 70.7570 1396.00 1349.48 37.36
12153 70.7620 1392.00 1349.59 37.31
12154 70.7670 1379.00 1349.32 37.13
12155 70.7720 1373.00 1348.67 37.05
12156 70.7770 1390.00 1347.65 37.28
12157 70.7820 1391.00 1346.26 37.30
12158 70.7870 1318.00 1344.51 36.30
12159 70.7920 1345.00 1342.40 36.67
12160 70.7970 1412.00 1339.95 37.58
12161 70.8020 1425.00 1337.17 37.75
12162 70.8070 1404.00 1334.05 37.47
12163 70.8120 1389.00 1330.63 37.27
12164 70.8170 1353.00 1326.90 36.78
12165 70.8220 1345.00 1322.88 36.67
12166 70.8270 1355.00 1318.59 36.81
12167 70.8320 1396.00 1314.03 37.36
12168 70.8370 1418.00 1309.22 37.66
12169 70.8420 1370.00 1304.19 37.01
12170 70.8470 1343.00 1298.92 36.65
12171 70.8520 1370.00 1293.46 37.01
12172 70.8570 1347.00 1287.82 36.70
12173 70.8620 1310.00 1281.98 36.19
12174 70.8670 1269.00 1275.98 35.62
12175 70.8720 1272.00 1269.85 35.67
12176 70.8770 1300.00 1263.56 36.06
12177 70.8820 1310.00 1257.16 36.19
12178 70.8870 1323.00 1250.65 36.37
12179 70.8920 1278.00 1244.05 35.75
12180 70.8970 1245.00 1237.36 35.28
12181 70.9020 1236.00 1230.58 35.16
12182 70.9070 1240.00 1223.77 35.21
12183 70.9120 1235.00 1216.89 35.14
12184 70.9170 1252.00 1209.96 35.38
12185 70.9220 1233.00 1203.01 35.11
12186 70.9270 1254.00 1196.03 35.41
12187 70.9320 1234.00 1189.03 35.13
12188 70.9370 1216.00 1182.04 34.87
12189 70.9420 1209.00 1175.03 34.77
12190 70.9470 1182.00 1168.03 34.38
12191 70.9520 1180.00 1161.05 34.35
12192 70.9570 1186.00 1154.07 34.44
12193 70.9620 1157.00 1147.13 34.01
12194 70.9670 1183.00 1140.22 34.39
12195 70.9720 1151.00 1133.32 33.93
12196 70.9770 1140.00 1126.47 33.76
12197 70.9820 1138.00 1119.66 33.73
12198 70.9870 1144.00 1112.87 33.82
12199 70.9920 1139.00 1106.13 33.75
12200 70.9970 1140.00 1099.44 33.76
12201 71.0020 1142.00 1092.78 33.79
12202 71.0070 1133.00 1086.16 33.66
12203 71.0120 1147.00 1079.58 33.87
12204 71.0170 1124.00 1073.06 33.53
12205 71.0220 1094.00 1066.57 33.08
12206 71.0270 1088.00 1060.11 32.98
12207 71.0320 1100.00 1053.70 33.17
12208 71.0370 1138.00 1047.32 33.73
12209 71.0420 1148.00 1040.96 33.88
12210 71.0470 1132.00 1034.65 33.65
12211 71.0520 1124.00 1028.35 33.53
12212 71.0570 1131.00 1022.06 33.63
12213 71.0620 1117.00 1015.82 33.42
12214 71.0670 1077.00 1009.57 32.82
12215 71.0720 1070.00 1003.34 32.71
12216 71.0770 1077.00 997.12 32.82
12217 71.0820 1075.00 990.90 32.79
12218 71.0870 1074.00 984.68 32.77
12219 71.0920 1068.00 978.48 32.68
12220 71.0970 1067.00 972.25 32.67
12221 71.1020 1068.00 966.03 32.68
12222 71.1070 1052.00 959.80 32.43
12223 71.1120 1062.00 953.56 32.59
12224 71.1170 1054.00 947.30 32.47
12225 71.1220 1051.00 940.25 32.42
12226 71.1270 1050.00 933.98 32.40
12227 71.1320 1064.00 927.70 32.62
12228 71.1370 1039.00 921.39 32.23
12229 71.1420 1025.00 915.10 32.02
12230 71.1470 1020.00 908.78 31.94
12231 71.1520 1008.00 902.46 31.75
12232 71.1570 985.00 896.14 31.38
12233 71.1620 999.00 889.82 31.61
12234 71.1670 980.00 883.49 31.31
12235 71.1720 961.00 877.18 31.00
12236 71.1770 943.00 870.87 30.71
12237 71.1820 921.00 864.57 30.35
12238 71.1870 902.00 858.30 30.03
12239 71.1920 875.00 852.06 29.58
12240 71.1970 863.00 845.83 29.38
12241 71.2020 873.00 839.64 29.55
12242 71.2070 861.00 833.48 29.34
12243 71.2120 837.00 827.37 28.93
12244 71.2170 830.00 821.31 28.81
12245 71.2220 848.00 815.30 29.12
12246 71.2270 853.00 809.34 29.21
12247 71.2320 870.00 803.45 29.50
12248 71.2370 871.00 797.63 29.51
12249 71.2420 857.00 791.87 29.27
12250 71.2470 840.00 786.19 28.98
12251 71.2520 818.00 780.59 28.60
12252 71.2570 803.00 775.07 28.34
12253 71.2620 830.00 769.62 28.81
12254 71.2670 837.00 764.28 28.93
12255 71.2720 821.00 759.03 28.65
12256 71.2770 805.00 753.87 28.37
12257 71.2820 783.00 748.81 27.98
12258 71.2870 749.00 743.85 27.37
12259 71.2920 748.00 738.99 27.35
12260 71.2970 762.00 734.24 27.60
12261 71.3020 781.00 729.60 27.95
12262 71.3070 762.00 725.06 27.60
12263 71.3120 714.00 720.64 26.72
12264 71.3170 694.00 716.33 26.34
12265 71.3220 691.00 712.12 26.29
12266 71.3270 685.00 708.03 26.17
12267 71.3320 694.00 704.05 26.34
12268 71.3370 687.00 700.19 26.21
12269 71.3420 705.00 696.44 26.55
12270 71.3470 725.00 692.81 26.93
12271 71.3520 738.00 689.29 27.17
12272 71.3570 725.00 685.89 26.93
12273 71.3620 715.00 682.59 26.74
12274 71.3670 679.00 679.42 26.06
12275 71.3720 673.00 676.36 25.94
12276 71.3770 666.00 673.41 25.81
12277 71.3820 649.00 670.57 25.48
12278 71.3870 651.00 667.84 25.51
12279 71.3920 646.00 665.22 25.42
12280 71.3970 627.00 662.72 25.04
12281 71.4020 605.00 660.31 24.60
12282 71.4070 581.00 658.02 24.10
12283 71.4120 600.00 655.83 24.49
12284 71.4170 641.00 653.74 25.32
12285 71.4220 684.00 651.75 26.15
12286 71.4270 679.00 649.86 26.06
12287 71.4320 660.00 648.07 25.69
12288 71.4370 655.00 646.37 25.59
12289 71.4420 644.00 644.12 25.38
12290 71.4470 623.00 642.60 24.96
12291 71.4520 614.00 641.18 24.78
12292 71.4570 627.00 639.83 25.04
12293 71.4620 612.00 638.57 24.74
12294 71.4670 614.00 637.39 24.78
12295 71.4720 633.00 636.29 25.16
12296 71.4770 613.00 635.26 24.76
12297 71.4820 605.00 634.30 24.60
12298 71.4870 601.00 633.41 24.52
12299 71.4920 587.00 632.59 24.23
12300 71.4970 611.00 631.82 24.72
12301 71.5020 646.00 631.11 25.42
12302 71.5070 615.00 630.46 24.80
12303 71.5120 617.00 629.85 24.84
12304 71.5170 616.00 629.29 24.82
12305 71.5220 633.00 628.77 25.16
12306 71.5270 634.00 628.29 25.18
12307 71.5320 616.00 627.84 24.82
12308 71.5370 617.00 627.43 24.84
12309 71.5420 627.00 627.03 25.04
12310 71.5470 648.00 626.67 25.46
12311 71.5520 651.00 626.32 25.51
12312 71.5570 653.00 625.98 25.55
12313 71.5620 664.00 625.74 25.77
12314 71.5670 657.00 625.42 25.63
12315 71.5720 640.00 625.09 25.30
12316 71.5770 627.00 624.77 25.04
12317 71.5820 626.00 624.43 25.02
12318 71.5870 597.00 624.09 24.43
12319 71.5920 585.00 623.73 24.19
12320 71.5970 616.00 623.35 24.82
12321 71.6020 631.00 622.96 25.12
12322 71.6070 636.00 622.53 25.22
12323 71.6120 642.00 622.08 25.34
12324 71.6170 617.00 621.60 24.84
12325 71.6220 629.00 621.09 25.08
12326 71.6270 665.00 620.53 25.79
12327 71.6320 662.00 619.94 25.73
12328 71.6370 660.00 619.31 25.69
12329 71.6420 665.00 618.64 25.79
12330 71.6470 648.00 617.92 25.46
12331 71.6520 625.00 617.15 25.00
12332 71.6570 626.00 616.48 25.02
12333 71.6620 632.00 615.62 25.14
12334 71.6670 634.00 614.71 25.18
12335 71.6720 637.00 613.75 25.24
12336 71.6770 648.00 612.74 25.46
12337 71.6820 661.00 611.68 25.71
12338 71.6870 647.00 610.56 25.44
12339 71.6920 636.00 609.40 25.22
12340 71.6970 624.00 608.18 24.98
12341 71.7020 613.00 606.91 24.76
12342 71.7070 565.00 605.59 23.77
12343 71.7120 553.00 604.23 23.52
12344 71.7170 568.00 602.81 23.83
12345 71.7220 569.00 601.35 23.85
12346 71.7270 581.00 599.84 24.10
12347 71.7320 618.00 598.28 24.86
12348 71.7370 653.00 598.28 25.55
12349 71.7420 665.00 596.77 25.79
12350 71.7470 649.00 595.09 25.48
12351 71.7520 611.00 593.37 24.72
12352 71.7570 579.00 591.61 24.06
12353 71.7620 581.00 589.82 24.10
12354 71.7670 567.00 587.99 23.81
12355 71.7720 552.00 586.14 23.49
12356 71.7770 557.00 584.25 23.60
12357 71.7820 561.00 582.34 23.69
12358 71.7870 551.00 580.41 23.47
12359 71.7920 563.00 578.45 23.73
12360 71.7970 575.00 576.48 23.98
12361 71.8020 576.00 574.49 24.00
12362 71.8070 555.00 572.29 23.56
12363 71.8120 544.00 570.28 23.32
12364 71.8170 554.00 568.27 23.54
12365 71.8220 573.00 566.25 23.94
12366 71.8270 570.00 564.23 23.87
12367 71.8320 557.00 562.21 23.60
12368 71.8370 551.00 560.20 23.47
12369 71.8420 546.00 558.19 23.37
12370 71.8470 533.00 556.20 23.09
12371 71.8520 518.00 554.22 22.76
12372 71.8570 535.00 552.26 23.13
12373 71.8620 569.00 550.31 23.85
12374 71.8670 569.00 548.39 23.85
12375 71.8720 541.00 546.49 23.26
12376 71.8770 533.00 544.62 23.09
12377 71.8820 513.00 542.78 22.65
12378 71.8870 512.00 540.98 22.63
12379 71.8920 516.00 539.21 22.72
12380 71.8970 503.00 537.48 22.43
12381 71.9020 514.00 535.79 22.67
12382 71.9070 508.00 534.14 22.54
12383 71.9120 503.00 532.54 22.43
12384 71.9170 495.00 530.99 22.25
12385 71.9220 476.00 529.49 21.82
12386 71.9270 481.00 528.04 21.93
12387 71.9320 509.00 526.65 22.56
12388 71.9370 514.00 525.31 22.67
12389 71.9420 510.00 524.03 22.58
12390 71.9470 483.00 523.20 21.98
12391 71.9520 459.00 522.05 21.42
12392 71.9570 455.00 520.96 21.33
12393 71.9620 437.00 519.94 20.90
12394 71.9670 413.00 518.99 20.32
12395 71.9720 426.00 518.10 20.64
12396 71.9770 441.00 517.74 21.00
12397 71.9820 457.00 517.00 21.38
12398 71.9870 484.00 516.34 22.00
12399 71.9920 485.00 515.76 22.02
12400 71.9970 485.00 515.25 22.02
12401 72.0020 489.00 514.83 22.11
12402 72.0070 466.00 514.48 21.59
12403 72.0120 449.00 514.22 21.19
12404 72.0170 452.00 514.03 21.26
12405 72.0220 458.00 513.94 21.40
12406 72.0270 469.00 513.93 21.66
12407 72.0320 491.00 514.01 22.16
12408 72.0370 488.00 514.17 22.09
12409 72.0420 484.00 514.43 22.00
12410 72.0470 466.00 514.77 21.59
12411 72.0520 460.00 515.21 21.45
12412 72.0570 465.00 515.74 21.56
12413 72.0620 475.00 516.36 21.79
12414 72.0670 485.00 517.07 22.02
12415 72.0720 494.00 517.88 22.23
12416 72.0770 506.00 518.78 22.49
12417 72.0820 502.00 519.79 22.41
12418 72.0870 508.00 520.88 22.54
12419 72.0920 508.00 522.07 22.54
12420 72.0970 516.00 523.37 22.72
12421 72.1020 509.00 524.76 22.56
12422 72.1070 495.00 526.24 22.25
12423 72.1120 471.00 527.83 21.70
12424 72.1170 473.00 529.51 21.75
12425 72.1220 506.00 531.29 22.49
12426 72.1270 512.00 533.18 22.63
12427 72.1320 521.00 535.16 22.83
12428 72.1370 536.00 537.25 23.15
12429 72.1420 544.00 539.42 23.32
12430 72.1470 550.00 541.71 23.45
12431 72.1520 542.00 544.09 23.28
12432 72.1570 518.00 546.56 22.76
12433 72.1620 526.00 549.14 22.93
12434 72.1670 560.00 551.81 23.66
12435 72.1720 571.00 554.58 23.90
12436 72.1770 553.00 557.45 23.52
12437 72.1820 538.00 560.41 23.19
12438 72.1870 554.00 563.47 23.54
12439 72.1920 557.00 566.61 23.60
12440 72.1970 543.00 569.86 23.30
12441 72.2020 541.00 573.19 23.26
12442 72.2070 564.00 576.62 23.75
12443 72.2120 569.00 580.13 23.85
12444 72.2170 561.00 583.73 23.69
12445 72.2220 558.00 587.42 23.62
12446 72.2270 597.00 591.19 24.43
12447 72.2320 622.00 595.03 24.94
12448 72.2370 653.00 598.96 25.55
12449 72.2420 660.00 602.97 25.69
12450 72.2470 658.00 607.05 25.65
12451 72.2520 659.00 611.20 25.67
12452 72.2570 641.00 615.33 25.32
12453 72.2620 653.00 619.62 25.55
12454 72.2670 673.00 623.97 25.94
12455 72.2720 680.00 628.38 26.08
12456 72.2770 684.00 632.85 26.15
12457 72.2820 682.00 637.36 26.12
12458 72.2870 686.00 641.92 26.19
12459 72.2920 725.00 646.54 26.93
12460 72.2970 739.00 651.19 27.18
12461 72.3020 723.00 655.88 26.89
12462 72.3070 726.00 660.61 26.94
12463 72.3120 725.00 665.35 26.93
12464 72.3170 728.00 670.12 26.98
12465 72.3220 742.00 674.92 27.24
12466 72.3270 750.00 679.72 27.39
12467 72.3320 757.00 684.55 27.51
12468 72.3370 756.00 689.36 27.50
12469 72.3420 748.00 694.18 27.35
12470 72.3470 749.00 698.99 27.37
12471 72.3520 768.00 703.79 27.71
12472 72.3570 792.00 708.57 28.14
12473 72.3620 786.00 713.32 28.04
12474 72.3670 790.00 718.04 28.11
12475 72.3720 767.00 722.73 27.69
12476 72.3770 757.00 727.37 27.51
12477 72.3820 765.00 731.96 27.66
12478 72.3870 802.00 736.51 28.32
12479 72.3920 820.00 740.97 28.64
12480 72.3970 802.00 745.38 28.32
12481 72.4020 781.00 749.71 27.95
12482 72.4070 778.00 753.95 27.89
12483 72.4120 796.00 758.10 28.21
12484 72.4170 809.00 762.17 28.44
12485 72.4220 823.00 766.12 28.69
12486 72.4270 830.00 769.96 28.81
12487 72.4320 844.00 773.69 29.05
12488 72.4370 846.00 777.29 29.09
12489 72.4420 849.00 780.76 29.14
12490 72.4470 843.00 784.10 29.03
12491 72.4520 824.00 787.29 28.71
12492 72.4570 837.00 790.34 28.93
12493 72.4620 845.00 793.23 29.07
12494 72.4670 842.00 795.97 29.02
12495 72.4720 865.00 798.55 29.41
12496 72.4770 885.00 800.96 29.75
12497 72.4820 899.00 803.21 29.98
12498 72.4870 887.00 805.28 29.78
12499 72.4920 893.00 807.18 29.88
12500 72.4970 896.00 808.91 29.93
12501 72.5020 877.00 810.47 29.61
12502 72.5070 867.00 811.85 29.44
12503 72.5120 896.00 813.06 29.93
12504 72.5170 923.00 814.09 30.38
12505 72.5220 941.00 814.95 30.68
12506 72.5270 907.00 815.64 30.12
12507 72.5320 880.00 816.15 29.66
12508 72.5370 890.00 816.46 29.83
12509 72.5420 901.00 816.64 30.02
12510 72.5470 905.00 816.66 30.08
12511 72.5520 921.00 816.52 30.35
12512 72.5570 927.00 816.22 30.45
12513 72.5620 919.00 815.77 30.32
12514 72.5670 884.00 815.17 29.73
12515 72.5720 869.00 814.42 29.48
12516 72.5770 869.00 813.52 29.48
12517 72.5820 862.00 812.49 29.36
12518 72.5870 877.00 811.32 29.61
12519 72.5920 884.00 810.01 29.73
12520 72.5970 858.00 808.58 29.29
12521 72.6020 835.00 807.02 28.90
12522 72.6070 817.00 805.34 28.58
12523 72.6120 851.00 803.54 29.17
12524 72.6170 848.00 801.63 29.12
12525 72.6220 829.00 799.60 28.79
12526 72.6270 821.00 797.47 28.65
12527 72.6320 831.00 795.24 28.83
12528 72.6370 853.00 792.90 29.21
12529 72.6420 859.00 790.47 29.31
12530 72.6470 856.00 787.95 29.26
12531 72.6520 830.00 785.33 28.81
12532 72.6570 826.00 782.63 28.74
12533 72.6620 811.00 779.85 28.48
12534 72.6670 804.00 776.97 28.35
12535 72.6720 783.00 774.02 27.98
12536 72.6770 783.00 771.00 27.98
12537 72.6820 768.00 767.89 27.71
12538 72.6870 759.00 764.71 27.55
12539 72.6920 797.00 761.47 28.23
12540 72.6970 806.00 758.15 28.39
12541 72.7020 810.00 754.76 28.46
12542 72.7070 817.00 751.30 28.58
12543 72.7120 799.00 747.79 28.27
12544 72.7170 782.00 744.22 27.96
12545 72.7220 802.00 740.57 28.32
12546 72.7270 806.00 736.88 28.39
12547 72.7320 808.00 733.13 28.43
12548 72.7370 825.00 729.32 28.72
12549 72.7420 842.00 725.46 29.02
12550 72.7470 820.00 721.55 28.64
12551 72.7520 805.00 717.58 28.37
12552 72.7570 792.00 713.58 28.14
12553 72.7620 777.00 711.11 27.87
12554 72.7670 742.00 707.03 27.24
12555 72.7720 749.00 702.91 27.37
12556 72.7770 774.00 698.74 27.82
12557 72.7820 780.00 694.54 27.93
12558 72.7870 761.00 690.32 27.59
12559 72.7920 717.00 686.06 26.78
12560 72.7970 681.00 681.79 26.10
12561 72.8020 690.00 677.50 26.27
12562 72.8070 699.00 673.18 26.44
12563 72.8120 706.00 668.86 26.57
12564 72.8170 705.00 664.53 26.55
12565 72.8220 706.00 660.19 26.57
12566 72.8270 714.00 655.86 26.72
12567 72.8320 700.00 651.42 26.46
12568 72.8370 698.00 647.10 26.42
12569 72.8420 695.00 642.76 26.36
12570 72.8470 684.00 638.45 26.15
12571 72.8520 667.00 634.18 25.83
12572 72.8570 629.00 629.93 25.08
12573 72.8620 615.00 625.70 24.80
12574 72.8670 618.00 621.51 24.86
12575 72.8720 618.00 617.35 24.86
12576 72.8770 666.00 613.23 25.81
12577 72.8820 672.00 609.16 25.92
12578 72.8870 645.00 605.12 25.40
12579 72.8920 608.00 601.15 24.66
12580 72.8970 587.00 597.23 24.23
12581 72.9020 581.00 593.36 24.10
12582 72.9070 608.00 589.55 24.66
12583 72.9120 637.00 585.81 25.24
12584 72.9170 628.00 582.14 25.06
12585 72.9220 583.00 578.53 24.15
12586 72.9270 597.00 575.00 24.43
12587 72.9320 612.00 571.54 24.74
12588 72.9370 597.00 568.16 24.43
12589 72.9420 596.00 564.87 24.41
12590 72.9470 604.00 561.65 24.58
12591 72.9520 619.00 558.52 24.88
12592 72.9570 613.00 555.47 24.76
12593 72.9620 591.00 552.52 24.31
12594 72.9670 589.00 549.66 24.27
12595 72.9720 589.00 546.88 24.27
12596 72.9770 591.00 544.21 24.31
12597 72.9820 554.00 541.63 23.54
12598 72.9870 520.00 539.14 22.80
12599 72.9920 529.00 536.76 23.00
12600 72.9970 572.00 534.47 23.92
12601 73.0020 551.00 532.28 23.47
12602 73.0070 506.00 530.19 22.49
12603 73.0120 514.00 528.21 22.67
12604 73.0170 544.00 526.33 23.32
12605 73.0220 532.00 524.55 23.07
12606 73.0270 518.00 522.88 22.76
12607 73.0320 534.00 521.32 23.11
12608 73.0370 554.00 519.85 23.54
12609 73.0420 559.00 518.50 23.64
12610 73.0470 553.00 517.12 23.52
12611 73.0520 529.00 515.98 23.00
12612 73.0570 498.00 514.94 22.32
12613 73.0620 479.00 514.01 21.89
12614 73.0670 493.00 513.19 22.20
12615 73.0720 490.00 512.47 22.14
12616 73.0770 468.00 511.86 21.63
12617 73.0820 490.00 511.35 22.14
12618 73.0870 476.00 510.95 21.82
12619 73.0920 458.00 510.65 21.40
12620 73.0970 450.00 510.46 21.21
12621 73.1020 436.00 510.38 20.88
12622 73.1070 441.00 510.39 21.00
12623 73.1120 451.00 510.51 21.24
12624 73.1170 461.00 510.73 21.47
12625 73.1220 487.00 511.05 22.07
12626 73.1270 499.00 511.47 22.34
12627 73.1320 499.00 511.99 22.34
12628 73.1370 528.00 512.60 22.98
12629 73.1420 530.00 513.32 23.02
12630 73.1470 530.00 514.12 23.02
12631 73.1520 548.00 515.00 23.41
12632 73.1570 563.00 516.00 23.73
12633 73.1620 577.00 517.08 24.02
12634 73.1670 572.00 518.26 23.92
12635 73.1720 568.00 519.52 23.83
12636 73.1770 539.00 520.86 23.22
12637 73.1820 523.00 522.30 22.87
12638 73.1870 511.00 523.81 22.61
12639 73.1920 514.00 525.40 22.67
12640 73.1970 488.00 527.07 22.09
12641 73.2020 468.00 528.81 21.63
12642 73.2070 485.00 530.63 22.02
12643 73.2120 484.00 532.51 22.00
12644 73.2170 486.00 534.46 22.05
12645 73.2220 505.00 536.48 22.47
12646 73.2270 526.00 538.56 22.93
12647 73.2320 506.00 540.70 22.49
12648 73.2370 517.00 542.89 22.74
12649 73.2420 529.00 545.13 23.00
12650 73.2470 549.00 547.42 23.43
12651 73.2520 555.00 549.76 23.56
12652 73.2570 543.00 552.14 23.30
12653 73.2620 561.00 554.55 23.69
12654 73.2670 586.00 556.99 24.21
12655 73.2720 572.00 559.47 23.92
12656 73.2770 523.00 561.97 22.87
12657 73.2820 509.00 564.48 22.56
12658 73.2870 497.00 567.01 22.29
12659 73.2920 501.00 569.56 22.38
12660 73.2970 507.00 572.10 22.52
12661 73.3020 524.00 574.65 22.89
12662 73.3070 525.00 577.19 22.91
12663 73.3120 527.00 579.72 22.96
12664 73.3170 507.00 582.23 22.52
12665 73.3220 519.00 584.72 22.78
12666 73.3270 541.00 587.18 23.26
12667 73.3320 567.00 589.62 23.81
12668 73.3370 564.00 592.01 23.75
12669 73.3420 567.00 594.35 23.81
12670 73.3470 576.00 596.65 24.00
12671 73.3520 572.00 598.89 23.92
12672 73.3570 565.00 601.06 23.77
12673 73.3620 554.00 603.17 23.54
12674 73.3670 574.00 605.21 23.96
12675 73.3720 592.00 607.16 24.33
12676 73.3770 586.00 609.03 24.21
12677 73.3820 588.00 610.81 24.25
12678 73.3870 589.00 612.50 24.27
12679 73.3920 563.00 614.09 23.73
12680 73.3970 552.00 615.58 23.49
12681 73.4020 551.00 616.89 23.47
12682 73.4070 567.00 618.16 23.81
12683 73.4120 571.00 619.31 23.90
12684 73.4170 580.00 620.35 24.08
12685 73.4220 601.00 621.27 24.52
12686 73.4270 638.00 622.08 25.26
12687 73.4320 639.00 622.76 25.28
12688 73.4370 608.00 623.31 24.66
12689 73.4420 635.00 623.73 25.20
12690 73.4470 629.00 624.04 25.08
12691 73.4520 644.00 624.23 25.38
12692 73.4570 654.00 624.30 25.57
12693 73.4620 641.00 624.24 25.32
12694 73.4670 637.00 624.07 25.24
12695 73.4720 636.00 623.79 25.22
12696 73.4770 626.00 623.39 25.02
12697 73.4820 627.00 622.88 25.04
12698 73.4870 616.00 622.27 24.82
12699 73.4920 611.00 621.55 24.72
12700 73.4970 624.00 620.74 24.98
12701 73.5020 642.00 619.83 25.34
12702 73.5070 644.00 618.84 25.38
12703 73.5120 645.00 617.77 25.40
12704 73.5170 646.00 616.62 25.42
12705 73.5220 623.00 615.39 24.96
12706 73.5270 627.00 614.10 25.04
12707 73.5320 622.00 612.76 24.94
12708 73.5370 622.00 611.35 24.94
12709 73.5420 610.00 609.90 24.70
12710 73.5470 630.00 608.39 25.10
12711 73.5520 639.00 606.86 25.28
12712 73.5570 651.00 605.30 25.51
12713 73.5620 662.00 603.22 25.73
12714 73.5670 644.00 601.61 25.38
12715 73.5720 634.00 599.98 25.18
12716 73.5770 630.00 598.34 25.10
12717 73.5820 630.00 596.71 25.10
12718 73.5870 618.00 595.07 24.86
12719 73.5920 597.00 593.45 24.43
12720 73.5970 590.00 591.83 24.29
12721 73.6020 588.00 590.23 24.25
12722 73.6070 580.00 588.65 24.08
12723 73.6120 567.00 587.09 23.81
12724 73.6170 592.00 585.55 24.33
12725 73.6220 573.00 584.05 23.94
12726 73.6270 570.00 582.59 23.87
12727 73.6320 585.00 581.16 24.19
12728 73.6370 607.00 579.77 24.64
12729 73.6420 609.00 578.43 24.68
12730 73.6470 596.00 577.13 24.41
12731 73.6520 573.00 575.89 23.94
12732 73.6570 554.00 574.69 23.54
12733 73.6620 582.00 573.55 24.12
12734 73.6670 589.00 572.46 24.27
12735 73.6720 566.00 571.43 23.79
12736 73.6770 563.00 570.46 23.73
12737 73.6820 526.00 569.55 22.93
12738 73.6870 527.00 568.70 22.96
12739 73.6920 559.00 567.91 23.64
12740 73.6970 553.00 567.18 23.52
12741 73.7020 562.00 566.52 23.71
12742 73.7070 551.00 565.92 23.47
12743 73.7120 568.00 565.39 23.83
12744 73.7170 562.00 564.91 23.71
12745 73.7220 570.00 564.51 23.87
12746 73.7270 553.00 564.16 23.52
12747 73.7320 523.00 563.88 22.87
12748 73.7370 527.00 563.66 22.96
12749 73.7420 536.00 563.51 23.15
12750 73.7470 552.00 563.41 23.49
12751 73.7520 535.00 563.37 23.13
12752 73.7570 526.00 563.39 22.93
12753 73.7620 561.00 563.47 23.69
12754 73.7670 545.00 563.60 23.35
12755 73.7720 522.00 563.78 22.85
12756 73.7770 530.00 566.71 23.02
12757 73.7820 513.00 567.00 22.65
12758 73.7870 472.00 567.33 21.73
12759 73.7920 466.00 567.31 21.59
12760 73.7970 522.00 567.73 22.85
12761 73.8020 525.00 568.18 22.91
12762 73.8070 513.00 568.67 22.65
12763 73.8120 504.00 569.19 22.45
12764 73.8170 515.00 569.74 22.69
12765 73.8220 530.00 570.31 23.02
12766 73.8270 534.00 570.91 23.11
12767 73.8320 537.00 571.52 23.17
12768 73.8370 544.00 572.14 23.32
12769 73.8420 532.00 572.77 23.07
12770 73.8470 537.00 573.40 23.17
12771 73.8520 559.00 574.04 23.64
12772 73.8570 576.00 574.67 24.00
12773 73.8620 563.00 575.30 23.73
12774 73.8670 585.00 575.91 24.19
12775 73.8720 597.00 576.50 24.43
12776 73.8770 581.00 577.08 24.10
12777 73.8820 581.00 577.63 24.10
12778 73.8870 557.00 578.15 23.60
12779 73.8920 545.00 578.65 23.35
12780 73.8970 540.00 579.10 23.24
12781 73.9020 570.00 579.52 23.87
12782 73.9070 567.00 579.90 23.81
12783 73.9120 563.00 580.23 23.73
12784 73.9170 579.00 580.52 24.06
12785 73.9220 573.00 580.75 23.94
12786 73.9270 568.00 580.94 23.83
12787 73.9320 583.00 581.07 24.15
12788 73.9370 607.00 581.15 24.64
12789 73.9420 611.00 581.17 24.72
12790 73.9470 578.00 581.14 24.04
12791 73.9520 555.00 581.06 23.56
12792 73.9570 534.00 580.92 23.11
12793 73.9620 537.00 580.72 23.17
12794 73.9670 531.00 580.47 23.04
12795 73.9720 525.00 580.17 22.91
12796 73.9770 537.00 579.82 23.17
12797 73.9820 541.00 579.42 23.26
12798 73.9870 535.00 578.97 23.13
12799 73.9920 551.00 578.48 23.47
12800 73.9970 551.00 577.94 23.47
12801 74.0020 547.00 577.36 23.39
12802 74.0070 548.00 576.75 23.41
12803 74.0120 559.00 576.10 23.64
12804 74.0170 558.00 575.42 23.62
12805 74.0220 565.00 574.72 23.77
12806 74.0270 566.00 573.98 23.79
12807 74.0320 579.00 573.23 24.06
12808 74.0370 592.00 572.46 24.33
12809 74.0420 597.00 571.67 24.43
12810 74.0470 594.00 570.87 24.37
12811 74.0520 607.00 570.07 24.64
12812 74.0570 581.00 569.25 24.10
12813 74.0620 575.00 568.43 23.98
12814 74.0670 566.00 567.61 23.79
12815 74.0720 565.00 566.80 23.77
12816 74.0770 568.00 565.99 23.83
12817 74.0820 611.00 565.19 24.72
12818 74.0870 631.00 564.40 25.12
12819 74.0920 603.00 563.62 24.56
12820 74.0970 587.00 562.86 24.23
12821 74.1020 587.00 562.12 24.23
12822 74.1070 550.00 561.40 23.45
12823 74.1120 517.00 560.70 22.74
12824 74.1170 522.00 560.03 22.85
12825 74.1220 551.00 559.38 23.47
12826 74.1270 581.00 558.76 24.10
12827 74.1320 562.00 558.17 23.71
12828 74.1370 563.00 557.61 23.73
12829 74.1420 572.00 557.09 23.92
12830 74.1470 565.00 556.60 23.77
12831 74.1520 605.00 556.15 24.60
12832 74.1570 581.00 555.73 24.10
12833 74.1620 557.00 555.36 23.60
12834 74.1670 555.00 555.02 23.56
12835 74.1720 575.00 554.72 23.98
12836 74.1770 631.00 554.47 25.12
12837 74.1820 635.00 554.26 25.20
12838 74.1870 573.00 554.09 23.94
12839 74.1920 579.00 553.97 24.06
12840 74.1970 586.00 553.89 24.21
12841 74.2020 589.00 553.86 24.27
12842 74.2070 582.00 553.87 24.12
12843 74.2120 595.00 553.93 24.39
12844 74.2170 611.00 554.04 24.72
12845 74.2220 606.00 554.20 24.62
12846 74.2270 614.00 554.41 24.78
12847 74.2320 642.00 554.66 25.34
12848 74.2370 623.00 554.96 24.96
12849 74.2420 619.00 555.32 24.88
12850 74.2470 615.00 555.72 24.80
12851 74.2520 586.00 556.17 24.21
12852 74.2570 593.00 556.67 24.35
12853 74.2620 582.00 557.23 24.12
12854 74.2670 601.00 557.93 24.52
12855 74.2720 594.00 558.59 24.37
12856 74.2770 566.00 559.29 23.79
12857 74.2820 548.00 560.04 23.41
12858 74.2870 546.00 560.84 23.37
12859 74.2920 545.00 561.69 23.35
12860 74.2970 520.00 562.59 22.80
12861 74.3020 525.00 563.54 22.91
12862 74.3070 547.00 564.54 23.39
12863 74.3120 560.00 565.59 23.66
12864 74.3170 544.00 566.68 23.32
12865 74.3220 556.00 567.82 23.58
12866 74.3270 562.00 569.01 23.71
12867 74.3320 582.00 570.24 24.12
12868 74.3370 568.00 571.51 23.83
12869 74.3420 597.00 572.83 24.43
12870 74.3470 605.00 574.19 24.60
12871 74.3520 604.00 575.60 24.58
12872 74.3570 583.00 577.04 24.15
12873 74.3620 580.00 578.53 24.08
12874 74.3670 586.00 580.05 24.21
12875 74.3720 566.00 581.60 23.79
12876 74.3770 559.00 583.20 23.64
12877 74.3820 595.00 584.82 24.39
12878 74.3870 569.00 586.48 23.85
12879 74.3920 569.00 588.17 23.85
12880 74.3970 571.00 589.89 23.90
12881 74.4020 559.00 591.63 23.64
12882 74.4070 574.00 593.39 23.96
12883 74.4120 555.00 595.18 23.56
12884 74.4170 571.00 596.99 23.90
12885 74.4220 543.00 598.82 23.30
12886 74.4270 558.00 600.66 23.62
12887 74.4320 586.00 602.51 24.21
12888 74.4370 623.00 604.37 24.96
12889 74.4420 638.00 606.25 25.26
12890 74.4470 628.00 608.12 25.06
12891 74.4520 617.00 610.00 24.84
12892 74.4570 598.00 611.88 24.45
12893 74.4620 599.00 613.76 24.47
12894 74.4670 600.00 615.62 24.49
12895 74.4720 586.00 617.48 24.21
12896 74.4770 580.00 619.33 24.08
12897 74.4820 577.00 621.16 24.02
12898 74.4870 581.00 622.98 24.10
12899 74.4920 578.00 624.77 24.04
12900 74.4970 576.00 626.54 24.00
12901 74.5020 588.00 628.95 24.25
12902 74.5070 586.00 630.61 24.21
12903 74.5120 597.00 632.29 24.43
12904 74.5170 592.00 633.93 24.33
12905 74.5220 573.00 635.52 23.94
12906 74.5270 601.00 637.17 24.52
12907 74.5320 594.00 638.67 24.37
12908 74.5370 593.00 640.12 24.35
12909 74.5420 610.00 641.52 24.70
12910 74.5470 610.00 642.85 24.70
12911 74.5520 622.00 644.12 24.94
12912 74.5570 601.00 645.33 24.52
12913 74.5620 590.00 646.46 24.29
12914 74.5670 604.00 647.51 24.58
12915 74.5720 612.00 648.49 24.74
12916 74.5770 618.00 649.38 24.86
12917 74.5820 618.00 650.19 24.86
12918 74.5870 598.00 650.91 24.45
12919 74.5920 607.00 651.53 24.64
12920 74.5970 583.00 652.06 24.15
12921 74.6020 605.00 652.48 24.60
12922 74.6070 595.00 652.80 24.39
12923 74.6120 573.00 653.02 23.94
12924 74.6170 576.00 653.12 24.00
12925 74.6220 598.00 653.11 24.45
12926 74.6270 589.00 652.99 24.27
12927 74.6320 601.00 652.75 24.52
12928 74.6370 637.00 652.40 25.24
12929 74.6420 602.00 651.92 24.54
12930 74.6470 658.00 651.33 25.65
12931 74.6520 649.00 650.61 25.48
12932 74.6570 612.00 649.78 24.74
12933 74.6620 609.00 648.83 24.68
12934 74.6670 626.00 647.75 25.02
12935 74.6720 620.00 646.56 24.90
12936 74.6770 629.00 645.25 25.08
12937 74.6820 567.00 643.83 23.81
12938 74.6870 545.00 642.30 23.35
12939 74.6920 559.00 640.66 23.64
12940 74.6970 547.00 638.91 23.39
12941 74.7020 561.00 637.07 23.69
12942 74.7070 607.00 635.12 24.64
12943 74.7120 600.00 633.08 24.49
12944 74.7170 563.00 630.95 23.73
12945 74.7220 585.00 628.73 24.19
12946 74.7270 600.00 626.44 24.49
12947 74.7320 590.00 624.08 24.29
12948 74.7370 587.00 621.64 24.23
12949 74.7420 568.00 619.14 23.83
12950 74.7470 548.00 616.58 23.41
12951 74.7520 576.00 613.97 24.00
12952 74.7570 576.00 611.32 24.00
12953 74.7620 542.00 608.61 23.28
12954 74.7670 576.00 605.88 24.00
12955 74.7720 591.00 603.12 24.31
12956 74.7770 588.00 600.32 24.25
12957 74.7820 604.00 597.52 24.58
12958 74.7870 586.00 594.70 24.21
12959 74.7920 589.00 591.86 24.27
12960 74.7970 589.00 590.35 24.27
12961 74.8020 580.00 587.52 24.08
12962 74.8070 554.00 584.69 23.54
12963 74.8120 563.00 581.87 23.73
12964 74.8170 584.00 579.08 24.17
12965 74.8220 590.00 576.29 24.29
12966 74.8270 594.00 573.53 24.37
12967 74.8320 575.00 570.80 23.98
12968 74.8370 587.00 568.10 24.23
12969 74.8420 591.00 565.43 24.31
12970 74.8470 601.00 562.80 24.52
12971 74.8520 580.00 560.22 24.08
12972 74.8570 582.00 557.67 24.12
12973 74.8620 540.00 555.17 23.24
12974 74.8670 534.00 552.35 23.11
12975 74.8720 520.00 549.96 22.80
12976 74.8770 529.00 547.61 23.00
12977 74.8820 515.00 545.32 22.69
12978 74.8870 530.00 542.99 23.02
12979 74.8920 503.00 540.82 22.43
12980 74.8970 531.00 538.71 23.04
12981 74.9020 519.00 535.22 22.78
12982 74.9070 525.00 533.24 22.91
12983 74.9120 523.00 531.33 22.87
12984 74.9170 510.00 529.48 22.58
12985 74.9220 517.00 527.70 22.74
12986 74.9270 487.00 525.99 22.07
12987 74.9320 459.00 524.35 21.42
12988 74.9370 457.00 522.78 21.38
12989 74.9420 493.00 521.28 22.20
12990 74.9470 521.00 519.85 22.83
12991 74.9520 517.00 518.49 22.74
12992 74.9570 503.00 517.20 22.43
12993 74.9620 496.00 515.99 22.27
12994 74.9670 491.00 514.85 22.16
12995 74.9720 491.00 513.78 22.16
12996 74.9770 506.00 512.78 22.49
12997 74.9820 517.00 511.85 22.74
12998 74.9870 542.00 510.99 23.28
12999 74.9920 533.00 510.21 23.09
13000 74.9970 525.00 509.49 22.91
13001 75.0020 520.00 508.85 22.80
13002 75.0070 508.00 508.27 22.54
13003 75.0120 524.00 507.77 22.89
13004 75.0170 545.00 507.33 23.35
13005 75.0220 551.00 507.34 23.47
13006 75.0270 556.00 507.03 23.58
13007 75.0320 547.00 506.79 23.39
13008 75.0370 540.00 506.61 23.24
13009 75.0420 540.00 506.50 23.24
13010 75.0470 525.00 506.45 22.91
13011 75.0520 522.00 506.45 22.85
13012 75.0570 536.00 506.52 23.15
13013 75.0620 549.00 506.64 23.43
13014 75.0670 559.00 506.84 23.64
13015 75.0720 558.00 507.07 23.62
13016 75.0770 531.00 507.36 23.04
13017 75.0820 524.00 507.61 22.89
13018 75.0870 528.00 507.93 22.98
13019 75.0920 543.00 508.36 23.30
13020 75.0970 502.00 508.84 22.41
13021 75.1020 511.00 509.36 22.61
13022 75.1070 499.00 509.92 22.34
13023 75.1120 515.00 510.52 22.69
13024 75.1170 524.00 511.15 22.89
13025 75.1220 532.00 511.82 23.07
13026 75.1270 539.00 512.56 23.22
13027 75.1320 518.00 513.29 22.76
13028 75.1370 543.00 514.05 23.30
13029 75.1420 536.00 514.83 23.15
13030 75.1470 533.00 515.64 23.09
13031 75.1520 516.00 516.46 22.72
13032 75.1570 533.00 517.31 23.09
13033 75.1620 555.00 518.16 23.56
13034 75.1670 579.00 519.03 24.06
13035 75.1720 578.00 519.91 24.04
13036 75.1770 553.00 520.79 23.52
13037 75.1820 555.00 521.68 23.56
13038 75.1870 584.00 522.57 24.17
13039 75.1920 586.00 523.45 24.21
13040 75.1970 587.00 524.34 24.23
13041 75.2020 591.00 525.21 24.31
13042 75.2070 550.00 526.08 23.45
13043 75.2120 525.00 526.93 22.91
13044 75.2170 540.00 527.77 23.24
13045 75.2220 553.00 528.59 23.52
13046 75.2270 558.00 529.36 23.62
13047 75.2320 560.00 530.14 23.66
13048 75.2370 572.00 530.90 23.92
13049 75.2420 565.00 531.63 23.77
13050 75.2470 588.00 532.34 24.25
13051 75.2520 616.00 533.01 24.82
13052 75.2570 608.00 533.65 24.66
13053 75.2620 621.00 534.26 24.92
13054 75.2670 600.00 534.84 24.49
13055 75.2720 580.00 535.38 24.08
13056 75.2770 587.00 535.88 24.23
13057 75.2820 580.00 536.35 24.08
13058 75.2870 590.00 536.78 24.29
13059 75.2920 601.00 537.17 24.52
13060 75.2970 613.00 537.52 24.76
13061 75.3020 603.00 537.83 24.56
13062 75.3070 575.00 538.10 23.98
13063 75.3120 559.00 538.34 23.64
13064 75.3170 536.00 538.53 23.15
13065 75.3220 574.00 538.69 23.96
13066 75.3270 606.00 539.04 24.62
13067 75.3320 616.00 539.13 24.82
13068 75.3370 608.00 539.18 24.66
13069 75.3420 633.00 539.20 25.16
13070 75.3470 630.00 539.18 25.10
13071 75.3520 634.00 539.14 25.18
13072 75.3570 653.00 539.07 25.55
13073 75.3620 647.00 538.97 25.44
13074 75.3670 624.00 538.84 24.98
13075 75.3720 618.00 538.70 24.86
13076 75.3770 609.00 538.53 24.68
13077 75.3820 576.00 538.35 24.00
13078 75.3870 579.00 538.15 24.06
13079 75.3920 567.00 537.93 23.81
13080 75.3970 557.00 537.71 23.60
13081 75.4020 567.00 537.47 23.81
13082 75.4070 576.00 537.23 24.00
13083 75.4120 552.00 536.99 23.49
13084 75.4170 556.00 536.71 23.58
13085 75.4220 596.00 536.47 24.41
13086 75.4270 592.00 536.24 24.33
13087 75.4320 564.00 536.01 23.75
13088 75.4370 578.00 535.79 24.04
13089 75.4420 576.00 535.59 24.00
13090 75.4470 556.00 535.40 23.58
13091 75.4520 572.00 535.23 23.92
13092 75.4570 588.00 535.08 24.25
13093 75.4620 573.00 534.95 23.94
13094 75.4670 563.00 534.85 23.73
13095 75.4720 555.00 534.78 23.56
13096 75.4770 549.00 534.73 23.43
13097 75.4820 541.00 534.72 23.26
13098 75.4870 544.00 534.74 23.32
13099 75.4920 538.00 534.80 23.19
13100 75.4970 548.00 534.90 23.41
13101 75.5020 562.00 535.04 23.71
13102 75.5070 550.00 535.22 23.45
13103 75.5120 568.00 535.44 23.83
13104 75.5170 546.00 535.72 23.37
13105 75.5220 524.00 536.03 22.89
13106 75.5270 525.00 536.40 22.91
13107 75.5320 526.00 536.82 22.93
13108 75.5370 550.00 537.29 23.45
13109 75.5420 581.00 537.82 24.10
13110 75.5470 570.00 538.40 23.87
13111 75.5520 577.00 539.04 24.02
13112 75.5570 590.00 539.73 24.29
13113 75.5620 600.00 540.48 24.49
13114 75.5670 591.00 541.29 24.31
13115 75.5720 578.00 542.16 24.04
13116 75.5770 552.00 543.09 23.49
13117 75.5820 533.00 544.08 23.09
13118 75.5870 537.00 545.14 23.17
13119 75.5920 528.00 546.25 22.98
13120 75.5970 538.00 547.43 23.19
13121 75.6020 554.00 548.66 23.54
13122 75.6070 551.00 549.96 23.47
13123 75.6120 543.00 551.32 23.30
13124 75.6170 541.00 552.75 23.26
13125 75.6220 525.00 554.23 22.91
13126 75.6270 505.00 555.78 22.47
13127 75.6320 538.00 557.38 23.19
13128 75.6370 562.00 559.05 23.71
13129 75.6420 528.00 560.77 22.98
13130 75.6470 505.00 562.55 22.47
13131 75.6520 511.00 564.39 22.61
13132 75.6570 517.00 566.28 22.74
13133 75.6620 530.00 568.22 23.02
13134 75.6670 550.00 570.22 23.45
13135 75.6720 571.00 572.27 23.90
13136 75.6770 572.00 574.36 23.92
13137 75.6820 542.00 576.51 23.28
13138 75.6870 525.00 578.69 22.91
13139 75.6920 540.00 581.60 23.24
13140 75.6970 539.00 583.88 23.22
13141 75.7020 544.00 586.18 23.32
13142 75.7070 551.00 588.52 23.47
13143 75.7120 564.00 590.89 23.75
13144 75.7170 573.00 593.28 23.94
13145 75.7220 583.00 595.71 24.15
13146 75.7270 611.00 598.15 24.72
13147 75.7320 596.00 600.61 24.41
13148 75.7370 582.00 603.09 24.12
13149 75.7420 544.00 605.58 23.32
13150 75.7470 520.00 608.07 22.80
13151 75.7520 547.00 610.58 23.39
13152 75.7570 587.00 613.08 24.23
13153 75.7620 615.00 615.58 24.80
13154 75.7670 599.00 618.07 24.47
13155 75.7720 588.00 620.55 24.25
13156 75.7770 592.00 623.02 24.33
13157 75.7820 599.00 625.46 24.47
13158 75.7870 607.00 627.89 24.64
13159 75.7920 608.00 630.29 24.66
13160 75.7970 596.00 632.66 24.41
13161 75.8020 583.00 635.00 24.15
13162 75.8070 590.00 637.31 24.29
13163 75.8120 602.00 639.57 24.54
13164 75.8170 622.00 641.79 24.94
13165 75.8220 627.00 643.97 25.04
13166 75.8270 616.00 646.09 24.82
13167 75.8320 603.00 648.17 24.56
13168 75.8370 596.00 650.19 24.41
13169 75.8420 611.00 652.14 24.72
13170 75.8470 630.00 654.04 25.10
13171 75.8520 627.00 655.88 25.04
13172 75.8570 623.00 657.64 24.96
13173 75.8620 614.00 659.34 24.78
13174 75.8670 614.00 660.97 24.78
13175 75.8720 610.00 662.52 24.70
13176 75.8770 608.00 663.99 24.66
13177 75.8820 620.00 665.39 24.90
13178 75.8870 637.00 666.71 25.24
13179 75.8920 635.00 667.93 25.20
13180 75.8970 616.00 669.08 24.82
13181 75.9020 600.00 670.14 24.49
13182 75.9070 612.00 671.11 24.74
13183 75.9120 630.00 671.98 25.10
13184 75.9170 635.00 672.77 25.20
13185 75.9220 652.00 673.45 25.53
13186 75.9270 651.00 674.04 25.51
13187 75.9320 649.00 674.53 25.48
13188 75.9370 654.00 674.92 25.57
13189 75.9420 665.00 675.31 25.79
13190 75.9470 680.00 675.50 26.08
13191 75.9520 650.00 675.58 25.50
13192 75.9570 637.00 675.55 25.24
13193 75.9620 649.00 675.42 25.48
13194 75.9670 658.00 675.19 25.65
13195 75.9720 677.00 674.84 26.02
13196 75.9770 672.00 674.39 25.92
13197 75.9820 644.00 673.84 25.38
13198 75.9870 633.00 673.17 25.16
13199 75.9920 654.00 672.41 25.57
13200 75.9970 689.00 671.54 26.25
13201 76.0020 684.00 670.57 26.15
13202 76.0070 667.00 669.49 25.83
13203 76.0120 672.00 668.32 25.92
13204 76.0170 667.00 667.06 25.83
13205 76.0220 657.00 665.70 25.63
13206 76.0270 655.00 664.25 25.59
13207 76.0320 648.00 662.72 25.46
13208 76.0370 637.00 661.11 25.24
13209 76.0420 641.00 659.48 25.32
13210 76.0470 641.00 657.72 25.32
13211 76.0520 629.00 655.89 25.08
13212 76.0570 628.00 653.99 25.06
13213 76.0620 631.00 652.04 25.12
13214 76.0670 623.00 650.04 24.96
13215 76.0720 615.00 647.98 24.80
13216 76.0770 607.00 645.88 24.64
13217 76.0820 606.00 643.75 24.62
13218 76.0870 604.00 641.59 24.58
13219 76.0920 598.00 639.40 24.45
13220 76.0970 588.00 637.19 24.25
13221 76.1020 579.00 634.96 24.06
13222 76.1070 583.00 632.73 24.15
13223 76.1120 593.00 630.49 24.35
13224 76.1170 570.00 628.26 23.87
13225 76.1220 565.00 626.03 23.77
13226 76.1270 569.00 623.81 23.85
13227 76.1320 582.00 621.61 24.12
13228 76.1370 588.00 619.43 24.25
13229 76.1420 593.00 617.60 24.35
13230 76.1470 591.00 615.48 24.31
13231 76.1520 589.00 613.39 24.27
13232 76.1570 566.00 611.35 23.79
13233 76.1620 537.00 609.35 23.17
13234 76.1670 526.00 607.39 22.93
13235 76.1720 552.00 605.49 23.49
13236 76.1770 546.00 603.64 23.37
13237 76.1820 528.00 601.85 22.98
13238 76.1870 532.00 600.12 23.07
13239 76.1920 537.00 598.46 23.17
13240 76.1970 541.00 596.85 23.26
13241 76.2020 547.00 595.33 23.39
13242 76.2070 543.00 593.87 23.30
13243 76.2120 555.00 592.49 23.56
13244 76.2170 570.00 591.22 23.87
13245 76.2220 558.00 589.99 23.62
13246 76.2270 528.00 588.84 22.98
13247 76.2320 540.00 587.78 23.24
13248 76.2370 561.00 586.81 23.69
13249 76.2420 579.00 585.92 24.06
13250 76.2470 586.00 585.12 24.21
13251 76.2520 544.00 584.40 23.32
13252 76.2570 513.00 583.78 22.65
13253 76.2620 515.00 583.25 22.69
13254 76.2670 525.00 582.82 22.91
13255 76.2720 544.00 582.48 23.32
13256 76.2770 540.00 582.23 23.24
13257 76.2820 550.00 582.08 23.45
13258 76.2870 552.00 582.03 23.49
13259 76.2920 564.00 582.07 23.75
13260 76.2970 564.00 582.21 23.75
13261 76.3020 559.00 582.45 23.64
13262 76.3070 544.00 582.79 23.32
13263 76.3120 542.00 583.23 23.28
13264 76.3170 545.00 583.76 23.35
13265 76.3220 560.00 584.40 23.66
13266 76.3270 559.00 585.14 23.64
13267 76.3320 538.00 585.97 23.19
13268 76.3370 543.00 586.86 23.30
13269 76.3420 567.00 587.90 23.81
13270 76.3470 560.00 589.04 23.66
13271 76.3520 532.00 590.27 23.07
13272 76.3570 525.00 591.60 22.91
13273 76.3620 545.00 593.04 23.35
13274 76.3670 551.00 594.57 23.47
13275 76.3720 548.00 596.21 23.41
13276 76.3770 563.00 597.94 23.73
13277 76.3820 580.00 599.76 24.08
13278 76.3870 559.00 601.68 23.64
13279 76.3920 559.00 603.69 23.64
13280 76.3970 562.00 605.80 23.71
13281 76.4020 580.00 608.01 24.08
13282 76.4070 573.00 610.30 23.94
13283 76.4120 557.00 612.69 23.60
13284 76.4170 549.00 615.17 23.43
13285 76.4220 555.00 617.74 23.56
13286 76.4270 555.00 620.39 23.56
13287 76.4320 573.00 623.14 23.94
13288 76.4370 586.00 625.98 24.21
13289 76.4420 607.00 628.90 24.64
13290 76.4470 569.00 631.90 23.85
13291 76.4520 546.00 634.98 23.37
13292 76.4570 546.00 638.15 23.37
13293 76.4620 540.00 641.40 23.24
13294 76.4670 563.00 644.72 23.73
13295 76.4720 584.00 648.12 24.17
13296 76.4770 583.00 651.59 24.15
13297 76.4820 606.00 655.14 24.62
13298 76.4870 615.00 658.77 24.80
13299 76.4920 594.00 662.45 24.37
13300 76.4970 577.00 666.20 24.02
13301 76.5020 588.00 670.03 24.25
13302 76.5070 590.00 673.91 24.29
13303 76.5120 582.00 677.85 24.12
13304 76.5170 568.00 681.85 23.83
13305 76.5220 586.00 685.91 24.21
13306 76.5270 590.00 690.02 24.29
13307 76.5320 606.00 694.18 24.62
13308 76.5370 631.00 698.39 25.12
13309 76.5420 654.00 702.65 25.57
13310 76.5470 678.00 706.63 26.04
13311 76.5520 672.00 710.97 25.92
13312 76.5570 690.00 715.34 26.27
13313 76.5620 701.00 719.76 26.48
13314 76.5670 677.00 724.20 26.02
13315 76.5720 673.00 728.67 25.94
13316 76.5770 664.00 733.17 25.77
13317 76.5820 671.00 737.70 25.90
13318 76.5870 682.00 742.44 26.12
13319 76.5920 680.00 747.00 26.08
13320 76.5970 670.00 751.59 25.88
13321 76.6020 689.00 756.16 26.25
13322 76.6070 697.00 760.76 26.40
13323 76.6120 711.00 765.37 26.66
13324 76.6170 705.00 769.97 26.55
13325 76.6220 681.00 774.58 26.10
13326 76.6270 691.00 779.20 26.29
13327 76.6320 726.00 783.80 26.94
13328 76.6370 741.00 788.40 27.22
13329 76.6420 745.00 793.00 27.29
13330 76.6470 737.00 797.57 27.15
13331 76.6520 770.00 802.15 27.75
13332 76.6570 791.00 806.72 28.12
13333 76.6620 802.00 811.27 28.32
13334 76.6670 801.00 815.82 28.30
13335 76.6720 805.00 820.35 28.37
13336 76.6770 801.00 824.87 28.30
13337 76.6820 781.00 829.37 27.95
13338 76.6870 761.00 833.87 27.59
13339 76.6920 785.00 838.35 28.02
13340 76.6970 830.00 842.82 28.81
13341 76.7020 830.00 847.28 28.81
13342 76.7070 820.00 851.74 28.64
13343 76.7120 822.00 856.19 28.67
13344 76.7170 819.00 860.63 28.62
13345 76.7220 836.00 865.07 28.91
13346 76.7270 847.00 869.51 29.10
13347 76.7320 868.00 873.95 29.46
13348 76.7370 872.00 878.40 29.53
13349 76.7420 869.00 882.86 29.48
13350 76.7470 870.00 887.32 29.50
13351 76.7520 861.00 891.80 29.34
13352 76.7570 875.00 896.30 29.58
13353 76.7620 887.00 900.82 29.78
13354 76.7670 889.00 905.36 29.82
13355 76.7720 902.00 909.94 30.03
13356 76.7770 913.00 914.54 30.22
13357 76.7820 937.00 919.18 30.61
13358 76.7870 962.00 923.86 31.02
13359 76.7920 938.00 927.90 30.63
13360 76.7970 932.00 932.67 30.53
13361 76.8020 948.00 937.49 30.79
13362 76.8070 927.00 942.38 30.45
13363 76.8120 933.00 946.83 30.55
13364 76.8170 946.00 951.83 30.76
13365 76.8220 967.00 956.89 31.10
13366 76.8270 939.00 962.02 30.64
13367 76.8320 924.00 967.22 30.40
13368 76.8370 933.00 972.50 30.55
13369 76.8420 960.00 977.84 30.98
13370 76.8470 968.00 983.28 31.11
13371 76.8520 944.00 989.57 30.72
13372 76.8570 941.00 995.16 30.68
13373 76.8620 984.00 1000.86 31.37
13374 76.8670 996.00 1006.63 31.56
13375 76.8720 971.00 1012.60 31.16
13376 76.8770 963.00 1018.57 31.03
13377 76.8820 997.00 1024.63 31.58
13378 76.8870 997.00 1030.79 31.58
13379 76.8920 971.00 1037.03 31.16
13380 76.8970 975.00 1043.38 31.23
13381 76.9020 982.00 1049.84 31.34
13382 76.9070 985.00 1056.38 31.38
13383 76.9120 999.00 1063.04 31.61
13384 76.9170 1046.00 1069.80 32.34
13385 76.9220 1033.00 1076.64 32.14
13386 76.9270 1013.00 1083.60 31.83
13387 76.9320 1015.00 1090.66 31.86
13388 76.9370 1034.00 1097.81 32.16
13389 76.9420 1074.00 1105.07 32.77
13390 76.9470 1085.00 1112.43 32.94
13391 76.9520 1067.00 1119.88 32.67
13392 76.9570 1049.00 1127.44 32.39
13393 76.9620 1090.00 1135.08 33.02
13394 76.9670 1115.00 1142.81 33.39
13395 76.9720 1108.00 1150.66 33.29
13396 76.9770 1093.00 1158.58 33.06
13397 76.9820 1108.00 1166.58 33.29
13398 76.9870 1122.00 1174.68 33.50
13399 76.9920 1130.00 1182.85 33.62
13400 76.9970 1148.00 1191.10 33.88
13401 77.0020 1154.00 1199.43 33.97
13402 77.0070 1143.00 1207.83 33.81
13403 77.0120 1162.00 1216.31 34.09
13404 77.0170 1203.00 1224.83 34.68
13405 77.0220 1232.00 1233.43 35.10
13406 77.0270 1218.00 1242.08 34.90
13407 77.0320 1202.00 1250.77 34.67
13408 77.0370 1212.00 1259.51 34.81
13409 77.0420 1227.00 1268.31 35.03
13410 77.0470 1233.00 1277.12 35.11
13411 77.0520 1247.00 1285.97 35.31
13412 77.0570 1244.00 1294.85 35.27
13413 77.0620 1265.00 1303.73 35.57
13414 77.0670 1287.00 1312.64 35.87
13415 77.0720 1279.00 1321.56 35.76
13416 77.0770 1269.00 1330.46 35.62
13417 77.0820 1277.00 1339.38 35.74
13418 77.0870 1305.00 1348.27 36.12
13419 77.0920 1314.00 1357.14 36.25
13420 77.0970 1345.00 1366.00 36.67
13421 77.1020 1390.00 1374.82 37.28
13422 77.1070 1406.00 1383.60 37.50
13423 77.1120 1411.00 1391.98 37.56
13424 77.1170 1422.00 1400.66 37.71
13425 77.1220 1417.00 1409.29 37.64
13426 77.1270 1444.00 1417.85 38.00
13427 77.1320 1449.00 1426.34 38.07
13428 77.1370 1408.00 1434.76 37.52
13429 77.1420 1389.00 1443.08 37.27
13430 77.1470 1400.00 1451.31 37.42
13431 77.1520 1427.00 1459.46 37.78
13432 77.1570 1451.00 1467.48 38.09
13433 77.1620 1462.00 1475.40 38.24
13434 77.1670 1465.00 1483.22 38.28
13435 77.1720 1471.00 1490.88 38.35
13436 77.1770 1490.00 1498.16 38.60
13437 77.1820 1525.00 1505.58 39.05
13438 77.1870 1577.00 1512.83 39.71
13439 77.1920 1587.00 1519.94 39.84
13440 77.1970 1561.00 1526.89 39.51
13441 77.2020 1542.00 1533.67 39.27
13442 77.2070 1528.00 1540.26 39.09
13443 77.2120 1523.00 1546.66 39.03
13444 77.2170 1529.00 1552.85 39.10
13445 77.2220 1532.00 1558.83 39.14
13446 77.2270 1540.00 1564.59 39.24
13447 77.2320 1590.00 1570.60 39.87
13448 77.2370 1647.00 1575.85 40.58
13449 77.2420 1655.00 1580.83 40.68
13450 77.2470 1652.00 1585.52 40.64
13451 77.2520 1657.00 1589.90 40.71
13452 77.2570 1672.00 1593.95 40.89
13453 77.2620 1659.00 1597.66 40.73
13454 77.2670 1658.00 1600.99 40.72
13455 77.2720 1657.00 1603.95 40.71
13456 77.2770 1642.00 1606.51 40.52
13457 77.2820 1616.00 1608.66 40.20
13458 77.2870 1578.00 1610.38 39.72
13459 77.2920 1577.00 1611.66 39.71
13460 77.2970 1633.00 1612.50 40.41
13461 77.3020 1691.00 1612.90 41.12
13462 77.3070 1688.00 1612.86 41.09
13463 77.3120 1650.00 1612.37 40.62
13464 77.3170 1616.00 1611.47 40.20
13465 77.3220 1585.00 1610.14 39.81
13466 77.3270 1583.00 1608.41 39.79
13467 77.3320 1605.00 1606.30 40.06
13468 77.3370 1617.00 1603.83 40.21
13469 77.3420 1626.00 1601.01 40.32
13470 77.3470 1636.00 1597.88 40.45
13471 77.3520 1630.00 1594.44 40.37
13472 77.3570 1632.00 1590.74 40.40
13473 77.3620 1634.00 1586.77 40.42
13474 77.3670 1653.00 1582.58 40.66
13475 77.3720 1653.00 1578.17 40.66
13476 77.3770 1616.00 1573.56 40.20
13477 77.3820 1598.00 1568.78 39.97
13478 77.3870 1604.00 1563.82 40.05
13479 77.3920 1614.00 1558.73 40.17
13480 77.3970 1599.00 1553.50 39.99
13481 77.4020 1577.00 1548.13 39.71
13482 77.4070 1561.00 1542.65 39.51
13483 77.4120 1541.00 1537.07 39.26
13484 77.4170 1557.00 1531.38 39.46
13485 77.4220 1596.00 1525.61 39.95
13486 77.4270 1603.00 1519.76 40.04
13487 77.4320 1579.00 1513.82 39.74
13488 77.4370 1553.00 1507.81 39.41
13489 77.4420 1550.00 1501.75 39.37
13490 77.4470 1548.00 1495.60 39.34
13491 77.4520 1536.00 1489.41 39.19
13492 77.4570 1529.00 1483.16 39.10
13493 77.4620 1495.00 1476.87 38.67
13494 77.4670 1474.00 1470.52 38.39
13495 77.4720 1470.00 1464.13 38.34
13496 77.4770 1446.00 1457.72 38.03
13497 77.4820 1437.00 1451.26 37.91
13498 77.4870 1440.00 1444.76 37.95
13499 77.4920 1446.00 1438.25 38.03
13500 77.4970 1447.00 1431.70 38.04
13501 77.5020 1431.00 1425.12 37.83
13502 77.5070 1417.00 1418.54 37.64
13503 77.5120 1403.00 1411.93 37.46
13504 77.5170 1394.00 1405.31 37.34
13505 77.5220 1392.00 1398.69 37.31
13506 77.5270 1398.00 1392.04 37.39
13507 77.5320 1416.00 1385.40 37.63
13508 77.5370 1391.00 1378.77 37.30
13509 77.5420 1359.00 1372.12 36.86
13510 77.5470 1361.00 1365.49 36.89
13511 77.5520 1339.00 1358.87 36.59
13512 77.5570 1323.00 1352.25 36.37
13513 77.5620 1328.00 1345.66 36.44
13514 77.5670 1332.00 1339.09 36.50
13515 77.5720 1330.00 1332.53 36.47
13516 77.5770 1310.00 1326.00 36.19
13517 77.5820 1281.00 1319.38 35.79
13518 77.5870 1270.00 1312.93 35.64
13519 77.5920 1275.00 1306.51 35.71
13520 77.5970 1279.00 1300.12 35.76
13521 77.6020 1272.00 1293.79 35.67
13522 77.6070 1272.00 1287.50 35.67
13523 77.6120 1274.00 1281.26 35.69
13524 77.6170 1259.00 1275.10 35.48
13525 77.6220 1253.00 1268.98 35.40
13526 77.6270 1240.00 1262.93 35.21
13527 77.6320 1233.00 1256.96 35.11
13528 77.6370 1232.00 1251.05 35.10
13529 77.6420 1203.00 1245.22 34.68
13530 77.6470 1208.00 1239.48 34.76
13531 77.6520 1210.00 1233.81 34.79
13532 77.6570 1181.00 1228.24 34.37
13533 77.6620 1165.00 1222.76 34.13
13534 77.6670 1165.00 1217.37 34.13
13535 77.6720 1171.00 1212.16 34.22
13536 77.6770 1191.00 1206.98 34.51
13537 77.6820 1206.00 1201.89 34.73
13538 77.6870 1182.00 1196.92 34.38
13539 77.6920 1148.00 1192.06 33.88
13540 77.6970 1134.00 1187.32 33.67
13541 77.7020 1134.00 1182.69 33.67
13542 77.7070 1123.00 1178.18 33.51
13543 77.7120 1111.00 1173.81 33.33
13544 77.7170 1115.00 1169.55 33.39
13545 77.7220 1131.00 1165.41 33.63
13546 77.7270 1172.00 1161.42 34.23
13547 77.7320 1175.00 1157.55 34.28
13548 77.7370 1142.00 1153.81 33.79
13549 77.7420 1098.00 1150.22 33.14
13550 77.7470 1078.00 1146.76 32.83
13551 77.7520 1085.00 1143.43 32.94
13552 77.7570 1090.00 1140.26 33.02
13553 77.7620 1104.00 1137.21 33.23
13554 77.7670 1090.00 1134.32 33.02
13555 77.7720 1085.00 1131.56 32.94
13556 77.7770 1106.00 1128.95 33.26
13557 77.7820 1107.00 1126.49 33.27
13558 77.7870 1089.00 1124.17 33.00
13559 77.7920 1078.00 1122.00 32.83
13560 77.7970 1087.00 1119.97 32.97
13561 77.8020 1069.00 1118.10 32.70
13562 77.8070 1064.00 1116.36 32.62
13563 77.8120 1063.00 1114.19 32.60
13564 77.8170 1081.00 1112.48 32.88
13565 77.8220 1105.00 1111.19 33.24
13566 77.8270 1111.00 1109.83 33.33
13567 77.8320 1141.00 1108.83 33.78
13568 77.8370 1151.00 1107.97 33.93
13569 77.8420 1152.00 1107.26 33.94
13570 77.8470 1123.00 1106.69 33.51
13571 77.8520 1118.00 1105.98 33.44
13572 77.8570 1139.00 1105.70 33.75
13573 77.8620 1152.00 1105.55 33.94
13574 77.8670 1140.00 1105.55 33.76
13575 77.8720 1116.00 1105.68 33.41
13576 77.8770 1105.00 1105.96 33.24
13577 77.8820 1121.00 1106.36 33.48
13578 77.8870 1133.00 1106.90 33.66
13579 77.8920 1086.00 1107.57 32.95
13580 77.8970 1060.00 1108.37 32.56
13581 77.9020 1091.00 1109.30 33.03
13582 77.9070 1137.00 1110.35 33.72
13583 77.9120 1157.00 1111.53 34.01
13584 77.9170 1129.00 1112.82 33.60
13585 77.9220 1125.00 1114.24 33.54
13586 77.9270 1130.00 1115.76 33.62
13587 77.9320 1135.00 1117.40 33.69
13588 77.9370 1161.00 1119.15 34.07
13589 77.9420 1182.00 1121.01 34.38
13590 77.9470 1197.00 1122.96 34.60
13591 77.9520 1195.00 1125.01 34.57
13592 77.9570 1211.00 1127.16 34.80
13593 77.9620 1218.00 1129.40 34.90
13594 77.9670 1182.00 1131.72 34.38
13595 77.9720 1157.00 1134.11 34.01
13596 77.9770 1134.00 1136.59 33.67
13597 77.9820 1141.00 1139.13 33.78
13598 77.9870 1133.00 1141.74 33.66
13599 77.9920 1136.00 1144.41 33.70
13600 77.9970 1167.00 1147.13 34.16
13601 78.0020 1191.00 1149.91 34.51
13602 78.0070 1187.00 1152.72 34.45
13603 78.0120 1193.00 1155.56 34.54
13604 78.0170 1203.00 1158.43 34.68
13605 78.0220 1207.00 1161.32 34.74
13606 78.0270 1219.00 1164.22 34.91
13607 78.0320 1238.00 1167.12 35.19
13608 78.0370 1202.00 1170.02 34.67
13609 78.0420 1206.00 1172.92 34.73
13610 78.0470 1242.00 1175.79 35.24
13611 78.0520 1242.00 1178.64 35.24
13612 78.0570 1243.00 1181.46 35.26
13613 78.0620 1246.00 1184.24 35.30
13614 78.0670 1257.00 1186.96 35.45
13615 78.0720 1256.00 1189.64 35.44
13616 78.0770 1212.00 1192.25 34.81
13617 78.0820 1216.00 1194.80 34.87
13618 78.0870 1232.00 1197.27 35.10
13619 78.0920 1254.00 1199.66 35.41
13620 78.0970 1287.00 1201.97 35.87
13621 78.1020 1291.00 1204.18 35.93
13622 78.1070 1250.00 1206.30 35.36
13623 78.1120 1244.00 1208.33 35.27
13624 78.1170 1271.00 1210.25 35.65
13625 78.1220 1278.00 1212.06 35.75
13626 78.1270 1296.00 1213.77 36.00
13627 78.1320 1300.00 1215.38 36.06
13628 78.1370 1323.00 1216.87 36.37
13629 78.1420 1345.00 1218.26 36.67
13630 78.1470 1320.00 1219.55 36.33
13631 78.1520 1277.00 1220.73 35.74
13632 78.1570 1289.00 1221.80 35.90
13633 78.1620 1306.00 1222.78 36.14
13634 78.1670 1317.00 1223.67 36.29
13635 78.1720 1329.00 1224.46 36.46
13636 78.1770 1345.00 1225.17 36.67
13637 78.1820 1346.00 1225.81 36.69
13638 78.1870 1351.00 1226.36 36.76
13639 78.1920 1324.00 1226.85 36.39
13640 78.1970 1293.00 1227.28 35.96
13641 78.2020 1285.00 1227.66 35.85
13642 78.2070 1262.00 1227.99 35.52
13643 78.2120 1249.00 1228.28 35.34
13644 78.2170 1242.00 1228.53 35.24
13645 78.2220 1240.00 1228.77 35.21
13646 78.2270 1256.00 1228.98 35.44
13647 78.2320 1290.00 1229.19 35.92
13648 78.2370 1314.00 1229.39 36.25
13649 78.2420 1317.00 1229.60 36.29
13650 78.2470 1341.00 1229.81 36.62
13651 78.2520 1342.00 1233.19 36.63
13652 78.2570 1352.00 1233.44 36.77
13653 78.2620 1326.00 1233.72 36.41
13654 78.2670 1337.00 1234.03 36.56
13655 78.2720 1362.00 1234.37 36.91
13656 78.2770 1338.00 1234.75 36.58
13657 78.2820 1330.00 1235.16 36.47
13658 78.2870 1316.00 1235.61 36.28
13659 78.2920 1323.00 1236.11 36.37
13660 78.2970 1330.00 1236.63 36.47
13661 78.3020 1318.00 1237.20 36.30
13662 78.3070 1308.00 1237.80 36.17
13663 78.3120 1301.00 1238.42 36.07
13664 78.3170 1256.00 1239.08 35.44
13665 78.3220 1219.00 1239.76 34.91
13666 78.3270 1248.00 1240.45 35.33
13667 78.3320 1284.00 1241.15 35.83
13668 78.3370 1302.00 1241.84 36.08
13669 78.3420 1294.00 1242.52 35.97
13670 78.3470 1302.00 1243.19 36.08
13671 78.3520 1325.00 1243.82 36.40
13672 78.3570 1323.00 1244.41 36.37
13673 78.3620 1277.00 1244.94 35.74
13674 78.3670 1279.00 1245.40 35.76
13675 78.3720 1305.00 1245.78 36.12
13676 78.3770 1319.00 1246.05 36.32
13677 78.3820 1291.00 1246.21 35.93
13678 78.3870 1327.00 1246.23 36.43
13679 78.3920 1358.00 1246.10 36.85
13680 78.3970 1341.00 1245.81 36.62
13681 78.4020 1335.00 1245.32 36.54
13682 78.4070 1346.00 1244.64 36.69
13683 78.4120 1335.00 1243.74 36.54
13684 78.4170 1350.00 1242.60 36.74
13685 78.4220 1333.00 1241.21 36.51
13686 78.4270 1346.00 1239.55 36.69
13687 78.4320 1366.00 1237.61 36.96
13688 78.4370 1382.00 1235.37 37.18
13689 78.4420 1387.00 1232.84 37.24
13690 78.4470 1412.00 1229.97 37.58
13691 78.4520 1382.00 1226.79 37.18
13692 78.4570 1395.00 1223.27 37.35
13693 78.4620 1424.00 1219.42 37.74
13694 78.4670 1397.00 1215.21 37.38
13695 78.4720 1364.00 1210.67 36.93
13696 78.4770 1367.00 1205.78 36.97
13697 78.4820 1371.00 1200.45 37.03
13698 78.4870 1325.00 1194.88 36.40
13699 78.4920 1323.00 1188.98 36.37
13700 78.4970 1333.00 1182.74 36.51
13701 78.5020 1327.00 1176.20 36.43
13702 78.5070 1311.00 1169.34 36.21
13703 78.5120 1280.00 1162.19 35.78
13704 78.5170 1276.00 1154.77 35.72
13705 78.5220 1277.00 1147.08 35.74
13706 78.5270 1270.00 1139.13 35.64
13707 78.5320 1245.00 1130.96 35.28
13708 78.5370 1252.00 1122.60 35.38
13709 78.5420 1236.00 1114.01 35.16
13710 78.5470 1252.00 1105.26 35.38
13711 78.5520 1222.00 1096.36 34.96
13712 78.5570 1222.00 1087.31 34.96
13713 78.5620 1218.00 1078.14 34.90
13714 78.5670 1213.00 1068.89 34.83
13715 78.5720 1175.00 1059.53 34.28
13716 78.5770 1118.00 1050.13 33.44
13717 78.5820 1114.00 1040.67 33.38
13718 78.5870 1108.00 1031.19 33.29
13719 78.5920 1086.00 1021.70 32.95
13720 78.5970 1090.00 1012.22 33.02
13721 78.6020 1062.00 1002.75 32.59
13722 78.6070 1009.00 993.33 31.76
13723 78.6120 1018.00 983.93 31.91
13724 78.6170 994.00 974.63 31.53
13725 78.6220 1001.00 965.39 31.64
13726 78.6270 977.00 956.22 31.26
13727 78.6320 963.00 947.18 31.03
13728 78.6370 934.00 938.21 30.56
13729 78.6420 894.00 929.38 29.90
13730 78.6470 880.00 921.14 29.66
13731 78.6520 956.00 912.56 30.92
13732 78.6570 958.00 904.15 30.95
13733 78.6620 900.00 895.89 30.00
13734 78.6670 907.00 887.77 30.12
13735 78.6720 878.00 879.83 29.63
13736 78.6770 835.00 872.06 28.90
13737 78.6820 834.00 864.46 28.88
13738 78.6870 829.00 857.04 28.79
13739 78.6920 857.00 849.82 29.27
13740 78.6970 848.00 842.76 29.12
13741 78.7020 858.00 835.91 29.29
13742 78.7070 851.00 829.24 29.17
13743 78.7120 811.00 822.79 28.48
13744 78.7170 807.00 816.53 28.41
13745 78.7220 808.00 810.46 28.43
13746 78.7270 814.00 804.61 28.53
13747 78.7320 816.00 798.96 28.57
13748 78.7370 773.00 793.51 27.80
13749 78.7420 777.00 788.28 27.87
13750 78.7470 773.00 783.25 27.80
13751 78.7520 760.00 778.43 27.57
13752 78.7570 745.00 773.82 27.29
13753 78.7620 772.00 769.41 27.78
13754 78.7670 728.00 765.22 26.98
13755 78.7720 701.00 761.24 26.48
13756 78.7770 724.00 757.46 26.91
13757 78.7820 728.00 753.90 26.98
13758 78.7870 725.00 750.54 26.93
13759 78.7920 704.00 747.38 26.53
13760 78.7970 686.00 744.60 26.19
13761 78.8020 683.00 741.86 26.13
13762 78.8070 670.00 739.32 25.88
13763 78.8120 664.00 736.97 25.77
13764 78.8170 685.00 734.84 26.17
13765 78.8220 694.00 732.89 26.34
13766 78.8270 665.00 731.13 25.79
13767 78.8320 664.00 729.57 25.77
13768 78.8370 688.00 728.22 26.23
13769 78.8420 677.00 727.05 26.02
13770 78.8470 694.00 726.07 26.34
13771 78.8520 690.00 725.27 26.27
13772 78.8570 663.00 724.66 25.75
13773 78.8620 658.00 724.23 25.65
13774 78.8670 662.00 723.99 25.73
13775 78.8720 658.00 723.92 25.65
13776 78.8770 678.00 724.02 26.04
13777 78.8820 659.00 724.30 25.67
13778 78.8870 648.00 724.75 25.46
13779 78.8920 653.00 725.36 25.55
13780 78.8970 656.00 726.15 25.61
13781 78.9020 638.00 727.09 25.26
13782 78.9070 674.00 728.19 25.96
13783 78.9120 682.00 729.45 26.12
13784 78.9170 713.00 730.86 26.70
13785 78.9220 725.00 732.42 26.93
13786 78.9270 701.00 734.13 26.48
13787 78.9320 660.00 735.99 25.69
13788 78.9370 649.00 737.99 25.48
13789 78.9420 678.00 740.13 26.04
13790 78.9470 676.00 742.40 26.00
13791 78.9520 699.00 744.81 26.44
13792 78.9570 762.00 747.35 27.60
13793 78.9620 777.00 749.49 27.87
13794 78.9670 748.00 752.28 27.35
13795 78.9720 708.00 755.20 26.61
13796 78.9770 686.00 758.23 26.19
13797 78.9820 702.00 761.38 26.50
13798 78.9870 692.00 764.64 26.31
13799 78.9920 680.00 768.02 26.08
13800 78.9970 681.00 771.49 26.10
13801 79.0020 678.00 775.07 26.04
13802 79.0070 725.00 778.75 26.93
13803 79.0120 723.00 782.52 26.89
13804 79.0170 701.00 786.38 26.48
13805 79.0220 693.00 790.32 26.32
13806 79.0270 719.00 794.35 26.81
13807 79.0320 747.00 798.46 27.33
13808 79.0370 737.00 802.65 27.15
13809 79.0420 725.00 806.91 26.93
13810 79.0470 730.00 811.24 27.02
13811 79.0520 753.00 815.63 27.44
13812 79.0570 746.00 820.08 27.31
13813 79.0620 767.00 824.58 27.69
13814 79.0670 764.00 829.14 27.64
13815 79.0720 723.00 833.74 26.89
13816 79.0770 721.00 838.39 26.85
13817 79.0820 706.00 843.08 26.57
13818 79.0870 735.00 847.78 27.11
13819 79.0920 783.00 852.53 27.98
13820 79.0970 781.00 857.29 27.95
13821 79.1020 787.00 862.07 28.05
13822 79.1070 807.00 866.86 28.41
13823 79.1120 827.00 871.66 28.76
13824 79.1170 836.00 876.46 28.91
13825 79.1220 854.00 881.24 29.22
13826 79.1270 845.00 886.02 29.07
13827 79.1320 832.00 890.78 28.84
13828 79.1370 859.00 895.52 29.31
13829 79.1420 898.00 900.23 29.97
13830 79.1470 910.00 904.90 30.17
13831 79.1520 888.00 909.53 29.80
13832 79.1570 894.00 914.10 29.90
13833 79.1620 899.00 918.63 29.98
13834 79.1670 902.00 923.09 30.03
13835 79.1720 873.00 927.48 29.55
13836 79.1770 865.00 931.87 29.41
13837 79.1820 860.00 936.11 29.33
13838 79.1870 885.00 940.26 29.75
13839 79.1920 916.00 944.31 30.27
13840 79.1970 918.00 948.27 30.30
13841 79.2020 881.00 952.12 29.68
13842 79.2070 883.00 955.86 29.72
13843 79.2120 875.00 959.48 29.58
13844 79.2170 881.00 962.97 29.68
13845 79.2220 903.00 966.33 30.05
13846 79.2270 883.00 969.56 29.72
13847 79.2320 905.00 972.65 30.08
13848 79.2370 946.00 975.59 30.76
13849 79.2420 966.00 978.39 31.08
13850 79.2470 969.00 981.03 31.13
13851 79.2520 978.00 983.52 31.27
13852 79.2570 1008.00 985.84 31.75
13853 79.2620 1000.00 988.00 31.62
13854 79.2670 998.00 990.00 31.59
13855 79.2720 1000.00 991.82 31.62
13856 79.2770 1010.00 993.48 31.78
13857 79.2820 1004.00 994.97 31.69
13858 79.2870 973.00 996.29 31.19
13859 79.2920 968.00 997.22 31.11
13860 79.2970 963.00 998.19 31.03
13861 79.3020 960.00 999.00 30.98
13862 79.3070 954.00 999.64 30.89
13863 79.3120 954.00 1000.11 30.89
13864 79.3170 948.00 1000.42 30.79
13865 79.3220 961.00 1000.56 31.00
13866 79.3270 965.00 1000.55 31.06
13867 79.3320 949.00 1000.38 30.81
13868 79.3370 959.00 1000.06 30.97
13869 79.3420 971.00 999.59 31.16
13870 79.3470 987.00 999.01 31.42
13871 79.3520 1003.00 998.26 31.67
13872 79.3570 990.00 997.38 31.46
13873 79.3620 955.00 996.37 30.90
13874 79.3670 950.00 995.24 30.82
13875 79.3720 947.00 993.99 30.77
13876 79.3770 956.00 992.63 30.92
13877 79.3820 943.00 991.17 30.71
13878 79.3870 952.00 989.61 30.85
13879 79.3920 919.00 987.96 30.32
13880 79.3970 903.00 986.22 30.05
13881 79.4020 914.00 984.40 30.23
13882 79.4070 910.00 982.51 30.17
13883 79.4120 921.00 980.55 30.35
13884 79.4170 928.00 978.53 30.46
13885 79.4220 927.00 976.47 30.45
13886 79.4270 935.00 974.35 30.58
13887 79.4320 942.00 972.18 30.69
13888 79.4370 940.00 969.99 30.66
13889 79.4420 931.00 967.76 30.51
13890 79.4470 911.00 965.51 30.18
13891 79.4520 896.00 963.24 29.93
13892 79.4570 863.00 960.96 29.38
13893 79.4620 856.00 958.67 29.26
13894 79.4670 879.00 956.38 29.65
13895 79.4720 876.00 954.08 29.60
13896 79.4770 899.00 951.80 29.98
13897 79.4820 895.00 949.53 29.92
13898 79.4870 868.00 947.27 29.46
13899 79.4920 865.00 945.03 29.41
13900 79.4970 853.00 942.81 29.21
13901 79.5020 856.00 940.63 29.26
13902 79.5070 870.00 938.48 29.50
13903 79.5120 850.00 936.35 29.15
13904 79.5170 826.00 934.28 28.74
13905 79.5220 810.00 932.24 28.46
13906 79.5270 829.00 930.24 28.79
13907 79.5320 860.00 928.30 29.33
13908 79.5370 877.00 926.41 29.61
13909 79.5420 857.00 924.57 29.27
13910 79.5470 852.00 922.78 29.19
13911 79.5520 842.00 921.05 29.02
13912 79.5570 840.00 919.39 28.98
13913 79.5620 856.00 917.78 29.26
13914 79.5670 841.00 916.24 29.00
13915 79.5720 846.00 914.76 29.09
13916 79.5770 870.00 913.35 29.50
13917 79.5820 885.00 912.01 29.75
13918 79.5870 883.00 910.74 29.72
13919 79.5920 863.00 909.54 29.38
13920 79.5970 841.00 908.41 29.00
13921 79.6020 828.00 907.36 28.77
13922 79.6070 840.00 906.38 28.98
13923 79.6120 858.00 905.47 29.29
13924 79.6170 861.00 904.64 29.34
13925 79.6220 847.00 903.88 29.10
13926 79.6270 828.00 903.20 28.77
13927 79.6320 827.00 902.60 28.76
13928 79.6370 831.00 902.07 28.83
13929 79.6420 826.00 901.63 28.74
13930 79.6470 846.00 901.26 29.09
13931 79.6520 855.00 900.96 29.24
13932 79.6570 848.00 900.75 29.12
13933 79.6620 814.00 900.61 28.53
13934 79.6670 800.00 900.55 28.28
13935 79.6720 805.00 900.57 28.37
13936 79.6770 805.00 900.66 28.37
13937 79.6820 818.00 900.84 28.60
13938 79.6870 830.00 901.09 28.81
13939 79.6920 848.00 901.41 29.12
13940 79.6970 860.00 901.82 29.33
13941 79.7020 833.00 902.29 28.86
13942 79.7070 835.00 902.85 28.90
13943 79.7120 860.00 903.48 29.33
13944 79.7170 880.00 904.18 29.66
13945 79.7220 875.00 904.97 29.58
13946 79.7270 885.00 905.82 29.75
13947 79.7320 881.00 906.75 29.68
13948 79.7370 879.00 907.75 29.65
13949 79.7420 887.00 908.83 29.78
13950 79.7470 901.00 909.97 30.02
13951 79.7520 944.00 911.20 30.72
13952 79.7570 963.00 912.49 31.03
13953 79.7620 964.00 913.86 31.05
13954 79.7670 958.00 915.29 30.95
13955 79.7720 959.00 916.80 30.97
13956 79.7770 952.00 918.38 30.85
13957 79.7820 927.00 920.03 30.45
13958 79.7870 910.00 921.74 30.17
13959 79.7920 902.00 923.53 30.03
13960 79.7970 912.00 925.39 30.20
13961 79.8020 922.00 927.32 30.36
13962 79.8070 918.00 929.32 30.30
13963 79.8120 902.00 931.38 30.03
13964 79.8170 911.00 933.51 30.18
13965 79.8220 910.00 935.72 30.17
13966 79.8270 916.00 937.97 30.27
13967 79.8320 925.00 940.30 30.41
13968 79.8370 940.00 942.71 30.66
13969 79.8420 954.00 945.18 30.89
13970 79.8470 983.00 947.72 31.35
13971 79.8520 984.00 950.32 31.37
13972 79.8570 965.00 952.99 31.06
13973 79.8620 964.00 955.73 31.05
13974 79.8670 981.00 958.53 31.32
13975 79.8720 961.00 961.40 31.00
13976 79.8770 940.00 964.34 30.66
13977 79.8820 926.00 967.34 30.43
13978 79.8870 915.00 970.41 30.25
13979 79.8920 926.00 973.53 30.43
13980 79.8970 964.00 976.73 31.05
13981 79.9020 1001.00 979.99 31.64
13982 79.9070 1020.00 983.31 31.94
13983 79.9120 1016.00 986.69 31.87
13984 79.9170 1000.00 990.15 31.62
13985 79.9220 985.00 993.66 31.38
13986 79.9270 987.00 997.24 31.42
13987 79.9320 1013.00 1000.89 31.83
13988 79.9370 1035.00 1004.44 32.17
13989 79.9420 1032.00 1008.21 32.12
13990 79.9470 1032.00 1012.05 32.12
13991 79.9520 1044.00 1015.95 32.31
13992 79.9570 1035.00 1019.91 32.17
13993 79.9620 1023.00 1023.94 31.98
13994 79.9670 1018.00 1027.88 31.91
13995 79.9720 1050.00 1032.04 32.40
13996 79.9770 1069.00 1036.26 32.70
13997 79.9820 1058.00 1040.54 32.53
13998 79.9870 1077.00 1044.89 32.82
13999 79.9920 1099.00 1049.29 33.15
14000 79.9970 1099.00 1053.76 33.15
14001 80.0020 1091.00 1058.17 33.03
14002 80.0070 1109.00 1062.77 33.30
14003 80.0120 1103.00 1067.44 33.21
14004 80.0170 1088.00 1072.16 32.98
14005 80.0220 1086.00 1076.95 32.95
14006 80.0270 1108.00 1081.81 33.29
14007 80.0320 1130.00 1086.73 33.62
14008 80.0370 1122.00 1091.71 33.50
14009 80.0420 1107.00 1096.77 33.27
14010 80.0470 1125.00 1101.88 33.54
14011 80.0520 1143.00 1107.05 33.81
14012 80.0570 1165.00 1112.30 34.13
14013 80.0620 1165.00 1117.61 34.13
14014 80.0670 1150.00 1122.99 33.91
14015 80.0720 1128.00 1128.43 33.59
14016 80.0770 1130.00 1133.55 33.62
14017 80.0820 1146.00 1139.13 33.85
14018 80.0870 1150.00 1144.76 33.91
14019 80.0920 1151.00 1150.46 33.93
14020 80.0970 1147.00 1156.23 33.87
14021 80.1020 1146.00 1162.06 33.85
14022 80.1070 1153.00 1167.95 33.96
14023 80.1120 1168.00 1173.92 34.18
14024 80.1170 1164.00 1179.94 34.12
14025 80.1220 1190.00 1186.03 34.50
14026 80.1270 1222.00 1192.19 34.96
14027 80.1320 1212.00 1198.47 34.81
14028 80.1370 1235.00 1204.76 35.14
14029 80.1420 1248.00 1211.11 35.33
14030 80.1470 1239.00 1217.50 35.20
14031 80.1520 1244.00 1223.98 35.27
14032 80.1570 1250.00 1230.51 35.36
14033 80.1620 1258.00 1237.09 35.47
14034 80.1670 1271.00 1243.74 35.65
14035 80.1720 1263.00 1250.44 35.54
14036 80.1770 1252.00 1257.21 35.38
14037 80.1820 1261.00 1264.02 35.51
14038 80.1870 1293.00 1270.89 35.96
14039 80.1920 1329.00 1277.82 36.46
14040 80.1970 1336.00 1284.80 36.55
14041 80.2020 1324.00 1291.82 36.39
14042 80.2070 1296.00 1298.91 36.00
14043 80.2120 1285.00 1306.02 35.85
14044 80.2170 1295.00 1313.18 35.99
14045 80.2220 1337.00 1320.40 36.56
14046 80.2270 1359.00 1327.64 36.86
14047 80.2320 1344.00 1334.92 36.66
14048 80.2370 1406.00 1342.25 37.50
14049 80.2420 1446.00 1349.60 38.03
14050 80.2470 1419.00 1356.97 37.67
14051 80.2520 1425.00 1364.39 37.75
14052 80.2570 1443.00 1371.82 37.99
14053 80.2620 1430.00 1379.26 37.82
14054 80.2670 1424.00 1386.72 37.74
14055 80.2720 1425.00 1394.19 37.75
14056 80.2770 1412.00 1401.66 37.58
14057 80.2820 1403.00 1409.14 37.46
14058 80.2870 1426.00 1416.61 37.76
14059 80.2920 1439.00 1424.07 37.93
14060 80.2970 1453.00 1431.52 38.12
14061 80.3020 1471.00 1438.94 38.35
14062 80.3070 1486.00 1446.34 38.55
14063 80.3120 1510.00 1453.70 38.86
14064 80.3170 1527.00 1461.02 39.08
14065 80.3220 1541.00 1468.29 39.26
14066 80.3270 1552.00 1475.51 39.40
14067 80.3320 1562.00 1482.67 39.52
14068 80.3370 1578.00 1489.74 39.72
14069 80.3420 1585.00 1496.72 39.81
14070 80.3470 1591.00 1503.63 39.89
14071 80.3520 1605.00 1510.42 40.06
14072 80.3570 1600.00 1517.09 40.00
14073 80.3620 1611.00 1523.65 40.14
14074 80.3670 1630.00 1530.07 40.37
14075 80.3720 1616.00 1536.33 40.20
14076 80.3770 1615.00 1542.45 40.19
14077 80.3820 1638.00 1548.38 40.47
14078 80.3870 1655.00 1554.13 40.68
14079 80.3920 1665.00 1559.68 40.80
14080 80.3970 1669.00 1565.02 40.85
14081 80.4020 1667.00 1570.13 40.83
14082 80.4070 1667.00 1575.00 40.83
14083 80.4120 1674.00 1579.61 40.91
14084 80.4170 1698.00 1583.97 41.21
14085 80.4220 1717.00 1588.04 41.44
14086 80.4270 1726.00 1591.82 41.55
14087 80.4320 1725.00 1595.31 41.53
14088 80.4370 1722.00 1598.47 41.50
14089 80.4420 1717.00 1601.30 41.44
14090 80.4470 1725.00 1603.80 41.53
14091 80.4520 1719.00 1605.95 41.46
14092 80.4570 1708.00 1607.75 41.33
14093 80.4620 1702.00 1609.18 41.26
14094 80.4670 1708.00 1610.25 41.33
14095 80.4720 1711.00 1610.94 41.36
14096 80.4770 1711.00 1611.25 41.36
14097 80.4820 1691.00 1611.18 41.12
14098 80.4870 1696.00 1610.73 41.18
14099 80.4920 1723.00 1612.29 41.51
14100 80.4970 1724.00 1611.08 41.52
14101 80.5020 1698.00 1609.50 41.21
14102 80.5070 1661.00 1607.54 40.76
14103 80.5120 1664.00 1605.21 40.79
14104 80.5170 1682.00 1602.53 41.01
14105 80.5220 1684.00 1599.49 41.04
14106 80.5270 1685.00 1596.10 41.05
14107 80.5320 1688.00 1592.39 41.09
14108 80.5370 1715.00 1588.35 41.41
14109 80.5420 1729.00 1583.99 41.58
14110 80.5470 1716.00 1579.35 41.42
14111 80.5520 1707.00 1574.41 41.32
14112 80.5570 1675.00 1569.19 40.93
14113 80.5620 1622.00 1563.72 40.27
14114 80.5670 1609.00 1558.00 40.11
14115 80.5720 1641.00 1552.04 40.51
14116 80.5770 1647.00 1545.87 40.58
14117 80.5820 1626.00 1539.48 40.32
14118 80.5870 1586.00 1532.90 39.82
14119 80.5920 1567.00 1526.15 39.59
14120 80.5970 1551.00 1519.22 39.38
14121 80.6020 1543.00 1512.14 39.28
14122 80.6070 1530.00 1504.93 39.12
14123 80.6120 1507.00 1497.56 38.82
14124 80.6170 1507.00 1490.09 38.82
14125 80.6220 1506.00 1482.51 38.81
14126 80.6270 1495.00 1474.82 38.67
14127 80.6320 1488.00 1467.05 38.57
14128 80.6370 1478.00 1459.18 38.44
14129 80.6420 1480.00 1451.27 38.47
14130 80.6470 1490.00 1443.28 38.60
14131 80.6520 1470.00 1435.23 38.34
14132 80.6570 1415.00 1427.14 37.62
14133 80.6620 1392.00 1419.01 37.31
14134 80.6670 1403.00 1410.83 37.46
14135 80.6720 1414.00 1402.64 37.60
14136 80.6770 1414.00 1394.42 37.60
14137 80.6820 1381.00 1386.17 37.16
14138 80.6870 1349.00 1377.92 36.73
14139 80.6920 1331.00 1369.66 36.48
14140 80.6970 1334.00 1361.37 36.52
14141 80.7020 1347.00 1353.10 36.70
14142 80.7070 1349.00 1344.81 36.73
14143 80.7120 1347.00 1336.54 36.70
14144 80.7170 1356.00 1328.28 36.82
14145 80.7220 1340.00 1320.00 36.61
14146 80.7270 1322.00 1311.74 36.36
14147 80.7320 1308.00 1303.50 36.17
14148 80.7370 1309.00 1295.26 36.18
14149 80.7420 1305.00 1287.04 36.12
14150 80.7470 1263.00 1278.83 35.54
14151 80.7520 1224.00 1270.64 34.99
14152 80.7570 1213.00 1262.47 34.83
14153 80.7620 1233.00 1254.30 35.11
14154 80.7670 1250.00 1246.18 35.36
14155 80.7720 1233.00 1238.06 35.11
14156 80.7770 1224.00 1229.95 34.99
14157 80.7820 1225.00 1221.89 35.00
14158 80.7870 1187.00 1213.84 34.45
14159 80.7920 1165.00 1205.80 34.13
14160 80.7970 1163.00 1197.81 34.10
14161 80.8020 1145.00 1189.83 33.84
14162 80.8070 1125.00 1181.87 33.54
14163 80.8120 1125.00 1173.96 33.54
14164 80.8170 1141.00 1166.06 33.78
14165 80.8220 1156.00 1158.19 34.00
14166 80.8270 1166.00 1150.35 34.15
14167 80.8320 1169.00 1142.56 34.19
14168 80.8370 1177.00 1134.79 34.31
14169 80.8420 1186.00 1127.06 34.44
14170 80.8470 1164.00 1119.37 34.12
14171 80.8520 1138.00 1111.73 33.73
14172 80.8570 1100.00 1104.12 33.17
14173 80.8620 1072.00 1096.55 32.74
14174 80.8670 1067.00 1089.03 32.67
14175 80.8720 1065.00 1081.56 32.63
14176 80.8770 1087.00 1074.14 32.97
14177 80.8820 1093.00 1066.77 33.06
14178 80.8870 1082.00 1059.44 32.89
14179 80.8920 1067.00 1052.18 32.67
14180 80.8970 1041.00 1044.98 32.26
14181 80.9020 1018.00 1037.82 31.91
14182 80.9070 999.00 1030.73 31.61
14183 80.9120 998.00 1023.72 31.59
14184 80.9170 1002.00 1016.76 31.65
14185 80.9220 993.00 1009.87 31.51
14186 80.9270 990.00 1003.06 31.46
14187 80.9320 1004.00 996.30 31.69
14188 80.9370 1011.00 989.62 31.80
14189 80.9420 1006.00 983.03 31.72
14190 80.9470 996.00 976.50 31.56
14191 80.9520 994.00 970.05 31.53
14192 80.9570 974.00 963.68 31.21
14193 80.9620 939.00 957.40 30.64
14194 80.9670 928.00 951.20 30.46
14195 80.9720 929.00 945.08 30.48
14196 80.9770 948.00 939.04 30.79
14197 80.9820 948.00 933.10 30.79
14198 80.9870 915.00 927.24 30.25
14199 80.9920 903.00 921.47 30.05
14200 80.9970 892.00 915.79 29.87
14201 81.0020 884.00 910.20 29.73
14202 81.0070 883.00 904.71 29.72
14203 81.0120 874.00 899.30 29.56
14204 81.0170 867.00 893.99 29.44
14205 81.0220 854.00 888.78 29.22
14206 81.0270 821.00 883.65 28.65
14207 81.0320 820.00 878.62 28.64
14208 81.0370 853.00 873.69 29.21
14209 81.0420 876.00 868.84 29.60
14210 81.0470 883.00 864.10 29.72
14211 81.0520 849.00 859.46 29.14
14212 81.0570 809.00 856.05 28.44
14213 81.0620 811.00 851.60 28.48
14214 81.0670 805.00 847.24 28.37
14215 81.0720 807.00 842.96 28.41
14216 81.0770 820.00 838.79 28.64
14217 81.0820 815.00 834.70 28.55
14218 81.0870 802.00 830.71 28.32
14219 81.0920 803.00 826.81 28.34
14220 81.0970 797.00 823.00 28.23
14221 81.1020 783.00 819.28 27.98
14222 81.1070 787.00 815.65 28.05
14223 81.1120 793.00 812.10 28.16
14224 81.1170 779.00 808.65 27.91
14225 81.1220 774.00 805.28 27.82
14226 81.1270 790.00 801.98 28.11
14227 81.1320 799.00 798.78 28.27
14228 81.1370 797.00 795.65 28.23
14229 81.1420 812.00 792.60 28.50
14230 81.1470 814.00 789.64 28.53
14231 81.1520 789.00 786.74 28.09
14232 81.1570 773.00 783.92 27.80
14233 81.1620 767.00 781.18 27.69
14234 81.1670 760.00 778.50 27.57
14235 81.1720 748.00 775.89 27.35
14236 81.1770 757.00 773.35 27.51
14237 81.1820 759.00 770.88 27.55
14238 81.1870 765.00 768.46 27.66
14239 81.1920 761.00 766.11 27.59
14240 81.1970 730.00 763.82 27.02
14241 81.2020 735.00 761.58 27.11
14242 81.2070 763.00 759.39 27.62
14243 81.2120 763.00 757.27 27.62
14244 81.2170 758.00 755.18 27.53
14245 81.2220 757.00 753.15 27.51
14246 81.2270 731.00 751.17 27.04
14247 81.2320 736.00 749.23 27.13
14248 81.2370 787.00 747.34 28.05
14249 81.2420 795.00 745.48 28.20
14250 81.2470 766.00 743.67 27.68
14251 81.2520 762.00 741.89 27.60
14252 81.2570 753.00 740.16 27.44
14253 81.2620 736.00 738.45 27.13
14254 81.2670 713.00 736.79 26.70
14255 81.2720 703.00 735.15 26.51
14256 81.2770 689.00 733.55 26.25
14257 81.2820 691.00 731.98 26.29
14258 81.2870 726.00 730.44 26.94
14259 81.2920 752.00 728.93 27.42
14260 81.2970 740.00 727.45 27.20
14261 81.3020 722.00 725.99 26.87
14262 81.3070 728.00 724.57 26.98
14263 81.3120 739.00 723.17 27.18
14264 81.3170 724.00 721.81 26.91
14265 81.3220 697.00 721.01 26.40
14266 81.3270 704.00 719.71 26.53
14267 81.3320 716.00 718.43 26.76
14268 81.3370 719.00 717.18 26.81
14269 81.3420 721.00 715.97 26.85
14270 81.3470 704.00 714.78 26.53
14271 81.3520 675.00 713.63 25.98
14272 81.3570 681.00 712.51 26.10
14273 81.3620 706.00 711.42 26.57
14274 81.3670 703.00 710.38 26.51
14275 81.3720 677.00 709.36 26.02
14276 81.3770 658.00 708.39 25.65
14277 81.3820 666.00 707.45 25.81
14278 81.3870 691.00 706.55 26.29
14279 81.3920 690.00 705.70 26.27
14280 81.3970 677.00 704.88 26.02
14281 81.4020 664.00 704.11 25.77
14282 81.4070 668.00 703.39 25.85
14283 81.4120 701.00 702.71 26.48
14284 81.4170 703.00 701.64 26.51
14285 81.4220 690.00 701.06 26.27
14286 81.4270 687.00 700.54 26.21
14287 81.4320 672.00 700.07 25.92
14288 81.4370 673.00 699.64 25.94
14289 81.4420 677.00 699.27 26.02
14290 81.4470 674.00 698.96 25.96
14291 81.4520 705.00 698.70 26.55
14292 81.4570 716.00 698.50 26.76
14293 81.4620 689.00 698.35 26.25
14294 81.4670 692.00 698.27 26.31
14295 81.4720 707.00 698.25 26.59
14296 81.4770 684.00 698.29 26.15
14297 81.4820 653.00 698.39 25.55
14298 81.4870 639.00 698.55 25.28
14299 81.4920 632.00 698.78 25.14
14300 81.4970 645.00 699.07 25.40
14301 81.5020 652.00 700.20 25.53
14302 81.5070 653.00 700.62 25.55
14303 81.5120 645.00 701.11 25.40
14304 81.5170 652.00 701.66 25.53
14305 81.5220 674.00 702.28 25.96
14306 81.5270 678.00 702.97 26.04
14307 81.5320 669.00 703.72 25.86
14308 81.5370 663.00 704.54 25.75
14309 81.5420 658.00 705.18 25.65
14310 81.5470 662.00 706.13 25.73
14311 81.5520 669.00 707.15 25.86
14312 81.5570 670.00 708.24 25.88
14313 81.5620 664.00 709.39 25.77
14314 81.5670 672.00 710.61 25.92
14315 81.5720 690.00 711.90 26.27
14316 81.5770 689.00 713.25 26.25
14317 81.5820 671.00 714.67 25.90
14318 81.5870 652.00 716.15 25.53
14319 81.5920 660.00 717.69 25.69
14320 81.5970 675.00 719.30 25.98
14321 81.6020 682.00 720.97 26.12
14322 81.6070 692.00 722.70 26.31
14323 81.6120 688.00 724.49 26.23
14324 81.6170 689.00 726.34 26.25
14325 81.6220 695.00 728.24 26.36
14326 81.6270 694.00 730.21 26.34
14327 81.6320 694.00 732.23 26.34
14328 81.6370 695.00 734.31 26.36
14329 81.6420 681.00 736.44 26.10
14330 81.6470 679.00 738.62 26.06
14331 81.6520 709.00 740.85 26.63
14332 81.6570 713.00 743.13 26.70
14333 81.6620 692.00 745.45 26.31
14334 81.6670 719.00 747.83 26.81
14335 81.6720 744.00 750.24 27.28
14336 81.6770 742.00 752.69 27.24
14337 81.6820 725.00 755.18 26.93
14338 81.6870 713.00 757.71 26.70
14339 81.6920 738.00 760.27 27.17
14340 81.6970 760.00 762.86 27.57
14341 81.7020 742.00 765.47 27.24
14342 81.7070 725.00 768.12 26.93
14343 81.7120 715.00 770.58 26.74
14344 81.7170 723.00 773.26 26.89
14345 81.7220 735.00 775.97 27.11
14346 81.7270 738.00 778.68 27.17
14347 81.7320 752.00 781.40 27.42
14348 81.7370 769.00 784.13 27.73
14349 81.7420 769.00 786.87 27.73
14350 81.7470 771.00 789.59 27.77
14351 81.7520 787.00 792.33 28.05
14352 81.7570 786.00 795.04 28.04
14353 81.7620 767.00 797.75 27.69
14354 81.7670 763.00 800.44 27.62
14355 81.7720 763.00 803.11 27.62
14356 81.7770 762.00 805.76 27.60
14357 81.7820 769.00 808.37 27.73
14358 81.7870 783.00 810.95 27.98
14359 81.7920 800.00 813.50 28.28
14360 81.7970 820.00 816.01 28.64
14361 81.8020 842.00 818.47 29.02
14362 81.8070 822.00 820.89 28.67
14363 81.8120 817.00 823.24 28.58
14364 81.8170 834.00 825.55 28.88
14365 81.8220 840.00 827.80 28.98
14366 81.8270 838.00 829.98 28.95
14367 81.8320 832.00 832.10 28.84
14368 81.8370 826.00 834.15 28.74
14369 81.8420 848.00 836.12 29.12
14370 81.8470 885.00 838.03 29.75
14371 81.8520 894.00 839.85 29.90
14372 81.8570 883.00 841.60 29.72
14373 81.8620 862.00 843.27 29.36
14374 81.8670 846.00 844.85 29.09
14375 81.8720 840.00 846.35 28.98
14376 81.8770 832.00 847.76 28.84
14377 81.8820 830.00 849.09 28.81
14378 81.8870 823.00 850.33 28.69
14379 81.8920 810.00 851.49 28.46
14380 81.8970 797.00 852.56 28.23
14381 81.9020 794.00 853.54 28.18
14382 81.9070 805.00 854.44 28.37
14383 81.9120 797.00 855.25 28.23
14384 81.9170 781.00 855.98 27.95
14385 81.9220 779.00 856.63 27.91
14386 81.9270 793.00 857.20 28.16
14387 81.9320 800.00 857.69 28.28
14388 81.9370 792.00 858.11 28.14
14389 81.9420 792.00 858.45 28.14
14390 81.9470 828.00 858.72 28.77
14391 81.9520 849.00 858.92 29.14
14392 81.9570 820.00 859.06 28.64
14393 81.9620 828.00 859.13 28.77
14394 81.9670 826.00 859.14 28.74
14395 81.9720 825.00 859.10 28.72
14396 81.9770 814.00 859.00 28.53
14397 81.9820 795.00 858.85 28.20
14398 81.9870 796.00 858.65 28.21
14399 81.9920 795.00 858.40 28.20
14400 81.9970 787.00 858.11 28.05
14401 82.0020 785.00 857.79 28.02
14402 82.0070 778.00 857.42 27.89
14403 82.0120 807.00 857.02 28.41
14404 82.0170 819.00 856.60 28.62
14405 82.0220 829.00 856.14 28.79
14406 82.0270 837.00 855.65 28.93
14407 82.0320 844.00 855.15 29.05
14408 82.0370 849.00 854.62 29.14
14409 82.0420 843.00 854.08 29.03
14410 82.0470 840.00 853.52 28.98
14411 82.0520 833.00 852.90 28.86
14412 82.0570 825.00 852.31 28.72
14413 82.0620 859.00 851.72 29.31
14414 82.0670 875.00 851.12 29.58
14415 82.0720 843.00 850.51 29.03
14416 82.0770 815.00 849.91 28.55
14417 82.0820 808.00 849.30 28.43
14418 82.0870 796.00 848.69 28.21
14419 82.0920 785.00 848.09 28.02
14420 82.0970 773.00 847.49 27.80
14421 82.1020 766.00 846.90 27.68
14422 82.1070 770.00 846.32 27.75
14423 82.1120 795.00 845.74 28.20
14424 82.1170 804.00 845.18 28.35
14425 82.1220 817.00 844.63 28.58
14426 82.1270 810.00 844.10 28.46
14427 82.1320 807.00 843.58 28.41
14428 82.1370 805.00 843.08 28.37
14429 82.1420 798.00 842.59 28.25
14430 82.1470 777.00 842.13 27.87
14431 82.1520 796.00 841.69 28.21
14432 82.1570 831.00 841.27 28.83
14433 82.1620 821.00 839.58 28.65
14434 82.1670 792.00 839.21 28.14
14435 82.1720 812.00 838.87 28.50
14436 82.1770 806.00 838.56 28.39
14437 82.1820 775.00 838.27 27.84
14438 82.1870 747.00 838.02 27.33
14439 82.1920 762.00 837.79 27.60
14440 82.1970 770.00 837.59 27.75
14441 82.2020 765.00 837.43 27.66
14442 82.2070 787.00 837.30 28.05
14443 82.2120 802.00 837.20 28.32
14444 82.2170 786.00 837.13 28.04
14445 82.2220 786.00 837.09 28.04
14446 82.2270 779.00 837.09 27.91
14447 82.2320 792.00 837.12 28.14
14448 82.2370 810.00 837.19 28.46
14449 82.2420 806.00 837.29 28.39
14450 82.2470 794.00 837.42 28.18
14451 82.2520 801.00 837.59 28.30
14452 82.2570 834.00 837.79 28.88
14453 82.2620 836.00 838.03 28.91
14454 82.2670 819.00 838.30 28.62
14455 82.2720 837.00 838.51 28.93
14456 82.2770 852.00 838.85 29.19
14457 82.2820 839.00 839.22 28.97
14458 82.2870 824.00 839.62 28.71
14459 82.2920 844.00 840.06 29.05
14460 82.2970 816.00 840.52 28.57
14461 82.3020 800.00 841.02 28.28
14462 82.3070 815.00 841.55 28.55
14463 82.3120 817.00 842.11 28.58
14464 82.3170 810.00 842.71 28.46
14465 82.3220 791.00 843.33 28.12
14466 82.3270 786.00 843.97 28.04
14467 82.3320 795.00 844.65 28.20
14468 82.3370 837.00 845.36 28.93
14469 82.3420 863.00 846.09 29.38
14470 82.3470 871.00 846.85 29.51
14471 82.3520 861.00 847.63 29.34
14472 82.3570 836.00 848.44 28.91
14473 82.3620 834.00 849.28 28.88
14474 82.3670 835.00 850.13 28.90
14475 82.3720 853.00 851.01 29.21
14476 82.3770 863.00 851.92 29.38
14477 82.3820 859.00 852.84 29.31
14478 82.3870 852.00 853.79 29.19
14479 82.3920 843.00 854.76 29.03
14480 82.3970 851.00 855.74 29.17
14481 82.4020 862.00 856.75 29.36
14482 82.4070 842.00 857.77 29.02
14483 82.4120 829.00 858.81 28.79
14484 82.4170 798.00 859.88 28.25
14485 82.4220 831.00 860.95 28.83
14486 82.4270 868.00 862.05 29.46
14487 82.4320 859.00 863.16 29.31
14488 82.4370 848.00 864.29 29.12
14489 82.4420 849.00 865.43 29.14
14490 82.4470 860.00 866.59 29.33
14491 82.4520 870.00 867.76 29.50
14492 82.4570 868.00 868.95 29.46
14493 82.4620 872.00 870.14 29.53
14494 82.4670 860.00 871.36 29.33
14495 82.4720 841.00 872.59 29.00
14496 82.4770 825.00 874.60 28.72
14497 82.4820 806.00 875.86 28.39
14498 82.4870 817.00 877.12 28.58
14499 82.4920 846.00 878.40 29.09
14500 82.4970 863.00 879.70 29.38
14501 82.5020 871.00 881.00 29.51
14502 82.5070 860.00 882.32 29.33
14503 82.5120 836.00 883.65 28.91
14504 82.5170 861.00 884.99 29.34
14505 82.5220 872.00 885.30 29.53
14506 82.5270 873.00 886.67 29.55
14507 82.5320 877.00 888.06 29.61
14508 82.5370 870.00 889.45 29.50
14509 82.5420 868.00 890.86 29.46
14510 82.5470 868.00 892.29 29.46
14511 82.5520 867.00 893.72 29.44
14512 82.5570 876.00 895.18 29.60
14513 82.5620 872.00 896.64 29.53
14514 82.5670 849.00 898.13 29.14
14515 82.5720 841.00 899.62 29.00
14516 82.5770 827.00 901.14 28.76
14517 82.5820 818.00 902.67 28.60
14518 82.5870 821.00 904.22 28.65
14519 82.5920 845.00 905.78 29.07
14520 82.5970 880.00 907.36 29.66
14521 82.6020 864.00 908.96 29.39
14522 82.6070 847.00 910.58 29.10
14523 82.6120 847.00 912.22 29.10
14524 82.6170 856.00 913.88 29.26
14525 82.6220 859.00 915.56 29.31
14526 82.6270 845.00 917.27 29.07
14527 82.6320 861.00 918.99 29.34
14528 82.6370 878.00 920.73 29.63
14529 82.6420 897.00 922.50 29.95
14530 82.6470 892.00 924.29 29.87
14531 82.6520 900.00 926.10 30.00
14532 82.6570 914.00 927.94 30.23
14533 82.6620 904.00 929.80 30.07
14534 82.6670 883.00 931.68 29.72
14535 82.6720 879.00 933.59 29.65
14536 82.6770 863.00 935.52 29.38
14537 82.6820 847.00 937.48 29.10
14538 82.6870 877.00 939.47 29.61
14539 82.6920 901.00 941.47 30.02
14540 82.6970 885.00 943.51 29.75
14541 82.7020 859.00 945.56 29.31
14542 82.7070 860.00 947.65 29.33
14543 82.7120 871.00 949.75 29.51
14544 82.7170 880.00 951.89 29.66
14545 82.7220 895.00 954.05 29.92
14546 82.7270 901.00 956.23 30.02
14547 82.7320 915.00 958.43 30.25
14548 82.7370 947.00 960.66 30.77
14549 82.7420 944.00 962.92 30.72
14550 82.7470 920.00 965.19 30.33
14551 82.7520 917.00 967.49 30.28
14552 82.7570 912.00 969.81 30.20
14553 82.7620 917.00 972.15 30.28
14554 82.7670 927.00 978.22 30.45
14555 82.7720 935.00 980.61 30.58
14556 82.7770 957.00 983.03 30.94
14557 82.7820 963.00 985.46 31.03
14558 82.7870 942.00 987.91 30.69
14559 82.7920 946.00 990.38 30.76
14560 82.7970 961.00 992.86 31.00
14561 82.8020 982.00 995.36 31.34
14562 82.8070 985.00 997.88 31.38
14563 82.8120 975.00 1000.40 31.23
14564 82.8170 968.00 1002.95 31.11
14565 82.8220 959.00 1005.50 30.97
14566 82.8270 958.00 1008.06 30.95
14567 82.8320 978.00 1010.63 31.27
14568 82.8370 990.00 1011.63 31.46
14569 82.8420 998.00 1014.21 31.59
14570 82.8470 984.00 1016.81 31.37
14571 82.8520 996.00 1019.41 31.56
14572 82.8570 981.00 1022.01 31.32
14573 82.8620 980.00 1024.61 31.31
14574 82.8670 980.00 1027.22 31.31
14575 82.8720 991.00 1029.81 31.48
14576 82.8770 1018.00 1032.42 31.91
14577 82.8820 1018.00 1035.01 31.91
14578 82.8870 1021.00 1037.60 31.95
14579 82.8920 1016.00 1040.18 31.87
14580 82.8970 987.00 1042.75 31.42
14581 82.9020 987.00 1045.31 31.42
14582 82.9070 1020.00 1047.85 31.94
14583 82.9120 1038.00 1050.38 32.22
14584 82.9170 1026.00 1052.89 32.03
14585 82.9220 1006.00 1055.38 31.72
14586 82.9270 1014.00 1057.85 31.84
14587 82.9320 1043.00 1060.31 32.30
14588 82.9370 1029.00 1062.72 32.08
14589 82.9420 1060.00 1065.12 32.56
14590 82.9470 1081.00 1067.48 32.88
14591 82.9520 1069.00 1069.81 32.70
14592 82.9570 1046.00 1072.11 32.34
14593 82.9620 1040.00 1074.36 32.25
14594 82.9670 1040.00 1076.58 32.25
14595 82.9720 1047.00 1078.75 32.36
14596 82.9770 1045.00 1080.88 32.33
14597 82.9820 1052.00 1082.95 32.43
14598 82.9870 1060.00 1084.98 32.56
14599 82.9920 1070.00 1086.95 32.71
14600 82.9970 1076.00 1088.86 32.80
14601 83.0020 1088.00 1090.71 32.98
14602 83.0070 1073.00 1092.50 32.76
14603 83.0120 1035.00 1094.22 32.17
14604 83.0170 1041.00 1095.87 32.26
14605 83.0220 1035.00 1097.45 32.17
14606 83.0270 1065.00 1098.95 32.63
14607 83.0320 1113.00 1100.37 33.36
14608 83.0370 1139.00 1101.71 33.75
14609 83.0420 1124.00 1102.97 33.53
14610 83.0470 1091.00 1104.13 33.03
14611 83.0520 1071.00 1105.21 32.73
14612 83.0570 1046.00 1106.19 32.34
14613 83.0620 1048.00 1107.07 32.37
14614 83.0670 1071.00 1107.86 32.73
14615 83.0720 1050.00 1108.54 32.40
14616 83.0770 1019.00 1109.12 31.92
14617 83.0820 1024.00 1109.59 32.00
14618 83.0870 1014.00 1109.95 31.84
14619 83.0920 1028.00 1110.20 32.06
14620 83.0970 1043.00 1110.33 32.30
14621 83.1020 1030.00 1110.35 32.09
14622 83.1070 1021.00 1110.26 31.95
14623 83.1120 1063.00 1110.04 32.60
14624 83.1170 1084.00 1109.70 32.92
14625 83.1220 1077.00 1109.25 32.82
14626 83.1270 1062.00 1108.67 32.59
14627 83.1320 1075.00 1107.97 32.79
14628 83.1370 1067.00 1107.15 32.67
14629 83.1420 1056.00 1106.20 32.50
14630 83.1470 1051.00 1105.14 32.42
14631 83.1520 1055.00 1103.94 32.48
14632 83.1570 1045.00 1102.64 32.33
14633 83.1620 1057.00 1101.39 32.51
14634 83.1670 1070.00 1099.84 32.71
14635 83.1720 1085.00 1098.17 32.94
14636 83.1770 1066.00 1096.38 32.65
14637 83.1820 1041.00 1094.50 32.26
14638 83.1870 1021.00 1092.49 31.95
14639 83.1920 1036.00 1090.36 32.19
14640 83.1970 1044.00 1088.12 32.31
14641 83.2020 1060.00 1085.78 32.56
14642 83.2070 1062.00 1083.34 32.59
14643 83.2120 1049.00 1080.79 32.39
14644 83.2170 1044.00 1078.15 32.31
14645 83.2220 1069.00 1075.42 32.70
14646 83.2270 1083.00 1072.59 32.91
14647 83.2320 1087.00 1069.68 32.97
14648 83.2370 1060.00 1067.13 32.56
14649 83.2420 1059.00 1064.05 32.54
14650 83.2470 1048.00 1060.91 32.37
14651 83.2520 1055.00 1057.69 32.48
14652 83.2570 1034.00 1054.40 32.16
14653 83.2620 1005.00 1051.05 31.70
14654 83.2670 972.00 1047.65 31.18
14655 83.2720 1000.00 1044.19 31.62
14656 83.2770 1034.00 1040.68 32.16
14657 83.2820 1030.00 1037.13 32.09
14658 83.2870 1027.00 1033.54 32.05
14659 83.2920 1014.00 1029.90 31.84
14660 83.2970 1011.00 1026.24 31.80
14661 83.3020 1001.00 1022.56 31.64
14662 83.3070 958.00 1018.84 30.95
14663 83.3120 976.00 1015.11 31.24
14664 83.3170 968.00 1011.37 31.11
14665 83.3220 953.00 1007.61 30.87
14666 83.3270 951.00 1003.84 30.84
14667 83.3320 952.00 1000.08 30.85
14668 83.3370 949.00 996.31 30.81
14669 83.3420 952.00 992.55 30.85
14670 83.3470 963.00 988.80 31.03
14671 83.3520 931.00 985.06 30.51
14672 83.3570 917.00 981.33 30.28
14673 83.3620 938.00 977.62 30.63
14674 83.3670 972.00 973.94 31.18
14675 83.3720 974.00 970.28 31.21
14676 83.3770 981.00 966.65 31.32
14677 83.3820 927.00 963.05 30.45
14678 83.3870 903.00 959.48 30.05
14679 83.3920 901.00 955.95 30.02
14680 83.3970 886.00 952.46 29.77
14681 83.4020 886.00 949.01 29.77
14682 83.4070 880.00 945.60 29.66
14683 83.4120 902.00 942.25 30.03
14684 83.4170 905.00 938.93 30.08
14685 83.4220 892.00 935.67 29.87
14686 83.4270 892.00 932.46 29.87
14687 83.4320 879.00 929.30 29.65
14688 83.4370 876.00 926.19 29.60
14689 83.4420 870.00 923.15 29.50
14690 83.4470 889.00 920.16 29.82
14691 83.4520 911.00 917.22 30.18
14692 83.4570 930.00 914.35 30.50
14693 83.4620 917.00 911.54 30.28
14694 83.4670 919.00 908.57 30.32
14695 83.4720 921.00 905.89 30.35
14696 83.4770 906.00 903.27 30.10
14697 83.4820 858.00 900.71 29.29
14698 83.4870 841.00 897.53 29.00
14699 83.4920 831.00 895.11 28.83
14700 83.4970 807.00 892.76 28.41
14701 83.5020 806.00 890.47 28.39
14702 83.5070 818.00 888.25 28.60
14703 83.5120 814.00 886.09 28.53
14704 83.5170 829.00 884.01 28.79
14705 83.5220 857.00 881.99 29.27
14706 83.5270 876.00 880.04 29.60
14707 83.5320 884.00 878.16 29.73
14708 83.5370 861.00 876.35 29.34
14709 83.5420 857.00 875.08 29.27
14710 83.5470 879.00 873.40 29.65
14711 83.5520 890.00 871.80 29.83
14712 83.5570 871.00 870.26 29.51
14713 83.5620 845.00 868.79 29.07
14714 83.5670 840.00 867.39 28.98
14715 83.5720 839.00 866.06 28.97
14716 83.5770 840.00 864.79 28.98
14717 83.5820 856.00 863.59 29.26
14718 83.5870 865.00 862.46 29.41
14719 83.5920 866.00 861.39 29.43
14720 83.5970 862.00 860.39 29.36
14721 83.6020 848.00 859.45 29.12
14722 83.6070 834.00 858.58 28.88
14723 83.6120 833.00 857.76 28.86
14724 83.6170 812.00 857.01 28.50
14725 83.6220 812.00 856.32 28.50
14726 83.6270 824.00 855.69 28.71
14727 83.6320 841.00 855.12 29.00
14728 83.6370 881.00 854.61 29.68
14729 83.6420 872.00 854.15 29.53
14730 83.6470 874.00 853.74 29.56
14731 83.6520 870.00 853.39 29.50
14732 83.6570 889.00 853.09 29.82
14733 83.6620 883.00 852.84 29.72
14734 83.6670 850.00 852.64 29.15
14735 83.6720 860.00 852.48 29.33
14736 83.6770 884.00 852.37 29.73
14737 83.6820 864.00 852.30 29.39
14738 83.6870 848.00 852.27 29.12
14739 83.6920 811.00 852.28 28.48
14740 83.6970 828.00 853.56 28.77
14741 83.7020 838.00 853.64 28.95
14742 83.7070 842.00 853.74 29.02
14743 83.7120 853.00 853.88 29.21
14744 83.7170 855.00 854.04 29.24
14745 83.7220 847.00 854.23 29.10
14746 83.7270 847.00 854.43 29.10
14747 83.7320 866.00 854.65 29.43
14748 83.7370 884.00 854.89 29.73
14749 83.7420 881.00 855.13 29.68
14750 83.7470 855.00 855.39 29.24
14751 83.7520 886.00 855.65 29.77
14752 83.7570 900.00 855.92 30.00
14753 83.7620 893.00 856.18 29.88
14754 83.7670 870.00 856.44 29.50
14755 83.7720 842.00 856.70 29.02
14756 83.7770 826.00 856.95 28.74
14757 83.7820 840.00 857.19 28.98
14758 83.7870 857.00 857.41 29.27
14759 83.7920 868.00 857.62 29.46
14760 83.7970 867.00 857.81 29.44
14761 83.8020 878.00 857.98 29.63
14762 83.8070 865.00 858.12 29.41
14763 83.8120 844.00 858.24 29.05
14764 83.8170 835.00 858.33 28.90
14765 83.8220 863.00 858.39 29.38
14766 83.8270 848.00 858.41 29.12
14767 83.8320 878.00 858.41 29.63
14768 83.8370 874.00 858.36 29.56
14769 83.8420 888.00 858.28 29.80
14770 83.8470 889.00 858.17 29.82
14771 83.8520 881.00 858.01 29.68
14772 83.8570 876.00 857.81 29.60
14773 83.8620 878.00 857.57 29.63
14774 83.8670 867.00 857.33 29.44
14775 83.8720 869.00 857.01 29.48
14776 83.8770 865.00 856.65 29.41
14777 83.8820 874.00 856.24 29.56
14778 83.8870 899.00 855.79 29.98
14779 83.8920 926.00 855.31 30.43
14780 83.8970 901.00 854.78 30.02
14781 83.9020 875.00 854.21 29.58
14782 83.9070 873.00 853.60 29.55
14783 83.9120 882.00 852.96 29.70
14784 83.9170 856.00 852.28 29.26
14785 83.9220 849.00 851.56 29.14
14786 83.9270 869.00 850.81 29.48
14787 83.9320 884.00 850.02 29.73
14788 83.9370 882.00 849.21 29.70
14789 83.9420 861.00 848.37 29.34
14790 83.9470 855.00 847.50 29.24
14791 83.9520 871.00 846.60 29.51
14792 83.9570 898.00 845.69 29.97
14793 83.9620 889.00 844.75 29.82
14794 83.9670 867.00 843.79 29.44
14795 83.9720 852.00 842.82 29.19
14796 83.9770 847.00 841.84 29.10
14797 83.9820 812.00 840.84 28.50
14798 83.9870 833.00 839.83 28.86
14799 83.9920 872.00 838.82 29.53
14800 83.9970 837.00 837.80 28.93
14801 84.0020 845.00 836.78 29.07
14802 84.0070 849.00 835.76 29.14
14803 84.0120 827.00 834.75 28.76
14804 84.0170 817.00 833.73 28.58
14805 84.0220 844.00 832.73 29.05
14806 84.0270 840.00 831.73 28.98
14807 84.0320 826.00 830.75 28.74
14808 84.0370 807.00 829.78 28.41
14809 84.0420 775.00 828.82 27.84
14810 84.0470 779.00 827.88 27.91
14811 84.0520 825.00 826.96 28.72
14812 84.0570 847.00 826.06 29.10
14813 84.0620 841.00 825.18 29.00
14814 84.0670 819.00 824.33 28.62
14815 84.0720 800.00 823.51 28.28
14816 84.0770 822.00 822.71 28.67
14817 84.0820 817.00 821.94 28.58
14818 84.0870 811.00 821.21 28.48
14819 84.0920 809.00 820.50 28.44
14820 84.0970 827.00 819.16 28.76
14821 84.1020 828.00 818.53 28.77
14822 84.1070 820.00 817.93 28.64
14823 84.1120 806.00 817.37 28.39
14824 84.1170 797.00 816.83 28.23
14825 84.1220 817.00 816.34 28.58
14826 84.1270 815.00 815.90 28.55
14827 84.1320 828.00 814.74 28.77
14828 84.1370 836.00 814.38 28.91
14829 84.1420 832.00 814.07 28.84
14830 84.1470 806.00 813.80 28.39
14831 84.1520 802.00 813.58 28.32
14832 84.1570 804.00 813.40 28.35
14833 84.1620 795.00 813.27 28.20
14834 84.1670 813.00 813.18 28.51
14835 84.1720 829.00 813.14 28.79
14836 84.1770 804.00 813.15 28.35
14837 84.1820 795.00 813.21 28.20
14838 84.1870 812.00 813.32 28.50
14839 84.1920 834.00 813.47 28.88
14840 84.1970 834.00 813.68 28.88
14841 84.2020 802.00 813.93 28.32
14842 84.2070 824.00 814.13 28.71
14843 84.2120 831.00 814.48 28.83
14844 84.2170 819.00 814.89 28.62
14845 84.2220 823.00 815.34 28.69
14846 84.2270 825.00 815.85 28.72
14847 84.2320 816.00 816.40 28.57
14848 84.2370 794.00 817.01 28.18
14849 84.2420 779.00 817.66 27.91
14850 84.2470 796.00 818.37 28.21
14851 84.2520 851.00 819.13 29.17
14852 84.2570 854.00 819.94 29.22
14853 84.2620 832.00 820.80 28.84
14854 84.2670 820.00 821.71 28.64
14855 84.2720 805.00 822.67 28.37
14856 84.2770 803.00 823.69 28.34
14857 84.2820 799.00 824.75 28.27
14858 84.2870 804.00 825.86 28.35
14859 84.2920 819.00 827.03 28.62
14860 84.2970 835.00 828.24 28.90
14861 84.3020 840.00 829.51 28.98
14862 84.3070 808.00 830.83 28.43
14863 84.3120 812.00 832.20 28.50
14864 84.3170 820.00 833.63 28.64
14865 84.3220 861.00 835.10 29.34
14866 84.3270 879.00 836.63 29.65
14867 84.3320 863.00 838.21 29.38
14868 84.3370 847.00 839.84 29.10
14869 84.3420 839.00 841.53 28.97
14870 84.3470 843.00 843.27 29.03
14871 84.3520 851.00 845.07 29.17
14872 84.3570 849.00 846.92 29.14
14873 84.3620 856.00 848.83 29.26
14874 84.3670 855.00 850.80 29.24
14875 84.3720 849.00 852.82 29.14
14876 84.3770 875.00 854.91 29.58
14877 84.3820 898.00 857.05 29.97
14878 84.3870 900.00 859.26 30.00
14879 84.3920 905.00 861.53 30.08
14880 84.3970 904.00 863.86 30.07
14881 84.4020 901.00 866.27 30.02
14882 84.4070 897.00 868.74 29.95
14883 84.4120 921.00 871.29 30.35
14884 84.4170 930.00 873.91 30.50
14885 84.4220 924.00 876.60 30.40
14886 84.4270 927.00 879.38 30.45
14887 84.4320 947.00 882.24 30.77
14888 84.4370 965.00 885.18 31.06
14889 84.4420 966.00 888.22 31.08
14890 84.4470 966.00 891.34 31.08
14891 84.4520 970.00 894.57 31.14
14892 84.4570 954.00 897.89 30.89
14893 84.4620 927.00 901.32 30.45
14894 84.4670 926.00 904.86 30.43
14895 84.4720 943.00 908.51 30.71
14896 84.4770 928.00 912.29 30.46
14897 84.4820 919.00 916.19 30.32
14898 84.4870 927.00 920.22 30.45
14899 84.4920 946.00 924.40 30.76
14900 84.4970 936.00 928.71 30.59
14901 84.5020 942.00 933.18 30.69
14902 84.5070 943.00 937.81 30.71
14903 84.5120 945.00 942.61 30.74
14904 84.5170 964.00 947.57 31.05
14905 84.5220 977.00 952.72 31.26
14906 84.5270 988.00 958.06 31.43
14907 84.5320 1004.00 963.60 31.69
14908 84.5370 1011.00 969.33 31.80
14909 84.5420 1051.00 975.30 32.42
14910 84.5470 1076.00 981.49 32.80
14911 84.5520 1051.00 987.90 32.42
14912 84.5570 1039.00 994.58 32.23
14913 84.5620 1041.00 1001.50 32.26
14914 84.5670 1055.00 1008.67 32.48
14915 84.5720 1042.00 1016.13 32.28
14916 84.5770 1036.00 1023.87 32.19
14917 84.5820 1033.00 1031.90 32.14
14918 84.5870 1054.00 1040.22 32.47
14919 84.5920 1062.00 1048.86 32.59
14920 84.5970 1052.00 1057.80 32.43
14921 84.6020 1051.00 1067.06 32.42
14922 84.6070 1053.00 1076.65 32.45
14923 84.6120 1060.00 1086.56 32.56
14924 84.6170 1092.00 1096.79 33.05
14925 84.6220 1118.00 1107.30 33.44
14926 84.6270 1136.00 1118.18 33.70
14927 84.6320 1153.00 1129.34 33.96
14928 84.6370 1138.00 1140.81 33.73
14929 84.6420 1158.00 1152.54 34.03
14930 84.6470 1194.00 1164.49 34.55
14931 84.6520 1189.00 1176.69 34.48
14932 84.6570 1192.00 1189.04 34.53
14933 84.6620 1201.00 1201.50 34.66
14934 84.6670 1210.00 1214.06 34.79
14935 84.6720 1256.00 1226.60 35.44
14936 84.6770 1276.00 1239.05 35.72
14937 84.6820 1283.00 1251.39 35.82
14938 84.6870 1277.00 1263.47 35.74
14939 84.6920 1268.00 1275.20 35.61
14940 84.6970 1271.00 1286.53 35.65
14941 84.7020 1259.00 1297.31 35.48
14942 84.7070 1251.00 1307.47 35.37
14943 84.7120 1285.00 1316.90 35.85
14944 84.7170 1326.00 1325.53 36.41
14945 84.7220 1331.00 1333.28 36.48
14946 84.7270 1362.00 1340.06 36.91
14947 84.7320 1418.00 1345.87 37.66
14948 84.7370 1407.00 1350.66 37.51
14949 84.7420 1388.00 1354.42 37.26
14950 84.7470 1391.00 1357.18 37.30
14951 84.7520 1405.00 1358.96 37.48
14952 84.7570 1405.00 1359.82 37.48
14953 84.7620 1397.00 1359.82 37.38
14954 84.7670 1392.00 1359.04 37.31
14955 84.7720 1399.00 1357.56 37.40
14956 84.7770 1395.00 1355.49 37.35
14957 84.7820 1380.00 1352.91 37.15
14958 84.7870 1363.00 1349.93 36.92
14959 84.7920 1372.00 1346.62 37.04
14960 84.7970 1405.00 1343.08 37.48
14961 84.8020 1401.00 1339.40 37.43
14962 84.8070 1377.00 1335.63 37.11
14963 84.8120 1381.00 1331.85 37.16
14964 84.8170 1374.00 1328.12 37.07
14965 84.8220 1373.00 1324.47 37.05
14966 84.8270 1392.00 1320.96 37.31
14967 84.8320 1383.00 1317.59 37.19
14968 84.8370 1384.00 1314.43 37.20
14969 84.8420 1408.00 1311.48 37.52
14970 84.8470 1444.00 1308.74 38.00
14971 84.8520 1475.00 1306.25 38.41
14972 84.8570 1445.00 1303.99 38.01
14973 84.8620 1428.00 1301.97 37.79
14974 84.8670 1434.00 1300.20 37.87
14975 84.8720 1417.00 1298.66 37.64
14976 84.8770 1419.00 1297.35 37.67
14977 84.8820 1432.00 1296.28 37.84
14978 84.8870 1425.00 1295.42 37.75
14979 84.8920 1414.00 1294.78 37.60
14980 84.8970 1319.00 1294.35 36.32
14981 84.9020 1339.00 1294.11 36.59
14982 84.9070 1351.00 1294.06 36.76
14983 84.9120 1363.00 1294.19 36.92
14984 84.9170 1357.00 1294.49 36.84
14985 84.9220 1345.00 1294.95 36.67
14986 84.9270 1344.00 1295.56 36.66
14987 84.9320 1345.00 1296.32 36.67
14988 84.9370 1360.00 1297.22 36.88
14989 84.9420 1360.00 1298.24 36.88
14990 84.9470 1353.00 1299.38 36.78
14991 84.9520 1335.00 1300.42 36.54
14992 84.9570 1343.00 1301.78 36.65
14993 84.9620 1346.00 1303.14 36.69
14994 84.9670 1327.00 1304.69 36.43
14995 84.9720 1333.00 1306.33 36.51
14996 84.9770 1353.00 1308.05 36.78
14997 84.9820 1350.00 1309.84 36.74
14998 84.9870 1326.00 1311.70 36.41
14999 84.9920 1297.00 1313.62 36.01
15000 84.9970 1284.00 1315.60 35.83
15001 85.0020 1290.00 1317.64 35.92
15002 85.0070 1309.00 1319.71 36.18
15003 85.0120 1326.00 1321.83 36.41
15004 85.0170 1334.00 1323.99 36.52
15005 85.0220 1329.00 1326.18 36.46
15006 85.0270 1332.00 1328.39 36.50
15007 85.0320 1341.00 1330.62 36.62
15008 85.0370 1342.00 1332.87 36.63
15009 85.0420 1364.00 1335.13 36.93
15010 85.0470 1361.00 1337.40 36.89
15011 85.0520 1350.00 1340.84 36.74
15012 85.0570 1322.00 1343.10 36.36
15013 85.0620 1327.00 1345.34 36.43
15014 85.0670 1341.00 1347.56 36.62
15015 85.0720 1361.00 1349.76 36.89
15016 85.0770 1364.00 1351.91 36.93
15017 85.0820 1346.00 1354.03 36.69
15018 85.0870 1321.00 1356.10 36.35
15019 85.0920 1337.00 1358.11 36.56
15020 85.0970 1349.00 1360.06 36.73
15021 85.1020 1389.00 1361.93 37.27
15022 85.1070 1380.00 1363.71 37.15
15023 85.1120 1336.00 1365.41 36.55
15024 85.1170 1313.00 1367.00 36.24
15025 85.1220 1329.00 1368.48 36.46
15026 85.1270 1361.00 1369.85 36.89
15027 85.1320 1375.00 1371.07 37.08
15028 85.1370 1377.00 1372.16 37.11
15029 85.1420 1382.00 1373.10 37.18
15030 85.1470 1374.00 1373.87 37.07
15031 85.1520 1372.00 1374.47 37.04
15032 85.1570 1387.00 1374.89 37.24
15033 85.1620 1414.00 1375.11 37.60
15034 85.1670 1412.00 1375.14 37.58
15035 85.1720 1371.00 1374.95 37.03
15036 85.1770 1365.00 1374.54 36.95
15037 85.1820 1366.00 1373.91 36.96
15038 85.1870 1361.00 1373.04 36.89
15039 85.1920 1378.00 1371.93 37.12
15040 85.1970 1371.00 1370.56 37.03
15041 85.2020 1351.00 1368.95 36.76
15042 85.2070 1355.00 1367.08 36.81
15043 85.2120 1363.00 1364.95 36.92
15044 85.2170 1348.00 1362.57 36.72
15045 85.2220 1353.00 1359.91 36.78
15046 85.2270 1325.00 1357.00 36.40
15047 85.2320 1320.00 1353.83 36.33
15048 85.2370 1336.00 1350.39 36.55
15049 85.2420 1353.00 1348.15 36.78
15050 85.2470 1339.00 1344.23 36.59
15051 85.2520 1330.00 1340.06 36.47
15052 85.2570 1328.00 1335.65 36.44
15053 85.2620 1325.00 1331.02 36.40
15054 85.2670 1309.00 1326.17 36.18
15055 85.2720 1300.00 1321.12 36.06
15056 85.2770 1300.00 1315.87 36.06
15057 85.2820 1293.00 1310.43 35.96
15058 85.2870 1282.00 1304.81 35.81
15059 85.2920 1270.00 1299.03 35.64
15060 85.2970 1288.00 1293.11 35.89
15061 85.3020 1304.00 1287.04 36.11
15062 85.3070 1302.00 1280.84 36.08
15063 85.3120 1294.00 1274.54 35.97
15064 85.3170 1287.00 1268.14 35.87
15065 85.3220 1281.00 1261.64 35.79
15066 85.3270 1254.00 1255.08 35.41
15067 85.3320 1229.00 1248.44 35.06
15068 85.3370 1241.00 1241.75 35.23
15069 85.3420 1264.00 1235.04 35.55
15070 85.3470 1244.00 1228.28 35.27
15071 85.3520 1220.00 1221.51 34.93
15072 85.3570 1211.00 1214.74 34.80
15073 85.3620 1214.00 1207.95 34.84
15074 85.3670 1202.00 1201.19 34.67
15075 85.3720 1180.00 1194.46 34.35
15076 85.3770 1172.00 1187.74 34.23
15077 85.3820 1160.00 1181.07 34.06
15078 85.3870 1157.00 1174.43 34.01
15079 85.3920 1134.00 1167.87 33.67
15080 85.3970 1139.00 1161.36 33.75
15081 85.4020 1131.00 1154.91 33.63
15082 85.4070 1111.00 1148.55 33.33
15083 85.4120 1107.00 1142.26 33.27
15084 85.4170 1109.00 1136.06 33.30
15085 85.4220 1096.00 1129.95 33.11
15086 85.4270 1087.00 1123.94 32.97
15087 85.4320 1106.00 1118.02 33.26
15088 85.4370 1113.00 1112.22 33.36
15089 85.4420 1097.00 1106.52 33.12
15090 85.4470 1069.00 1101.46 32.70
15091 85.4520 1034.00 1096.00 32.16
15092 85.4570 1014.00 1090.65 31.84
15093 85.4620 1018.00 1085.43 31.91
15094 85.4670 998.00 1080.34 31.59
15095 85.4720 983.00 1075.37 31.35
15096 85.4770 973.00 1070.53 31.19
15097 85.4820 967.00 1065.83 31.10
15098 85.4870 952.00 1061.26 30.85
15099 85.4920 936.00 1056.82 30.59
15100 85.4970 965.00 1052.53 31.06
15101 85.5020 973.00 1048.37 31.19
15102 85.5070 960.00 1044.36 30.98
15103 85.5120 942.00 1040.48 30.69
15104 85.5170 908.00 1036.76 30.13
15105 85.5220 907.00 1033.18 30.12
15106 85.5270 917.00 1029.73 30.28
15107 85.5320 919.00 1026.45 30.32
15108 85.5370 943.00 1023.30 30.71
15109 85.5420 955.00 1020.30 30.90
15110 85.5470 979.00 1017.45 31.29
15111 85.5520 972.00 1014.67 31.18
15112 85.5570 929.00 1012.66 30.48
15113 85.5620 909.00 1010.26 30.15
15114 85.5670 921.00 1007.99 30.35
15115 85.5720 912.00 1005.87 30.20
15116 85.5770 895.00 1003.91 29.92
15117 85.5820 878.00 1002.08 29.63
15118 85.5870 884.00 1000.41 29.73
15119 85.5920 904.00 998.88 30.07
15120 85.5970 893.00 997.49 29.88
15121 85.6020 881.00 996.25 29.68
15122 85.6070 860.00 995.16 29.33
15123 85.6120 865.00 994.20 29.41
15124 85.6170 900.00 993.39 30.00
15125 85.6220 911.00 992.72 30.18
15126 85.6270 893.00 992.20 29.88
15127 85.6320 873.00 991.81 29.55
15128 85.6370 893.00 991.56 29.88
15129 85.6420 920.00 991.45 30.33
15130 85.6470 925.00 991.48 30.41
15131 85.6520 923.00 991.64 30.38
15132 85.6570 926.00 991.93 30.43
15133 85.6620 920.00 992.37 30.33
15134 85.6670 906.00 992.93 30.10
15135 85.6720 900.00 993.62 30.00
15136 85.6770 910.00 994.45 30.17
15137 85.6820 929.00 995.40 30.48
15138 85.6870 925.00 996.48 30.41
15139 85.6920 909.00 997.68 30.15
15140 85.6970 908.00 999.01 30.13
15141 85.7020 894.00 1000.46 29.90
15142 85.7070 893.00 1002.04 29.88
15143 85.7120 909.00 1003.73 30.15
15144 85.7170 895.00 1005.54 29.92
15145 85.7220 901.00 1007.47 30.02
15146 85.7270 928.00 1009.51 30.46
15147 85.7320 928.00 1011.67 30.46
15148 85.7370 928.00 1013.94 30.46
15149 85.7420 946.00 1016.31 30.76
15150 85.7470 946.00 1018.80 30.76
15151 85.7520 939.00 1021.39 30.64
15152 85.7570 946.00 1024.09 30.76
15153 85.7620 961.00 1026.89 31.00
15154 85.7670 966.00 1029.78 31.08
15155 85.7720 946.00 1032.78 30.76
15156 85.7770 930.00 1035.88 30.50
15157 85.7820 937.00 1039.07 30.61
15158 85.7870 940.00 1042.34 30.66
15159 85.7920 953.00 1045.72 30.87
15160 85.7970 983.00 1049.18 31.35
15161 85.8020 995.00 1052.62 31.54
15162 85.8070 1001.00 1056.22 31.64
15163 85.8120 1002.00 1059.93 31.65
15164 85.8170 972.00 1063.66 31.18
15165 85.8220 955.00 1067.53 30.90
15166 85.8270 960.00 1071.47 30.98
15167 85.8320 962.00 1075.48 31.02
15168 85.8370 980.00 1079.55 31.31
15169 85.8420 1016.00 1083.70 31.87
15170 85.8470 1037.00 1087.90 32.20
15171 85.8520 1048.00 1092.17 32.37
15172 85.8570 1061.00 1096.49 32.57
15173 85.8620 1034.00 1100.88 32.16
15174 85.8670 1013.00 1105.30 31.83
15175 85.8720 1018.00 1109.78 31.91
15176 85.8770 998.00 1114.30 31.59
15177 85.8820 978.00 1118.86 31.27
15178 85.8870 990.00 1123.46 31.46
15179 85.8920 1026.00 1128.10 32.03
15180 85.8970 1052.00 1132.76 32.43
15181 85.9020 1062.00 1137.15 32.59
15182 85.9070 1067.00 1141.87 32.67
15183 85.9120 1079.00 1146.60 32.85
15184 85.9170 1087.00 1151.36 32.97
15185 85.9220 1090.00 1156.12 33.02
15186 85.9270 1097.00 1160.89 33.12
15187 85.9320 1109.00 1165.67 33.30
15188 85.9370 1121.00 1170.45 33.48
15189 85.9420 1154.00 1175.19 33.97
15190 85.9470 1198.00 1179.96 34.61
15191 85.9520 1204.00 1184.71 34.70
15192 85.9570 1191.00 1189.45 34.51
15193 85.9620 1176.00 1194.16 34.29
15194 85.9670 1167.00 1198.85 34.16
15195 85.9720 1171.00 1203.51 34.22
15196 85.9770 1180.00 1208.13 34.35
15197 85.9820 1182.00 1212.71 34.38
15198 85.9870 1155.00 1217.26 33.99
15199 85.9920 1134.00 1221.74 33.67
15200 85.9970 1162.00 1226.18 34.09
15201 86.0020 1196.00 1230.57 34.58
15202 86.0070 1193.00 1234.89 34.54
15203 86.0120 1207.00 1239.15 34.74
15204 86.0170 1256.00 1243.13 35.44
15205 86.0220 1277.00 1247.24 35.74
15206 86.0270 1278.00 1251.29 35.75
15207 86.0320 1282.00 1255.24 35.81
15208 86.0370 1289.00 1259.11 35.90
15209 86.0420 1277.00 1262.90 35.74
15210 86.0470 1266.00 1266.60 35.58
15211 86.0520 1267.00 1270.19 35.59
15212 86.0570 1266.00 1273.70 35.58
15213 86.0620 1259.00 1277.10 35.48
15214 86.0670 1258.00 1280.39 35.47
15215 86.0720 1268.00 1283.59 35.61
15216 86.0770 1265.00 1286.67 35.57
15217 86.0820 1241.00 1289.65 35.23
15218 86.0870 1231.00 1292.50 35.09
15219 86.0920 1253.00 1295.25 35.40
15220 86.0970 1263.00 1297.89 35.54
15221 86.1020 1275.00 1300.40 35.71
15222 86.1070 1292.00 1302.80 35.94
15223 86.1120 1293.00 1305.09 35.96
15224 86.1170 1292.00 1307.25 35.94
15225 86.1220 1319.00 1309.30 36.32
15226 86.1270 1337.00 1311.23 36.56
15227 86.1320 1331.00 1313.04 36.48
15228 86.1370 1341.00 1314.74 36.62
15229 86.1420 1335.00 1316.32 36.54
15230 86.1470 1312.00 1317.79 36.22
15231 86.1520 1324.00 1318.64 36.39
15232 86.1570 1349.00 1319.89 36.73
15233 86.1620 1323.00 1321.02 36.37
15234 86.1670 1270.00 1322.04 35.64
15235 86.1720 1263.00 1322.96 35.54
15236 86.1770 1292.00 1323.77 35.94
15237 86.1820 1301.00 1324.48 36.07
15238 86.1870 1299.00 1325.09 36.04
15239 86.1920 1295.00 1325.60 35.99
15240 86.1970 1300.00 1326.02 36.06
15241 86.2020 1309.00 1326.34 36.18
15242 86.2070 1297.00 1326.58 36.01
15243 86.2120 1287.00 1326.72 35.87
15244 86.2170 1307.00 1326.78 36.15
15245 86.2220 1325.00 1326.76 36.40
15246 86.2270 1330.00 1326.66 36.47
15247 86.2320 1323.00 1326.49 36.37
15248 86.2370 1304.00 1326.24 36.11
15249 86.2420 1303.00 1325.93 36.10
15250 86.2470 1317.00 1325.54 36.29
15251 86.2520 1306.00 1325.09 36.14
15252 86.2570 1298.00 1324.58 36.03
15253 86.2620 1301.00 1324.01 36.07
15254 86.2670 1300.00 1323.38 36.06
15255 86.2720 1282.00 1322.70 35.81
15256 86.2770 1263.00 1321.97 35.54
15257 86.2820 1265.00 1321.18 35.57
15258 86.2870 1264.00 1320.35 35.55
15259 86.2920 1261.00 1319.48 35.51
15260 86.2970 1253.00 1318.56 35.40
15261 86.3020 1228.00 1317.60 35.04
15262 86.3070 1224.00 1316.60 34.99
15263 86.3120 1238.00 1315.57 35.19
15264 86.3170 1231.00 1314.50 35.09
15265 86.3220 1206.00 1313.40 34.73
15266 86.3270 1206.00 1312.27 34.73
15267 86.3320 1223.00 1311.10 34.97
15268 86.3370 1222.00 1309.91 34.96
15269 86.3420 1211.00 1308.88 34.80
15270 86.3470 1201.00 1307.63 34.66
15271 86.3520 1180.00 1306.36 34.35
15272 86.3570 1179.00 1305.08 34.34
15273 86.3620 1198.00 1303.76 34.61
15274 86.3670 1197.00 1302.43 34.60
15275 86.3720 1203.00 1301.08 34.68
15276 86.3770 1192.00 1299.70 34.53
15277 86.3820 1165.00 1298.31 34.13
15278 86.3870 1183.00 1296.90 34.39
15279 86.3920 1200.00 1295.47 34.64
15280 86.3970 1209.00 1294.02 34.77
15281 86.4020 1230.00 1292.55 35.07
15282 86.4070 1232.00 1291.07 35.10
15283 86.4120 1209.00 1289.57 34.77
15284 86.4170 1200.00 1288.05 34.64
15285 86.4220 1195.00 1286.52 34.57
15286 86.4270 1187.00 1284.96 34.45
15287 86.4320 1182.00 1283.39 34.38
15288 86.4370 1177.00 1281.80 34.31
15289 86.4420 1175.00 1280.19 34.28
15290 86.4470 1170.00 1278.56 34.21
15291 86.4520 1160.00 1276.91 34.06
15292 86.4570 1165.00 1275.24 34.13
15293 86.4620 1184.00 1273.54 34.41
15294 86.4670 1211.00 1271.83 34.80
15295 86.4720 1224.00 1270.08 34.99
15296 86.4770 1222.00 1268.32 34.96
15297 86.4820 1209.00 1266.53 34.77
15298 86.4870 1198.00 1264.70 34.61
15299 86.4920 1216.00 1262.86 34.87
15300 86.4970 1221.00 1260.98 34.94
15301 86.5020 1195.00 1259.08 34.57
15302 86.5070 1187.00 1257.14 34.45
15303 86.5120 1175.00 1255.17 34.28
15304 86.5170 1164.00 1253.17 34.12
15305 86.5220 1170.00 1251.13 34.21
15306 86.5270 1172.00 1248.98 34.23
15307 86.5320 1179.00 1246.88 34.34
15308 86.5370 1206.00 1244.74 34.73
15309 86.5420 1200.00 1242.07 34.64
15310 86.5470 1169.00 1239.86 34.19
15311 86.5520 1159.00 1237.61 34.04
15312 86.5570 1156.00 1235.32 34.00
15313 86.5620 1161.00 1233.00 34.07
15314 86.5670 1180.00 1230.64 34.35
15315 86.5720 1190.00 1228.24 34.50
15316 86.5770 1196.00 1225.80 34.58
15317 86.5820 1192.00 1223.33 34.53
15318 86.5870 1169.00 1220.82 34.19
15319 86.5920 1193.00 1218.28 34.54
15320 86.5970 1216.00 1215.70 34.87
15321 86.6020 1221.00 1213.10 34.94
15322 86.6070 1206.00 1210.46 34.73
15323 86.6120 1158.00 1207.79 34.03
15324 86.6170 1134.00 1205.10 33.67
15325 86.6220 1122.00 1202.38 33.50
15326 86.6270 1113.00 1199.62 33.36
15327 86.6320 1115.00 1196.85 33.39
15328 86.6370 1131.00 1194.04 33.63
15329 86.6420 1142.00 1191.24 33.79
15330 86.6470 1170.00 1188.42 34.21
15331 86.6520 1187.00 1185.58 34.45
15332 86.6570 1184.00 1182.74 34.41
15333 86.6620 1177.00 1179.89 34.31
15334 86.6670 1165.00 1177.03 34.13
15335 86.6720 1155.00 1174.18 33.99
15336 86.6770 1155.00 1171.32 33.99
15337 86.6820 1149.00 1168.47 33.90
15338 86.6870 1168.00 1165.63 34.18
15339 86.6920 1186.00 1162.80 34.44
15340 86.6970 1172.00 1159.98 34.23
15341 86.7020 1148.00 1157.18 33.88
15342 86.7070 1149.00 1154.40 33.90
15343 86.7120 1150.00 1151.64 33.91
15344 86.7170 1151.00 1147.70 33.93
15345 86.7220 1159.00 1145.00 34.04
15346 86.7270 1189.00 1142.34 34.48
15347 86.7320 1196.00 1139.71 34.58
15348 86.7370 1186.00 1137.11 34.44
15349 86.7420 1154.00 1134.56 33.97
15350 86.7470 1121.00 1132.05 33.48
15351 86.7520 1112.00 1129.71 33.35
15352 86.7570 1139.00 1127.29 33.75
15353 86.7620 1143.00 1124.92 33.81
15354 86.7670 1121.00 1122.60 33.48
15355 86.7720 1104.00 1120.33 33.23
15356 86.7770 1084.00 1118.12 32.92
15357 86.7820 1093.00 1115.97 33.06
15358 86.7870 1105.00 1113.87 33.24
15359 86.7920 1093.00 1111.83 33.06
15360 86.7970 1077.00 1109.86 32.82
15361 86.8020 1070.00 1107.95 32.71
15362 86.8070 1027.00 1106.10 32.05
15363 86.8120 1018.00 1104.31 31.91
15364 86.8170 1007.00 1102.60 31.73
15365 86.8220 1041.00 1100.93 32.26
15366 86.8270 1093.00 1099.35 33.06
15367 86.8320 1108.00 1097.84 33.29
15368 86.8370 1101.00 1096.39 33.18
15369 86.8420 1051.00 1095.01 32.42
15370 86.8470 1054.00 1093.70 32.47
15371 86.8520 1056.00 1092.45 32.50
15372 86.8570 1048.00 1091.28 32.37
15373 86.8620 1032.00 1090.17 32.12
15374 86.8670 1018.00 1089.14 31.91
15375 86.8720 999.00 1088.16 31.61
15376 86.8770 1016.00 1087.26 31.87
15377 86.8820 1034.00 1086.42 32.16
15378 86.8870 1063.00 1085.65 32.60
15379 86.8920 1076.00 1084.94 32.80
15380 86.8970 1048.00 1084.30 32.37
15381 86.9020 1026.00 1083.71 32.03
15382 86.9070 1029.00 1083.19 32.08
15383 86.9120 1027.00 1082.72 32.05
15384 86.9170 1018.00 1082.31 31.91
15385 86.9220 1009.00 1081.96 31.76
15386 86.9270 999.00 1081.66 31.61
15387 86.9320 1023.00 1081.41 31.98
15388 86.9370 1055.00 1081.22 32.48
15389 86.9420 1060.00 1081.07 32.56
15390 86.9470 1058.00 1080.96 32.53
15391 86.9520 1053.00 1080.88 32.45
15392 86.9570 1033.00 1080.85 32.14
15393 86.9620 1033.00 1080.87 32.14
15394 86.9670 1049.00 1080.92 32.39
15395 86.9720 1050.00 1081.00 32.40
15396 86.9770 1029.00 1081.11 32.08
15397 86.9820 1033.00 1081.24 32.14
15398 86.9870 1022.00 1081.40 31.97
15399 86.9920 1025.00 1081.58 32.02
15400 86.9970 1009.00 1081.78 31.76
15401 87.0020 1017.00 1081.99 31.89
15402 87.0070 1040.00 1082.21 32.25
15403 87.0120 1008.00 1082.45 31.75
15404 87.0170 975.00 1082.69 31.23
15405 87.0220 987.00 1082.93 31.42
15406 87.0270 1008.00 1083.17 31.75
15407 87.0320 1028.00 1083.41 32.06
15408 87.0370 1065.00 1083.65 32.63
15409 87.0420 1054.00 1083.88 32.47
15410 87.0470 1039.00 1084.05 32.23
15411 87.0520 1024.00 1084.26 32.00
15412 87.0570 1023.00 1084.46 31.98
15413 87.0620 1015.00 1084.65 31.86
15414 87.0670 1034.00 1084.82 32.16
15415 87.0720 1072.00 1084.98 32.74
15416 87.0770 1050.00 1085.11 32.40
15417 87.0820 1041.00 1085.23 32.26
15418 87.0870 1016.00 1085.35 31.87
15419 87.0920 1026.00 1085.59 32.03
15420 87.0970 1035.00 1085.65 32.17
15421 87.1020 1021.00 1085.69 31.95
15422 87.1070 1024.00 1085.72 32.00
15423 87.1120 1050.00 1085.72 32.40
15424 87.1170 1038.00 1085.71 32.22
15425 87.1220 1024.00 1085.69 32.00
15426 87.1270 1039.00 1085.64 32.23
15427 87.1320 1043.00 1085.59 32.30
15428 87.1370 1039.00 1085.52 32.23
15429 87.1420 1039.00 1085.45 32.23
15430 87.1470 1058.00 1085.36 32.53
15431 87.1520 1068.00 1085.27 32.68
15432 87.1570 1088.00 1085.18 32.98
15433 87.1620 1074.00 1085.09 32.77
15434 87.1670 1076.00 1085.00 32.80
15435 87.1720 1060.00 1084.91 32.56
15436 87.1770 1071.00 1084.83 32.73
15437 87.1820 1089.00 1084.76 33.00
15438 87.1870 1134.00 1084.69 33.67
15439 87.1920 1145.00 1084.65 33.84
15440 87.1970 1107.00 1084.62 33.27
15441 87.2020 1119.00 1084.63 33.45
15442 87.2070 1124.00 1084.65 33.53
15443 87.2120 1094.00 1084.70 33.08
15444 87.2170 1064.00 1084.78 32.62
15445 87.2220 1069.00 1084.89 32.70
15446 87.2270 1086.00 1085.04 32.95
15447 87.2320 1094.00 1085.22 33.08
15448 87.2370 1085.00 1085.45 32.94
15449 87.2420 1115.00 1085.72 33.39
15450 87.2470 1148.00 1086.03 33.88
15451 87.2520 1099.00 1086.39 33.15
15452 87.2570 1077.00 1086.80 32.82
15453 87.2620 1101.00 1087.26 33.18
15454 87.2670 1111.00 1087.78 33.33
15455 87.2720 1098.00 1088.35 33.14
15456 87.2770 1098.00 1088.97 33.14
15457 87.2820 1083.00 1089.66 32.91
15458 87.2870 1047.00 1090.40 32.36
15459 87.2920 1048.00 1091.20 32.37
15460 87.2970 1094.00 1092.07 33.08
15461 87.3020 1095.00 1093.00 33.09
15462 87.3070 1073.00 1094.00 32.76
15463 87.3120 1063.00 1095.05 32.60
15464 87.3170 1071.00 1096.18 32.73
15465 87.3220 1057.00 1097.37 32.51
15466 87.3270 1047.00 1098.63 32.36
15467 87.3320 1076.00 1099.96 32.80
15468 87.3370 1093.00 1101.35 33.06
15469 87.3420 1079.00 1102.81 32.85
15470 87.3470 1125.00 1104.34 33.54
15471 87.3520 1120.00 1105.93 33.47
15472 87.3570 1106.00 1107.60 33.26
15473 87.3620 1071.00 1109.33 32.73
15474 87.3670 1076.00 1111.13 32.80
15475 87.3720 1079.00 1113.00 32.85
15476 87.3770 1113.00 1114.93 33.36
15477 87.3820 1136.00 1116.93 33.70
15478 87.3870 1115.00 1118.99 33.39
15479 87.3920 1133.00 1121.12 33.66
15480 87.3970 1138.00 1123.31 33.73
15481 87.4020 1141.00 1125.56 33.78
15482 87.4070 1138.00 1127.88 33.73
15483 87.4120 1110.00 1130.25 33.32
15484 87.4170 1124.00 1132.69 33.53
15485 87.4220 1145.00 1135.18 33.84
15486 87.4270 1150.00 1137.73 33.91
15487 87.4320 1137.00 1140.33 33.72
15488 87.4370 1134.00 1142.99 33.67
15489 87.4420 1196.00 1145.70 34.58
15490 87.4470 1216.00 1148.46 34.87
15491 87.4520 1209.00 1151.28 34.77
15492 87.4570 1230.00 1154.14 35.07
15493 87.4620 1197.00 1157.04 34.60
15494 87.4670 1239.00 1159.98 35.20
15495 87.4720 1254.00 1162.98 35.41
15496 87.4770 1249.00 1166.00 35.34
15497 87.4820 1184.00 1169.06 34.41
15498 87.4870 1167.00 1172.17 34.16
15499 87.4920 1215.00 1175.30 34.86
15500 87.4970 1207.00 1178.45 34.74
15501 87.5020 1218.00 1181.65 34.90
15502 87.5070 1220.00 1184.86 34.93
15503 87.5120 1221.00 1188.09 34.94
15504 87.5170 1199.00 1191.34 34.63
15505 87.5220 1242.00 1194.60 35.24
15506 87.5270 1233.00 1197.88 35.11
15507 87.5320 1229.00 1201.16 35.06
15508 87.5370 1220.00 1204.45 34.93
15509 87.5420 1240.00 1207.74 35.21
15510 87.5470 1212.00 1211.02 34.81
15511 87.5520 1257.00 1214.30 35.45
15512 87.5570 1282.00 1217.57 35.81
15513 87.5620 1297.00 1220.83 36.01
15514 87.5670 1312.00 1224.06 36.22
15515 87.5720 1278.00 1227.28 35.75
15516 87.5770 1300.00 1230.46 36.06
15517 87.5820 1316.00 1233.62 36.28
15518 87.5870 1312.00 1236.73 36.22
15519 87.5920 1294.00 1239.81 35.97
15520 87.5970 1290.00 1242.84 35.92
15521 87.6020 1298.00 1245.82 36.03
15522 87.6070 1333.00 1248.74 36.51
15523 87.6120 1308.00 1251.61 36.17
15524 87.6170 1324.00 1254.41 36.39
15525 87.6220 1313.00 1257.14 36.24
15526 87.6270 1309.00 1259.80 36.18
15527 87.6320 1354.00 1262.39 36.80
15528 87.6370 1395.00 1264.89 37.35
15529 87.6420 1409.00 1267.30 37.54
15530 87.6470 1386.00 1269.63 37.23
15531 87.6520 1381.00 1271.86 37.16
15532 87.6570 1366.00 1273.99 36.96
15533 87.6620 1344.00 1276.02 36.66
15534 87.6670 1363.00 1277.95 36.92
15535 87.6720 1325.00 1279.77 36.40
15536 87.6770 1311.00 1281.48 36.21
15537 87.6820 1321.00 1283.08 36.35
15538 87.6870 1345.00 1284.57 36.67
15539 87.6920 1342.00 1285.93 36.63
15540 87.6970 1330.00 1287.19 36.47
15541 87.7020 1316.00 1288.32 36.28
15542 87.7070 1347.00 1289.33 36.70
15543 87.7120 1352.00 1290.22 36.77
15544 87.7170 1360.00 1291.00 36.88
15545 87.7220 1356.00 1291.65 36.82
15546 87.7270 1335.00 1292.16 36.54
15547 87.7320 1343.00 1292.57 36.65
15548 87.7370 1353.00 1292.88 36.78
15549 87.7420 1337.00 1293.06 36.56
15550 87.7470 1360.00 1293.14 36.88
15551 87.7520 1346.00 1293.10 36.69
15552 87.7570 1335.00 1292.96 36.54
15553 87.7620 1340.00 1292.72 36.61
15554 87.7670 1340.00 1292.37 36.61
15555 87.7720 1329.00 1291.93 36.46
15556 87.7770 1317.00 1291.39 36.29
15557 87.7820 1360.00 1290.76 36.88
15558 87.7870 1352.00 1290.05 36.77
15559 87.7920 1316.00 1289.26 36.28
15560 87.7970 1344.00 1288.39 36.66
15561 87.8020 1293.00 1287.45 35.96
15562 87.8070 1280.00 1286.44 35.78
15563 87.8120 1250.00 1285.37 35.36
15564 87.8170 1252.00 1284.24 35.38
15565 87.8220 1252.00 1283.46 35.38
15566 87.8270 1248.00 1282.24 35.33
15567 87.8320 1267.00 1280.96 35.59
15568 87.8370 1273.00 1279.65 35.68
15569 87.8420 1285.00 1278.31 35.85
15570 87.8470 1302.00 1276.94 36.08
15571 87.8520 1305.00 1275.55 36.12
15572 87.8570 1334.00 1274.13 36.52
15573 87.8620 1338.00 1272.70 36.58
15574 87.8670 1326.00 1271.26 36.41
15575 87.8720 1314.00 1269.82 36.25
15576 87.8770 1305.00 1268.27 36.12
15577 87.8820 1260.00 1266.82 35.50
15578 87.8870 1253.00 1265.38 35.40
15579 87.8920 1239.00 1263.96 35.20
15580 87.8970 1210.00 1262.54 34.79
15581 87.9020 1240.00 1261.14 35.21
15582 87.9070 1264.00 1259.77 35.55
15583 87.9120 1254.00 1258.41 35.41
15584 87.9170 1244.00 1257.09 35.27
15585 87.9220 1231.00 1255.79 35.09
15586 87.9270 1220.00 1254.53 34.93
15587 87.9320 1217.00 1253.30 34.89
15588 87.9370 1235.00 1252.10 35.14
15589 87.9420 1269.00 1250.95 35.62
15590 87.9470 1271.00 1249.84 35.65
15591 87.9520 1258.00 1248.77 35.47
15592 87.9570 1239.00 1247.75 35.20
15593 87.9620 1227.00 1246.77 35.03
15594 87.9670 1234.00 1245.85 35.13
15595 87.9720 1247.00 1244.97 35.31
15596 87.9770 1242.00 1244.15 35.24
15597 87.9820 1198.00 1243.37 34.61
15598 87.9870 1195.00 1242.66 34.57
15599 87.9920 1224.00 1241.99 34.99
15600 87.9970 1205.00 1241.38 34.71
15601 88.0020 1196.00 1240.83 34.58
15602 88.0070 1201.00 1240.33 34.66
15603 88.0120 1234.00 1239.89 35.13
15604 88.0170 1217.00 1239.50 34.89
15605 88.0220 1194.00 1239.15 34.55
15606 88.0270 1200.00 1238.88 34.64
15607 88.0320 1186.00 1238.67 34.44
15608 88.0370 1195.00 1238.51 34.57
15609 88.0420 1241.00 1238.41 35.23
15610 88.0470 1257.00 1238.37 35.45
15611 88.0520 1238.00 1238.38 35.19
15612 88.0570 1196.00 1238.44 34.58
15613 88.0620 1185.00 1238.56 34.42
15614 88.0670 1215.00 1238.74 34.86
15615 88.0720 1235.00 1238.96 35.14
15616 88.0770 1230.00 1239.24 35.07
15617 88.0820 1244.00 1239.57 35.27
15618 88.0870 1222.00 1239.95 34.96
15619 88.0920 1198.00 1240.38 34.61
15620 88.0970 1200.00 1240.85 34.64
15621 88.1020 1200.00 1241.39 34.64
15622 88.1070 1187.00 1241.95 34.45
15623 88.1120 1182.00 1242.56 34.38
15624 88.1170 1183.00 1243.21 34.39
15625 88.1220 1196.00 1243.91 34.58
15626 88.1270 1186.00 1244.63 34.44
15627 88.1320 1180.00 1245.40 34.35
15628 88.1370 1197.00 1246.20 34.60
15629 88.1420 1217.00 1247.03 34.89
15630 88.1470 1230.00 1247.90 35.07
15631 88.1520 1230.00 1248.79 35.07
15632 88.1570 1222.00 1249.72 34.96
15633 88.1620 1218.00 1250.16 34.90
15634 88.1670 1227.00 1251.13 35.03
15635 88.1720 1233.00 1252.13 35.11
15636 88.1770 1200.00 1253.14 34.64
15637 88.1820 1185.00 1254.17 34.42
15638 88.1870 1203.00 1255.22 34.68
15639 88.1920 1240.00 1256.28 35.21
15640 88.1970 1244.00 1257.36 35.27
15641 88.2020 1217.00 1258.45 34.89
15642 88.2070 1212.00 1259.54 34.81
15643 88.2120 1255.00 1260.64 35.43
15644 88.2170 1268.00 1261.75 35.61
15645 88.2220 1258.00 1262.86 35.47
15646 88.2270 1243.00 1263.97 35.26
15647 88.2320 1256.00 1265.08 35.44
15648 88.2370 1270.00 1266.19 35.64
15649 88.2420 1289.00 1267.30 35.90
15650 88.2470 1325.00 1268.40 36.40
15651 88.2520 1331.00 1269.50 36.48
15652 88.2570 1309.00 1270.59 36.18
15653 88.2620 1302.00 1271.67 36.08
15654 88.2670 1310.00 1272.74 36.19
15655 88.2720 1305.00 1273.81 36.12
15656 88.2770 1311.00 1274.86 36.21
15657 88.2820 1314.00 1275.90 36.25
15658 88.2870 1291.00 1276.93 35.93
15659 88.2920 1274.00 1277.95 35.69
15660 88.2970 1260.00 1278.95 35.50
15661 88.3020 1275.00 1279.94 35.71
15662 88.3070 1291.00 1280.92 35.93
15663 88.3120 1302.00 1281.88 36.08
15664 88.3170 1307.00 1282.82 36.15
15665 88.3220 1276.00 1283.76 35.72
15666 88.3270 1281.00 1284.68 35.79
15667 88.3320 1293.00 1285.59 35.96
15668 88.3370 1295.00 1286.49 35.99
15669 88.3420 1293.00 1287.37 35.96
15670 88.3470 1290.00 1288.19 35.92
15671 88.3520 1310.00 1289.01 36.19
15672 88.3570 1330.00 1289.86 36.47
15673 88.3620 1315.00 1290.70 36.26
15674 88.3670 1282.00 1291.53 35.81
15675 88.3720 1275.00 1292.34 35.71
15676 88.3770 1285.00 1293.15 35.85
15677 88.3820 1302.00 1293.96 36.08
15678 88.3870 1314.00 1294.75 36.25
15679 88.3920 1311.00 1295.54 36.21
15680 88.3970 1316.00 1296.33 36.28
15681 88.4020 1340.00 1297.11 36.61
15682 88.4070 1317.00 1297.89 36.29
15683 88.4120 1281.00 1298.66 35.79
15684 88.4170 1292.00 1299.43 35.94
15685 88.4220 1303.00 1300.21 36.10
15686 88.4270 1313.00 1300.98 36.24
15687 88.4320 1326.00 1301.75 36.41
15688 88.4370 1328.00 1302.52 36.44
15689 88.4420 1338.00 1303.30 36.58
15690 88.4470 1346.00 1304.08 36.69
15691 88.4520 1343.00 1304.86 36.65
15692 88.4570 1342.00 1305.65 36.63
15693 88.4620 1367.00 1306.43 36.97
15694 88.4670 1387.00 1307.23 37.24
15695 88.4720 1357.00 1308.03 36.84
15696 88.4770 1315.00 1308.83 36.26
15697 88.4820 1300.00 1309.65 36.06
15698 88.4870 1324.00 1310.46 36.39
15699 88.4920 1345.00 1311.29 36.67
15700 88.4970 1353.00 1312.12 36.78
15701 88.5020 1356.00 1312.96 36.82
15702 88.5070 1343.00 1313.80 36.65
15703 88.5120 1338.00 1314.65 36.58
15704 88.5170 1346.00 1315.51 36.69
15705 88.5220 1356.00 1316.37 36.82
15706 88.5270 1362.00 1317.25 36.91
15707 88.5320 1343.00 1318.12 36.65
15708 88.5370 1322.00 1318.60 36.36
15709 88.5420 1329.00 1319.49 36.46
15710 88.5470 1365.00 1320.39 36.95
15711 88.5520 1385.00 1321.28 37.22
15712 88.5570 1392.00 1322.19 37.31
15713 88.5620 1385.00 1323.70 37.22
15714 88.5670 1385.00 1324.60 37.22
15715 88.5720 1381.00 1325.54 37.16
15716 88.5770 1361.00 1326.46 36.89
15717 88.5820 1336.00 1327.37 36.55
15718 88.5870 1310.00 1328.28 36.19
15719 88.5920 1310.00 1329.19 36.19
15720 88.5970 1320.00 1330.04 36.33
15721 88.6020 1326.00 1330.94 36.41
15722 88.6070 1342.00 1331.84 36.63
15723 88.6120 1364.00 1332.74 36.93
15724 88.6170 1362.00 1333.62 36.91
15725 88.6220 1339.00 1334.51 36.59
15726 88.6270 1335.00 1335.38 36.54
15727 88.6320 1337.00 1336.25 36.56
15728 88.6370 1354.00 1337.10 36.80
15729 88.6420 1368.00 1337.95 36.99
15730 88.6470 1345.00 1338.79 36.67
15731 88.6520 1327.00 1339.61 36.43
15732 88.6570 1319.00 1340.42 36.32
15733 88.6620 1318.00 1341.22 36.30
15734 88.6670 1334.00 1342.01 36.52
15735 88.6720 1348.00 1342.78 36.72
15736 88.6770 1353.00 1343.54 36.78
15737 88.6820 1364.00 1344.29 36.93
15738 88.6870 1354.00 1345.02 36.80
15739 88.6920 1352.00 1345.74 36.77
15740 88.6970 1348.00 1346.44 36.72
15741 88.7020 1339.00 1347.14 36.59
15742 88.7070 1332.00 1347.82 36.50
15743 88.7120 1365.00 1348.49 36.95
15744 88.7170 1365.00 1349.15 36.95
15745 88.7220 1367.00 1349.79 36.97
15746 88.7270 1404.00 1350.43 37.47
15747 88.7320 1418.00 1351.06 37.66
15748 88.7370 1388.00 1351.68 37.26
15749 88.7420 1355.00 1352.29 36.81
15750 88.7470 1360.00 1352.89 36.88
15751 88.7520 1370.00 1353.20 37.01
15752 88.7570 1363.00 1353.79 36.92
15753 88.7620 1354.00 1354.39 36.80
15754 88.7670 1350.00 1355.09 36.74
15755 88.7720 1317.00 1355.68 36.29
15756 88.7770 1349.00 1356.27 36.73
15757 88.7820 1389.00 1356.86 37.27
15758 88.7870 1402.00 1357.46 37.44
15759 88.7920 1395.00 1358.05 37.35
15760 88.7970 1384.00 1358.66 37.20
15761 88.8020 1387.00 1359.27 37.24
15762 88.8070 1368.00 1359.89 36.99
15763 88.8120 1365.00 1360.53 36.95
15764 88.8170 1351.00 1361.17 36.76
15765 88.8220 1365.00 1361.83 36.95
15766 88.8270 1361.00 1361.96 36.89
15767 88.8320 1340.00 1362.62 36.61
15768 88.8370 1307.00 1363.33 36.15
15769 88.8420 1312.00 1364.05 36.22
15770 88.8470 1351.00 1364.80 36.76
15771 88.8520 1352.00 1365.56 36.77
15772 88.8570 1359.00 1366.35 36.86
15773 88.8620 1329.00 1367.16 36.46
15774 88.8670 1321.00 1367.99 36.35
15775 88.8720 1317.00 1368.84 36.29
15776 88.8770 1331.00 1369.73 36.48
15777 88.8820 1307.00 1370.64 36.15
15778 88.8870 1270.00 1371.57 35.64
15779 88.8920 1259.00 1372.53 35.48
15780 88.8970 1248.00 1373.52 35.33
15781 88.9020 1256.00 1374.54 35.44
15782 88.9070 1285.00 1375.59 35.85
15783 88.9120 1314.00 1376.67 36.25
15784 88.9170 1354.00 1377.78 36.80
15785 88.9220 1373.00 1378.91 37.05
15786 88.9270 1357.00 1380.08 36.84
15787 88.9320 1364.00 1381.27 36.93
15788 88.9370 1363.00 1382.49 36.92
15789 88.9420 1364.00 1383.75 36.93
15790 88.9470 1347.00 1385.03 36.70
15791 88.9520 1353.00 1386.34 36.78
15792 88.9570 1368.00 1386.90 36.99
15793 88.9620 1354.00 1388.27 36.80
15794 88.9670 1345.00 1389.65 36.67
15795 88.9720 1357.00 1391.07 36.84
15796 88.9770 1367.00 1392.51 36.97
15797 88.9820 1343.00 1393.97 36.65
15798 88.9870 1327.00 1395.46 36.43
15799 88.9920 1359.00 1396.96 36.86
15800 88.9970 1367.00 1398.49 36.97
15801 89.0020 1372.00 1400.03 37.04
15802 89.0070 1404.00 1401.59 37.47
15803 89.0120 1405.00 1403.16 37.48
15804 89.0170 1374.00 1404.74 37.07
15805 89.0220 1341.00 1406.34 36.62
15806 89.0270 1323.00 1407.94 36.37
15807 89.0320 1349.00 1409.55 36.73
15808 89.0370 1369.00 1411.16 37.00
15809 89.0420 1422.00 1412.78 37.71
15810 89.0470 1450.00 1414.14 38.08
15811 89.0520 1442.00 1415.75 37.97
15812 89.0570 1435.00 1417.36 37.88
15813 89.0620 1426.00 1418.96 37.76
15814 89.0670 1405.00 1420.54 37.48
15815 89.0720 1394.00 1422.12 37.34
15816 89.0770 1390.00 1423.68 37.28
15817 89.0820 1387.00 1425.21 37.24
15818 89.0870 1390.00 1426.73 37.28
15819 89.0920 1406.00 1428.21 37.50
15820 89.0970 1390.00 1429.67 37.28
15821 89.1020 1409.00 1431.10 37.54
15822 89.1070 1420.00 1432.49 37.68
15823 89.1120 1451.00 1433.84 38.09
15824 89.1170 1417.00 1435.15 37.64
15825 89.1220 1417.00 1436.42 37.64
15826 89.1270 1463.00 1437.63 38.25
15827 89.1320 1485.00 1438.80 38.54
15828 89.1370 1488.00 1439.91 38.57
15829 89.1420 1454.00 1440.96 38.13
15830 89.1470 1449.00 1441.95 38.07
15831 89.1520 1471.00 1442.88 38.35
15832 89.1570 1440.00 1443.74 37.95
15833 89.1620 1433.00 1444.53 37.85
15834 89.1670 1431.00 1445.11 37.83
15835 89.1720 1416.00 1445.75 37.63
15836 89.1770 1427.00 1446.32 37.78
15837 89.1820 1424.00 1446.80 37.74
15838 89.1870 1417.00 1447.21 37.64
15839 89.1920 1444.00 1447.53 38.00
15840 89.1970 1444.00 1447.77 38.00
15841 89.2020 1415.00 1447.92 37.62
15842 89.2070 1454.00 1447.98 38.13
15843 89.2120 1464.00 1447.96 38.26
15844 89.2170 1444.00 1447.85 38.00
15845 89.2220 1445.00 1447.64 38.01
15846 89.2270 1438.00 1447.35 37.92
15847 89.2320 1468.00 1446.97 38.31
15848 89.2370 1466.00 1446.50 38.29
15849 89.2420 1507.00 1445.94 38.82
15850 89.2470 1531.00 1445.30 39.13
15851 89.2520 1490.00 1444.57 38.60
15852 89.2570 1513.00 1443.75 38.90
15853 89.2620 1526.00 1442.85 39.06
15854 89.2670 1519.00 1441.87 38.97
15855 89.2720 1511.00 1440.81 38.87
15856 89.2770 1504.00 1439.67 38.78
15857 89.2820 1499.00 1438.47 38.72
15858 89.2870 1517.00 1437.19 38.95
15859 89.2920 1521.00 1435.84 39.00
15860 89.2970 1529.00 1434.44 39.10
15861 89.3020 1478.00 1432.97 38.44
15862 89.3070 1455.00 1431.45 38.14
15863 89.3120 1469.00 1429.87 38.33
15864 89.3170 1462.00 1428.25 38.24
15865 89.3220 1464.00 1426.50 38.26
15866 89.3270 1458.00 1424.80 38.18
15867 89.3320 1448.00 1423.07 38.05
15868 89.3370 1386.00 1421.30 37.23
15869 89.3420 1376.00 1419.52 37.09
15870 89.3470 1437.00 1417.71 37.91
15871 89.3520 1459.00 1415.90 38.20
15872 89.3570 1452.00 1414.07 38.11
15873 89.3620 1419.00 1412.24 37.67
15874 89.3670 1411.00 1410.42 37.56
15875 89.3720 1391.00 1408.60 37.30
15876 89.3770 1394.00 1406.80 37.34
15877 89.3820 1372.00 1405.01 37.04
15878 89.3870 1391.00 1403.25 37.30
15879 89.3920 1386.00 1401.52 37.23
15880 89.3970 1379.00 1399.82 37.13
15881 89.4020 1387.00 1398.16 37.24
15882 89.4070 1360.00 1396.55 36.88
15883 89.4120 1343.00 1394.99 36.65
15884 89.4170 1340.00 1393.48 36.61
15885 89.4220 1334.00 1392.03 36.52
15886 89.4270 1339.00 1390.65 36.59
15887 89.4320 1367.00 1389.33 36.97
15888 89.4370 1326.00 1388.09 36.41
15889 89.4420 1337.00 1386.93 36.56
15890 89.4470 1360.00 1385.85 36.88
15891 89.4520 1365.00 1384.86 36.95
15892 89.4570 1375.00 1383.96 37.08
15893 89.4620 1384.00 1383.15 37.20
15894 89.4670 1385.00 1382.45 37.22
15895 89.4720 1374.00 1381.84 37.07
15896 89.4770 1368.00 1381.35 36.99
15897 89.4820 1396.00 1380.96 37.36
15898 89.4870 1385.00 1380.69 37.22
15899 89.4920 1381.00 1380.53 37.16
15900 89.4970 1400.00 1380.50 37.42
15901 89.5020 1405.00 1380.59 37.48
15902 89.5070 1377.00 1380.80 37.11
15903 89.5120 1393.00 1381.14 37.32
15904 89.5170 1385.00 1381.61 37.22
15905 89.5220 1374.00 1382.21 37.07
15906 89.5270 1354.00 1382.95 36.80
15907 89.5320 1360.00 1383.83 36.88
15908 89.5370 1369.00 1384.84 37.00
15909 89.5420 1352.00 1386.00 36.77
15910 89.5470 1386.00 1387.30 37.23
15911 89.5520 1434.00 1388.74 37.87
15912 89.5570 1460.00 1390.32 38.21
15913 89.5620 1424.00 1392.06 37.74
15914 89.5670 1450.00 1393.93 38.08
15915 89.5720 1413.00 1395.96 37.59
15916 89.5770 1448.00 1398.13 38.05
15917 89.5820 1434.00 1400.46 37.87
15918 89.5870 1455.00 1402.93 38.14
15919 89.5920 1416.00 1405.55 37.63
15920 89.5970 1399.00 1408.32 37.40
15921 89.6020 1364.00 1411.24 36.93
15922 89.6070 1391.00 1414.30 37.30
15923 89.6120 1386.00 1417.52 37.23
15924 89.6170 1419.00 1420.87 37.67
15925 89.6220 1426.00 1424.38 37.76
15926 89.6270 1415.00 1428.03 37.62
15927 89.6320 1385.00 1431.82 37.22
15928 89.6370 1424.00 1435.76 37.74
15929 89.6420 1436.00 1439.83 37.89
15930 89.6470 1443.00 1444.04 37.99
15931 89.6520 1438.00 1448.39 37.92
15932 89.6570 1480.00 1452.87 38.47
15933 89.6620 1467.00 1457.48 38.30
15934 89.6670 1438.00 1462.22 37.92
15935 89.6720 1464.00 1467.08 38.26
15936 89.6770 1425.00 1472.06 37.75
15937 89.6820 1447.00 1477.17 38.04
15938 89.6870 1482.00 1482.39 38.50
15939 89.6920 1479.00 1487.70 38.46
15940 89.6970 1519.00 1493.14 38.97
15941 89.7020 1495.00 1498.68 38.67
15942 89.7070 1509.00 1504.31 38.85
15943 89.7120 1524.00 1510.02 39.04
15944 89.7170 1529.00 1515.83 39.10
15945 89.7220 1563.00 1521.72 39.53
15946 89.7270 1537.00 1527.67 39.20
15947 89.7320 1586.00 1533.70 39.82
15948 89.7370 1608.00 1539.80 40.10
15949 89.7420 1622.00 1545.93 40.27
15950 89.7470 1622.00 1552.12 40.27
15951 89.7520 1633.00 1558.36 40.41
15952 89.7570 1681.00 1564.62 41.00
15953 89.7620 1679.00 1570.91 40.98
15954 89.7670 1674.00 1577.22 40.91
15955 89.7720 1669.00 1583.52 40.85
15956 89.7770 1673.00 1589.84 40.90
15957 89.7820 1693.00 1596.14 41.15
15958 89.7870 1741.00 1602.41 41.73
15959 89.7920 1743.00 1608.67 41.75
15960 89.7970 1715.00 1614.88 41.41
15961 89.8020 1737.00 1621.04 41.68
15962 89.8070 1734.00 1627.15 41.64
15963 89.8120 1714.00 1633.18 41.40
15964 89.8170 1746.00 1639.13 41.79
15965 89.8220 1745.00 1645.00 41.77
15966 89.8270 1783.00 1650.76 42.23
15967 89.8320 1792.00 1656.41 42.33
15968 89.8370 1814.00 1661.93 42.59
15969 89.8420 1790.00 1667.32 42.31
15970 89.8470 1820.00 1672.57 42.66
15971 89.8520 1862.00 1677.65 43.15
15972 89.8570 1915.00 1682.57 43.76
15973 89.8620 1876.00 1687.31 43.31
15974 89.8670 1861.00 1694.23 43.14
15975 89.8720 1900.00 1698.58 43.59
15976 89.8770 1893.00 1702.74 43.51
15977 89.8820 1861.00 1706.67 43.14
15978 89.8870 1846.00 1710.37 42.97
15979 89.8920 1859.00 1713.84 43.12
15980 89.8970 1853.00 1717.06 43.05
15981 89.9020 1887.00 1720.02 43.44
15982 89.9070 1877.00 1722.73 43.32
15983 89.9120 1947.00 1725.16 44.12
15984 89.9170 1981.00 1727.32 44.51
15985 89.9220 1987.00 1729.21 44.58
15986 89.9270 1972.00 1730.80 44.41
15987 89.9320 1968.00 1732.10 44.36
15988 89.9370 1965.00 1733.11 44.33
15989 89.9420 1961.00 1733.83 44.28
15990 89.9470 1955.00 1734.24 44.22
15991 89.9520 1976.00 1734.18 44.45
15992 89.9570 1977.00 1733.99 44.46
15993 89.9620 1966.00 1733.49 44.34
15994 89.9670 1933.00 1732.69 43.97
15995 89.9720 1942.00 1731.59 44.07
15996 89.9770 1953.00 1730.19 44.19
15997 89.9820 1973.00 1728.50 44.42
15998 89.9870 1973.00 1726.50 44.42
15999 89.9920 1983.00 1724.48 44.53
16000 89.9970 1967.00 1721.91 44.35
16001 90.0020 1974.00 1719.06 44.43
16002 90.0070 1944.00 1715.93 44.09
16003 90.0120 1975.00 1712.54 44.44
16004 90.0170 1951.00 1708.88 44.17
16005 90.0220 1893.00 1704.96 43.51
16006 90.0270 1891.00 1700.80 43.49
16007 90.0320 1902.00 1696.39 43.61
16008 90.0370 1924.00 1691.75 43.86
16009 90.0420 1945.00 1686.88 44.10
16010 90.0470 1926.00 1681.79 43.89
16011 90.0520 1856.00 1676.49 43.08
16012 90.0570 1856.00 1670.98 43.08
16013 90.0620 1846.00 1665.29 42.97
16014 90.0670 1881.00 1659.41 43.37
16015 90.0720 1813.00 1653.35 42.58
16016 90.0770 1796.00 1647.13 42.38
16017 90.0820 1767.00 1640.73 42.04
16018 90.0870 1759.00 1634.19 41.94
16019 90.0920 1743.00 1627.52 41.75
16020 90.0970 1756.00 1620.69 41.90
16021 90.1020 1755.00 1613.74 41.89
16022 90.1070 1771.00 1606.68 42.08
16023 90.1120 1739.00 1599.48 41.70
16024 90.1170 1724.00 1592.19 41.52
16025 90.1220 1704.00 1584.81 41.28
16026 90.1270 1703.00 1577.31 41.27
16027 90.1320 1724.00 1569.74 41.52
16028 90.1370 1760.00 1562.08 41.95
16029 90.1420 1756.00 1554.36 41.90
16030 90.1470 1679.00 1546.56 40.98
16031 90.1520 1653.00 1538.69 40.66
16032 90.1570 1641.00 1530.78 40.51
16033 90.1620 1664.00 1522.82 40.79
16034 90.1670 1692.00 1514.79 41.13
16035 90.1720 1672.00 1506.74 40.89
16036 90.1770 1663.00 1498.65 40.78
16037 90.1820 1682.00 1490.51 41.01
16038 90.1870 1647.00 1482.37 40.58
16039 90.1920 1654.00 1474.19 40.67
16040 90.1970 1609.00 1465.98 40.11
16041 90.2020 1577.00 1457.78 39.71
16042 90.2070 1575.00 1449.54 39.69
16043 90.2120 1556.00 1441.31 39.45
16044 90.2170 1538.00 1433.08 39.22
16045 90.2220 1544.00 1424.83 39.29
16046 90.2270 1522.00 1416.60 39.01
16047 90.2320 1561.00 1408.38 39.51
16048 90.2370 1563.00 1400.15 39.53
16049 90.2420 1546.00 1391.94 39.32
16050 90.2470 1540.00 1383.76 39.24
16051 90.2520 1544.00 1375.58 39.29
16052 90.2570 1558.00 1366.93 39.47
16053 90.2620 1564.00 1358.79 39.55
16054 90.2670 1544.00 1350.71 39.29
16055 90.2720 1490.00 1342.65 38.60
16056 90.2770 1441.00 1334.61 37.96
16057 90.2820 1406.00 1326.62 37.50
16058 90.2870 1392.00 1318.67 37.31
16059 90.2920 1366.00 1310.74 36.96
16060 90.2970 1330.00 1302.88 36.47
16061 90.3020 1313.00 1295.06 36.24
16062 90.3070 1312.00 1287.27 36.22
16063 90.3120 1341.00 1279.56 36.62
16064 90.3170 1335.00 1271.89 36.54
16065 90.3220 1308.00 1264.26 36.17
16066 90.3270 1314.00 1256.71 36.25
16067 90.3320 1311.00 1249.20 36.21
16068 90.3370 1323.00 1241.76 36.37
16069 90.3420 1353.00 1234.39 36.78
16070 90.3470 1377.00 1227.07 37.11
16071 90.3520 1357.00 1219.83 36.84
16072 90.3570 1313.00 1212.66 36.24
16073 90.3620 1271.00 1205.55 35.65
16074 90.3670 1266.00 1198.52 35.58
16075 90.3720 1266.00 1191.56 35.58
16076 90.3770 1244.00 1184.68 35.27
16077 90.3820 1225.00 1177.87 35.00
16078 90.3870 1240.00 1171.13 35.21
16079 90.3920 1279.00 1164.49 35.76
16080 90.3970 1275.00 1157.92 35.71
16081 90.4020 1250.00 1151.42 35.36
16082 90.4070 1216.00 1144.84 34.87
16083 90.4120 1209.00 1138.52 34.77
16084 90.4170 1186.00 1132.27 34.44
16085 90.4220 1149.00 1126.13 33.90
16086 90.4270 1151.00 1120.07 33.93
16087 90.4320 1172.00 1114.09 34.23
16088 90.4370 1184.00 1108.21 34.41
16089 90.4420 1155.00 1102.41 33.99
16090 90.4470 1129.00 1096.70 33.60
16091 90.4520 1119.00 1091.09 33.45
16092 90.4570 1099.00 1085.56 33.15
16093 90.4620 1070.00 1080.12 32.71
16094 90.4670 1086.00 1074.78 32.95
16095 90.4720 1085.00 1069.53 32.94
16096 90.4770 1065.00 1064.38 32.63
16097 90.4820 1065.00 1059.24 32.63
16098 90.4870 1064.00 1054.27 32.62
16099 90.4920 1071.00 1049.39 32.73
16100 90.4970 1084.00 1044.61 32.92
16101 90.5020 1087.00 1039.92 32.97
16102 90.5070 1068.00 1035.32 32.68
16103 90.5120 1008.00 1030.81 31.75
16104 90.5170 986.00 1026.41 31.40
16105 90.5220 1007.00 1022.09 31.73
16106 90.5270 1004.00 1017.87 31.69
16107 90.5320 998.00 1013.74 31.59
16108 90.5370 994.00 1009.71 31.53
16109 90.5420 1010.00 1005.75 31.78
16110 90.5470 998.00 1001.90 31.59
16111 90.5520 995.00 998.15 31.54
16112 90.5570 1011.00 994.47 31.80
16113 90.5620 999.00 990.89 31.61
16114 90.5670 976.00 987.41 31.24
16115 90.5720 965.00 984.00 31.06
16116 90.5770 948.00 980.70 30.79
16117 90.5820 951.00 977.47 30.84
16118 90.5870 932.00 974.34 30.53
16119 90.5920 918.00 971.30 30.30
16120 90.5970 927.00 968.34 30.45
16121 90.6020 925.00 965.47 30.41
16122 90.6070 912.00 962.69 30.20
16123 90.6120 927.00 959.99 30.45
16124 90.6170 925.00 957.37 30.41
16125 90.6220 917.00 954.84 30.28
16126 90.6270 914.00 952.40 30.23
16127 90.6320 943.00 950.03 30.71
16128 90.6370 952.00 947.75 30.85
16129 90.6420 967.00 945.55 31.10
16130 90.6470 976.00 943.43 31.24
16131 90.6520 955.00 941.39 30.90
16132 90.6570 930.00 939.43 30.50
16133 90.6620 932.00 937.55 30.53
16134 90.6670 939.00 935.74 30.64
16135 90.6720 940.00 934.02 30.66
16136 90.6770 939.00 932.37 30.64
16137 90.6820 927.00 930.79 30.45
16138 90.6870 929.00 929.29 30.48
16139 90.6920 953.00 927.86 30.87
16140 90.6970 947.00 926.51 30.77
16141 90.7020 925.00 925.22 30.41
16142 90.7070 913.00 924.01 30.22
16143 90.7120 896.00 922.87 29.93
16144 90.7170 892.00 921.80 29.87
16145 90.7220 872.00 920.80 29.53
16146 90.7270 872.00 919.86 29.53
16147 90.7320 896.00 918.99 29.93
16148 90.7370 921.00 918.19 30.35
16149 90.7420 916.00 917.45 30.27
16150 90.7470 903.00 916.78 30.05
16151 90.7520 889.00 916.17 29.82
16152 90.7570 864.00 915.62 29.39
16153 90.7620 878.00 915.13 29.63
16154 90.7670 894.00 914.70 29.90
16155 90.7720 905.00 914.33 30.08
16156 90.7770 894.00 914.02 29.90
16157 90.7820 878.00 913.77 29.63
16158 90.7870 883.00 913.57 29.72
16159 90.7920 900.00 913.42 30.00
16160 90.7970 891.00 913.33 29.85
16161 90.8020 907.00 913.29 30.12
16162 90.8070 909.00 913.31 30.15
16163 90.8120 891.00 913.37 29.85
16164 90.8170 884.00 913.48 29.73
16165 90.8220 887.00 913.64 29.78
16166 90.8270 854.00 913.84 29.22
16167 90.8320 840.00 914.09 28.98
16168 90.8370 851.00 914.38 29.17
16169 90.8420 859.00 914.72 29.31
16170 90.8470 872.00 915.09 29.53
16171 90.8520 899.00 915.50 29.98
16172 90.8570 907.00 915.96 30.12
16173 90.8620 904.00 916.45 30.07
16174 90.8670 895.00 916.97 29.92
16175 90.8720 878.00 917.52 29.63
16176 90.8770 887.00 918.11 29.78
16177 90.8820 886.00 918.73 29.77
16178 90.8870 856.00 919.38 29.26
16179 90.8920 870.00 920.06 29.50
16180 90.8970 871.00 920.76 29.51
16181 90.9020 848.00 921.48 29.12
16182 90.9070 857.00 922.23 29.27
16183 90.9120 861.00 923.00 29.34
16184 90.9170 870.00 923.79 29.50
16185 90.9220 876.00 924.60 29.60
16186 90.9270 838.00 925.42 28.95
16187 90.9320 841.00 926.26 29.00
16188 90.9370 854.00 927.11 29.22
16189 90.9420 877.00 927.97 29.61
16190 90.9470 868.00 928.84 29.46
16191 90.9520 859.00 929.72 29.31
16192 90.9570 866.00 930.61 29.43
16193 90.9620 869.00 931.50 29.48
16194 90.9670 877.00 932.40 29.61
16195 90.9720 881.00 933.30 29.68
16196 90.9770 875.00 934.20 29.58
16197 90.9820 867.00 935.09 29.44
16198 90.9870 870.00 935.99 29.50
16199 90.9920 860.00 936.89 29.33
16200 90.9970 874.00 937.77 29.56
16201 91.0020 901.00 938.66 30.02
16202 91.0070 922.00 939.53 30.36
16203 91.0120 929.00 940.40 30.48
16204 91.0170 922.00 941.25 30.36
16205 91.0220 898.00 942.10 29.97
16206 91.0270 863.00 942.93 29.38
16207 91.0320 865.00 943.75 29.41
16208 91.0370 886.00 944.56 29.77
16209 91.0420 925.00 945.35 30.41
16210 91.0470 932.00 946.12 30.53
16211 91.0520 928.00 946.88 30.46
16212 91.0570 926.00 947.61 30.43
16213 91.0620 925.00 948.33 30.41
16214 91.0670 938.00 949.03 30.63
16215 91.0720 953.00 949.70 30.87
16216 91.0770 941.00 951.54 30.68
16217 91.0820 941.00 952.18 30.68
16218 91.0870 953.00 952.78 30.87
16219 91.0920 960.00 953.37 30.98
16220 91.0970 930.00 953.93 30.50
16221 91.1020 928.00 954.46 30.46
16222 91.1070 939.00 954.96 30.64
16223 91.1120 960.00 955.43 30.98
16224 91.1170 943.00 955.88 30.71
16225 91.1220 915.00 956.29 30.25
16226 91.1270 902.00 956.68 30.03
16227 91.1320 909.00 957.03 30.15
16228 91.1370 941.00 957.35 30.68
16229 91.1420 958.00 957.63 30.95
16230 91.1470 959.00 957.89 30.97
16231 91.1520 968.00 958.10 31.11
16232 91.1570 974.00 958.28 31.21
16233 91.1620 980.00 958.17 31.31
16234 91.1670 980.00 958.27 31.31
16235 91.1720 958.00 958.33 30.95
16236 91.1770 922.00 958.36 30.36
16237 91.1820 927.00 958.34 30.45
16238 91.1870 927.00 958.28 30.45
16239 91.1920 930.00 958.18 30.50
16240 91.1970 940.00 958.04 30.66
16241 91.2020 943.00 957.86 30.71
16242 91.2070 941.00 957.63 30.68
16243 91.2120 954.00 957.35 30.89
16244 91.2170 977.00 957.04 31.26
16245 91.2220 969.00 956.67 31.13
16246 91.2270 940.00 956.26 30.66
16247 91.2320 929.00 955.81 30.48
16248 91.2370 932.00 954.83 30.53
16249 91.2420 921.00 954.28 30.35
16250 91.2470 943.00 953.69 30.71
16251 91.2520 963.00 953.05 31.03
16252 91.2570 970.00 952.38 31.14
16253 91.2620 953.00 951.66 30.87
16254 91.2670 944.00 950.89 30.72
16255 91.2720 929.00 950.08 30.48
16256 91.2770 925.00 949.23 30.41
16257 91.2820 933.00 948.34 30.55
16258 91.2870 926.00 947.41 30.43
16259 91.2920 925.00 946.43 30.41
16260 91.2970 909.00 945.42 30.15
16261 91.3020 879.00 944.87 29.65
16262 91.3070 862.00 943.78 29.36
16263 91.3120 888.00 942.66 29.80
16264 91.3170 904.00 941.51 30.07
16265 91.3220 923.00 940.32 30.38
16266 91.3270 941.00 939.11 30.68
16267 91.3320 929.00 937.86 30.48
16268 91.3370 928.00 936.59 30.46
16269 91.3420 939.00 935.28 30.64
16270 91.3470 936.00 933.95 30.59
16271 91.3520 919.00 932.60 30.32
16272 91.3570 918.00 931.23 30.30
16273 91.3620 926.00 929.83 30.43
16274 91.3670 931.00 928.42 30.51
16275 91.3720 922.00 926.98 30.36
16276 91.3770 922.00 925.53 30.36
16277 91.3820 937.00 924.07 30.61
16278 91.3870 920.00 922.58 30.33
16279 91.3920 896.00 921.09 29.93
16280 91.3970 899.00 919.59 29.98
16281 91.4020 914.00 918.07 30.23
16282 91.4070 907.00 916.54 30.12
16283 91.4120 893.00 915.01 29.88
16284 91.4170 923.00 913.47 30.38
16285 91.4220 943.00 911.94 30.71
16286 91.4270 922.00 910.39 30.36
16287 91.4320 921.00 908.84 30.35
16288 91.4370 914.00 907.29 30.23
16289 91.4420 869.00 905.74 29.48
16290 91.4470 842.00 904.19 29.02
16291 91.4520 844.00 902.64 29.05
16292 91.4570 860.00 900.99 29.33
16293 91.4620 869.00 899.44 29.48
16294 91.4670 870.00 897.90 29.50
16295 91.4720 879.00 896.36 29.65
16296 91.4770 888.00 894.82 29.80
16297 91.4820 905.00 893.30 30.08
16298 91.4870 894.00 891.77 29.90
16299 91.4920 860.00 890.25 29.33
16300 91.4970 865.00 888.73 29.41
16301 91.5020 878.00 887.22 29.63
16302 91.5070 867.00 885.72 29.44
16303 91.5120 848.00 884.22 29.12
16304 91.5170 860.00 882.73 29.33
16305 91.5220 879.00 881.25 29.65
16306 91.5270 862.00 879.77 29.36
16307 91.5320 868.00 878.29 29.46
16308 91.5370 873.00 876.82 29.55
16309 91.5420 866.00 875.36 29.43
16310 91.5470 888.00 873.90 29.80
16311 91.5520 899.00 872.44 29.98
16312 91.5570 888.00 870.99 29.80
16313 91.5620 879.00 869.54 29.65
16314 91.5670 862.00 868.09 29.36
16315 91.5720 835.00 866.64 28.90
16316 91.5770 825.00 865.20 28.72
16317 91.5820 842.00 863.75 29.02
16318 91.5870 869.00 862.30 29.48
16319 91.5920 878.00 860.85 29.63
16320 91.5970 865.00 859.40 29.41
16321 91.6020 849.00 857.94 29.14
16322 91.6070 832.00 856.48 28.84
16323 91.6120 835.00 855.01 28.90
16324 91.6170 843.00 853.54 29.03
16325 91.6220 862.00 852.06 29.36
16326 91.6270 863.00 850.58 29.38
16327 91.6320 857.00 849.08 29.27
16328 91.6370 860.00 847.58 29.33
16329 91.6420 864.00 846.06 29.39
16330 91.6470 863.00 844.54 29.38
16331 91.6520 874.00 843.00 29.56
16332 91.6570 863.00 841.46 29.38
16333 91.6620 845.00 839.90 29.07
16334 91.6670 845.00 838.33 29.07
16335 91.6720 837.00 836.74 28.93
16336 91.6770 851.00 835.15 29.17
16337 91.6820 856.00 833.54 29.26
16338 91.6870 859.00 831.93 29.31
16339 91.6920 856.00 830.29 29.26
16340 91.6970 842.00 828.65 29.02
16341 91.7020 833.00 826.99 28.86
16342 91.7070 805.00 825.32 28.37
16343 91.7120 772.00 823.64 27.78
16344 91.7170 771.00 821.96 27.77
16345 91.7220 781.00 820.26 27.95
16346 91.7270 789.00 818.55 28.09
16347 91.7320 785.00 816.83 28.02
16348 91.7370 780.00 815.11 27.93
16349 91.7420 773.00 813.38 27.80
16350 91.7470 770.00 811.65 27.75
16351 91.7520 783.00 809.91 27.98
16352 91.7570 792.00 808.15 28.14
16353 91.7620 785.00 806.41 28.02
16354 91.7670 805.00 804.66 28.37
16355 91.7720 824.00 802.92 28.71
16356 91.7770 811.00 801.17 28.48
16357 91.7820 792.00 799.43 28.14
16358 91.7870 763.00 797.70 27.62
16359 91.7920 748.00 795.97 27.35
16360 91.7970 776.00 794.24 27.86
16361 91.8020 805.00 792.53 28.37
16362 91.8070 805.00 790.82 28.37
16363 91.8120 769.00 789.12 27.73
16364 91.8170 762.00 787.43 27.60
16365 91.8220 772.00 785.75 27.78
16366 91.8270 776.00 784.01 27.86
16367 91.8320 777.00 782.36 27.87
16368 91.8370 759.00 780.72 27.55
16369 91.8420 739.00 779.10 27.18
16370 91.8470 756.00 777.50 27.50
16371 91.8520 789.00 775.91 28.09
16372 91.8570 779.00 774.34 27.91
16373 91.8620 772.00 772.79 27.78
16374 91.8670 764.00 770.72 27.64
16375 91.8720 754.00 769.22 27.46
16376 91.8770 743.00 767.72 27.26
16377 91.8820 731.00 766.26 27.04
16378 91.8870 719.00 764.82 26.81
16379 91.8920 704.00 763.39 26.53
16380 91.8970 689.00 762.00 26.25
16381 91.9020 677.00 760.62 26.02
16382 91.9070 682.00 759.27 26.12
16383 91.9120 687.00 757.95 26.21
16384 91.9170 686.00 756.64 26.19
16385 91.9220 684.00 755.37 26.15
16386 91.9270 669.00 754.12 25.86
16387 91.9320 654.00 752.89 25.57
16388 91.9370 654.00 751.69 25.57
16389 91.9420 662.00 750.52 25.73
16390 91.9470 672.00 749.37 25.92
16391 91.9520 684.00 748.25 26.15
16392 91.9570 672.00 746.68 25.92
16393 91.9620 665.00 745.62 25.79
16394 91.9670 662.00 744.58 25.73
16395 91.9720 642.00 743.56 25.34
16396 91.9770 630.00 742.58 25.10
16397 91.9820 645.00 741.62 25.40
16398 91.9870 665.00 740.68 25.79
16399 91.9920 666.00 739.78 25.81
16400 91.9970 682.00 738.90 26.12
16401 92.0020 686.00 738.04 26.19
16402 92.0070 679.00 737.22 26.06
16403 92.0120 678.00 736.41 26.04
16404 92.0170 671.00 735.64 25.90
16405 92.0220 668.00 734.89 25.85
16406 92.0270 668.00 734.17 25.85
16407 92.0320 667.00 733.47 25.83
16408 92.0370 661.00 732.80 25.71
16409 92.0420 674.00 732.16 25.96
16410 92.0470 687.00 731.54 26.21
16411 92.0520 673.00 730.95 25.94
16412 92.0570 652.00 730.37 25.53
16413 92.0620 657.00 729.83 25.63
16414 92.0670 675.00 729.31 25.98
16415 92.0720 667.00 728.81 25.83
16416 92.0770 661.00 728.33 25.71
16417 92.0820 670.00 727.88 25.88
16418 92.0870 670.00 726.92 25.88
16419 92.0920 652.00 726.52 25.53
16420 92.0970 630.00 726.13 25.10
16421 92.1020 641.00 725.77 25.32
16422 92.1070 656.00 725.43 25.61
16423 92.1120 632.00 725.11 25.14
16424 92.1170 619.00 724.81 24.88
16425 92.1220 639.00 724.53 25.28
16426 92.1270 634.00 724.27 25.18
16427 92.1320 641.00 724.03 25.32
16428 92.1370 674.00 723.81 25.96
16429 92.1420 693.00 723.61 26.32
16430 92.1470 687.00 723.42 26.21
16431 92.1520 672.00 722.98 25.92
16432 92.1570 681.00 722.83 26.10
16433 92.1620 667.00 722.69 25.83
16434 92.1670 648.00 722.57 25.46
16435 92.1720 651.00 722.47 25.51
16436 92.1770 656.00 722.38 25.61
16437 92.1820 653.00 722.31 25.55
16438 92.1870 653.00 722.25 25.55
16439 92.1920 666.00 722.20 25.81
16440 92.1970 680.00 722.17 26.08
16441 92.2020 672.00 722.15 25.92
16442 92.2070 676.00 722.14 26.00
16443 92.2120 681.00 722.14 26.10
16444 92.2170 669.00 722.15 25.86
16445 92.2220 665.00 722.17 25.79
16446 92.2270 660.00 722.20 25.69
16447 92.2320 689.00 722.24 26.25
16448 92.2370 713.00 722.29 26.70
16449 92.2420 707.00 722.34 26.59
16450 92.2470 709.00 722.41 26.63
16451 92.2520 707.00 722.47 26.59
16452 92.2570 689.00 722.55 26.25
16453 92.2620 674.00 722.63 25.96
16454 92.2670 670.00 722.72 25.88
16455 92.2720 665.00 722.80 25.79
16456 92.2770 666.00 722.90 25.81
16457 92.2820 681.00 722.99 26.10
16458 92.2870 677.00 723.09 26.02
16459 92.2920 667.00 723.19 25.83
16460 92.2970 668.00 723.29 25.85
16461 92.3020 671.00 723.40 25.90
16462 92.3070 694.00 723.50 26.34
16463 92.3120 693.00 723.60 26.32
16464 92.3170 668.00 723.70 25.85
16465 92.3220 663.00 723.80 25.75
16466 92.3270 670.00 723.91 25.88
16467 92.3320 681.00 724.00 26.10
16468 92.3370 678.00 724.10 26.04
16469 92.3420 673.00 724.19 25.94
16470 92.3470 661.00 724.28 25.71
16471 92.3520 642.00 724.56 25.34
16472 92.3570 640.00 724.64 25.30
16473 92.3620 658.00 724.72 25.65
16474 92.3670 672.00 724.79 25.92
16475 92.3720 684.00 724.85 26.15
16476 92.3770 673.00 724.91 25.94
16477 92.3820 656.00 724.97 25.61
16478 92.3870 661.00 725.01 25.71
16479 92.3920 659.00 725.05 25.67
16480 92.3970 655.00 725.09 25.59
16481 92.4020 656.00 725.24 25.61
16482 92.4070 660.00 725.25 25.69
16483 92.4120 675.00 725.26 25.98
16484 92.4170 684.00 725.27 26.15
16485 92.4220 664.00 725.26 25.77
16486 92.4270 647.00 725.25 25.44
16487 92.4320 642.00 725.22 25.34
16488 92.4370 641.00 725.19 25.32
16489 92.4420 646.00 725.15 25.42
16490 92.4470 658.00 725.11 25.65
16491 92.4520 668.00 725.05 25.85
16492 92.4570 666.00 724.98 25.81
16493 92.4620 665.00 724.91 25.79
16494 92.4670 664.00 724.82 25.77
16495 92.4720 672.00 724.73 25.92
16496 92.4770 675.00 724.62 25.98
16497 92.4820 681.00 724.51 26.10
16498 92.4870 690.00 724.39 26.27
16499 92.4920 685.00 724.26 26.17
16500 92.4970 667.00 724.10 25.83
16501 92.5020 654.00 723.95 25.57
16502 92.5070 648.00 723.79 25.46
16503 92.5120 637.00 723.63 25.24
16504 92.5170 644.00 723.45 25.38
16505 92.5220 659.00 723.27 25.67
16506 92.5270 649.00 723.07 25.48
16507 92.5320 644.00 722.87 25.38
16508 92.5370 655.00 722.66 25.59
16509 92.5420 650.00 722.44 25.50
16510 92.5470 660.00 722.18 25.69
16511 92.5520 675.00 721.94 25.98
16512 92.5570 687.00 721.69 26.21
16513 92.5620 691.00 721.44 26.29
16514 92.5670 689.00 721.18 26.25
16515 92.5720 690.00 720.91 26.27
16516 92.5770 673.00 720.63 25.94
16517 92.5820 665.00 720.34 25.79
16518 92.5870 671.00 720.04 25.90
16519 92.5920 654.00 719.74 25.57
16520 92.5970 652.00 719.43 25.53
16521 92.6020 660.00 719.11 25.69
16522 92.6070 663.00 718.78 25.75
16523 92.6120 645.00 718.45 25.40
16524 92.6170 637.00 718.10 25.24
16525 92.6220 634.00 717.75 25.18
16526 92.6270 626.00 717.40 25.02
16527 92.6320 636.00 717.03 25.22
16528 92.6370 655.00 716.65 25.59
16529 92.6420 659.00 716.27 25.67
16530 92.6470 662.00 715.88 25.73
16531 92.6520 665.00 715.48 25.79
16532 92.6570 650.00 715.08 25.50
16533 92.6620 656.00 714.67 25.61
16534 92.6670 653.00 714.25 25.55
16535 92.6720 647.00 713.82 25.44
16536 92.6770 649.00 713.39 25.48
16537 92.6820 658.00 712.94 25.65
16538 92.6870 657.00 712.49 25.63
16539 92.6920 647.00 712.08 25.44
16540 92.6970 632.00 711.62 25.14
16541 92.7020 627.00 711.15 25.04
16542 92.7070 635.00 710.71 25.20
16543 92.7120 629.00 710.23 25.08
16544 92.7170 628.00 709.73 25.06
16545 92.7220 611.00 709.23 24.72
16546 92.7270 602.00 708.73 24.54
16547 92.7320 622.00 708.22 24.94
16548 92.7370 654.00 707.70 25.57
16549 92.7420 668.00 707.17 25.85
16550 92.7470 661.00 706.64 25.71
16551 92.7520 643.00 706.10 25.36
16552 92.7570 622.00 705.56 24.94
16553 92.7620 612.00 705.01 24.74
16554 92.7670 632.00 704.45 25.14
16555 92.7720 669.00 703.89 25.86
16556 92.7770 686.00 703.33 26.19
16557 92.7820 682.00 701.92 26.12
16558 92.7870 677.00 701.35 26.02
16559 92.7920 665.00 700.77 25.79
16560 92.7970 677.00 700.19 26.02
16561 92.8020 672.00 699.60 25.92
16562 92.8070 668.00 699.01 25.85
16563 92.8120 670.00 698.41 25.88
16564 92.8170 645.00 697.81 25.40
16565 92.8220 633.00 697.21 25.16
16566 92.8270 645.00 696.61 25.40
16567 92.8320 668.00 696.00 25.85
16568 92.8370 674.00 695.39 25.96
16569 92.8420 672.00 694.78 25.92
16570 92.8470 657.00 694.16 25.63
16571 92.8520 636.00 693.55 25.22
16572 92.8570 661.00 692.93 25.71
16573 92.8620 685.00 692.32 26.17
16574 92.8670 684.00 691.66 26.15
16575 92.8720 671.00 691.05 25.90
16576 92.8770 644.00 690.43 25.38
16577 92.8820 639.00 689.81 25.28
16578 92.8870 656.00 689.19 25.61
16579 92.8920 637.00 688.57 25.24
16580 92.8970 620.00 687.96 24.90
16581 92.9020 611.00 687.34 24.72
16582 92.9070 612.00 686.73 24.74
16583 92.9120 612.00 686.12 24.74
16584 92.9170 618.00 685.51 24.86
16585 92.9220 633.00 684.90 25.16
16586 92.9270 628.00 684.30 25.06
16587 92.9320 637.00 683.70 25.24
16588 92.9370 654.00 683.10 25.57
16589 92.9420 651.00 682.51 25.51
16590 92.9470 647.00 681.91 25.44
16591 92.9520 628.00 681.33 25.06
16592 92.9570 619.00 680.74 24.88
16593 92.9620 618.00 680.17 24.86
16594 92.9670 612.00 679.59 24.74
16595 92.9720 619.00 679.03 24.88
16596 92.9770 601.00 678.46 24.52
16597 92.9820 596.00 677.91 24.41
16598 92.9870 621.00 677.35 24.92
16599 92.9920 636.00 676.81 25.22
16600 92.9970 613.00 676.27 24.76
16601 93.0020 592.00 675.73 24.33
16602 93.0070 618.00 675.21 24.86
16603 93.0120 632.00 674.69 25.14
16604 93.0170 648.00 674.17 25.46
16605 93.0220 656.00 673.67 25.61
16606 93.0270 621.00 673.17 24.92
16607 93.0320 609.00 672.68 24.68
16608 93.0370 632.00 672.19 25.14
16609 93.0420 630.00 671.72 25.10
16610 93.0470 616.00 671.25 24.82
16611 93.0520 628.00 670.79 25.06
16612 93.0570 638.00 670.34 25.26
16613 93.0620 647.00 669.92 25.44
16614 93.0670 641.00 669.49 25.32
16615 93.0720 638.00 669.06 25.26
16616 93.0770 644.00 668.65 25.38
16617 93.0820 635.00 668.25 25.20
16618 93.0870 623.00 667.85 24.96
16619 93.0920 624.00 667.47 24.98
16620 93.0970 635.00 667.09 25.20
16621 93.1020 648.00 666.73 25.46
16622 93.1070 644.00 666.37 25.38
16623 93.1120 628.00 666.03 25.06
16624 93.1170 615.00 665.70 24.80
16625 93.1220 609.00 665.38 24.68
16626 93.1270 568.00 665.06 23.83
16627 93.1320 582.00 664.77 24.12
16628 93.1370 615.00 664.48 24.80
16629 93.1420 621.00 664.20 24.92
16630 93.1470 616.00 663.94 24.82
16631 93.1520 642.00 663.68 25.34
16632 93.1570 669.00 663.45 25.86
16633 93.1620 673.00 663.22 25.94
16634 93.1670 651.00 663.00 25.51
16635 93.1720 638.00 662.80 25.26
16636 93.1770 630.00 662.61 25.10
16637 93.1820 630.00 662.44 25.10
16638 93.1870 618.00 662.28 24.86
16639 93.1920 608.00 662.13 24.66
16640 93.1970 581.00 662.00 24.10
16641 93.2020 562.00 661.88 23.71
16642 93.2070 559.00 661.77 23.64
16643 93.2120 564.00 661.68 23.75
16644 93.2170 569.00 661.61 23.85
16645 93.2220 581.00 661.55 24.10
16646 93.2270 589.00 661.50 24.27
16647 93.2320 586.00 661.47 24.21
16648 93.2370 603.00 661.46 24.56
16649 93.2420 636.00 661.47 25.22
16650 93.2470 656.00 661.48 25.61
16651 93.2520 637.00 661.52 25.24
16652 93.2570 631.00 661.57 25.12
16653 93.2620 641.00 661.65 25.32
16654 93.2670 622.00 661.73 24.94
16655 93.2720 603.00 661.84 24.56
16656 93.2770 607.00 661.96 24.64
16657 93.2820 599.00 662.10 24.47
16658 93.2870 595.00 662.27 24.39
16659 93.2920 598.00 662.45 24.45
16660 93.2970 591.00 662.65 24.31
16661 93.3020 587.00 662.87 24.23
16662 93.3070 604.00 663.10 24.58
16663 93.3120 620.00 663.36 24.90
16664 93.3170 635.00 663.64 25.20
16665 93.3220 622.00 663.95 24.94
16666 93.3270 619.00 664.27 24.88
16667 93.3320 640.00 664.61 25.30
16668 93.3370 645.00 664.98 25.40
16669 93.3420 638.00 665.36 25.26
16670 93.3470 623.00 665.78 24.96
16671 93.3520 606.00 666.21 24.62
16672 93.3570 618.00 666.67 24.86
16673 93.3620 613.00 667.15 24.76
16674 93.3670 604.00 667.65 24.58
16675 93.3720 620.00 668.18 24.90
16676 93.3770 637.00 668.73 25.24
16677 93.3820 625.00 669.31 25.00
16678 93.3870 612.00 669.91 24.74
16679 93.3920 616.00 670.54 24.82
16680 93.3970 601.00 671.19 24.52
16681 93.4020 594.00 671.87 24.37
16682 93.4070 603.00 672.58 24.56
16683 93.4120 616.00 673.31 24.82
16684 93.4170 603.00 674.07 24.56
16685 93.4220 627.00 674.67 25.04
16686 93.4270 643.00 675.32 25.36
16687 93.4320 636.00 676.16 25.22
16688 93.4370 661.00 677.03 25.71
16689 93.4420 634.00 677.93 25.18
16690 93.4470 620.00 678.86 24.90
16691 93.4520 647.00 679.82 25.44
16692 93.4570 683.00 680.81 26.13
16693 93.4620 656.00 681.83 25.61
16694 93.4670 628.00 682.88 25.06
16695 93.4720 626.00 683.96 25.02
16696 93.4770 601.00 685.06 24.52
16697 93.4820 584.00 686.20 24.17
16698 93.4870 610.00 687.37 24.70
16699 93.4920 635.00 688.57 25.20
16700 93.4970 652.00 689.81 25.53
16701 93.5020 662.00 691.07 25.73
16702 93.5070 666.00 692.37 25.81
16703 93.5120 665.00 693.70 25.79
16704 93.5170 647.00 695.06 25.44
16705 93.5220 630.00 696.45 25.10
16706 93.5270 646.00 697.88 25.42
16707 93.5320 673.00 699.34 25.94
16708 93.5370 701.00 700.83 26.48
16709 93.5420 703.00 702.35 26.51
16710 93.5470 697.00 703.91 26.40
16711 93.5520 693.00 705.50 26.32
16712 93.5570 708.00 707.12 26.61
16713 93.5620 701.00 708.78 26.48
16714 93.5670 709.00 710.47 26.63
16715 93.5720 700.00 712.20 26.46
16716 93.5770 690.00 713.96 26.27
16717 93.5820 706.00 715.75 26.57
16718 93.5870 692.00 717.58 26.31
16719 93.5920 676.00 719.43 26.00
16720 93.5970 674.00 721.33 25.96
16721 93.6020 694.00 723.26 26.34
16722 93.6070 672.00 725.22 25.92
16723 93.6120 679.00 727.21 26.06
16724 93.6170 719.00 729.24 26.81
16725 93.6220 718.00 731.30 26.80
16726 93.6270 725.00 733.40 26.93
16727 93.6320 708.00 735.16 26.61
16728 93.6370 689.00 737.32 26.25
16729 93.6420 693.00 739.51 26.32
16730 93.6470 723.00 741.74 26.89
16731 93.6520 726.00 743.99 26.94
16732 93.6570 717.00 746.28 26.78
16733 93.6620 708.00 748.61 26.61
16734 93.6670 734.00 750.96 27.09
16735 93.6720 742.00 753.34 27.24
16736 93.6770 735.00 755.76 27.11
16737 93.6820 725.00 758.21 26.93
16738 93.6870 736.00 760.68 27.13
16739 93.6920 756.00 763.18 27.50
16740 93.6970 750.00 765.72 27.39
16741 93.7020 780.00 768.28 27.93
16742 93.7070 750.00 770.87 27.39
16743 93.7120 749.00 773.49 27.37
16744 93.7170 769.00 776.13 27.73
16745 93.7220 761.00 778.80 27.59
16746 93.7270 769.00 781.49 27.73
16747 93.7320 798.00 784.21 28.25
16748 93.7370 794.00 786.96 28.18
16749 93.7420 792.00 789.72 28.14
16750 93.7470 789.00 792.50 28.09
16751 93.7520 782.00 795.32 27.96
16752 93.7570 813.00 798.15 28.51
16753 93.7620 830.00 800.99 28.81
16754 93.7670 790.00 803.86 28.11
16755 93.7720 794.00 806.74 28.18
16756 93.7770 815.00 809.65 28.55
16757 93.7820 825.00 812.56 28.72
16758 93.7870 828.00 815.48 28.77
16759 93.7920 826.00 818.43 28.74
16760 93.7970 827.00 821.38 28.76
16761 93.8020 842.00 824.34 29.02
16762 93.8070 845.00 827.34 29.07
16763 93.8120 846.00 830.31 29.09
16764 93.8170 891.00 833.29 29.85
16765 93.8220 900.00 836.28 30.00
16766 93.8270 893.00 839.27 29.88
16767 93.8320 900.00 842.27 30.00
16768 93.8370 906.00 845.26 30.10
16769 93.8420 880.00 848.25 29.66
16770 93.8470 910.00 851.24 30.17
16771 93.8520 897.00 854.22 29.95
16772 93.8570 890.00 857.19 29.83
16773 93.8620 918.00 860.16 30.30
16774 93.8670 904.00 863.12 30.07
16775 93.8720 884.00 866.06 29.73
16776 93.8770 893.00 869.00 29.88
16777 93.8820 908.00 871.91 30.13
16778 93.8870 900.00 874.81 30.00
16779 93.8920 913.00 877.69 30.22
16780 93.8970 903.00 880.55 30.05
16781 93.9020 884.00 883.39 29.73
16782 93.9070 885.00 886.20 29.75
16783 93.9120 908.00 888.98 30.13
16784 93.9170 897.00 891.74 29.95
16785 93.9220 898.00 894.46 29.97
16786 93.9270 902.00 896.95 30.03
16787 93.9320 891.00 899.61 29.85
16788 93.9370 945.00 902.24 30.74
16789 93.9420 960.00 904.81 30.98
16790 93.9470 963.00 907.36 31.03
16791 93.9520 949.00 909.87 30.81
16792 93.9570 955.00 912.34 30.90
16793 93.9620 965.00 914.77 31.06
16794 93.9670 996.00 917.15 31.56
16795 93.9720 986.00 919.48 31.40
16796 93.9770 1006.00 921.77 31.72
16797 93.9820 994.00 924.01 31.53
16798 93.9870 1014.00 926.20 31.84
16799 93.9920 1013.00 928.33 31.83
16800 93.9970 1020.00 930.41 31.94
16801 94.0020 1023.00 932.44 31.98
16802 94.0070 995.00 934.41 31.54
16803 94.0120 1035.00 936.33 32.17
16804 94.0170 1012.00 938.18 31.81
16805 94.0220 998.00 939.98 31.59
16806 94.0270 1023.00 941.72 31.98
16807 94.0320 1006.00 943.40 31.72
16808 94.0370 998.00 945.01 31.59
16809 94.0420 998.00 946.57 31.59
16810 94.0470 1010.00 948.06 31.78
16811 94.0520 1022.00 949.49 31.97
16812 94.0570 1039.00 950.86 32.23
16813 94.0620 1061.00 952.16 32.57
16814 94.0670 1037.00 953.40 32.20
16815 94.0720 1057.00 954.57 32.51
16816 94.0770 1029.00 955.68 32.08
16817 94.0820 1051.00 956.72 32.42
16818 94.0870 1035.00 957.70 32.17
16819 94.0920 1029.00 958.61 32.08
16820 94.0970 1029.00 959.46 32.08
16821 94.1020 982.00 960.38 31.34
16822 94.1070 957.00 961.10 30.94
16823 94.1120 954.00 961.75 30.89
16824 94.1170 987.00 962.34 31.42
16825 94.1220 996.00 962.87 31.56
16826 94.1270 994.00 963.33 31.53
16827 94.1320 981.00 963.73 31.32
16828 94.1370 981.00 964.07 31.32
16829 94.1420 988.00 964.35 31.43
16830 94.1470 1023.00 964.57 31.98
16831 94.1520 1033.00 964.73 32.14
16832 94.1570 1035.00 964.82 32.17
16833 94.1620 1068.00 964.86 32.68
16834 94.1670 1007.00 964.85 31.73
16835 94.1720 1022.00 964.77 31.97
16836 94.1770 1001.00 964.65 31.64
16837 94.1820 1015.00 964.46 31.86
16838 94.1870 1018.00 964.23 31.91
16839 94.1920 1024.00 963.94 32.00
16840 94.1970 1027.00 963.60 32.05
16841 94.2020 1034.00 963.22 32.16
16842 94.2070 1055.00 962.79 32.48
16843 94.2120 1037.00 962.31 32.20
16844 94.2170 1051.00 961.78 32.42
16845 94.2220 1051.00 961.22 32.42
16846 94.2270 1047.00 960.61 32.36
16847 94.2320 1053.00 959.96 32.45
16848 94.2370 1070.00 959.27 32.71
16849 94.2420 1066.00 958.55 32.65
16850 94.2470 1069.00 957.79 32.70
16851 94.2520 1066.00 956.99 32.65
16852 94.2570 1042.00 956.17 32.28
16853 94.2620 1065.00 955.31 32.63
16854 94.2670 1031.00 954.43 32.11
16855 94.2720 1014.00 953.52 31.84
16856 94.2770 988.00 952.58 31.43
16857 94.2820 992.00 951.62 31.50
16858 94.2870 992.00 950.64 31.50
16859 94.2920 985.00 949.63 31.38
16860 94.2970 988.00 948.61 31.43
16861 94.3020 996.00 947.57 31.56
16862 94.3070 994.00 946.52 31.53
16863 94.3120 967.00 945.45 31.10
16864 94.3170 936.00 944.37 30.59
16865 94.3220 921.00 943.28 30.35
16866 94.3270 940.00 942.17 30.66
16867 94.3320 949.00 941.06 30.81
16868 94.3370 978.00 939.95 31.27
16869 94.3420 975.00 938.82 31.23
16870 94.3470 979.00 937.70 31.29
16871 94.3520 980.00 936.57 31.31
16872 94.3570 983.00 935.44 31.35
16873 94.3620 963.00 934.30 31.03
16874 94.3670 951.00 933.17 30.84
16875 94.3720 977.00 932.05 31.26
16876 94.3770 980.00 930.92 31.31
16877 94.3820 977.00 929.80 31.26
16878 94.3870 946.00 928.68 30.76
16879 94.3920 941.00 927.56 30.68
16880 94.3970 969.00 926.46 31.13
16881 94.4020 996.00 925.36 31.56
16882 94.4070 980.00 924.27 31.31
16883 94.4120 968.00 923.18 31.11
16884 94.4170 979.00 922.11 31.29
16885 94.4220 994.00 921.04 31.53
16886 94.4270 947.00 919.99 30.77
16887 94.4320 954.00 918.95 30.89
16888 94.4370 989.00 917.91 31.45
16889 94.4420 1002.00 916.90 31.65
16890 94.4470 999.00 915.89 31.61
16891 94.4520 990.00 914.89 31.46
16892 94.4570 980.00 913.90 31.31
16893 94.4620 977.00 912.93 31.26
16894 94.4670 965.00 911.98 31.06
16895 94.4720 976.00 911.03 31.24
16896 94.4770 963.00 910.10 31.03
16897 94.4820 955.00 909.19 30.90
16898 94.4870 920.00 908.28 30.33
16899 94.4920 926.00 907.40 30.43
16900 94.4970 930.00 906.52 30.50
16901 94.5020 921.00 905.66 30.35
16902 94.5070 938.00 904.81 30.63
16903 94.5120 912.00 903.98 30.20
16904 94.5170 898.00 903.16 29.97
16905 94.5220 905.00 902.36 30.08
16906 94.5270 933.00 901.57 30.55
16907 94.5320 947.00 900.79 30.77
16908 94.5370 948.00 900.03 30.79
16909 94.5420 955.00 899.29 30.90
16910 94.5470 948.00 898.56 30.79
16911 94.5520 953.00 897.84 30.87
16912 94.5570 970.00 897.13 31.14
16913 94.5620 952.00 896.45 30.85
16914 94.5670 948.00 895.77 30.79
16915 94.5720 947.00 895.11 30.77
16916 94.5770 932.00 894.46 30.53
16917 94.5820 938.00 893.83 30.63
16918 94.5870 943.00 893.21 30.71
16919 94.5920 968.00 892.61 31.11
16920 94.5970 956.00 892.02 30.92
16921 94.6020 947.00 891.44 30.77
16922 94.6070 933.00 890.85 30.55
16923 94.6120 908.00 890.30 30.13
16924 94.6170 901.00 889.77 30.02
16925 94.6220 905.00 889.25 30.08
16926 94.6270 876.00 888.75 29.60
16927 94.6320 893.00 888.26 29.88
16928 94.6370 941.00 887.79 30.68
16929 94.6420 976.00 887.33 31.24
16930 94.6470 950.00 886.89 30.82
16931 94.6520 951.00 886.46 30.84
16932 94.6570 943.00 886.04 30.71
16933 94.6620 948.00 885.65 30.79
16934 94.6670 1007.00 885.27 31.73
16935 94.6720 1013.00 884.90 31.83
16936 94.6770 993.00 884.55 31.51
16937 94.6820 970.00 884.22 31.14
16938 94.6870 957.00 883.90 30.94
16939 94.6920 926.00 883.60 30.43
16940 94.6970 939.00 882.36 30.64
16941 94.7020 934.00 882.09 30.56
16942 94.7070 929.00 881.85 30.48
16943 94.7120 939.00 881.62 30.64
16944 94.7170 930.00 881.41 30.50
16945 94.7220 921.00 881.21 30.35
16946 94.7270 921.00 881.03 30.35
16947 94.7320 930.00 880.88 30.50
16948 94.7370 942.00 880.48 30.69
16949 94.7420 925.00 880.36 30.41
16950 94.7470 941.00 879.83 30.68
16951 94.7520 955.00 879.75 30.90
16952 94.7570 965.00 879.68 31.06
16953 94.7620 963.00 879.64 31.03
16954 94.7670 967.00 879.61 31.10
16955 94.7720 937.00 879.60 30.61
16956 94.7770 918.00 879.62 30.30
16957 94.7820 903.00 879.65 30.05
16958 94.7870 897.00 879.71 29.95
16959 94.7920 924.00 879.79 30.40
16960 94.7970 934.00 879.89 30.56
16961 94.8020 925.00 880.01 30.41
16962 94.8070 914.00 880.51 30.23
16963 94.8120 893.00 880.67 29.88
16964 94.8170 906.00 880.86 30.10
16965 94.8220 920.00 881.08 30.33
16966 94.8270 924.00 881.32 30.40
16967 94.8320 937.00 881.58 30.61
16968 94.8370 931.00 881.87 30.51
16969 94.8420 923.00 882.18 30.38
16970 94.8470 935.00 882.52 30.58
16971 94.8520 950.00 882.89 30.82
16972 94.8570 942.00 883.28 30.69
16973 94.8620 927.00 883.70 30.45
16974 94.8670 904.00 884.14 30.07
16975 94.8720 902.00 884.61 30.03
16976 94.8770 916.00 885.11 30.27
16977 94.8820 942.00 885.63 30.69
16978 94.8870 942.00 886.18 30.69
16979 94.8920 917.00 886.76 30.28
16980 94.8970 912.00 887.37 30.20
16981 94.9020 946.00 888.00 30.76
16982 94.9070 965.00 888.66 31.06
16983 94.9120 973.00 889.37 31.19
16984 94.9170 952.00 890.09 30.85
16985 94.9220 921.00 890.83 30.35
16986 94.9270 919.00 891.60 30.32
16987 94.9320 927.00 892.40 30.45
16988 94.9370 933.00 893.22 30.55
16989 94.9420 923.00 894.07 30.38
16990 94.9470 940.00 894.95 30.66
16991 94.9520 954.00 895.86 30.89
16992 94.9570 947.00 896.79 30.77
16993 94.9620 940.00 897.75 30.66
16994 94.9670 940.00 898.73 30.66
16995 94.9720 945.00 899.75 30.74
16996 94.9770 938.00 900.78 30.63
16997 94.9820 923.00 901.84 30.38
16998 94.9870 900.00 902.94 30.00
16999 94.9920 892.00 904.05 29.87
17000 94.9970 898.00 905.19 29.97
17001 95.0020 889.00 906.35 29.82
17002 95.0070 889.00 907.54 29.82
17003 95.0120 887.00 908.75 29.78
17004 95.0170 896.00 909.99 29.93
17005 95.0220 908.00 911.25 30.13
17006 95.0270 919.00 912.53 30.32
17007 95.0320 933.00 913.83 30.55
17008 95.0370 937.00 915.16 30.61
17009 95.0420 944.00 916.51 30.72
17010 95.0470 948.00 917.88 30.79
17011 95.0520 954.00 919.26 30.89
17012 95.0570 982.00 920.57 31.34
17013 95.0620 991.00 921.99 31.48
17014 95.0670 1001.00 923.44 31.64
17015 95.0720 997.00 924.91 31.58
17016 95.0770 995.00 926.39 31.54
17017 95.0820 988.00 927.89 31.43
17018 95.0870 977.00 929.41 31.26
17019 95.0920 975.00 930.94 31.23
17020 95.0970 991.00 932.48 31.48
17021 95.1020 993.00 934.04 31.51
17022 95.1070 998.00 935.61 31.59
17023 95.1120 979.00 937.20 31.29
17024 95.1170 924.00 938.80 30.40
17025 95.1220 940.00 940.40 30.66
17026 95.1270 948.00 942.02 30.79
17027 95.1320 956.00 943.64 30.92
17028 95.1370 974.00 945.28 31.21
17029 95.1420 968.00 946.92 31.11
17030 95.1470 1010.00 948.56 31.78
17031 95.1520 1030.00 950.22 32.09
17032 95.1570 1029.00 951.87 32.08
17033 95.1620 1022.00 954.16 31.97
17034 95.1670 1076.00 955.83 32.80
17035 95.1720 1088.00 957.49 32.98
17036 95.1770 1067.00 959.15 32.67
17037 95.1820 1071.00 960.82 32.73
17038 95.1870 1067.00 961.63 32.67
17039 95.1920 1046.00 963.29 32.34
17040 95.1970 1035.00 964.94 32.17
17041 95.2020 1029.00 966.59 32.08
17042 95.2070 1021.00 968.24 31.95
17043 95.2120 1031.00 969.88 32.11
17044 95.2170 1043.00 971.50 32.30
17045 95.2220 1060.00 973.13 32.56
17046 95.2270 1050.00 974.74 32.40
17047 95.2320 1034.00 976.34 32.16
17048 95.2370 1045.00 977.94 32.33
17049 95.2420 1058.00 979.43 32.53
17050 95.2470 1056.00 981.00 32.50
17051 95.2520 1060.00 982.55 32.56
17052 95.2570 1062.00 984.09 32.59
17053 95.2620 1052.00 985.62 32.43
17054 95.2670 1062.00 987.13 32.59
17055 95.2720 1091.00 988.62 33.03
17056 95.2770 1124.00 990.10 33.53
17057 95.2820 1113.00 991.57 33.36
17058 95.2870 1101.00 993.01 33.18
17059 95.2920 1109.00 994.44 33.30
17060 95.2970 1128.00 995.85 33.59
17061 95.3020 1118.00 997.24 33.44
17062 95.3070 1121.00 998.61 33.48
17063 95.3120 1104.00 999.96 33.23
17064 95.3170 1087.00 1001.30 32.97
17065 95.3220 1088.00 1002.62 32.98
17066 95.3270 1094.00 1003.92 33.08
17067 95.3320 1092.00 1005.20 33.05
17068 95.3370 1079.00 1006.46 32.85
17069 95.3420 1045.00 1007.71 32.33
17070 95.3470 1111.00 1008.93 33.33
17071 95.3520 1135.00 1010.14 33.69
17072 95.3570 1117.00 1011.33 33.42
17073 95.3620 1134.00 1012.50 33.67
17074 95.3670 1133.00 1013.66 33.66
17075 95.3720 1164.00 1014.80 34.12
17076 95.3770 1139.00 1015.92 33.75
17077 95.3820 1116.00 1017.03 33.41
17078 95.3870 1131.00 1018.19 33.63
17079 95.3920 1157.00 1019.27 34.01
17080 95.3970 1151.00 1020.34 33.93
17081 95.4020 1126.00 1021.39 33.56
17082 95.4070 1129.00 1022.43 33.60
17083 95.4120 1149.00 1023.45 33.90
17084 95.4170 1131.00 1024.44 33.63
17085 95.4220 1118.00 1025.44 33.44
17086 95.4270 1130.00 1026.43 33.62
17087 95.4320 1127.00 1027.42 33.57
17088 95.4370 1110.00 1028.34 33.32
17089 95.4420 1104.00 1029.30 33.23
17090 95.4470 1115.00 1030.27 33.39
17091 95.4520 1147.00 1031.22 33.87
17092 95.4570 1196.00 1032.17 34.58
17093 95.4620 1220.00 1033.11 34.93
17094 95.4670 1206.00 1034.05 34.73
17095 95.4720 1173.00 1034.98 34.25
17096 95.4770 1160.00 1035.91 34.06
17097 95.4820 1180.00 1036.83 34.35
17098 95.4870 1169.00 1037.76 34.19
17099 95.4920 1158.00 1038.68 34.03
17100 95.4970 1140.00 1039.60 33.76
17101 95.5020 1118.00 1040.52 33.44
17102 95.5070 1123.00 1041.44 33.51
17103 95.5120 1138.00 1042.36 33.73
17104 95.5170 1149.00 1043.28 33.90
17105 95.5220 1138.00 1044.20 33.73
17106 95.5270 1125.00 1045.13 33.54
17107 95.5320 1094.00 1046.06 33.08
17108 95.5370 1100.00 1046.98 33.17
17109 95.5420 1106.00 1047.92 33.26
17110 95.5470 1136.00 1048.85 33.70
17111 95.5520 1170.00 1049.79 34.21
17112 95.5570 1199.00 1050.74 34.63
17113 95.5620 1181.00 1051.69 34.37
17114 95.5670 1200.00 1052.64 34.64
17115 95.5720 1181.00 1053.60 34.37
17116 95.5770 1139.00 1054.56 33.75
17117 95.5820 1164.00 1055.53 34.12
17118 95.5870 1174.00 1056.50 34.26
17119 95.5920 1129.00 1057.48 33.60
17120 95.5970 1160.00 1058.47 34.06
17121 95.6020 1128.00 1059.49 33.59
17122 95.6070 1113.00 1060.15 33.36
17123 95.6120 1125.00 1061.16 33.54
17124 95.6170 1137.00 1062.17 33.72
17125 95.6220 1147.00 1063.20 33.87
17126 95.6270 1154.00 1064.23 33.97
17127 95.6320 1156.00 1065.27 34.00
17128 95.6370 1154.00 1066.32 33.97
17129 95.6420 1142.00 1067.38 33.79
17130 95.6470 1142.00 1068.44 33.79
17131 95.6520 1174.00 1069.52 34.26
17132 95.6570 1177.00 1070.60 34.31
17133 95.6620 1172.00 1071.69 34.23
17134 95.6670 1164.00 1072.80 34.12
17135 95.6720 1146.00 1073.91 33.85
17136 95.6770 1144.00 1075.04 33.82
17137 95.6820 1113.00 1076.17 33.36
17138 95.6870 1133.00 1077.32 33.66
17139 95.6920 1170.00 1078.47 34.21
17140 95.6970 1180.00 1079.64 34.35
17141 95.7020 1199.00 1080.82 34.63
17142 95.7070 1199.00 1082.01 34.63
17143 95.7120 1181.00 1083.21 34.37
17144 95.7170 1177.00 1084.42 34.31
17145 95.7220 1181.00 1085.65 34.37
17146 95.7270 1183.00 1086.75 34.39
17147 95.7320 1169.00 1088.00 34.19
17148 95.7370 1175.00 1089.26 34.28
17149 95.7420 1145.00 1090.54 33.84
17150 95.7470 1147.00 1091.56 33.87
17151 95.7520 1147.00 1092.44 33.87
17152 95.7570 1157.00 1093.76 34.01
17153 95.7620 1142.00 1095.09 33.79
17154 95.7670 1174.00 1096.44 34.26
17155 95.7720 1190.00 1097.87 34.50
17156 95.7770 1165.00 1099.24 34.13
17157 95.7820 1169.00 1100.63 34.19
17158 95.7870 1178.00 1102.03 34.32
17159 95.7920 1166.00 1103.45 34.15
17160 95.7970 1203.00 1104.88 34.68
17161 95.8020 1234.00 1106.33 35.13
17162 95.8070 1222.00 1107.79 34.96
17163 95.8120 1167.00 1109.26 34.16
17164 95.8170 1163.00 1110.75 34.10
17165 95.8220 1165.00 1112.26 34.13
17166 95.8270 1174.00 1113.77 34.26
17167 95.8320 1193.00 1115.31 34.54
17168 95.8370 1236.00 1116.85 35.16
17169 95.8420 1192.00 1118.41 34.53
17170 95.8470 1196.00 1119.99 34.58
17171 95.8520 1221.00 1121.57 34.94
17172 95.8570 1231.00 1123.17 35.09
17173 95.8620 1260.00 1124.79 35.50
17174 95.8670 1245.00 1126.41 35.28
17175 95.8720 1221.00 1128.05 34.94
17176 95.8770 1189.00 1129.70 34.48
17177 95.8820 1196.00 1131.36 34.58
17178 95.8870 1195.00 1133.04 34.57
17179 95.8920 1215.00 1134.72 34.86
17180 95.8970 1221.00 1136.42 34.94
17181 95.9020 1198.00 1138.12 34.61
17182 95.9070 1216.00 1139.84 34.87
17183 95.9120 1205.00 1141.56 34.71
17184 95.9170 1195.00 1143.30 34.57
17185 95.9220 1216.00 1145.04 34.87
17186 95.9270 1255.00 1146.79 35.43
17187 95.9320 1213.00 1148.54 34.83
17188 95.9370 1219.00 1150.30 34.91
17189 95.9420 1241.00 1152.07 35.23
17190 95.9470 1207.00 1153.84 34.74
17191 95.9520 1204.00 1155.62 34.70
17192 95.9570 1199.00 1157.41 34.63
17193 95.9620 1202.00 1159.19 34.67
17194 95.9670 1224.00 1160.98 34.99
17195 95.9720 1240.00 1162.77 35.21
17196 95.9770 1244.00 1164.56 35.27
17197 95.9820 1249.00 1166.36 35.34
17198 95.9870 1235.00 1168.15 35.14
17199 95.9920 1247.00 1169.94 35.31
17200 95.9970 1229.00 1171.73 35.06
17201 96.0020 1216.00 1173.52 34.87
17202 96.0070 1242.00 1175.31 35.24
17203 96.0120 1247.00 1177.10 35.31
17204 96.0170 1239.00 1178.88 35.20
17205 96.0220 1247.00 1180.65 35.31
17206 96.0270 1259.00 1182.42 35.48
17207 96.0320 1245.00 1184.18 35.28
17208 96.0370 1244.00 1185.94 35.27
17209 96.0420 1236.00 1187.69 35.16
17210 96.0470 1243.00 1189.43 35.26
17211 96.0520 1257.00 1191.16 35.45
17212 96.0570 1249.00 1192.88 35.34
17213 96.0620 1229.00 1194.59 35.06
17214 96.0670 1242.00 1196.30 35.24
17215 96.0720 1282.00 1197.99 35.81
17216 96.0770 1274.00 1199.66 35.69
17217 96.0820 1249.00 1201.32 35.34
17218 96.0870 1252.00 1202.97 35.38
17219 96.0920 1251.00 1204.61 35.37
17220 96.0970 1277.00 1206.23 35.74
17221 96.1020 1302.00 1207.83 36.08
17222 96.1070 1257.00 1209.42 35.45
17223 96.1120 1250.00 1210.99 35.36
17224 96.1170 1263.00 1212.54 35.54
17225 96.1220 1245.00 1214.07 35.28
17226 96.1270 1244.00 1215.59 35.27
17227 96.1320 1244.00 1217.08 35.27
17228 96.1370 1273.00 1218.56 35.68
17229 96.1420 1310.00 1220.01 36.19
17230 96.1470 1322.00 1221.45 36.36
17231 96.1520 1311.00 1222.86 36.21
17232 96.1570 1283.00 1224.25 35.82
17233 96.1620 1280.00 1225.61 35.78
17234 96.1670 1286.00 1226.96 35.86
17235 96.1720 1286.00 1228.27 35.86
17236 96.1770 1294.00 1229.56 35.97
17237 96.1820 1286.00 1230.83 35.86
17238 96.1870 1280.00 1232.08 35.78
17239 96.1920 1287.00 1233.29 35.87
17240 96.1970 1275.00 1234.48 35.71
17241 96.2020 1288.00 1235.65 35.89
17242 96.2070 1307.00 1236.78 36.15
17243 96.2120 1335.00 1237.89 36.54
17244 96.2170 1350.00 1238.97 36.74
17245 96.2220 1357.00 1240.02 36.84
17246 96.2270 1353.00 1241.04 36.78
17247 96.2320 1339.00 1242.03 36.59
17248 96.2370 1316.00 1242.99 36.28
17249 96.2420 1333.00 1243.92 36.51
17250 96.2470 1357.00 1244.82 36.84
17251 96.2520 1373.00 1245.69 37.05
17252 96.2570 1384.00 1246.52 37.20
17253 96.2620 1372.00 1247.33 37.04
17254 96.2670 1358.00 1248.09 36.85
17255 96.2720 1371.00 1248.67 37.03
17256 96.2770 1355.00 1249.12 36.81
17257 96.2820 1333.00 1249.79 36.51
17258 96.2870 1332.00 1250.42 36.50
17259 96.2920 1336.00 1251.01 36.55
17260 96.2970 1348.00 1251.57 36.72
17261 96.3020 1355.00 1252.10 36.81
17262 96.3070 1335.00 1252.58 36.54
17263 96.3120 1321.00 1253.03 36.35
17264 96.3170 1320.00 1253.44 36.33
17265 96.3220 1319.00 1253.81 36.32
17266 96.3270 1302.00 1254.14 36.08
17267 96.3320 1302.00 1254.43 36.08
17268 96.3370 1323.00 1254.68 36.37
17269 96.3420 1322.00 1254.89 36.36
17270 96.3470 1337.00 1255.06 36.56
17271 96.3520 1345.00 1255.18 36.67
17272 96.3570 1339.00 1255.26 36.59
17273 96.3620 1350.00 1255.30 36.74
17274 96.3670 1357.00 1255.30 36.84
17275 96.3720 1354.00 1255.25 36.80
17276 96.3770 1355.00 1255.15 36.81
17277 96.3820 1346.00 1255.02 36.69
17278 96.3870 1351.00 1254.83 36.76
17279 96.3920 1360.00 1254.60 36.88
17280 96.3970 1362.00 1254.32 36.91
17281 96.4020 1368.00 1254.00 36.99
17282 96.4070 1361.00 1253.63 36.89
17283 96.4120 1343.00 1253.21 36.65
17284 96.4170 1331.00 1252.74 36.48
17285 96.4220 1345.00 1252.23 36.67
17286 96.4270 1348.00 1251.67 36.72
17287 96.4320 1330.00 1251.06 36.47
17288 96.4370 1327.00 1250.40 36.43
17289 96.4420 1318.00 1249.69 36.30
17290 96.4470 1323.00 1248.93 36.37
17291 96.4520 1328.00 1248.12 36.44
17292 96.4570 1334.00 1247.26 36.52
17293 96.4620 1349.00 1246.36 36.73
17294 96.4670 1367.00 1245.40 36.97
17295 96.4720 1384.00 1244.38 37.20
17296 96.4770 1351.00 1243.33 36.76
17297 96.4820 1315.00 1242.23 36.26
17298 96.4870 1285.00 1241.08 35.85
17299 96.4920 1303.00 1239.88 36.10
17300 96.4970 1304.00 1238.64 36.11
17301 96.5020 1281.00 1237.34 35.79
17302 96.5070 1289.00 1236.00 35.90
17303 96.5120 1287.00 1234.43 35.87
17304 96.5170 1275.00 1233.00 35.71
17305 96.5220 1260.00 1231.52 35.50
17306 96.5270 1262.00 1229.98 35.52
17307 96.5320 1311.00 1228.42 36.21
17308 96.5370 1308.00 1226.80 36.17
17309 96.5420 1299.00 1225.13 36.04
17310 96.5470 1314.00 1223.43 36.25
17311 96.5520 1313.00 1221.68 36.24
17312 96.5570 1300.00 1219.89 36.06
17313 96.5620 1318.00 1218.05 36.30
17314 96.5670 1301.00 1216.18 36.07
17315 96.5720 1271.00 1214.26 35.65
17316 96.5770 1261.00 1212.30 35.51
17317 96.5820 1256.00 1210.31 35.44
17318 96.5870 1225.00 1208.28 35.00
17319 96.5920 1248.00 1206.20 35.33
17320 96.5970 1237.00 1204.09 35.17
17321 96.6020 1222.00 1201.95 34.96
17322 96.6070 1228.00 1199.76 35.04
17323 96.6120 1193.00 1197.55 34.54
17324 96.6170 1196.00 1195.29 34.58
17325 96.6220 1228.00 1193.01 35.04
17326 96.6270 1211.00 1190.69 34.80
17327 96.6320 1217.00 1188.34 34.89
17328 96.6370 1234.00 1185.96 35.13
17329 96.6420 1215.00 1183.54 34.86
17330 96.6470 1197.00 1181.10 34.60
17331 96.6520 1216.00 1178.63 34.87
17332 96.6570 1261.00 1176.13 35.51
17333 96.6620 1279.00 1173.61 35.76
17334 96.6670 1283.00 1171.05 35.82
17335 96.6720 1292.00 1168.47 35.94
17336 96.6770 1248.00 1165.87 35.33
17337 96.6820 1207.00 1163.24 34.74
17338 96.6870 1186.00 1160.59 34.44
17339 96.6920 1203.00 1157.91 34.68
17340 96.6970 1208.00 1155.21 34.76
17341 96.7020 1196.00 1152.50 34.58
17342 96.7070 1175.00 1149.76 34.28
17343 96.7120 1185.00 1147.00 34.42
17344 96.7170 1204.00 1144.23 34.70
17345 96.7220 1182.00 1141.43 34.38
17346 96.7270 1151.00 1138.62 33.93
17347 96.7320 1159.00 1135.79 34.04
17348 96.7370 1176.00 1132.94 34.29
17349 96.7420 1184.00 1130.09 34.41
17350 96.7470 1195.00 1127.22 34.57
17351 96.7520 1165.00 1124.10 34.13
17352 96.7570 1184.00 1121.21 34.41
17353 96.7620 1173.00 1118.30 34.25
17354 96.7670 1149.00 1115.38 33.90
17355 96.7720 1143.00 1112.46 33.81
17356 96.7770 1119.00 1109.52 33.45
17357 96.7820 1149.00 1106.58 33.90
17358 96.7870 1175.00 1103.64 34.28
17359 96.7920 1162.00 1100.68 34.09
17360 96.7970 1175.00 1097.72 34.28
17361 96.8020 1154.00 1094.75 33.97
17362 96.8070 1144.00 1091.78 33.82
17363 96.8120 1124.00 1088.80 33.53
17364 96.8170 1107.00 1085.83 33.27
17365 96.8220 1110.00 1082.85 33.32
17366 96.8270 1101.00 1079.87 33.18
17367 96.8320 1105.00 1076.88 33.24
17368 96.8370 1102.00 1073.90 33.20
17369 96.8420 1090.00 1070.92 33.02
17370 96.8470 1133.00 1067.94 33.66
17371 96.8520 1116.00 1064.96 33.41
17372 96.8570 1096.00 1061.98 33.11
17373 96.8620 1109.00 1059.01 33.30
17374 96.8670 1111.00 1056.04 33.33
17375 96.8720 1092.00 1053.07 33.05
17376 96.8770 1090.00 1050.11 33.02
17377 96.8820 1079.00 1047.15 32.85
17378 96.8870 1074.00 1044.20 32.77
17379 96.8920 1066.00 1041.25 32.65
17380 96.8970 1051.00 1038.32 32.42
17381 96.9020 1026.00 1035.38 32.03
17382 96.9070 1029.00 1032.45 32.08
17383 96.9120 1040.00 1029.54 32.25
17384 96.9170 1032.00 1026.63 32.12
17385 96.9220 1025.00 1023.73 32.02
17386 96.9270 1013.00 1020.84 31.83
17387 96.9320 1004.00 1017.95 31.69
17388 96.9370 1028.00 1015.08 32.06
17389 96.9420 1047.00 1012.22 32.36
17390 96.9470 1039.00 1009.37 32.23
17391 96.9520 1030.00 1006.52 32.09
17392 96.9570 1035.00 1003.69 32.17
17393 96.9620 1050.00 1000.88 32.40
17394 96.9670 1028.00 998.07 32.06
17395 96.9720 1017.00 995.27 31.89
17396 96.9770 1028.00 992.49 32.06
17397 96.9820 999.00 989.72 31.61
17398 96.9870 982.00 986.96 31.34
17399 96.9920 1006.00 984.22 31.72
17400 96.9970 1025.00 981.50 32.02
17401 97.0020 1016.00 978.78 31.87
17402 97.0070 1003.00 976.08 31.67
17403 97.0120 996.00 973.39 31.56
17404 97.0170 993.00 970.72 31.51
17405 97.0220 975.00 968.07 31.23
17406 97.0270 938.00 965.42 30.63
17407 97.0320 935.00 962.80 30.58
17408 97.0370 933.00 960.19 30.55
17409 97.0420 913.00 957.59 30.22
17410 97.0470 926.00 955.02 30.43
17411 97.0520 963.00 952.46 31.03
17412 97.0570 950.00 949.91 30.82
17413 97.0620 908.00 947.39 30.13
17414 97.0670 882.00 944.88 29.70
17415 97.0720 903.00 942.39 30.05
17416 97.0770 931.00 939.91 30.51
17417 97.0820 919.00 937.46 30.32
17418 97.0870 922.00 935.02 30.36
17419 97.0920 932.00 933.00 30.53
17420 97.0970 905.00 930.60 30.08
17421 97.1020 875.00 928.22 29.58
17422 97.1070 884.00 925.86 29.73
17423 97.1120 888.00 923.52 29.80
17424 97.1170 852.00 921.20 29.19
17425 97.1220 845.00 918.90 29.07
17426 97.1270 854.00 916.62 29.22
17427 97.1320 848.00 914.36 29.12
17428 97.1370 853.00 912.12 29.21
17429 97.1420 862.00 909.90 29.36
17430 97.1470 868.00 907.53 29.46
17431 97.1520 902.00 905.36 30.03
17432 97.1570 886.00 903.20 29.77
17433 97.1620 896.00 901.07 29.93
17434 97.1670 894.00 898.96 29.90
17435 97.1720 910.00 896.87 30.17
17436 97.1770 900.00 894.81 30.00
17437 97.1820 892.00 892.77 29.87
17438 97.1870 859.00 890.74 29.31
17439 97.1920 824.00 888.74 28.71
17440 97.1970 838.00 886.77 28.95
17441 97.2020 865.00 884.82 29.41
17442 97.2070 840.00 882.88 28.98
17443 97.2120 829.00 880.98 28.79
17444 97.2170 805.00 879.09 28.37
17445 97.2220 802.00 877.23 28.32
17446 97.2270 819.00 875.39 28.62
17447 97.2320 801.00 873.58 28.30
17448 97.2370 802.00 871.78 28.32
17449 97.2420 818.00 870.02 28.60
17450 97.2470 828.00 868.28 28.77
17451 97.2520 838.00 866.55 28.95
17452 97.2570 844.00 864.85 29.05
17453 97.2620 849.00 863.18 29.14
17454 97.2670 861.00 861.53 29.34
17455 97.2720 851.00 859.91 29.17
17456 97.2770 821.00 858.30 28.65
17457 97.2820 849.00 856.72 29.14
17458 97.2870 852.00 855.17 29.19
17459 97.2920 831.00 853.64 28.83
17460 97.2970 815.00 852.13 28.55
17461 97.3020 818.00 850.65 28.60
17462 97.3070 810.00 849.19 28.46
17463 97.3120 811.00 847.76 28.48
17464 97.3170 849.00 846.34 29.14
17465 97.3220 835.00 844.96 28.90
17466 97.3270 799.00 843.59 28.27
17467 97.3320 787.00 842.25 28.05
17468 97.3370 800.00 840.94 28.28
17469 97.3420 789.00 839.65 28.09
17470 97.3470 816.00 838.38 28.57
17471 97.3520 816.00 837.13 28.57
17472 97.3570 826.00 835.91 28.74
17473 97.3620 840.00 834.71 28.98
17474 97.3670 852.00 833.54 29.19
17475 97.3720 844.00 832.39 29.05
17476 97.3770 835.00 831.26 28.90
17477 97.3820 810.00 830.16 28.46
17478 97.3870 800.00 829.08 28.28
17479 97.3920 802.00 828.03 28.32
17480 97.3970 788.00 827.00 28.07
17481 97.4020 780.00 825.99 27.93
17482 97.4070 780.00 825.00 27.93
17483 97.4120 774.00 824.04 27.82
17484 97.4170 778.00 823.10 27.89
17485 97.4220 765.00 822.19 27.66
17486 97.4270 766.00 821.30 27.68
17487 97.4320 771.00 820.43 27.77
17488 97.4370 775.00 819.59 27.84
17489 97.4420 778.00 818.77 27.89
17490 97.4470 793.00 817.97 28.16
17491 97.4520 798.00 817.73 28.25
17492 97.4570 812.00 816.98 28.50
17493 97.4620 813.00 816.25 28.51
17494 97.4670 787.00 815.54 28.05
17495 97.4720 767.00 814.86 27.69
17496 97.4770 773.00 814.20 27.80
17497 97.4820 776.00 813.56 27.86
17498 97.4870 789.00 812.94 28.09
17499 97.4920 801.00 812.35 28.30
17500 97.4970 821.00 811.78 28.65
17501 97.5020 809.00 811.23 28.44
17502 97.5070 787.00 810.70 28.05
17503 97.5120 781.00 810.20 27.95
17504 97.5170 814.00 809.71 28.53
17505 97.5220 813.00 809.25 28.51
17506 97.5270 783.00 808.81 27.98
17507 97.5320 750.00 808.39 27.39
17508 97.5370 742.00 808.00 27.24
17509 97.5420 752.00 807.62 27.42
17510 97.5470 761.00 807.27 27.59
17511 97.5520 743.00 806.94 27.26
17512 97.5570 732.00 806.63 27.06
17513 97.5620 757.00 806.34 27.51
17514 97.5670 758.00 806.07 27.53
17515 97.5720 760.00 805.82 27.57
17516 97.5770 773.00 805.59 27.80
17517 97.5820 758.00 805.39 27.53
17518 97.5870 757.00 805.20 27.51
17519 97.5920 760.00 805.04 27.57
17520 97.5970 746.00 804.89 27.31
17521 97.6020 729.00 804.77 27.00
17522 97.6070 730.00 804.66 27.02
17523 97.6120 735.00 804.58 27.11
17524 97.6170 755.00 804.51 27.48
17525 97.6220 775.00 804.46 27.84
17526 97.6270 761.00 804.43 27.59
17527 97.6320 747.00 804.43 27.33
17528 97.6370 764.00 804.44 27.64
17529 97.6420 809.00 804.47 28.44
17530 97.6470 824.00 804.52 28.71
17531 97.6520 808.00 804.59 28.43
17532 97.6570 773.00 804.67 27.80
17533 97.6620 759.00 804.78 27.55
17534 97.6670 768.00 804.90 27.71
17535 97.6720 766.00 805.04 27.68
17536 97.6770 775.00 805.20 27.84
17537 97.6820 785.00 805.37 28.02
17538 97.6870 783.00 805.57 27.98
17539 97.6920 774.00 805.78 27.82
17540 97.6970 781.00 806.00 27.95
17541 97.7020 787.00 806.25 28.05
17542 97.7070 795.00 806.51 28.20
17543 97.7120 789.00 806.78 28.09
17544 97.7170 794.00 807.08 28.18
17545 97.7220 773.00 807.38 27.80
17546 97.7270 743.00 807.71 27.26
17547 97.7320 741.00 807.80 27.22
17548 97.7370 761.00 808.15 27.59
17549 97.7420 788.00 808.52 28.07
17550 97.7470 815.00 808.90 28.55
17551 97.7520 824.00 809.30 28.71
17552 97.7570 831.00 809.71 28.83
17553 97.7620 808.00 810.09 28.43
17554 97.7670 796.00 810.53 28.21
17555 97.7720 810.00 810.98 28.46
17556 97.7770 812.00 811.45 28.50
17557 97.7820 794.00 811.92 28.18
17558 97.7870 793.00 812.41 28.16
17559 97.7920 780.00 812.92 27.93
17560 97.7970 767.00 813.43 27.69
17561 97.8020 736.00 813.95 27.13
17562 97.8070 767.00 814.49 27.69
17563 97.8120 782.00 815.04 27.96
17564 97.8170 764.00 815.59 27.64
17565 97.8220 770.00 816.16 27.75
17566 97.8270 793.00 816.73 28.16
17567 97.8320 804.00 817.32 28.35
17568 97.8370 819.00 817.91 28.62
17569 97.8420 785.00 818.51 28.02
17570 97.8470 796.00 819.12 28.21
17571 97.8520 808.00 819.74 28.43
17572 97.8570 829.00 820.36 28.79
17573 97.8620 833.00 820.99 28.86
17574 97.8670 799.00 821.63 28.27
17575 97.8720 761.00 822.27 27.59
17576 97.8770 799.00 822.91 28.27
17577 97.8820 867.00 823.57 29.44
17578 97.8870 828.00 824.22 28.77
17579 97.8920 819.00 824.89 28.62
17580 97.8970 815.00 825.55 28.55
17581 97.9020 812.00 826.21 28.50
17582 97.9070 814.00 826.88 28.53
17583 97.9120 819.00 827.55 28.62
17584 97.9170 832.00 828.22 28.84
17585 97.9220 806.00 828.89 28.39
17586 97.9270 822.00 829.57 28.67
17587 97.9320 841.00 830.24 29.00
17588 97.9370 865.00 830.91 29.41
17589 97.9420 876.00 831.58 29.60
17590 97.9470 870.00 832.25 29.50
17591 97.9520 866.00 832.92 29.43
17592 97.9570 869.00 833.59 29.48
17593 97.9620 872.00 834.24 29.53
17594 97.9670 860.00 834.90 29.33
17595 97.9720 856.00 835.55 29.26
17596 97.9770 850.00 836.20 29.15
17597 97.9820 862.00 836.84 29.36
17598 97.9870 888.00 837.48 29.80
17599 97.9920 898.00 838.11 29.97
17600 97.9970 892.00 838.73 29.87
17601 98.0020 870.00 839.35 29.50
17602 98.0070 842.00 839.96 29.02
17603 98.0120 832.00 840.56 28.84
17604 98.0170 826.00 841.15 28.74
17605 98.0220 832.00 841.72 28.84
17606 98.0270 859.00 842.30 29.31
17607 98.0320 872.00 842.86 29.53
17608 98.0370 869.00 843.40 29.48
17609 98.0420 882.00 843.94 29.70
17610 98.0470 900.00 844.47 30.00
17611 98.0520 890.00 844.98 29.83
17612 98.0570 866.00 845.48 29.43
17613 98.0620 848.00 845.97 29.12
17614 98.0670 868.00 846.44 29.46
17615 98.0720 907.00 846.90 30.12
17616 98.0770 921.00 847.35 30.35
17617 98.0820 894.00 847.80 29.90
17618 98.0870 876.00 848.21 29.60
17619 98.0920 872.00 848.61 29.53
17620 98.0970 865.00 849.00 29.41
17621 98.1020 870.00 849.37 29.50
17622 98.1070 868.00 849.73 29.46
17623 98.1120 853.00 850.07 29.21
17624 98.1170 860.00 850.39 29.33
17625 98.1220 857.00 850.69 29.27
17626 98.1270 840.00 850.98 28.98
17627 98.1320 853.00 851.26 29.21
17628 98.1370 884.00 851.51 29.73
17629 98.1420 886.00 851.83 29.77
17630 98.1470 878.00 852.05 29.63
17631 98.1520 850.00 852.26 29.15
17632 98.1570 855.00 852.45 29.24
17633 98.1620 885.00 852.62 29.75
17634 98.1670 900.00 852.77 30.00
17635 98.1720 913.00 852.91 30.22
17636 98.1770 921.00 853.02 30.35
17637 98.1820 903.00 853.12 30.05
17638 98.1870 895.00 853.21 29.92
17639 98.1920 879.00 853.27 29.65
17640 98.1970 865.00 853.32 29.41
17641 98.2020 853.00 853.35 29.21
17642 98.2070 861.00 853.37 29.34
17643 98.2120 865.00 853.37 29.41
17644 98.2170 876.00 853.35 29.60
17645 98.2220 851.00 853.32 29.17
17646 98.2270 862.00 853.26 29.36
17647 98.2320 873.00 853.20 29.55
17648 98.2370 867.00 853.11 29.44
17649 98.2420 881.00 853.01 29.68
17650 98.2470 890.00 852.90 29.83
17651 98.2520 895.00 852.76 29.92
17652 98.2570 908.00 852.62 30.13
17653 98.2620 906.00 852.45 30.10
17654 98.2670 889.00 852.28 29.82
17655 98.2720 873.00 852.08 29.55
17656 98.2770 874.00 851.87 29.56
17657 98.2820 871.00 851.65 29.51
17658 98.2870 831.00 851.41 28.83
17659 98.2920 828.00 851.16 28.77
17660 98.2970 807.00 850.89 28.41
17661 98.3020 819.00 850.61 28.62
17662 98.3070 841.00 850.32 29.00
17663 98.3120 819.00 850.01 28.62
17664 98.3170 815.00 849.68 28.55
17665 98.3220 821.00 849.35 28.65
17666 98.3270 808.00 849.00 28.43
17667 98.3320 800.00 848.63 28.28
17668 98.3370 790.00 848.26 28.11
17669 98.3420 837.00 847.86 28.93
17670 98.3470 869.00 847.46 29.48
17671 98.3520 867.00 846.96 29.44
17672 98.3570 843.00 846.53 29.03
17673 98.3620 847.00 846.08 29.10
17674 98.3670 826.00 845.63 28.74
17675 98.3720 831.00 845.16 28.83
17676 98.3770 878.00 844.68 29.63
17677 98.3820 870.00 844.19 29.50
17678 98.3870 839.00 843.68 28.97
17679 98.3920 855.00 843.17 29.24
17680 98.3970 857.00 842.64 29.27
17681 98.4020 839.00 842.09 28.97
17682 98.4070 833.00 841.54 28.86
17683 98.4120 817.00 840.98 28.58
17684 98.4170 815.00 840.40 28.55
17685 98.4220 831.00 839.81 28.83
17686 98.4270 827.00 839.21 28.76
17687 98.4320 816.00 838.60 28.57
17688 98.4370 821.00 837.97 28.65
17689 98.4420 829.00 837.34 28.79
17690 98.4470 843.00 836.69 29.03
17691 98.4520 845.00 836.04 29.07
17692 98.4570 849.00 835.37 29.14
17693 98.4620 866.00 834.69 29.43
17694 98.4670 858.00 834.00 29.29
17695 98.4720 854.00 833.30 29.22
17696 98.4770 864.00 832.59 29.39
17697 98.4820 858.00 831.87 29.29
17698 98.4870 844.00 831.14 29.05
17699 98.4920 853.00 830.39 29.21
17700 98.4970 838.00 829.64 28.95
17701 98.5020 822.00 828.88 28.67
17702 98.5070 797.00 828.11 28.23
17703 98.5120 803.00 827.33 28.34
17704 98.5170 817.00 826.54 28.58
17705 98.5220 806.00 825.69 28.39
17706 98.5270 830.00 824.88 28.81
17707 98.5320 858.00 824.06 29.29
17708 98.5370 869.00 823.67 29.48
17709 98.5420 859.00 822.84 29.31
17710 98.5470 855.00 822.00 29.24
17711 98.5520 865.00 821.15 29.41
17712 98.5570 836.00 820.30 28.91
17713 98.5620 811.00 819.44 28.48
17714 98.5670 788.00 818.57 28.07
17715 98.5720 796.00 817.70 28.21
17716 98.5770 800.00 816.82 28.28
17717 98.5820 782.00 815.93 27.96
17718 98.5870 789.00 815.04 28.09
17719 98.5920 802.00 814.15 28.32
17720 98.5970 831.00 813.25 28.83
17721 98.6020 840.00 812.34 28.98
17722 98.6070 837.00 811.44 28.93
17723 98.6120 831.00 810.52 28.83
17724 98.6170 827.00 809.61 28.76
17725 98.6220 818.00 808.69 28.60
17726 98.6270 803.00 807.77 28.34
17727 98.6320 786.00 806.84 28.04
17728 98.6370 774.00 805.92 27.82
17729 98.6420 776.00 804.99 27.86
17730 98.6470 810.00 804.07 28.46
17731 98.6520 834.00 803.14 28.88
17732 98.6570 825.00 802.21 28.72
17733 98.6620 796.00 801.28 28.21
17734 98.6670 788.00 800.34 28.07
17735 98.6720 788.00 799.42 28.07
17736 98.6770 764.00 798.49 27.64
17737 98.6820 752.00 797.56 27.42
17738 98.6870 759.00 796.63 27.55
17739 98.6920 760.00 795.71 27.57
17740 98.6970 756.00 794.78 27.50
17741 98.7020 760.00 793.86 27.57
17742 98.7070 769.00 792.96 27.73
17743 98.7120 767.00 792.04 27.69
17744 98.7170 743.00 791.13 27.26
17745 98.7220 740.00 790.22 27.20
17746 98.7270 748.00 789.31 27.35
17747 98.7320 754.00 788.41 27.46
17748 98.7370 755.00 787.50 27.48
17749 98.7420 760.00 786.60 27.57
17750 98.7470 750.00 785.71 27.39
17751 98.7520 736.00 784.82 27.13
17752 98.7570 740.00 783.93 27.20
17753 98.7620 735.00 783.04 27.11
17754 98.7670 721.00 782.17 26.85
17755 98.7720 713.00 781.29 26.70
17756 98.7770 709.00 780.42 26.63
17757 98.7820 716.00 779.55 26.76
17758 98.7870 722.00 778.69 26.87
17759 98.7920 726.00 777.83 26.94
17760 98.7970 731.00 776.98 27.04
17761 98.8020 734.00 776.13 27.09
17762 98.8070 727.00 775.29 26.96
17763 98.8120 713.00 774.45 26.70
17764 98.8170 722.00 773.61 26.87
17765 98.8220 752.00 772.78 27.42
17766 98.8270 763.00 771.96 27.62
17767 98.8320 766.00 771.13 27.68
17768 98.8370 773.00 770.31 27.80
17769 98.8420 761.00 769.50 27.59
17770 98.8470 768.00 768.69 27.71
17771 98.8520 791.00 767.88 28.12
17772 98.8570 771.00 767.08 27.77
17773 98.8620 764.00 766.28 27.64
17774 98.8670 747.00 765.48 27.33
17775 98.8720 744.00 764.69 27.28
17776 98.8770 736.00 764.05 27.13
17777 98.8820 732.00 763.26 27.06
17778 98.8870 708.00 762.48 26.61
17779 98.8920 735.00 761.70 27.11
17780 98.8970 754.00 760.92 27.46
17781 98.9020 748.00 760.15 27.35
17782 98.9070 727.00 759.38 26.96
17783 98.9120 726.00 758.61 26.94
17784 98.9170 717.00 757.84 26.78
17785 98.9220 667.00 757.08 25.83
17786 98.9270 666.00 756.32 25.81
17787 98.9320 691.00 755.55 26.29
17788 98.9370 697.00 754.79 26.40
17789 98.9420 711.00 754.03 26.66
17790 98.9470 733.00 753.28 27.07
17791 98.9520 726.00 752.52 26.94
17792 98.9570 709.00 751.76 26.63
17793 98.9620 693.00 751.01 26.32
17794 98.9670 717.00 750.25 26.78
17795 98.9720 735.00 749.49 27.11
17796 98.9770 728.00 748.74 26.98
17797 98.9820 720.00 747.98 26.83
17798 98.9870 703.00 747.22 26.51
17799 98.9920 687.00 746.46 26.21
17800 98.9970 666.00 745.71 25.81
17801 99.0020 662.00 744.94 25.73
17802 99.0070 697.00 744.18 26.40
17803 99.0120 692.00 743.42 26.31
17804 99.0170 690.00 742.65 26.27
17805 99.0220 682.00 741.88 26.12
17806 99.0270 691.00 741.11 26.29
17807 99.0320 712.00 740.34 26.68
17808 99.0370 717.00 739.56 26.78
17809 99.0420 738.00 738.78 27.17
17810 99.0470 731.00 738.00 27.04
17811 99.0520 724.00 737.22 26.91
17812 99.0570 738.00 736.43 27.17
17813 99.0620 750.00 735.63 27.39
17814 99.0670 722.00 734.84 26.87
17815 99.0720 692.00 734.04 26.31
17816 99.0770 686.00 733.23 26.19
17817 99.0820 669.00 732.42 25.86
17818 99.0870 669.00 731.61 25.86
17819 99.0920 692.00 730.79 26.31
17820 99.0970 687.00 729.97 26.21
17821 99.1020 666.00 729.14 25.81
17822 99.1070 668.00 729.14 25.85
17823 99.1120 688.00 728.31 26.23
17824 99.1170 678.00 727.47 26.04
17825 99.1220 683.00 726.62 26.13
17826 99.1270 655.00 725.77 25.59
17827 99.1320 682.00 724.92 26.12
17828 99.1370 689.00 724.06 26.25
17829 99.1420 687.00 723.19 26.21
17830 99.1470 670.00 722.32 25.88
17831 99.1520 679.00 721.38 26.06
17832 99.1570 727.00 720.50 26.96
17833 99.1620 716.00 719.61 26.76
17834 99.1670 708.00 718.72 26.61
17835 99.1720 690.00 717.82 26.27
17836 99.1770 707.00 716.92 26.59
17837 99.1820 723.00 716.01 26.89
17838 99.1870 717.00 715.10 26.78
17839 99.1920 722.00 714.18 26.87
17840 99.1970 715.00 713.26 26.74
17841 99.2020 727.00 712.33 26.96
17842 99.2070 704.00 711.40 26.53
17843 99.2120 711.00 710.43 26.66
17844 99.2170 703.00 709.49 26.51
17845 99.2220 723.00 708.54 26.89
17846 99.2270 715.00 707.59 26.74
17847 99.2320 715.00 706.64 26.74
17848 99.2370 723.00 705.68 26.89
17849 99.2420 708.00 704.71 26.61
17850 99.2470 716.00 703.74 26.76
17851 99.2520 717.00 702.77 26.78
17852 99.2570 731.00 701.79 27.04
17853 99.2620 719.00 700.80 26.81
17854 99.2670 732.00 699.82 27.06
17855 99.2720 719.00 698.83 26.81
17856 99.2770 724.00 697.83 26.91
17857 99.2820 710.00 696.83 26.65
17858 99.2870 668.00 695.83 25.85
17859 99.2920 679.00 694.82 26.06
17860 99.2970 707.00 693.81 26.59
17861 99.3020 732.00 692.79 27.06
17862 99.3070 715.00 691.78 26.74
17863 99.3120 693.00 690.75 26.32
17864 99.3170 695.00 689.73 26.36
17865 99.3220 676.00 688.70 26.00
17866 99.3270 685.00 687.66 26.17
17867 99.3320 688.00 686.62 26.23
17868 99.3370 664.00 685.58 25.77
17869 99.3420 688.00 684.54 26.23
17870 99.3470 667.00 683.49 25.83
17871 99.3520 660.00 682.45 25.69
17872 99.3570 649.00 681.40 25.48
17873 99.3620 655.00 680.34 25.59
17874 99.3670 643.00 679.28 25.36
17875 99.3720 653.00 678.22 25.55
17876 99.3770 666.00 677.16 25.81
17877 99.3820 678.00 676.09 26.04
17878 99.3870 693.00 675.03 26.32
17879 99.3920 681.00 673.96 26.10
17880 99.3970 644.00 672.88 25.38
17881 99.4020 632.00 671.80 25.14
17882 99.4070 646.00 670.73 25.42
17883 99.4120 643.00 669.65 25.36
17884 99.4170 651.00 668.56 25.51
17885 99.4220 663.00 667.48 25.75
17886 99.4270 671.00 666.39 25.90
17887 99.4320 691.00 665.30 26.29
17888 99.4370 702.00 664.21 26.50
17889 99.4420 697.00 663.12 26.40
17890 99.4470 680.00 662.03 26.08
17891 99.4520 667.00 660.93 25.83
17892 99.4570 674.00 659.83 25.96
17893 99.4620 654.00 658.73 25.57
17894 99.4670 644.00 657.64 25.38
17895 99.4720 641.00 656.53 25.32
17896 99.4770 607.00 655.43 24.64
17897 99.4820 580.00 654.33 24.08
17898 99.4870 619.00 653.23 24.88
17899 99.4920 627.00 652.12 25.04
17900 99.4970 612.00 651.02 24.74
17901 99.5020 605.00 649.91 24.60
17902 99.5070 605.00 648.81 24.60
17903 99.5120 612.00 647.70 24.74
17904 99.5170 630.00 646.60 25.10
17905 99.5220 647.00 645.49 25.44
17906 99.5270 647.00 644.39 25.44
17907 99.5320 635.00 643.29 25.20
17908 99.5370 634.00 642.19 25.18
17909 99.5420 613.00 641.08 24.76
17910 99.5470 618.00 639.98 24.86
17911 99.5520 628.00 638.89 25.06
17912 99.5570 636.00 637.79 25.22
17913 99.5620 641.00 636.69 25.32
17914 99.5670 636.00 635.60 25.22
17915 99.5720 637.00 634.50 25.24
17916 99.5770 621.00 633.41 24.92
17917 99.5820 608.00 632.32 24.66
17918 99.5870 628.00 631.23 25.06
17919 99.5920 644.00 630.15 25.38
17920 99.5970 655.00 629.07 25.59
17921 99.6020 635.00 627.99 25.20
17922 99.6070 647.00 626.91 25.44
17923 99.6120 628.00 625.84 25.06
17924 99.6170 609.00 624.66 24.68
17925 99.6220 588.00 623.59 24.25
17926 99.6270 574.00 622.53 23.96
17927 99.6320 597.00 621.47 24.43
17928 99.6370 613.00 620.41 24.76
17929 99.6420 605.00 619.36 24.60
17930 99.6470 612.00 618.32 24.74
17931 99.6520 621.00 617.27 24.92
17932 99.6570 641.00 616.23 25.32
17933 99.6620 638.00 615.20 25.26
17934 99.6670 642.00 614.16 25.34
17935 99.6720 650.00 613.14 25.50
17936 99.6770 633.00 612.12 25.16
17937 99.6820 616.00 611.10 24.82
17938 99.6870 622.00 610.09 24.94
17939 99.6920 619.00 609.08 24.88
17940 99.6970 594.00 608.08 24.37
17941 99.7020 596.00 607.09 24.41
17942 99.7070 598.00 606.09 24.45
17943 99.7120 569.00 605.11 23.85
17944 99.7170 566.00 604.13 23.79
17945 99.7220 574.00 603.16 23.96
17946 99.7270 569.00 602.19 23.85
17947 99.7320 595.00 601.23 24.39
17948 99.7370 634.00 600.28 25.18
17949 99.7420 653.00 599.33 25.55
17950 99.7470 647.00 598.38 25.44
17951 99.7520 662.00 597.45 25.73
17952 99.7570 669.00 596.52 25.86
17953 99.7620 663.00 595.59 25.75
17954 99.7670 655.00 594.68 25.59
17955 99.7720 640.00 593.77 25.30
17956 99.7770 625.00 592.87 25.00
17957 99.7820 619.00 591.97 24.88
17958 99.7870 595.00 591.09 24.39
17959 99.7920 608.00 590.21 24.66
17960 99.7970 614.00 589.25 24.78
17961 99.8020 607.00 588.39 24.64
17962 99.8070 620.00 587.53 24.90
17963 99.8120 631.00 586.68 25.12
17964 99.8170 650.00 585.84 25.50
17965 99.8220 645.00 585.00 25.40
17966 99.8270 636.00 584.18 25.22
17967 99.8320 632.00 583.36 25.14
17968 99.8370 621.00 582.55 24.92
17969 99.8420 629.00 581.55 25.08
17970 99.8470 618.00 580.75 24.86
17971 99.8520 639.00 579.97 25.28
17972 99.8570 633.00 579.19 25.16
17973 99.8620 614.00 578.42 24.78
17974 99.8670 597.00 577.67 24.43
17975 99.8720 587.00 576.91 24.23
17976 99.8770 594.00 576.17 24.37
17977 99.8820 583.00 575.44 24.15
17978 99.8870 593.00 574.71 24.35
17979 99.8920 620.00 574.00 24.90
17980 99.8970 619.00 573.29 24.88
17981 99.9020 615.00 572.59 24.80
17982 99.9070 614.00 571.91 24.78
17983 99.9120 605.00 571.23 24.60
17984 99.9170 595.00 570.56 24.39
17985 99.9220 598.00 569.90 24.45
17986 99.9270 602.00 569.25 24.54
17987 99.9320 621.00 568.60 24.92
17988 99.9370 611.00 567.97 24.72
17989 99.9420 617.00 567.35 24.84
17990 99.9470 638.00 566.73 25.26
17991 99.9520 632.00 566.13 25.14
17992 99.9570 656.00 565.53 25.61
17993 99.9620 644.00 564.95 25.38
17994 99.9670 635.00 564.37 25.20
17995 99.9720 599.00 563.81 24.47
17996 99.9770 588.00 563.25 24.25
17997 99.9820 601.00 562.71 24.52
17998 99.9870 612.00 562.17 24.74
17999 99.9920 597.00 561.64 24.43
18000 99.9970 590.00 561.12 24.29
18001 100.0020 573.00 560.62 23.94
18002 100.0070 584.00 560.12 24.17
18003 100.0120 577.00 559.63 24.02
18004 100.0170 559.00 559.15 23.64
18005 100.0220 569.00 558.68 23.85
18006 100.0270 591.00 558.22 24.31
18007 100.0320 596.00 557.78 24.41
18008 100.0370 584.00 557.34 24.17
18009 100.0420 613.00 556.91 24.76
18010 100.0470 617.00 556.48 24.84
18011 100.0520 636.00 556.07 25.22
18012 100.0570 630.00 555.67 25.10
18013 100.0620 619.00 555.28 24.88
18014 100.0670 594.00 554.90 24.37
18015 100.0720 587.00 554.52 24.23
18016 100.0770 602.00 554.16 24.54
18017 100.0820 620.00 553.80 24.90
18018 100.0870 621.00 553.46 24.92
18019 100.0920 589.00 553.12 24.27
18020 100.0970 569.00 552.79 23.85
18021 100.1020 568.00 552.47 23.83
18022 100.1070 569.00 552.16 23.85
18023 100.1120 594.00 551.85 24.37
18024 100.1170 578.00 551.56 24.04
18025 100.1220 568.00 551.27 23.83
18026 100.1270 579.00 550.99 24.06
18027 100.1320 590.00 550.72 24.29
18028 100.1370 604.00 550.46 24.58
18029 100.1420 625.00 550.20 25.00
18030 100.1470 613.00 549.95 24.76
18031 100.1520 608.00 549.71 24.66
18032 100.1570 595.00 549.47 24.39
18033 100.1620 600.00 549.25 24.49
18034 100.1670 573.00 549.02 23.94
18035 100.1720 578.00 548.80 24.04
18036 100.1770 608.00 548.59 24.66
18037 100.1820 620.00 548.39 24.90
18038 100.1870 620.00 548.18 24.90
18039 100.1920 617.00 547.98 24.84
18040 100.1970 588.00 547.79 24.25
18041 100.2020 602.00 547.60 24.54
18042 100.2070 607.00 547.41 24.64
18043 100.2120 584.00 547.22 24.17
18044 100.2170 564.00 547.04 23.75
18045 100.2220 548.00 546.85 23.41
18046 100.2270 557.00 546.67 23.60
18047 100.2320 572.00 546.49 23.92
18048 100.2370 591.00 546.30 24.31
18049 100.2420 612.00 546.12 24.74
18050 100.2470 613.00 545.93 24.76
18051 100.2520 613.00 545.74 24.76
18052 100.2570 613.00 545.55 24.76
18053 100.2620 613.00 545.35 24.76
18054 100.2670 614.00 545.15 24.78
18055 100.2720 614.00 544.94 24.78
18056 100.2770 614.00 544.72 24.78
loop_
_refln_index_h
_refln_index_k
_refln_index_l
_refln_F_squared_calc
_refln_F_squared_meas
_refln_observed_status
_refln_d_spacing
0 0 2 998.61 772.06 o 6.192554
0 2 0 569.41 666.49 o 5.388690
0 2 1 636.35 1054.16 o 4.941243
1 1 0 168.35 47.62 < 4.361107
1 1 1 4451.70 4016.82 o 4.113534
0 2 2 301.81 271.48 o 4.065081
1 1 2 20827.97 21086.95 o 3.565624
0 2 3 1584.87 1988.04 o 3.277169
0 0 4 1216.95 1223.52 o 3.096277
1 1 3 134014.89 135571.81 o 2.998101
1 3 0 18884.03 14732.63 o 2.869424
1 3 1 92616.31 95801.45 o 2.795381
0 4 0 317983.44 317587.19 o 2.694345
0 2 4 336432.34 339386.09 o 2.684660
0 4 1 29304.62 29914.15 o 2.632765
1 3 2 362.40 360.04 o 2.603507
1 1 4 48.15 44.40 o 2.524682
0 4 2 4551.56 4219.39 o 2.470622
2 0 0 543174.69 530290.06 o 2.384500
1 3 3 16663.75 16868.16 o 2.356190
0 4 3 9837.66 8720.22 o 2.256329
0 2 5 25006.93 21661.90 o 2.250632
2 0 2 459.71 297.80 o 2.225232
2 2 0 448.48 565.70 o 2.180554
1 1 5 2751.76 3039.41 o 2.153850
2 2 1 360.22 391.18 o 2.147523
1 3 4 211.39 209.49 o 2.104623
0 0 6 23215.88 23299.83 o 2.064185
2 2 2 256.29 267.57 o 2.056767
0 4 4 9566.59 9363.69 o 2.032540
1 5 0 3960.72 3042.50 o 1.964169
1 5 1 13229.83 14770.82 o 1.939925
2 2 3 1058.94 1241.31 o 1.928122
0 2 6 3255.91 3790.40 o 1.927601
2 0 4 712.37 793.97 o 1.889201
1 3 5 21950.94 20907.25 o 1.875028
1 5 2 16163.47 15331.95 o 1.872248
1 1 6 51631.59 46616.92 o 1.865747
0 4 5 8509.25 8329.46 o 1.823516
0 6 0 56801.85 58468.28 o 1.796230
2 4 0 215866.64 216007.20 o 1.785640
2 2 4 228624.58 226979.30 o 1.782812
0 6 1 3100.00 3057.13 o 1.777632
1 5 3 153794.00 152529.89 o 1.773658
2 4 1 20057.15 19866.89 o 1.767365
0 6 2 123.74 82.50 o 1.725123
2 4 2 2990.36 3136.87 o 1.715735
0 2 7 6309.85 6313.08 o 1.681010
1 3 6 51555.98 50306.75 o 1.675655
1 5 4 33619.13 32919.39 o 1.658594
0 6 3 1114.18 1155.75 o 1.647081
1 1 7 74705.33 78037.84 o 1.639513
2 4 3 6971.05 7243.10 o 1.638904
0 4 6 30298.94 31628.88 o 1.638585
2 2 5 17531.13 18075.84 o 1.636717
3 1 0 81.48 77.28 o 1.572651
2 0 6 16839.96 14537.38 o 1.560653
3 1 1 2298.36 1939.29 o 1.560124
0 6 4 43091.06 38403.97 o 1.553710
0 0 8 46994.25 43343.50 o 1.548139
2 4 4 7027.28 6516.51 o 1.546841
1 5 5 12692.70 11998.82 o 1.539033
3 1 2 9575.76 9320.46 o 1.524265
1 3 7 101025.62 102117.14 o 1.506019
2 2 6 2501.76 2577.33 o 1.499050
0 2 8 0.65 0.72 o 1.487950
0 4 7 461.51 478.17 o 1.478934
3 1 3 65307.10 67862.72 o 1.469630
1 7 0 70757.48 75313.25 o 1.465164
1 1 8 4087.48 4387.29 o 1.458940
1 7 1 39939.00 43138.80 o 1.455018
0 6 5 49024.49 52049.87 o 1.454138
3 3 0 9293.03 9934.37 o 1.453702
2 4 5 5978.00 6050.19 o 1.448502
3 3 1 46051.89 44807.56 o 1.443791
2 6 0 41611.62 39394.25 o 1.434712
1 7 2 9711.31 9445.93 o 1.425799
2 6 1 2377.02 2317.61 o 1.425182
1 5 6 20.90 20.46 o 1.422922
3 3 2 147.77 150.18 o 1.415231
3 1 4 28.05 29.33 o 1.402154
2 6 2 123.36 127.77 o 1.397691
1 7 3 159.32 164.06 o 1.380784
2 2 7 4669.55 4962.59 o 1.373919
3 3 3 9002.96 9748.57 o 1.371178
1 3 8 798.65 707.91 o 1.362484
2 6 3 906.41 699.08 o 1.355208
0 6 6 2483.71 1937.79 o 1.355027
2 4 6 22753.44 18036.10 o 1.350463
0 8 0 16929.59 13590.34 o 1.347172
0 4 8 13458.51 11908.44 o 1.342330
0 8 1 5758.08 5202.26 o 1.339273
0 2 9 5406.60 5272.72 o 1.333333
3 1 5 1711.08 1743.30 o 1.327667
1 7 4 2122.78 2179.83 o 1.324371
0 8 2 9059.45 9050.17 o 1.316383
3 3 4 140.39 140.38 o 1.315888
1 5 7 22978.25 23459.95 o 1.314596
1 1 9 740.87 750.96 o 1.312340
2 6 4 32340.36 33894.98 o 1.301753
2 0 8 35506.33 37373.39 o 1.298471
0 8 3 33067.29 32326.49 o 1.280709
3 5 0 1868.30 1813.81 o 1.279367
3 5 1 6410.03 6117.02 o 1.272596
2 2 8 3.48 3.39 o 1.262341
1 7 5 13608.69 13304.66 o 1.261071
0 6 7 27606.00 26843.37 o 1.260498
2 4 7 296.35 287.30 o 1.256822
3 3 5 10790.84 10220.11 o 1.253741
3 5 2 9046.79 8449.84 o 1.252908
3 1 6 27240.82 24573.47 o 1.250955
2 6 5 37003.44 35332.09 o 1.241497
1 3 9 3425.17 3309.15 o 1.240809
0 0 10 32359.19 31428.33 o 1.238511
0 8 4 38903.55 38164.29 o 1.235311
0 4 9 44748.56 46190.42 o 1.225530
3 5 3 84680.41 87974.04 o 1.222033
1 5 8 1464.02 1491.25 o 1.215866
0 2 10 42336.50 40328.45 o 1.207041
1 7 6 6490.47 6596.80 o 1.194781
4 0 0 208556.78 215387.36 o 1.192250
1 1 10 52276.77 53552.40 o 1.191399
3 3 6 28567.77 29279.78 o 1.188541
0 8 5 1380.58 1366.96 o 1.183465
3 5 4 19046.77 18460.54 o 1.182407
2 6 6 1680.63 1580.90 o 1.178095
3 1 7 42693.16 39837.61 o 1.175434
2 8 0 12992.93 11968.33 o 1.172922
0 6 8 4424.36 4102.29 o 1.172684
4 0 2 53.05 49.18 o 1.170749
2 4 8 10555.85 9819.26 o 1.169722
2 8 1 4615.15 4281.58 o 1.167698
4 2 0 359.40 336.97 o 1.164098
2 2 9 3955.83 3701.88 o 1.163754
1 9 0 2486.20 2329.54 o 1.161432
4 2 1 105.99 100.71 o 1.158990
1 9 1 2617.85 2516.57 o 1.156359
2 8 2 6529.98 6462.98 o 1.152432
4 2 2 256.95 263.68 o 1.144059
1 9 2 6447.02 6529.24 o 1.141528
1 3 10 13567.72 13198.20 o 1.137111
3 5 5 7710.05 7451.82 o 1.136703
1 7 7 66237.02 60961.56 o 1.128467
2 8 3 25577.51 23342.99 o 1.128269
0 8 6 17483.86 16033.33 o 1.128165
1 5 9 4684.75 4283.25 o 1.127039
0 4 10 8257.24 7565.65 o 1.125316
3 3 7 58261.81 54511.71 o 1.123206
4 2 3 486.86 457.39 o 1.120408
1 9 3 47391.81 46200.25 o 1.118031
2 6 7 21316.32 21078.08 o 1.114377
4 0 4 106.31 106.22 o 1.112616
3 7 0 40991.45 41172.71 o 1.105948
3 1 8 2340.24 2330.12 o 1.103264
0 2 11 547.74 545.91 o 1.102119
3 7 1 23292.95 23142.67 o 1.101565
2 0 10 25271.93 25418.53 o 1.099097
2 8 4 29859.34 30723.76 o 1.096859
0 6 9 5672.42 5969.53 o 1.092390
4 4 0 90816.16 98148.45 o 1.090277
1 1 11 23434.36 24871.13 o 1.090173
2 4 9 34251.22 36514.27 o 1.089994
4 2 4 96489.86 104447.47 o 1.089632
3 7 2 6033.92 6498.47 o 1.088721
1 9 4 38893.12 41847.53 o 1.087445
3 5 6 0.19 0.20 o 1.087439
4 4 1 8718.98 9474.08 o 1.086077
0 10 0 50405.57 47193.39 o 1.077738
2 2 10 32970.04 30329.33 o 1.076925
4 4 2 835.83 740.33 o 1.073762
0 10 1 28624.07 25615.36 o 1.073681
0 8 7 123.11 105.43 o 1.071837
3 7 3 165.07 127.29 o 1.068279
1 7 8 15927.32 11054.30 o 1.064152
0 10 2 1023.69 706.87 o 1.061778
2 8 5 1200.41 1021.40 o 1.060081
3 3 8 534.53 463.96 o 1.059736
4 4 3 3246.57 3409.13 o 1.054136
4 2 5 7540.37 8017.89 o 1.053553
2 6 8 3594.19 3837.51 o 1.052312
1 9 5 1746.54 1888.84 o 1.051576
1 3 11 29666.89 33616.47 o 1.048119
1 5 10 13459.39 15308.43 o 1.047633
0 10 3 267.77 307.89 o 1.042790
3 7 4 947.52 1080.97 o 1.041503
0 4 11 13528.35 15285.10 o 1.038861
3 5 7 14055.09 15867.95 o 1.036729
3 1 9 236.88 266.30 o 1.035621
4 0 6 8284.07 8991.65 o 1.032412
0 0 12 1329.33 1439.78 o 1.032092
4 4 4 3663.87 3826.50 o 1.028384
2 8 6 13655.95 12420.19 o 1.019786
0 6 10 50681.45 45835.65 o 1.019629
0 10 4 217.30 199.09 o 1.017841
2 4 10 6669.55 6089.75 o 1.017681
0 8 8 144.17 131.99 o 1.016270
4 2 6 1554.59 1443.32 o 1.013970
0 2 12 693.89 660.19 o 1.013667
1 9 6 15431.29 14534.02 o 1.012207
3 7 5 7225.28 6867.90 o 1.009862
1 1 12 1789.15 1872.88 o 1.004350
