#------------------------------------------------------------------------------
#$Date: 2016-03-23 23:50:39 +0200 (Wed, 23 Mar 2016) $
#$Revision: 179515 $
#$URL: svn://www.crystallography.net/cod/cif/4/34/12/4341200.cif $
#------------------------------------------------------------------------------
#
# This file is available in the Crystallography Open Database (COD),
# http://www.crystallography.net/
#
# All data on this site have been placed in the public domain by the
# contributors.
#
data_4341200
loop_
_publ_author_name
'Fredrickson, Rie T.'
'Kilduff, Brandon J.'
'Fredrickson, Daniel C.'
_publ_section_title
;
 Homoatomic Clustering in T4Ga5 (T = Ta, Nb, Ta/Mo): A Story of Reluctant
 Intermetallics Crystallizing in a New Binary Structure Type.
;
_journal_issue                   3
_journal_name_full               'Inorganic chemistry'
_journal_page_first              821
_journal_page_last               831
_journal_paper_doi               10.1021/ic501966v
_journal_volume                  54
_journal_year                    2015
_chemical_formula_analytical     'Ga4.96(12) Ta4.04(12)'
_chemical_formula_iupac          'Ga5 Ta4'
_chemical_formula_structural     'Ga5 Ta4'
_chemical_formula_sum            'Ga4.974 Ta4.013'
_chemical_formula_weight         1072.9
_chemical_name_systematic        ' ?'
_space_group_IT_number           136
_symmetry_cell_setting           tetragonal
_symmetry_Int_Tables_number      136
_symmetry_space_group_name_Hall  '-P 4n 2n'
_symmetry_space_group_name_H-M   'P 42/m n m'
_cell_angle_alpha                90
_cell_angle_beta                 90
_cell_angle_gamma                90
_cell_formula_units_Z            16
_cell_length_a                   11.78880(10)
_cell_length_b                   11.78880(10)
_cell_length_c                   16.9818(3)
_cell_measurement_reflns_used    9904
_cell_measurement_temperature    293
_cell_measurement_theta_max      33.13
_cell_measurement_theta_min      2.40
_cell_volume                     2360.06(5)
_computing_cell_refinement       'SAINT+ Ver. 8.30C (Bruker-AXS, 2013)'
_computing_data_collection       'APEX2 Ver. 2013.2-0 (Bruker-AXS, 2013)'
_computing_data_reduction        'SAINT+ Ver. 8.30C (Bruker-AXS, 2013)'
_computing_molecular_graphics
; Brandenburg, K. & Putz, H. (2005). <i>DIAMOND</i> Version 3. Crystal Impact
GbR, Postfach 1251, D-53002 Bonn, Germany.
;
_computing_structure_refinement
; Petricek, V., Dusek, M. & Palatinus, L. (2006). Jana2006. Structure
Determination Software Programs. Institute of Physics, Praha, Czech Republic.
;
_computing_structure_solution
; Charge Flipping methods. Palatinus, L. & Chapuis, G. (2007). <i>J. Appl.
 Cryst.</i><b>40</b>, 786--790.
;
_diffrn_ambient_temperature      293
_diffrn_detector_area_resol_mean 7.9
_diffrn_detector_type            'CCD area detector'
_diffrn_measured_fraction_theta_full 0.99
_diffrn_measured_fraction_theta_max 0.99
_diffrn_measurement_device       'three-circle diffractometer'
_diffrn_measurement_device_type  'Bruker SMART APEX2 area detector'
_diffrn_measurement_method       '0.5\% \w and 0.5\% \f scans'
_diffrn_measurement_specimen_support Mitegen
_diffrn_radiation_collimation    'focusing mirrors'
_diffrn_radiation_monochromator  'mirror optics'
_diffrn_radiation_probe          x-ray
_diffrn_radiation_source         'X-ray tube'
_diffrn_radiation_type           'Mo K\a'
_diffrn_radiation_wavelength     0.71069
_diffrn_reflns_av_R_equivalents  0.0448
_diffrn_reflns_av_unetI/netI     0.0146
_diffrn_reflns_limit_h_max       17
_diffrn_reflns_limit_h_min       -18
_diffrn_reflns_limit_k_max       18
_diffrn_reflns_limit_k_min       -17
_diffrn_reflns_limit_l_max       26
_diffrn_reflns_limit_l_min       -26
_diffrn_reflns_number            60353
_diffrn_reflns_theta_full        33.45
_diffrn_reflns_theta_max         33.45
_diffrn_reflns_theta_min         2.1
_diffrn_source                   'microfocus sealed X-ray tube'
_diffrn_source_current           0.6
_diffrn_source_power             3
_diffrn_source_type              'Incoatec I\ms'
_diffrn_source_voltage           50
_exptl_absorpt_coefficient_mu    96.257
_exptl_absorpt_correction_T_max  0.4356
_exptl_absorpt_correction_T_min  0.2633
_exptl_absorpt_correction_type   multi-scan
_exptl_absorpt_process_details
;
Bruker (2001). SADABS. Bruker AXS Inc., Madison, Wisconsin, USA.
;
_exptl_crystal_colour            'Metallic black'
_exptl_crystal_density_diffrn    12.0747
_exptl_crystal_description       Irregular
_exptl_crystal_F_000             7154
_exptl_crystal_size_max          0.02
_exptl_crystal_size_mid          0.01
_exptl_crystal_size_min          0.005
_refine_diff_density_max         2.30
_refine_diff_density_min         -2.36
_refine_ls_extinction_coef       27(5)
_refine_ls_extinction_method
'B-C type 1 Gaussian isotropic (Becker & Coppens, 1974)'
_refine_ls_goodness_of_fit_gt    1.58
_refine_ls_goodness_of_fit_ref   1.59
_refine_ls_number_constraints    4
_refine_ls_number_parameters     106
_refine_ls_number_reflns         2469
_refine_ls_number_restraints     0
_refine_ls_R_factor_all          0.0244
_refine_ls_R_factor_gt           0.0156
_refine_ls_shift/su_max          0.0305
_refine_ls_shift/su_mean         0.0042
_refine_ls_structure_factor_coef Fsqd
_refine_ls_weighting_details     w=1/(\s^2^(I)+0.0001I^2^)
_refine_ls_weighting_scheme      sigma
_refine_ls_wR_factor_gt          0.0341
_refine_ls_wR_factor_ref         0.0377
_reflns_number_gt                2046
_reflns_number_total             2469
_reflns_threshold_expression     I>3\s(I)
_cod_data_source_file            ic501966v_si_002.cif
_cod_data_source_block           I
_cod_depositor_comments
;
The following automatic conversions were performed:

'_diffrn_radiation_probe' value 'X-ray' changed to 'x-ray' according
to
/home/saulius/struct/COD-crude-data--automatic-downloads/rss-feeds/ACS/lib/dictionaries/cif_core.dic
dictionary named 'cif_core.dic' version 2.4.2 from
2011-04-26.

'_exptl_absorpt_correction_type' value 'Multi-scan'
changed to 'multi-scan' according to
/home/saulius/struct/COD-crude-data--automatic-downloads/rss-feeds/ACS/lib/dictionaries/cif_core.dic
dictionary named 'cif_core.dic' version 2.4.2 from 2011-04-26.

Automatic conversion script
Id: cif_fix_values 2827 2014-09-09 07:05:25Z andrius 

 Adding full bibliography for 4341200--4341202.cif.
;
_cod_database_code               4341200
loop_
_space_group_symop_id
_space_group_symop_operation_xyz
1 x,y,z
2 -x,-y,z
3 -y+1/2,x+1/2,z+1/2
4 y+1/2,-x+1/2,z+1/2
5 -x+1/2,y+1/2,-z+1/2
6 x+1/2,-y+1/2,-z+1/2
7 y,x,-z
8 -y,-x,-z
9 -x,-y,-z
10 x,y,-z
11 y+1/2,-x+1/2,-z+1/2
12 -y+1/2,x+1/2,-z+1/2
13 x+1/2,-y+1/2,z+1/2
14 -x+1/2,y+1/2,z+1/2
15 -y,-x,z
16 y,x,z
loop_
_atom_site_label
_atom_site_type_symbol
_atom_site_fract_x
_atom_site_fract_y
_atom_site_fract_z
_atom_site_adp_type
_atom_site_U_iso_or_equiv
_atom_site_symmetry_multiplicity
_atom_site_occupancy
_atom_site_calc_flag
Ta1 Ta 0.495017(17) 0.207012(17) 0.146334(13) Uani 0.00404(6) 16 1 d
Ta2 Ta 0.753450(18) 0.246550(18) 0.101243(17) Uani 0.00383(6) 8 1 d
Ta3 Ta 0.34746(2) 0.14424(2) 0 Uani 0.00372(7) 8 1 d
Ta4 Ta 0.5 0 0.25 Uani 0.00286(8) 4 1 d
Ta5 Ta 0.38351(2) 0.38351(2) 0 Uani 0.00529(8) 4 1 d
Ta6 Ta 0.390805(17) 0.609195(17) 0.258047(17) Uani 0.00460(6) 8 1 d
Ta7 Ta 0.298033(17) 0.011915(17) 0.148626(13) Uani 0.00375(6) 16 1 d
Ga1 Ga 0.5 0 0.07756(5) Uani 0.0050(2) 8 1 d
Ga2 Ga 0.24883(7) 0.93523(7) 0 Uani 0.0079(2) 8 1 d
Ga3 Ga 0.57159(7) 0.21779(7) 0 Uani 0.0066(2) 8 1 d
Ga4 Ga 0.11666(5) 0.11666(5) 0.07435(5) Uani 0.00631(17) 8 0.9824(15) d
Ga5 Ga 0.17015(5) 0.33378(5) 0.25994(3) Uani 0.00451(14) 16 1 d
Ga6 Ga 0.26136(5) 0.26136(5) 0.12618(5) Uani 0.00490(16) 8 1 d
Ga7 Ga 0.59051(5) 0.40949(5) 0.08795(5) Uani 0.00615(17) 8 1 d
Ga8 Ga 0.40429(5) 0.40429(5) 0.34108(5) Uani 0.00810(19) 8 0.9824(13) d
Ga9 Ga 0.40930(5) 0.40930(5) 0.18043(5) Uani 0.00632(18) 8 0.9824(13) d
Ta8 Ta 0.3900(11) 0.3900(11) 0.2392(11) Uiso 0.010(4) 8 0.0176(13) d
Ta9 Ta 0.1171(15) 0.1171(15) 0 Uiso 0.010(4) 4 0.0176(15) d
loop_
_atom_site_aniso_label
_atom_site_aniso_type_symbol
_atom_site_aniso_U_11
_atom_site_aniso_U_22
_atom_site_aniso_U_33
_atom_site_aniso_U_12
_atom_site_aniso_U_13
_atom_site_aniso_U_23
Ta1 Ta 0.00442(9) 0.00390(9) 0.00380(11) 0.00027(6) 0.00052(7) 0.00004(7)
Ta2 Ta 0.00421(8) 0.00421(8) 0.00307(13) 0.00022(9) -0.00026(7) 0.00026(7)
Ta3 Ta 0.00438(13) 0.00374(13) 0.00303(13) 0.00024(9) 0 0
Ta4 Ta 0.00294(10) 0.00294(10) 0.00271(18) 0 0 0
Ta5 Ta 0.00491(11) 0.00491(11) 0.0060(2) -0.00006(14) 0 0
Ta6 Ta 0.00476(8) 0.00476(8) 0.00429(14) 0.00002(10) 0.00044(7) -0.00044(7)
Ta7 Ta 0.00372(9) 0.00424(9) 0.00327(11) 0.00008(7) -0.00017(7) 0.00027(7)
Ga1 Ga 0.0057(4) 0.0051(4) 0.0044(4) 0.0010(3) 0 0
Ga2 Ga 0.0144(4) 0.0049(4) 0.0044(4) -0.0021(3) 0 0
Ga3 Ga 0.0053(4) 0.0108(4) 0.0039(4) -0.0013(3) 0 0
Ga4 Ga 0.0070(2) 0.0070(2) 0.0050(4) 0.0016(3) 0.0001(2) 0.0001(2)
Ga5 Ga 0.0051(2) 0.0042(2) 0.0042(3) 0.00028(18) -0.0001(2) -0.0003(2)
Ga6 Ga 0.0056(2) 0.0056(2) 0.0035(4) 0.0017(3) -0.0005(2) -0.0005(2)
Ga7 Ga 0.0061(2) 0.0061(2) 0.0062(4) -0.0003(3) 0.0002(2) -0.0002(2)
Ga8 Ga 0.0058(2) 0.0058(2) 0.0126(5) 0.0015(3) 0.0034(2) 0.0034(2)
Ga9 Ga 0.0049(2) 0.0049(2) 0.0092(4) 0.0010(3) -0.0019(2) -0.0019(2)
loop_
_atom_type_symbol
_atom_type_scat_dispersion_real
_atom_type_scat_dispersion_imag
_atom_type_scat_source
Ga 0.2307 1.6083 'International Tables Vol C tables 4.2.6.8 and 6.1.1.1'
Ta -0.7052 6.5227 'International Tables Vol C tables 4.2.6.8 and 6.1.1.1'
loop_
_geom_angle_atom_site_label_1
_geom_angle_atom_site_label_2
_geom_angle_atom_site_label_3
_geom_angle_site_symmetry_1
_geom_angle_site_symmetry_3
_geom_angle
Ta2 Ta1 Ta3 . . 112.170(9)
Ta2 Ta1 Ta4 . . 103.964(7)
Ta2 Ta1 Ta5 . . 95.851(8)
Ta2 Ta1 Ta6 . 2_665 68.755(7)
Ta2 Ta1 Ta7 . . 141.972(9)
Ta2 Ta1 Ta7 . 2_655 56.655(6)
Ta2 Ta1 Ta7 . 11_555 100.860(8)
Ta2 Ta1 Ga1 . . 90.428(8)
Ta2 Ta1 Ga3 . . 55.904(18)
Ta2 Ta1 Ga5 . 6_555 54.847(13)
Ta2 Ta1 Ga5 . 16_555 149.051(15)
Ta2 Ta1 Ga6 . . 149.958(17)
Ta2 Ta1 Ga7 . . 53.693(13)
Ta2 Ta1 Ga9 . . 106.618(15)
Ta2 Ta1 Ta8 . . 115.1(3)
Ta3 Ta1 Ta4 . . 106.514(8)
Ta3 Ta1 Ta5 . . 50.661(7)
Ta3 Ta1 Ta6 . 2_665 150.739(10)
Ta3 Ta1 Ta7 . . 56.421(7)
Ta3 Ta1 Ta7 . 2_655 102.662(8)
Ta3 Ta1 Ta7 . 11_555 145.311(9)
Ta3 Ta1 Ga1 . . 56.968(14)
Ta3 Ta1 Ga3 . . 56.918(17)
Ta3 Ta1 Ga5 . 6_555 150.318(15)
Ta3 Ta1 Ga5 . 16_555 97.826(14)
Ta3 Ta1 Ga6 . . 54.477(17)
Ta3 Ta1 Ga7 . . 98.233(18)
Ta3 Ta1 Ga9 . . 100.048(19)
Ta3 Ta1 Ta8 . . 111.4(3)
Ta4 Ta1 Ta5 . . 154.864(8)
Ta4 Ta1 Ta6 . 2_665 101.264(8)
Ta4 Ta1 Ta7 . . 55.691(5)
Ta4 Ta1 Ta7 . 2_655 52.480(5)
Ta4 Ta1 Ta7 . 11_555 53.214(5)
Ta4 Ta1 Ga1 . . 61.365(17)
Ta4 Ta1 Ga3 . . 125.549(19)
Ta4 Ta1 Ga5 . 6_555 59.102(13)
Ta4 Ta1 Ga5 . 16_555 58.241(12)
Ta4 Ta1 Ga6 . . 105.753(15)
Ta4 Ta1 Ga7 . . 152.186(16)
Ta4 Ta1 Ga9 . . 127.48(2)
Ta4 Ta1 Ta8 . . 106.8(3)
Ta5 Ta1 Ta6 . 2_665 100.235(8)
Ta5 Ta1 Ta7 . . 99.208(8)
Ta5 Ta1 Ta7 . 2_655 134.287(8)
Ta5 Ta1 Ta7 . 11_555 137.804(8)
Ta5 Ta1 Ga1 . . 103.769(17)
Ta5 Ta1 Ga3 . . 55.430(18)
Ta5 Ta1 Ga5 . 6_555 145.819(15)
Ta5 Ta1 Ga5 . 16_555 109.483(14)
Ta5 Ta1 Ga6 . . 54.368(16)
Ta5 Ta1 Ga7 . . 52.879(15)
Ta5 Ta1 Ga9 . . 58.49(2)
Ta5 Ta1 Ta8 . . 77.7(3)
Ta6 Ta1 Ta7 2_665 . 140.653(9)
Ta6 Ta1 Ta7 2_665 2_655 101.414(7)
Ta6 Ta1 Ta7 2_665 11_555 52.535(7)
Ta6 Ta1 Ga1 2_665 . 149.659(12)
Ta6 Ta1 Ga3 2_665 . 112.529(19)
Ta6 Ta1 Ga5 2_665 6_555 55.637(13)
Ta6 Ta1 Ga5 2_665 16_555 88.949(14)
Ta6 Ta1 Ga6 2_665 . 109.138(15)
Ta6 Ta1 Ga7 2_665 . 57.570(18)
Ta6 Ta1 Ga9 2_665 . 54.448(16)
Ta6 Ta1 Ta8 2_665 . 50.1(3)
Ta7 Ta1 Ta7 . 2_655 88.658(7)
Ta7 Ta1 Ta7 . 11_555 90.956(7)
Ta7 Ta1 Ga1 . . 52.121(8)
Ta7 Ta1 Ga3 . . 106.693(19)
Ta7 Ta1 Ga5 . 6_555 114.741(14)
Ta7 Ta1 Ga5 . 16_555 52.253(13)
Ta7 Ta1 Ga6 . . 58.177(12)
Ta7 Ta1 Ga7 . . 152.083(17)
Ta7 Ta1 Ga9 . . 111.050(14)
Ta7 Ta1 Ta8 . . 102.2(3)
Ta7 Ta1 Ta7 2_655 11_555 86.413(7)
Ta7 Ta1 Ga1 2_655 . 48.280(9)
Ta7 Ta1 Ga3 2_655 . 79.100(18)
Ta7 Ta1 Ga5 2_655 6_555 47.670(13)
Ta7 Ta1 Ga5 2_655 16_555 110.681(13)
Ta7 Ta1 Ga6 2_655 . 145.990(14)
Ta7 Ta1 Ga7 2_655 . 110.172(14)
Ta7 Ta1 Ga9 2_655 . 155.798(17)
Ta7 Ta1 Ta8 2_655 . 144.6(3)
Ta7 Ta1 Ga1 11_555 . 114.468(18)
Ta7 Ta1 Ga3 11_555 . 156.708(18)
Ta7 Ta1 Ga5 11_555 6_555 49.690(13)
Ta7 Ta1 Ga5 11_555 16_555 48.301(12)
Ta7 Ta1 Ga6 11_555 . 100.310(18)
Ta7 Ta1 Ga7 11_555 . 110.042(18)
Ta7 Ta1 Ga9 11_555 . 79.59(2)
Ta7 Ta1 Ta8 11_555 . 60.1(3)
Ga1 Ta1 Ga3 . . 68.33(2)
Ga1 Ta1 Ga5 . 6_555 94.508(17)
Ga1 Ta1 Ga5 . 16_555 100.120(18)
Ga1 Ta1 Ga6 . . 99.901(15)
Ga1 Ta1 Ga7 . . 127.09(2)
Ga1 Ta1 Ga9 . . 155.891(19)
Ga1 Ta1 Ta8 . . 154.3(3)
Ga3 Ta1 Ga5 . 6_555 107.87(2)
Ga3 Ta1 Ga5 . 16_555 154.72(2)
Ga3 Ta1 Ga6 . . 101.90(2)
Ga3 Ta1 Ga7 . . 59.54(2)
Ga3 Ta1 Ga9 . . 106.95(3)
Ga3 Ta1 Ta8 . . 127.6(3)
Ga5 Ta1 Ga5 6_555 16_555 95.086(18)
Ga5 Ta1 Ga6 6_555 . 150.00(2)
Ga5 Ta1 Ga7 6_555 . 93.084(19)
Ga5 Ta1 Ga9 6_555 . 109.18(2)
Ga5 Ta1 Ta8 6_555 . 98.0(3)
Ga5 Ta1 Ga6 16_555 . 56.64(2)
Ga5 Ta1 Ga7 16_555 . 131.16(2)
Ga5 Ta1 Ga9 16_555 . 74.04(2)
Ga5 Ta1 Ta8 16_555 . 56.5(3)
Ga6 Ta1 Ga7 . . 98.826(18)
Ga6 Ta1 Ga9 . . 57.042(18)
Ga6 Ta1 Ta8 . . 59.5(3)
Ga7 Ta1 Ga9 . . 57.86(2)
Ga7 Ta1 Ta8 . . 74.7(3)
Ga9 Ta1 Ta8 . . 20.7(3)
Ta1 Ta2 Ta1 . 15_665 102.913(8)
Ta1 Ta2 Ta2 . 8_665 103.952(9)
Ta1 Ta2 Ta6 . 2_665 55.663(6)
Ta1 Ta2 Ta7 . 2_655 67.591(7)
Ta1 Ta2 Ta7 . 16_655 151.414(11)
Ta1 Ta2 Ga2 . 2_655 91.548(19)
Ta1 Ta2 Ga2 . 7_655 154.231(16)
Ta1 Ta2 Ga3 . . 52.336(12)
Ta1 Ta2 Ga3 . 8_665 112.384(19)
Ta1 Ta2 Ga5 . 6_555 52.728(13)
Ta1 Ta2 Ga5 . 11_555 100.241(15)
Ta1 Ta2 Ga7 . . 56.453(14)
Ta1 Ta2 Ga8 . 6_555 116.608(17)
Ta1 Ta2 Ta8 . 6_555 100.7(2)
Ta1 Ta2 Ta2 15_665 8_665 103.952(9)
Ta1 Ta2 Ta6 15_665 2_665 55.663(6)
Ta1 Ta2 Ta7 15_665 2_655 151.414(11)
Ta1 Ta2 Ta7 15_665 16_655 67.591(7)
Ta1 Ta2 Ga2 15_665 2_655 154.231(16)
Ta1 Ta2 Ga2 15_665 7_655 91.548(19)
Ta1 Ta2 Ga3 15_665 . 112.384(19)
Ta1 Ta2 Ga3 15_665 8_665 52.336(12)
Ta1 Ta2 Ga5 15_665 6_555 100.241(15)
Ta1 Ta2 Ga5 15_665 11_555 52.728(13)
Ta1 Ta2 Ga7 15_665 . 56.453(14)
Ta1 Ta2 Ga8 15_665 6_555 116.608(17)
Ta1 Ta2 Ta8 15_665 6_555 100.7(2)
Ta2 Ta2 Ta6 8_665 2_665 137.912(9)
Ta2 Ta2 Ta7 8_665 2_655 104.520(9)
Ta2 Ta2 Ta7 8_665 16_655 104.520(9)
Ta2 Ta2 Ga2 8_665 2_655 51.262(12)
Ta2 Ta2 Ga2 8_665 7_655 51.262(12)
Ta2 Ta2 Ga3 8_665 . 51.618(12)
Ta2 Ta2 Ga3 8_665 8_665 51.618(12)
Ta2 Ta2 Ga5 8_665 6_555 149.941(14)
Ta2 Ta2 Ga5 8_665 11_555 149.941(14)
Ta2 Ta2 Ga7 8_665 . 85.248(19)
Ta2 Ta2 Ga8 8_665 6_555 111.28(2)
Ta2 Ta2 Ta8 8_665 6_555 140.0(3)
Ta6 Ta2 Ta7 2_665 2_655 100.037(9)
Ta6 Ta2 Ta7 2_665 16_655 100.037(9)
Ta6 Ta2 Ga2 2_665 2_655 146.038(18)
Ta6 Ta2 Ga2 2_665 7_655 146.038(18)
Ta6 Ta2 Ga3 2_665 . 98.735(15)
Ta6 Ta2 Ga3 2_665 8_665 98.735(15)
Ta6 Ta2 Ga5 2_665 6_555 49.579(13)
Ta6 Ta2 Ga5 2_665 11_555 49.579(13)
Ta6 Ta2 Ga7 2_665 . 52.664(19)
Ta6 Ta2 Ga8 2_665 6_555 110.81(2)
Ta6 Ta2 Ta8 2_665 6_555 82.1(3)
Ta7 Ta2 Ta7 2_655 16_655 107.231(8)
Ta7 Ta2 Ga2 2_655 2_655 54.165(12)
Ta7 Ta2 Ga2 2_655 7_655 108.28(2)
Ta7 Ta2 Ga3 2_655 . 83.858(18)
Ta7 Ta2 Ga3 2_655 8_665 156.053(15)
Ta7 Ta2 Ga5 2_655 6_555 52.026(13)
Ta7 Ta2 Ga5 2_655 11_555 101.014(15)
Ta7 Ta2 Ga7 2_655 . 123.816(15)
Ta7 Ta2 Ga8 2_655 6_555 53.704(13)
Ta7 Ta2 Ta8 2_655 6_555 57.5(2)
Ta7 Ta2 Ga2 16_655 2_655 108.28(2)
Ta7 Ta2 Ga2 16_655 7_655 54.165(12)
Ta7 Ta2 Ga3 16_655 . 156.053(15)
Ta7 Ta2 Ga3 16_655 8_665 83.858(18)
Ta7 Ta2 Ga5 16_655 6_555 101.014(15)
Ta7 Ta2 Ga5 16_655 11_555 52.026(13)
Ta7 Ta2 Ga7 16_655 . 123.816(15)
Ta7 Ta2 Ga8 16_655 6_555 53.704(13)
Ta7 Ta2 Ta8 16_655 6_555 57.5(2)
Ga2 Ta2 Ga2 2_655 7_655 67.90(2)
Ga2 Ta2 Ga3 2_655 . 60.55(2)
Ga2 Ta2 Ga3 2_655 8_665 102.506(18)
Ga2 Ta2 Ga5 2_655 6_555 105.479(18)
Ga2 Ta2 Ga5 2_655 11_555 145.71(2)
Ga2 Ta2 Ga7 2_655 . 119.40(2)
Ga2 Ta2 Ga8 2_655 6_555 73.72(2)
Ga2 Ta2 Ta8 2_655 6_555 97.4(2)
Ga2 Ta2 Ga3 7_655 . 102.506(18)
Ga2 Ta2 Ga3 7_655 8_665 60.55(2)
Ga2 Ta2 Ga5 7_655 6_555 145.71(2)
Ga2 Ta2 Ga5 7_655 11_555 105.479(18)
Ga2 Ta2 Ga7 7_655 . 119.40(2)
Ga2 Ta2 Ga8 7_655 6_555 73.72(2)
Ga2 Ta2 Ta8 7_655 6_555 97.4(2)
Ga3 Ta2 Ga3 . 8_665 78.70(2)
Ga3 Ta2 Ga5 . 6_555 102.455(17)
Ga3 Ta2 Ga5 . 11_555 148.30(2)
Ga3 Ta2 Ga7 . . 59.29(2)
Ga3 Ta2 Ga8 . 6_555 130.91(2)
Ga3 Ta2 Ta8 . 6_555 140.5(2)
Ga3 Ta2 Ga5 8_665 6_555 148.30(2)
Ga3 Ta2 Ga5 8_665 11_555 102.455(17)
Ga3 Ta2 Ga7 8_665 . 59.29(2)
Ga3 Ta2 Ga8 8_665 6_555 130.91(2)
Ga3 Ta2 Ta8 8_665 6_555 140.5(2)
Ga5 Ta2 Ga5 6_555 11_555 60.107(17)
Ga5 Ta2 Ga7 6_555 . 93.59(2)
Ga5 Ta2 Ga8 6_555 6_555 72.20(2)
Ga5 Ta2 Ta8 6_555 6_555 48.9(2)
Ga5 Ta2 Ga7 11_555 . 93.59(2)
Ga5 Ta2 Ga8 11_555 6_555 72.20(2)
Ga5 Ta2 Ta8 11_555 6_555 48.9(2)
Ga7 Ta2 Ga8 . 6_555 163.47(3)
Ga7 Ta2 Ta8 . 6_555 134.8(3)
Ga8 Ta2 Ta8 6_555 6_555 28.7(3)
Ta1 Ta3 Ta1 . 10_555 105.480(10)
Ta1 Ta3 Ta3 . 7_555 103.084(8)
Ta1 Ta3 Ta5 . . 71.498(7)
Ta1 Ta3 Ta7 . . 64.234(6)
Ta1 Ta3 Ta7 . 10_555 153.374(11)
Ta1 Ta3 Ga1 . . 54.019(13)
Ta1 Ta3 Ga1 . 9_655 99.225(16)
Ta1 Ta3 Ga2 . . 116.877(11)
Ta1 Ta3 Ga3 . . 52.897(6)
Ta1 Ta3 Ga4 . . 101.240(16)
Ta1 Ta3 Ga4 . 7_555 149.431(17)
Ta1 Ta3 Ga6 . . 57.676(14)
Ta1 Ta3 Ga6 . 7_555 135.109(17)
Ta1 Ta3 Ta9 . . 125.52(8)
Ta1 Ta3 Ta3 10_555 7_555 103.084(8)
Ta1 Ta3 Ta5 10_555 . 71.498(7)
Ta1 Ta3 Ta7 10_555 . 153.374(11)
Ta1 Ta3 Ta7 10_555 10_555 64.234(6)
Ta1 Ta3 Ga1 10_555 . 99.225(16)
Ta1 Ta3 Ga1 10_555 9_655 54.019(13)
Ta1 Ta3 Ga2 10_555 . 116.877(11)
Ta1 Ta3 Ga3 10_555 . 52.897(6)
Ta1 Ta3 Ga4 10_555 . 149.431(17)
Ta1 Ta3 Ga4 10_555 7_555 101.240(16)
Ta1 Ta3 Ga6 10_555 . 135.109(17)
Ta1 Ta3 Ga6 10_555 7_555 57.676(14)
Ta1 Ta3 Ta9 10_555 . 125.52(8)
Ta3 Ta3 Ta5 7_555 . 53.567(9)
Ta3 Ta3 Ta7 7_555 . 103.211(7)
Ta3 Ta3 Ta7 7_555 10_555 103.211(7)
Ta3 Ta3 Ga1 7_555 . 151.937(16)
Ta3 Ta3 Ga1 7_555 9_655 151.937(16)
Ta3 Ta3 Ga2 7_555 . 109.74(2)
Ta3 Ta3 Ga3 7_555 . 116.83(2)
Ta3 Ta3 Ga4 7_555 . 55.843(13)
Ta3 Ta3 Ga4 7_555 7_555 55.843(13)
Ta3 Ta3 Ga6 7_555 . 51.873(15)
Ta3 Ta3 Ga6 7_555 7_555 51.873(15)
Ta3 Ta3 Ta9 7_555 . 51.7(4)
Ta5 Ta3 Ta7 . . 122.606(6)
Ta5 Ta3 Ta7 . 10_555 122.606(6)
Ta5 Ta3 Ga1 . . 120.279(11)
Ta5 Ta3 Ga1 . 9_655 120.279(11)
Ta5 Ta3 Ga2 . . 163.31(2)
Ta5 Ta3 Ga3 . . 63.266(19)
Ta5 Ta3 Ga4 . . 103.941(15)
Ta5 Ta3 Ga4 . 7_555 103.941(15)
Ta5 Ta3 Ga6 . . 63.740(14)
Ta5 Ta3 Ga6 . 7_555 63.740(14)
Ta5 Ta3 Ta9 . . 105.3(4)
Ta7 Ta3 Ta7 . 10_555 113.167(11)
Ta7 Ta3 Ga1 . . 54.447(13)
Ta7 Ta3 Ga1 . 9_655 101.702(16)
Ta7 Ta3 Ga2 . . 56.715(6)
Ta7 Ta3 Ga3 . . 110.118(10)
Ta7 Ta3 Ga4 . . 54.643(15)
Ta7 Ta3 Ga4 . 7_555 96.886(17)
Ta7 Ta3 Ga6 . . 62.382(14)
Ta7 Ta3 Ga6 . 7_555 147.159(17)
Ta7 Ta3 Ta9 . . 75.42(19)
Ta7 Ta3 Ga1 10_555 . 101.702(16)
Ta7 Ta3 Ga1 10_555 9_655 54.447(13)
Ta7 Ta3 Ga2 10_555 . 56.715(6)
Ta7 Ta3 Ga3 10_555 . 110.118(10)
Ta7 Ta3 Ga4 10_555 . 96.886(17)
Ta7 Ta3 Ga4 10_555 7_555 54.643(15)
Ta7 Ta3 Ga6 10_555 . 147.159(17)
Ta7 Ta3 Ga6 10_555 7_555 62.382(14)
Ta7 Ta3 Ta9 10_555 . 75.42(19)
Ga1 Ta3 Ga1 . 9_655 56.04(2)
Ga1 Ta3 Ga2 . . 74.048(17)
Ga1 Ta3 Ga3 . . 65.144(16)
Ga1 Ta3 Ga4 . . 108.449(18)
Ga1 Ta3 Ga4 . 7_555 135.206(16)
Ga1 Ta3 Ga6 . . 100.11(2)
Ga1 Ta3 Ga6 . 7_555 155.42(2)
Ga1 Ta3 Ta9 . . 124.5(3)
Ga1 Ta3 Ga2 9_655 . 74.048(17)
Ga1 Ta3 Ga3 9_655 . 65.144(16)
Ga1 Ta3 Ga4 9_655 . 135.206(16)
Ga1 Ta3 Ga4 9_655 7_555 108.449(18)
Ga1 Ta3 Ga6 9_655 . 155.42(2)
Ga1 Ta3 Ga6 9_655 7_555 100.11(2)
Ga1 Ta3 Ta9 9_655 . 124.5(3)
Ga2 Ta3 Ga3 . . 133.43(3)
Ga2 Ta3 Ga4 . . 61.16(2)
Ga2 Ta3 Ga4 . 7_555 61.16(2)
Ga2 Ta3 Ga6 . . 107.289(17)
Ga2 Ta3 Ga6 . 7_555 107.289(17)
Ga2 Ta3 Ta9 . . 58.0(4)
Ga3 Ta3 Ga4 . . 152.932(17)
Ga3 Ta3 Ga4 . 7_555 152.932(17)
Ga3 Ta3 Ga6 . . 101.224(17)
Ga3 Ta3 Ga6 . 7_555 101.224(17)
Ga3 Ta3 Ta9 . . 168.6(4)
Ga4 Ta3 Ga4 . 7_555 49.48(2)
Ga4 Ta3 Ga6 . . 52.684(18)
Ga4 Ta3 Ga6 . 7_555 92.72(2)
Ga4 Ta3 Ta9 . . 24.738(16)
Ga4 Ta3 Ga6 7_555 . 92.72(2)
Ga4 Ta3 Ga6 7_555 7_555 52.684(18)
Ga4 Ta3 Ta9 7_555 . 24.738(16)
Ga6 Ta3 Ga6 . 7_555 102.70(2)
Ga6 Ta3 Ta9 . . 72.0(2)
Ga6 Ta3 Ta9 7_555 . 72.0(2)
Ta1 Ta4 Ta1 . 2_655 108.405(6)
Ta1 Ta4 Ta1 . 11_555 110.007(6)
Ta1 Ta4 Ta1 . 12_545 110.007(6)
Ta1 Ta4 Ta7 . . 66.619(6)
Ta1 Ta4 Ta7 . 2_655 73.273(6)
Ta1 Ta4 Ta7 . 11_555 71.755(6)
Ta1 Ta4 Ta7 . 12_545 176.144(5)
Ta1 Ta4 Ga1 . . 54.203(4)
Ta1 Ta4 Ga1 . 11_555 125.797(4)
Ta1 Ta4 Ga5 . 5_545 121.099(12)
Ta1 Ta4 Ga5 . 6_555 54.070(12)
Ta1 Ta4 Ga5 . 15_655 128.883(12)
Ta1 Ta4 Ga5 . 16_555 56.120(12)
Ta1 Ta4 Ta1 2_655 11_555 110.007(6)
Ta1 Ta4 Ta1 2_655 12_545 110.007(6)
Ta1 Ta4 Ta7 2_655 . 73.273(6)
Ta1 Ta4 Ta7 2_655 2_655 66.619(6)
Ta1 Ta4 Ta7 2_655 11_555 176.144(5)
Ta1 Ta4 Ta7 2_655 12_545 71.755(6)
Ta1 Ta4 Ga1 2_655 . 54.203(4)
Ta1 Ta4 Ga1 2_655 11_555 125.797(4)
Ta1 Ta4 Ga5 2_655 5_545 54.070(12)
Ta1 Ta4 Ga5 2_655 6_555 121.099(12)
Ta1 Ta4 Ga5 2_655 15_655 56.120(12)
Ta1 Ta4 Ga5 2_655 16_555 128.883(12)
Ta1 Ta4 Ta1 11_555 12_545 108.405(6)
Ta1 Ta4 Ta7 11_555 . 176.144(5)
Ta1 Ta4 Ta7 11_555 2_655 71.755(6)
Ta1 Ta4 Ta7 11_555 11_555 66.619(6)
Ta1 Ta4 Ta7 11_555 12_545 73.273(6)
Ta1 Ta4 Ga1 11_555 . 125.797(4)
Ta1 Ta4 Ga1 11_555 11_555 54.203(4)
Ta1 Ta4 Ga5 11_555 5_545 128.883(12)
Ta1 Ta4 Ga5 11_555 6_555 56.120(12)
Ta1 Ta4 Ga5 11_555 15_655 54.070(12)
Ta1 Ta4 Ga5 11_555 16_555 121.099(12)
Ta1 Ta4 Ta7 12_545 . 71.755(6)
Ta1 Ta4 Ta7 12_545 2_655 176.144(5)
Ta1 Ta4 Ta7 12_545 11_555 73.273(6)
Ta1 Ta4 Ta7 12_545 12_545 66.619(6)
Ta1 Ta4 Ga1 12_545 . 125.797(4)
Ta1 Ta4 Ga1 12_545 11_555 54.203(4)
Ta1 Ta4 Ga5 12_545 5_545 56.120(12)
Ta1 Ta4 Ga5 12_545 6_555 128.883(12)
Ta1 Ta4 Ga5 12_545 15_655 121.099(12)
Ta1 Ta4 Ga5 12_545 16_555 54.070(12)
Ta7 Ta4 Ta7 . 2_655 108.358(6)
Ta7 Ta4 Ta7 . 11_555 110.031(6)
Ta7 Ta4 Ta7 . 12_545 110.031(6)
Ta7 Ta4 Ga1 . . 54.179(4)
Ta7 Ta4 Ga1 . 11_555 125.821(4)
Ta7 Ta4 Ga5 . 5_545 54.562(12)
Ta7 Ta4 Ga5 . 6_555 120.631(12)
Ta7 Ta4 Ga5 . 15_655 129.336(12)
Ta7 Ta4 Ga5 . 16_555 55.699(12)
Ta7 Ta4 Ta7 2_655 11_555 110.031(6)
Ta7 Ta4 Ta7 2_655 12_545 110.031(6)
Ta7 Ta4 Ga1 2_655 . 54.179(4)
Ta7 Ta4 Ga1 2_655 11_555 125.821(4)
Ta7 Ta4 Ga5 2_655 5_545 120.631(12)
Ta7 Ta4 Ga5 2_655 6_555 54.562(12)
Ta7 Ta4 Ga5 2_655 15_655 55.699(12)
Ta7 Ta4 Ga5 2_655 16_555 129.336(12)
Ta7 Ta4 Ta7 11_555 12_545 108.358(6)
Ta7 Ta4 Ga1 11_555 . 125.821(4)
Ta7 Ta4 Ga1 11_555 11_555 54.179(4)
Ta7 Ta4 Ga5 11_555 5_545 129.336(12)
Ta7 Ta4 Ga5 11_555 6_555 55.699(12)
Ta7 Ta4 Ga5 11_555 15_655 120.631(12)
Ta7 Ta4 Ga5 11_555 16_555 54.562(12)
Ta7 Ta4 Ga1 12_545 . 125.821(4)
Ta7 Ta4 Ga1 12_545 11_555 54.179(4)
Ta7 Ta4 Ga5 12_545 5_545 55.699(12)
Ta7 Ta4 Ga5 12_545 6_555 129.336(12)
Ta7 Ta4 Ga5 12_545 15_655 54.562(12)
Ta7 Ta4 Ga5 12_545 16_555 120.631(12)
Ga1 Ta4 Ga1 . 11_555 180.0(5)
Ga1 Ta4 Ga5 . 5_545 86.556(11)
Ga1 Ta4 Ga5 . 6_555 86.556(11)
Ga1 Ta4 Ga5 . 15_655 93.444(11)
Ga1 Ta4 Ga5 . 16_555 93.444(11)
Ga1 Ta4 Ga5 11_555 5_545 93.444(11)
Ga1 Ta4 Ga5 11_555 6_555 93.444(11)
Ga1 Ta4 Ga5 11_555 15_655 86.556(11)
Ga1 Ta4 Ga5 11_555 16_555 86.556(11)
Ga5 Ta4 Ga5 5_545 6_555 173.112(16)
Ga5 Ta4 Ga5 5_545 15_655 90.207(16)
Ga5 Ta4 Ga5 5_545 16_555 90.207(16)
Ga5 Ta4 Ga5 6_555 15_655 90.207(16)
Ga5 Ta4 Ga5 6_555 16_555 90.207(16)
Ga5 Ta4 Ga5 15_655 16_555 173.112(16)
Ta1 Ta5 Ta1 . 7_555 162.180(10)
Ta1 Ta5 Ta1 . 10_555 90.553(8)
Ta1 Ta5 Ta1 . 16_555 86.696(5)
Ta1 Ta5 Ta3 . . 57.841(6)
Ta1 Ta5 Ta3 . 7_555 106.442(8)
Ta1 Ta5 Ta5 . 2_665 98.910(7)
Ta1 Ta5 Ga3 . . 47.523(6)
Ta1 Ta5 Ga3 . 7_555 134.014(6)
Ta1 Ta5 Ga6 . . 51.558(12)
Ta1 Ta5 Ga6 . 7_555 114.100(15)
Ta1 Ta5 Ga7 . . 51.376(14)
Ta1 Ta5 Ga7 . 2_665 95.493(16)
Ta1 Ta5 Ga7 . 7_555 146.438(16)
Ta1 Ta5 Ga7 . 8_665 96.509(16)
Ta1 Ta5 Ga9 . . 46.993(11)
Ta1 Ta5 Ga9 . 7_555 136.481(14)
Ta1 Ta5 Ta1 7_555 10_555 86.696(5)
Ta1 Ta5 Ta1 7_555 16_555 90.553(8)
Ta1 Ta5 Ta3 7_555 . 106.442(8)
Ta1 Ta5 Ta3 7_555 7_555 57.841(6)
Ta1 Ta5 Ta5 7_555 2_665 98.910(7)
Ta1 Ta5 Ga3 7_555 . 134.014(6)
Ta1 Ta5 Ga3 7_555 7_555 47.523(6)
Ta1 Ta5 Ga6 7_555 . 114.100(15)
Ta1 Ta5 Ga6 7_555 7_555 51.558(12)
Ta1 Ta5 Ga7 7_555 . 146.438(16)
Ta1 Ta5 Ga7 7_555 2_665 96.509(16)
Ta1 Ta5 Ga7 7_555 7_555 51.376(14)
Ta1 Ta5 Ga7 7_555 8_665 95.493(16)
Ta1 Ta5 Ga9 7_555 . 136.481(14)
Ta1 Ta5 Ga9 7_555 7_555 46.993(11)
Ta1 Ta5 Ta1 10_555 16_555 162.180(10)
Ta1 Ta5 Ta3 10_555 . 57.841(6)
Ta1 Ta5 Ta3 10_555 7_555 106.442(8)
Ta1 Ta5 Ta5 10_555 2_665 98.910(7)
Ta1 Ta5 Ga3 10_555 . 47.523(6)
Ta1 Ta5 Ga3 10_555 7_555 134.014(6)
Ta1 Ta5 Ga6 10_555 . 114.100(15)
Ta1 Ta5 Ga6 10_555 7_555 51.558(12)
Ta1 Ta5 Ga7 10_555 . 96.509(16)
Ta1 Ta5 Ga7 10_555 2_665 146.438(16)
Ta1 Ta5 Ga7 10_555 7_555 95.493(16)
Ta1 Ta5 Ga7 10_555 8_665 51.376(14)
Ta1 Ta5 Ga9 10_555 . 136.481(14)
Ta1 Ta5 Ga9 10_555 7_555 46.993(11)
Ta1 Ta5 Ta3 16_555 . 106.442(8)
Ta1 Ta5 Ta3 16_555 7_555 57.841(6)
Ta1 Ta5 Ta5 16_555 2_665 98.910(7)
Ta1 Ta5 Ga3 16_555 . 134.014(6)
Ta1 Ta5 Ga3 16_555 7_555 47.523(6)
Ta1 Ta5 Ga6 16_555 . 51.558(12)
Ta1 Ta5 Ga6 16_555 7_555 114.100(15)
Ta1 Ta5 Ga7 16_555 . 95.493(16)
Ta1 Ta5 Ga7 16_555 2_665 51.376(14)
Ta1 Ta5 Ga7 16_555 7_555 96.509(16)
Ta1 Ta5 Ga7 16_555 8_665 146.438(16)
Ta1 Ta5 Ga9 16_555 . 46.993(11)
Ta1 Ta5 Ga9 16_555 7_555 136.481(14)
Ta3 Ta5 Ta3 . 7_555 72.865(10)
Ta3 Ta5 Ta5 . 2_665 143.567(12)
Ta3 Ta5 Ga3 . . 57.184(18)
Ta3 Ta5 Ga3 . 7_555 130.05(2)
Ta3 Ta5 Ga6 . . 56.341(13)
Ta3 Ta5 Ga6 . 7_555 56.341(13)
Ta3 Ta5 Ga7 . . 103.393(15)
Ta3 Ta5 Ga7 . 2_665 148.703(16)
Ta3 Ta5 Ga7 . 7_555 148.703(16)
Ta3 Ta5 Ga7 . 8_665 103.393(15)
Ta3 Ta5 Ga9 . . 96.421(12)
Ta3 Ta5 Ga9 . 7_555 96.421(12)
Ta3 Ta5 Ta5 7_555 2_665 143.567(12)
Ta3 Ta5 Ga3 7_555 . 130.05(2)
Ta3 Ta5 Ga3 7_555 7_555 57.184(18)
Ta3 Ta5 Ga6 7_555 . 56.341(13)
Ta3 Ta5 Ga6 7_555 7_555 56.341(13)
Ta3 Ta5 Ga7 7_555 . 148.703(16)
Ta3 Ta5 Ga7 7_555 2_665 103.393(15)
Ta3 Ta5 Ga7 7_555 7_555 103.393(15)
Ta3 Ta5 Ga7 7_555 8_665 148.703(16)
Ta3 Ta5 Ga9 7_555 . 96.421(12)
Ta3 Ta5 Ga9 7_555 7_555 96.421(12)
Ta5 Ta5 Ga3 2_665 . 86.383(18)
Ta5 Ta5 Ga3 2_665 7_555 86.383(18)
Ta5 Ta5 Ga6 2_665 . 133.543(14)
Ta5 Ta5 Ga6 2_665 7_555 133.543(14)
Ta5 Ta5 Ga7 2_665 . 47.547(14)
Ta5 Ta5 Ga7 2_665 2_665 47.547(14)
Ta5 Ta5 Ga7 2_665 7_555 47.547(14)
Ta5 Ta5 Ga7 2_665 8_665 47.547(14)
Ta5 Ta5 Ga9 2_665 . 82.010(12)
Ta5 Ta5 Ga9 2_665 7_555 82.010(12)
Ga3 Ta5 Ga3 . 7_555 172.77(2)
Ga3 Ta5 Ga6 . . 92.491(17)
Ga3 Ta5 Ga6 . 7_555 92.491(17)
Ga3 Ta5 Ga7 . . 55.533(18)
Ga3 Ta5 Ga7 . 2_665 118.736(19)
Ga3 Ta5 Ga7 . 7_555 118.736(19)
Ga3 Ta5 Ga7 . 8_665 55.533(18)
Ga3 Ta5 Ga9 . . 89.498(12)
Ga3 Ta5 Ga9 . 7_555 89.498(12)
Ga3 Ta5 Ga6 7_555 . 92.491(17)
Ga3 Ta5 Ga6 7_555 7_555 92.491(17)
Ga3 Ta5 Ga7 7_555 . 118.736(19)
Ga3 Ta5 Ga7 7_555 2_665 55.533(18)
Ga3 Ta5 Ga7 7_555 7_555 55.533(18)
Ga3 Ta5 Ga7 7_555 8_665 118.736(19)
Ga3 Ta5 Ga9 7_555 . 89.498(12)
Ga3 Ta5 Ga9 7_555 7_555 89.498(12)
Ga6 Ta5 Ga6 . 7_555 92.91(2)
Ga6 Ta5 Ga7 . . 95.09(2)
Ga6 Ta5 Ga7 . 2_665 95.09(2)
Ga6 Ta5 Ga7 . 7_555 147.27(2)
Ga6 Ta5 Ga7 . 8_665 147.27(2)
Ga6 Ta5 Ga9 . . 51.532(17)
Ga6 Ta5 Ga9 . 7_555 144.45(2)
Ga6 Ta5 Ga7 7_555 . 147.27(2)
Ga6 Ta5 Ga7 7_555 2_665 147.27(2)
Ga6 Ta5 Ga7 7_555 7_555 95.09(2)
Ga6 Ta5 Ga7 7_555 8_665 95.09(2)
Ga6 Ta5 Ga9 7_555 . 144.45(2)
Ga6 Ta5 Ga9 7_555 7_555 51.532(17)
Ga7 Ta5 Ga7 . 2_665 63.255(18)
Ga7 Ta5 Ga7 . 7_555 95.09(2)
Ga7 Ta5 Ga7 . 8_665 62.54(2)
Ga7 Ta5 Ga9 . . 52.568(19)
Ga7 Ta5 Ga9 . 7_555 114.85(2)
Ga7 Ta5 Ga7 2_665 7_555 62.54(2)
Ga7 Ta5 Ga7 2_665 8_665 95.09(2)
Ga7 Ta5 Ga9 2_665 . 52.568(19)
Ga7 Ta5 Ga9 2_665 7_555 114.85(2)
Ga7 Ta5 Ga7 7_555 8_665 63.255(18)
Ga7 Ta5 Ga9 7_555 . 114.85(2)
Ga7 Ta5 Ga9 7_555 7_555 52.568(19)
Ga7 Ta5 Ga9 8_665 . 114.85(2)
Ga7 Ta5 Ga9 8_665 7_555 52.568(19)
Ga9 Ta5 Ga9 . 7_555 164.020(18)
Ta1 Ta6 Ta1 2_665 16_555 102.771(10)
Ta1 Ta6 Ta2 2_665 2_665 55.581(7)
Ta1 Ta6 Ta6 2_665 2_665 100.518(8)
Ta1 Ta6 Ta7 2_665 5_555 154.285(9)
Ta1 Ta6 Ta7 2_665 12_555 69.102(7)
Ta1 Ta6 Ga4 2_665 5_555 126.032(15)
Ta1 Ta6 Ga5 2_665 5_555 52.442(13)
Ta1 Ta6 Ga5 2_665 12_555 99.362(14)
Ta1 Ta6 Ga6 2_665 5_555 102.784(13)
Ta1 Ta6 Ga7 2_665 2_665 54.987(13)
Ta1 Ta6 Ga8 2_665 . 149.773(15)
Ta1 Ta6 Ga8 2_665 2_665 88.506(16)
Ta1 Ta6 Ga9 2_665 . 105.573(19)
Ta1 Ta6 Ga9 2_665 2_665 52.853(14)
Ta1 Ta6 Ta8 2_665 . 127.2(4)
Ta1 Ta6 Ta8 2_665 2_665 60.3(3)
Ta1 Ta6 Ta2 16_555 2_665 55.581(7)
Ta1 Ta6 Ta6 16_555 2_665 100.518(8)
Ta1 Ta6 Ta7 16_555 5_555 69.102(7)
Ta1 Ta6 Ta7 16_555 12_555 154.285(9)
Ta1 Ta6 Ga4 16_555 5_555 126.032(15)
Ta1 Ta6 Ga5 16_555 5_555 99.362(14)
Ta1 Ta6 Ga5 16_555 12_555 52.442(13)
Ta1 Ta6 Ga6 16_555 5_555 102.784(13)
Ta1 Ta6 Ga7 16_555 2_665 54.987(13)
Ta1 Ta6 Ga8 16_555 . 88.506(16)
Ta1 Ta6 Ga8 16_555 2_665 149.773(15)
Ta1 Ta6 Ga9 16_555 . 52.853(14)
Ta1 Ta6 Ga9 16_555 2_665 105.573(19)
Ta1 Ta6 Ta8 16_555 . 60.3(3)
Ta1 Ta6 Ta8 16_555 2_665 127.2(4)
Ta2 Ta6 Ta6 2_665 2_665 132.088(10)
Ta2 Ta6 Ta7 2_665 5_555 102.959(8)
Ta2 Ta6 Ta7 2_665 12_555 102.959(8)
Ta2 Ta6 Ga4 2_665 5_555 135.409(14)
Ta2 Ta6 Ga5 2_665 5_555 48.694(13)
Ta2 Ta6 Ga5 2_665 12_555 48.694(13)
Ta2 Ta6 Ga6 2_665 5_555 85.687(15)
Ta2 Ta6 Ga7 2_665 2_665 48.244(13)
Ta2 Ta6 Ga8 2_665 . 144.004(17)
Ta2 Ta6 Ga8 2_665 2_665 144.004(17)
Ta2 Ta6 Ga9 2_665 . 95.127(19)
Ta2 Ta6 Ga9 2_665 2_665 95.127(19)
Ta2 Ta6 Ta8 2_665 . 112.2(4)
Ta2 Ta6 Ta8 2_665 2_665 112.2(4)
Ta6 Ta6 Ta7 2_665 5_555 104.924(8)
Ta6 Ta6 Ta7 2_665 12_555 104.924(8)
Ta6 Ta6 Ga4 2_665 5_555 92.503(14)
Ta6 Ta6 Ga5 2_665 5_555 149.576(14)
Ta6 Ta6 Ga5 2_665 12_555 149.576(14)
Ta6 Ta6 Ga6 2_665 5_555 142.225(17)
Ta6 Ta6 Ga7 2_665 2_665 83.843(13)
Ta6 Ta6 Ga8 2_665 . 49.472(14)
Ta6 Ta6 Ga8 2_665 2_665 49.472(14)
Ta6 Ta6 Ga9 2_665 . 47.775(15)
Ta6 Ta6 Ga9 2_665 2_665 47.775(15)
Ta6 Ta6 Ta8 2_665 . 45.6(3)
Ta6 Ta6 Ta8 2_665 2_665 45.6(3)
Ta7 Ta6 Ta7 5_555 12_555 107.180(10)
Ta7 Ta6 Ga4 5_555 5_555 56.940(14)
Ta7 Ta6 Ga5 5_555 5_555 103.579(14)
Ta7 Ta6 Ga5 5_555 12_555 55.903(13)
Ta7 Ta6 Ga6 5_555 5_555 57.917(12)
Ta7 Ta6 Ga7 5_555 2_665 124.008(14)
Ta7 Ta6 Ga8 5_555 . 55.931(14)
Ta7 Ta6 Ga8 5_555 2_665 110.891(19)
Ta7 Ta6 Ga9 5_555 . 89.086(16)
Ta7 Ta6 Ga9 5_555 2_665 151.949(15)
Ta7 Ta6 Ta8 5_555 . 71.3(3)
Ta7 Ta6 Ta8 5_555 2_665 144.4(4)
Ta7 Ta6 Ga4 12_555 5_555 56.940(14)
Ta7 Ta6 Ga5 12_555 5_555 55.903(13)
Ta7 Ta6 Ga5 12_555 12_555 103.579(14)
Ta7 Ta6 Ga6 12_555 5_555 57.917(12)
Ta7 Ta6 Ga7 12_555 2_665 124.008(14)
Ta7 Ta6 Ga8 12_555 . 110.891(19)
Ta7 Ta6 Ga8 12_555 2_665 55.931(14)
Ta7 Ta6 Ga9 12_555 . 151.948(15)
Ta7 Ta6 Ga9 12_555 2_665 89.086(16)
Ta7 Ta6 Ta8 12_555 . 144.4(4)
Ta7 Ta6 Ta8 12_555 2_665 71.3(3)
Ga4 Ta6 Ga5 5_555 5_555 94.179(18)
Ga4 Ta6 Ga5 5_555 12_555 94.179(18)
Ga4 Ta6 Ga6 5_555 5_555 49.721(18)
Ga4 Ta6 Ga7 5_555 2_665 176.347(18)
Ga4 Ta6 Ga8 5_555 . 61.68(2)
Ga4 Ta6 Ga8 5_555 2_665 61.68(2)
Ga4 Ta6 Ga9 5_555 . 121.03(2)
Ga4 Ta6 Ga9 5_555 2_665 121.03(2)
Ga4 Ta6 Ta8 5_555 . 98.8(4)
Ga4 Ta6 Ta8 5_555 2_665 98.8(4)
Ga5 Ta6 Ga5 5_555 12_555 59.228(16)
Ga5 Ta6 Ga6 5_555 5_555 52.135(17)
Ga5 Ta6 Ga7 5_555 2_665 88.996(18)
Ga5 Ta6 Ga8 5_555 . 153.83(2)
Ga5 Ta6 Ga8 5_555 2_665 109.546(18)
Ga5 Ta6 Ga9 5_555 . 143.28(2)
Ga5 Ta6 Ga9 5_555 2_665 104.468(18)
Ga5 Ta6 Ta8 5_555 . 159.6(3)
Ga5 Ta6 Ta8 5_555 2_665 104.0(3)
Ga5 Ta6 Ga6 12_555 5_555 52.135(17)
Ga5 Ta6 Ga7 12_555 2_665 88.996(18)
Ga5 Ta6 Ga8 12_555 . 109.546(18)
Ga5 Ta6 Ga8 12_555 2_665 153.83(2)
Ga5 Ta6 Ga9 12_555 . 104.468(18)
Ga5 Ta6 Ga9 12_555 2_665 143.28(2)
Ga5 Ta6 Ta8 12_555 . 104.0(3)
Ga5 Ta6 Ta8 12_555 2_665 159.6(3)
Ga6 Ta6 Ga7 5_555 2_665 133.932(19)
Ga6 Ta6 Ga8 5_555 . 101.85(2)
Ga6 Ta6 Ga8 5_555 2_665 101.85(2)
Ga6 Ta6 Ga9 5_555 . 146.023(18)
Ga6 Ta6 Ga9 5_555 2_665 146.023(18)
Ga6 Ta6 Ta8 5_555 . 128.9(4)
Ga6 Ta6 Ta8 5_555 2_665 128.9(4)
Ga7 Ta6 Ga8 2_665 . 115.51(2)
Ga7 Ta6 Ga8 2_665 2_665 115.51(2)
Ga7 Ta6 Ga9 2_665 . 56.23(2)
Ga7 Ta6 Ga9 2_665 2_665 56.23(2)
Ga7 Ta6 Ta8 2_665 . 78.6(4)
Ga7 Ta6 Ta8 2_665 2_665 78.6(4)
Ga8 Ta6 Ga8 . 2_665 69.442(19)
Ga8 Ta6 Ga9 . . 59.35(3)
Ga8 Ta6 Ga9 . 2_665 97.25(2)
Ga8 Ta6 Ta8 . . 37.5(4)
Ga8 Ta6 Ta8 . 2_665 90.5(3)
Ga8 Ta6 Ga9 2_665 . 97.25(2)
Ga8 Ta6 Ga9 2_665 2_665 59.35(3)
Ga8 Ta6 Ta8 2_665 . 90.5(3)
Ga8 Ta6 Ta8 2_665 2_665 37.5(4)
Ga9 Ta6 Ga9 . 2_665 67.864(19)
Ga9 Ta6 Ta8 . . 22.6(4)
Ga9 Ta6 Ta8 . 2_665 82.1(3)
Ga9 Ta6 Ta8 2_665 . 82.1(3)
Ga9 Ta6 Ta8 2_665 2_665 22.6(4)
Ta8 Ta6 Ta8 . 2_665 89.5(4)
Ta1 Ta7 Ta1 . 2_655 91.328(7)
Ta1 Ta7 Ta1 . 12_545 93.680(7)
Ta1 Ta7 Ta2 . 2_655 143.074(9)
Ta1 Ta7 Ta3 . . 59.345(7)
Ta1 Ta7 Ta4 . . 57.690(5)
Ta1 Ta7 Ta6 . 5_545 105.531(8)
Ta1 Ta7 Ga1 . . 53.042(8)
Ta1 Ta7 Ga2 . . 111.789(18)
Ta1 Ta7 Ga3 . 2_655 101.271(13)
Ta1 Ta7 Ga4 . . 103.243(14)
Ta1 Ta7 Ga5 . 5_545 117.777(14)
Ta1 Ta7 Ga5 . 16_555 53.763(13)
Ta1 Ta7 Ga6 . . 53.878(12)
Ta1 Ta7 Ga8 . 5_545 163.030(15)
Ta1 Ta7 Ga9 . 5_545 131.175(13)
Ta1 Ta7 Ta8 . 5_545 143.2(3)
Ta1 Ta7 Ta9 . . 100.0(3)
Ta1 Ta7 Ta1 2_655 12_545 88.920(7)
Ta1 Ta7 Ta2 2_655 2_655 55.754(6)
Ta1 Ta7 Ta3 2_655 . 103.496(8)
Ta1 Ta7 Ta4 2_655 . 54.247(5)
Ta1 Ta7 Ta6 2_655 5_545 143.422(9)
Ta1 Ta7 Ga1 2_655 . 49.082(9)
Ta1 Ta7 Ga2 2_655 . 84.011(19)
Ta1 Ta7 Ga3 2_655 2_655 40.426(9)
Ta1 Ta7 Ga4 2_655 . 148.033(18)
Ta1 Ta7 Ga5 2_655 5_545 47.968(13)
Ta1 Ta7 Ga5 2_655 16_555 113.837(14)
Ta1 Ta7 Ga6 2_655 . 144.176(13)
Ta1 Ta7 Ga8 2_655 5_545 105.386(14)
Ta1 Ta7 Ga9 2_655 5_545 102.053(10)
Ta1 Ta7 Ta8 2_655 5_545 98.8(2)
Ta1 Ta7 Ta9 2_655 . 131.5(2)
Ta1 Ta7 Ta2 12_545 2_655 101.118(8)
Ta1 Ta7 Ta3 12_545 . 149.992(9)
Ta1 Ta7 Ta4 12_545 . 55.030(5)
Ta1 Ta7 Ta6 12_545 5_545 58.363(7)
Ta1 Ta7 Ga1 12_545 . 117.572(18)
Ta1 Ta7 Ga2 12_545 . 153.647(18)
Ta1 Ta7 Ga3 12_545 2_655 126.622(10)
Ta1 Ta7 Ga4 12_545 . 117.802(18)
Ta1 Ta7 Ga5 12_545 5_545 50.914(13)
Ta1 Ta7 Ga5 12_545 16_555 48.743(13)
Ta1 Ta7 Ga6 12_545 . 100.401(17)
Ta1 Ta7 Ga8 12_545 5_545 83.90(2)
Ta1 Ta7 Ga9 12_545 5_545 40.945(11)
Ta1 Ta7 Ta8 12_545 5_545 51.6(3)
Ta1 Ta7 Ta9 12_545 . 136.4(2)
Ta2 Ta7 Ta3 2_655 . 108.480(9)
Ta2 Ta7 Ta4 2_655 . 104.742(7)
Ta2 Ta7 Ta6 2_655 5_545 111.064(8)
Ta2 Ta7 Ga1 2_655 . 90.307(9)
Ta2 Ta7 Ga2 2_655 . 54.295(17)
Ta2 Ta7 Ga3 2_655 2_655 43.383(12)
Ta2 Ta7 Ga4 2_655 . 99.377(15)
Ta2 Ta7 Ga5 2_655 5_545 54.465(13)
Ta2 Ta7 Ga5 2_655 16_555 149.828(15)
Ta2 Ta7 Ga6 2_655 . 150.751(17)
Ta2 Ta7 Ga8 2_655 5_545 53.461(14)
Ta2 Ta7 Ga9 2_655 5_545 77.193(11)
Ta2 Ta7 Ta8 2_655 5_545 66.4(3)
Ta2 Ta7 Ta9 2_655 . 92.3(3)
Ta3 Ta7 Ta4 . . 110.926(8)
Ta3 Ta7 Ta6 . 5_545 113.047(10)
Ta3 Ta7 Ga1 . . 58.575(15)
Ta3 Ta7 Ga2 . . 56.135(17)
Ta3 Ta7 Ga3 . 2_655 75.467(11)
Ta3 Ta7 Ga4 . . 62.556(17)
Ta3 Ta7 Ga5 . 5_545 150.978(15)
Ta3 Ta7 Ga5 . 16_555 101.459(14)
Ta3 Ta7 Ga6 . . 54.223(17)
Ta3 Ta7 Ga8 . 5_545 117.74(2)
Ta3 Ta7 Ga9 . 5_545 152.040(12)
Ta3 Ta7 Ta8 . 5_545 147.9(3)
Ta3 Ta7 Ta9 . . 48.6(3)
Ta4 Ta7 Ta6 . 5_545 108.272(9)
Ta4 Ta7 Ga1 . . 62.660(17)
Ta4 Ta7 Ga2 . . 133.942(19)
Ta4 Ta7 Ga3 . 2_655 91.483(11)
Ta4 Ta7 Ga4 . . 155.746(15)
Ta4 Ta7 Ga5 . 5_545 60.165(13)
Ta4 Ta7 Ga5 . 16_555 59.658(12)
Ta4 Ta7 Ga6 . . 103.774(14)
Ta4 Ta7 Ga8 . 5_545 130.764(19)
Ta4 Ta7 Ga9 . 5_545 93.191(12)
Ta4 Ta7 Ta8 . 5_545 100.8(3)
Ta4 Ta7 Ta9 . . 157.6(3)
Ta6 Ta7 Ga1 5_545 . 158.571(11)
Ta6 Ta7 Ga2 5_545 . 117.44(2)
Ta6 Ta7 Ga3 5_545 2_655 152.404(14)
Ta6 Ta7 Ga4 5_545 . 59.448(18)
Ta6 Ta7 Ga5 5_545 5_545 95.742(14)
Ta6 Ta7 Ga5 5_545 16_555 58.221(13)
Ta6 Ta7 Ga6 5_545 . 65.158(15)
Ta6 Ta7 Ga8 5_545 5_545 59.004(16)
Ta6 Ta7 Ga9 5_545 5_545 42.845(10)
Ta6 Ta7 Ta8 5_545 5_545 49.2(2)
Ta6 Ta7 Ta9 5_545 . 78.0(2)
Ga1 Ta7 Ga2 . . 75.85(2)
Ga1 Ta7 Ga3 . 2_655 48.596(15)
Ga1 Ta7 Ga4 . . 120.33(2)
Ga1 Ta7 Ga5 . 5_545 95.581(17)
Ga1 Ta7 Ga5 . 16_555 102.370(18)
Ga1 Ta7 Ga6 . . 97.046(14)
Ga1 Ta7 Ga8 . 5_545 142.12(2)
Ga1 Ta7 Ga9 . 5_545 149.282(17)
Ga1 Ta7 Ta8 . 5_545 147.9(2)
Ga1 Ta7 Ta9 . . 103.5(2)
Ga2 Ta7 Ga3 . 2_655 43.86(2)
Ga2 Ta7 Ga4 . . 64.22(2)
Ga2 Ta7 Ga5 . 5_545 108.01(2)
Ga2 Ta7 Ga5 . 16_555 155.32(2)
Ga2 Ta7 Ga6 . . 100.13(2)
Ga2 Ta7 Ga8 . 5_545 73.66(3)
Ga2 Ta7 Ga9 . 5_545 116.15(2)
Ga2 Ta7 Ta8 . 5_545 104.4(3)
Ga2 Ta7 Ta9 . . 47.9(2)
Ga3 Ta7 Ga4 2_655 . 108.067(19)
Ga3 Ta7 Ga5 2_655 5_545 77.194(15)
Ga3 Ta7 Ga5 2_655 16_555 148.347(17)
Ga3 Ta7 Ga6 2_655 . 129.660(19)
Ga3 Ta7 Ga8 2_655 5_545 93.55(2)
Ga3 Ta7 Ga9 2_655 5_545 119.279(14)
Ga3 Ta7 Ta8 2_655 5_545 109.4(3)
Ga3 Ta7 Ta9 2_655 . 91.1(2)
Ga4 Ta7 Ga5 . 5_545 137.039(19)
Ga4 Ta7 Ga5 . 16_555 97.57(2)
Ga4 Ta7 Ga6 . . 52.687(18)
Ga4 Ta7 Ga8 . 5_545 63.81(2)
Ga4 Ta7 Ga9 . 5_545 89.633(19)
Ga4 Ta7 Ta8 . 5_545 86.4(3)
Ga4 Ta7 Ta9 . . 18.6(2)
Ga5 Ta7 Ga5 5_545 16_555 96.670(18)
Ga5 Ta7 Ga6 5_545 . 151.21(2)
Ga5 Ta7 Ga8 5_545 5_545 73.39(2)
Ga5 Ta7 Ga9 5_545 5_545 54.310(15)
Ga5 Ta7 Ta8 5_545 5_545 53.2(2)
Ga5 Ta7 Ta9 5_545 . 141.9(3)
Ga5 Ta7 Ga6 16_555 . 55.34(2)
Ga5 Ta7 Ga8 16_555 5_545 114.70(2)
Ga5 Ta7 Ga9 16_555 5_545 78.143(16)
Ga5 Ta7 Ta8 16_555 5_545 90.1(3)
Ga5 Ta7 Ta9 16_555 . 110.7(3)
Ga6 Ta7 Ga8 . 5_545 109.938(18)
Ga6 Ta7 Ga9 . 5_545 107.589(17)
Ga6 Ta7 Ta8 . 5_545 114.1(2)
Ga6 Ta7 Ta9 . . 58.5(3)
Ga8 Ta7 Ga9 5_545 5_545 43.11(2)
Ga8 Ta7 Ta8 5_545 5_545 32.4(3)
Ga8 Ta7 Ta9 5_545 . 71.2(3)
Ga9 Ta7 Ta8 5_545 5_545 12.0(3)
Ga9 Ta7 Ta9 5_545 . 104.9(2)
Ta8 Ta7 Ta9 5_545 . 99.3(4)
Ta1 Ga1 Ta1 . 2_655 128.87(3)
Ta1 Ga1 Ta3 . . 69.013(6)
Ta1 Ga1 Ta3 . 2_655 139.788(7)
Ta1 Ga1 Ta4 . . 64.433(17)
Ta1 Ga1 Ta7 . . 74.837(14)
Ta1 Ga1 Ta7 . 2_655 82.639(16)
Ta1 Ga1 Ga1 . 9_655 115.567(17)
Ta1 Ga1 Ga2 . . 110.993(14)
Ta1 Ga1 Ga2 . 2_655 89.037(13)
Ta1 Ga1 Ga3 . . 54.903(10)
Ta1 Ga1 Ga3 . 2_655 162.384(16)
Ta1 Ga1 Ga5 . 5_545 97.78(2)
Ta1 Ga1 Ga5 . 6_555 42.200(13)
Ta1 Ga1 Ta3 2_655 . 139.788(7)
Ta1 Ga1 Ta3 2_655 2_655 69.013(6)
Ta1 Ga1 Ta4 2_655 . 64.433(17)
Ta1 Ga1 Ta7 2_655 . 82.639(16)
Ta1 Ga1 Ta7 2_655 2_655 74.837(14)
Ta1 Ga1 Ga1 2_655 9_655 115.567(17)
Ta1 Ga1 Ga2 2_655 . 89.037(13)
Ta1 Ga1 Ga2 2_655 2_655 110.993(14)
Ta1 Ga1 Ga3 2_655 . 162.384(16)
Ta1 Ga1 Ga3 2_655 2_655 54.903(10)
Ta1 Ga1 Ga5 2_655 5_545 42.200(13)
Ta1 Ga1 Ga5 2_655 6_555 97.78(2)
Ta3 Ga1 Ta3 . 2_655 123.96(3)
Ta3 Ga1 Ta4 . . 118.021(16)
Ta3 Ga1 Ta7 . . 66.977(6)
Ta3 Ga1 Ta7 . 2_655 144.617(7)
Ta3 Ga1 Ga1 . 9_655 61.979(16)
Ta3 Ga1 Ga2 . . 51.891(16)
Ta3 Ga1 Ga2 . 2_655 104.21(2)
Ta3 Ga1 Ga3 . . 57.062(18)
Ta3 Ga1 Ga3 . 2_655 97.59(2)
Ta3 Ga1 Ga5 . 5_545 107.734(12)
Ta3 Ga1 Ga5 . 6_555 110.760(12)
Ta3 Ga1 Ta4 2_655 . 118.021(16)
Ta3 Ga1 Ta7 2_655 . 144.617(7)
Ta3 Ga1 Ta7 2_655 2_655 66.977(6)
Ta3 Ga1 Ga1 2_655 9_655 61.979(16)
Ta3 Ga1 Ga2 2_655 . 104.21(2)
Ta3 Ga1 Ga2 2_655 2_655 51.891(16)
Ta3 Ga1 Ga3 2_655 . 97.59(2)
Ta3 Ga1 Ga3 2_655 2_655 57.062(18)
Ta3 Ga1 Ga5 2_655 5_545 110.760(12)
Ta3 Ga1 Ga5 2_655 6_555 107.734(12)
Ta4 Ga1 Ta7 . . 63.161(18)
Ta4 Ga1 Ta7 . 2_655 63.161(18)
Ta4 Ga1 Ga1 . 9_655 180.0(5)
Ta4 Ga1 Ga2 . . 113.303(15)
Ta4 Ga1 Ga2 . 2_655 113.303(15)
Ta4 Ga1 Ga3 . . 115.982(17)
Ta4 Ga1 Ga3 . 2_655 115.982(17)
Ta4 Ga1 Ga5 . 5_545 45.459(12)
Ta4 Ga1 Ga5 . 6_555 45.459(12)
Ta7 Ga1 Ta7 . 2_655 126.32(3)
Ta7 Ga1 Ga1 . 9_655 116.839(18)
Ta7 Ga1 Ga2 . . 53.023(9)
Ta7 Ga1 Ga2 . 2_655 163.477(15)
Ta7 Ga1 Ga3 . . 113.763(15)
Ta7 Ga1 Ga3 . 2_655 89.578(14)
Ta7 Ga1 Ga5 . 5_545 41.871(13)
Ta7 Ga1 Ga5 . 6_555 96.39(2)
Ta7 Ga1 Ga1 2_655 9_655 116.839(18)
Ta7 Ga1 Ga2 2_655 . 163.477(15)
Ta7 Ga1 Ga2 2_655 2_655 53.023(9)
Ta7 Ga1 Ga3 2_655 . 89.578(14)
Ta7 Ga1 Ga3 2_655 2_655 113.763(15)
Ta7 Ga1 Ga5 2_655 5_545 96.39(2)
Ta7 Ga1 Ga5 2_655 6_555 41.871(13)
Ga1 Ga1 Ga2 9_655 . 66.697(15)
Ga1 Ga1 Ga2 9_655 2_655 66.697(15)
Ga1 Ga1 Ga3 9_655 . 64.018(17)
Ga1 Ga1 Ga3 9_655 2_655 64.018(17)
Ga1 Ga1 Ga5 9_655 5_545 134.541(12)
Ga1 Ga1 Ga5 9_655 6_555 134.541(12)
Ga2 Ga1 Ga2 . 2_655 133.39(3)
Ga2 Ga1 Ga3 . . 105.79(2)
Ga2 Ga1 Ga3 . 2_655 51.77(2)
Ga2 Ga1 Ga5 . 5_545 73.132(12)
Ga2 Ga1 Ga5 . 6_555 147.69(2)
Ga2 Ga1 Ga3 2_655 . 51.77(2)
Ga2 Ga1 Ga3 2_655 2_655 105.79(2)
Ga2 Ga1 Ga5 2_655 5_545 147.69(2)
Ga2 Ga1 Ga5 2_655 6_555 73.132(12)
Ga3 Ga1 Ga3 . 2_655 128.04(3)
Ga3 Ga1 Ga5 . 5_545 151.13(2)
Ga3 Ga1 Ga5 . 6_555 74.861(13)
Ga3 Ga1 Ga5 2_655 5_545 74.861(13)
Ga3 Ga1 Ga5 2_655 6_555 151.13(2)
Ga5 Ga1 Ga5 5_545 6_555 90.92(2)
Ta2 Ga2 Ta2 2_655 7_545 77.48(2)
Ta2 Ga2 Ta3 2_655 . 135.20(2)
Ta2 Ga2 Ta7 2_655 . 71.540(9)
Ta2 Ga2 Ta7 2_655 10_555 146.61(3)
Ta2 Ga2 Ga1 2_655 . 86.563(19)
Ta2 Ga2 Ga1 2_655 9_655 115.80(3)
Ta2 Ga2 Ga2 2_655 8_555 56.052(19)
Ta2 Ga2 Ga3 2_655 2_655 60.11(2)
Ta2 Ga2 Ga4 2_655 . 107.12(2)
Ta2 Ga2 Ga4 2_655 7_555 146.43(3)
Ta2 Ga2 Ga8 2_655 3_544 115.11(3)
Ta2 Ga2 Ga8 2_655 5_545 52.456(14)
Ta2 Ga2 Ta9 2_655 . 128.8(2)
Ta2 Ga2 Ta3 7_545 . 135.20(2)
Ta2 Ga2 Ta7 7_545 . 146.61(3)
Ta2 Ga2 Ta7 7_545 10_555 71.540(9)
Ta2 Ga2 Ga1 7_545 . 115.80(3)
Ta2 Ga2 Ga1 7_545 9_655 86.563(19)
Ta2 Ga2 Ga2 7_545 8_555 56.052(19)
Ta2 Ga2 Ga3 7_545 2_655 60.11(2)
Ta2 Ga2 Ga4 7_545 . 146.43(3)
Ta2 Ga2 Ga4 7_545 7_555 107.12(2)
Ta2 Ga2 Ga8 7_545 3_544 52.456(14)
Ta2 Ga2 Ga8 7_545 5_545 115.11(3)
Ta2 Ga2 Ta9 7_545 . 128.8(2)
Ta3 Ga2 Ta7 . . 67.151(16)
Ta3 Ga2 Ta7 . 10_555 67.151(16)
Ta3 Ga2 Ga1 . . 54.061(16)
Ta3 Ga2 Ga1 . 9_655 54.061(16)
Ta3 Ga2 Ga2 . 8_555 160.26(4)
Ta3 Ga2 Ga3 . 2_655 105.17(3)
Ta3 Ga2 Ga4 . . 64.34(2)
Ta3 Ga2 Ga4 . 7_555 64.34(2)
Ta3 Ga2 Ga8 . 3_544 109.68(2)
Ta3 Ga2 Ga8 . 5_545 109.68(2)
Ta3 Ga2 Ta9 . . 61.2(4)
Ta7 Ga2 Ta7 . 10_555 133.89(3)
Ta7 Ga2 Ga1 . . 51.123(18)
Ta7 Ga2 Ga1 . 9_655 95.76(3)
Ta7 Ga2 Ga2 . 8_555 112.493(17)
Ta7 Ga2 Ga3 . 2_655 93.03(2)
Ta7 Ga2 Ga4 . . 58.380(19)
Ta7 Ga2 Ga4 . 7_555 105.55(3)
Ta7 Ga2 Ga8 . 3_544 156.02(3)
Ta7 Ga2 Ga8 . 5_545 52.668(14)
Ta7 Ga2 Ta9 . . 81.78(15)
Ta7 Ga2 Ga1 10_555 . 95.76(3)
Ta7 Ga2 Ga1 10_555 9_655 51.123(18)
Ta7 Ga2 Ga2 10_555 8_555 112.493(17)
Ta7 Ga2 Ga3 10_555 2_655 93.03(2)
Ta7 Ga2 Ga4 10_555 . 105.55(3)
Ta7 Ga2 Ga4 10_555 7_555 58.380(19)
Ta7 Ga2 Ga8 10_555 3_544 52.668(14)
Ta7 Ga2 Ga8 10_555 5_545 156.02(3)
Ta7 Ga2 Ta9 10_555 . 81.78(15)
Ga1 Ga2 Ga1 . 9_655 46.61(2)
Ga1 Ga2 Ga2 . 8_555 142.28(3)
Ga1 Ga2 Ga3 . 2_655 58.12(2)
Ga1 Ga2 Ga4 . . 97.76(2)
Ga1 Ga2 Ga4 . 7_555 118.40(3)
Ga1 Ga2 Ga8 . 3_544 147.53(3)
Ga1 Ga2 Ga8 . 5_545 100.96(2)
Ga1 Ga2 Ta9 . . 109.6(4)
Ga1 Ga2 Ga2 9_655 8_555 142.28(3)
Ga1 Ga2 Ga3 9_655 2_655 58.12(2)
Ga1 Ga2 Ga4 9_655 . 118.40(3)
Ga1 Ga2 Ga4 9_655 7_555 97.76(2)
Ga1 Ga2 Ga8 9_655 3_544 100.96(2)
Ga1 Ga2 Ga8 9_655 5_545 147.53(3)
Ga1 Ga2 Ta9 9_655 . 109.6(4)
Ga2 Ga2 Ga3 8_555 2_655 94.57(3)
Ga2 Ga2 Ga4 8_555 . 98.05(3)
Ga2 Ga2 Ga4 8_555 7_555 98.05(3)
Ga2 Ga2 Ga8 8_555 3_544 61.992(19)
Ga2 Ga2 Ga8 8_555 5_545 61.992(19)
Ga2 Ga2 Ta9 8_555 . 99.1(4)
Ga3 Ga2 Ga4 2_655 . 151.36(2)
Ga3 Ga2 Ga4 2_655 7_555 151.36(2)
Ga3 Ga2 Ga8 2_655 3_544 110.37(2)
Ga3 Ga2 Ga8 2_655 5_545 110.37(2)
Ga3 Ga2 Ta9 2_655 . 166.3(4)
Ga4 Ga2 Ga4 . 7_555 51.01(3)
Ga4 Ga2 Ga8 . 3_544 98.25(3)
Ga4 Ga2 Ga8 . 5_545 55.40(2)
Ga4 Ga2 Ta9 . . 25.506(17)
Ga4 Ga2 Ga8 7_555 3_544 55.40(2)
Ga4 Ga2 Ga8 7_555 5_545 98.25(3)
Ga4 Ga2 Ta9 7_555 . 25.506(17)
Ga8 Ga2 Ga8 3_544 5_545 111.38(3)
Ga8 Ga2 Ta9 3_544 . 76.5(2)
Ga8 Ga2 Ta9 5_545 . 76.5(2)
Ta1 Ga3 Ta1 . 10_555 139.71(3)
Ta1 Ga3 Ta2 . . 71.760(9)
Ta1 Ga3 Ta2 . 8_665 148.52(3)
Ta1 Ga3 Ta3 . . 70.184(17)
Ta1 Ga3 Ta5 . . 77.047(18)
Ta1 Ga3 Ta7 . 2_655 60.473(12)
Ta1 Ga3 Ta7 . 9_655 133.59(3)
Ta1 Ga3 Ga1 . . 56.769(18)
Ta1 Ga3 Ga1 . 9_655 105.94(3)
Ta1 Ga3 Ga2 . 2_655 103.206(19)
Ta1 Ga3 Ga3 . 8_665 105.967(18)
Ta1 Ga3 Ga7 . . 63.387(19)
Ta1 Ga3 Ga7 . 8_665 125.71(3)
Ta1 Ga3 Ta2 10_555 . 148.52(3)
Ta1 Ga3 Ta2 10_555 8_665 71.760(9)
Ta1 Ga3 Ta3 10_555 . 70.184(17)
Ta1 Ga3 Ta5 10_555 . 77.047(18)
Ta1 Ga3 Ta7 10_555 2_655 133.59(3)
Ta1 Ga3 Ta7 10_555 9_655 60.473(12)
Ta1 Ga3 Ga1 10_555 . 105.94(3)
Ta1 Ga3 Ga1 10_555 9_655 56.769(18)
Ta1 Ga3 Ga2 10_555 2_655 103.206(19)
Ta1 Ga3 Ga3 10_555 8_665 105.967(18)
Ta1 Ga3 Ga7 10_555 . 125.71(3)
Ta1 Ga3 Ga7 10_555 8_665 63.387(19)
Ta2 Ga3 Ta2 . 8_665 76.76(2)
Ta2 Ga3 Ta3 . . 140.700(13)
Ta2 Ga3 Ta5 . . 120.00(2)
Ta2 Ga3 Ta7 . 2_655 52.760(12)
Ta2 Ga3 Ta7 . 9_655 100.18(2)
Ta2 Ga3 Ga1 . . 92.860(19)
Ta2 Ga3 Ga1 . 9_655 126.44(3)
Ta2 Ga3 Ga2 . 2_655 59.34(2)
Ta2 Ga3 Ga3 . 8_665 50.649(16)
Ta2 Ga3 Ga7 . . 59.569(19)
Ta2 Ga3 Ga7 . 8_665 100.13(3)
Ta2 Ga3 Ta3 8_665 . 140.700(13)
Ta2 Ga3 Ta5 8_665 . 120.00(2)
Ta2 Ga3 Ta7 8_665 2_655 100.18(2)
Ta2 Ga3 Ta7 8_665 9_655 52.760(12)
Ta2 Ga3 Ga1 8_665 . 126.44(3)
Ta2 Ga3 Ga1 8_665 9_655 92.860(19)
Ta2 Ga3 Ga2 8_665 2_655 59.34(2)
Ta2 Ga3 Ga3 8_665 8_665 50.649(16)
Ta2 Ga3 Ga7 8_665 . 100.13(3)
Ta2 Ga3 Ga7 8_665 8_665 59.569(19)
Ta3 Ga3 Ta5 . . 59.549(18)
Ta3 Ga3 Ta7 . 2_655 98.842(19)
Ta3 Ga3 Ta7 . 9_655 98.842(19)
Ta3 Ga3 Ga1 . . 57.794(16)
Ta3 Ga3 Ga1 . 9_655 57.794(16)
Ta3 Ga3 Ga2 . 2_655 121.40(3)
Ta3 Ga3 Ga3 . 8_665 153.17(3)
Ta3 Ga3 Ga7 . . 109.71(3)
Ta3 Ga3 Ga7 . 8_665 109.71(3)
Ta5 Ga3 Ta7 . 2_655 137.252(12)
Ta5 Ga3 Ta7 . 9_655 137.252(12)
Ta5 Ga3 Ga1 . . 110.73(2)
Ta5 Ga3 Ga1 . 9_655 110.73(2)
Ta5 Ga3 Ga2 . 2_655 179.05(4)
Ta5 Ga3 Ga3 . 8_665 93.62(3)
Ta5 Ga3 Ga7 . . 60.78(2)
Ta5 Ga3 Ga7 . 8_665 60.78(2)
Ta7 Ga3 Ta7 2_655 9_655 78.055(15)
Ta7 Ga3 Ga1 2_655 . 41.826(12)
Ta7 Ga3 Ga1 2_655 9_655 78.85(2)
Ta7 Ga3 Ga2 2_655 2_655 43.109(11)
Ta7 Ga3 Ga3 2_655 8_665 101.922(19)
Ta7 Ga3 Ga7 2_655 . 100.620(18)
Ta7 Ga3 Ga7 2_655 8_665 151.20(3)
Ta7 Ga3 Ga1 9_655 . 78.85(2)
Ta7 Ga3 Ga1 9_655 9_655 41.826(12)
Ta7 Ga3 Ga2 9_655 2_655 43.109(11)
Ta7 Ga3 Ga3 9_655 8_665 101.922(19)
Ta7 Ga3 Ga7 9_655 . 151.20(3)
Ta7 Ga3 Ga7 9_655 8_665 100.620(18)
Ga1 Ga3 Ga1 . 9_655 51.96(3)
Ga1 Ga3 Ga2 . 2_655 70.11(2)
Ga1 Ga3 Ga3 . 8_665 143.35(2)
Ga1 Ga3 Ga7 . . 119.50(2)
Ga1 Ga3 Ga7 . 8_665 166.86(3)
Ga1 Ga3 Ga2 9_655 2_655 70.11(2)
Ga1 Ga3 Ga3 9_655 8_665 143.35(2)
Ga1 Ga3 Ga7 9_655 . 166.86(3)
Ga1 Ga3 Ga7 9_655 8_665 119.50(2)
Ga2 Ga3 Ga3 2_655 8_665 85.43(3)
Ga2 Ga3 Ga7 2_655 . 118.48(3)
Ga2 Ga3 Ga7 2_655 8_665 118.48(3)
Ga3 Ga3 Ga7 8_665 . 49.76(2)
Ga3 Ga3 Ga7 8_665 8_665 49.76(2)
Ga7 Ga3 Ga7 . 8_665 66.66(3)
Ta3 Ga4 Ta3 . 7_555 68.314(16)
Ta3 Ga4 Ta6 . 5_545 116.70(2)
Ta3 Ga4 Ta7 . . 62.802(13)
Ta3 Ga4 Ta7 . 16_555 120.59(2)
Ta3 Ga4 Ga2 . . 54.49(2)
Ta3 Ga4 Ga2 . 7_555 114.86(3)
Ta3 Ga4 Ga4 . 2_555 135.55(2)
Ta3 Ga4 Ga4 . 7_555 65.26(2)
Ta3 Ga4 Ga5 . . 96.628(18)
Ta3 Ga4 Ga5 . 16_555 75.086(15)
Ta3 Ga4 Ga6 . . 58.18(2)
Ta3 Ga4 Ga8 . 5_545 112.18(2)
Ta3 Ga4 Ga8 . 6_455 174.91(3)
Ta3 Ga4 Ta9 . . 65.0(8)
Ta3 Ga4 Ta6 7_555 5_545 116.70(2)
Ta3 Ga4 Ta7 7_555 . 120.59(2)
Ta3 Ga4 Ta7 7_555 16_555 62.802(13)
Ta3 Ga4 Ga2 7_555 . 114.86(3)
Ta3 Ga4 Ga2 7_555 7_555 54.49(2)
Ta3 Ga4 Ga4 7_555 2_555 135.55(2)
Ta3 Ga4 Ga4 7_555 7_555 65.26(2)
Ta3 Ga4 Ga5 7_555 . 75.086(15)
Ta3 Ga4 Ga5 7_555 16_555 96.628(18)
Ta3 Ga4 Ga6 7_555 . 58.18(2)
Ta3 Ga4 Ga8 7_555 5_545 174.91(3)
Ta3 Ga4 Ga8 7_555 6_455 112.18(2)
Ta3 Ga4 Ta9 7_555 . 65.0(8)
Ta6 Ga4 Ta7 5_545 . 63.612(18)
Ta6 Ga4 Ta7 5_545 16_555 63.612(18)
Ta6 Ga4 Ga2 5_545 . 115.09(2)
Ta6 Ga4 Ga2 5_545 7_555 115.09(2)
Ta6 Ga4 Ga4 5_545 2_555 87.50(2)
Ta6 Ga4 Ga4 5_545 7_555 177.50(3)
Ta6 Ga4 Ga5 5_545 . 42.069(13)
Ta6 Ga4 Ga5 5_545 16_555 42.069(13)
Ta6 Ga4 Ga6 5_545 . 72.46(3)
Ta6 Ga4 Ga8 5_545 5_545 58.36(2)
Ta6 Ga4 Ga8 5_545 6_455 58.36(2)
Ta6 Ga4 Ta9 5_545 . 177.8(8)
Ta7 Ga4 Ta7 . 16_555 118.68(3)
Ta7 Ga4 Ga2 . . 57.398(16)
Ta7 Ga4 Ga2 . 7_555 174.34(3)
Ta7 Ga4 Ga4 . 2_555 103.32(2)
Ta7 Ga4 Ga4 . 7_555 117.06(3)
Ta7 Ga4 Ga5 . . 79.05(2)
Ta7 Ga4 Ga5 . 16_555 40.446(13)
Ta7 Ga4 Ga6 . . 68.14(2)
Ta7 Ga4 Ga8 . 5_545 56.995(18)
Ta7 Ga4 Ga8 . 6_455 113.76(3)
Ta7 Ga4 Ta9 . . 117.0(8)
Ta7 Ga4 Ga2 16_555 . 174.34(3)
Ta7 Ga4 Ga2 16_555 7_555 57.398(16)
Ta7 Ga4 Ga4 16_555 2_555 103.32(2)
Ta7 Ga4 Ga4 16_555 7_555 117.06(3)
Ta7 Ga4 Ga5 16_555 . 40.446(13)
Ta7 Ga4 Ga5 16_555 16_555 79.05(2)
Ta7 Ga4 Ga6 16_555 . 68.14(2)
Ta7 Ga4 Ga8 16_555 5_545 113.76(3)
Ta7 Ga4 Ga8 16_555 6_455 56.995(18)
Ta7 Ga4 Ta9 16_555 . 117.0(8)
Ga2 Ga4 Ga2 . 7_555 126.15(3)
Ga2 Ga4 Ga4 . 2_555 81.95(2)
Ga2 Ga4 Ga4 . 7_555 64.49(2)
Ga2 Ga4 Ga5 . . 134.68(3)
Ga2 Ga4 Ga5 . 16_555 96.38(2)
Ga2 Ga4 Ga6 . . 106.21(3)
Ga2 Ga4 Ga8 . 5_545 68.18(2)
Ga2 Ga4 Ga8 . 6_455 127.63(3)
Ga2 Ga4 Ta9 . . 64.5(8)
Ga2 Ga4 Ga4 7_555 2_555 81.95(2)
Ga2 Ga4 Ga4 7_555 7_555 64.49(2)
Ga2 Ga4 Ga5 7_555 . 96.38(2)
Ga2 Ga4 Ga5 7_555 16_555 134.68(3)
Ga2 Ga4 Ga6 7_555 . 106.21(3)
Ga2 Ga4 Ga8 7_555 5_545 127.63(3)
Ga2 Ga4 Ga8 7_555 6_455 68.18(2)
Ga2 Ga4 Ta9 7_555 . 64.5(8)
Ga4 Ga4 Ga4 2_555 7_555 90.00(3)
Ga4 Ga4 Ga5 2_555 . 123.30(2)
Ga4 Ga4 Ga5 2_555 16_555 123.30(2)
Ga4 Ga4 Ga6 2_555 . 159.95(4)
Ga4 Ga4 Ga8 2_555 5_545 47.826(19)
Ga4 Ga4 Ga8 2_555 6_455 47.826(19)
Ga4 Ga4 Ta9 2_555 . 90.3(8)
Ga4 Ga4 Ga5 7_555 . 140.09(3)
Ga4 Ga4 Ga5 7_555 16_555 140.09(3)
Ga4 Ga4 Ga6 7_555 . 110.05(3)
Ga4 Ga4 Ga8 7_555 5_545 119.72(3)
Ga4 Ga4 Ga8 7_555 6_455 119.72(3)
Ga4 Ga4 Ta9 7_555 . 0.3(8)
Ga5 Ga4 Ga5 . 16_555 38.778(13)
Ga5 Ga4 Ga6 . . 38.86(2)
Ga5 Ga4 Ga8 . 5_545 99.86(3)
Ga5 Ga4 Ga8 . 6_455 78.78(2)
Ga5 Ga4 Ta9 . . 139.8(8)
Ga5 Ga4 Ga6 16_555 . 38.86(2)
Ga5 Ga4 Ga8 16_555 5_545 78.78(2)
Ga5 Ga4 Ga8 16_555 6_455 99.86(3)
Ga5 Ga4 Ta9 16_555 . 139.8(8)
Ga6 Ga4 Ga8 . 5_545 117.44(4)
Ga6 Ga4 Ga8 . 6_455 117.44(4)
Ga6 Ga4 Ta9 . . 109.7(8)
Ga8 Ga4 Ga8 5_545 6_455 66.85(2)
Ga8 Ga4 Ta9 5_545 . 120.0(8)
Ga8 Ga4 Ta9 6_455 . 120.0(8)
Ta1 Ga5 Ta1 6_455 16_555 132.18(2)
Ta1 Ga5 Ta2 6_455 6_455 72.425(16)
Ta1 Ga5 Ta4 6_455 5_555 66.828(13)
Ta1 Ga5 Ta6 6_455 5_545 71.921(15)
Ta1 Ga5 Ta7 6_455 5_555 84.362(17)
Ta1 Ga5 Ta7 6_455 16_555 81.567(17)
Ta1 Ga5 Ga1 6_455 5_555 43.292(9)
Ta1 Ga5 Ga4 6_455 . 103.179(18)
Ta1 Ga5 Ga5 6_455 11_455 43.351(12)
Ta1 Ga5 Ga5 6_455 12_555 102.862(18)
Ta1 Ga5 Ga5 6_455 16_555 114.99(2)
Ta1 Ga5 Ga6 6_455 . 140.44(3)
Ta1 Ga5 Ga7 6_455 6_455 45.128(13)
Ta1 Ga5 Ga8 6_455 . 117.46(2)
Ta1 Ga5 Ga9 6_455 . 167.08(3)
Ta1 Ga5 Ta8 6_455 . 150.6(4)
Ta1 Ga5 Ta2 16_555 6_455 142.43(2)
Ta1 Ga5 Ta4 16_555 5_555 65.639(13)
Ta1 Ga5 Ta6 16_555 5_545 128.91(2)
Ta1 Ga5 Ta7 16_555 5_555 80.786(16)
Ta1 Ga5 Ta7 16_555 16_555 73.984(15)
Ta1 Ga5 Ga1 16_555 5_555 103.237(17)
Ta1 Ga5 Ga4 16_555 . 85.211(17)
Ta1 Ga5 Ga5 16_555 11_455 96.101(17)
Ta1 Ga5 Ga5 16_555 12_555 41.563(12)
Ta1 Ga5 Ga5 16_555 16_555 112.21(2)
Ta1 Ga5 Ga6 16_555 . 63.694(19)
Ta1 Ga5 Ga7 16_555 6_455 174.35(2)
Ta1 Ga5 Ga8 16_555 . 89.21(2)
Ta1 Ga5 Ga9 16_555 . 51.727(16)
Ta1 Ga5 Ta8 16_555 . 65.5(3)
Ta2 Ga5 Ta4 6_455 5_555 123.50(2)
Ta2 Ga5 Ta6 6_455 5_545 81.727(17)
Ta2 Ga5 Ta7 6_455 5_555 73.508(16)
Ta2 Ga5 Ta7 6_455 16_555 143.52(2)
Ta2 Ga5 Ga1 6_455 5_555 75.517(16)
Ta2 Ga5 Ga4 6_455 . 120.17(2)
Ta2 Ga5 Ga5 6_455 11_455 115.377(19)
Ta2 Ga5 Ga5 6_455 12_555 115.090(19)
Ta2 Ga5 Ga5 6_455 16_555 59.947(17)
Ta2 Ga5 Ga6 6_455 . 118.87(2)
Ta2 Ga5 Ga7 6_455 6_455 43.226(13)
Ta2 Ga5 Ga8 6_455 . 53.538(18)
Ta2 Ga5 Ga9 6_455 . 98.17(2)
Ta2 Ga5 Ta8 6_455 . 81.5(4)
Ta4 Ga5 Ta6 5_555 5_545 118.46(2)
Ta4 Ga5 Ta7 5_555 5_555 65.273(13)
Ta4 Ga5 Ta7 5_555 16_555 64.644(13)
Ta4 Ga5 Ga1 5_555 5_555 47.985(12)
Ta4 Ga5 Ga4 5_555 . 106.193(18)
Ta4 Ga5 Ga5 5_555 11_455 44.897(11)
Ta4 Ga5 Ga5 5_555 12_555 44.897(11)
Ta4 Ga5 Ga5 5_555 16_555 176.49(3)
Ta4 Ga5 Ga6 5_555 . 117.53(2)
Ta4 Ga5 Ga7 5_555 6_455 111.956(18)
Ta4 Ga5 Ga8 5_555 . 117.47(2)
Ta4 Ga5 Ga9 5_555 . 113.79(2)
Ta4 Ga5 Ta8 5_555 . 120.4(3)
Ta6 Ga5 Ta7 5_545 5_555 149.94(2)
Ta6 Ga5 Ta7 5_545 16_555 65.876(14)
Ta6 Ga5 Ga1 5_545 5_555 114.999(17)
Ta6 Ga5 Ga4 5_545 . 43.752(14)
Ta6 Ga5 Ga5 5_545 11_455 73.744(15)
Ta6 Ga5 Ga5 5_545 12_555 160.60(2)
Ta6 Ga5 Ga5 5_545 16_555 60.386(17)
Ta6 Ga5 Ga6 5_545 . 72.674(19)
Ta6 Ga5 Ga7 5_545 6_455 46.994(15)
Ta6 Ga5 Ga8 5_545 . 121.47(2)
Ta6 Ga5 Ga9 5_545 . 116.27(2)
Ta6 Ga5 Ta8 5_545 . 118.1(3)
Ta7 Ga5 Ta7 5_555 16_555 129.57(2)
Ta7 Ga5 Ga1 5_555 5_555 42.548(9)
Ta7 Ga5 Ga4 5_555 . 165.71(2)
Ta7 Ga5 Ga5 5_555 11_455 101.585(18)
Ta7 Ga5 Ga5 5_555 12_555 42.148(12)
Ta7 Ga5 Ga5 5_555 16_555 117.53(2)
Ta7 Ga5 Ga6 5_555 . 134.60(3)
Ta7 Ga5 Ga7 5_555 6_455 103.03(2)
Ta7 Ga5 Ga8 5_555 . 54.292(16)
Ta7 Ga5 Ga9 5_555 . 84.44(2)
Ta7 Ga5 Ta8 5_555 . 75.2(3)
Ta7 Ga5 Ga1 16_555 5_555 102.560(18)
Ta7 Ga5 Ga4 16_555 . 41.984(12)
Ta7 Ga5 Ga5 16_555 11_455 41.182(12)
Ta7 Ga5 Ga5 16_555 12_555 95.075(17)
Ta7 Ga5 Ga5 16_555 16_555 112.32(2)
Ta7 Ga5 Ga6 16_555 . 68.223(19)
Ta7 Ga5 Ga7 16_555 6_455 100.370(19)
Ta7 Ga5 Ga8 16_555 . 160.61(3)
Ta7 Ga5 Ga9 16_555 . 110.65(2)
Ta7 Ga5 Ta8 16_555 . 127.8(4)
Ga1 Ga5 Ga4 5_555 . 140.358(17)
Ga1 Ga5 Ga5 5_555 11_455 63.725(13)
Ga1 Ga5 Ga5 5_555 12_555 63.725(13)
Ga1 Ga5 Ga5 5_555 16_555 135.45(2)
Ga1 Ga5 Ga6 5_555 . 165.25(3)
Ga1 Ga5 Ga7 5_555 6_455 77.464(15)
Ga1 Ga5 Ga8 5_555 . 90.48(2)
Ga1 Ga5 Ga9 5_555 . 126.67(2)
Ga1 Ga5 Ta8 5_555 . 117.3(3)
Ga4 Ga5 Ga5 . 11_455 76.984(15)
Ga4 Ga5 Ga5 . 12_555 123.631(19)
Ga4 Ga5 Ga5 . 16_555 70.611(18)
Ga4 Ga5 Ga6 . . 37.375(17)
Ga4 Ga5 Ga7 . 6_455 90.731(18)
Ga4 Ga5 Ga8 . . 128.71(2)
Ga4 Ga5 Ga9 . . 89.15(2)
Ga4 Ga5 Ta8 . . 101.5(4)
Ga5 Ga5 Ga5 11_455 12_555 89.588(16)
Ga5 Ga5 Ga5 11_455 16_555 134.13(2)
Ga5 Ga5 Ga6 11_455 . 109.10(2)
Ga5 Ga5 Ga7 11_455 6_455 79.120(15)
Ga5 Ga5 Ga8 11_455 . 154.20(2)
Ga5 Ga5 Ga9 11_455 . 146.33(2)
Ga5 Ga5 Ta8 11_455 . 161.6(3)
Ga5 Ga5 Ga5 12_555 16_555 135.46(2)
Ga5 Ga5 Ga6 12_555 . 104.64(2)
Ga5 Ga5 Ga7 12_555 6_455 140.51(2)
Ga5 Ga5 Ga8 12_555 . 77.729(17)
Ga5 Ga5 Ga9 12_555 . 72.661(16)
Ga5 Ga5 Ta8 12_555 . 75.8(3)
Ga5 Ga5 Ga6 16_555 . 59.07(2)
Ga5 Ga5 Ga7 16_555 6_455 69.917(18)
Ga5 Ga5 Ga8 16_555 . 64.727(19)
Ga5 Ga5 Ga9 16_555 . 65.186(19)
Ga5 Ga5 Ta8 16_555 . 59.6(3)
Ga6 Ga5 Ga7 . 6_455 114.83(2)
Ga6 Ga5 Ga8 . . 95.90(3)
Ga6 Ga5 Ga9 . . 51.77(2)
Ga6 Ga5 Ta8 . . 65.0(4)
Ga7 Ga5 Ga8 6_455 . 96.41(2)
Ga7 Ga5 Ga9 6_455 . 132.29(2)
Ga7 Ga5 Ta8 6_455 . 119.3(3)
Ga8 Ga5 Ga9 . . 50.10(2)
Ga8 Ga5 Ta8 . . 33.1(4)
Ga9 Ga5 Ta8 . . 17.3(4)
Ta1 Ga6 Ta1 . 16_555 114.86(2)
Ta1 Ga6 Ta3 . . 67.847(15)
Ta1 Ga6 Ta3 . 7_555 131.57(3)
Ta1 Ga6 Ta5 . . 74.074(16)
Ta1 Ga6 Ta6 . 5_545 109.95(2)
Ta1 Ga6 Ta7 . . 67.945(14)
Ta1 Ga6 Ta7 . 16_555 165.03(3)
Ta1 Ga6 Ga4 . . 122.28(3)
Ta1 Ga6 Ga5 . . 111.18(3)
Ta1 Ga6 Ga5 . 16_555 59.670(18)
Ta1 Ga6 Ga9 . . 57.752(18)
Ta1 Ga6 Ta8 . . 61.9(3)
Ta1 Ga6 Ta9 . . 118.1(3)
Ta1 Ga6 Ta3 16_555 . 131.57(3)
Ta1 Ga6 Ta3 16_555 7_555 67.847(15)
Ta1 Ga6 Ta5 16_555 . 74.074(16)
Ta1 Ga6 Ta6 16_555 5_545 109.95(2)
Ta1 Ga6 Ta7 16_555 . 165.03(3)
Ta1 Ga6 Ta7 16_555 16_555 67.945(14)
Ta1 Ga6 Ga4 16_555 . 122.28(3)
Ta1 Ga6 Ga5 16_555 . 59.670(18)
Ta1 Ga6 Ga5 16_555 16_555 111.18(3)
Ta1 Ga6 Ga9 16_555 . 57.752(18)
Ta1 Ga6 Ta8 16_555 . 61.9(3)
Ta1 Ga6 Ta9 16_555 . 118.1(3)
Ta3 Ga6 Ta3 . 7_555 76.25(2)
Ta3 Ga6 Ta5 . . 59.920(17)
Ta3 Ga6 Ta6 . 5_545 113.825(19)
Ta3 Ga6 Ta7 . . 63.395(14)
Ta3 Ga6 Ta7 . 16_555 122.34(3)
Ta3 Ga6 Ga4 . . 69.13(2)
Ta3 Ga6 Ga5 . . 168.56(3)
Ta3 Ga6 Ga5 . 16_555 110.21(2)
Ta3 Ga6 Ga9 . . 111.19(3)
Ta3 Ga6 Ta8 . . 126.2(3)
Ta3 Ga6 Ta9 . . 53.9(3)
Ta3 Ga6 Ta5 7_555 . 59.920(17)
Ta3 Ga6 Ta6 7_555 5_545 113.825(19)
Ta3 Ga6 Ta7 7_555 . 122.34(3)
Ta3 Ga6 Ta7 7_555 16_555 63.395(14)
Ta3 Ga6 Ga4 7_555 . 69.13(2)
Ta3 Ga6 Ga5 7_555 . 110.21(2)
Ta3 Ga6 Ga5 7_555 16_555 168.56(3)
Ta3 Ga6 Ga9 7_555 . 111.19(3)
Ta3 Ga6 Ta8 7_555 . 126.2(3)
Ta3 Ga6 Ta9 7_555 . 53.9(3)
Ta5 Ga6 Ta6 . 5_545 171.32(3)
Ta5 Ga6 Ta7 . . 120.00(2)
Ta5 Ga6 Ta7 . 16_555 120.00(2)
Ta5 Ga6 Ga4 . . 113.50(3)
Ta5 Ga6 Ga5 . . 131.37(2)
Ta5 Ga6 Ga5 . 16_555 131.37(2)
Ta5 Ga6 Ga9 . . 66.94(2)
Ta5 Ga6 Ta8 . . 88.3(3)
Ta5 Ga6 Ta9 . . 91.8(2)
Ta6 Ga6 Ta7 5_545 . 56.925(12)
Ta6 Ga6 Ta7 5_545 16_555 56.925(12)
Ta6 Ga6 Ga4 5_545 . 57.82(2)
Ta6 Ga6 Ga5 5_545 . 55.191(19)
Ta6 Ga6 Ga5 5_545 16_555 55.191(19)
Ta6 Ga6 Ga9 5_545 . 121.74(4)
Ta6 Ga6 Ta8 5_545 . 100.4(3)
Ta6 Ga6 Ta9 5_545 . 79.5(2)
Ta7 Ga6 Ta7 . 16_555 105.487(18)
Ta7 Ga6 Ga4 . . 59.175(19)
Ta7 Ga6 Ga5 . . 105.39(3)
Ta7 Ga6 Ga5 . 16_555 56.440(17)
Ta7 Ga6 Ga9 . . 120.66(3)
Ta7 Ga6 Ta8 . . 110.9(3)
Ta7 Ga6 Ta9 . . 69.1(3)
Ta7 Ga6 Ga4 16_555 . 59.175(19)
Ta7 Ga6 Ga5 16_555 . 56.440(17)
Ta7 Ga6 Ga5 16_555 16_555 105.39(3)
Ta7 Ga6 Ga9 16_555 . 120.66(3)
Ta7 Ga6 Ta8 16_555 . 110.9(3)
Ta7 Ga6 Ta9 16_555 . 69.1(3)
Ga4 Ga6 Ga5 . . 103.77(3)
Ga4 Ga6 Ga5 . 16_555 103.77(3)
Ga4 Ga6 Ga9 . . 179.57(4)
Ga4 Ga6 Ta8 . . 158.2(3)
Ga4 Ga6 Ta9 . . 21.7(2)
Ga5 Ga6 Ga5 . 16_555 61.85(3)
Ga5 Ga6 Ga9 . . 75.87(3)
Ga5 Ga6 Ta8 . . 58.2(3)
Ga5 Ga6 Ta9 . . 121.7(3)
Ga5 Ga6 Ga9 16_555 . 75.87(3)
Ga5 Ga6 Ta8 16_555 . 58.2(3)
Ga5 Ga6 Ta9 16_555 . 121.7(3)
Ga9 Ga6 Ta8 . . 21.3(3)
Ga9 Ga6 Ta9 . . 158.8(2)
Ta8 Ga6 Ta9 . . 179.9(4)
Ta1 Ga7 Ta1 . 15_665 123.53(3)
Ta1 Ga7 Ta2 . . 69.854(15)
Ta1 Ga7 Ta5 . . 75.745(16)
Ta1 Ga7 Ta5 . 2_665 160.58(3)
Ta1 Ga7 Ta6 . 2_665 67.443(18)
Ta1 Ga7 Ga3 . . 57.077(16)
Ta1 Ga7 Ga3 . 8_665 126.49(3)
Ta1 Ga7 Ga5 . 6_555 41.787(13)
Ta1 Ga7 Ga5 . 11_555 81.920(19)
Ta1 Ga7 Ga7 . 2_665 108.44(2)
Ta1 Ga7 Ga7 . 8_665 110.59(2)
Ta1 Ga7 Ga9 . . 57.944(19)
Ta1 Ga7 Ga9 . 2_665 118.31(3)
Ta1 Ga7 Ta8 . . 54.3(2)
Ta1 Ga7 Ta8 . 2_665 109.9(3)
Ta1 Ga7 Ta2 15_665 . 69.854(15)
Ta1 Ga7 Ta5 15_665 . 160.58(3)
Ta1 Ga7 Ta5 15_665 2_665 75.745(16)
Ta1 Ga7 Ta6 15_665 2_665 67.443(18)
Ta1 Ga7 Ga3 15_665 . 126.49(3)
Ta1 Ga7 Ga3 15_665 8_665 57.077(16)
Ta1 Ga7 Ga5 15_665 6_555 81.920(19)
Ta1 Ga7 Ga5 15_665 11_555 41.787(13)
Ta1 Ga7 Ga7 15_665 2_665 108.44(2)
Ta1 Ga7 Ga7 15_665 8_665 110.59(2)
Ta1 Ga7 Ga9 15_665 . 118.31(3)
Ta1 Ga7 Ga9 15_665 2_665 57.944(19)
Ta1 Ga7 Ta8 15_665 . 109.9(3)
Ta1 Ga7 Ta8 15_665 2_665 54.3(2)
Ta2 Ga7 Ta5 . . 124.44(2)
Ta2 Ga7 Ta5 . 2_665 124.44(2)
Ta2 Ga7 Ta6 . 2_665 79.09(2)
Ta2 Ga7 Ga3 . . 61.15(2)
Ta2 Ga7 Ga3 . 8_665 61.15(2)
Ta2 Ga7 Ga5 . 6_555 43.182(14)
Ta2 Ga7 Ga5 . 11_555 43.182(14)
Ta2 Ga7 Ga7 . 2_665 175.25(4)
Ta2 Ga7 Ga7 . 8_665 94.75(2)
Ta2 Ga7 Ga9 . . 121.20(3)
Ta2 Ga7 Ga9 . 2_665 121.20(3)
Ta2 Ga7 Ta8 . . 111.7(2)
Ta2 Ga7 Ta8 . 2_665 111.7(2)
Ta5 Ga7 Ta5 . 2_665 84.91(2)
Ta5 Ga7 Ta6 . 2_665 124.91(2)
Ta5 Ga7 Ga3 . . 63.68(2)
Ta5 Ga7 Ga3 . 8_665 115.39(3)
Ta5 Ga7 Ga5 . 6_555 117.459(19)
Ta5 Ga7 Ga5 . 11_555 157.62(2)
Ta5 Ga7 Ga7 . 2_665 58.372(18)
Ta5 Ga7 Ga7 . 8_665 58.732(19)
Ta5 Ga7 Ga9 . . 67.92(2)
Ta5 Ga7 Ga9 . 2_665 113.20(2)
Ta5 Ga7 Ta8 . . 78.5(3)
Ta5 Ga7 Ta8 . 2_665 120.6(2)
Ta5 Ga7 Ta6 2_665 2_665 124.91(2)
Ta5 Ga7 Ga3 2_665 . 115.39(3)
Ta5 Ga7 Ga3 2_665 8_665 63.68(2)
Ta5 Ga7 Ga5 2_665 6_555 157.62(2)
Ta5 Ga7 Ga5 2_665 11_555 117.459(19)
Ta5 Ga7 Ga7 2_665 2_665 58.372(18)
Ta5 Ga7 Ga7 2_665 8_665 58.732(19)
Ta5 Ga7 Ga9 2_665 . 113.20(2)
Ta5 Ga7 Ga9 2_665 2_665 67.92(2)
Ta5 Ga7 Ta8 2_665 . 120.6(2)
Ta5 Ga7 Ta8 2_665 2_665 78.5(3)
Ta6 Ga7 Ga3 2_665 . 119.31(2)
Ta6 Ga7 Ga3 2_665 8_665 119.31(2)
Ta6 Ga7 Ga5 2_665 6_555 44.010(13)
Ta6 Ga7 Ga5 2_665 11_555 44.010(13)
Ta6 Ga7 Ga7 2_665 2_665 96.16(3)
Ta6 Ga7 Ga7 2_665 8_665 173.84(2)
Ta6 Ga7 Ga9 2_665 . 58.14(2)
Ta6 Ga7 Ga9 2_665 2_665 58.14(2)
Ta6 Ga7 Ta8 2_665 . 46.9(3)
Ta6 Ga7 Ta8 2_665 2_665 46.9(3)
Ga3 Ga7 Ga3 . 8_665 80.47(3)
Ga3 Ga7 Ga5 . 6_555 77.079(19)
Ga3 Ga7 Ga5 . 11_555 102.71(2)
Ga3 Ga7 Ga7 . 2_665 122.00(3)
Ga3 Ga7 Ga7 . 8_665 56.67(2)
Ga3 Ga7 Ga9 . . 104.99(3)
Ga3 Ga7 Ga9 . 2_665 174.53(3)
Ga3 Ga7 Ta8 . . 107.1(2)
Ga3 Ga7 Ta8 . 2_665 166.1(3)
Ga3 Ga7 Ga5 8_665 6_555 102.71(2)
Ga3 Ga7 Ga5 8_665 11_555 77.079(19)
Ga3 Ga7 Ga7 8_665 2_665 122.00(3)
Ga3 Ga7 Ga7 8_665 8_665 56.67(2)
Ga3 Ga7 Ga9 8_665 . 174.53(3)
Ga3 Ga7 Ga9 8_665 2_665 104.99(3)
Ga3 Ga7 Ta8 8_665 . 166.1(3)
Ga3 Ga7 Ta8 8_665 2_665 107.1(2)
Ga5 Ga7 Ga5 6_555 11_555 40.166(13)
Ga5 Ga7 Ga7 6_555 2_665 132.66(3)
Ga5 Ga7 Ga7 6_555 8_665 130.56(2)
Ga5 Ga7 Ga9 6_555 . 78.73(2)
Ga5 Ga7 Ga9 6_555 2_665 101.32(3)
Ga5 Ga7 Ta8 6_555 . 68.6(2)
Ga5 Ga7 Ta8 6_555 2_665 89.7(3)
Ga5 Ga7 Ga7 11_555 2_665 132.66(3)
Ga5 Ga7 Ga7 11_555 8_665 130.56(2)
Ga5 Ga7 Ga9 11_555 . 101.32(3)
Ga5 Ga7 Ga9 11_555 2_665 78.73(2)
Ga5 Ga7 Ta8 11_555 . 89.7(3)
Ga5 Ga7 Ta8 11_555 2_665 68.6(2)
Ga7 Ga7 Ga7 2_665 8_665 90.00(3)
Ga7 Ga7 Ga9 2_665 . 55.31(2)
Ga7 Ga7 Ga9 2_665 2_665 55.31(2)
Ga7 Ga7 Ta8 2_665 . 64.4(2)
Ga7 Ga7 Ta8 2_665 2_665 64.4(2)
Ga7 Ga7 Ga9 8_665 . 126.32(3)
Ga7 Ga7 Ga9 8_665 2_665 126.32(3)
Ga7 Ga7 Ta8 8_665 . 137.2(3)
Ga7 Ga7 Ta8 8_665 2_665 137.2(3)
Ga9 Ga7 Ga9 . 2_665 69.54(3)
Ga9 Ga7 Ta8 . . 11.7(3)
Ga9 Ga7 Ta8 . 2_665 67.6(2)
Ga9 Ga7 Ta8 2_665 . 67.6(2)
Ga9 Ga7 Ta8 2_665 2_665 11.7(3)
Ta8 Ga7 Ta8 . 2_665 63.2(3)
Ta2 Ga8 Ta6 6_455 . 135.51(2)
Ta2 Ga8 Ta6 6_455 2_665 135.51(2)
Ta2 Ga8 Ta7 6_455 5_555 72.834(17)
Ta2 Ga8 Ta7 6_455 11_555 72.834(17)
Ta2 Ga8 Ga2 6_455 4_555 53.82(2)
Ta2 Ga8 Ga2 6_455 5_555 53.82(2)
Ta2 Ga8 Ga4 6_455 5_555 109.47(3)
Ta2 Ga8 Ga4 6_455 6_555 109.47(3)
Ta2 Ga8 Ga5 6_455 . 54.261(16)
Ta2 Ga8 Ga5 6_455 16_555 54.261(16)
Ta2 Ga8 Ga8 6_455 2_665 158.72(4)
Ta2 Ga8 Ga9 6_455 . 113.04(3)
Ta2 Ga8 Ta8 6_455 . 103.5(4)
Ta2 Ga8 Ta8 6_455 2_665 174.5(3)
Ta2 Ga8 Ta9 6_455 3_555 97.9(3)
Ta2 Ga8 Ta9 6_455 4_555 97.9(3)
Ta6 Ga8 Ta6 . 2_665 81.06(2)
Ta6 Ga8 Ta7 . 5_555 65.065(15)
Ta6 Ga8 Ta7 . 11_555 144.96(3)
Ta6 Ga8 Ga2 . 4_555 153.95(3)
Ta6 Ga8 Ga2 . 5_555 106.75(2)
Ta6 Ga8 Ga4 . 5_555 59.97(2)
Ta6 Ga8 Ga4 . 6_555 111.84(2)
Ta6 Ga8 Ga5 . . 87.61(2)
Ta6 Ga8 Ga5 . 16_555 120.87(3)
Ta6 Ga8 Ga8 . 2_665 55.279(17)
Ta6 Ga8 Ga9 . . 58.63(2)
Ta6 Ga8 Ta8 . . 65.1(4)
Ta6 Ga8 Ta8 . 2_665 42.7(2)
Ta6 Ga8 Ta9 . 3_555 77.2(2)
Ta6 Ga8 Ta9 . 4_555 117.7(3)
Ta6 Ga8 Ta7 2_665 5_555 144.96(3)
Ta6 Ga8 Ta7 2_665 11_555 65.065(15)
Ta6 Ga8 Ga2 2_665 4_555 106.75(2)
Ta6 Ga8 Ga2 2_665 5_555 153.95(3)
Ta6 Ga8 Ga4 2_665 5_555 111.84(2)
Ta6 Ga8 Ga4 2_665 6_555 59.97(2)
Ta6 Ga8 Ga5 2_665 . 120.87(3)
Ta6 Ga8 Ga5 2_665 16_555 87.61(2)
Ta6 Ga8 Ga8 2_665 2_665 55.279(17)
Ta6 Ga8 Ga9 2_665 . 58.63(2)
Ta6 Ga8 Ta8 2_665 . 65.1(4)
Ta6 Ga8 Ta8 2_665 2_665 42.7(2)
Ta6 Ga8 Ta9 2_665 3_555 117.7(3)
Ta6 Ga8 Ta9 2_665 4_555 77.2(2)
Ta7 Ga8 Ta7 5_555 11_555 145.25(2)
Ta7 Ga8 Ga2 5_555 4_555 107.69(3)
Ta7 Ga8 Ga2 5_555 5_555 53.671(19)
Ta7 Ga8 Ga4 5_555 5_555 59.192(18)
Ta7 Ga8 Ga4 5_555 6_555 140.29(4)
Ta7 Ga8 Ga5 5_555 . 52.313(15)
Ta7 Ga8 Ga5 5_555 16_555 101.74(2)
Ta7 Ga8 Ga8 5_555 2_665 106.95(2)
Ta7 Ga8 Ga9 5_555 . 94.21(3)
Ta7 Ga8 Ta8 5_555 . 91.4(4)
Ta7 Ga8 Ta8 5_555 2_665 106.82(19)
Ta7 Ga8 Ta9 5_555 3_555 64.8(3)
Ta7 Ga8 Ta9 5_555 4_555 125.7(2)
Ta7 Ga8 Ga2 11_555 4_555 53.671(19)
Ta7 Ga8 Ga2 11_555 5_555 107.69(3)
Ta7 Ga8 Ga4 11_555 5_555 140.29(4)
Ta7 Ga8 Ga4 11_555 6_555 59.192(18)
Ta7 Ga8 Ga5 11_555 . 101.74(2)
Ta7 Ga8 Ga5 11_555 16_555 52.313(15)
Ta7 Ga8 Ga8 11_555 2_665 106.95(2)
Ta7 Ga8 Ga9 11_555 . 94.21(3)
Ta7 Ga8 Ta8 11_555 . 91.4(4)
Ta7 Ga8 Ta8 11_555 2_665 106.82(19)
Ta7 Ga8 Ta9 11_555 3_555 125.7(2)
Ta7 Ga8 Ta9 11_555 4_555 64.8(3)
Ga2 Ga8 Ga2 4_555 5_555 56.02(2)
Ga2 Ga8 Ga4 4_555 5_555 94.44(3)
Ga2 Ga8 Ga4 4_555 6_555 56.42(2)
Ga2 Ga8 Ga5 4_555 . 108.00(2)
Ga2 Ga8 Ga5 4_555 16_555 84.72(2)
Ga2 Ga8 Ga8 4_555 2_665 108.16(3)
Ga2 Ga8 Ga9 4_555 . 146.63(3)
Ga2 Ga8 Ta8 4_555 . 140.9(4)
Ga2 Ga8 Ta8 4_555 2_665 130.6(2)
Ga2 Ga8 Ta9 4_555 3_555 77.3(2)
Ga2 Ga8 Ta9 4_555 4_555 44.2(3)
Ga2 Ga8 Ga4 5_555 5_555 56.42(2)
Ga2 Ga8 Ga4 5_555 6_555 94.44(3)
Ga2 Ga8 Ga5 5_555 . 84.72(2)
Ga2 Ga8 Ga5 5_555 16_555 108.00(2)
Ga2 Ga8 Ga8 5_555 2_665 108.16(3)
Ga2 Ga8 Ga9 5_555 . 146.63(3)
Ga2 Ga8 Ta8 5_555 . 140.9(4)
Ga2 Ga8 Ta8 5_555 2_665 130.6(2)
Ga2 Ga8 Ta9 5_555 3_555 44.2(3)
Ga2 Ga8 Ta9 5_555 4_555 77.3(2)
Ga4 Ga8 Ga4 5_555 6_555 84.35(3)
Ga4 Ga8 Ga5 5_555 . 111.41(2)
Ga4 Ga8 Ga5 5_555 16_555 159.76(3)
Ga4 Ga8 Ga8 5_555 2_665 56.58(2)
Ga4 Ga8 Ga9 5_555 . 118.60(3)
Ga4 Ga8 Ta8 5_555 . 124.5(4)
Ga4 Ga8 Ta8 5_555 2_665 74.4(2)
Ga4 Ga8 Ta9 5_555 3_555 17.2(2)
Ga4 Ga8 Ta9 5_555 4_555 75.8(3)
Ga4 Ga8 Ga5 6_555 . 159.76(3)
Ga4 Ga8 Ga5 6_555 16_555 111.41(2)
Ga4 Ga8 Ga8 6_555 2_665 56.58(2)
Ga4 Ga8 Ga9 6_555 . 118.60(3)
Ga4 Ga8 Ta8 6_555 . 124.5(4)
Ga4 Ga8 Ta8 6_555 2_665 74.4(2)
Ga4 Ga8 Ta9 6_555 3_555 75.8(3)
Ga4 Ga8 Ta9 6_555 4_555 17.2(2)
Ga5 Ga8 Ga5 . 16_555 50.546(17)
Ga5 Ga8 Ga8 . 2_665 142.64(3)
Ga5 Ga8 Ga9 . . 66.00(2)
Ga5 Ga8 Ta8 . . 57.6(4)
Ga5 Ga8 Ta8 . 2_665 121.0(3)
Ga5 Ga8 Ta9 . 3_555 115.6(3)
Ga5 Ga8 Ta9 . 4_555 152.2(3)
Ga5 Ga8 Ga8 16_555 2_665 142.64(3)
Ga5 Ga8 Ga9 16_555 . 66.00(2)
Ga5 Ga8 Ta8 16_555 . 57.6(4)
Ga5 Ga8 Ta8 16_555 2_665 121.0(3)
Ga5 Ga8 Ta9 16_555 3_555 152.2(3)
Ga5 Ga8 Ta9 16_555 4_555 115.6(3)
Ga8 Ga8 Ga9 2_665 . 88.24(3)
Ga8 Ga8 Ta8 2_665 . 97.8(4)
Ga8 Ga8 Ta8 2_665 2_665 26.8(3)
Ga8 Ga8 Ta9 2_665 3_555 64.4(3)
Ga8 Ga8 Ta9 2_665 4_555 64.4(3)
Ga9 Ga8 Ta8 . . 9.6(4)
Ga9 Ga8 Ta8 . 2_665 61.5(3)
Ga9 Ga8 Ta9 . 3_555 135.8(2)
Ga9 Ga8 Ta9 . 4_555 135.8(2)
Ta8 Ga8 Ta8 . 2_665 71.0(5)
Ta8 Ga8 Ta9 . 3_555 141.5(5)
Ta8 Ga8 Ta9 . 4_555 141.5(5)
Ta8 Ga8 Ta9 2_665 3_555 86.8(3)
Ta8 Ga8 Ta9 2_665 4_555 86.8(3)
Ta9 Ga8 Ta9 3_555 4_555 63.8(4)
Ta1 Ga9 Ta1 . 16_555 129.54(3)
Ta1 Ga9 Ta5 . . 74.52(2)
Ta1 Ga9 Ta6 . . 156.71(3)
Ta1 Ga9 Ta6 . 2_665 72.699(16)
Ta1 Ga9 Ta7 . 5_555 131.73(2)
Ta1 Ga9 Ta7 . 11_555 59.466(14)
Ta1 Ga9 Ga5 . . 100.07(2)
Ta1 Ga9 Ga5 . 16_555 54.231(15)
Ta1 Ga9 Ga6 . . 65.206(19)
Ta1 Ga9 Ga7 . . 64.20(2)
Ta1 Ga9 Ga7 . 2_665 126.47(4)
Ta1 Ga9 Ga8 . . 101.94(3)
Ta1 Ga9 Ga9 . 2_665 111.48(2)
Ta1 Ga9 Ta8 . . 95.5(7)
Ta1 Ga9 Ta8 . 2_665 114.4(2)
Ta1 Ga9 Ta5 16_555 . 74.52(2)
Ta1 Ga9 Ta6 16_555 . 72.699(16)
Ta1 Ga9 Ta6 16_555 2_665 156.71(3)
Ta1 Ga9 Ta7 16_555 5_555 59.466(14)
Ta1 Ga9 Ta7 16_555 11_555 131.73(2)
Ta1 Ga9 Ga5 16_555 . 54.231(15)
Ta1 Ga9 Ga5 16_555 16_555 100.07(2)
Ta1 Ga9 Ga6 16_555 . 65.206(19)
Ta1 Ga9 Ga7 16_555 . 126.47(4)
Ta1 Ga9 Ga7 16_555 2_665 64.20(2)
Ta1 Ga9 Ga8 16_555 . 101.94(3)
Ta1 Ga9 Ga9 16_555 2_665 111.48(2)
Ta1 Ga9 Ta8 16_555 . 95.5(7)
Ta1 Ga9 Ta8 16_555 2_665 114.4(2)
Ta5 Ga9 Ta6 . . 124.02(3)
Ta5 Ga9 Ta6 . 2_665 124.02(3)
Ta5 Ga9 Ta7 . 5_555 133.732(19)
Ta5 Ga9 Ta7 . 11_555 133.732(19)
Ta5 Ga9 Ga5 . . 107.41(2)
Ta5 Ga9 Ga5 . 16_555 107.41(2)
Ta5 Ga9 Ga6 . . 61.53(3)
Ta5 Ga9 Ga7 . . 59.51(2)
Ta5 Ga9 Ga7 . 2_665 59.51(2)
Ta5 Ga9 Ga8 . . 170.26(3)
Ta5 Ga9 Ga9 . 2_665 97.99(3)
Ta5 Ga9 Ta8 . . 154.2(7)
Ta5 Ga9 Ta8 . 2_665 114.6(3)
Ta6 Ga9 Ta6 . 2_665 84.45(2)
Ta6 Ga9 Ta7 . 5_555 48.070(13)
Ta6 Ga9 Ta7 . 11_555 101.75(3)
Ta6 Ga9 Ga5 . . 88.07(2)
Ta6 Ga9 Ga5 . 16_555 122.03(3)
Ta6 Ga9 Ga6 . . 133.88(3)
Ta6 Ga9 Ga7 . . 110.63(2)
Ta6 Ga9 Ga7 . 2_665 65.63(2)
Ta6 Ga9 Ga8 . . 62.01(2)
Ta6 Ga9 Ga9 . 2_665 56.068(18)
Ta6 Ga9 Ta8 . . 73.0(7)
Ta6 Ga9 Ta8 . 2_665 47.6(2)
Ta6 Ga9 Ta7 2_665 5_555 101.75(3)
Ta6 Ga9 Ta7 2_665 11_555 48.070(13)
Ta6 Ga9 Ga5 2_665 . 122.03(3)
Ta6 Ga9 Ga5 2_665 16_555 88.07(2)
Ta6 Ga9 Ga6 2_665 . 133.88(3)
Ta6 Ga9 Ga7 2_665 . 65.63(2)
Ta6 Ga9 Ga7 2_665 2_665 110.63(2)
Ta6 Ga9 Ga8 2_665 . 62.01(2)
Ta6 Ga9 Ga9 2_665 2_665 56.068(18)
Ta6 Ga9 Ta8 2_665 . 73.0(7)
Ta6 Ga9 Ta8 2_665 2_665 47.6(2)
Ta7 Ga9 Ta7 5_555 11_555 80.884(17)
Ta7 Ga9 Ga5 5_555 . 41.247(13)
Ta7 Ga9 Ga5 5_555 16_555 78.030(19)
Ta7 Ga9 Ga6 5_555 . 92.85(2)
Ta7 Ga9 Ga7 5_555 . 157.80(3)
Ta7 Ga9 Ga7 5_555 2_665 100.81(2)
Ta7 Ga9 Ga8 5_555 . 42.677(16)
Ta7 Ga9 Ga9 5_555 2_665 102.66(2)
Ta7 Ga9 Ta8 5_555 . 40.5(7)
Ta7 Ga9 Ta8 5_555 2_665 90.1(3)
Ta7 Ga9 Ga5 11_555 . 78.030(19)
Ta7 Ga9 Ga5 11_555 16_555 41.247(13)
Ta7 Ga9 Ga6 11_555 . 92.85(2)
Ta7 Ga9 Ga7 11_555 . 100.81(2)
Ta7 Ga9 Ga7 11_555 2_665 157.80(3)
Ta7 Ga9 Ga8 11_555 . 42.677(16)
Ta7 Ga9 Ga9 11_555 2_665 102.66(2)
Ta7 Ga9 Ta8 11_555 . 40.5(7)
Ta7 Ga9 Ta8 11_555 2_665 90.1(3)
Ga5 Ga9 Ga5 . 16_555 49.628(17)
Ga5 Ga9 Ga6 . . 52.36(2)
Ga5 Ga9 Ga7 . . 160.94(3)
Ga5 Ga9 Ga7 . 2_665 117.87(2)
Ga5 Ga9 Ga8 . . 63.90(2)
Ga5 Ga9 Ga9 . 2_665 143.81(3)
Ga5 Ga9 Ta8 . . 50.0(7)
Ga5 Ga9 Ta8 . 2_665 130.9(3)
Ga5 Ga9 Ga6 16_555 . 52.36(2)
Ga5 Ga9 Ga7 16_555 . 117.87(2)
Ga5 Ga9 Ga7 16_555 2_665 160.94(3)
Ga5 Ga9 Ga8 16_555 . 63.90(2)
Ga5 Ga9 Ga9 16_555 2_665 143.81(3)
Ga5 Ga9 Ta8 16_555 . 50.0(7)
Ga5 Ga9 Ta8 16_555 2_665 130.9(3)
Ga6 Ga9 Ga7 . . 109.09(4)
Ga6 Ga9 Ga7 . 2_665 109.09(4)
Ga6 Ga9 Ga8 . . 108.72(3)
Ga6 Ga9 Ga9 . 2_665 159.52(4)
Ga6 Ga9 Ta8 . . 92.6(7)
Ga6 Ga9 Ta8 . 2_665 176.1(3)
Ga7 Ga9 Ga7 . 2_665 69.37(3)
Ga7 Ga9 Ga8 . . 127.56(3)
Ga7 Ga9 Ga9 . 2_665 55.23(2)
Ga7 Ga9 Ta8 . . 137.6(7)
Ga7 Ga9 Ta8 . 2_665 67.8(3)
Ga7 Ga9 Ga8 2_665 . 127.56(3)
Ga7 Ga9 Ga9 2_665 2_665 55.23(2)
Ga7 Ga9 Ta8 2_665 . 137.6(7)
Ga7 Ga9 Ta8 2_665 2_665 67.8(3)
Ga8 Ga9 Ga9 . 2_665 91.76(3)
Ga8 Ga9 Ta8 . . 16.1(7)
Ga8 Ga9 Ta8 . 2_665 75.2(3)
Ga9 Ga9 Ta8 2_665 . 107.9(7)
Ga9 Ga9 Ta8 2_665 2_665 16.6(3)
Ta8 Ga9 Ta8 . 2_665 91.3(8)
Ta1 Ta8 Ta1 . 16_555 109.2(6)
Ta1 Ta8 Ta2 . 6_455 105.5(4)
Ta1 Ta8 Ta6 . . 142.3(6)
Ta1 Ta8 Ta6 . 2_665 69.6(3)
Ta1 Ta8 Ta7 . 5_555 157.3(5)
Ta1 Ta8 Ta7 . 11_555 68.2(3)
Ta1 Ta8 Ga5 . . 107.1(5)
Ta1 Ta8 Ga5 . 16_555 58.0(3)
Ta1 Ta8 Ga6 . . 58.6(3)
Ta1 Ta8 Ga7 . . 51.0(3)
Ta1 Ta8 Ga7 . 2_665 94.3(5)
Ta1 Ta8 Ga8 . . 124.1(6)
Ta1 Ta8 Ga8 . 2_665 116.0(4)
Ta1 Ta8 Ga9 . . 63.8(7)
Ta1 Ta8 Ga9 . 2_665 93.4(4)
Ta1 Ta8 Ta8 . 2_665 102.8(5)
Ta1 Ta8 Ta2 16_555 6_455 105.5(4)
Ta1 Ta8 Ta6 16_555 . 69.6(3)
Ta1 Ta8 Ta6 16_555 2_665 142.3(6)
Ta1 Ta8 Ta7 16_555 5_555 68.2(3)
Ta1 Ta8 Ta7 16_555 11_555 157.3(5)
Ta1 Ta8 Ga5 16_555 . 58.0(3)
Ta1 Ta8 Ga5 16_555 16_555 107.1(5)
Ta1 Ta8 Ga6 16_555 . 58.6(3)
Ta1 Ta8 Ga7 16_555 . 94.3(5)
Ta1 Ta8 Ga7 16_555 2_665 51.0(3)
Ta1 Ta8 Ga8 16_555 . 124.1(6)
Ta1 Ta8 Ga8 16_555 2_665 116.0(4)
Ta1 Ta8 Ga9 16_555 . 63.8(7)
Ta1 Ta8 Ga9 16_555 2_665 93.4(4)
Ta1 Ta8 Ta8 16_555 2_665 102.8(5)
Ta2 Ta8 Ta6 6_455 . 111.0(5)
Ta2 Ta8 Ta6 6_455 2_665 111.0(5)
Ta2 Ta8 Ta7 6_455 5_555 56.2(3)
Ta2 Ta8 Ta7 6_455 11_555 56.2(3)
Ta2 Ta8 Ga5 6_455 . 49.6(3)
Ta2 Ta8 Ga5 6_455 16_555 49.6(3)
Ta2 Ta8 Ga6 6_455 . 91.8(3)
Ta2 Ta8 Ga7 6_455 . 154.1(4)
Ta2 Ta8 Ga7 6_455 2_665 154.1(4)
Ta2 Ta8 Ga8 6_455 . 47.9(4)
Ta2 Ta8 Ga8 6_455 2_665 103.3(5)
Ta2 Ta8 Ga9 6_455 . 157.8(10)
Ta2 Ta8 Ga9 6_455 2_665 146.6(5)
Ta2 Ta8 Ta8 6_455 2_665 130.0(6)
Ta6 Ta8 Ta6 . 2_665 88.7(4)
Ta6 Ta8 Ta7 . 5_555 59.5(3)
Ta6 Ta8 Ta7 . 11_555 127.0(6)
Ta6 Ta8 Ga5 . . 103.4(4)
Ta6 Ta8 Ga5 . 16_555 159.7(7)
Ta6 Ta8 Ga6 . . 127.4(6)
Ta6 Ta8 Ga7 . . 91.3(4)
Ta6 Ta8 Ga7 . 2_665 54.5(3)
Ta6 Ta8 Ga8 . . 77.4(5)
Ta6 Ta8 Ga8 . 2_665 46.8(2)
Ta6 Ta8 Ga9 . . 84.3(7)
Ta6 Ta8 Ga9 . 2_665 50.2(2)
Ta6 Ta8 Ta8 . 2_665 45.2(3)
Ta6 Ta8 Ta7 2_665 5_555 127.0(6)
Ta6 Ta8 Ta7 2_665 11_555 59.5(3)
Ta6 Ta8 Ga5 2_665 . 159.7(7)
Ta6 Ta8 Ga5 2_665 16_555 103.4(4)
Ta6 Ta8 Ga6 2_665 . 127.4(6)
Ta6 Ta8 Ga7 2_665 . 54.5(3)
Ta6 Ta8 Ga7 2_665 2_665 91.3(4)
Ta6 Ta8 Ga8 2_665 . 77.4(5)
Ta6 Ta8 Ga8 2_665 2_665 46.8(2)
Ta6 Ta8 Ga9 2_665 . 84.3(7)
Ta6 Ta8 Ga9 2_665 2_665 50.2(2)
Ta6 Ta8 Ta8 2_665 2_665 45.2(3)
Ta7 Ta8 Ta7 5_555 11_555 105.0(5)
Ta7 Ta8 Ga5 5_555 . 51.6(3)
Ta7 Ta8 Ga5 5_555 16_555 100.4(5)
Ta7 Ta8 Ga6 5_555 . 105.3(4)
Ta7 Ta8 Ga7 5_555 . 149.4(4)
Ta7 Ta8 Ga7 5_555 2_665 100.1(3)
Ta7 Ta8 Ga8 5_555 . 56.2(4)
Ta7 Ta8 Ga8 5_555 2_665 83.5(3)
Ta7 Ta8 Ga9 5_555 . 127.5(9)
Ta7 Ta8 Ga9 5_555 2_665 109.2(4)
Ta7 Ta8 Ta8 5_555 2_665 99.8(4)
Ta7 Ta8 Ga5 11_555 . 100.4(5)
Ta7 Ta8 Ga5 11_555 16_555 51.6(3)
Ta7 Ta8 Ga6 11_555 . 105.3(4)
Ta7 Ta8 Ga7 11_555 . 100.1(3)
Ta7 Ta8 Ga7 11_555 2_665 149.4(4)
Ta7 Ta8 Ga8 11_555 . 56.2(4)
Ta7 Ta8 Ga8 11_555 2_665 83.5(3)
Ta7 Ta8 Ga9 11_555 . 127.5(9)
Ta7 Ta8 Ga9 11_555 2_665 109.2(4)
Ta7 Ta8 Ta8 11_555 2_665 99.8(4)
Ga5 Ta8 Ga5 . 16_555 60.7(3)
Ga5 Ta8 Ga6 . . 56.7(3)
Ga5 Ta8 Ga7 . . 139.6(6)
Ga5 Ta8 Ga7 . 2_665 109.0(5)
Ga5 Ta8 Ga8 . . 89.2(6)
Ga5 Ta8 Ga8 . 2_665 134.6(6)
Ga5 Ta8 Ga9 . . 112.7(10)
Ga5 Ta8 Ga9 . 2_665 148.7(5)
Ga5 Ta8 Ta8 . 2_665 148.5(5)
Ga5 Ta8 Ga6 16_555 . 56.7(3)
Ga5 Ta8 Ga7 16_555 . 109.0(5)
Ga5 Ta8 Ga7 16_555 2_665 139.6(6)
Ga5 Ta8 Ga8 16_555 . 89.2(6)
Ga5 Ta8 Ga8 16_555 2_665 134.6(6)
Ga5 Ta8 Ga9 16_555 . 112.7(10)
Ga5 Ta8 Ga9 16_555 2_665 148.7(5)
Ga5 Ta8 Ta8 16_555 2_665 148.5(5)
Ga6 Ta8 Ga7 . . 84.3(5)
Ga6 Ta8 Ga7 . 2_665 84.3(5)
Ga6 Ta8 Ga8 . . 139.6(7)
Ga6 Ta8 Ga8 . 2_665 165.0(6)
Ga6 Ta8 Ga9 . . 66.0(8)
Ga6 Ta8 Ga9 . 2_665 121.6(6)
Ga6 Ta8 Ta8 . 2_665 138.2(7)
Ga7 Ta8 Ga7 . 2_665 51.1(2)
Ga7 Ta8 Ga8 . . 131.0(6)
Ga7 Ta8 Ga8 . 2_665 82.1(3)
Ga7 Ta8 Ga9 . . 30.7(5)
Ga7 Ta8 Ga9 . 2_665 44.59(19)
Ga7 Ta8 Ta8 . 2_665 58.4(4)
Ga7 Ta8 Ga8 2_665 . 131.0(6)
Ga7 Ta8 Ga8 2_665 2_665 82.1(3)
Ga7 Ta8 Ga9 2_665 . 30.7(5)
Ga7 Ta8 Ga9 2_665 2_665 44.59(19)
Ga7 Ta8 Ta8 2_665 2_665 58.4(4)
Ga8 Ta8 Ga8 . 2_665 55.4(4)
Ga8 Ta8 Ga9 . . 154.3(11)
Ga8 Ta8 Ga9 . 2_665 98.8(5)
Ga8 Ta8 Ta8 . 2_665 82.2(6)
Ga8 Ta8 Ga9 2_665 . 98.9(8)
Ga8 Ta8 Ga9 2_665 2_665 43.38(15)
Ga8 Ta8 Ta8 2_665 2_665 26.8(3)
Ga9 Ta8 Ga9 . 2_665 55.5(6)
Ga9 Ta8 Ta8 . 2_665 72.1(7)
Ga9 Ta8 Ta8 2_665 2_665 16.6(3)
Ta3 Ta9 Ta3 . 7_555 76.6(5)
Ta3 Ta9 Ta7 . . 56.0(3)
Ta3 Ta9 Ta7 . 7_555 106.2(4)
Ta3 Ta9 Ta7 . 10_555 56.0(3)
Ta3 Ta9 Ta7 . 16_555 106.2(4)
Ta3 Ta9 Ga2 . . 60.8(4)
Ta3 Ta9 Ga2 . 7_555 137.4(7)
Ta3 Ta9 Ga4 . . 90.3(8)
Ta3 Ta9 Ga4 . 7_555 90.3(8)
Ta3 Ta9 Ga6 . . 54.1(3)
Ta3 Ta9 Ga6 . 7_555 54.1(3)
Ta3 Ta9 Ga8 . 3_544 98.5(4)
Ta3 Ta9 Ga8 . 4_454 133.0(2)
Ta3 Ta9 Ga8 . 5_545 98.5(4)
Ta3 Ta9 Ga8 . 6_455 133.0(2)
Ta3 Ta9 Ta9 . 2_555 141.7(7)
Ta3 Ta9 Ta7 7_555 . 106.2(4)
Ta3 Ta9 Ta7 7_555 7_555 56.0(3)
Ta3 Ta9 Ta7 7_555 10_555 106.2(4)
Ta3 Ta9 Ta7 7_555 16_555 56.0(3)
Ta3 Ta9 Ga2 7_555 . 137.4(7)
Ta3 Ta9 Ga2 7_555 7_555 60.8(4)
Ta3 Ta9 Ga4 7_555 . 90.3(8)
Ta3 Ta9 Ga4 7_555 7_555 90.3(8)
Ta3 Ta9 Ga6 7_555 . 54.1(3)
Ta3 Ta9 Ga6 7_555 7_555 54.1(3)
Ta3 Ta9 Ga8 7_555 3_544 133.0(2)
Ta3 Ta9 Ga8 7_555 4_454 98.5(4)
Ta3 Ta9 Ga8 7_555 5_545 133.0(2)
Ta3 Ta9 Ga8 7_555 6_455 98.5(4)
Ta3 Ta9 Ta9 7_555 2_555 141.7(7)
Ta7 Ta9 Ta7 . 7_555 159.4(6)
Ta7 Ta9 Ta7 . 10_555 91.3(4)
Ta7 Ta9 Ta7 . 16_555 85.03(10)
Ta7 Ta9 Ga2 . . 50.3(2)
Ta7 Ta9 Ga2 . 7_555 134.1(2)
Ta7 Ta9 Ga4 . . 44.4(6)
Ta7 Ta9 Ga4 . 7_555 135.7(10)
Ta7 Ta9 Ga6 . . 52.46(18)
Ta7 Ta9 Ga6 . 7_555 110.0(5)
Ta7 Ta9 Ga8 . 3_544 109.0(5)
Ta7 Ta9 Ga8 . 4_454 155.4(6)
Ta7 Ta9 Ga8 . 5_545 43.95(14)
Ta7 Ta9 Ga8 . 6_455 82.18(11)
Ta7 Ta9 Ta9 . 2_555 100.3(4)
Ta7 Ta9 Ta7 7_555 10_555 85.03(10)
Ta7 Ta9 Ta7 7_555 16_555 91.3(4)
Ta7 Ta9 Ga2 7_555 . 134.1(2)
Ta7 Ta9 Ga2 7_555 7_555 50.3(2)
Ta7 Ta9 Ga4 7_555 . 135.7(10)
Ta7 Ta9 Ga4 7_555 7_555 44.4(6)
Ta7 Ta9 Ga6 7_555 . 110.0(5)
Ta7 Ta9 Ga6 7_555 7_555 52.46(18)
Ta7 Ta9 Ga8 7_555 3_544 82.18(11)
Ta7 Ta9 Ga8 7_555 4_454 43.95(14)
Ta7 Ta9 Ga8 7_555 5_545 155.4(6)
Ta7 Ta9 Ga8 7_555 6_455 109.0(5)
Ta7 Ta9 Ta9 7_555 2_555 100.3(4)
Ta7 Ta9 Ta7 10_555 16_555 159.4(6)
Ta7 Ta9 Ga2 10_555 . 50.3(2)
Ta7 Ta9 Ga2 10_555 7_555 134.1(2)
Ta7 Ta9 Ga4 10_555 . 135.7(10)
Ta7 Ta9 Ga4 10_555 7_555 44.4(6)
Ta7 Ta9 Ga6 10_555 . 110.0(5)
Ta7 Ta9 Ga6 10_555 7_555 52.46(18)
Ta7 Ta9 Ga8 10_555 3_544 43.95(14)
Ta7 Ta9 Ga8 10_555 4_454 82.18(11)
Ta7 Ta9 Ga8 10_555 5_545 109.0(5)
Ta7 Ta9 Ga8 10_555 6_455 155.4(6)
Ta7 Ta9 Ta9 10_555 2_555 100.3(4)
Ta7 Ta9 Ga2 16_555 . 134.1(2)
Ta7 Ta9 Ga2 16_555 7_555 50.3(2)
Ta7 Ta9 Ga4 16_555 . 44.4(6)
Ta7 Ta9 Ga4 16_555 7_555 135.7(10)
Ta7 Ta9 Ga6 16_555 . 52.46(18)
Ta7 Ta9 Ga6 16_555 7_555 110.0(5)
Ta7 Ta9 Ga8 16_555 3_544 155.4(6)
Ta7 Ta9 Ga8 16_555 4_454 109.0(5)
Ta7 Ta9 Ga8 16_555 5_545 82.18(11)
Ta7 Ta9 Ga8 16_555 6_455 43.95(14)
Ta7 Ta9 Ta9 16_555 2_555 100.3(4)
Ga2 Ta9 Ga2 . 7_555 161.8(8)
Ga2 Ta9 Ga4 . . 89.9(8)
Ga2 Ta9 Ga4 . 7_555 89.9(8)
Ga2 Ta9 Ga6 . . 96.8(5)
Ga2 Ta9 Ga6 . 7_555 96.8(5)
Ga2 Ta9 Ga8 . 3_544 59.3(3)
Ga2 Ta9 Ga8 . 4_454 110.1(4)
Ga2 Ta9 Ga8 . 5_545 59.3(3)
Ga2 Ta9 Ga8 . 6_455 110.1(4)
Ga2 Ta9 Ta9 . 2_555 80.9(5)
Ga2 Ta9 Ga4 7_555 . 89.9(8)
Ga2 Ta9 Ga4 7_555 7_555 89.9(8)
Ga2 Ta9 Ga6 7_555 . 96.8(5)
Ga2 Ta9 Ga6 7_555 7_555 96.8(5)
Ga2 Ta9 Ga8 7_555 3_544 110.1(4)
Ga2 Ta9 Ga8 7_555 4_454 59.3(3)
Ga2 Ta9 Ga8 7_555 5_545 110.1(4)
Ga2 Ta9 Ga8 7_555 6_455 59.3(3)
Ga2 Ta9 Ta9 7_555 2_555 80.9(5)
Ga4 Ta9 Ga4 . 7_555 179.3(17)
Ga4 Ta9 Ga6 . . 48.6(6)
Ga4 Ta9 Ga6 . 7_555 132.0(10)
Ga4 Ta9 Ga8 . 3_544 136.7(10)
Ga4 Ta9 Ga8 . 4_454 136.7(10)
Ga4 Ta9 Ga8 . 5_545 42.8(6)
Ga4 Ta9 Ga8 . 6_455 42.8(6)
Ga4 Ta9 Ta9 . 2_555 89.7(8)
Ga4 Ta9 Ga6 7_555 . 132.0(10)
Ga4 Ta9 Ga6 7_555 7_555 48.6(6)
Ga4 Ta9 Ga8 7_555 3_544 42.8(6)
Ga4 Ta9 Ga8 7_555 4_454 42.8(6)
Ga4 Ta9 Ga8 7_555 5_545 136.7(10)
Ga4 Ta9 Ga8 7_555 6_455 136.7(10)
Ga4 Ta9 Ta9 7_555 2_555 89.7(8)
Ga6 Ta9 Ga6 . 7_555 83.4(4)
Ga6 Ta9 Ga8 . 3_544 151.7(6)
Ga6 Ta9 Ga8 . 4_454 151.7(6)
Ga6 Ta9 Ga8 . 5_545 84.75(13)
Ga6 Ta9 Ga8 . 6_455 84.75(13)
Ga6 Ta9 Ta9 . 2_555 138.3(2)
Ga6 Ta9 Ga8 7_555 3_544 84.75(13)
Ga6 Ta9 Ga8 7_555 4_454 84.75(13)
Ga6 Ta9 Ga8 7_555 5_545 151.7(6)
Ga6 Ta9 Ga8 7_555 6_455 151.7(6)
Ga6 Ta9 Ta9 7_555 2_555 138.3(2)
Ga8 Ta9 Ga8 3_544 4_454 51.19(14)
Ga8 Ta9 Ga8 3_544 5_545 93.9(4)
Ga8 Ta9 Ga8 3_544 6_455 116.2(5)
Ga8 Ta9 Ta9 3_544 2_555 58.1(3)
Ga8 Ta9 Ga8 4_454 5_545 116.2(5)
Ga8 Ta9 Ga8 4_454 6_455 93.9(4)
Ga8 Ta9 Ta9 4_454 2_555 58.1(3)
Ga8 Ta9 Ga8 5_545 6_455 51.19(14)
Ga8 Ta9 Ta9 5_545 2_555 58.1(3)
Ga8 Ta9 Ta9 6_455 2_555 58.1(3)
loop_
_geom_bond_atom_site_label_1
_geom_bond_atom_site_label_2
_geom_bond_site_symmetry_2
_geom_bond_distance
Ta1 Ta2 . 3.1758(3)
Ta1 Ta3 . 3.1223(3)
Ta1 Ta4 . 3.0097(2)
Ta1 Ta5 . 3.4975(3)
Ta1 Ta6 2_665 3.1789(3)
Ta1 Ta7 . 3.2686(3)
Ta1 Ta7 2_655 3.5517(3)
Ta1 Ta7 11_555 3.4881(3)
Ta1 Ga1 . 2.7061(4)
Ta1 Ga3 . 2.6469(4)
Ta1 Ga5 6_555 2.6509(6)
Ta1 Ga5 16_555 2.7429(6)
Ta1 Ga6 . 2.8487(6)
Ta1 Ga7 . 2.8193(6)
Ta1 Ga9 . 2.6539(6)
Ta1 Ta8 . 2.945(15)
Ta2 Ta2 8_665 3.4386(4)
Ta2 Ta6 2_665 3.5881(4)
Ta2 Ta7 2_655 3.2094(3)
Ta2 Ta7 16_655 3.2094(3)
Ta2 Ga2 2_655 2.7475(7)
Ta2 Ga2 7_655 2.7475(7)
Ta2 Ga3 . 2.7690(7)
Ta2 Ga3 8_665 2.7690(7)
Ta2 Ga5 6_555 2.7237(6)
Ta2 Ga5 11_555 2.7237(6)
Ta2 Ga7 . 2.7260(6)
Ta2 Ga8 6_555 2.6988(7)
Ta2 Ta8 6_555 3.540(17)
Ta3 Ta3 7_555 3.3880(4)
Ta3 Ta5 . 2.8524(4)
Ta3 Ta7 . 3.0238(3)
Ta3 Ta7 10_555 3.0238(3)
Ta3 Ga1 . 2.8036(5)
Ta3 Ga1 9_655 2.8036(5)
Ta3 Ga2 . 2.7246(9)
Ta3 Ga3 . 2.7808(8)
Ta3 Ga4 . 3.0171(7)
Ta3 Ga4 7_555 3.0171(7)
Ta3 Ga6 . 2.7437(8)
Ta3 Ga6 7_555 2.7437(8)
Ta3 Ta9 . 2.734(18)
Ta4 Ta7 . 2.9415(2)
Ta4 Ta7 2_655 2.9415(2)
Ta4 Ta7 11_555 2.9415(2)
Ta4 Ta7 12_545 2.9415(2)
Ta4 Ga1 . 2.9283(9)
Ta4 Ga1 11_555 2.9283(9)
Ta4 Ga5 5_545 2.8092(5)
Ta4 Ga5 6_555 2.8092(5)
Ta4 Ga5 15_655 2.8092(5)
Ta4 Ga5 16_555 2.8092(5)
Ta5 Ta5 2_665 3.8843(4)
Ta5 Ga3 . 2.9551(9)
Ta5 Ga3 7_555 2.9551(9)
Ta5 Ga6 . 2.9562(8)
Ta5 Ga6 7_555 2.9562(8)
Ta5 Ga7 . 2.8774(7)
Ta5 Ga7 2_665 2.8774(7)
Ta5 Ga7 7_555 2.8774(7)
Ta5 Ga7 8_665 2.8774(7)
Ta5 Ga9 . 3.0941(9)
Ta5 Ga9 7_555 3.0941(9)
Ta6 Ta6 2_665 3.6410(3)
Ta6 Ta7 5_555 2.9636(3)
Ta6 Ta7 12_555 2.9636(3)
Ta6 Ga4 5_555 2.8490(9)
Ta6 Ga5 5_555 2.7604(6)
Ta6 Ga5 12_555 2.7604(6)
Ta6 Ga6 5_555 3.2094(7)
Ta6 Ga7 2_665 2.9054(9)
Ta6 Ga8 . 2.8015(7)
Ta6 Ga8 2_665 2.8015(7)
Ta6 Ga9 . 2.7089(7)
Ta6 Ga9 2_665 2.7089(7)
Ta6 Ta8 . 2.604(13)
Ta6 Ta8 2_665 2.604(13)
Ta7 Ga1 . 2.6730(5)
Ta7 Ga2 . 2.7430(4)
Ta7 Ga3 2_655 4.0082(7)
Ta7 Ga4 . 2.7727(7)
Ta7 Ga5 5_545 2.6385(6)
Ta7 Ga5 16_555 2.6890(6)
Ta7 Ga6 . 2.9966(6)
Ta7 Ga8 5_545 2.7073(6)
Ta7 Ga9 5_545 3.9830(8)
Ta7 Ta8 5_545 3.257(15)
Ta7 Ta9 . 3.529(13)
Ga1 Ga1 9_655 2.6343(13)
Ga1 Ga2 . 3.3294(9)
Ga1 Ga2 2_655 3.3294(9)
Ga1 Ga3 . 3.0065(8)
Ga1 Ga3 2_655 3.0065(8)
Ga1 Ga5 5_545 3.9342(8)
Ga1 Ga5 6_555 3.9342(8)
Ga2 Ga2 8_555 3.0686(12)
Ga2 Ga3 2_655 2.7813(12)
Ga2 Ga4 . 2.9320(10)
Ga2 Ga4 7_555 2.9320(10)
Ga2 Ga8 3_544 3.2673(10)
Ga2 Ga8 5_545 3.2673(10)
Ga2 Ta9 . 2.647(18)
Ga3 Ga3 8_665 3.5115(12)
Ga3 Ga7 . 2.7180(10)
Ga3 Ga7 8_665 2.7180(10)
Ga4 Ga4 2_555 3.8898(8)
Ga4 Ga4 7_555 2.5251(12)
Ga4 Ga5 . 4.1088(9)
Ga4 Ga5 16_555 4.1088(9)
Ga4 Ga6 . 2.5679(9)
Ga4 Ga8 5_545 2.8969(9)
Ga4 Ga8 6_455 2.8969(9)
Ga4 Ta9 . 1.2626(9)
Ga5 Ga5 11_455 3.9799(8)
Ga5 Ga5 12_555 3.9799(8)
Ga5 Ga5 16_555 2.7281(8)
Ga5 Ga6 . 2.6541(10)
Ga5 Ga7 6_455 3.9724(9)
Ga5 Ga8 . 3.1950(9)
Ga5 Ga9 . 3.2502(8)
Ga5 Ta8 . 2.699(13)
Ga6 Ga9 . 2.6330(9)
Ga6 Ta8 . 2.878(16)
Ga6 Ta9 . 3.221(14)
Ga7 Ga7 2_665 3.0178(8)
Ga7 Ga7 8_665 2.9870(12)
Ga7 Ga9 . 2.6514(10)
Ga7 Ga9 2_665 2.6514(10)
Ga7 Ta8 . 3.497(16)
Ga7 Ta8 2_665 3.497(16)
Ga8 Ga8 2_665 3.1914(8)
Ga8 Ga9 . 2.7293(13)
Ga8 Ta8 . 1.747(19)
Ga8 Ta8 2_665 3.841(14)
Ga8 Ta9 3_555 3.694(12)
Ga8 Ta9 4_555 3.694(12)
Ga9 Ga9 2_665 3.0242(8)
Ga9 Ta8 . 1.048(19)
Ga9 Ta8 2_665 3.491(13)
Ta8 Ta8 2_665 3.667(18)
Ta9 Ta9 2_555 3.90(3)
loop_
_refln_index_h
_refln_index_k
_refln_index_l
_refln_F_squared_calc
_refln_F_squared_meas
_refln_F_squared_sigma
_refln_observed_status
1 1 0 147106. 158529. 1415. o
0 2 0 18211. 20037. 403. o
1 2 0 23580. 21045. 302. o
2 2 0 273964. 265147. 2424. o
1 3 0 6241. 8455. 201. o
2 3 0 21683. 20638. 403. o
3 3 0 249760. 248333. 2320. o
0 4 0 562291. 596259. 4654. o
1 4 0 86444. 85720. 705. o
2 4 0 330237. 340201. 2018. o
3 4 0 3497. 2718. 302. o
4 4 0 10172300. 10134700. 76882. o
1 5 0 8180530. 8349530. 42145. o
2 5 0 95809. 94069. 806. o
3 5 0 656. 1610. 302. o
4 5 0 11092. 11274. 403. o
5 5 0 668804. 657098. 5958. o
0 6 0 105755. 113003. 1410. o
1 6 0 81319. 78748. 806. o
2 6 0 2745. 3926. 302. o
3 6 0 58782. 59403. 705. o
4 6 0 147021. 148165. 1209. o
5 6 0 32214. 33522. 604. o
6 6 0 5219350. 5137880. 43570. o
1 7 0 32467. 34026. 604. o
2 7 0 17401. 15602. 403. o
3 7 0 1883390. 1884440. 10354. o
4 7 0 4177. 4630. 403. o
5 7 0 117368. 113891. 1309. o
6 7 0 69127. 69569. 1208. o
7 7 0 388806. 389333. 4636. o
0 8 0 2382660. 2391200. 17997. o
1 8 0 30904. 31106. 604. o
2 8 0 941823. 946592. 5456. o
3 8 0 41770. 43993. 805. o
4 8 0 2521. 3120. 403. o
5 8 0 106701. 105826. 1410. o
6 8 0 456594. 446976. 3831. o
7 8 0 20757. 19528. 805. o
8 8 0 112719. 112869. 2316. o
1 9 0 209. 1610. 403. o
2 9 0 20739. 21441. 604. o
3 9 0 1247640. 1226920. 7582. o
4 9 0 5822. 7146. 604. o
5 9 0 3214410. 3193360. 20136. o
6 9 0 79521. 78830. 1409. o
7 9 0 33269. 32715. 1007. o
8 9 0 3101. 3322. 604. o
9 9 0 153409. 151744. 2920. o
0 10 0 1937000. 1911910. 17830. o
1 10 0 11048. 11274. 604. o
2 10 0 1692840. 1681700. 10931. o
3 10 0 44728. 44394. 1007. o
4 10 0 147338. 148228. 1813. o
5 10 0 68818. 68357. 1309. o
6 10 0 312581. 308673. 3022. o
7 10 0 2378. 2315. 604. o
8 10 0 90247. 90206. 1712. o
9 10 0 19024. 19326. 1007. o
10 10 0 4769380. 4769130. 46212. o
1 11 0 1114. 1812. 604. <
2 11 0 39846. 39763. 1107. o
3 11 0 360. 1208. 604. <
4 11 0 79816. 78930. 1510. o
5 11 0 1579460. 1576450. 10917. o
6 11 0 28. 403. 604. <
7 11 0 19189. 19427. 906. o
8 11 0 29111. 29292. 1208. o
9 11 0 140027. 143881. 2215. o
10 11 0 60750. 59997. 1711. o
11 11 0 74. 7247. 1409. o
0 12 0 625873. 625324. 7461. o
1 12 0 175399. 173911. 2215. o
2 12 0 1393220. 1380320. 10305. o
3 12 0 7869. 8254. 805. o
4 12 0 81743. 81043. 1711. o
5 12 0 5627. 5536. 805. o
6 12 0 183204. 183573. 2517. o
7 12 0 104402. 106819. 2014. o
8 12 0 255989. 260847. 3223. o
9 12 0 99. 101. 805. <
10 12 0 46990. 46406. 1611. o
11 12 0 1795. 705. 1007. <
12 12 0 21466. 35431. 2315. o
1 13 0 314295. 311568. 3425. o
2 13 0 2249. 1208. 705. <
3 13 0 844392. 844436. 7161. o
4 13 0 503. 2214. 805. <
5 13 0 618. 2013. 906. <
6 13 0 95432. 102890. 2316. o
7 13 0 165. 1711. 906. <
8 13 0 17362. 16910. 1208. o
9 13 0 142208. 146395. 2618. o
10 13 0 591. 101. 1007. <
11 13 0 11803. 12280. 1309. o
12 13 0 2. -1007. 1610. <
0 14 0 136009. 141866. 3826. o
1 14 0 22364. 22648. 1409. o
2 14 0 143153. 141465. 2517. o
3 14 0 1090. 2919. 906. o
4 14 0 609570. 607695. 6149. o
5 14 0 17. -1107. 906. <
6 14 0 1187910. 1194920. 11606. o
7 14 0 95558. 96144. 2416. o
8 14 0 15718. 19225. 1409. o
9 14 0 12018. 12179. 1409. o
10 14 0 278975. 278975. 4129. o
11 14 0 87831. 82652. 6443. o
1 15 0 997304. 993072. 9987. o
2 15 0 20120. 17514. 1409. o
3 15 0 151663. 159992. 3021. o
4 15 0 2870. 2516. 1208. <
5 15 0 369498. 369194. 4936. o
6 15 0 1097. 3020. 1308. <
7 15 0 11348. 9965. 1309. o
8 15 0 16940. 13790. 1409. o
9 15 0 1161290. 1144740. 11402. o
10 15 0 26. 9361. 5838. <
0 16 0 195570. 186590. 4733. o
1 16 0 40258. 38654. 1913. o
2 16 0 185033. 179738. 3625. o
3 16 0 164420. 171574. 3725. o
4 16 0 551885. 548107. 6853. o
5 16 0 5544. 4127. 1308. o
6 16 0 13480. 13588. 1510. o
7 16 0 8097. 9965. 1409. o
8 16 0 83054. 75503. 5839. o
1 17 0 121186. 122828. 3322. o
2 17 0 108934. 108328. 3322. o
3 17 0 30152. 24561. 2114. o
4 17 0 25610. 22246. 1913. o
5 17 0 24673. 21138. 2919. o
6 17 0 297. 503. 3724. <
0 18 0 89162. 103894. 11175. o
1 18 0 112. -906. 4227. <
2 18 0 34. -1912. 4026. <
0 1 1 25291. 20247. 302. o
1 1 1 7926. 10470. 201. o
1 2 1 5100. 5033. 101. o
2 2 1 27576. 30206. 403. o
0 3 1 77. -101. 201. <
1 3 1 259224. 262863. 1211. o
2 3 1 26. -705. 101. <
3 3 1 19210. 21644. 403. o
1 4 1 9261. 8657. 201. o
2 4 1 31598. 32318. 302. o
3 4 1 4427. 4630. 201. o
4 4 1 7933. 8657. 302. o
0 5 1 31058. 27283. 503. o
1 5 1 714667. 717767. 2832. o
2 5 1 23446. 23355. 302. o
3 5 1 31863. 34128. 403. o
4 5 1 11234. 10167. 302. o
5 5 1 3997. 4731. 403. o
1 6 1 18072. 17918. 302. o
2 6 1 13587. 14193. 302. o
3 6 1 324. 604. 201. o
4 6 1 12437. 13690. 302. o
5 6 1 20213. 19025. 403. o
6 6 1 5824. 6643. 503. o
0 7 1 1491. 2114. 302. o
1 7 1 111325. 113195. 705. o
2 7 1 1141. 705. 201. o
3 7 1 98233. 98784. 705. o
4 7 1 10269. 10267. 302. o
5 7 1 192348. 187356. 1209. o
6 7 1 5957. 6543. 403. o
7 7 1 20729. 21038. 805. o
1 8 1 701. 1208. 201. o
2 8 1 237762. 237874. 1310. o
3 8 1 10362. 10368. 302. o
4 8 1 199205. 200550. 1309. o
5 8 1 9115. 8455. 403. o
6 8 1 20069. 20233. 503. o
7 8 1 28385. 27984. 604. o
8 8 1 74. 1007. 604. <
0 9 1 5648. 5234. 403. o
1 9 1 166684. 167389. 1108. o
2 9 1 19153. 19629. 403. o
3 9 1 33284. 33421. 604. o
4 9 1 1778. 2013. 302. o
5 9 1 327889. 320616. 2015. o
6 9 1 16232. 17112. 604. o
7 9 1 980. 906. 403. <
8 9 1 77. 201. 403. <
9 9 1 77409. 81243. 1611. o
1 10 1 19972. 20434. 503. o
2 10 1 24363. 26474. 604. o
3 10 1 196. 201. 302. <
4 10 1 136231. 133622. 1208. o
5 10 1 31283. 31004. 705. o
6 10 1 198253. 195980. 1611. o
7 10 1 2430. 3020. 503. o
8 10 1 4247. 5838. 503. o
9 10 1 331. 403. 503. <
10 10 1 2887. 4227. 906. o
0 11 1 123039. 119620. 1611. o
1 11 1 293756. 287516. 1914. o
2 11 1 587. 805. 403. <
3 11 1 54357. 57180. 906. o
4 11 1 1768. 1107. 403. <
5 11 1 234709. 231952. 1813. o
6 11 1 649. 1208. 503. <
7 11 1 61647. 62012. 1107. o
8 11 1 113. 403. 503. <
9 11 1 8827. 8656. 604. o
10 11 1 461. 503. 604. <
11 11 1 179869. 175810. 2719. o
1 12 1 18046. 20232. 705. o
2 12 1 39084. 38756. 906. o
3 12 1 12136. 12179. 604. o
4 12 1 69. -201. 503. <
5 12 1 10444. 10468. 604. o
6 12 1 315939. 312671. 2518. o
7 12 1 238. -805. 503. <
8 12 1 135375. 136528. 1611. o
9 12 1 5964. 5536. 705. o
10 12 1 820. 1308. 604. <
11 12 1 21003. 21843. 906. o
12 12 1 47056. 46204. 1812. o
0 13 1 1412. 604. 805. <
1 13 1 9387. 9562. 705. o
2 13 1 13526. 13891. 705. o
3 13 1 33838. 35232. 906. o
4 13 1 2846. 2416. 604. o
5 13 1 3896. 4731. 705. o
6 13 1 2167. 2013. 705. <
7 13 1 18930. 18420. 906. o
8 13 1 3976. 5435. 705. o
9 13 1 175790. 175405. 2014. o
10 13 1 4312. 4127. 705. o
11 13 1 58276. 56675. 1409. o
12 13 1 14382. 13790. 1510. o
1 14 1 14214. 13991. 805. o
2 14 1 165706. 165337. 1913. o
3 14 1 10129. 9361. 705. o
4 14 1 39243. 41070. 1208. o
5 14 1 1026. 2516. 705. o
6 14 1 22553. 22648. 1007. o
7 14 1 9216. 8958. 906. o
8 14 1 57481. 59292. 1409. o
9 14 1 15338. 15904. 1007. o
10 14 1 1064. 805. 805. <
11 14 1 15308. 13790. 2718. o
0 15 1 15. -1007. 1007. <
1 15 1 145540. 139853. 2014. o
2 15 1 423. 503. 705. <
3 15 1 165073. 166340. 2215. o
4 15 1 21599. 21843. 1107. o
5 15 1 3967. 5435. 906. o
6 15 1 2119. 805. 805. <
7 15 1 45711. 47211. 1409. o
8 15 1 2567. 1208. 906. <
9 15 1 38434. 37245. 1409. o
10 15 1 15937. 9864. 5637. <
1 16 1 16523. 17112. 1107. o
2 16 1 185975. 182357. 2618. o
3 16 1 7348. 8153. 1007. o
4 16 1 31196. 32010. 1409. o
5 16 1 20738. 22044. 1309. o
6 16 1 1406. 1409. 906. <
7 16 1 43137. 42580. 1409. o
8 16 1 3675. 4831. 2516. <
0 17 1 2843. 3120. 1409. <
1 17 1 782. 1610. 1007. <
2 17 1 2261. 2114. 1107. <
3 17 1 5958. 6643. 1107. o
4 17 1 30. 2919. 1107. <
5 17 1 11734. 14192. 1610. o
6 17 1 16251. 13790. 2818. o
1 18 1 419. -1812. 3825. <
2 18 1 46897. 46204. 6845. o
0 0 2 109895. 113261. 1716. o
1 1 2 22. -705. 201. <
0 2 2 204094. 210303. 1514. o
1 2 2 65160. 59540. 403. o
2 2 2 13808. 15906. 302. o
1 3 2 29392. 30809. 302. o
2 3 2 91722. 89255. 504. o
3 3 2 74839. 77146. 705. o
0 4 2 72296. 74831. 705. o
1 4 2 832. -3624. 201. <
2 4 2 6364. 6341. 201. o
3 4 2 21243. 20234. 302. o
4 4 2 17176. 17918. 403. o
1 5 2 537325. 550340. 2424. o
2 5 2 38880. 38056. 403. o
3 5 2 18457. 18623. 302. o
4 5 2 2326. 2416. 201. o
5 5 2 249925. 250322. 1814. o
0 6 2 311663. 314192. 2017. o
1 6 2 6600. 5838. 201. o
2 6 2 145121. 146162. 907. o
3 6 2 96510. 93955. 705. o
4 6 2 580896. 577914. 2523. o
5 6 2 27052. 27582. 503. o
6 6 2 21430. 23957. 705. o
1 7 2 184. 906. 201. o
2 7 2 220945. 219347. 1108. o
3 7 2 11846. 12784. 302. o
4 7 2 93. 0. 201. <
5 7 2 13152. 13086. 403. o
6 7 2 110762. 110561. 1007. o
7 7 2 356655. 352604. 3124. o
0 8 2 28989. 30602. 604. o
1 8 2 4327. 4328. 302. o
2 8 2 10891. 12079. 302. o
3 8 2 9301. 10066. 302. o
4 8 2 61004. 62520. 705. o
5 8 2 4833. 5435. 302. o
6 8 2 65926. 65439. 906. o
7 8 2 13129. 12783. 503. o
8 8 2 7219. 8455. 705. o
1 9 2 3645. 5234. 302. o
2 9 2 51691. 49933. 604. o
3 9 2 34809. 35736. 604. o
4 9 2 28102. 27380. 503. o
5 9 2 200427. 198615. 1511. o
6 9 2 8083. 8153. 503. o
7 9 2 38324. 39058. 805. o
8 9 2 2870. 2818. 503. o
9 9 2 100989. 100276. 1712. o
0 10 2 1228280. 1217790. 7479. o
1 10 2 55318. 56275. 705. o
2 10 2 3019. 4328. 403. o
3 10 2 82641. 83664. 906. o
4 10 2 4980. 5939. 403. o
5 10 2 6864. 6543. 503. o
6 10 2 10411. 11877. 503. o
7 10 2 71745. 73390. 1107. o
8 10 2 220895. 223778. 1813. o
9 10 2 51201. 50937. 1007. o
10 10 2 30320. 32010. 1309. o
1 11 2 40873. 41474. 805. o
2 11 2 95974. 95748. 1107. o
3 11 2 55702. 56677. 906. o
4 11 2 24442. 25266. 705. o
5 11 2 199715. 201516. 1712. o
6 11 2 235701. 241918. 1914. o
7 11 2 37256. 37950. 906. o
8 11 2 2651. 2315. 503. o
9 11 2 52060. 51742. 1107. o
10 11 2 87877. 88693. 1409. o
11 11 2 8. -403. 906. <
0 12 2 36377. 39762. 1208. o
1 12 2 36594. 36339. 805. o
2 12 2 20974. 20836. 705. o
3 12 2 22255. 20836. 705. o
4 12 2 66967. 68657. 1208. o
5 12 2 65410. 67348. 1208. o
6 12 2 40266. 40668. 1007. o
7 12 2 7617. 8052. 604. o
8 12 2 61532. 61910. 1208. o
9 12 2 3602. 1812. 604. <
10 12 2 21069. 21138. 906. o
11 12 2 66726. 66642. 1409. o
12 12 2 1342. 3120. 1107. <
1 13 2 3216. 3523. 604. o
2 13 2 4679. 4529. 604. o
3 13 2 8258. 8958. 705. o
4 13 2 15808. 16407. 805. o
5 13 2 9277. 10569. 805. o
6 13 2 802. 1208. 604. <
7 13 2 67504. 70468. 1409. o
8 13 2 4313. 4932. 705. o
9 13 2 20337. 22245. 1007. o
10 13 2 2603. 3120. 705. o
11 13 2 82073. 79429. 1611. o
12 13 2 239. -503. 1308. <
0 14 2 50241. 54460. 1812. o
1 14 2 2209. 1912. 604. o
2 14 2 32261. 31607. 1007. o
3 14 2 26375. 28084. 1007. o
4 14 2 357924. 355700. 3022. o
5 14 2 876. 1208. 705. <
6 14 2 420. 302. 705. <
7 14 2 42277. 45298. 1309. o
8 14 2 2710. 3422. 805. o
9 14 2 24521. 21541. 1107. o
10 14 2 55815. 48822. 1409. o
11 14 2 4664. 5536. 2718. <
1 15 2 84104. 86075. 1711. o
2 15 2 150236. 154756. 2014. o
3 15 2 75832. 77012. 1611. o
4 15 2 47082. 48318. 1409. o
5 15 2 895. 2818. 805. o
6 15 2 41365. 40064. 1309. o
7 15 2 2057. 3624. 906. o
8 15 2 74233. 73287. 1711. o
9 15 2 259496. 256102. 3122. o
0 16 2 1361. 2114. 1208. <
1 16 2 72781. 76005. 1913. o
2 16 2 6861. 6643. 1007. o
3 16 2 71755. 71877. 1812. o
4 16 2 78. -403. 906. <
5 16 2 12424. 12582. 1007. o
6 16 2 81572. 84664. 1812. o
7 16 2 54784. 55265. 1611. o
8 16 2 4349. 4630. 2214. <
1 17 2 32764. 32010. 1510. o
2 17 2 530. 403. 1107. <
3 17 2 150047. 148309. 2819. o
4 17 2 43. -403. 1007. <
5 17 2 1111. 1409. 1510. <
6 17 2 9765. 6140. 3624. <
0 18 2 182515. 171982. 9163. o
1 18 2 6268. 3221. 3724. <
2 18 2 21021. 15703. 6643. <
0 1 3 25983. 23462. 403. o
1 1 3 66469. 60047. 705. o
1 2 3 784. 1007. 201. o
2 2 3 12017. 13791. 302. o
0 3 3 7578. 6744. 201. o
1 3 3 181. -604. 201. <
2 3 3 1459. 1711. 201. o
3 3 3 543620. 547381. 3234. o
1 4 3 92086. 90048. 604. o
2 4 3 118849. 120081. 705. o
3 4 3 21463. 21140. 302. o
4 4 3 427670. 425715. 2624. o
0 5 3 114632. 111406. 1007. o
1 5 3 839241. 843071. 3441. o
2 5 3 791. -201. 201. <
3 5 3 21952. 22952. 302. o
4 5 3 14165. 14092. 302. o
5 5 3 76805. 75920. 906. o
1 6 3 4061. 3825. 201. o
2 6 3 110661. 111689. 705. o
3 6 3 17087. 16710. 302. o
4 6 3 36569. 36845. 503. o
5 6 3 60000. 60508. 604. o
6 6 3 249974. 244018. 2015. o
0 7 3 21493. 20133. 503. o
1 7 3 94510. 95864. 705. o
2 7 3 5325. 5536. 302. o
3 7 3 21458. 22347. 403. o
4 7 3 22670. 22246. 403. o
5 7 3 18968. 19729. 403. o
6 7 3 48818. 48020. 705. o
7 7 3 2692. 3221. 503. o
1 8 3 7786. 7348. 302. o
2 8 3 153437. 154597. 1007. o
3 8 3 96948. 96159. 806. o
4 8 3 38989. 39160. 604. o
5 8 3 15910. 15501. 403. o
6 8 3 125604. 124257. 1108. o
7 8 3 107. 201. 403. <
8 8 3 349732. 347702. 3224. o
0 9 3 8920. 9260. 503. o
1 9 3 18879. 19427. 403. o
2 9 3 24310. 24863. 503. o
3 9 3 84640. 85781. 805. o
4 9 3 12561. 12683. 403. o
5 9 3 14814. 15703. 503. o
6 9 3 1824. 2013. 403. o
7 9 3 144. 302. 403. <
8 9 3 60759. 62012. 1007. o
9 9 3 492716. 484551. 4434. o
1 10 3 54438. 54262. 705. o
2 10 3 134294. 132717. 1108. o
3 10 3 5569. 5435. 403. o
4 10 3 13687. 14998. 503. o
5 10 3 8803. 8958. 503. o
6 10 3 24022. 25467. 705. o
7 10 3 10870. 10066. 604. o
8 10 3 26319. 27782. 805. o
9 10 3 40525. 39359. 906. o
10 10 3 5949. 6543. 906. o
0 11 3 1197. 1812. 503. o
1 11 3 139546. 139764. 1208. o
2 11 3 11148. 10972. 503. o
3 11 3 15867. 16407. 604. o
4 11 3 19719. 19326. 604. o
5 11 3 2285. 2919. 503. o
6 11 3 2527. 2718. 503. o
7 11 3 264653. 259152. 2115. o
8 11 3 7856. 8556. 604. o
9 11 3 20288. 19427. 805. o
10 11 3 35665. 34527. 1007. o
11 11 3 52137. 50131. 1711. o
1 12 3 46736. 47414. 906. o
2 12 3 283256. 285366. 2317. o
3 12 3 17584. 17313. 705. o
4 12 3 153294. 152348. 1611. o
5 12 3 66614. 65637. 1208. o
6 12 3 9439. 9864. 705. o
7 12 3 713. 1308. 604. <
8 12 3 5475. 5737. 705. o
9 12 3 8270. 7549. 705. o
10 12 3 56388. 55970. 1309. o
11 12 3 4473. 3926. 705. o
12 12 3 419. 403. 1007. <
0 13 3 36371. 36238. 1309. o
1 13 3 66986. 68858. 1208. o
2 13 3 18631. 16910. 805. o
3 13 3 13376. 14293. 805. o
4 13 3 17673. 18118. 906. o
5 13 3 61955. 63622. 1309. o
6 13 3 60875. 59494. 1208. o
7 13 3 9847. 10166. 805. o
8 13 3 69. 403. 705. <
9 13 3 149207. 149519. 1913. o
10 13 3 8424. 7348. 805. o
11 13 3 7446. 7750. 906. o
12 13 3 4803. 2919. 1510. <
1 14 3 9751. 9361. 805. o
2 14 3 10976. 10871. 805. o
3 14 3 5327. 4429. 705. o
4 14 3 94008. 97856. 1711. o
5 14 3 8315. 8958. 805. o
6 14 3 103829. 104099. 1712. o
7 14 3 37812. 38654. 1208. o
8 14 3 161141. 159893. 2114. o
9 14 3 61628. 60802. 1510. o
10 14 3 41092. 41775. 1309. o
11 14 3 13030. 13286. 3020. o
0 15 3 72514. 73187. 2315. o
1 15 3 80338. 84966. 1812. o
2 15 3 2928. 2919. 805. o
3 15 3 39608. 41070. 1309. o
4 15 3 575. 503. 805. <
5 15 3 82444. 84765. 1812. o
6 15 3 3933. 3422. 805. o
7 15 3 324. -705. 805. <
8 15 3 3527. 5133. 906. o
9 15 3 92977. 92820. 2416. o
1 16 3 32159. 33318. 1409. o
2 16 3 575. 101. 906. <
3 16 3 4043. 4026. 1007. o
4 16 3 32644. 32312. 1309. o
5 16 3 19938. 20232. 1208. o
6 16 3 379102. 373726. 3929. o
7 16 3 19412. 17313. 1510. o
8 16 3 24691. 21843. 2718. o
0 17 3 174. -503. 1308. <
1 17 3 121042. 124842. 2718. o
2 17 3 20970. 19125. 1409. o
3 17 3 19662. 18521. 1409. o
4 17 3 57523. 55366. 2517. o
5 17 3 81. -2114. 1510. <
6 17 3 680. -1007. 5737. <
1 18 3 674. 2214. 4731. <
2 18 3 106999. 114569. 12081. o
0 0 4 198973. 218382. 3330. o
1 1 4 39325. 37964. 604. o
0 2 4 67530. 73731. 705. o
1 2 4 20909. 20840. 302. o
2 2 4 704147. 718309. 4356. o
1 3 4 74342. 73926. 504. o
2 3 4 26080. 24967. 302. o
3 3 4 3946480. 4028040. 21724. o
0 4 4 5840370. 5891680. 29814. o
1 4 4 900. 1107. 201. o
2 4 4 1848440. 1881480. 7134. o
3 4 4 90459. 89833. 604. o
4 4 4 46163. 51850. 705. o
1 5 4 178137. 186813. 1008. o
2 5 4 660. 805. 201. o
3 5 4 162520. 159474. 907. o
4 5 4 29072. 29395. 403. o
5 5 4 2025830. 1992950. 10970. o
0 6 4 47232. 51749. 705. o
1 6 4 9475. 8959. 302. o
2 6 4 2060. 3422. 201. o
3 6 4 39874. 40370. 503. o
4 6 4 17908. 19428. 403. o
5 6 4 7675. 8052. 302. o
6 6 4 20582. 21541. 705. o
1 7 4 382188. 386673. 1916. o
2 7 4 7948. 8153. 302. o
3 7 4 707919. 704958. 3130. o
4 7 4 20104. 19629. 403. o
5 7 4 102249. 99886. 906. o
6 7 4 4090. 4429. 403. o
7 7 4 2793810. 2767410. 17570. o
0 8 4 18759. 22246. 604. o
1 8 4 149013. 147443. 1007. o
2 8 4 3141170. 3126870. 12430. o
3 8 4 1717. 2315. 302. o
4 8 4 407009. 399874. 2016. o
5 8 4 1394. 1812. 302. o
6 8 4 372304. 370845. 2318. o
7 8 4 44644. 45602. 805. o
8 8 4 431264. 429507. 3930. o
1 9 4 699522. 685633. 3229. o
2 9 4 2622. 3020. 302. o
3 9 4 748511. 736627. 3532. o
4 9 4 47243. 46509. 705. o
5 9 4 211611. 210705. 1511. o
6 9 4 99975. 100079. 1108. o
7 9 4 24089. 23454. 705. o
8 9 4 3030. 3523. 503. o
9 9 4 209291. 209973. 2618. o
0 10 4 745285. 741163. 4742. o
1 10 4 5403. 5335. 403. o
2 10 4 40205. 42984. 705. o
3 10 4 9919. 9663. 503. o
4 10 4 36897. 37648. 705. o
5 10 4 5062. 5234. 503. o
6 10 4 1070260. 1053810. 5653. o
7 10 4 46250. 45400. 906. o
8 10 4 176706. 175516. 1712. o
9 10 4 51056. 51943. 1007. o
10 10 4 199529. 199587. 2719. o
1 11 4 400. 1007. 403. <
2 11 4 22531. 22548. 604. o
3 11 4 269005. 267134. 1914. o
4 11 4 3578. 3825. 503. o
5 11 4 90110. 92220. 1208. o
6 11 4 1151. 1711. 503. o
7 11 4 109755. 110044. 1410. o
8 11 4 73587. 71778. 1208. o
9 11 4 12595. 12280. 705. o
10 11 4 45551. 44493. 1107. o
11 11 4 139525. 140756. 2517. o
0 12 4 13560. 15098. 906. o
1 12 4 6638. 6643. 604. o
2 12 4 1025170. 1007140. 5753. o
3 12 4 177398. 178037. 1813. o
4 12 4 70483. 75201. 1208. o
5 12 4 3600. 4127. 604. o
6 12 4 1300270. 1296570. 7371. o
7 12 4 18422. 17917. 805. o
8 12 4 58987. 58991. 1208. o
9 12 4 301. -101. 604. <
10 12 4 3547. 3422. 705. o
11 12 4 25058. 25064. 1007. o
12 12 4 327502. 313452. 4130. o
1 13 4 626143. 618871. 4133. o
2 13 4 75977. 74497. 1409. o
3 13 4 9641. 10670. 805. o
4 13 4 32082. 32815. 1007. o
5 13 4 70493. 73288. 1409. o
6 13 4 140. 503. 604. <
7 13 4 611186. 602640. 4334. o
8 13 4 13359. 13689. 906. o
9 13 4 111026. 115779. 1812. o
10 13 4 44199. 44292. 1309. o
11 13 4 24990. 23755. 1107. o
12 13 4 17839. 17615. 2114. o
0 14 4 115729. 117796. 2517. o
1 14 4 1039. 1308. 705. <
2 14 4 96976. 97454. 1711. o
3 14 4 15046. 13891. 906. o
4 14 4 22608. 23353. 1007. o
5 14 4 20862. 20232. 1007. o
6 14 4 82116. 82651. 1711. o
7 14 4 118326. 119103. 1913. o
8 14 4 32898. 33218. 1208. o
9 14 4 11778. 12381. 1007. o
10 14 4 771543. 773686. 5747. o
11 14 4 21595. 23453. 4832. o
1 15 4 131286. 132196. 2215. o
2 15 4 8172. 6341. 906. o
3 15 4 53. 604. 805. <
4 15 4 1282. 604. 805. <
5 15 4 424693. 431699. 3728. o
6 15 4 2236. 1812. 906. <
7 15 4 2212. 1409. 906. <
8 15 4 8280. 9059. 1007. o
9 15 4 24668. 24963. 1711. o
0 16 4 91011. 92720. 3222. o
1 16 4 46727. 47714. 1611. o
2 16 4 392611. 388349. 4030. o
3 16 4 4063. 4429. 906. o
4 16 4 6966. 8858. 1007. o
5 16 4 11960. 10166. 1107. o
6 16 4 846. 805. 1007. <
7 16 4 79130. 76509. 2617. o
8 16 4 15628. 19930. 4429. o
1 17 4 5510. 5033. 1208. o
2 17 4 75607. 74092. 2215. o
3 17 4 640960. 638913. 6451. o
4 17 4 21644. 18118. 1711. o
5 17 4 330035. 319697. 7051. o
1 18 4 1083. -3422. 5838. <
0 1 5 4083. 2617. 302. o
1 1 5 367756. 365051. 2424. o
1 2 5 1671. 1812. 201. o
2 2 5 31432. 31714. 604. o
0 3 5 30639. 27988. 503. o
1 3 5 3149. 3120. 201. o
2 3 5 1035. -805. 201. <
3 3 5 1353250. 1352750. 7717. o
1 4 5 30654. 30001. 403. o
2 4 5 163408. 163627. 907. o
3 4 5 11021. 10770. 302. o
4 4 5 313. 302. 302. <
0 5 5 21972. 16912. 503. o
1 5 5 29453. 30302. 403. o
2 5 5 139. -604. 201. <
3 5 5 190689. 187801. 1008. o
4 5 5 14422. 14092. 302. o
5 5 5 232045. 227101. 1713. o
1 6 5 3568. 2718. 201. o
2 6 5 11289. 12985. 302. o
3 6 5 138. 503. 201. <
4 6 5 37464. 36744. 503. o
5 6 5 6650. 7247. 302. o
6 6 5 6403. 6341. 503. o
0 7 5 16650. 15300. 503. o
1 7 5 275804. 271787. 1411. o
2 7 5 10843. 8657. 302. o
3 7 5 16667. 17515. 403. o
4 7 5 32888. 32515. 503. o
5 7 5 60360. 62821. 705. o
6 7 5 45047. 44093. 705. o
7 7 5 240926. 237118. 2317. o
1 8 5 24066. 23656. 403. o
2 8 5 373379. 371732. 1915. o
3 8 5 72262. 71885. 805. o
4 8 5 20926. 22649. 503. o
5 8 5 1. 0. 302. <
6 8 5 90793. 91922. 1007. o
7 8 5 13073. 13287. 604. o
8 8 5 284. 1308. 604. <
0 9 5 695. 201. 403. <
1 9 5 239278. 236831. 1511. o
2 9 5 573. 503. 302. <
3 9 5 194406. 195694. 1410. o
4 9 5 43. -302. 302. <
5 9 5 3486. 4429. 403. o
6 9 5 444. 403. 403. <
7 9 5 13901. 14293. 604. o
8 9 5 47332. 46709. 906. o
9 9 5 388445. 392325. 3929. o
1 10 5 4804. 4529. 403. o
2 10 5 2871. 3523. 403. o
3 10 5 1223. 1308. 403. o
4 10 5 12738. 12783. 503. o
5 10 5 6849. 6845. 503. o
6 10 5 8677. 9160. 604. o
7 10 5 733. 503. 503. <
8 10 5 298. 805. 503. <
9 10 5 204. 0. 503. <
10 10 5 10235. 10770. 1007. o
0 11 5 265. -101. 503. <
1 11 5 40054. 40467. 805. o
2 11 5 438. 604. 403. <
3 11 5 44335. 44997. 906. o
4 11 5 272. 1107. 503. <
5 11 5 2997. 3322. 503. o
6 11 5 9406. 9764. 604. o
7 11 5 2649. 3221. 604. o
8 11 5 13158. 13287. 705. o
9 11 5 106721. 107121. 1510. o
10 11 5 15462. 16105. 805. o
11 11 5 117156. 118499. 2316. o
1 12 5 53656. 54360. 1007. o
2 12 5 190422. 188617. 1813. o
3 12 5 27557. 27782. 805. o
4 12 5 9512. 8254. 604. o
5 12 5 50762. 51641. 1107. o
6 12 5 75300. 77013. 1409. o
7 12 5 3640. 3825. 705. o
8 12 5 14782. 15199. 805. o
9 12 5 64. -403. 604. <
10 12 5 4667. 4529. 705. o
11 12 5 5085. 4529. 805. o
12 12 5 7082. 6241. 1309. o
0 13 5 14250. 14394. 1107. o
1 13 5 46485. 47816. 1107. o
2 13 5 2035. 2818. 604. o
3 13 5 21939. 21843. 906. o
4 13 5 13310. 13488. 805. o
5 13 5 202366. 201099. 2115. o
6 13 5 585. 604. 705. <
7 13 5 193213. 196862. 2215. o
8 13 5 621. 1610. 705. <
9 13 5 6849. 8757. 805. o
10 13 5 5981. 4429. 805. o
11 13 5 6545. 6543. 906. o
12 13 5 2334. 101. 2516. <
1 14 5 950. 1107. 705. <
2 14 5 127. 101. 705. <
3 14 5 32. 503. 705. <
4 14 5 7379. 9059. 805. o
5 14 5 901. 1510. 805. <
6 14 5 12861. 14494. 1007. o
7 14 5 1969. 1912. 805. <
8 14 5 25169. 25467. 1107. o
9 14 5 43106. 42983. 1309. o
10 14 5 35983. 33419. 1409. o
11 14 5 8627. 11676. 3322. o
0 15 5 4202. 3523. 1308. <
1 15 5 6153. 5234. 906. o
2 15 5 13268. 13790. 1007. o
3 15 5 91465. 92619. 1812. o
4 15 5 347. 101. 805. <
5 15 5 124614. 125850. 2215. o
6 15 5 1698. 604. 805. <
7 15 5 73112. 75703. 1812. o
8 15 5 3482. 3422. 1007. o
9 15 5 4986. 5637. 1610. o
1 16 5 10278. 9864. 1208. o
2 16 5 44593. 43285. 1611. o
3 16 5 17034. 18923. 1208. o
4 16 5 7702. 7549. 1007. o
5 16 5 6690. 7549. 1107. o
6 16 5 51839. 52849. 1711. o
7 16 5 17324. 15199. 1912. o
8 16 5 35272. 43385. 8153. o
0 17 5 19926. 21239. 2214. o
1 17 5 6666. 8354. 1309. o
2 17 5 232. -2416. 1007. <
3 17 5 38762. 36037. 2013. o
4 17 5 19718. 17816. 2919. o
5 17 5 22807. 19930. 2315. o
0 0 6 868268. 887228. 10344. o
1 1 6 55259. 54881. 705. o
0 2 6 12. 101. 302. <
1 2 6 625357. 595553. 2629. o
2 2 6 5214310. 5332810. 30792. o
1 3 6 1002650. 1012890. 4256. o
2 3 6 1689180. 1640780. 6715. o
3 3 6 1712760. 1726550. 9863. o
0 4 6 113979. 113011. 1007. o
1 4 6 64586. 60818. 503. o
2 4 6 22405. 25368. 403. o
3 4 6 153104. 145966. 907. o
4 4 6 47533. 46714. 705. o
1 5 6 50300. 52656. 503. o
2 5 6 10940. 11374. 302. o
3 5 6 17553. 18421. 302. o
4 5 6 11. 101. 201. <
5 5 6 624035. 621834. 3936. o
0 6 6 236614. 240528. 1612. o
1 6 6 251944. 246790. 1310. o
2 6 6 893522. 896118. 3739. o
3 6 6 250059. 242938. 1209. o
4 6 6 2332. 2516. 302. o
5 6 6 65989. 65340. 705. o
6 6 6 141472. 140884. 1511. o
1 7 6 350890. 349775. 1714. o
2 7 6 1057630. 1018030. 4144. o
3 7 6 2131930. 2115190. 8830. o
4 7 6 347160. 338026. 1915. o
5 7 6 204256. 200846. 1410. o
6 7 6 513961. 503210. 2621. o
7 7 6 602856. 592639. 4437. o
0 8 6 199694. 199542. 1712. o
1 8 6 265865. 259135. 1511. o
2 8 6 662338. 659961. 3128. o
3 8 6 548691. 532074. 2723. o
4 8 6 715447. 708095. 3430. o
5 8 6 169. 302. 302. <
6 8 6 6695. 7952. 503. o
7 8 6 130675. 126065. 1208. o
8 8 6 1596230. 1586550. 11322. o
1 9 6 102983. 102701. 906. o
2 9 6 3766. 3624. 403. o
3 9 6 273191. 273210. 1713. o
4 9 6 41862. 39562. 705. o
5 9 6 79350. 78729. 906. o
6 9 6 27670. 27883. 705. o
7 9 6 205691. 203835. 1712. o
8 9 6 162815. 160508. 1611. o
9 9 6 30508. 33218. 1309. o
0 10 6 167824. 169083. 2014. o
1 10 6 276. 403. 403. <
2 10 6 130982. 132713. 1208. o
3 10 6 97101. 97258. 1108. o
4 10 6 781883. 772221. 4439. o
5 10 6 15421. 15803. 604. o
6 10 6 3771. 4731. 503. o
7 10 6 58628. 59797. 1107. o
8 10 6 29550. 31406. 906. o
9 10 6 1563. 2315. 604. o
10 10 6 138701. 135321. 2316. o
1 11 6 133701. 134925. 1309. o
2 11 6 312814. 309574. 2116. o
3 11 6 72666. 75203. 1107. o
4 11 6 423. 604. 503. <
5 11 6 3345. 3624. 503. o
6 11 6 284723. 284346. 2317. o
7 11 6 487089. 484714. 3325. o
8 11 6 119787. 119710. 1611. o
9 11 6 40482. 39862. 1107. o
10 11 6 103100. 101683. 1611. o
11 11 6 45105. 45097. 1711. o
0 12 6 287751. 284859. 3425. o
1 12 6 112989. 110348. 1410. o
2 12 6 416514. 416142. 2922. o
3 12 6 244225. 241112. 2014. o
4 12 6 522839. 517022. 3427. o
5 12 6 10514. 11877. 705. o
6 12 6 349572. 338878. 2821. o
7 12 6 184034. 182965. 2014. o
8 12 6 590472. 588300. 4132. o
9 12 6 1893. 2214. 705. o
10 12 6 1450. 2013. 705. <
11 12 6 57191. 57178. 1409. o
12 12 6 924646. 927031. 9278. o
1 13 6 147467. 149624. 1812. o
2 13 6 118383. 119610. 1611. o
3 13 6 603146. 606906. 4334. o
4 13 6 90378. 91211. 1510. o
5 13 6 28. 403. 604. <
6 13 6 103. 201. 705. <
7 13 6 269101. 270718. 2719. o
8 13 6 114722. 113465. 1712. o
9 13 6 129771. 130584. 1913. o
10 13 6 8861. 8757. 906. o
11 13 6 327789. 324833. 3324. o
0 14 6 1128440. 1130660. 11000. o
1 14 6 19807. 20735. 1007. o
2 14 6 307922. 315770. 3022. o
3 14 6 49145. 48722. 1309. o
4 14 6 117. 906. 705. <
5 14 6 1367. 1208. 805. <
6 14 6 342. 1510. 805. <
7 14 6 3144. 3020. 805. o
8 14 6 33675. 33218. 1208. o
9 14 6 27644. 26574. 1208. o
10 14 6 1373. 403. 1208. <
11 14 6 67596. 51038. 6946. o
1 15 6 50683. 51842. 1611. o
2 15 6 37481. 38352. 1409. o
3 15 6 41313. 41171. 1309. o
4 15 6 44160. 45097. 1409. o
5 15 6 268817. 270814. 3122. o
6 15 6 149289. 155156. 2517. o
7 15 6 6921. 7549. 1007. o
8 15 6 393. 101. 906. <
9 15 6 1704. -906. 1812. <
0 16 6 68621. 74998. 3020. o
1 16 6 94863. 90002. 2315. o
2 16 6 94605. 95740. 2215. o
3 16 6 60437. 61004. 1812. o
4 16 6 18284. 18823. 1409. o
5 16 6 91750. 90102. 2114. o
6 16 6 9780. 10468. 1409. o
7 16 6 32923. 32010. 3221. o
1 17 6 265527. 276550. 4129. o
2 17 6 6963. 6543. 1510. o
3 17 6 163717. 167847. 4632. o
4 17 6 42506. 38453. 3423. o
0 1 7 36868. 36144. 604. o
1 1 7 337095. 338896. 2421. o
1 2 7 3100. 3322. 201. o
2 2 7 499322. 510905. 3332. o
0 3 7 71324. 69280. 906. o
1 3 7 41365. 45003. 503. o
2 3 7 16. 503. 201. <
3 3 7 103498. 102724. 1108. o
1 4 7 34134. 32416. 403. o
2 4 7 66516. 66756. 604. o
3 4 7 64744. 65143. 604. o
4 4 7 973. 1007. 302. o
0 5 7 24551. 24965. 604. o
1 5 7 31766. 32717. 403. o
2 5 7 11735. 10368. 302. o
3 5 7 183995. 186565. 1108. o
4 5 7 103379. 102711. 806. o
5 5 7 273628. 268128. 2116. o
1 6 7 109. -101. 201. <
2 6 7 32852. 35133. 503. o
3 6 7 881. 805. 201. o
4 6 7 13. -302. 302. <
5 6 7 11075. 10972. 403. o
6 6 7 303179. 305597. 2620. o
0 7 7 132202. 130314. 1208. o
1 7 7 111529. 109861. 806. o
2 7 7 35677. 35737. 503. o
3 7 7 89841. 93034. 805. o
4 7 7 31276. 30803. 604. o
5 7 7 41867. 44696. 705. o
6 7 7 46876. 43589. 705. o
7 7 7 157235. 154172. 1813. o
1 8 7 112931. 113985. 906. o
2 8 7 243411. 239355. 1511. o
3 8 7 67843. 67856. 805. o
4 8 7 386727. 380849. 2116. o
5 8 7 32876. 32212. 705. o
6 8 7 4362. 5033. 403. o
7 8 7 38159. 36944. 805. o
8 8 7 2456. 3624. 705. o
0 9 7 53821. 51543. 1007. o
1 9 7 540900. 539639. 2924. o
2 9 7 64493. 66243. 906. o
3 9 7 192063. 191959. 1410. o
4 9 7 22836. 24259. 604. o
5 9 7 53650. 53354. 906. o
6 9 7 69560. 68860. 1007. o
7 9 7 44153. 46608. 906. o
8 9 7 86524. 89097. 1309. o
9 9 7 7347. 6744. 906. o
1 10 7 7137. 7448. 503. o
2 10 7 22758. 23353. 604. o
3 10 7 2096. 2315. 403. o
4 10 7 54499. 56274. 1007. o
5 10 7 40771. 40467. 906. o
6 10 7 94325. 91617. 1208. o
7 10 7 41373. 40165. 1007. o
8 10 7 41475. 42983. 1007. o
9 10 7 448. 302. 604. <
10 10 7 27847. 25869. 1309. o
0 11 7 3014. 5435. 705. o
1 11 7 812. 1107. 503. <
2 11 7 384. 201. 403. <
3 11 7 43669. 44896. 906. o
4 11 7 37396. 37748. 906. o
5 11 7 169854. 171788. 1712. o
6 11 7 69755. 70570. 1309. o
7 11 7 138310. 140055. 1611. o
8 11 7 798. 1208. 604. <
9 11 7 36027. 35131. 1007. o
10 11 7 20. -201. 604. <
11 11 7 448708. 448444. 5239. o
1 12 7 198193. 197379. 1813. o
2 12 7 6760. 8052. 604. o
3 12 7 48858. 49125. 1007. o
4 12 7 6505. 6341. 604. o
5 12 7 41339. 41473. 1007. o
6 12 7 266426. 264077. 2417. o
7 12 7 197. 201. 604. <
8 12 7 226429. 223664. 2316. o
9 12 7 78790. 79832. 1611. o
10 12 7 27994. 28688. 1107. o
11 12 7 2690. 1007. 805. <
12 12 7 140824. 141158. 3826. o
0 13 7 43990. 43185. 1611. o
1 13 7 153127. 155465. 1913. o
2 13 7 115934. 116085. 1611. o
3 13 7 271533. 268412. 2619. o
4 13 7 95051. 96044. 1711. o
5 13 7 19648. 19226. 906. o
6 13 7 667. 503. 705. <
7 13 7 2984. 3825. 805. o
8 13 7 35980. 36137. 1107. o
9 13 7 129023. 128066. 1913. o
10 13 7 30333. 27178. 1107. o
11 13 7 1055. 1812. 1409. <
1 14 7 22. 906. 705. <
2 14 7 87782. 89297. 1812. o
3 14 7 76944. 76510. 1611. o
4 14 7 215521. 218623. 2618. o
5 14 7 7033. 7851. 906. o
6 14 7 2558. 1107. 805. <
7 14 7 20117. 21138. 1107. o
8 14 7 38597. 38453. 1309. o
9 14 7 90265. 89800. 1812. o
10 14 7 13321. 13588. 1912. o
0 15 7 736. 1912. 1208. <
1 15 7 162037. 165633. 2719. o
2 15 7 6717. 6844. 1007. o
3 15 7 339. 906. 906. <
4 15 7 5569. 5234. 906. o
5 15 7 40384. 41573. 1510. o
6 15 7 712. 604. 906. <
7 15 7 76265. 75603. 1913. o
8 15 7 30007. 27480. 1711. o
9 15 7 10359. 7952. 2718. <
1 16 7 644. -805. 1007. <
2 16 7 56685. 58889. 1913. o
3 16 7 38278. 35936. 1611. o
4 16 7 71243. 69662. 2114. o
5 16 7 155366. 158883. 2819. o
6 16 7 132756. 129174. 3524. o
7 16 7 13154. 15904. 3322. o
0 17 7 241317. 249849. 6344. o
1 17 7 93439. 88693. 2920. o
2 17 7 5756. 9361. 1912. o
3 17 7 18466. 16306. 3221. o
4 17 7 13874. 17715. 4127. o
0 0 8 7188720. 7135690. 76749. o
1 1 8 210480. 217189. 1814. o
0 2 8 308031. 314817. 2319. o
1 2 8 2162. 1409. 201. o
2 2 8 108522. 107362. 1108. o
1 3 8 137478. 143136. 907. o
2 3 8 20264. 20032. 403. o
3 3 8 8553. 10368. 503. o
0 4 8 63871. 72594. 906. o
1 4 8 51186. 49232. 604. o
2 4 8 10266. 11676. 403. o
3 4 8 38979. 38859. 503. o
4 4 8 1590780. 1563460. 9324. o
1 5 8 640232. 636373. 2827. o
2 5 8 598. 805. 201. o
3 5 8 5455. 5637. 302. o
4 5 8 5409. 5737. 302. o
5 5 8 219165. 221317. 1914. o
0 6 8 225540. 229000. 1713. o
1 6 8 20720. 20535. 403. o
2 6 8 182. 1308. 302. o
3 6 8 2564. 2718. 302. o
4 6 8 137424. 138468. 1007. o
5 6 8 42494. 41777. 705. o
6 6 8 832499. 816612. 5854. o
1 7 8 4393. 5234. 302. o
2 7 8 1078. 906. 302. <
3 7 8 633773. 634639. 3026. o
4 7 8 9973. 9764. 403. o
5 7 8 91227. 92830. 1007. o
6 7 8 10410. 10368. 503. o
7 7 8 5664. 7348. 705. o
0 8 8 431209. 425284. 2923. o
1 8 8 452. 503. 302. <
2 8 8 111374. 115089. 1007. o
3 8 8 60137. 60102. 805. o
4 8 8 33728. 34125. 705. o
5 8 8 21202. 21340. 604. o
6 8 8 156579. 152457. 1309. o
7 8 8 25875. 26272. 705. o
8 8 8 20702. 21742. 1007. o
1 9 8 8719. 8958. 403. o
2 9 8 76501. 76716. 1007. o
3 9 8 396903. 391000. 2318. o
4 9 8 11687. 12079. 503. o
5 9 8 299854. 291536. 2015. o
6 9 8 153. -403. 403. <
7 9 8 85842. 86883. 1309. o
8 9 8 8181. 8958. 604. o
9 9 8 26722. 24662. 1208. o
0 10 8 3140. 3422. 604. o
1 10 8 10818. 10267. 503. o
2 10 8 249225. 249091. 1813. o
3 10 8 234. 0. 403. <
4 10 8 88440. 90710. 1208. o
5 10 8 16662. 17011. 705. o
6 10 8 55636. 54964. 1007. o
7 10 8 21390. 20434. 805. o
8 10 8 12943. 14192. 705. o
9 10 8 268. 503. 604. <
10 10 8 898672. 877456. 8270. o
1 11 8 12488. 14595. 705. o
2 11 8 2382. 2315. 503. o
3 11 8 1026. 805. 503. <
4 11 8 18738. 18924. 805. o
5 11 8 106615. 107123. 1510. o
6 11 8 21775. 21642. 805. o
7 11 8 105419. 109135. 1510. o
8 11 8 37964. 37346. 1007. o
9 11 8 53752. 57681. 1309. o
10 11 8 6. 403. 705. <
11 11 8 40616. 40265. 1812. o
0 12 8 51111. 55870. 1812. o
1 12 8 61202. 60200. 1208. o
2 12 8 462533. 459303. 3124. o
3 12 8 3118. 3120. 604. o
4 12 8 41521. 43285. 1107. o
5 12 8 14018. 14293. 805. o
6 12 8 4161. 5133. 705. o
7 12 8 75069. 72482. 1409. o
8 12 8 51803. 51842. 1309. o
9 12 8 775. 1912. 705. <
10 12 8 104703. 111347. 1913. o
11 12 8 53. 0. 805. <
12 12 8 653. 1208. 2315. <
1 13 8 191939. 193341. 2215. o
2 13 8 32282. 32916. 1107. o
3 13 8 346859. 348037. 3123. o
4 13 8 18. 604. 705. <
5 13 8 21488. 23353. 1007. o
6 13 8 53489. 51943. 1309. o
7 13 8 2445. 3120. 805. o
8 13 8 1176. 1812. 705. <
9 13 8 23844. 24460. 1107. o
10 13 8 3128. 3825. 906. o
11 13 8 247. 302. 1711. <
0 14 8 36546. 36641. 1812. o
1 14 8 827. 1409. 805. <
2 14 8 6585. 6744. 805. o
3 14 8 24071. 21742. 1208. o
4 14 8 89978. 95539. 1913. o
5 14 8 527. 805. 906. <
6 14 8 218336. 220636. 2719. o
7 14 8 951. 201. 805. <
8 14 8 3286. 2919. 906. o
9 14 8 11218. 8254. 1107. o
10 14 8 9332. 5939. 2214. <
1 15 8 92039. 98660. 2114. o
2 15 8 11980. 12582. 1107. o
3 15 8 22757. 22950. 1409. o
4 15 8 4614. 3322. 1007. o
5 15 8 86854. 88591. 2114. o
6 15 8 3299. 2919. 1007. <
7 15 8 4075. 5033. 1007. o
8 15 8 61. -604. 1610. <
0 16 8 64531. 65635. 3121. o
1 16 8 18842. 16608. 1309. o
2 16 8 16764. 18219. 1610. o
3 16 8 34908. 32312. 1611. o
4 16 8 88288. 88793. 2315. o
5 16 8 345. 1007. 1409. <
6 16 8 98815. 100875. 5134. o
1 17 8 136618. 136928. 5538. o
2 17 8 96077. 88895. 4732. o
3 17 8 673. 8757. 7146. <
0 1 9 18439. 17213. 604. o
1 1 9 27334. 30200. 705. o
1 2 9 890. 1308. 302. o
2 2 9 24023. 24160. 604. o
0 3 9 173. -302. 302. <
1 3 9 161149. 156640. 1007. o
2 3 9 943. 403. 302. <
3 3 9 135981. 134455. 1410. o
1 4 9 29747. 29495. 503. o
2 4 9 23806. 23857. 503. o
3 4 9 22385. 22045. 503. o
4 4 9 51120. 52350. 1007. o
0 5 9 30679. 28992. 705. o
1 5 9 642827. 633421. 2927. o
2 5 9 16989. 17213. 403. o
3 5 9 2349. 2919. 302. o
4 5 9 2043. 2214. 302. o
5 5 9 18746. 19427. 805. o
1 6 9 714. 705. 302. <
2 6 9 17469. 19427. 503. o
3 6 9 8508. 8052. 403. o
4 6 9 49629. 49228. 705. o
5 6 9 14029. 13689. 503. o
6 6 9 118725. 113176. 1611. o
0 7 9 24095. 24360. 705. o
1 7 9 15025. 15602. 403. o
2 7 9 6969. 7650. 403. o
3 7 9 76912. 75912. 906. o
4 7 9 3063. 2919. 403. o
5 7 9 113112. 111966. 1108. o
6 7 9 15046. 14998. 604. o
7 7 9 15324. 15099. 805. o
1 8 9 756. 705. 302. <
2 8 9 133462. 131006. 1108. o
3 8 9 56785. 55168. 805. o
4 8 9 24422. 25366. 705. o
5 8 9 5694. 5838. 503. o
6 8 9 106946. 107831. 1208. o
7 8 9 7859. 7549. 503. o
8 8 9 36716. 38856. 1309. o
0 9 9 580. 1510. 604. <
1 9 9 342. 302. 403. <
2 9 9 241. 0. 403. <
3 9 9 136222. 134425. 1309. o
4 9 9 56. 101. 403. <
5 9 9 152488. 151344. 1410. o
6 9 9 224. 0. 503. <
7 9 9 54528. 53051. 1107. o
8 9 9 8864. 8455. 604. o
9 9 9 46098. 46104. 1711. o
1 10 9 23222. 22749. 705. o
2 10 9 32100. 33520. 805. o
3 10 9 2169. 2718. 503. o
4 10 9 18955. 18622. 705. o
5 10 9 3233. 3825. 503. o
6 10 9 1. 0. 503. <
7 10 9 1769. 2013. 604. o
8 10 9 75988. 80033. 1309. o
9 10 9 10546. 10066. 805. o
10 10 9 25379. 24963. 1510. o
0 11 9 2733. 3523. 805. o
1 11 9 46775. 49729. 1007. o
2 11 9 5801. 6241. 604. o
3 11 9 6238. 6039. 705. o
4 11 9 1917. 2013. 604. o
5 11 9 60122. 62112. 1208. o
6 11 9 36. 604. 604. <
7 11 9 308499. 305601. 2518. o
8 11 9 11503. 11777. 805. o
9 11 9 1257. 2114. 705. <
10 11 9 18323. 19125. 1007. o
11 11 9 34117. 33017. 1711. o
1 12 9 43998. 44795. 1007. o
2 12 9 260423. 256727. 2316. o
3 12 9 13294. 12280. 805. o
4 12 9 38346. 39158. 1107. o
5 12 9 8469. 6442. 705. o
6 12 9 35269. 35231. 1107. o
7 12 9 2428. 2013. 705. <
8 12 9 10659. 10066. 805. o
9 12 9 6. -503. 805. <
10 12 9 24399. 23252. 1208. o
11 12 9 14735. 15199. 1107. o
12 12 9 4836. -705. 5335. <
0 13 9 2658. 2818. 1007. <
1 13 9 156767. 159795. 2114. o
2 13 9 5009. 4831. 805. o
3 13 9 74269. 74999. 1611. o
4 13 9 4867. 5133. 805. o
5 13 9 2231. 2718. 805. o
6 13 9 12111. 11072. 906. o
7 13 9 1603. 805. 805. <
8 13 9 0. -705. 705. <
9 13 9 54. 302. 805. <
10 13 9 1769. 1510. 1007. <
1 14 9 1485. 1812. 805. <
2 14 9 4327. 4831. 906. o
3 14 9 1520. 2214. 906. <
4 14 9 54342. 55768. 1611. o
5 14 9 12. -403. 906. <
6 14 9 58628. 60500. 1611. o
7 14 9 5228. 5033. 906. o
8 14 9 29903. 29694. 1309. o
9 14 9 16137. 15300. 2013. o
0 15 9 14859. 12481. 1510. o
1 15 9 4737. 4227. 1007. o
2 15 9 8. -604. 906. <
3 15 9 28474. 28386. 1409. o
4 15 9 63. 302. 1007. <
5 15 9 1669. 1610. 1007. <
6 15 9 9386. 9965. 1208. o
7 15 9 567. -1007. 1409. <
8 15 9 843. 503. 2315. <
1 16 9 6701. 5133. 1309. o
2 16 9 70998. 75501. 2416. o
3 16 9 3367. 2315. 1107. <
4 16 9 749. 2013. 1308. <
5 16 9 11. 805. 2818. <
1 17 9 146927. 153946. 11176. o
0 0 10 1197630. 1200200. 14075. o
1 1 10 217108. 220362. 1914. o
0 2 10 610697. 614670. 4038. o
1 2 10 89127. 89619. 806. o
2 2 10 1794660. 1804800. 10757. o
1 3 10 416. 1610. 302. o
2 3 10 81530. 80450. 806. o
3 3 10 1184430. 1188660. 7485. o
0 4 10 759024. 760981. 4948. o
1 4 10 1652. 1208. 302. o
2 4 10 4477. 6442. 403. o
3 4 10 1743. 1610. 302. o
4 4 10 109702. 109858. 1410. o
1 5 10 1596720. 1605090. 7090. o
2 5 10 42732. 41778. 705. o
3 5 10 11537. 12985. 503. o
4 5 10 12. 403. 302. <
5 5 10 2245490. 2233370. 15212. o
0 6 10 1947790. 1945860. 12165. o
1 6 10 1057. 1308. 302. o
2 6 10 575379. 575912. 3026. o
3 6 10 166556. 164763. 1309. o
4 6 10 1364970. 1352970. 6471. o
5 6 10 20662. 20333. 604. o
6 6 10 5869. 7952. 705. o
1 7 10 148552. 149444. 1208. o
2 7 10 251102. 250029. 1713. o
3 7 10 571066. 560360. 3227. o
4 7 10 6501. 6643. 503. o
5 7 10 61255. 63222. 1007. o
6 7 10 76437. 76513. 1107. o
7 7 10 1391350. 1363270. 9396. o
0 8 10 11706. 12582. 705. o
1 8 10 1682. 2013. 403. o
2 8 10 226233. 226224. 1612. o
3 8 10 13101. 13689. 503. o
4 8 10 21821. 22145. 705. o
5 8 10 1593. 2114. 503. o
6 8 10 30796. 33923. 805. o
7 8 10 58432. 60300. 1007. o
8 8 10 460511. 453560. 4535. o
1 9 10 247172. 249194. 1914. o
2 9 10 15079. 14193. 604. o
3 9 10 14853. 16910. 604. o
4 9 10 19451. 19930. 705. o
5 9 10 1096430. 1086690. 5754. o
6 9 10 36277. 36339. 906. o
7 9 10 5024. 7952. 604. o
8 9 10 7328. 6140. 705. o
9 9 10 406521. 396847. 4433. o
0 10 10 3823270. 3825890. 27254. o
1 10 10 116259. 117499. 1410. o
2 10 10 2639. 3020. 503. o
3 10 10 29853. 29695. 906. o
4 10 10 764776. 760723. 4538. o
5 10 10 6356. 8254. 604. o
6 10 10 192366. 194452. 1813. o
7 10 10 56405. 58588. 1208. o
8 10 10 580687. 581852. 4032. o
9 10 10 36325. 37949. 1208. o
10 10 10 273249. 274848. 4029. o
1 11 10 158396. 159398. 1712. o
2 11 10 70878. 73188. 1409. o
3 11 10 167621. 165643. 1813. o
4 11 10 67566. 67348. 1309. o
5 11 10 405084. 401491. 3023. o
6 11 10 254307. 257825. 2216. o
7 11 10 12684. 14897. 805. o
8 11 10 6019. 7146. 805. o
9 11 10 1477. 4127. 805. o
10 11 10 107773. 110039. 1913. o
11 11 10 5734. 5033. 1208. o
0 12 10 36446. 36440. 1611. o
1 12 10 41333. 40164. 1107. o
2 12 10 288488. 285548. 2720. o
3 12 10 17786. 19226. 1007. o
4 12 10 245682. 249460. 2518. o
5 12 10 91888. 93124. 1711. o
6 12 10 16971. 18320. 906. o
7 12 10 1434. 1409. 705. <
8 12 10 653322. 646917. 4737. o
9 12 10 43374. 42379. 1309. o
10 12 10 60349. 55568. 1611. o
11 12 10 84622. 76913. 2215. o
1 13 10 8380. 8354. 805. o
2 13 10 11461. 10066. 906. o
3 13 10 80599. 83658. 1711. o
4 13 10 28812. 31406. 1309. o
5 13 10 20603. 21742. 1107. o
6 13 10 8054. 7549. 906. o
7 13 10 369050. 372614. 3626. o
8 13 10 7649. 8556. 1007. o
9 13 10 38554. 40768. 1409. o
10 13 10 1038. 3020. 1409. <
0 14 10 236838. 248643. 4330. o
1 14 10 7457. 7046. 1007. o
2 14 10 1851. 2718. 906. o
3 14 10 43789. 43788. 1611. o
4 14 10 1087190. 1097910. 8071. o
5 14 10 5587. 6744. 1007. o
6 14 10 17034. 17816. 1208. o
7 14 10 62583. 64124. 1711. o
8 14 10 61748. 60299. 2114. o
9 14 10 18922. 20031. 3322. o
1 15 10 380592. 381789. 4231. o
2 15 10 170456. 176308. 2920. o
3 15 10 156274. 158078. 2719. o
4 15 10 9157. 7750. 1107. o
5 15 10 291664. 287342. 3626. o
6 15 10 13509. 13488. 1510. o
7 15 10 28476. 24863. 3825. o
0 16 10 10684. 12682. 2013. o
1 16 10 54576. 56876. 2114. o
2 16 10 4161. 4328. 1409. o
3 16 10 60452. 61205. 2617. o
4 16 10 16342. 13287. 3020. o
0 1 11 193917. 185362. 1713. o
1 1 11 29610. 32213. 805. o
1 2 11 50422. 48122. 604. o
2 2 11 123281. 121652. 1410. o
0 3 11 39396. 39261. 805. o
1 3 11 147616. 149762. 1108. o
2 3 11 686. 1107. 302. o
3 3 11 168. 1308. 503. <
1 4 11 216516. 212054. 1410. o
2 4 11 103157. 105022. 1007. o
3 4 11 20826. 20635. 503. o
4 4 11 319545. 317012. 2821. o
0 5 11 460046. 446046. 3630. o
1 5 11 1334230. 1340490. 6372. o
2 5 11 1882. 2013. 403. o
3 5 11 85493. 86889. 1007. o
4 5 11 107339. 105220. 1108. o
5 5 11 1653. 1409. 604. <
1 6 11 54120. 50839. 805. o
2 6 11 109668. 108947. 1108. o
3 6 11 7540. 8254. 503. o
4 6 11 7261. 8052. 503. o
5 6 11 295751. 289234. 2116. o
6 6 11 58542. 60503. 1409. o
0 7 11 6595. 5737. 705. o
1 7 11 124372. 124154. 1208. o
2 7 11 9396. 9764. 503. o
3 7 11 23049. 24762. 705. o
4 7 11 232. -101. 403. <
5 7 11 18910. 19226. 705. o
6 7 11 9287. 9864. 604. o
7 7 11 79308. 77418. 1711. o
1 8 11 8941. 10066. 503. o
2 8 11 109950. 108539. 1309. o
3 8 11 51090. 51139. 906. o
4 8 11 132. 302. 503. <
5 8 11 6387. 6442. 503. o
6 8 11 40572. 40869. 906. o
7 8 11 9460. 9562. 604. o
8 8 11 323751. 321135. 3526. o
0 9 11 20598. 19528. 1007. o
1 9 11 26226. 25668. 805. o
2 9 11 74684. 74096. 1107. o
3 9 11 278622. 275393. 2216. o
4 9 11 72250. 72585. 1208. o
5 9 11 218058. 219748. 1913. o
6 9 11 443. 101. 503. <
7 9 11 61053. 61911. 1208. o
8 9 11 42016. 42178. 1107. o
9 9 11 72133. 73187. 2013. o
1 10 11 139485. 138448. 1611. o
2 10 11 76257. 77417. 1309. o
3 10 11 37487. 38252. 1007. o
4 10 11 24698. 24259. 805. o
5 10 11 72642. 73288. 1309. o
6 10 11 9737. 10368. 705. o
7 10 11 74152. 73288. 1409. o
8 10 11 209. 805. 705. <
9 10 11 88846. 91008. 1711. o
10 10 11 205. 1308. 1107. <
0 11 11 82310. 86478. 2013. o
1 11 11 7962. 9059. 705. o
2 11 11 1413. 2013. 705. <
3 11 11 99020. 99570. 1611. o
4 11 11 31599. 31104. 1007. o
5 11 11 184589. 188705. 2115. o
6 11 11 96540. 97756. 1611. o
7 11 11 359079. 354586. 2921. o
8 11 11 57. 302. 705. <
9 11 11 24990. 24359. 1107. o
10 11 11 6174. 6744. 906. o
11 11 11 125437. 124239. 3020. o
1 12 11 488. 101. 604. <
2 12 11 94450. 100272. 1711. o
3 12 11 19842. 19125. 1007. o
4 12 11 115258. 117996. 2014. o
5 12 11 5647. 6140. 805. o
6 12 11 10104. 11475. 906. o
7 12 11 6196. 6442. 906. o
8 12 11 24398. 25768. 1208. o
9 12 11 4948. 4529. 906. o
10 12 11 25974. 27480. 1309. o
11 12 11 60564. 57883. 3322. o
0 13 11 47459. 48017. 1913. o
1 13 11 174028. 178226. 2517. o
2 13 11 36976. 37245. 1309. o
3 13 11 63545. 62615. 1510. o
4 13 11 137. 805. 805. <
5 13 11 6389. 6543. 906. o
6 13 11 41824. 39460. 1409. o
7 13 11 72564. 73589. 1711. o
8 13 11 21707. 20333. 1208. o
9 13 11 784. 1308. 1107. <
10 13 11 398. 805. 2919. <
1 14 11 17460. 18118. 1208. o
2 14 11 26520. 29795. 1309. o
3 14 11 2557. 3322. 1007. o
4 14 11 14230. 14796. 1208. o
5 14 11 24359. 24460. 1208. o
6 14 11 61149. 62212. 1711. o
7 14 11 46187. 47412. 1711. o
8 14 11 105880. 91414. 6242. o
0 15 11 61013. 61608. 2919. o
1 15 11 8160. 8455. 1208. o
2 15 11 2143. 2617. 1107. <
3 15 11 384. 2416. 1107. <
4 15 11 49683. 49526. 1711. o
5 15 11 222. 503. 1107. <
6 15 11 320. -302. 1912. <
1 16 11 620. 1812. 2416. <
2 16 11 15712. 17917. 2617. o
3 16 11 2175. 5335. 3322. <
4 16 11 14612. 20131. 6643. o
0 0 12 5587480. 5488340. 73716. o
1 1 12 353. 906. 503. <
0 2 12 132656. 135248. 1511. o
1 2 12 19969. 19428. 503. o
2 2 12 6437. 7247. 604. o
1 3 12 45438. 47718. 705. o
2 3 12 7874. 7750. 403. o
3 3 12 274963. 276263. 2519. o
0 4 12 494045. 492373. 3832. o
1 4 12 7064. 7448. 403. o
2 4 12 157998. 156301. 1309. o
3 4 12 31878. 31508. 705. o
4 4 12 1488200. 1474050. 10115. o
1 5 12 1310700. 1301630. 6572. o
2 5 12 9474. 9562. 503. o
3 5 12 3504. 4328. 403. o
4 5 12 802. 1409. 403. o
5 5 12 68276. 73693. 1711. o
0 6 12 36771. 38454. 1107. o
1 6 12 7029. 7549. 503. o
2 6 12 4503. 4932. 503. o
3 6 12 55418. 55167. 1007. o
4 6 12 138488. 141476. 1410. o
5 6 12 21. -101. 503. <
6 6 12 1096080. 1088740. 8481. o
1 7 12 184922. 186614. 1611. o
2 7 12 10342. 10468. 604. o
3 7 12 19562. 21440. 705. o
4 7 12 614. 1308. 503. <
5 7 12 52503. 52146. 1007. o
6 7 12 4800. 5133. 604. o
7 7 12 180194. 180856. 2517. o
0 8 12 373606. 373015. 3426. o
1 8 12 10331. 11676. 604. o
2 8 12 147325. 145504. 1510. o
3 8 12 638. 1107. 503. <
4 8 12 88148. 90911. 1309. o
5 8 12 5105. 5335. 604. o
6 8 12 14842. 16407. 705. o
7 8 12 40922. 40466. 1007. o
8 8 12 169812. 172589. 2517. o
1 9 12 75171. 78122. 1309. o
2 9 12 8739. 8656. 604. o
3 9 12 651881. 640438. 4134. o
4 9 12 4112. 4026. 604. o
5 9 12 545358. 541244. 3628. o
6 9 12 458. 705. 604. <
7 9 12 5799. 6140. 705. o
8 9 12 5978. 4529. 705. o
9 9 12 21. 3221. 1007. o
0 10 12 225149. 228512. 3122. o
1 10 12 26434. 24561. 906. o
2 10 12 261826. 261266. 2317. o
3 10 12 1550. 1812. 604. <
4 10 12 19217. 19427. 805. o
5 10 12 2714. 3624. 604. o
6 10 12 47930. 51238. 1208. o
7 10 12 8940. 7952. 805. o
8 10 12 129305. 129477. 1913. o
9 10 12 5298. 6442. 805. o
10 10 12 730491. 734119. 7763. o
1 11 12 1068. 2516. 604. o
2 11 12 11601. 12783. 906. o
3 11 12 103701. 101282. 1712. o
4 11 12 30291. 32614. 1007. o
5 11 12 272595. 270222. 2518. o
6 11 12 83. 101. 705. <
7 11 12 43225. 43889. 1309. o
8 11 12 9298. 9059. 906. o
9 11 12 17341. 16910. 1007. o
10 11 12 153. 101. 805. <
11 11 12 22821. 16810. 2114. o
0 12 12 104886. 112457. 2517. o
1 12 12 8289. 8656. 805. o
2 12 12 2125. 2516. 805. o
3 12 12 21615. 21641. 1107. o
4 12 12 51625. 54258. 1510. o
5 12 12 1256. 1912. 805. <
6 12 12 59266. 61306. 1510. o
7 12 12 15801. 14796. 1007. o
8 12 12 9654. 9059. 1007. o
9 12 12 2701. 3120. 906. o
10 12 12 2946. 4429. 1510. <
1 13 12 337594. 345600. 3324. o
2 13 12 4087. 4630. 906. o
3 13 12 104007. 109636. 2014. o
4 13 12 5836. 6643. 1007. o
5 13 12 409. 1912. 906. <
6 13 12 21237. 21843. 1208. o
7 13 12 134992. 136122. 2416. o
8 13 12 185. 302. 906. <
9 13 12 139418. 134009. 4732. o
0 14 12 11130. 12884. 1711. o
1 14 12 1105. 503. 1007. <
2 14 12 2315. 2919. 906. o
3 14 12 17702. 17011. 1309. o
4 14 12 205685. 209954. 2820. o
5 14 12 18794. 20131. 1208. o
6 14 12 180457. 190207. 2719. o
7 14 12 197. 1409. 2013. <
1 15 12 153185. 163011. 3021. o
2 15 12 1100. 2315. 1208. <
3 15 12 39773. 37446. 1611. o
4 15 12 4494. 2718. 1308. <
5 15 12 23. 2718. 2114. <
6 15 12 20. -2516. 3020. <
0 16 12 2725. -1610. 2718. <
1 16 12 71. 3724. 4529. <
0 1 13 75452. 72390. 1208. o
1 1 13 60885. 61412. 1208. o
1 2 13 37. 403. 403. <
2 2 13 5583. 5737. 604. o
0 3 13 3670. 2617. 604. o
1 3 13 35480. 37045. 705. o
2 3 13 5. -101. 403. <
3 3 13 105469. 103709. 1510. o
1 4 13 36160. 35937. 705. o
2 4 13 234. 604. 403. <
3 4 13 5088. 5335. 503. o
4 4 13 10032. 12179. 805. o
0 5 13 63776. 60807. 1409. o
1 5 13 55335. 58892. 1007. o
2 5 13 6432. 7348. 503. o
3 5 13 236194. 231268. 1813. o
4 5 13 38663. 37548. 906. o
5 5 13 44901. 44897. 1409. o
1 6 13 13947. 13589. 604. o
2 6 13 66372. 67854. 1107. o
3 6 13 19706. 19125. 705. o
4 6 13 9449. 10166. 604. o
5 6 13 14234. 13891. 705. o
6 6 13 8336. 7549. 906. o
0 7 13 7445. 8455. 805. o
1 7 13 11765. 11576. 604. o
2 7 13 2182. 1409. 503. <
3 7 13 10922. 11475. 604. o
4 7 13 380. 201. 503. <
5 7 13 92120. 94033. 1309. o
6 7 13 38015. 39460. 1007. o
7 7 13 155655. 149729. 2316. o
1 8 13 48. 604. 503. <
2 8 13 104307. 102896. 1410. o
3 8 13 189. 604. 604. <
4 8 13 119737. 121929. 1510. o
5 8 13 44200. 45299. 1107. o
6 8 13 35450. 36540. 1007. o
7 8 13 21010. 22547. 906. o
8 8 13 13571. 14494. 1107. o
0 9 13 106598. 104909. 2215. o
1 9 13 442175. 440961. 3325. o
2 9 13 20811. 21843. 805. o
3 9 13 7795. 8858. 705. o
4 9 13 45160. 46205. 1107. o
5 9 13 63099. 65132. 1309. o
6 9 13 1030. 403. 604. <
7 9 13 58567. 60400. 1309. o
8 9 13 8096. 7348. 805. o
9 9 13 33827. 33520. 1611. o
1 10 13 19650. 18622. 906. o
2 10 13 7331. 7247. 705. o
3 10 13 3802. 3422. 604. o
4 10 13 294943. 292401. 2518. o
5 10 13 3643. 3422. 705. o
6 10 13 306069. 301466. 2619. o
7 10 13 14. 1510. 705. <
8 10 13 23450. 23151. 1107. o
9 10 13 25764. 25970. 1107. o
10 10 13 7781. 6744. 1309. o
0 11 13 21282. 19830. 1409. o
1 11 13 213625. 210470. 2215. o
2 11 13 1590. 1308. 705. <
3 11 13 15514. 17615. 906. o
4 11 13 36807. 36238. 1107. o
5 11 13 11536. 12783. 906. o
6 11 13 20993. 20635. 1007. o
7 11 13 2341. 2214. 805. <
8 11 13 10. 906. 805. <
9 11 13 22606. 21843. 1107. o
10 11 13 8600. 9864. 1007. o
11 11 13 536341. 511196. 12697. o
1 12 13 17677. 17615. 1007. o
2 12 13 49702. 50835. 1409. o
3 12 13 8409. 7146. 906. o
4 12 13 2834. 2617. 805. o
5 12 13 107. -503. 805. <
6 12 13 386476. 378473. 3627. o
7 12 13 1909. 1812. 906. <
8 12 13 77334. 77012. 1812. o
9 12 13 2581. 1208. 906. <
10 12 13 8488. 5234. 2718. <
0 13 13 2469. 6241. 1308. o
1 13 13 16186. 16709. 1107. o
2 13 13 13722. 14998. 1007. o
3 13 13 195876. 199882. 2618. o
4 13 13 22010. 21239. 1208. o
5 13 13 33076. 32312. 1309. o
6 13 13 13617. 13085. 1208. o
7 13 13 29027. 29795. 1510. o
8 13 13 714. -1107. 1409. <
9 13 13 48171. 39158. 6543. o
1 14 13 49111. 49124. 1711. o
2 14 13 164385. 172178. 2719. o
3 14 13 603. 1308. 1007. <
4 14 13 26218. 25165. 1409. o
5 14 13 29096. 27379. 1309. o
6 14 13 9994. 10871. 1912. o
7 14 13 15827. 7247. 5335. <
0 15 13 40123. 39862. 2617. o
1 15 13 17177. 16105. 1510. o
2 15 13 1928. 503. 1510. <
3 15 13 96374. 93727. 3222. o
4 15 13 2128. 2516. 1912. <
5 15 13 16585. 10468. 3724. <
0 0 14 1855220. 1891810. 24109. o
1 1 14 223241. 229663. 2317. o
0 2 14 48424. 51341. 1208. o
1 2 14 10675. 10670. 503. o
2 2 14 2700480. 2707790. 17771. o
1 3 14 244917. 243069. 1813. o
2 3 14 63352. 64230. 1007. o
3 3 14 824479. 824660. 6358. o
0 4 14 174049. 173218. 2216. o
1 4 14 2802. 3322. 503. o
2 4 14 18239. 18722. 705. o
3 4 14 11209. 12079. 604. o
4 4 14 109502. 111660. 1913. o
1 5 14 380036. 377478. 2620. o
2 5 14 2615. 2818. 503. o
3 5 14 40291. 41876. 906. o
4 5 14 3170. 4328. 604. o
5 5 14 1017420. 1010550. 8882. o
0 6 14 807446. 809929. 6659. o
1 6 14 18799. 19326. 705. o
2 6 14 382668. 377255. 2821. o
3 6 14 2017. 2818. 503. o
4 6 14 42061. 43789. 1107. o
5 6 14 13813. 14193. 705. o
6 6 14 16612. 18118. 1107. o
1 7 14 194345. 194062. 1913. o
2 7 14 62060. 66039. 1208. o
3 7 14 1190590. 1186130. 6765. o
4 7 14 30139. 31306. 906. o
5 7 14 46. 1007. 604. <
6 7 14 71455. 71275. 1309. o
7 7 14 360697. 358232. 3929. o
0 8 14 1162. 1912. 805. <
1 8 14 10118. 10670. 705. o
2 8 14 284671. 282238. 2317. o
3 8 14 11482. 12280. 805. o
4 8 14 505188. 499267. 3729. o
5 8 14 1878. 1510. 604. <
6 8 14 13023. 14494. 805. o
7 8 14 4331. 2718. 604. o
8 8 14 699206. 680088. 6250. o
1 9 14 149056. 150633. 1812. o
2 9 14 36982. 35634. 1007. o
3 9 14 5843. 6844. 705. o
4 9 14 4320. 4328. 705. o
5 9 14 384151. 377892. 3123. o
6 9 14 7917. 7650. 805. o
7 9 14 134388. 136930. 1812. o
8 9 14 6663. 6442. 805. o
9 9 14 91827. 94431. 2517. o
0 10 14 465713. 469364. 5240. o
1 10 14 1770. 1812. 705. <
2 10 14 19987. 19930. 906. o
3 10 14 72776. 73086. 1510. o
4 10 14 1050280. 1033610. 6458. o
5 10 14 354. -302. 705. <
6 10 14 38844. 40667. 1208. o
7 10 14 30269. 31708. 1208. o
8 10 14 20270. 20534. 1107. o
9 10 14 15975. 14796. 1007. o
10 10 14 292684. 291372. 4633. o
1 11 14 190. 1610. 705. <
2 11 14 58658. 61406. 1409. o
3 11 14 38282. 39560. 1208. o
4 11 14 6562. 8556. 906. o
5 11 14 25999. 27480. 1107. o
6 11 14 64489. 66541. 1510. o
7 11 14 302730. 303568. 3122. o
8 11 14 33169. 33721. 1309. o
9 11 14 141383. 141259. 2316. o
10 11 14 19859. 19427. 2214. o
0 12 14 241994. 240892. 3625. o
1 12 14 8558. 9260. 906. o
2 12 14 341965. 347718. 3425. o
3 12 14 14947. 13991. 1007. o
4 12 14 140316. 138038. 2215. o
5 12 14 3024. 4429. 1007. o
6 12 14 62475. 64326. 1812. o
7 12 14 16262. 17112. 1208. o
8 12 14 603515. 604294. 5039. o
9 12 14 23979. 26775. 2718. o
1 13 14 2062. 2919. 906. o
2 13 14 1511. 2516. 906. <
3 13 14 521668. 522375. 4535. o
4 13 14 3345. 2416. 906. <
5 13 14 3. 1308. 1007. <
6 13 14 6162. 4127. 1107. o
7 13 14 129501. 132596. 4128. o
8 13 14 2381. -2214. 3221. <
0 14 14 1115020. 1101260. 12713. o
1 14 14 31919. 32211. 1611. o
2 14 14 120074. 123332. 2416. o
3 14 14 420. 503. 1007. <
4 14 14 105587. 102689. 2416. o
5 14 14 21282. 18521. 2114. o
6 14 14 17892. 13991. 3624. o
1 15 14 106970. 104904. 3826. o
2 15 14 29233. 30097. 2617. o
3 15 14 274. -2818. 3925. <
0 1 15 76588. 75307. 1409. o
1 1 15 626208. 636176. 5244. o
1 2 15 3027. 2919. 503. o
2 2 15 101078. 101087. 1712. o
0 3 15 3613. 3825. 705. o
1 3 15 114468. 113576. 1309. o
2 3 15 493. 403. 403. <
3 3 15 507194. 510366. 4637. o
1 4 15 38231. 39561. 906. o
2 4 15 106989. 110249. 1410. o
3 4 15 33076. 35433. 906. o
4 4 15 58283. 58992. 1611. o
0 5 15 51445. 51340. 1510. o
1 5 15 15823. 16810. 705. o
2 5 15 69867. 70974. 1208. o
3 5 15 292390. 289712. 2418. o
4 5 15 73378. 75907. 1409. o
5 5 15 498586. 487596. 5140. o
1 6 15 12474. 12280. 705. o
2 6 15 12662. 13186. 705. o
3 6 15 24692. 23957. 906. o
4 6 15 6056. 5838. 705. o
5 6 15 2413. 2315. 604. o
6 6 15 2598. 2919. 906. o
0 7 15 23795. 24964. 1208. o
1 7 15 31897. 33118. 1007. o
2 7 15 22861. 22044. 906. o
3 7 15 144206. 142476. 1812. o
4 7 15 1400. 1107. 604. <
5 7 15 201313. 202513. 2115. o
6 7 15 9. 503. 604. <
7 7 15 293149. 287662. 3626. o
1 8 15 15996. 16004. 805. o
2 8 15 210022. 211683. 2115. o
3 8 15 39351. 41574. 1208. o
4 8 15 82861. 84263. 1611. o
5 8 15 24764. 25265. 1007. o
6 8 15 5533. 6241. 705. o
7 8 15 319. 1107. 705. <
8 8 15 26634. 25869. 1510. o
0 9 15 81060. 86578. 2315. o
1 9 15 396736. 395240. 3224. o
2 9 15 31944. 31406. 1107. o
3 9 15 133946. 136126. 1812. o
4 9 15 7578. 7952. 805. o
5 9 15 2994. 3020. 705. o
6 9 15 77868. 77516. 1510. o
7 9 15 100714. 100273. 1711. o
8 9 15 48361. 46507. 1309. o
9 9 15 177072. 176512. 3323. o
1 10 15 58551. 59796. 1409. o
2 10 15 17494. 18420. 1007. o
3 10 15 170. 1912. 805. <
4 10 15 327. -1308. 705. <
5 10 15 70238. 73186. 1510. o
6 10 15 11307. 11575. 906. o
7 10 15 20372. 19326. 1007. o
8 10 15 9646. 10066. 1007. o
9 10 15 12130. 11173. 1107. o
10 10 15 2454. 3120. 1711. <
0 11 15 10291. 10971. 1309. o
1 11 15 132332. 133002. 2014. o
2 11 15 4297. 3926. 805. o
3 11 15 28714. 32714. 1208. o
4 11 15 11685. 10368. 906. o
5 11 15 2224. 2214. 805. <
6 11 15 10183. 9764. 906. o
7 11 15 21504. 19125. 1107. o
8 11 15 6073. 4227. 906. o
9 11 15 89133. 84061. 2718. o
10 11 15 14086. 17011. 5435. o
1 12 15 68175. 70266. 1711. o
2 12 15 18475. 19326. 1107. o
3 12 15 6130. 5737. 1007. o
4 12 15 2706. 3422. 1007. o
5 12 15 3204. 1409. 906. <
6 12 15 58603. 56574. 1711. o
7 12 15 1554. -1308. 906. <
8 12 15 78124. 76509. 3020. o
9 12 15 4358. 3120. 5838. <
0 13 15 41. 101. 1308. <
1 13 15 122300. 124641. 2316. o
2 13 15 50209. 46607. 1510. o
3 13 15 158232. 159186. 2618. o
4 13 15 83166. 86376. 2215. o
5 13 15 91391. 89196. 2215. o
6 13 15 3840. 2617. 1812. <
7 13 15 32244. 46002. 8153. o
1 14 15 5890. 8153. 1208. o
2 14 15 50033. 49526. 1913. o
3 14 15 40894. 39963. 2215. o
4 14 15 35629. 31305. 4026. o
5 14 15 13940. 12783. 4932. <
0 0 16 61104. 64329. 3121. o
1 1 16 3829. 6442. 705. o
0 2 16 3114. 3825. 705. o
1 2 16 11. 805. 503. <
2 2 16 410658. 413871. 3930. o
1 3 16 60700. 62919. 1107. o
2 3 16 1286. 2214. 503. o
3 3 16 1085690. 1096080. 8884. o
0 4 16 1144340. 1130820. 9088. o
1 4 16 105. -101. 503. <
2 4 16 367154. 371684. 2821. o
3 4 16 1663. 2214. 604. o
4 4 16 63759. 64932. 1913. o
1 5 16 6304. 8354. 604. o
2 5 16 2448. 2416. 604. o
3 5 16 13249. 15602. 805. o
4 5 16 8701. 9059. 705. o
5 5 16 647548. 635550. 6553. o
0 6 16 648. 2919. 805. o
1 6 16 27004. 26071. 906. o
2 6 16 38213. 40164. 1107. o
3 6 16 43. -1308. 604. <
4 6 16 15751. 16608. 906. o
5 6 16 419. 1610. 705. <
6 6 16 83355. 82753. 2215. o
1 7 16 178407. 178538. 2014. o
2 7 16 2052. 1107. 705. <
3 7 16 234259. 237074. 2518. o
4 7 16 9728. 10066. 805. o
5 7 16 74055. 74496. 1510. o
6 7 16 9134. 9965. 805. o
7 7 16 1002390. 979983. 8777. o
0 8 16 57121. 56776. 1913. o
1 8 16 11566. 11676. 906. o
2 8 16 849474. 843989. 5547. o
3 8 16 850. 604. 705. <
4 8 16 76177. 80637. 1611. o
5 8 16 5669. 4529. 805. o
6 8 16 129240. 128169. 1913. o
7 8 16 140. 503. 705. <
8 8 16 311375. 314454. 4130. o
1 9 16 192156. 190521. 2316. o
2 9 16 1636. 1107. 805. <
3 9 16 364318. 358425. 3224. o
4 9 16 2238. 1107. 705. <
5 9 16 21082. 20434. 1007. o
6 9 16 23904. 23151. 1107. o
7 9 16 509. 604. 805. <
8 9 16 3799. 4127. 906. o
9 9 16 107166. 109133. 2920. o
0 10 16 272100. 268507. 4129. o
1 10 16 1341. 2114. 805. <
2 10 16 3022. 2718. 906. o
3 10 16 12874. 11374. 1007. o
4 10 16 14306. 14897. 1007. o
5 10 16 3477. 3322. 805. o
6 10 16 259585. 256710. 2719. o
7 10 16 10434. 9361. 1007. o
8 10 16 53780. 52547. 1611. o
9 10 16 10720. 8556. 1107. o
10 10 16 8930. 9864. 4831. <
1 11 16 152. 1208. 906. <
2 11 16 16237. 16810. 1107. o
3 11 16 143220. 146194. 2316. o
4 11 16 470. 1711. 805. <
5 11 16 7833. 8354. 1007. o
6 11 16 6142. 5234. 906. o
7 11 16 29249. 26977. 1309. o
8 11 16 69526. 69058. 2114. o
9 11 16 9108. 12481. 3825. o
0 12 16 77. 705. 1308. <
1 12 16 30. -302. 906. <
2 12 16 353715. 350743. 3626. o
3 12 16 23874. 25265. 1409. o
4 12 16 106127. 104099. 2114. o
5 12 16 2644. 2718. 1007. <
6 12 16 411378. 407600. 4130. o
7 12 16 24864. 25064. 2315. o
8 12 16 45516. 36138. 6946. o
1 13 16 338110. 341965. 3727. o
2 13 16 17331. 18622. 1309. o
3 13 16 4832. 5939. 1208. o
4 13 16 31968. 33318. 1812. o
5 13 16 27859. 29694. 2919. o
6 13 16 462. 2416. 3624. <
0 14 16 15249. 16306. 2919. o
1 14 16 24168. 22447. 2114. o
2 14 16 16969. 13287. 2315. o
3 14 16 2721. 3221. 2114. <
0 1 17 6046. 5234. 805. o
1 1 17 63710. 67852. 1812. o
1 2 17 124. 201. 503. <
2 2 17 267792. 270752. 3223. o
0 3 17 662. 302. 805. <
1 3 17 25120. 27078. 906. o
2 3 17 5520. 5435. 604. o
3 3 17 895882. 906197. 7970. o
1 4 17 171. 1409. 604. <
2 4 17 81290. 83560. 1409. o
3 4 17 1440. 1409. 604. <
4 4 17 5379. 7146. 1107. o
0 5 17 4951. 2315. 805. <
1 5 17 96016. 100678. 1611. o
2 5 17 542. 906. 604. <
3 5 17 28189. 28889. 1007. o
4 5 17 8715. 8757. 805. o
5 5 17 30107. 31809. 1611. o
1 6 17 12556. 11575. 805. o
2 6 17 1587. 1308. 705. <
3 6 17 2013. 1812. 705. <
4 6 17 71757. 74194. 1510. o
5 6 17 1551. 2315. 805. <
6 6 17 270454. 270221. 3928. o
0 7 17 1956. 2818. 1007. <
1 7 17 447693. 446477. 3728. o
2 7 17 9623. 9965. 906. o
3 7 17 20032. 23051. 1107. o
4 7 17 20276. 20132. 1007. o
5 7 17 353. 403. 705. <
6 7 17 5766. 6241. 805. o
7 7 17 43443. 43788. 1812. o
1 8 17 3283. 4227. 805. o
2 8 17 202860. 204120. 2417. o
3 8 17 33274. 33419. 1208. o
4 8 17 219892. 223864. 2518. o
5 8 17 11441. 12179. 906. o
6 8 17 156988. 157778. 2114. o
7 8 17 278. 503. 805. <
8 8 17 3898. 1208. 1208. <
0 9 17 7093. 7348. 1208. o
1 9 17 1999. 1610. 805. <
2 9 17 62. 1812. 906. <
3 9 17 796. 1812. 906. <
4 9 17 36870. 36842. 1208. o
5 9 17 8898. 8455. 906. o
6 9 17 11638. 11676. 906. o
7 9 17 10828. 10368. 1007. o
8 9 17 6459. 5838. 906. o
9 9 17 514840. 512586. 6751. o
1 10 17 153. 1208. 906. <
2 10 17 18044. 16810. 1107. o
3 10 17 3780. 2516. 906. <
4 10 17 1074. 1409. 906. <
5 10 17 3484. 2718. 805. o
6 10 17 11390. 11273. 1007. o
7 10 17 6477. 6442. 1007. o
8 10 17 65785. 63420. 1711. o
9 10 17 811. 705. 3120. <
0 11 17 21129. 21138. 1711. o
1 11 17 16639. 16709. 1208. o
2 11 17 143. 604. 906. <
3 11 17 70444. 69159. 1812. o
4 11 17 18991. 16407. 1208. o
5 11 17 28120. 27581. 1309. o
6 11 17 2321. 2718. 1007. <
7 11 17 163494. 163920. 3121. o
8 11 17 33537. 33822. 2617. o
1 12 17 4682. 4731. 1007. o
2 12 17 402583. 399737. 4130. o
3 12 17 3581. 3523. 1107. o
4 12 17 35106. 33721. 1409. o
5 12 17 21372. 21440. 1611. o
6 12 17 6805. 6744. 2718. <
0 13 17 8637. 8153. 1812. o
1 13 17 34621. 31909. 1812. o
2 13 17 10699. 11978. 1812. o
3 13 17 79802. 72180. 3322. o
4 13 17 204. -2516. 3724. <
0 0 18 247052. 262271. 7352. o
1 1 18 57731. 58488. 1812. o
0 2 18 276039. 273268. 3324. o
1 2 18 102317. 106318. 1611. o
2 2 18 87842. 95138. 2215. o
1 3 18 63128. 67348. 1309. o
2 3 18 211517. 212995. 2216. o
3 3 18 177942. 178537. 2820. o
0 4 18 376834. 375994. 4231. o
1 4 18 9526. 8757. 705. o
2 4 18 3911. 4227. 705. o
3 4 18 16303. 17212. 906. o
4 4 18 80656. 86276. 2416. o
1 5 18 522584. 521347. 3830. o
2 5 18 7254. 6744. 705. o
3 5 18 33397. 35030. 1208. o
4 5 18 148. 705. 705. <
5 5 18 568594. 565415. 6551. o
0 6 18 336281. 333431. 4432. o
1 6 18 18491. 18219. 906. o
2 6 18 21970. 24259. 1107. o
3 6 18 85990. 90908. 1711. o
4 6 18 552804. 543421. 4434. o
5 6 18 13466. 13287. 1007. o
6 6 18 5525. 10871. 1308. o
1 7 18 1737. 2516. 805. o
2 7 18 238840. 238177. 2719. o
3 7 18 8027. 9160. 906. o
4 7 18 18525. 19326. 1107. o
5 7 18 45009. 44694. 1309. o
6 7 18 90707. 91814. 1812. o
7 7 18 325161. 322723. 4432. o
0 8 18 11003. 13689. 1409. o
1 8 18 28807. 28185. 1208. o
2 8 18 21624. 23151. 1208. o
3 8 18 78672. 80738. 1711. o
4 8 18 31034. 29997. 1208. o
5 8 18 473. 1007. 805. <
6 8 18 58. 1711. 805. <
7 8 18 53261. 50634. 1510. o
8 8 18 19231. 17917. 1611. o
1 9 18 140634. 142569. 2416. o
2 9 18 214. -1409. 805. <
3 9 18 14130. 16709. 1107. o
4 9 18 1235. 1711. 805. <
5 9 18 395549. 393490. 3627. o
6 9 18 717. 2818. 906. o
7 9 18 47701. 44292. 1409. o
8 9 18 11486. 11475. 1107. o
9 9 18 158295. 154957. 7652. o
0 10 18 1280940. 1278250. 12112. o
1 10 18 13951. 12481. 1107. o
2 10 18 11346. 12280. 1208. o
3 10 18 14469. 12280. 1107. o
4 10 18 154986. 151936. 2517. o
5 10 18 2. -403. 906. <
6 10 18 142596. 139950. 2215. o
7 10 18 17277. 16306. 1107. o
8 10 18 207248. 191627. 5035. o
1 11 18 90194. 90605. 2114. o
2 11 18 63876. 60299. 1812. o
3 11 18 17086. 16306. 1208. o
4 11 18 8784. 9260. 1107. o
5 11 18 187148. 186484. 2719. o
6 11 18 126359. 120111. 3624. o
7 11 18 15004. 11475. 2416. o
0 12 18 4327. 5435. 1510. o
1 12 18 28742. 28285. 1510. o
2 12 18 18650. 16810. 1309. o
3 12 18 42472. 38554. 1913. o
4 12 18 9625. 8656. 1711. o
5 12 18 25350. 23957. 3221. o
1 13 18 33. -2718. 2818. <
2 13 18 5721. 3221. 3422. <
0 1 19 8126. 8354. 1107. o
1 1 19 32091. 32715. 1611. o
1 2 19 7222. 7046. 805. o
2 2 19 443047. 447689. 5240. o
0 3 19 78594. 78021. 2114. o
1 3 19 45798. 48520. 1309. o
2 3 19 1524. 705. 705. <
3 3 19 172636. 173799. 3122. o
1 4 19 48392. 47715. 1208. o
2 4 19 17265. 18118. 906. o
3 4 19 20200. 20333. 1107. o
4 4 19 84620. 87384. 2517. o
0 5 19 70259. 73892. 2215. o
1 5 19 504520. 500239. 3930. o
2 5 19 24883. 22749. 1007. o
3 5 19 45744. 45097. 1409. o
4 5 19 47423. 48419. 1510. o
5 5 19 1016. 403. 1107. <
1 6 19 600. 604. 705. <
2 6 19 87609. 89196. 1812. o
3 6 19 1063. 1107. 805. <
4 6 19 2394. 4026. 906. o
5 6 19 15665. 16508. 1107. o
6 6 19 89638. 94028. 2819. o
0 7 19 41012. 40164. 2013. o
1 7 19 483101. 486185. 4434. o
2 7 19 72. -101. 805. <
3 7 19 190. 705. 805. <
4 7 19 25028. 24158. 1208. o
5 7 19 18765. 19628. 1208. o
6 7 19 100873. 98964. 1913. o
7 7 19 69690. 66441. 2315. o
1 8 19 86845. 88088. 1913. o
2 8 19 32023. 34828. 1409. o
3 8 19 35365. 36037. 1309. o
4 8 19 161955. 160599. 2417. o
5 8 19 25629. 23655. 1208. o
6 8 19 1719. 2416. 906. <
7 8 19 23907. 21843. 1208. o
8 8 19 115379. 117390. 3222. o
0 9 19 9024. 8757. 1510. o
1 9 19 3750. 3523. 1007. o
2 9 19 15916. 16105. 1208. o
3 9 19 82557. 83557. 2013. o
4 9 19 77475. 75704. 1913. o
5 9 19 208387. 201799. 2618. o
6 9 19 1039. 503. 906. <
7 9 19 19905. 17212. 1208. o
8 9 19 66608. 65736. 2919. o
1 10 19 7072. 6039. 1107. o
2 10 19 89. -705. 1007. <
3 10 19 45308. 46104. 1611. o
4 10 19 1275. 1007. 1007. <
5 10 19 11995. 12280. 1107. o
6 10 19 6799. 6341. 1309. o
7 10 19 1488. -503. 1812. <
0 11 19 2172. 3221. 1711. <
1 11 19 8008. 6442. 1208. o
2 11 19 10680. 9059. 1208. o
3 11 19 248845. 237164. 3223. o
4 11 19 26766. 23051. 1711. o
5 11 19 351535. 336836. 6648. o
6 11 19 1348. 7046. 4630. <
1 12 19 72268. 70468. 4329. o
2 12 19 5450. 6643. 2315. <
3 12 19 48743. 49828. 6644. o
0 0 20 3955220. 3936350. 63201. o
1 1 20 152399. 151840. 2920. o
0 2 20 29335. 31305. 1711. o
1 2 20 394. 1007. 805. <
2 2 20 503327. 500337. 6349. o
1 3 20 110970. 112056. 2014. o
2 3 20 7957. 7348. 906. o
3 3 20 207923. 207445. 3424. o
0 4 20 347403. 359924. 4432. o
1 4 20 10952. 13286. 906. o
2 4 20 46278. 47513. 1409. o
3 4 20 10556. 11676. 1007. o
4 4 20 889845. 877857. 9682. o
1 5 20 674426. 673503. 5141. o
2 5 20 7. -201. 805. <
3 5 20 8841. 8254. 1007. o
4 5 20 3321. 2114. 906. <
5 5 20 624596. 633281. 7761. o
0 6 20 217085. 219430. 3827. o
1 6 20 3470. 3322. 906. o
2 6 20 19321. 17917. 1208. o
3 6 20 2820. 1812. 906. <
4 6 20 2080. 3422. 906. o
5 6 20 18200. 18722. 1208. o
6 6 20 398929. 401048. 5843. o
1 7 20 31922. 32614. 1409. o
2 7 20 4013. 4429. 1007. o
3 7 20 798930. 794241. 6251. o
4 7 20 7483. 7851. 1107. o
5 7 20 8761. 11072. 1107. o
6 7 20 7556. 7146. 1007. o
7 7 20 126962. 124542. 3020. o
0 8 20 238680. 238874. 4230. o
1 8 20 3088. 2416. 1007. <
2 8 20 429123. 425658. 4332. o
3 8 20 1930. 1610. 1007. <
4 8 20 19406. 18924. 1208. o
5 8 20 3022. 2718. 1007. <
6 8 20 103734. 100071. 2114. o
7 8 20 20101. 18018. 1208. o
8 8 20 40825. 30601. 4228. o
1 9 20 42304. 42781. 1711. o
2 9 20 41560. 37044. 1510. o
3 9 20 56266. 57580. 1812. o
4 9 20 628. -403. 1007. <
5 9 20 528553. 521670. 4635. o
6 9 20 7884. 7348. 1208. o
7 9 20 62875. 57380. 2919. o
0 10 20 214610. 221639. 4733. o
1 10 20 2240. 2617. 1107. <
2 10 20 178824. 181144. 2920. o
3 10 20 19852. 19427. 1309. o
4 10 20 226200. 215602. 3525. o
5 10 20 860. 705. 1711. <
6 10 20 180007. 189602. 9163. o
1 11 20 2510. 3322. 2013. <
2 11 20 7366. 6643. 2013. o
3 11 20 5365. 1107. 2315. <
4 11 20 26183. 25265. 6442. o
0 1 21 5651. 4831. 1208. o
1 1 21 14044. 13085. 1409. o
1 2 21 330. 0. 805. <
2 2 21 17232. 18420. 1611. o
0 3 21 4608. 6442. 1308. o
1 3 21 219107. 218425. 2719. o
2 3 21 1692. 1912. 906. <
3 3 21 5108. 6241. 1409. o
1 4 21 1349. 201. 906. <
2 4 21 8831. 7448. 1007. o
3 4 21 17960. 18521. 1309. o
4 4 21 27996. 28486. 1913. o
0 5 21 7036. 3926. 1309. o
1 5 21 133025. 137029. 2316. o
2 5 21 7846. 8455. 1107. o
3 5 21 17. 1007. 906. <
4 5 21 478. -604. 906. <
5 5 21 18232. 16810. 1711. o
1 6 21 2116. 2919. 906. o
2 6 21 21100. 21843. 1309. o
3 6 21 546. 2013. 1007. <
4 6 21 13903. 13890. 1208. o
5 6 21 1089. 503. 1007. <
6 6 21 12689. 13286. 1711. o
0 7 21 33533. 33318. 2114. o
1 7 21 13159. 15300. 1309. o
2 7 21 273. -403. 1007. <
3 7 21 169422. 168958. 2719. o
4 7 21 15811. 15098. 1208. o
5 7 21 171143. 169260. 2618. o
6 7 21 5425. 5335. 1107. o
7 7 21 6881. 8958. 1912. o
1 8 21 210. 503. 1007. <
2 8 21 122987. 124641. 2517. o
3 8 21 3092. 4328. 1107. o
4 8 21 11981. 13186. 1208. o
5 8 21 907. -805. 906. <
6 8 21 41010. 42077. 1812. o
7 8 21 38383. 32614. 6543. o
0 9 21 12701. 11676. 1812. o
1 9 21 20382. 18219. 1409. o
2 9 21 8990. 10066. 1309. o
3 9 21 1308. 2416. 1107. <
4 9 21 581. 906. 1308. <
5 9 21 171013. 163419. 5034. o
6 9 21 960. 101. 2617. <
1 10 21 2887. 4227. 1711. <
2 10 21 5730. 5637. 1711. o
3 10 21 5771. 3926. 2818. <
4 10 21 140611. 134311. 6645. o
0 0 22 132736. 136224. 5940. o
1 1 22 5930. 8052. 1409. o
0 2 22 69422. 68757. 2517. o
1 2 22 23544. 23252. 1208. o
2 2 22 45274. 42077. 2114. o
1 3 22 97186. 98460. 2114. o
2 3 22 32972. 32815. 1409. o
3 3 22 157. 1510. 1510. <
0 4 22 47909. 48520. 2416. o
1 4 22 108. 0. 906. <
2 4 22 10552. 11676. 1208. o
3 4 22 734. 302. 1007. <
4 4 22 3586. 2919. 1510. <
1 5 22 9356. 10166. 1309. o
2 5 22 9368. 7046. 1208. o
3 5 22 6342. 7549. 1107. o
4 5 22 6. 604. 1007. <
5 5 22 31700. 28084. 2013. o
0 6 22 30573. 27782. 2416. o
1 6 22 3042. 2516. 1208. <
2 6 22 22492. 22145. 1409. o
3 6 22 33616. 32513. 1510. o
4 6 22 121726. 129172. 2618. o
5 6 22 10220. 10669. 1208. o
6 6 22 14686. 15098. 1912. o
1 7 22 580. 906. 1107. <
2 7 22 70388. 72682. 2114. o
3 7 22 120188. 122728. 2718. o
4 7 22 12. -101. 1107. <
5 7 22 38390. 37245. 1611. o
6 7 22 28592. 27983. 2315. o
0 8 22 2985. 2114. 1610. <
1 8 22 675. 1409. 1107. <
2 8 22 26689. 27379. 1611. o
3 8 22 5416. 4328. 1208. o
4 8 22 36397. 37949. 2315. o
5 8 22 564. -906. 1812. <
1 9 22 15957. 16709. 2114. o
2 9 22 9152. 5939. 1812. o
3 9 22 2388. -1208. 3624. <
0 1 23 172019. 173188. 3726. o
1 1 23 98168. 96446. 3020. o
1 2 23 1089. 2516. 1007. <
2 2 23 152036. 155359. 3625. o
0 3 23 10013. 9864. 1610. o
1 3 23 79561. 75805. 2013. o
2 3 23 193. 0. 1007. <
3 3 23 90762. 93122. 3423. o
1 4 23 113584. 114269. 2618. o
2 4 23 31112. 32916. 1711. o
3 4 23 37724. 35533. 1711. o
4 4 23 162129. 161705. 4330. o
0 5 23 190258. 203201. 4632. o
1 5 23 90980. 93223. 2617. o
2 5 23 57305. 56373. 2114. o
3 5 23 27739. 25366. 1611. o
4 5 23 108417. 107321. 2517. o
5 5 23 143088. 139548. 4027. o
1 6 23 37354. 36943. 1913. o
2 6 23 123525. 125648. 3121. o
3 6 23 35190. 35835. 1711. o
4 6 23 1838. 3724. 1208. o
5 6 23 67101. 69662. 3121. o
0 7 23 551. 1308. 2214. <
1 7 23 3285. 5133. 1510. o
2 7 23 2862. 2818. 1409. <
3 7 23 148087. 138542. 4430. o
4 7 23 1203. 1107. 1711. <
5 7 23 121100. 114170. 7752. o
1 8 23 7711. 9260. 2214. o
2 8 23 27588. 26977. 2718. o
3 8 23 52212. 47815. 5235. o
0 0 24 46190. 49526. 5436. o
1 1 24 16397. 18823. 1812. o
0 2 24 35429. 34728. 2315. o
1 2 24 77. -1409. 1007. <
2 2 24 500356. 487181. 7053. o
1 3 24 98095. 98459. 2316. o
2 3 24 2632. 2013. 1208. <
3 3 24 909363. 900080. 11497. o
0 4 24 894840. 899045. 12303. o
1 4 24 397. 2013. 1308. <
2 4 24 302459. 304471. 4331. o
3 4 24 9377. 9361. 1309. o
4 4 24 391. 3020. 1912. <
1 5 24 37560. 33319. 1913. o
2 5 24 1308. 1510. 1308. <
3 5 24 292. 3523. 1510. <
4 5 24 933. 0. 2114. <
1 6 24 5993. 4429. 3422. <
2 6 24 57867. 48118. 4329. o
3 6 24 794. 4026. 3020. <
4 6 24 311. -3322. 3020. <
1 7 24 240619. 232124. 10373. o
0 1 25 61407. 58688. 2919. o
1 1 25 116971. 111350. 3524. o
1 2 25 789. -1107. 1007. <
2 2 25 29830. 29694. 2416. o
0 3 25 2979. 1510. 1711. <
1 3 25 16201. 16508. 1610. o
2 3 25 4209. 2818. 1510. <
3 3 25 315562. 311126. 8259. o
1 4 25 14799. 12280. 2013. o
2 4 25 1141. 2315. 2114. <
3 4 25 25965. 19930. 3523. o
1 5 25 1140. 5536. 2919. <
1 1 26 13774. 23453. 6341. o
0 2 26 4407. 805. 4227. <
1 2 26 2285. 2516. 2416. <
