#------------------------------------------------------------------------------
#$Date: 2015-09-05 23:34:09 +0300 (Sat, 05 Sep 2015) $
#$Revision: 154543 $
#$URL: svn://www.crystallography.net/cod/cif/4/51/33/4513302.cif $
#------------------------------------------------------------------------------
#
# This file is available in the Crystallography Open Database (COD),
# http://www.crystallography.net/
#
# All data on this site have been placed in the public domain by the
# contributors.
#
data_4513302
loop_
_publ_author_name
'Lusi, Matteo'
'Vitorica-Yrezabal, Inigo J.'
'Zaworotko, Michael J.'
_publ_section_title
;
 Expanding the Scope of Molecular Mixed Crystals Enabled by Three
 Component Solid Solutions
;
_journal_issue                   8
_journal_name_full               'Crystal Growth &amp; Design'
_journal_page_first              4098
_journal_paper_doi               10.1021/acs.cgd.5b00685
_journal_volume                  15
_journal_year                    2015
_chemical_formula_sum            'C14 H10'
_chemical_formula_weight         178.22
_chemical_name_systematic
;
 ?
;
_space_group_crystal_system      monoclinic
_space_group_IT_number           14
_space_group_name_Hall           '-P 2ybc'
_space_group_name_H-M_alt        'P 1 21/c 1'
_symmetry_space_group_name_Hall  '-P 2ybc'
_symmetry_space_group_name_H-M   'P 1 21/c 1'
_atom_sites_solution_hydrogens   geom
_audit_creation_method           SHELXL-2014
_cell_angle_alpha                90
_cell_angle_beta                 102.4870(10)
_cell_angle_gamma                90
_cell_formula_units_Z            2
_cell_length_a                   9.2838(6)
_cell_length_b                   5.9992(4)
_cell_length_c                   8.4210(6)
_cell_measurement_temperature    100(2)
_cell_volume                     457.92(5)
_computing_structure_refinement  'SHELXL-2014 (Sheldrick, 2014)'
_diffrn_ambient_temperature      100(2)
_diffrn_measured_fraction_theta_full 0.995
_diffrn_measured_fraction_theta_max 0.997
_diffrn_radiation_type           MoK\a
_diffrn_radiation_wavelength     0.71073
_diffrn_reflns_av_R_equivalents  0.0387
_diffrn_reflns_av_unetI/netI     0.0305
_diffrn_reflns_laue_measured_fraction_full 0.995
_diffrn_reflns_laue_measured_fraction_max 0.997
_diffrn_reflns_limit_h_max       15
_diffrn_reflns_limit_h_min       -14
_diffrn_reflns_limit_k_max       9
_diffrn_reflns_limit_k_min       -10
_diffrn_reflns_limit_l_max       14
_diffrn_reflns_limit_l_min       -13
_diffrn_reflns_number            12015
_diffrn_reflns_point_group_measured_fraction_full 0.995
_diffrn_reflns_point_group_measured_fraction_max 0.997
_diffrn_reflns_theta_full        25.242
_diffrn_reflns_theta_max         36.333
_diffrn_reflns_theta_min         4.073
_exptl_absorpt_coefficient_mu    0.073
_exptl_absorpt_correction_T_max  0.75
_exptl_absorpt_correction_T_min  0.71
_exptl_absorpt_correction_type   multi-scan
_exptl_absorpt_process_details   sadabs
_exptl_crystal_colour            colourless
_exptl_crystal_density_diffrn    1.293
_exptl_crystal_description       prism
_exptl_crystal_F_000             188
_refine_diff_density_max         0.556
_refine_diff_density_min         -0.257
_refine_diff_density_rms         0.061
_refine_ls_extinction_method     none
_refine_ls_goodness_of_fit_ref   1.053
_refine_ls_hydrogen_treatment    constr
_refine_ls_matrix_type           full
_refine_ls_number_parameters     64
_refine_ls_number_reflns         2209
_refine_ls_number_restraints     0
_refine_ls_restrained_S_all      1.053
_refine_ls_R_factor_all          0.0695
_refine_ls_R_factor_gt           0.0482
_refine_ls_shift/su_max          0.000
_refine_ls_shift/su_mean         0.000
_refine_ls_structure_factor_coef Fsqd
_refine_ls_weighting_details
'w=1/[\s^2^(Fo^2^)+(0.0756P)^2^+0.0916P] where P=(Fo^2^+2Fc^2^)/3'
_refine_ls_weighting_scheme      calc
_refine_ls_wR_factor_gt          0.1264
_refine_ls_wR_factor_ref         0.1382
_reflns_Friedel_coverage         0.000
_reflns_number_gt                1685
_reflns_number_total             2209
_reflns_threshold_expression     'I > 2\s(I)'
_cod_data_source_file            cg5b00685_si_017.cif
_cod_data_source_block           H:\#16
_cod_depositor_comments
'Adding full bibliography for 4513301--4513322.cif.'
_cod_database_code               4513302
_shelx_space_group_comment
;
The symmetry employed for this shelxl refinement is uniquely defined
by the following loop, which should always be used as a source of
symmetry information in preference to the above space-group names.
They are only intended as comments.
;
_shelxl_version_number           2014-3
_shelx_res_file
;
TITL ml040a in P2(1)/c
CELL 0.71073 9.2838 5.9992 8.4210 90.000 102.487 90.000
ZERR 2.0000 0.0006 0.0004 0.0006 0.000 0.001 0.000
LATT 1
SYMM -X, 0.5+Y, 0.5-Z
SFAC C H
UNIT 28 20
MERG 2
FMAP 2
GRID
PLAN 5
TEMP -173
BOND
L.S. 20
ACTA
WGHT    0.075600    0.091600
FVAR       0.56473
C1    1    0.450828    0.211371    0.538035    11.00000    0.01314    0.00953 =
         0.01272   -0.00035    0.00386    0.00054
AFIX  43
H1    2    0.417849    0.354105    0.563742    11.00000   -1.20000
AFIX   0
C2    1    0.589529    0.134300    0.620282    11.00000    0.01227    0.01080 =
         0.01051   -0.00026    0.00346   -0.00032
C3    1    0.682794    0.264499    0.743369    11.00000    0.01519    0.01372 =
         0.01295   -0.00242    0.00386   -0.00170
AFIX  43
H3    2    0.650632    0.407096    0.770462    11.00000   -1.20000
AFIX   0
C4    1    0.817647    0.186449    0.822572    11.00000    0.01525    0.01952 =
         0.01467   -0.00225    0.00128   -0.00276
AFIX  43
H4    2    0.877752    0.274381    0.904849    11.00000   -1.20000
AFIX   0
C5    1    0.360017    0.081432    0.418552    11.00000    0.01172    0.01073 =
         0.01093    0.00084    0.00329    0.00041
C6    1    0.217248    0.155988    0.334575    11.00000    0.01263    0.01472 =
         0.01627    0.00165    0.00305    0.00196
AFIX  43
H6    2    0.181807    0.297046    0.360377    11.00000   -1.20000
AFIX   0
C7    1    0.131374    0.026301    0.217629    11.00000    0.01286    0.02024 =
         0.01709    0.00147    0.00151    0.00051
AFIX  43
H7    2    0.037057    0.078259    0.162740    11.00000   -1.20000
AFIX   0
HKLF 4

REM  ml040a in P2(1)/c
REM R1 =  0.0482 for    1685 Fo > 4sig(Fo)  and  0.0695 for all    2209 data
REM     64 parameters refined using      0 restraints

END

WGHT      0.0756      0.0916

REM Highest difference peak  0.556,  deepest hole -0.257,  1-sigma level  0.061
Q1    1   0.5233  0.1718  0.5779  11.00000  0.05    0.56
Q2    1   0.1812  0.0846  0.2764  11.00000  0.05    0.54
Q3    1   0.7571  0.2294  0.7852  11.00000  0.05    0.50
Q4    1   0.4053  0.1487  0.4799  11.00000  0.05    0.49
Q5    1   0.2878  0.1156  0.3784  11.00000  0.05    0.44
;
_shelx_res_checksum              35590
_shelx_hkl_file
;
   0   0   2  271.47    4.69
   0   0   2  285.17    4.80
   0   0   2  294.38    4.73
   0   0  -2  286.41    4.84
   0   0  -2  285.22    4.69
   0   0  -2  276.07    4.69
   0   0   3   -0.04    0.09
   0   0   3   -0.03    0.06
   0   0  -3   -0.08    0.05
   0   0  -3    0.07    0.08
   0   0  -4    1.89    0.20
   0   0  -4    1.89    0.13
   0   0   4    2.05    0.17
   0   0   4    1.96    0.22
   0   0  -5    0.13    0.12
   0   0  -5   -0.11    0.08
   0   0   5   -0.21    0.10
   0   0   5    0.00    0.14
   0   0  -6    6.48    0.37
   0   0   6    6.56    0.44
   0   0   6    6.60    0.33
   0   0   7   -0.08    0.16
   0   0  -7   -0.14    0.20
   0   0   7   -0.10    0.25
   0   0   8    0.35    0.20
   0   0   8    0.41    0.28
   0   0  -8    1.12    0.30
   0   0   9    0.29    0.31
   0   0 -10    5.11    0.80
   0   0  10    3.87    0.56
   0   0  11    0.24    0.58
   0   0  12    2.23    0.67
   0   0  13    0.69    0.79
   0   1   0   -0.26    0.04
   0  -1   0   -0.14    0.05
   0  -1   0   -0.34    0.04
   0  -1   0   -0.25    0.06
   0   1  -1  193.74    3.31
   0   1   1  193.87    3.31
   0   1   1  192.61    3.30
   0  -1   1  197.67    3.31
   0  -1   1  195.04    3.31
   0  -1   1  200.92    3.35
   0  -1  -1  197.56    3.34
   0  -1   1  195.77    3.36
   0  -1  -1  192.54    3.31
   0   1   2   45.04    0.85
   0   1   2   45.42    0.92
   0  -1   2   44.77    0.90
   0  -1  -2   45.48    0.91
   0  -1   2   43.64    0.90
   0  -1   2   45.63    0.87
   0  -1   2   43.42    0.90
   0  -1  -2   44.51    0.83
   0   1  -3    4.55    0.22
   0   1   3    4.81    0.19
   0   1   3    4.54    0.25
   0  -1  -3    4.45    0.16
   0  -1   3    4.52    0.23
   0  -1  -3    4.39    0.25
   0  -1   3    4.64    0.28
   0  -1   3    4.52    0.26
   0  -1   3    4.59    0.22
   0   1  -4  128.37    2.33
   0   1   4  126.73    2.44
   0   1   4  132.62    2.29
   0  -1   4  126.64    2.43
   0  -1   4  131.92    2.35
   0  -1  -4  127.97    2.39
   0  -1   4  127.05    2.36
   0   1  -5  104.35    2.02
   0   1   5  109.27    1.96
   0   1   5  107.49    2.18
   0  -1   5  107.21    2.17
   0  -1  -5  107.66    2.09
   0  -1   5  107.99    2.05
   0  -1   5  106.24    2.00
   0   1  -6    1.93    0.29
   0   1  -6    1.91    0.28
   0   1   6    1.82    0.23
   0   1   6    2.62    0.34
   0  -1   6    2.09    0.31
   0  -1   6    1.86    0.29
   0  -1   6    2.23    0.27
   0  -1  -6    2.03    0.31
   0   1  -7    5.89    0.42
   0   1   7    5.99    0.53
   0   1  -7    5.67    0.40
   0   1   7    5.84    0.34
   0  -1   7    5.83    0.51
   0  -1   7    5.77    0.39
   0  -1  -7    5.80    0.47
   0   1  -8    1.59    0.33
   0   1   8    1.43    0.22
   0   1   8    1.73    0.30
   0  -1   8    1.44    0.29
   0  -1  -8    1.61    0.35
   0  -1   8    1.21    0.25
   0   1  -9    2.78    0.47
   0   1   9    2.96    0.42
   0  -1   9    2.24    0.34
   0  -1  -9    2.38    0.45
   0  -1   9    3.02    0.41
   0   1  10   78.39    2.16
   0  -1  10   81.10    2.18
   0  -1 -10   80.69    2.18
   0   1  11    1.84    0.59
   0  -1  11    2.96    0.62
   0   1  12    0.55    0.63
   0  -1  12    1.14    0.65
   0   1  13    1.13    1.07
   0  -1  13   -0.44    0.73
   0   2   0  251.51    4.34
   0  -2   0  254.88    4.41
   0  -2   0  255.31    4.46
   0  -2   0  260.54    4.41
   0   2  -1   23.67    0.55
   0   2   1   23.73    0.56
   0   2   1   23.22    0.57
   0  -2  -1   23.72    0.60
   0  -2   1   22.77    0.62
   0  -2   1   23.14    0.60
   0  -2  -1   23.62    0.58
   0  -2  -1   22.95    0.61
   0  -2   1   23.30    0.57
   0   2   2    0.01    0.11
   0   2   2    0.10    0.09
   0   2  -2   -0.03    0.10
   0  -2  -2   -0.14    0.11
   0  -2   2    0.00    0.10
   0  -2  -2    0.00    0.11
   0  -2   2   -0.18    0.11
   0  -2   2    0.05    0.10
   0  -2   2    0.08    0.10
   0   2   3    9.66    0.38
   0   2   3   10.33    0.34
   0  -2   3    9.24    0.38
   0  -2  -3    9.44    0.34
   0  -2  -3   10.13    0.40
   0  -2   3   10.15    0.38
   0  -2   3   10.10    0.36
   0   2   4    6.16    0.27
   0  -2   4    5.97    0.34
   0  -2  -4    5.98    0.27
   0  -2   4    6.42    0.36
   0  -2   4    5.94    0.32
   0  -2   4    5.97    0.34
   0  -2  -4    6.15    0.34
   0   2   5   15.00    0.44
   0   2   5   13.65    0.58
   0   2  -5   14.54    0.50
   0  -2   5   14.89    0.50
   0  -2   5   14.47    0.57
   0  -2   5   14.02    0.52
   0  -2  -5   14.09    0.39
   0  -2  -5   14.38    0.55
   0  -2   5   14.94    0.66
   0   2   6   11.91    0.41
   0  -2   6   10.98    0.50
   0  -2   6   11.34    0.58
   0  -2   6   11.69    0.49
   0  -2  -6   11.01    0.53
   0   2  -7    0.20    0.22
   0   2  -7    0.25    0.24
   0   2   7   -0.04    0.16
   0   2   7    0.21    0.24
   0  -2  -7    0.94    0.29
   0  -2   7   -0.05    0.24
   0  -2   7    0.19    0.21
   0  -2   7    0.31    0.22
   0   2   8    1.53    0.31
   0   2  -8    1.30    0.33
   0  -2   8    1.67    0.31
   0  -2   8    1.39    0.30
   0  -2  -8    0.82    0.35
   0   2   9    9.35    0.68
   0   2  -9    9.63    0.83
   0  -2   9    8.29    0.82
   0  -2  -9    9.16    0.78
   0  -2   9   10.68    0.72
   0   2  10   26.55    1.21
   0  -2 -10   25.33    1.10
   0   2  11   22.11    1.28
   0  -2  11   18.63    1.22
   0   2  12    0.82    0.68
   0  -2  12    0.43    0.65
   0   2  13    0.51    0.85
   0  -2  13    1.57    0.81
   0   3   0   -0.11    0.10
   0   3   0   -0.06    0.10
   0  -3   0    0.15    0.12
   0  -3   0   -0.08    0.10
   0  -3   0   -0.04    0.13
   0   3   1   79.61    1.60
   0   3  -1   80.76    1.54
   0   3   1   79.54    1.54
   0  -3   1   79.89    1.60
   0  -3  -1   76.45    1.64
   0  -3  -1   77.53    1.62
   0  -3  -1   79.97    1.61
   0  -3   1   77.45    1.63
   0  -3   1   78.47    1.69
   0   3   2    1.10    0.18
   0   3  -2    0.88    0.15
   0   3   2    0.88    0.15
   0  -3   2    1.02    0.29
   0  -3  -2    0.88    0.21
   0  -3   2    0.73    0.16
   0   3   3    6.56    0.35
   0   3  -3    6.45    0.34
   0   3   3    6.35    0.32
   0  -3   3    6.44    0.37
   0  -3  -3    6.36    0.35
   0  -3  -3    6.40    0.38
   0  -3   3    6.25    0.33
   0  -3   3    6.41    0.38
   0  -3   3    5.92    0.34
   0   3   4   52.99    1.25
   0   3  -4   50.69    1.22
   0   3   4   54.11    1.16
   0  -3   4   52.62    1.31
   0  -3   4   52.43    1.20
   0  -3   4   53.72    1.27
   0  -3  -4   52.17    1.17
   0  -3   4   54.52    1.49
   0  -3  -4   52.87    1.29
   0   3  -5    0.05    0.20
   0   3   5   -0.01    0.14
   0   3   5    0.19    0.20
   0  -3   5    0.35    0.19
   0  -3  -5    0.31    0.19
   0  -3   5   -0.02    0.16
   0  -3   5    0.11    0.20
   0  -3  -5    0.21    0.22
   0  -3   5    0.07    0.19
   0   3   6   17.56    0.55
   0   3   6   17.73    0.93
   0   3  -6   16.87    0.65
   0  -3   6   17.82    0.73
   0  -3  -6   15.64    0.84
   0  -3   6   17.36    0.70
   0  -3   6   17.22    0.62
   0   3  -7    0.36    0.27
   0   3   7    0.22    0.33
   0   3   7    0.27    0.18
   0  -3   7    0.36    0.28
   0  -3   7    0.12    0.25
   0  -3  -7    0.35    0.28
   0  -3   7    0.22    0.27
   0   3   8    0.44    0.31
   0   3  -8   -0.02    0.37
   0   3  -8   -0.05    0.37
   0  -3   8    0.51    0.27
   0  -3   8   -0.11    0.33
   0  -3   8   -0.16    0.28
   0  -3  -8    0.37    0.35
   0   3   9    2.92    0.50
   0  -3   9    4.53    0.63
   0  -3  -9    3.84    0.63
   0   3  10    2.93    0.65
   0  -3 -10    2.55    0.57
   0  -3  10    3.38    0.53
   0   3  11   14.07    1.14
   0  -3  11   14.38    1.34
   0   3  12    0.69    0.71
   0  -3  12    0.41    0.80
   0   3  13   -0.22    0.96
   0   3 -13   -0.70    1.07
   0  -3  13    1.30    0.96
   0   4   0    0.46    0.17
   0   4   0    0.48    0.15
   0  -4   0    0.55    0.19
   0  -4   0    0.35    0.17
   0  -4   0    0.77    0.19
   0   4   1   49.73    1.13
   0   4  -1   49.63    1.12
   0   4   1   52.03    1.24
   0   4  -1   51.73    1.28
   0  -4   1   52.28    1.34
   0  -4  -1   50.47    1.23
   0  -4   1   50.70    1.23
   0  -4  -1   50.35    1.29
   0  -4  -1   51.17    1.26
   0  -4   1   51.24    1.27
   0   4  -2   19.74    0.62
   0   4   2   19.51    0.65
   0  -4   2   19.07    0.71
   0  -4   2   19.68    0.75
   0  -4  -2   19.01    0.70
   0  -4  -2   19.73    0.71
   0  -4   2   20.23    0.67
   0   4  -3   20.40    0.67
   0   4   3   20.53    0.67
   0   4   3   20.21    0.66
   0  -4  -3   19.74    0.72
   0  -4   3   20.14    0.80
   0  -4   3   20.82    0.76
   0  -4   3   20.76    0.69
   0  -4  -3   20.56    0.76
   0   4  -4  133.96    2.65
   0   4   4  131.89    2.62
   0   4   4  135.46    2.67
   0  -4   4  132.18    2.76
   0  -4  -4  132.80    2.65
   0  -4   4  137.91    2.85
   0  -4  -4  126.87    3.10
   0  -4   4  133.06    2.63
   0   4  -5   11.80    0.62
   0   4   5   10.38    0.49
   0   4   5   10.53    0.63
   0  -4   5   11.78    0.55
   0  -4   5   11.50    0.63
   0  -4  -5   11.16    0.61
   0  -4  -5   11.03    0.67
   0  -4   5   11.09    0.73
   0  -4   5   10.30    0.77
   0   4   6   10.89    0.63
   0   4  -6   10.49    0.64
   0   4   6   11.04    0.50
   0  -4   6   10.83    0.60
   0  -4   6   10.50    0.62
   0  -4   6   11.44    0.60
   0  -4  -6   11.27    0.72
   0  -4  -6   11.37    0.63
   0   4  -7    4.97    0.55
   0   4  -7    5.01    0.63
   0   4   7    5.00    0.64
   0   4   7    6.76    0.56
   0  -4   7    5.86    0.57
   0  -4  -7    6.25    0.55
   0  -4   7    4.37    0.63
   0  -4   7    6.13    0.53
   0  -4   7    6.52    0.55
   0   4   8    0.74    0.37
   0   4  -8    1.28    0.50
   0   4  -8    0.84    0.36
   0  -4   8   -0.20    0.36
   0  -4  -8    0.52    0.35
   0  -4   8    0.31    0.33
   0  -4   8   -0.27    0.30
   0  -4   8    0.54    0.34
   0   4   9    6.77    0.80
   0   4  -9    5.70    0.67
   0  -4  -9    6.38    0.97
   0  -4   9    4.77    0.74
   0  -4   9    7.27    0.64
   0   4  10    3.44    0.70
   0   4 -10    3.37    1.15
   0  -4  10    4.62    1.16
   0  -4 -10    7.11    1.02
   0  -4  10    4.29    0.53
   0   4  11    3.20    0.73
   0   4 -11    3.77    0.82
   0  -4  11    3.00    0.69
   0  -4 -11    2.70    0.90
   0   4 -12    0.38    0.87
   0   4  12    0.78    0.83
   0   5   0   -0.05    0.39
   0   5   0   -0.03    0.19
   0  -5   0    0.21    0.31
   0   5  -1    2.90    0.36
   0   5  -1    4.33    0.46
   0   5   1    2.99    0.35
   0   5   1    3.58    0.43
   0  -5   1    3.13    0.45
   0  -5  -1    4.09    0.51
   0  -5  -1    3.86    0.46
   0  -5   1    2.76    0.46
   0  -5  -1    3.59    0.45
   0   5  -2    0.26    0.21
   0   5   2    0.20    0.22
   0   5   2    0.30    0.21
   0   5  -2    0.47    0.24
   0  -5   2    0.48    0.28
   0  -5  -2    0.57    0.28
   0  -5  -2    0.30    0.25
   0  -5   2    0.52    0.26
   0  -5   2    0.36    0.24
   0   5   3   47.07    1.25
   0   5   3   44.36    1.19
   0   5  -3   45.98    1.19
   0  -5  -3   46.40    1.32
   0  -5   3   47.19    1.34
   0  -5   3   47.90    1.43
   0  -5   3   44.72    1.41
   0  -5  -3   46.23    1.32
   0   5   4   42.30    1.24
   0   5   4   41.98    1.18
   0   5  -4   43.17    1.22
   0  -5  -4   43.77    1.59
   0  -5   4   43.83    1.30
   0  -5  -4   42.81    1.25
   0   5   5    0.45    0.29
   0   5  -5    0.38    0.32
   0   5   5    0.65    0.27
   0  -5   5    0.76    0.33
   0  -5  -5    0.06    0.28
   0  -5   5    0.48    0.26
   0  -5  -5    0.72    0.34
   0  -5   5    0.39    0.29
   0   5   6   30.76    0.98
   0   5   6   31.28    1.07
   0   5  -6   31.18    1.07
   0  -5   6   32.00    1.14
   0  -5   6   30.61    1.02
   0  -5  -6   31.65    1.13
   0  -5   6   32.09    1.10
   0   5   7    9.78    0.86
   0   5  -7    9.85    0.69
   0  -5  -7    8.45    0.71
   0  -5   7    9.19    0.64
   0  -5   7    9.78    0.64
   0  -5   7   10.92    0.87
   0  -5   7   10.40    0.72
   0   5   8    7.74    0.85
   0   5  -8    8.05    0.87
   0  -5   8    8.36    0.69
   0  -5   8    8.97    0.75
   0  -5   8    7.29    0.75
   0  -5  -8    6.09    0.99
   0   5   9    6.49    0.92
   0   5  -9    5.87    0.80
   0  -5  -9    6.88    1.22
   0  -5   9    7.04    0.84
   0  -5   9    7.50    0.90
   0   5  10    0.22    0.66
   0   5 -10    1.09    0.73
   0  -5 -10    0.84    0.85
   0  -5  10   -0.45    0.61
   0  -5  10    0.79    0.73
   0   5 -11    4.31    0.95
   0   5  11    4.94    0.89
   0  -5  11    3.41    0.78
   0  -5 -11    3.40    1.54
   0   6   0    0.65    0.24
   0   6   0    1.04    0.30
   0  -6   0    0.66    0.27
   0  -6   0    0.63    0.25
   0  -6   0    0.23    0.41
   0   6  -1    3.58    0.43
   0   6  -1    5.01    0.52
   0   6   1    3.77    0.43
   0   6   1    5.14    0.53
   0  -6  -1    4.00    0.47
   0  -6   1    4.20    0.45
   0  -6  -1    4.86    0.59
   0  -6   1    4.00    0.43
   0  -6   1    5.01    0.53
   0   6   2    6.68    0.57
   0   6   2    6.86    0.61
   0   6  -2    6.89    0.53
   0   6  -2    6.60    0.57
   0  -6  -2    6.97    0.52
   0  -6   2    7.23    0.50
   0  -6   2    6.11    0.56
   0  -6   2    6.22    0.50
   0  -6  -2    6.36    0.58
   0   6   3    4.85    0.61
   0   6   3    5.31    0.49
   0   6  -3    5.77    0.53
   0  -6   3    6.23    0.52
   0  -6   3    5.89    0.51
   0  -6  -3    5.25    0.58
   0  -6  -3    6.00    0.52
   0  -6   3    6.91    0.61
   0   6   4    9.43    0.67
   0   6  -4   10.56    0.70
   0   6   4   10.44    0.70
   0   6  -4    9.67    0.70
   0  -6   4   10.03    0.60
   0  -6   4   10.57    0.72
   0  -6   4   11.05    0.67
   0  -6  -4    9.68    0.65
   0  -6  -4   10.86    0.77
   0   6   5   -0.04    0.32
   0   6  -5   -0.27    0.33
   0   6   5    0.20    0.26
   0   6  -5    0.49    0.40
   0  -6  -5    0.12    0.71
   0  -6   5    0.60    0.32
   0  -6   5    0.12    0.31
   0  -6   5    0.28    0.36
   0  -6  -5   -0.29    0.52
   0   6   6   52.05    1.62
   0   6   6   51.79    1.37
   0   6  -6   53.64    1.64
   0   6  -6   50.51    1.66
   0  -6   6   51.29    1.63
   0  -6  -6   51.78    1.64
   0  -6   6   53.84    1.47
   0  -6   6   52.25    1.69
   0   6  -7   54.97    1.79
   0   6   7   52.32    1.69
   0   6  -7   51.40    1.64
   0  -6   7   55.34    1.82
   0  -6  -7   56.36    1.80
   0  -6   7   55.48    1.51
   0  -6   7   55.27    1.75
   0   6  -8    2.44    0.66
   0   6   8    1.40    0.65
   0   6  -8    1.15    1.06
   0  -6   8    2.08    0.60
   0  -6  -8    1.35    0.60
   0   6  -9    0.61    0.81
   0   6  -9    0.01    0.72
   0   6   9    0.10    0.68
   0  -6   9   -0.54    0.56
   0  -6  -9    0.69    0.65
   0   6 -10   -1.55    1.61
   0   6 -10    1.37    0.89
   0   6  10   -0.78    0.89
   0  -6  10    0.26    0.66
   0  -6 -10    0.14    0.75
   0   7   0   -0.48    0.79
   0   7   0   -0.35    0.33
   0  -7   0   -0.37    0.73
   0   7  -1    2.37    0.86
   0   7   1    2.06    0.35
   0   7   1    2.86    0.50
   0   7  -1    2.46    0.38
   0  -7   1    2.67    0.48
   0  -7  -1    2.57    0.46
   0  -7   1    3.38    0.50
   0  -7   1    2.60    0.49
   0  -7  -1    2.07    0.39
   0   7   2    3.05    0.50
   0   7  -2    3.05    0.51
   0   7  -2    2.19    0.43
   0   7   2    3.17    0.51
   0  -7  -2    2.94    0.47
   0  -7   2    2.41    0.40
   0  -7  -2    2.70    0.44
   0  -7   2    2.79    0.46
   0  -7   2    3.18    0.51
   0   7  -3   37.14    1.52
   0   7   3   37.25    1.19
   0   7  -3   36.46    1.37
   0  -7  -3   34.75    1.34
   0  -7   3   35.99    1.23
   0  -7   3   34.72    1.42
   0  -7   3   35.63    1.35
   0  -7  -3   33.58    1.33
   0   7  -4    7.89    0.80
   0   7   4   10.73    0.64
   0   7   4    8.09    0.78
   0   7  -4    8.82    0.82
   0  -7  -4    8.95    0.84
   0  -7   4    8.70    0.78
   0  -7   4    9.44    0.74
   0  -7  -4    6.42    0.80
   0  -7   4    6.39    0.87
   0   7   5    0.63    0.34
   0   7  -5   -0.47    0.46
   0   7   5    0.84    0.47
   0   7  -5    0.32    0.51
   0  -7   5    0.40    0.46
   0  -7   5    0.37    0.41
   0  -7  -5    0.69    0.53
   0  -7   5    0.31    0.53
   0   7  -6    3.24    0.62
   0   7   6    4.28    0.69
   0  -7   6    2.97    0.89
   0  -7  -6    2.83    0.64
   0  -7   6    3.42    0.58
   0  -7   6    2.17    0.52
   0   7   7   10.41    1.72
   0   7  -7   16.71    1.14
   0  -7  -7   14.56    1.24
   0  -7   7   13.67    1.02
   0  -7   7   13.90    1.16
   0   7   8    7.30    1.19
   0   7  -8    7.46    1.14
   0  -7   8   10.06    1.20
   0  -7  -8    7.39    1.11
   0  -7   8    7.19    0.79
   0   7  -9    1.58    0.83
   0  -7   9    1.27    0.68
   0  -7   9   -0.67    0.84
   0  -7  -9    1.63    0.77
   0   8   0    0.86    0.50
   0  -8   0    0.30    0.51
   0  -8   0   -0.08    0.69
   0   8   1    0.24    0.43
   0   8  -1    0.42    0.66
   0  -8   1    1.24    0.81
   0  -8  -1    1.22    0.60
   0  -8   1    1.20    0.94
   0   8  -2    4.08    0.62
   0   8   2    4.96    0.77
   0  -8   2    3.51    0.93
   0  -8  -2    4.69    0.78
   0  -8   2    4.72    0.78
   0  -8  -2    4.10    0.77
   0  -8   2    3.80    0.64
   0   8   3    1.42    0.45
   0   8  -3    0.52    0.49
   0  -8   3    2.49    0.56
   0  -8  -3    1.44    0.67
   0  -8  -3    1.16    0.53
   0  -8   3    1.13    0.60
   0  -8   3    1.21    0.60
   0   8   4    0.17    0.46
   0   8  -4   -1.06    0.50
   0  -8  -4    0.44    0.73
   0  -8   4    0.25    0.49
   0  -8  -4    0.14    0.76
   0  -8   4    0.05    0.60
   0   8  -5    0.23    0.58
   0   8   5    0.03    0.55
   0  -8  -5   -0.25    0.56
   0  -8   5    0.48    0.57
   0  -8   5   -0.16    0.51
   0  -8   5   -0.58    0.64
   0   8  -6    3.46    0.74
   0  -8  -6    2.49    0.67
   0  -8   6    3.62    0.70
   0  -8   6    2.91    0.72
   0  -8   6    1.74    1.00
   0   8  -7   26.24    1.49
   0  -8   7   22.87    1.36
   0  -8  -7   24.13    1.46
   0  -8   7   25.34    1.54
   0   8  -8   16.98    1.60
   0  -8  -8   16.44    1.89
   0  -8   8   14.57    1.67
   0  -8   8   15.40    1.40
   0   9   0    0.39    0.54
   0  -9   0   -0.72    0.55
   0  -9   0   -1.24    0.66
   0   9  -1    1.24    0.82
   0   9   1    1.44    0.55
   0  -9   1    0.36    0.68
   0  -9  -1    2.05    0.74
   0  -9  -1    2.21    1.12
   0  -9   1    0.10    0.61
   0   9  -2   13.41    1.14
   0   9   2   12.16    1.03
   0  -9  -2   14.37    1.13
   0  -9   2   13.50    1.13
   0  -9  -2   12.45    1.36
   0  -9   2   12.82    1.31
   0   9  -3    3.17    0.68
   0   9   3    2.17    0.76
   0  -9  -3    4.32    0.91
   0  -9  -3    4.57    1.18
   0  -9   3    3.53    0.70
   0  -9   3    3.25    0.78
   0   9   4    0.10    0.59
   0   9  -4    1.82    0.69
   0  -9  -4    0.67    0.97
   0  -9   4   -0.34    0.74
   0  -9   4    1.34    0.67
   0  -9   4   -1.36    0.66
   0  -9  -4    0.40    0.65
   0  -9   5    0.34    0.77
   0  -9   5   -0.57    0.84
   0  -9  -5   -0.27    0.72
   0 -10   0   -0.25    0.91
   0 -10   0    0.73    1.10
  -1   0  13   -0.05    0.70
  -1   0  12    7.36    1.03
   1   0 -11    0.15    0.51
   1   0 -10    9.65    0.74
  -1   0  10    8.73    0.76
  -1   0   9   -0.13    0.28
   1   0  -9    0.24    0.35
   1   0  -8    6.35    0.54
  -1   0   8    6.13    0.37
  -1   0   8    6.14    0.64
  -1   0   7   -0.18    0.26
  -1   0   7    0.16    0.14
   1   0  -7   -0.01    0.20
   1   0  -7    0.01    0.18
   1   0  -6  218.26    3.95
  -1   0   6  217.98    4.05
   1   0  -6  213.08    3.73
   1   0  -5   -0.17    0.12
  -1   0   5   -0.03    0.09
   1   0  -5   -0.07    0.11
  -1   0   5    0.06    0.13
  -1   0   4   21.05    0.46
   1   0  -4   20.93    0.57
   1   0  -4   21.32    0.50
  -1   0   4   20.48    0.60
  -1   0   3   -0.01    0.09
   1   0  -3   -0.01    0.09
   1   0  -3   -0.07    0.07
  -1   0   3    0.00    0.05
   1   0   1    0.02    0.05
  -1   0  -1   -0.01    0.03
   1   0   1    0.06    0.05
   1   0   1    0.03    0.04
   1   0   1    0.01    0.03
  -1   0  -1    0.01    0.05
  -1   0  -2   85.40    1.49
   1   0   2   86.73    1.47
   1   0   2   88.35    1.56
   1   0   2   82.85    1.65
   1   0   3    0.07    0.11
  -1   0  -3   -0.03    0.07
   1   0   4   43.08    1.03
   1   0   4   44.02    0.95
  -1   0  -5   -0.03    0.13
   1   0   5    0.09    0.16
   1   0   5    0.12    0.12
   1   0   6    0.95    0.17
   1   0   6    0.94    0.33
  -1   0  -6    0.72    0.18
   1   0   7   -0.02    0.23
   1   0   7    0.06    0.17
   1   0   8   11.68    0.55
   1   0   8   12.43    0.69
  -1   0  -8   12.22    0.71
   1   0   9    0.30    0.35
  -1   0  -9    0.19    0.42
   1   0   9    0.09    0.33
   1   0  10    0.57    0.44
   1   0  11    0.33    0.55
   1   0  12   -0.45    0.80
   1   0  13    0.29    0.82
  -1   1  13   -0.76    0.71
  -1   1  12    0.64    0.70
  -1  -1  12    0.80    0.60
   1  -1 -11    1.78    0.54
  -1  -1  11    1.38    0.66
  -1   1  10    5.95    0.73
  -1  -1  10    7.71    0.75
   1  -1 -10    8.44    0.68
  -1   1   9    0.59    0.29
   1   1  -9    0.66    0.39
   1  -1  -9   -0.22    0.34
  -1  -1   9   -0.13    0.29
   1   1  -8    0.04    0.27
  -1   1   8   -0.26    0.24
  -1  -1   8   -0.29    0.26
  -1  -1   8   -0.18    0.20
   1   1  -7    5.71    0.40
  -1   1   7    5.98    0.34
   1   1  -7    5.65    0.44
  -1   1   7    5.69    0.50
  -1  -1   7    5.39    0.35
  -1  -1   7    5.84    0.66
   1  -1  -7    6.33    0.47
   1   1  -6   21.55    0.63
  -1   1   6   21.33    0.49
  -1   1   6   19.76    0.73
   1   1  -6   21.59    0.67
  -1  -1   6   21.33    0.61
   1  -1  -6   20.96    0.69
  -1  -1   6   20.29    0.73
   1   1  -5    6.85    0.33
  -1   1   5    7.05    0.38
  -1   1   5    6.82    0.22
   1   1  -5    5.80    0.33
   1  -1  -5    6.46    0.27
  -1  -1   5    6.36    0.32
  -1  -1   5    6.35    0.36
  -1  -1   5    6.73    0.31
   1   1  -4    9.41    0.37
   1   1  -4    9.38    0.35
  -1   1   4    9.95    0.24
  -1   1   4    9.79    0.41
  -1  -1   4    9.69    0.36
   1  -1  -4    9.57    0.31
  -1  -1   4    9.48    0.38
  -1  -1   4    9.67    0.37
  -1  -1   4    9.24    0.34
   1  -1  -4    9.55    0.39
  -1   1   3    7.57    0.19
  -1   1   3    7.14    0.31
  -1  -1   3    7.36    0.30
  -1  -1   3    6.97    0.29
  -1  -1   3    7.32    0.27
   1  -1  -3    7.22    0.26
   1  -1  -3    7.42    0.24
   1  -1  -3    7.33    0.31
  -1   1   2  598.49   11.16
  -1  -1   2  694.14   11.04
  -1  -1   2  681.32   11.10
  -1  -1   2  673.10   11.05
  -1  -1   2  679.27   11.10
   1   1   0   33.90    0.59
  -1   1   0   33.92    0.68
   1   1   0   33.88    0.69
  -1  -1   0   33.98    0.70
  -1  -1   0   34.02    0.68
   1  -1   0   34.17    0.68
   1  -1   0   34.52    0.71
   1  -1   0   34.97    0.66
  -1  -1   0   32.95    0.59
   1   1   1   41.39    0.79
  -1   1  -1   42.55    0.85
   1   1   1   43.11    0.84
   1  -1   1   42.65    0.85
   1  -1   1   42.21    0.86
   1  -1   1   40.71    0.85
   1  -1   1   41.21    0.77
  -1  -1  -1   41.96    0.81
  -1  -1  -1   41.18    0.82
   1   1   2   -0.01    0.10
   1   1   2    0.01    0.07
   1  -1   2    0.06    0.09
  -1  -1  -2   -0.07    0.08
   1  -1   2   -0.06    0.08
   1  -1   2    0.05    0.08
  -1  -1  -2   -0.04    0.05
   1   1   3   85.61    1.60
  -1   1  -3   85.49    1.53
   1   1   3   85.78    1.66
   1  -1   3   85.50    1.66
   1  -1   3   84.03    1.60
   1  -1   3   88.14    1.54
   1  -1   3   84.90    1.69
  -1  -1  -3   85.63    1.61
   1   1   4   35.45    0.89
  -1   1  -4   35.31    0.81
   1   1   4   36.57    0.81
  -1  -1  -4   35.84    0.83
   1  -1   4   35.98    0.80
   1  -1   4   36.95    0.87
   1   1   5    0.74    0.14
  -1   1  -5    0.74    0.15
   1   1   5    0.87    0.19
   1  -1   5    0.89    0.19
   1  -1   5    0.63    0.15
  -1  -1  -5    1.06    0.18
   1   1   6    1.14    0.18
  -1   1  -6    1.46    0.20
   1   1   6    2.28    0.36
   1  -1   6    1.28    0.21
   1  -1   6    1.01    0.27
   1   1   7   10.89    0.60
  -1   1  -7   10.33    0.49
   1   1   7   10.83    0.68
   1  -1   7   11.21    0.62
   1  -1   7   10.46    0.50
  -1  -1  -7   10.20    0.53
   1   1   8   49.72    1.62
  -1   1  -8   43.62    1.45
   1   1   8   49.79    1.18
   1  -1   8   48.28    1.40
   1  -1   8   49.04    1.26
  -1  -1  -8   48.98    1.28
   1   1   9   24.15    1.01
   1  -1   9   23.44    0.95
   1  -1   9   23.24    1.00
   1   1  10    5.90    0.74
   1  -1  10    5.44    0.74
   1   1  11    0.18    0.57
   1  -1  11    0.56    0.55
   1   1  12    1.88    0.70
   1  -1  12    2.57    0.68
   1   1  13   -1.31    0.86
   1  -1  13   -0.40    0.82
  -1   2  13    1.03    0.79
  -1  -2  13    1.85    0.74
  -1   2  12   23.09    1.50
  -1  -2  12   23.57    1.32
  -1   2  11   40.33    1.62
  -1  -2  11   36.46    2.25
   1  -2 -11   41.48    1.53
   1   2 -10    1.92    0.52
  -1   2  10    2.06    0.46
   1  -2 -10    3.15    0.57
  -1  -2  10    1.59    0.44
   1   2  -9    2.38    0.46
  -1   2   9    3.43    0.55
  -1  -2   9    4.44    0.53
  -1  -2   9    4.02    0.55
   1  -2  -9    3.61    0.45
   1   2  -8    0.65    0.32
  -1   2   8    0.58    0.27
  -1  -2   8    0.26    0.23
  -1  -2   8    0.27    0.26
   1  -2  -8    0.16    0.28
  -1   2   7    1.66    0.31
   1   2  -7    1.46    0.29
   1   2  -7    1.81    0.27
  -1   2   7    1.53    0.19
  -1  -2   7    2.02    0.34
  -1  -2   7    1.99    0.53
   1  -2  -7    1.43    0.39
  -1  -2   7    1.58    0.25
   1   2  -6    0.60    0.28
  -1   2   6    0.59    0.13
  -1   2   6    0.62    0.25
   1   2  -6    0.47    0.19
  -1  -2   6    0.58    0.18
  -1  -2   6    0.56    0.22
   1  -2  -6    0.94    0.25
   1  -2  -6    0.80    0.19
  -1  -2   6    0.36    0.22
  -1  -2   6    0.49    0.18
  -1   2   5    1.14    0.16
  -1   2   5    0.88    0.19
  -1  -2   5    1.04    0.19
   1  -2  -5    0.79    0.20
  -1  -2   5    0.72    0.16
  -1  -2   5    1.02    0.19
  -1   2   4    6.77    0.25
  -1   2   4    6.44    0.42
  -1  -2   4    6.41    0.32
  -1  -2   4    6.15    0.33
  -1  -2   4    6.73    0.35
   1  -2  -4    6.07    0.32
  -1  -2   4    6.20    0.32
  -1   2   3   11.31    0.33
  -1   2   3   10.83    0.42
  -1  -2   3   10.48    0.39
  -1  -2   3   10.78    0.40
   1  -2  -3   11.23    0.42
  -1  -2   3   10.87    0.38
   1  -2  -3   10.62    0.39
  -1  -2   3   10.20    0.42
  -1   2   2   10.28    0.32
   1   2  -2   10.16    0.32
  -1   2   2   10.32    0.37
  -1  -2   2   10.72    0.33
   1  -2  -2   10.65    0.33
  -1  -2   2   10.58    0.37
  -1  -2   2   10.37    0.41
   1  -2  -2   10.11    0.38
  -1  -2   2    9.89    0.37
   1  -2  -2   10.11    0.38
   1   2  -1  126.89    2.36
   1   2  -1  130.56    2.24
  -1   2   1  125.08    2.37
  -1  -2   1  129.16    2.35
  -1  -2   1  128.94    2.41
   1  -2  -1  128.50    2.38
   1  -2  -1  134.83    2.37
  -1  -2   1  130.18    2.37
  -1   2   0  123.99    2.21
   1   2   0  117.58    2.18
   1   2   0  120.34    2.06
  -1  -2   0  117.69    2.19
  -1  -2   0  116.40    2.21
   1  -2   0  118.98    2.19
  -1  -2   0  117.66    2.19
   1  -2   0  119.64    2.23
   1  -2   0  119.05    2.16
   1   2   1   13.11    0.35
   1   2   1   13.37    0.41
  -1   2  -1   12.90    0.41
  -1  -2  -1   12.72    0.42
   1  -2   1   12.79    0.45
  -1  -2  -1   12.88    0.41
   1  -2   1   13.16    0.42
   1   2   2    0.12    0.09
   1   2   2    0.02    0.10
  -1   2  -2   -0.08    0.10
  -1  -2  -2   -0.07    0.10
   1  -2   2   -0.23    0.17
  -1  -2  -2    0.02    0.11
   1  -2   2   -0.06    0.09
   1  -2   2    0.02    0.12
  -1   2  -3   53.90    1.20
   1   2   3   55.29    1.17
   1   2   3   55.18    1.15
   1  -2   3   55.43    1.23
  -1  -2  -3   55.67    1.09
   1  -2   3   54.21    1.21
   1  -2   3   55.35    1.11
   1  -2   3   54.25    1.20
  -1  -2  -3   55.99    1.20
   1   2   4  176.71    3.12
  -1  -2  -4  174.89    3.20
   1  -2   4  169.48    3.18
   1  -2   4  170.22    3.23
   1  -2   4  173.30    3.05
  -1  -2  -4  171.88    2.97
  -1   2  -5   28.16    0.71
   1   2   5   28.03    0.73
   1   2   5   27.58    0.85
   1  -2   5   28.38    0.70
   1  -2   5   28.74    0.84
  -1  -2  -5   28.17    0.85
   1  -2   5   28.34    0.87
   1  -2   5   28.26    0.79
  -1   2  -6    3.96    0.33
   1   2   6    4.04    0.30
   1   2   6    3.56    0.46
   1  -2   6    3.66    0.42
   1  -2   6    3.87    0.34
  -1  -2  -6    3.89    0.39
   1   2   7    0.29    0.18
   1   2   7    0.11    0.26
   1  -2   7    0.35    0.25
   1  -2   7   -0.26    0.26
  -1  -2  -7    0.01    0.26
   1  -2   7   -0.01    0.22
  -1   2  -8   11.67    0.68
   1   2   8   12.59    0.68
   1   2   8   11.77    0.54
  -1  -2  -8   11.00    0.90
   1  -2   8   12.27    0.67
   1  -2   8   12.04    0.71
   1   2   9   75.22    2.03
   1  -2   9   74.19    2.02
   1  -2   9   78.47    1.86
  -1  -2  -9   77.70    1.92
   1   2  10   25.60    1.24
   1  -2  10   26.28    1.30
   1   2  11    0.58    0.56
   1  -2  11    0.94    0.57
   1   2  12    0.14    0.73
   1  -2  12    0.14    0.66
   1   2  13   13.95    1.91
   1  -2  13   13.83    1.56
  -1   3  13    1.43    0.94
  -1  -3  13   -0.97    0.82
  -1   3  12   17.54    1.30
  -1  -3  12   18.21    1.87
  -1   3  11    4.60    0.69
  -1  -3  11    4.44    0.66
   1  -3 -11    4.71    0.81
  -1   3  10   -0.20    0.46
  -1  -3  10   -0.57    0.43
   1  -3 -10    0.57    0.46
  -1   3   9    3.14    0.50
   1   3  -9    2.96    0.49
  -1  -3   9    3.61    0.57
   1  -3  -9    2.47    0.46
  -1  -3   9    2.34    0.37
   1   3  -8   -0.55    0.34
  -1   3   8    0.60    0.30
   1   3  -8    0.57    0.40
  -1  -3   8   -0.09    0.30
  -1  -3   8    0.55    0.34
  -1  -3   8    0.21    0.27
  -1  -3   8   -0.30    0.29
   1  -3  -8    0.48    0.28
  -1   3   7   47.60    1.35
   1   3  -7   45.55    1.30
   1   3  -7   48.37    1.30
   1  -3  -7   49.51    1.37
  -1  -3   7   47.51    1.29
  -1  -3   7   46.65    1.25
  -1  -3   7   47.31    1.30
  -1  -3   7   46.59    1.29
  -1   3   6  105.36    2.31
  -1   3   6  103.60    1.92
  -1  -3   6  102.70    2.18
   1  -3  -6   98.78    2.38
  -1  -3   6  103.30    2.19
  -1  -3   6  101.33    2.21
  -1  -3   6  102.11    2.14
  -1   3   5  122.16    2.23
  -1   3   5  121.70    2.49
  -1  -3   5  119.08    2.39
  -1  -3   5  120.79    2.40
  -1  -3   5  118.32    2.48
   1  -3  -5  120.36    2.49
   1  -3  -5  121.04    2.32
  -1  -3   5  121.13    2.44
  -1   3   4   -0.03    0.11
   1   3  -4    0.16    0.16
  -1   3   4    0.14    0.16
  -1  -3   4    0.30    0.18
  -1  -3   4    0.42    0.16
  -1  -3   4    0.09    0.15
   1  -3  -4    0.23    0.17
  -1  -3   4   -0.03    0.14
   1  -3  -4   -0.12    0.16
   1   3  -3   22.65    0.62
  -1   3   3   21.41    0.59
  -1  -3   3   22.97    0.63
   1  -3  -3   22.47    0.68
  -1  -3   3   22.40    0.73
   1  -3  -3   22.87    0.72
  -1  -3   3   21.60    0.68
  -1   3   2  135.62    2.51
   1   3  -2  135.73    2.45
  -1   3   2  133.55    2.54
   1  -3  -2  133.42    2.51
   1  -3  -2  134.00    2.60
  -1  -3   2  139.30    3.08
  -1  -3   2  135.27    2.57
  -1   3   1  145.04    2.63
   1   3  -1  142.85    2.69
  -1  -3   1  142.14    2.70
   1  -3  -1  140.52    2.64
   1  -3  -1  142.46    2.73
   1  -3  -1  143.22    2.68
  -1  -3   1  140.54    2.75
  -1  -3   1  139.99    2.67
   1   3   0  164.31    2.94
  -1   3   0  162.14    2.97
   1   3   0  162.04    3.03
   1  -3   0  166.12    3.01
  -1  -3   0  164.43    3.09
  -1  -3   0  166.45    3.04
  -1  -3   0  164.10    3.04
   1  -3   0  165.13    3.11
   1  -3   0  160.10    3.02
   1   3   1    0.44    0.12
   1   3   1    0.45    0.12
  -1   3  -1    0.43    0.13
  -1  -3  -1    0.27    0.13
  -1  -3  -1    0.28    0.14
   1  -3   1    0.39    0.15
   1  -3   1    0.33    0.13
   1   3   2    4.77    0.29
  -1   3  -2    4.70    0.29
   1   3   2    4.10    0.27
   1  -3   2    4.63    0.28
   1  -3   2    4.76    0.33
  -1  -3  -2    4.77    0.36
  -1  -3  -2    4.12    0.30
   1   3   3    6.95    0.36
   1   3   3    6.79    0.34
  -1   3  -3    7.38    0.38
   1  -3   3    7.50    0.40
  -1  -3  -3    7.57    0.38
   1  -3   3    6.82    0.34
  -1  -3  -3    6.83    0.39
   1  -3   3    6.18    0.44
  -1   3  -4   33.65    0.94
   1   3   4   35.35    0.91
   1   3   4   33.37    0.90
   1  -3   4   33.88    1.09
   1  -3   4   32.74    0.95
  -1  -3  -4   34.13    0.95
  -1  -3  -4   33.74    0.83
   1  -3   4   33.74    0.83
   1  -3   4   32.64    0.96
   1   3   5   41.69    1.13
  -1   3  -5   42.13    1.15
   1   3   5   41.92    1.03
   1  -3   5   41.99    1.14
  -1  -3  -5   41.75    0.95
   1  -3   5   41.09    0.98
  -1  -3  -5   40.28    1.12
   1  -3   5   41.38    1.15
   1  -3   5   41.14    1.22
   1   3   6    1.49    0.21
   1   3   6    1.09    0.37
  -1   3  -6    1.25    0.27
  -1   3  -6    1.35    0.30
   1  -3   6    1.42    0.29
   1  -3   6    1.47    0.30
   1  -3   6    1.10    0.37
  -1  -3  -6    1.33    0.33
   1   3   7    1.60    0.24
  -1   3  -7    1.66    0.34
  -1   3  -7    1.68    0.34
   1   3   7    1.80    0.33
  -1  -3  -7    1.94    0.40
   1  -3   7    1.96    0.34
   1  -3   7    1.69    0.31
   1  -3   7    2.06    0.27
   1  -3   7    2.72    0.41
   1   3   8    0.94    0.34
   1  -3   8    1.36    0.39
   1  -3   8    0.70    0.35
   1  -3   8    1.54    0.30
   1   3   9   -0.46    0.37
  -1  -3  -9    0.91    0.72
   1  -3   9   -0.51    0.37
   1  -3   9    0.16    0.33
   1   3  10    1.40    0.75
   1  -3  10    1.16    0.41
  -1  -3 -10    0.91    0.54
   1   3  11    0.81    0.64
  -1   3 -11    1.41    0.73
   1  -3  11    2.04    0.62
  -1   3 -12   11.98    1.46
   1   3  12   13.07    1.29
   1  -3  12   11.90    1.32
   1   4 -12    1.84    0.93
  -1   4  12   -0.26    1.27
  -1  -4  12   -0.41    0.73
   1  -4 -12    0.65    1.65
  -1   4  11   -0.45    0.62
   1   4 -11    1.69    0.76
   1  -4 -11    0.90    0.72
  -1  -4  11   -0.10    0.60
  -1   4  10    7.38    1.14
   1   4 -10    7.94    1.05
  -1  -4  10    7.32    0.99
   1  -4 -10    8.01    1.05
   1   4  -9    1.65    0.52
  -1   4   9    1.99    0.48
   1   4  -9    2.06    0.46
   1   4  -9    2.09    0.48
  -1  -4   9    1.33    0.39
  -1  -4   9    1.95    0.38
   1  -4  -9    2.11    0.48
   1   4  -8    1.95    0.41
  -1   4   8    1.51    0.39
   1   4  -8    1.38    0.41
   1   4  -8    1.38    0.42
   1  -4  -8    2.78    0.62
  -1  -4   8    1.66    0.36
  -1  -4   8    1.51    0.32
  -1  -4   8    2.42    0.35
  -1  -4   8    1.83    0.37
  -1   4   7    4.50    0.47
   1   4  -7    3.92    0.51
  -1  -4   7    4.66    0.54
  -1  -4   7    3.13    0.48
  -1  -4   7    3.32    0.51
   1  -4  -7    4.15    0.49
  -1  -4   7    4.25    0.50
  -1   4   6    3.31    0.44
  -1   4   6    2.87    0.43
   1  -4  -6    3.08    0.43
  -1  -4   6    3.15    0.54
  -1  -4   6    3.01    0.43
   1   4  -5   99.07    2.07
  -1   4   5   93.88    2.36
  -1  -4   5   93.04    2.53
   1  -4  -5   98.11    2.05
   1  -4  -5   99.91    2.20
  -1  -4   5   98.92    2.07
  -1  -4   5   98.86    2.11
  -1   4   4   29.40    0.81
   1   4  -4   29.40    0.84
  -1   4   4   29.50    0.92
  -1  -4   4   29.25    1.09
   1  -4  -4   30.13    0.91
  -1  -4   4   30.13    0.90
  -1  -4   4   29.81    0.96
  -1   4   3    1.52    0.25
  -1   4   3    1.52    0.24
   1   4  -3    1.86    0.27
   1   4  -3    1.75    0.27
  -1  -4   3    1.46    0.26
  -1  -4   3    1.86    0.30
   1  -4  -3    1.61    0.29
   1  -4  -3    2.05    0.32
  -1  -4   3    1.49    0.29
   1   4  -2   40.12    0.93
  -1   4   2   40.58    1.02
  -1   4   2   38.79    1.01
   1   4  -2   39.72    1.09
   1  -4  -2   38.74    1.09
  -1  -4   2   41.13    1.17
  -1  -4   2   40.91    1.07
   1  -4  -2   41.07    1.03
  -1  -4   2   39.07    1.09
   1  -4  -2   41.20    1.10
   1   4  -1    0.25    0.17
   1   4  -1    0.33    0.15
  -1   4   1    0.28    0.17
  -1   4   1    0.04    0.14
   1  -4  -1    0.06    0.18
  -1  -4   1    0.32    0.16
   1  -4  -1    0.15    0.15
  -1  -4   1   -0.03    0.15
   1  -4  -1    0.17    0.15
  -1  -4   1    0.04    0.20
   1   4   0   11.77    0.42
   1   4   0   12.25    0.52
  -1  -4   0   11.56    0.52
  -1  -4   0   11.35    0.57
   1  -4   0   11.49    0.50
   1  -4   0   11.88    0.56
  -1  -4   0   11.18    0.51
   1  -4   0   11.78    0.51
   1   4   1    4.07    0.33
  -1   4  -1    4.00    0.31
   1   4   1    4.01    0.29
   1  -4   1    3.51    0.32
  -1  -4  -1    3.61    0.35
  -1  -4  -1    3.50    0.36
   1  -4   1    4.15    0.33
   1  -4   1    2.97    0.37
   1   4   2   56.75    1.33
  -1   4  -2   55.05    1.29
   1   4   2   56.31    1.23
   1  -4   2   55.19    1.39
  -1  -4  -2   56.12    1.36
   1  -4   2   54.56    1.45
   1  -4   2   58.15    1.43
  -1  -4  -2   55.69    1.38
   1   4   3  154.42    2.97
  -1   4  -3  154.57    2.98
   1   4   3  153.03    2.90
   1  -4   3  157.49    2.94
  -1  -4  -3  152.99    2.98
   1  -4   3  154.39    3.13
   1  -4   3  150.05    3.13
  -1  -4  -3  151.15    3.04
  -1   4  -4   11.53    0.58
   1   4   4   11.04    0.55
   1   4   4   11.32    0.52
   1  -4   4   10.81    0.78
   1  -4   4   10.19    0.62
   1  -4   4   11.84    0.50
  -1  -4  -4    9.17    0.73
  -1   4  -5   21.55    0.84
   1   4   5   20.41    0.82
   1   4   5   20.11    0.71
  -1  -4  -5   21.58    0.72
   1  -4   5   19.98    0.69
   1  -4   5   22.03    0.85
   1  -4   5   22.57    0.85
  -1  -4  -5   20.96    0.84
   1   4   6    2.41    0.36
  -1   4  -6    2.34    0.42
   1   4   6    1.89    0.29
   1  -4   6    2.28    0.71
   1  -4   6    2.68    0.41
   1  -4   6    1.84    0.30
  -1  -4  -6    2.90    0.47
   1  -4   6    2.47    0.36
  -1   4  -7    0.56    0.29
   1   4   7    0.89    0.32
  -1   4  -7    0.68    0.38
   1   4   7    0.37    0.27
  -1  -4  -7    0.43    0.31
   1  -4   7    0.55    0.33
   1  -4   7   -0.18    0.29
   1  -4   7    0.66    0.31
   1  -4   7    0.72    0.27
   1   4   8    1.11    0.37
  -1   4  -8    1.35    0.40
   1  -4   8    1.28    0.40
   1  -4   8    1.95    0.36
   1  -4   8    1.06    0.40
  -1   4  -9    8.37    0.98
   1   4   9    7.63    0.87
   1  -4   9    7.25    0.71
  -1  -4  -9    8.69    0.83
   1  -4   9    7.57    0.90
  -1   4 -10    8.38    1.16
   1   4  10    8.57    1.10
   1  -4  10    7.03    0.83
  -1  -4 -10    7.94    1.07
   1  -4  10    9.45    1.04
  -1   4 -11    0.78    0.69
   1   4  11   -0.10    0.70
   1  -4  11    0.29    1.07
   1   4  12    4.18    1.00
  -1   4 -12    2.65    1.01
   1  -4  12    3.32    0.92
   1   5 -12    7.01    1.35
  -1   5  12    7.25    1.15
  -1  -5  12    7.24    0.98
   1  -5 -12    9.65    1.33
   1   5 -11    0.07    1.13
  -1   5  11    1.03    0.75
   1  -5 -11    1.44    0.91
  -1  -5  11    0.22    0.71
   1   5 -10    7.62    1.32
  -1   5  10    9.19    1.08
   1   5 -10    8.72    1.05
  -1  -5  10   10.92    1.41
  -1  -5  10    9.68    0.96
   1  -5 -10    8.68    1.15
   1   5  -9    7.22    1.06
  -1   5   9    8.68    1.30
   1   5  -9    9.59    0.99
   1   5  -9    7.92    1.09
  -1  -5   9    7.70    0.81
  -1  -5   9    8.12    0.89
  -1  -5   9    7.56    0.83
   1  -5  -9    7.99    1.30
   1   5  -8    1.04    0.45
   1   5  -8    1.11    0.42
   1   5  -8    1.37    0.44
  -1   5   8    0.20    0.42
   1  -5  -8    1.54    0.47
  -1  -5   8    0.86    0.39
  -1  -5   8    1.33    0.38
  -1  -5   8    1.72    0.38
  -1  -5   8    0.61    0.42
   1   5  -7    9.25    0.71
   1   5  -7    9.13    0.80
  -1   5   7   11.17    0.72
  -1  -5   7   10.38    0.63
  -1  -5   7   10.26    0.66
  -1  -5   7   10.40    0.62
  -1  -5   7    9.05    0.70
   1  -5  -7    9.20    0.84
  -1   5   6    0.95    0.30
   1   5  -6    0.42    0.29
   1   5  -6    1.28    0.34
  -1   5   6    0.66    0.27
  -1  -5   6    0.95    0.33
  -1  -5   6    0.46    0.30
  -1  -5   6    1.06    0.29
   1  -5  -6    0.34    0.33
   1  -5  -6    0.73    0.39
   1   5  -5    1.75    0.37
  -1   5   5    1.42    0.27
  -1   5   5    1.35    0.46
   1   5  -5    1.26    0.30
   1  -5  -5    1.59    0.31
  -1  -5   5    1.50    0.30
  -1  -5   5    1.33    0.29
   1  -5  -5    0.66    0.35
  -1   5   4    0.56    0.23
   1   5  -4    0.81    0.26
  -1   5   4    0.49    0.30
   1   5  -4    0.91    0.27
  -1  -5   4    0.78    0.27
  -1  -5   4    0.60    0.27
  -1  -5   4    0.40    0.29
   1  -5  -4    0.21    0.26
   1  -5  -4    0.60    0.33
  -1   5   3    6.91    0.47
  -1   5   3    6.70    0.52
   1   5  -3    6.51    0.49
   1   5  -3    6.88    0.44
   1  -5  -3    6.85    0.50
  -1  -5   3    7.42    0.56
   1  -5  -3    6.72    0.60
  -1  -5   3    6.37    0.53
  -1  -5   3    6.06    0.47
  -1   5   2    2.86    0.39
   1   5  -2    2.82    0.41
  -1   5   2    2.41    0.38
  -1  -5   2    2.36    0.39
  -1  -5   2    2.66    0.50
   1  -5  -2    2.32    0.33
   1  -5  -2    2.76    0.38
   1  -5  -2    2.65    0.42
  -1  -5   2    2.61    0.41
   1   5  -1    4.29    0.35
   1   5  -1    4.71    0.48
  -1   5   1    4.67    0.46
  -1   5   1    4.38    0.40
  -1  -5   1    4.11    0.53
   1  -5  -1    4.17    0.48
  -1  -5   1    5.72    0.51
  -1  -5   1    4.76    0.52
   1  -5  -1    4.60    0.60
  -1   5   0   -0.05    0.37
  -1   5   0    0.03    0.20
   1   5   0    0.15    0.23
   1   5   0   -0.13    0.17
   1  -5   0   -0.05    0.28
   1  -5   0    0.20    0.32
  -1  -5   0   -0.22    0.33
  -1  -5   0    0.21    0.25
  -1   5  -1   -0.08    0.21
   1   5   1    0.11    0.20
  -1  -5  -1   -0.46    0.24
   1  -5   1    0.04    0.32
   1  -5   1    0.38    0.30
  -1  -5  -1   -0.02    0.29
   1  -5   1    0.03    0.23
   1   5   2   58.53    2.10
  -1   5  -2   60.80    1.47
   1   5   2   62.54    1.70
  -1  -5  -2   64.13    1.64
   1  -5   2   62.52    1.53
   1  -5   2   62.45    1.60
   1  -5   2   62.08    1.69
  -1  -5  -2   62.45    1.62
   1   5   3   29.25    0.89
  -1   5  -3   29.29    0.96
   1  -5   3   29.81    1.03
   1  -5   3   30.11    1.09
   1  -5   3   29.89    0.96
  -1  -5  -3   30.02    1.03
  -1  -5  -3   29.34    1.01
   1   5   4   13.10    0.67
  -1   5  -4   12.38    0.70
   1  -5   4   12.19    0.67
  -1  -5  -4   12.74    0.70
   1  -5   4   13.33    0.75
   1  -5   4   12.65    0.66
  -1  -5  -4   12.07    0.82
   1   5   5   69.11    1.67
  -1   5  -5   68.27    1.73
   1   5   5   68.59    1.72
   1  -5   5   67.53    1.81
  -1  -5  -5   69.31    1.67
   1  -5   5   68.31    1.86
  -1  -5  -5   66.49    1.75
   1  -5   5   68.96    1.79
   1   5   6    9.18    0.73
  -1   5  -6    9.42    0.65
   1   5   6    9.56    0.62
   1  -5   6    8.69    0.63
   1  -5   6    8.57    0.75
  -1  -5  -6    8.92    0.63
   1  -5   6    9.97    0.72
   1   5   7   13.27    0.91
  -1   5  -7   13.85    0.83
   1   5   7   14.71    0.84
   1  -5   7   13.43    0.79
  -1  -5  -7   13.83    0.88
   1  -5   7   15.14    0.83
   1   5   8    8.00    1.03
  -1   5  -8    8.68    0.84
   1  -5   8    7.87    0.75
   1  -5   8    9.29    0.76
   1  -5   8    8.73    0.80
  -1  -5  -8    8.91    0.83
  -1   5  -9    0.06    0.84
  -1  -5  -9    0.99    1.00
   1  -5   9   -0.01    0.73
   1  -5   9    0.21    0.49
  -1   5 -10    8.08    1.21
   1   5  10   11.96    1.23
   1  -5  10    9.15    1.09
  -1  -5 -10    9.22    1.36
   1  -5  10    8.53    1.01
   1   5  11    4.85    0.99
  -1   5 -11    2.80    0.85
   1  -5  11    3.77    0.77
  -1   6  11    0.21    1.00
   1  -6 -11   -0.31    0.94
  -1   6  10    1.09    0.77
   1   6 -10    1.59    0.99
   1  -6 -10    0.83    1.21
  -1  -6  10    1.40    0.73
  -1   6   9    0.23    0.65
   1   6  -9    1.73    0.72
  -1  -6   9    1.62    0.57
   1  -6  -9    0.29    0.58
  -1  -6   9   -0.99    0.86
   1   6  -8   17.48    2.01
  -1   6   8   17.41    2.03
   1   6  -8   20.31    1.27
  -1  -6   8   21.76    1.28
   1  -6  -8   21.78    1.25
  -1  -6   8   22.57    1.38
  -1  -6   8   20.34    1.02
  -1   6   7   17.24    1.00
   1   6  -7   16.64    0.99
   1   6  -7   17.51    1.04
  -1  -6   7   16.93    1.06
  -1  -6   7   17.22    1.25
   1  -6  -7   18.37    1.04
  -1  -6   7   18.20    0.98
  -1   6   6    0.41    0.41
   1   6  -6   -0.03    0.39
   1   6  -6    0.43    0.40
   1  -6  -6    0.57    0.82
   1  -6  -6    0.91    0.39
  -1  -6   6    1.03    0.38
  -1  -6   6    0.45    0.36
  -1  -6   6    0.67    0.39
   1   6  -5   11.25    0.80
  -1   6   5   11.29    0.69
   1   6  -5   11.54    0.78
  -1   6   5   10.58    0.61
   1  -6  -5   11.04    0.83
   1  -6  -5   11.23    0.80
  -1  -6   5   11.18    0.86
  -1  -6   5   11.13    0.86
  -1  -6   5   11.51    0.68
  -1   6   4    6.77    0.57
  -1   6   4    6.57    0.52
   1   6  -4    6.81    0.71
   1   6  -4    7.73    0.62
   1  -6  -4    8.29    0.58
   1  -6  -4    6.81    0.69
  -1  -6   4    8.07    0.62
  -1  -6   4    7.72    0.66
  -1  -6   4    8.63    0.59
  -1   6   3    0.11    0.24
   1   6  -3    0.47    0.33
   1   6  -3    0.35    0.28
  -1   6   3   -0.01    0.29
   1  -6  -3    0.31    0.26
  -1  -6   3   -0.47    0.30
  -1  -6   3    0.20    0.26
   1  -6  -3   -0.17    0.31
  -1  -6   3    0.08    0.26
  -1   6   2    0.05    0.27
  -1   6   2    0.80    0.35
   1   6  -2    0.26    0.24
   1   6  -2   -0.41    0.28
  -1  -6   2    0.30    0.25
  -1  -6   2    0.06    0.26
  -1  -6   2    0.48    0.30
   1  -6  -2   -0.04    0.25
   1  -6  -2    0.64    0.30
   1   6  -1    0.93    0.30
   1   6  -1    0.82    0.25
  -1   6   1    0.89    0.25
  -1  -6   1    1.05    0.32
  -1  -6   1    1.43    0.28
  -1  -6   1    0.92    0.26
   1  -6  -1    1.03    0.26
   1  -6  -1    1.13    0.33
   1  -6  -1    1.32    0.33
  -1   6   0   18.12    0.98
   1   6   0   17.60    0.83
  -1   6   0   16.38    0.95
   1   6   0   18.33    0.79
   1  -6   0   18.65    0.89
   1  -6   0   17.95    0.78
   1  -6   0   17.90    0.78
  -1  -6   0   17.17    0.83
  -1  -6   0   17.31    0.77
   1   6   1    8.29    0.54
  -1   6  -1    7.80    0.55
   1   6   1    8.62    0.57
  -1  -6  -1    7.93    0.79
   1  -6   1    8.11    0.60
   1  -6   1    8.76    0.58
  -1  -6  -1    8.73    0.59
   1  -6   1    7.72    0.54
   1   6   2    5.25    0.46
  -1   6  -2    5.47    0.66
   1   6   2    4.03    0.52
  -1   6  -2    6.19    0.52
   1  -6   2    5.42    0.53
   1  -6   2    5.77    0.51
   1  -6   2    5.15    0.53
  -1  -6  -2    5.37    0.58
  -1  -6  -2    5.42    0.52
   1   6   3    0.20    0.24
   1   6   3    0.61    0.36
  -1   6  -3    0.38    0.30
  -1  -6  -3    0.32    0.29
   1  -6   3    0.31    0.27
  -1  -6  -3    0.00    0.49
   1  -6   3   -0.19    0.34
   1  -6   3   -0.22    0.27
   1   6   4   -0.39    0.38
  -1   6  -4   -0.10    0.56
   1   6   4    0.09    0.28
  -1  -6  -4    0.29    0.37
   1  -6   4    0.67    0.44
   1  -6   4    0.05    0.29
   1  -6   4    0.12    0.37
  -1  -6  -4    0.45    0.32
  -1   6  -5   26.17    1.01
   1   6   5   28.03    1.05
   1   6   5   28.66    0.95
   1  -6   5   26.45    1.09
   1  -6   5   27.64    0.95
   1  -6   5   28.51    1.15
  -1  -6  -5   26.74    1.10
  -1  -6  -5   25.98    1.18
   1   6   6   13.19    0.84
   1   6   6   12.61    0.68
  -1   6  -6   11.56    0.84
   1  -6   6   14.29    0.90
   1  -6   6   12.20    0.71
   1  -6   6   11.21    0.82
  -1  -6  -6   13.09    0.91
  -1   6  -7    6.20    0.88
   1   6   7    6.41    0.88
   1  -6   7    7.44    0.82
  -1  -6  -7    7.67    1.18
   1  -6   7    5.37    0.82
   1   6   8    2.74    0.73
  -1  -6  -8    3.00    0.67
   1  -6   8    5.29    0.84
   1  -6   8    3.31    0.64
  -1   6  -9    0.78    0.73
   1   6   9    0.41    0.80
   1  -6   9   -0.56    0.56
  -1  -6  -9   -0.51    0.66
  -1   6 -10   -0.16    0.82
   1   6  10   -0.13    0.88
  -1  -6 -10   -0.51    0.88
   1  -6  10   -0.70    0.67
  -1   7   9   41.97    2.15
   1   7  -9   42.21    1.87
   1   7  -9   43.68    2.30
  -1  -7   9   37.23    1.59
   1  -7  -9   39.29    1.80
  -1  -7   9   34.99    1.83
   1   7  -8   15.23    1.38
  -1   7   8   15.75    1.35
  -1  -7   8   13.28    1.27
  -1  -7   8   15.11    1.08
   1  -7  -8   16.12    1.87
   1   7  -7    2.04    0.63
   1  -7  -7    1.92    0.59
  -1  -7   7    2.88    0.58
  -1  -7   7    1.87    0.62
  -1  -7   7    2.13    0.61
  -1   7   6    2.79    0.59
   1   7  -6    1.06    0.60
  -1  -7   6    1.62    0.53
   1  -7  -6    2.48    0.58
  -1  -7   6    1.34    0.84
  -1  -7   6    1.63    0.53
   1   7  -5    2.60    0.61
  -1   7   5    2.79    0.37
  -1   7   5    3.64    0.58
  -1  -7   5    2.20    0.47
  -1  -7   5    3.34    0.56
   1  -7  -5    3.13    0.58
   1  -7  -5    1.56    0.65
  -1  -7   5    2.50    0.64
  -1   7   4   10.00    0.64
  -1   7   4   10.60    0.75
   1   7  -4    8.85    0.85
  -1  -7   4    7.76    0.73
   1  -7  -4    9.19    0.82
  -1  -7   4    9.37    0.90
  -1  -7   4    9.93    0.80
   1  -7  -4    8.61    0.80
  -1   7   3   21.49    1.04
   1   7  -3   20.51    1.02
  -1   7   3   21.31    0.87
   1  -7  -3   17.20    1.00
  -1  -7   3   21.10    0.92
  -1  -7   3   20.05    1.03
   1  -7  -3   19.53    1.02
  -1  -7   3   19.61    1.19
   1   7  -2    7.42    0.70
  -1   7   2    5.57    0.65
  -1   7   2    7.41    0.59
   1  -7  -2    7.17    0.70
  -1  -7   2    6.32    0.64
  -1  -7   2    5.49    0.72
   1  -7  -2    6.47    0.63
  -1  -7   2    6.94    0.68
   1   7  -1   -0.31    0.31
  -1   7   1    0.59    0.29
  -1   7   1    0.74    0.37
  -1  -7   1    0.26    0.47
   1  -7  -1   -0.20    0.48
  -1  -7   1    0.54    0.39
   1  -7  -1    0.27    0.31
   1   7   0    5.26    0.59
  -1   7   0    6.55    0.66
  -1   7   0    5.64    0.81
   1  -7   0    4.75    0.54
   1  -7   0    6.13    0.68
  -1  -7   0    3.83    0.60
   1  -7   0    6.19    0.70
  -1   7  -1   29.56    1.17
   1   7   1   30.00    1.14
  -1   7  -1   30.48    1.10
  -1  -7  -1   30.72    1.25
   1  -7   1   30.44    1.09
  -1  -7  -1   29.78    1.16
   1  -7   1   33.40    1.46
   1  -7   1   29.48    1.19
   1   7   2    9.99    0.67
  -1   7  -2    9.73    0.72
  -1   7  -2    9.66    0.74
   1  -7   2    9.62    0.82
   1  -7   2   11.56    0.85
  -1  -7  -2   10.05    0.79
   1  -7   2   10.72    0.78
  -1  -7  -2    8.73    0.73
  -1   7  -3    1.65    0.41
  -1   7  -3    1.33    0.63
   1   7   3    1.78    0.34
  -1  -7  -3    1.30    0.45
  -1  -7  -3    1.39    0.42
   1  -7   3    0.56    0.35
   1  -7   3    0.85    0.39
   1  -7   3    1.08    0.49
   1   7   4    2.12    0.36
  -1   7  -4    1.86    0.47
  -1   7  -4    1.86    0.46
   1  -7   4    2.12    0.41
   1  -7   4    2.33    0.46
  -1  -7  -4    2.35    0.48
   1  -7   4    2.20    0.55
  -1  -7  -4    1.85    0.51
   1   7   5    0.02    0.36
  -1   7  -5   -0.12    0.50
   1  -7   5    0.00    0.53
   1  -7   5    1.26    0.43
  -1   7  -6    3.04    0.76
  -1   7  -6    2.52    0.62
  -1  -7  -6    2.52    0.62
   1  -7   6    1.24    0.60
   1  -7   6    2.32    0.55
  -1   7  -7    1.70    0.60
  -1  -7  -7    1.64    0.65
   1  -7   7    2.17    0.58
   1  -7   7    2.55    0.66
  -1   7  -8    1.33    0.68
  -1   7  -8    2.16    1.23
   1  -7   8    0.63    0.71
   1  -7   8    1.27    0.65
  -1  -7  -8    1.91    0.82
  -1   7  -9    0.38    0.82
  -1  -7  -9   -0.75    0.83
   1  -7   9    0.13    0.69
   1   8  -8   12.08    1.74
   1   8  -8    6.87    1.06
  -1  -8   8    7.96    0.95
  -1  -8   8    9.29    1.44
   1  -8  -8    7.88    1.07
   1   8  -7   -0.18    0.68
   1  -8  -7    0.48    0.69
  -1  -8   7    1.16    0.63
  -1  -8   7   -0.33    0.76
   1   8  -6   -0.28    0.61
  -1  -8   6    0.06    0.66
   1  -8  -6    1.44    0.66
  -1  -8   6    0.28    0.66
  -1  -8   6   -0.22    0.63
   1   8  -5   -0.36    0.55
  -1  -8   5    0.24    0.53
  -1  -8   5   -0.50    0.56
   1  -8  -5   -0.32    0.61
  -1  -8   5    0.68    0.75
   1   8  -4   12.77    1.02
  -1   8   4   10.19    0.85
  -1  -8   4   11.39    1.12
  -1  -8   4   11.61    0.98
   1  -8  -4   10.73    1.88
  -1  -8   4   12.59    1.00
   1  -8  -4   10.51    1.03
   1   8  -3    3.52    0.63
  -1   8   3    4.47    0.56
  -1  -8   3    4.27    0.73
  -1  -8   3    4.15    1.05
   1  -8  -3    4.71    0.65
   1  -8  -3    3.45    1.30
  -1   8   2    0.02    0.41
   1   8  -2    0.57    0.47
   1  -8  -2   -0.15    0.97
  -1  -8   2    0.10    0.53
   1  -8  -2    0.60    0.50
   1   8  -1    0.07    0.48
  -1   8   1    1.17    0.46
   1  -8  -1    1.10    0.83
   1  -8   0    2.03    0.57
  -1  -8   0    1.45    0.70
   1  -8   0    2.25    0.98
   1   8   1   18.19    1.28
   1  -8   1   18.22    1.37
  -1  -8  -1   19.83    1.19
  -1  -8  -1   21.01    1.62
   1  -8   1   18.82    1.65
   1  -8   1   16.65    1.04
  -1   8  -2    9.16    0.94
   1   8   2   10.00    0.90
   1  -8   2   12.11    1.00
  -1  -8  -2   10.65    0.98
  -1  -8  -2   10.81    1.09
   1  -8   2   12.07    1.04
   1  -8   2   11.59    0.91
   1   8   3    0.99    0.72
  -1   8  -3   -0.35    0.51
  -1  -8  -3   -0.10    0.60
   1  -8   3    0.10    0.50
  -1  -8  -3    0.33    0.50
   1  -8   3   -0.43    0.50
   1  -8   3    0.56    0.57
  -1   8  -4    0.17    0.54
   1  -8   4   -0.74    0.58
  -1  -8  -4   -0.05    0.73
  -1  -8  -4   -0.04    0.52
   1  -8   4    0.15    0.53
   1  -8   4    0.83    0.56
   1   8   5    1.71    0.58
  -1   8  -5    2.06    0.61
   1  -8   5    0.45    0.66
  -1  -8  -5    1.83    0.63
   1  -8   5    2.28    0.57
  -1   8  -6    0.95    0.64
   1  -8   6   -0.38    0.79
   1  -8   6    0.20    0.65
  -1  -8  -6   -0.58    0.60
  -1   8  -7   34.26    1.67
   1  -8   7   34.86    1.71
  -1  -8  -7   31.83    1.67
   1  -8   7   30.32    1.58
   1   9  -6   -0.78    1.17
   1  -9  -6    0.12    1.37
   1   9  -5   -0.07    0.76
   1  -9  -5   -0.14    0.72
  -1  -9   5    0.06    0.81
  -1  -9   5    0.72    0.72
   1   9  -4    2.38    0.71
  -1   9   4    3.27    0.77
  -1  -9   4    1.56    0.74
   1  -9  -4    2.96    1.31
  -1  -9   4    1.94    0.72
   1  -9  -4    2.09    0.68
   1   9  -3    2.09    0.65
  -1   9   3    1.27    0.57
  -1  -9   3    3.82    0.80
   1  -9  -3    2.62    0.85
  -1  -9   3    0.98    0.63
  -1   9   2    0.39    0.55
   1   9  -2   -1.24    0.56
  -1  -9   2    0.32    0.87
   1  -9  -2    0.32    0.63
   1  -9  -2   -0.04    0.71
  -1  -9   2   -0.71    0.66
  -1   9   1    0.15    0.53
   1   9  -1    0.59    0.58
   1  -9  -1    0.77    0.69
   1  -9  -1    1.59    0.58
  -1  -9   1   -0.91    1.07
  -1  -9   1    0.18    0.61
   1   9   0    2.14    0.59
  -1   9   0    0.93    0.53
   1  -9   0    0.19    0.60
   1  -9   0    0.43    0.82
  -1  -9   0    0.04    0.65
   1   9   1   17.56    1.26
  -1   9  -1   17.63    1.30
   1  -9   1   16.90    1.22
  -1  -9  -1   18.93    1.41
  -1  -9  -1   17.46    1.44
   1  -9   1   18.76    1.34
   1   9   2   12.23    1.08
  -1   9  -2   11.85    1.08
   1  -9   2   13.58    1.21
   1  -9   2   13.38    1.62
  -1  -9  -2   12.33    1.22
   1  -9   2   12.20    1.15
  -1  -9  -2   11.78    1.39
  -1   9  -3    0.77    0.66
   1   9   3   -0.72    0.56
   1  -9   3   -0.23    0.59
  -1  -9  -3   -1.23    0.84
   1  -9   3    1.15    0.74
   1  -9   3   -0.64    0.62
  -1  -9  -3   -1.00    0.61
   1   9   4    1.57    0.63
  -1   9  -4    1.45    0.68
   1  -9   4    0.27    0.79
   1  -9   4    0.62    0.64
  -1  -9  -4    0.23    0.76
   1  -9   4   -1.53    0.69
  -1   9  -5   -0.17    0.80
   1  -9   5   -0.54    0.72
   1  -9   5   -1.69    0.85
  -1  -9  -5    0.15    0.82
  -2   0  13    1.60    0.70
  -2   0  12   44.05    1.68
  -2   0  11   -0.88    0.55
   2   0 -11   -0.55    0.48
  -2   0  10    1.77    0.41
   2   0 -10    2.54    0.41
   2   0  -9   -0.06    0.30
  -2   0   9    0.63    0.41
   2   0  -8   48.27    1.69
  -2   0   8   51.96    1.42
   2   0  -7    0.00    0.19
   2   0  -7   -0.27    0.20
  -2   0   6    9.25    0.27
  -2   0   6    9.41    0.49
   2   0  -6    9.47    0.40
   2   0  -6    9.50    0.46
   2   0  -5   -0.17    0.13
  -2   0   5    0.01    0.13
  -2   0   4   18.36    0.56
   2   0  -4   18.66    0.55
   2   0  -4   19.21    0.52
   2   0  -3   -0.07    0.05
   2   0  -3    0.12    0.09
  -2   0   3   -0.11    0.09
  -2   0   1    0.02    0.06
   2   0  -1   -0.03    0.05
   2   0  -1    0.03    0.06
   2   0  -1   -0.04    0.07
  -2   0   1   -0.02    0.06
   2   0   0  165.62    2.91
   2   0   0  168.45    2.90
  -2   0   0  166.77    2.85
  -2   0   0  171.39    2.87
   2   0   1   -0.05    0.07
  -2   0  -1    0.04    0.04
   2   0   1    0.00    0.06
   2   0   1   -0.05    0.04
   2   0   1    0.02    0.07
   2   0   2    2.27    0.22
  -2   0  -2    2.27    0.10
   2   0   2    2.35    0.19
   2   0   2    2.07    0.14
   2   0   3   -0.18    0.09
   2   0   3   -0.28    0.07
   2   0   3   -0.26    0.11
  -2   0  -3   -0.33    0.07
  -2   0  -4   12.95    0.37
   2   0   4   13.16    0.59
   2   0   4   13.03    0.45
  -2   0  -5    0.05    0.14
   2   0   5    0.22    0.15
   2   0   5   -0.27    0.16
   2   0   6    3.96    0.52
   2   0   6    3.62    0.33
  -2   0  -6    3.61    0.33
   2   0   7    0.04    0.25
   2   0   7    0.27    0.20
  -2   0  -7    0.10    0.22
   2   0   8   85.21    2.09
   2   0   8   85.15    1.91
   2   0   9    0.15    0.37
   2   0   9    0.45    0.34
   2   0  10   -0.82    0.44
   2   0  11   -0.05    0.56
   2   0  12   23.84    1.44
   2   0  13   -0.65    0.90
  -2   1  13    1.32    0.71
  -2  -1  13    1.23    0.70
  -2   1  12    4.61    0.70
   2  -1 -12    4.65    0.84
  -2  -1  12    4.55    0.68
  -2   1  11    2.58    0.89
   2   1 -11    2.32    0.55
   2  -1 -11    1.99    0.53
  -2  -1  11    1.76    0.54
   2   1 -10    1.18    0.41
  -2   1  10   -0.28    0.50
   2  -1 -10   -0.24    0.39
  -2  -1  10   -0.16    0.35
  -2   1   9    0.08    0.30
   2   1  -9   -0.22    0.30
  -2  -1   9   -0.21    0.29
   2  -1  -9   -0.05    0.59
   2   1  -8    3.83    0.45
  -2   1   8    3.71    0.56
   2  -1  -8    3.41    0.53
  -2  -1   8    4.13    0.34
  -2  -1   8    3.61    0.54
   2   1  -7   24.17    0.73
  -2   1   7   23.36    0.92
   2   1  -7   23.59    0.81
   2  -1  -7   23.89    0.67
  -2  -1   7   23.77    0.64
   2  -1  -7   23.02    0.83
   2   1  -6   21.60    0.70
   2   1  -6   22.01    0.67
  -2   1   6   22.94    0.77
   2  -1  -6   22.03    0.74
   2  -1  -6   21.84    0.61
  -2  -1   6   21.88    0.58
   2   1  -5    1.60    0.24
   2   1  -5    1.60    0.34
  -2   1   5    1.37    0.22
   2  -1  -5    1.04    0.19
  -2  -1   5    1.72    0.20
   2  -1  -5    1.38    0.23
   2   1  -4    8.28    0.36
   2   1  -4    8.15    0.36
  -2   1   4    8.52    0.38
  -2  -1   4    6.72    0.43
   2  -1  -4    7.94    0.33
   2  -1  -4    8.14    0.37
  -2  -1   4    8.16    0.36
  -2  -1   4    8.24    0.36
   2   1  -3  386.95    6.69
   2   1  -3  403.38    6.61
  -2   1   3  388.85    6.74
  -2  -1   3  403.06    6.71
  -2  -1   3  398.18    6.70
  -2  -1   3  401.71    6.61
  -2  -1   3  401.54    6.72
   2  -1  -3  354.36    6.74
   2   1  -2 1000.00   16.52
  -2   1   2  997.51   16.59
   2   1  -1   52.32    0.93
   2   1  -1   53.66    1.05
   2  -1  -1   56.10    1.02
  -2  -1   1   54.48    0.93
   2  -1  -1   56.07    1.05
  -2  -1   1   52.30    1.11
  -2   1   0    1.92    0.19
   2   1   0    2.17    0.17
   2   1   0    2.03    0.08
   2   1   0    2.16    0.17
   2  -1   0    1.98    0.16
  -2  -1   0    2.07    0.08
  -2  -1   0    2.17    0.18
   2  -1   0    2.03    0.13
  -2  -1   0    1.99    0.16
   2  -1   0    1.98    0.18
  -2   1  -1   60.16    1.21
   2   1   1   60.13    1.19
   2   1   1   62.46    1.16
   2   1   1   61.83    1.12
   2  -1   1   59.17    1.06
  -2  -1  -1   61.87    1.15
   2  -1   1   59.85    1.27
   2  -1   1   61.12    1.21
   2  -1   1   60.30    1.20
  -2   1  -2   14.60    0.45
   2   1   2   15.32    0.45
   2   1   2   14.98    0.36
   2   1   2   14.16    0.45
   2  -1   2   14.69    0.46
  -2  -1  -2   14.76    0.40
   2   1   3  203.60    3.63
  -2   1  -3  206.11    3.42
   2   1   3  205.70    3.44
   2  -1   3  202.68    3.68
  -2  -1  -3  200.01    3.65
   2  -1   3  207.94    3.67
  -2   1  -4    2.18    0.17
   2   1   4    2.42    0.23
   2  -1   4    2.15    0.27
   2  -1   4    2.20    0.24
  -2  -1  -4    2.45    0.23
   2  -1   4    1.94    0.27
  -2   1  -5    0.86    0.16
   2   1   5    0.76    0.15
   2   1   5    0.78    0.21
   2  -1   5    0.50    0.16
   2  -1   5    0.80    0.22
  -2  -1  -5    0.82    0.18
   2  -1   5    0.58    0.18
   2   1   6    0.32    0.16
  -2   1  -6    0.51    0.19
   2   1   6    0.46    0.27
  -2  -1  -6    0.61    0.19
   2  -1   6    0.66    0.20
   2   1   7   14.89    0.73
  -2   1  -7   15.58    0.58
   2   1   7   15.46    0.61
   2  -1   7   16.59    0.70
  -2  -1  -7   16.12    0.65
   2  -1   7   14.95    0.74
   2   1   8  131.13    2.60
   2   1   8  130.80    2.84
   2  -1   8  128.76    2.85
   2  -1   8  117.58    3.03
  -2  -1  -8  130.69    2.58
   2   1   9    3.29    0.50
   2  -1   9    4.54    0.54
   2  -1   9    4.41    0.60
   2   1  10    7.25    0.84
   2  -1  10    4.92    0.81
   2   1  11    0.42    0.59
   2  -1  11   -0.26    0.55
   2   1  12    1.53    0.87
   2  -1  12    0.69    0.68
   2   1  13    5.21    1.04
   2  -1  13    2.78    1.02
  -2   2  13    9.95    1.28
  -2  -2  13   11.58    1.22
  -2   2  12    8.04    1.00
  -2  -2  12    5.97    0.75
   2  -2 -12    6.16    1.34
   2   2 -11    0.06    0.53
  -2   2  11   -0.37    0.48
  -2  -2  11   -0.54    0.50
   2  -2 -11   -0.20    0.51
   2   2 -10    0.42    0.39
  -2   2  10    0.32    0.40
   2  -2 -10   -0.11    0.39
  -2  -2  10   -0.40    0.38
   2   2  -9    3.85    0.56
  -2   2   9    4.42    0.55
  -2  -2   9    5.06    0.55
   2  -2  -9    4.88    0.54
   2   2  -8    0.39    0.32
   2   2  -8    0.39    0.29
  -2   2   8    0.22    0.25
  -2  -2   8   -0.07    0.22
  -2  -2   8    0.04    0.27
   2  -2  -8    0.16    0.30
   2   2  -7   35.92    1.01
  -2   2   7   35.67    1.10
   2   2  -7   35.11    1.04
  -2  -2   7   33.77    0.98
  -2  -2   7   34.29    1.04
   2  -2  -7   32.60    1.00
  -2  -2   7   35.32    0.92
   2  -2  -7   35.43    1.14
   2   2  -6   23.86    0.77
  -2   2   6   23.39    0.85
   2   2  -6   23.86    0.77
  -2  -2   6   23.93    0.76
   2  -2  -6   23.89    0.82
  -2  -2   6   23.41    0.69
  -2  -2   6   23.20    0.76
   2  -2  -6   23.83    0.68
  -2  -2   6   23.88    0.76
  -2   2   5    1.06    0.22
   2   2  -5    0.85    0.19
  -2  -2   5    1.20    0.18
  -2  -2   5    1.19    0.23
   2  -2  -5    1.04    0.20
  -2  -2   5    1.12    0.20
   2  -2  -5    1.38    0.22
   2   2  -4    7.96    0.41
   2   2  -4    7.94    0.37
  -2   2   4    8.10    0.25
  -2   2   4    8.14    0.40
  -2  -2   4    8.31    0.37
  -2  -2   4    7.81    0.47
  -2  -2   4    8.52    0.40
  -2  -2   4    8.51    0.36
   2  -2  -4    8.35    0.40
   2  -2  -4    8.01    0.37
  -2   2   3  176.14    2.98
  -2   2   3  171.51    3.16
   2   2  -3  171.86    3.12
   2  -2  -3  174.63    2.98
   2  -2  -3  170.91    3.13
  -2  -2   3  168.33    3.14
  -2  -2   3  170.79    3.21
  -2  -2   3  171.74    3.16
  -2  -2   3  177.29    3.04
   2   2  -2   78.96    1.56
  -2   2   2   77.54    1.56
  -2  -2   2   78.52    1.56
  -2  -2   2   80.15    1.41
   2  -2  -2   76.49    1.57
  -2  -2   2   79.05    1.56
   2  -2  -2   78.69    1.47
  -2  -2   2   77.83    1.61
   2  -2  -2   77.96    1.57
  -2   2   1   38.68    0.88
   2   2  -1   38.81    0.88
   2  -2  -1   39.68    0.85
   2  -2  -1   39.20    0.92
  -2  -2   1   39.13    0.89
   2  -2  -1   39.23    0.87
   2   2   0   24.61    0.64
  -2  -2   0   24.84    0.63
   2  -2   0   25.31    0.66
   2  -2   0   23.89    0.67
  -2  -2   0   24.87    0.65
   2  -2   0   24.84    0.64
   2   2   1   38.33    0.75
   2   2   1   37.55    0.88
  -2  -2  -1   38.16    0.87
   2  -2   1   37.18    0.89
   2  -2   1   37.40    0.92
  -2  -2  -1   37.51    0.86
   2  -2   1   38.04    0.79
   2   2   2  250.95    4.38
  -2   2  -2  246.58    4.40
   2   2   2  253.90    4.30
   2  -2   2  248.41    4.23
   2  -2   2  252.91    4.42
   2  -2   2  248.03    4.43
  -2  -2  -2  250.94    4.36
  -2  -2  -2  235.40    4.40
   2  -2   2  251.86    4.44
  -2   2  -3   22.19    0.69
   2   2   3   23.09    0.64
   2   2   3   23.73    0.65
   2   2   3   23.58    0.56
  -2  -2  -3   23.94    0.58
   2  -2   3   21.48    0.95
  -2  -2  -3   23.74    0.70
   2  -2   3   23.23    0.68
   2  -2   3   23.75    0.54
   2  -2   3   22.87    0.77
   2   2   4   11.97    0.45
   2   2   4   11.99    0.57
   2   2   4   12.07    0.33
  -2   2  -4   12.38    0.51
   2  -2   4   11.28    0.47
   2  -2   4   11.91    0.37
   2  -2   4   11.56    0.51
  -2  -2  -4   11.99    0.46
   2  -2   4   12.32    0.50
  -2   2  -5    0.84    0.17
   2   2   5    0.46    0.21
   2   2   5    0.63    0.15
   2  -2   5    0.22    0.24
   2  -2   5    0.73    0.19
   2  -2   5    0.84    0.20
  -2  -2  -5    0.80    0.20
   2   2   6    6.75    0.41
   2   2   6    6.76    0.64
  -2   2  -6    7.50    0.42
   2  -2   6    6.70    0.43
   2  -2   6    7.33    0.56
  -2  -2  -6    7.21    0.46
   2  -2   6    7.70    0.52
   2   2   7   22.97    0.93
   2   2   7   23.65    0.78
  -2  -2  -7   24.99    0.86
   2  -2   7   24.17    0.90
   2  -2   7   25.08    1.03
   2  -2   7   25.22    0.75
   2   2   8    8.88    0.63
   2   2   8    7.57    0.54
  -2  -2  -8    7.18    0.70
   2  -2   8    6.82    0.57
   2  -2   8    7.74    0.57
   2   2   9    2.54    0.48
   2  -2   9    2.62    0.47
   2  -2   9    2.40    0.36
   2   2  10    4.15    0.89
   2  -2  10    3.26    0.43
   2   2  11    0.66    0.62
   2  -2  11    0.74    0.59
   2   2  12   13.31    1.33
   2  -2  12   19.29    1.39
  -2   3  13   24.50    1.73
  -2  -3  13   25.42    1.49
  -2   3  12   14.80    1.19
   2  -3 -12   14.75    1.38
  -2  -3  12   13.80    1.13
  -2   3  11    4.84    0.72
   2  -3 -11    3.51    0.81
  -2  -3  11    5.67    0.84
   2   3 -10    0.28    0.50
  -2   3  10    1.17    0.49
   2  -3 -10   -0.81    0.42
  -2  -3  10    0.33    0.41
  -2   3   9    1.59    0.39
   2   3  -9    2.02    0.57
   2   3  -9    1.25    0.49
   2   3  -9    0.91    0.59
  -2  -3   9    0.82    0.37
   2  -3  -9    1.11    0.38
  -2  -3   9    0.92    0.36
   2   3  -8    7.22    0.68
  -2   3   8    7.13    0.59
   2   3  -8    7.04    0.60
  -2  -3   8    8.21    0.62
  -2  -3   8    7.39    0.60
  -2  -3   8    6.67    0.54
   2  -3  -8    8.89    0.58
   2   3  -7   42.99    1.21
  -2   3   7   42.52    1.27
   2   3  -7   42.41    1.28
   2   3  -7   40.63    1.50
  -2  -3   7   43.33    1.27
  -2  -3   7   42.05    1.57
  -2  -3   7   43.07    1.24
  -2  -3   7   42.96    1.18
   2  -3  -7   43.13    1.16
   2  -3  -7   42.77    1.27
  -2   3   6   76.13    1.81
   2   3  -6   71.91    1.72
   2   3  -6   74.60    1.68
  -2   3   6   68.39    1.45
   2  -3  -6   72.59    1.56
  -2  -3   6   72.88    1.66
  -2  -3   6   73.08    1.74
  -2  -3   6   73.01    1.70
   2  -3  -6   74.27    1.78
  -2  -3   6   72.15    1.65
  -2   3   5    0.52    0.23
   2   3  -5    0.12    0.18
  -2   3   5    0.19    0.13
  -2  -3   5    0.01    0.18
   2  -3  -5    0.40    0.19
  -2  -3   5    0.10    0.17
  -2  -3   5    0.11    0.18
  -2  -3   5    0.12    0.22
   2  -3  -5    0.02    0.22
  -2   3   4    0.19    0.18
  -2   3   4    0.40    0.12
   2   3  -4    0.12    0.17
   2  -3  -4    0.57    0.19
  -2  -3   4    0.34    0.15
  -2  -3   4    0.47    0.17
   2  -3  -4    0.10    0.18
  -2  -3   4    0.18    0.19
   2   3  -3    8.12    0.34
   2   3  -3    7.73    0.41
  -2   3   3    7.99    0.41
  -2   3   3    8.33    0.34
  -2  -3   3    7.68    0.45
   2  -3  -3    8.76    0.36
  -2  -3   3    8.13    0.42
   2  -3  -3    8.43    0.42
   2  -3  -3    8.30    0.42
  -2  -3   3    8.74    0.42
  -2  -3   3    8.62    0.34
   2   3  -2    6.11    0.26
   2   3  -2    5.31    0.34
  -2  -3   2    5.60    0.36
  -2  -3   2    5.83    0.35
   2  -3  -2    5.31    0.36
  -2  -3   2    5.35    0.35
   2  -3  -2    5.57    0.30
   2  -3  -2    5.60    0.34
   2   3  -1   28.28    0.59
  -2   3   1   28.63    0.76
   2  -3  -1   27.63    0.83
  -2  -3   1   32.07    1.17
   2  -3  -1   28.55    0.75
   2  -3  -1   27.74    0.76
  -2   3   0    1.43    0.20
   2   3   0    1.33    0.16
   2   3   0    1.72    0.32
   2  -3   0    1.36    0.19
  -2  -3   0    1.73    0.24
   2  -3   0    1.45    0.23
   2   3   1    5.06    0.25
  -2   3  -1    5.03    0.32
   2  -3   1    4.88    0.29
   2  -3   1    5.05    0.34
  -2  -3  -1    4.67    0.32
   2  -3   1    4.88    0.42
   2   3   2    0.34    0.13
  -2   3  -2    0.40    0.16
   2   3   2    0.48    0.14
   2  -3   2    0.32    0.14
  -2  -3  -2    0.26    0.15
   2  -3   2    0.21    0.16
  -2  -3  -2    0.19    0.15
   2  -3   2    0.20    0.12
   2   3   3    2.08    0.26
   2   3   3    2.07    0.26
  -2   3  -3    2.42    0.28
  -2  -3  -3    2.00    0.27
   2  -3   3    1.96    0.28
   2  -3   3    2.15    0.24
  -2  -3  -3    1.85    0.26
   2  -3   3    2.21    0.31
  -2   3  -4    5.33    0.43
   2   3   4    5.77    0.40
   2   3   4    5.71    0.37
   2  -3   4    5.52    0.41
   2  -3   4    5.30    0.41
  -2  -3  -4    6.06    0.41
  -2  -3  -4    5.72    0.35
   2  -3   4    5.70    0.32
   2  -3   4    5.60    0.45
  -2   3  -5    0.65    0.30
   2   3   5    0.71    0.24
   2   3   5    0.76    0.20
   2  -3   5    0.46    0.23
  -2  -3  -5    0.80    0.25
   2  -3   5    0.85    0.18
   2  -3   5    0.65    0.26
   2  -3   5    0.40    0.33
   2   3   6    6.47    0.86
   2   3   6    6.07    0.43
  -2   3  -6    7.31    0.55
  -2   3  -6    6.86    0.45
  -2  -3  -6    6.64    0.57
   2  -3   6    6.88    0.52
   2  -3   6    6.60    0.53
   2  -3   6    6.29    0.51
   2  -3   6    6.06    0.37
   2   3   7   18.74    0.72
  -2   3  -7   17.51    0.79
  -2  -3  -7   19.07    0.88
   2  -3   7   18.69    0.78
   2  -3   7   18.17    0.78
   2  -3   7   17.69    0.78
  -2   3  -8    4.61    0.62
   2   3   8    4.95    0.63
   2   3   8    5.58    0.58
  -2  -3  -8    3.97    0.62
   2  -3   8    5.52    0.61
   2  -3   8    4.68    0.55
   2   3   9    0.84    0.45
  -2   3  -9    1.08    0.48
   2  -3   9    0.80    0.46
  -2  -3  -9    1.36    0.46
   2  -3   9    0.29    0.35
  -2   3 -10    0.71    0.55
   2  -3  10   -0.27    0.43
   2  -3  10    0.66    0.57
   2   3  11   16.18    1.27
  -2   3 -11   15.32    1.33
   2  -3  11   16.24    1.88
  -2   3 -12   24.19    1.65
   2   3  12   24.83    1.83
   2  -3  12   27.16    1.90
   2   4 -12    2.51    0.96
  -2   4  12    1.61    0.75
  -2  -4  12    2.59    0.82
   2  -4 -12    2.20    0.87
   2   4 -11   10.40    1.50
  -2   4  11    9.71    1.08
  -2  -4  11   10.66    1.03
   2  -4 -11   10.61    1.22
   2   4 -10    0.20    0.63
   2   4 -10    1.42    0.58
  -2   4  10    0.58    0.55
   2  -4 -10    0.30    0.61
  -2  -4  10   -0.19    0.50
   2   4  -9   12.84    0.86
   2   4  -9   12.00    0.84
   2   4  -9   11.22    0.89
  -2   4   9   12.64    0.88
   2   4  -9   13.31    0.89
  -2  -4   9   13.13    0.75
  -2  -4   9   12.86    0.77
  -2  -4   9   12.92    0.72
  -2  -4   9   12.14    0.77
   2  -4  -9   11.64    0.85
   2   4  -8   25.85    1.27
   2   4  -8   25.57    1.00
   2   4  -8   24.11    1.36
  -2   4   8   24.02    1.15
   2   4  -8   24.99    0.98
  -2  -4   8   25.24    0.91
  -2  -4   8   25.78    0.91
   2  -4  -8   23.84    1.02
  -2  -4   8   25.50    0.94
  -2  -4   8   24.15    0.97
   2   4  -7   11.88    0.74
   2   4  -7   13.49    0.71
  -2   4   7   13.48    0.69
   2   4  -7   11.52    0.72
  -2  -4   7   12.80    0.65
   2  -4  -7   12.24    0.67
  -2  -4   7   12.56    0.65
  -2  -4   7   11.14    0.66
  -2  -4   7   11.88    0.70
  -2   4   6   69.66    1.74
   2   4  -6   67.65    1.70
   2   4  -6   66.42    1.60
  -2   4   6   66.96    1.39
   2  -4  -6   67.22    1.72
  -2  -4   6   69.25    1.70
  -2  -4   6   66.83    1.75
  -2  -4   6   66.83    1.67
  -2  -4   6   64.80    1.57
   2  -4  -6   67.17    1.59
  -2   4   5    4.07    0.46
  -2   4   5    3.67    0.31
   2   4  -5    3.48    0.39
  -2  -4   5    2.60    0.60
  -2  -4   5    3.37    0.48
   2  -4  -5    3.61    0.43
  -2  -4   5    3.81    0.38
   2  -4  -5    3.24    0.44
   2   4  -4   47.11    1.11
  -2   4   4   48.46    1.27
   2   4  -4   48.17    1.29
  -2   4   4   48.69    1.11
  -2  -4   4   47.74    1.29
   2  -4  -4   47.08    1.25
  -2  -4   4   45.88    1.37
  -2  -4   4   47.90    1.26
   2  -4  -4   41.05    1.56
   2   4  -3   62.99    1.52
  -2   4   3   61.99    1.37
  -2   4   3   62.36    1.48
   2   4  -3   61.31    1.29
  -2  -4   3   61.89    1.49
  -2  -4   3   61.73    1.73
   2  -4  -3   61.57    1.51
   2  -4  -3   61.13    1.42
  -2  -4   3   61.78    1.51
   2  -4  -3   62.44    1.52
   2   4  -2    0.22    0.18
   2   4  -2    0.16    0.15
  -2   4   2    0.11    0.15
  -2   4   2   -0.04    0.16
  -2  -4   2   -0.21    0.18
   2  -4  -2    0.00    0.19
  -2  -4   2   -0.16    0.17
   2  -4  -2    0.11    0.19
   2  -4  -2    0.22    0.16
  -2  -4   2   -0.02    0.19
   2   4  -1    7.56    0.44
  -2   4   1    7.87    0.43
   2   4  -1    7.20    0.39
   2  -4  -1    7.72    0.48
   2  -4  -1    7.54    0.42
  -2  -4   1    7.56    0.47
  -2  -4   1    7.89    0.45
   2  -4  -1    7.81    0.42
   2   4   0   -0.12    0.15
  -2   4   0   -0.21    0.15
   2   4   0    0.10    0.16
  -2  -4   0   -0.07    0.18
   2  -4   0    0.18    0.16
   2  -4   0   -0.11    0.16
   2  -4   0   -0.14    0.20
  -2  -4   0    0.25    0.17
   2   4   1   26.02    0.65
   2   4   1   25.73    0.81
  -2   4  -1   26.77    0.80
   2  -4   1   27.53    0.98
  -2  -4  -1   24.91    0.83
  -2  -4  -1   26.08    0.85
   2  -4   1   26.01    0.85
   2  -4   1   25.09    0.89
  -2   4  -2   35.15    0.99
   2   4   2   35.46    0.86
   2   4   2   35.10    1.02
  -2  -4  -2   35.69    1.05
   2  -4   2   36.43    1.07
   2  -4   2   35.72    1.10
  -2  -4  -2   35.01    1.00
   2  -4   2   36.08    0.93
  -2   4  -3   24.45    0.83
   2   4   3   23.61    0.79
  -2  -4  -3   24.15    0.85
  -2  -4  -3   22.73    0.76
   2  -4   3   21.41    1.02
   2  -4   3   22.53    0.71
  -2   4  -4   18.78    1.14
   2   4   4   18.38    0.69
   2   4   4   18.68    0.71
   2  -4   4   18.18    0.63
   2  -4   4   18.84    0.85
  -2  -4  -4   20.09    1.02
   2  -4   4   18.64    0.81
   2   4   5    1.74    0.30
   2   4   5    1.60    0.34
  -2   4  -5    1.79    0.32
  -2  -4  -5    2.02    0.31
   2  -4   5    1.21    0.24
  -2  -4  -5    1.49    0.32
   2  -4   5    1.85    0.45
   2  -4   5    1.39    0.29
   2   4   6    0.22    0.31
   2   4   6    0.17    0.31
  -2   4  -6    0.38    0.26
   2  -4   6    0.13    0.23
   2  -4   6    0.26    0.28
  -2  -4  -6    0.26    0.28
   2  -4   6    0.32    0.26
   2  -4   6   -0.19    0.33
  -2   4  -7    2.08    0.39
   2   4   7    1.53    0.36
   2   4   7    1.69    0.34
   2  -4   7    2.60    0.38
   2  -4   7    1.56    0.31
  -2  -4  -7    1.92    0.37
   2  -4   7    1.81    0.39
  -2   4  -8    4.97    0.70
   2   4   8    4.18    0.69
   2  -4   8    5.90    0.75
  -2  -4  -8    4.83    0.65
   2  -4   8    4.08    0.68
   2  -4   8    4.49    0.66
   2   4   9    9.68    1.35
  -2   4  -9    8.60    1.16
   2  -4   9    6.98    0.86
  -2  -4  -9    7.98    1.32
   2  -4   9    6.64    0.79
   2   4  10   -0.12    0.68
   2  -4  10   -0.63    0.59
   2  -4  10   -0.73    0.68
  -2   4 -11    7.85    0.94
   2   4  11    7.36    1.63
   2  -4  11    7.37    1.20
   2   4  12    2.72    1.11
  -2   4 -12    3.58    1.11
   2  -4  12    3.21    1.01
  -2   5  12   -1.65    0.91
   2  -5 -12   -0.12    1.09
  -2   5  11    0.93    0.77
   2   5 -11   -1.04    0.97
  -2  -5  11   -1.32    0.69
  -2   5  10    2.92    0.70
   2  -5 -10    2.73    0.63
   2   5  -9    1.26    0.56
   2   5  -9    0.78    0.61
  -2   5   9   -0.34    0.91
   2   5  -9   -0.93    0.52
   2   5  -9    0.27    0.55
  -2  -5   9    0.44    0.44
  -2  -5   9   -0.24    0.50
  -2  -5   9    0.37    0.47
  -2  -5   9    1.18    0.44
  -2   5   8    0.84    0.44
   2   5  -8    0.59    0.48
   2   5  -8    1.85    0.46
   2   5  -8    0.74    0.42
   2   5  -8    1.91    0.46
   2  -5  -8    1.58    0.45
  -2  -5   8    1.30    0.43
  -2  -5   8    1.62    0.38
   2   5  -7    4.48    0.58
   2   5  -7    2.82    0.47
  -2   5   7    3.44    0.56
  -2  -5   7    3.73    0.61
  -2  -5   7    3.38    0.52
  -2  -5   7    4.29    0.69
  -2  -5   7    2.67    0.38
   2  -5  -7    2.62    0.42
   2   5  -6    5.20    0.54
  -2   5   6    4.67    0.54
   2  -5  -6    5.00    0.71
  -2  -5   6    4.71    0.54
  -2  -5   6    4.53    0.47
   2  -5  -6    4.98    0.51
  -2  -5   6    4.57    0.50
   2   5  -5    0.15    0.29
   2   5  -5    0.42    0.28
  -2   5   5   -0.21    0.28
  -2   5   5    0.04    0.22
  -2  -5   5   -0.07    0.27
   2  -5  -5    0.01    0.42
  -2  -5   5   -0.45    0.28
  -2  -5   5   -0.04    0.25
   2  -5  -5   -0.11    0.25
   2   5  -4    8.02    0.53
   2   5  -4    7.41    0.57
  -2   5   4    7.47    0.55
  -2   5   4    7.85    0.46
   2  -5  -4    7.75    0.56
  -2  -5   4    8.31    0.61
  -2  -5   4    7.84    0.56
  -2  -5   4    7.49    0.54
   2   5  -3    2.80    0.42
   2   5  -3    2.10    0.27
  -2   5   3    2.61    0.57
  -2   5   3    2.17    0.32
   2  -5  -3    1.57    0.30
  -2  -5   3    2.87    0.41
   2  -5  -3    2.56    0.33
  -2  -5   3    2.46    0.40
  -2  -5   3    1.68    0.33
  -2   5   2    2.83    0.39
   2   5  -2    2.51    0.39
  -2   5   2    3.06    0.45
  -2  -5   2    2.40    0.33
   2  -5  -2    3.58    0.45
  -2  -5   2    2.90    0.45
  -2  -5   2    3.24    0.42
   2  -5  -2    2.89    0.42
  -2   5   1   12.31    0.65
   2   5  -1   12.64    0.48
  -2   5   1   13.63    0.65
   2   5  -1   12.71    0.66
  -2  -5   1   12.49    0.67
  -2  -5   1   12.70    1.13
   2  -5  -1   14.06    0.75
   2  -5  -1   12.87    0.66
   2   5   0    0.46    0.24
   2   5   0    0.85    0.22
  -2   5   0    0.32    0.24
  -2  -5   0    1.00    0.56
   2  -5   0    0.42    0.30
  -2  -5   0    0.58    0.25
   2  -5   0    0.63    0.28
   2  -5   0    0.67    0.41
   2   5   1  118.94    2.55
  -2   5  -1  115.88    2.45
   2   5   1  117.49    2.24
  -2  -5  -1  118.25    2.58
   2  -5   1  119.07    2.58
  -2  -5  -1  117.61    2.64
   2  -5   1  119.79    2.48
   2  -5   1  120.02    2.68
   2   5   2   91.74    1.86
   2   5   2   89.46    2.08
  -2   5  -2   87.86    2.22
   2  -5   2   90.19    2.12
  -2  -5  -2   90.59    2.11
   2  -5   2   92.98    2.00
  -2  -5  -2   92.27    2.11
   2  -5   2   91.07    2.21
   2   5   3    6.44    0.48
  -2   5  -3    6.68    0.56
   2   5   3    6.77    0.51
   2  -5   3    7.07    0.60
   2  -5   3    7.16    0.51
  -2  -5  -3    7.38    0.59
  -2  -5  -3    6.97    0.55
   2  -5   3    7.31    0.57
   2   5   4  107.42    2.24
   2   5   4  104.51    2.30
  -2   5  -4  105.86    2.36
  -2  -5  -4  104.09    2.29
  -2  -5  -4  107.50    2.43
   2  -5   4  103.81    2.22
   2  -5   4  104.49    2.54
   2  -5   4  105.97    2.45
   2   5   5   20.92    0.83
   2   5   5   21.36    0.94
  -2   5  -5   22.33    0.90
  -2  -5  -5   23.02    0.91
   2  -5   5   21.41    0.80
  -2  -5  -5   22.13    0.91
   2  -5   5   20.72    0.89
   2  -5   5   23.31    0.95
   2   5   6    0.73    0.43
  -2   5  -6    0.56    0.63
   2   5   6    0.09    0.27
  -2  -5  -6    0.14    0.33
   2  -5   6   -0.33    0.35
   2  -5   6    0.29    0.30
  -2   5  -7    1.18    0.41
   2   5   7    0.71    0.42
   2   5   7    1.44    0.30
   2  -5   7    1.95    0.42
   2  -5   7    0.94    0.39
  -2  -5  -7    1.45    0.55
  -2   5  -8    0.63    0.51
   2   5   8    0.10    0.49
   2  -5   8    0.92    0.55
  -2  -5  -8    0.52    0.49
   2  -5   8    0.29    0.47
  -2  -5  -9    3.83    0.97
   2  -5   9    3.82    0.62
  -2   5 -10    0.25    0.67
   2   5  10    1.83    1.17
   2  -5  10   -0.19    0.57
   2   5  11    1.82    1.01
  -2   5 -11    0.48    0.83
  -2   6  11   11.91    1.68
   2  -6 -11    7.34    1.11
  -2   6  10    6.00    1.01
   2  -6 -10    6.19    0.86
   2   6  -9   20.03    1.67
  -2   6   9   22.53    1.84
   2   6  -9   19.55    1.44
   2  -6  -9   21.75    1.32
  -2  -6   9   21.67    1.19
  -2  -6   9   21.63    1.34
  -2  -6   9   24.37    1.36
   2   6  -8   13.20    1.32
   2   6  -8   11.23    1.17
  -2   6   8   11.30    1.49
  -2  -6   8   12.68    0.97
  -2  -6   8   13.87    1.06
   2  -6  -8   15.18    1.14
  -2  -6   8   12.56    1.00
  -2   6   7    0.32    0.42
   2   6  -7   -0.61    0.44
  -2  -6   7   -0.41    0.40
  -2  -6   7   -0.12    0.40
   2  -6  -7   -0.52    0.47
  -2  -6   7   -0.12    0.48
   2   6  -6   18.77    1.00
  -2   6   6   16.92    1.23
   2  -6  -6   21.43    1.34
  -2  -6   6   18.64    0.93
  -2  -6   6   17.85    1.02
   2  -6  -6   18.76    0.97
  -2  -6   6   18.73    1.27
  -2   6   5   21.02    0.80
   2   6  -5   20.86    1.00
  -2   6   5   21.38    0.91
   2  -6  -5   20.07    0.94
  -2  -6   5   22.28    0.93
  -2  -6   5   22.86    1.05
  -2   6   4    0.99    0.26
   2   6  -4    1.81    0.34
  -2   6   4    1.85    0.38
   2  -6  -4    1.69    0.37
  -2  -6   4    1.45    0.40
  -2  -6   4    1.58    0.32
  -2  -6   4    1.48    0.34
   2  -6  -4    1.58    0.32
  -2   6   3    0.36    0.54
  -2   6   3    0.87    0.26
   2   6  -3    1.03    0.29
   2  -6  -3    0.41    0.32
   2  -6  -3    1.12    0.29
  -2  -6   3    0.94    0.28
  -2  -6   3    0.66    0.31
  -2  -6   3    0.74    0.30
  -2   6   2   -0.08    0.24
   2   6  -2    0.01    0.25
  -2   6   2    0.48    0.28
  -2  -6   2    0.56    0.30
   2  -6  -2    0.17    0.27
   2  -6  -2    0.31    0.25
  -2  -6   2    0.27    0.27
   2  -6  -2    0.39    0.31
   2   6  -1    7.31    0.51
  -2   6   1    7.74    0.51
  -2   6   1    7.37    0.56
  -2  -6   1    6.98    0.50
  -2  -6   1    7.65    0.58
   2  -6  -1    8.15    0.63
   2  -6  -1    6.60    0.66
   2  -6  -1    6.44    0.52
  -2   6   0    1.39    0.28
   2   6   0    1.51    0.27
  -2   6   0    0.75    0.30
  -2  -6   0    1.19    0.27
   2  -6   0    1.44    0.29
   2  -6   0    0.96    0.28
   2  -6   0    1.52    0.37
  -2  -6   0    1.30    0.33
  -2   6  -1   26.49    0.96
   2   6   1   28.88    1.40
  -2  -6  -1   25.56    1.13
   2  -6   1   26.27    1.06
  -2  -6  -1   26.88    0.99
   2  -6   1   25.36    0.94
   2  -6   1   26.52    1.04
   2   6   2    1.75    0.31
  -2   6  -2    1.34    0.32
   2   6   2    1.48    0.37
  -2  -6  -2    2.02    0.33
   2  -6   2    1.56    0.30
  -2  -6  -2    1.29    0.36
   2  -6   2    1.45    0.31
   2  -6   2    1.94    0.38
  -2   6  -3    0.70    0.30
   2   6   3    0.69    0.40
   2   6   3    0.70    0.27
  -2  -6  -3    1.65    0.33
   2  -6   3    1.03    0.31
  -2  -6  -3    0.78    0.42
   2  -6   3    1.46    0.31
   2  -6   3    1.40    0.38
  -2   6  -4   26.90    1.32
   2   6   4   28.19    0.98
  -2  -6  -4   28.18    1.18
   2  -6   4   27.95    1.10
  -2  -6  -4   28.18    1.10
   2  -6   4   27.36    0.96
   2  -6   4   29.22    1.15
  -2   6  -5   23.97    1.01
   2   6   5   26.99    1.12
   2   6   5   24.30    0.91
   2  -6   5   24.92    1.14
   2  -6   5   23.74    1.04
  -2  -6  -5   23.87    1.08
   2  -6   5   24.35    0.91
   2   6   6   25.44    0.96
  -2   6  -6   23.53    1.11
  -2  -6  -6   24.60    1.18
   2  -6   6   24.30    1.19
   2  -6   6   24.09    1.12
  -2   6  -7    1.44    0.56
   2   6   7    1.29    0.60
  -2  -6  -7    1.60    0.59
   2  -6   7    2.27    0.82
   2  -6   7    2.22    0.77
  -2   6  -8    2.38    0.71
   2   6   8    1.46    0.83
   2  -6   8    2.28    0.67
  -2  -6  -8    1.46    0.70
   2  -6   8    1.26    0.53
  -2   6  -9    1.10    0.70
   2  -6   9    0.01    0.58
  -2  -6  -9    0.93    1.27
  -2   6 -10    4.96    0.96
   2  -6  10    3.08    0.71
  -2   7  10    6.85    1.21
   2  -7 -10    5.67    1.55
  -2   7   9   35.31    1.74
   2   7  -9   37.06    2.06
   2   7  -9   38.67    2.19
  -2  -7   9   36.85    1.77
   2  -7  -9   40.93    1.76
  -2  -7   9   34.30    1.59
   2   7  -8    8.76    1.17
  -2   7   8   11.16    1.20
   2   7  -8   10.14    1.35
  -2  -7   8    7.51    1.13
   2  -7  -8    7.14    1.09
  -2  -7   8    8.10    1.02
  -2  -7   8    8.84    0.98
   2   7  -7   -0.85    0.54
  -2   7   7    0.48    0.67
  -2  -7   7    1.27    0.65
  -2  -7   7    0.12    0.51
   2  -7  -7   -0.43    0.54
   2   7  -6    2.35    0.63
  -2   7   6    2.35    0.65
  -2  -7   6    2.33    0.60
  -2  -7   6    3.01    0.56
  -2  -7   6    3.50    0.74
   2  -7  -6    1.94    0.54
  -2   7   5    9.20    0.85
  -2   7   5   10.54    0.65
   2   7  -5    9.29    0.91
  -2  -7   5    8.28    0.91
   2  -7  -5   10.21    0.94
   2  -7  -5    7.43    1.15
  -2  -7   5    9.65    0.95
  -2  -7   5   10.23    1.02
  -2   7   4    4.15    0.56
  -2   7   4    4.29    0.55
   2   7  -4    4.22    0.68
   2  -7  -4    5.29    0.77
  -2  -7   4    4.11    0.61
   2  -7  -4    4.21    0.55
  -2  -7   4    3.88    0.52
  -2  -7   4    5.07    0.67
   2   7  -3   -0.25    0.38
  -2   7   3    0.32    0.31
  -2   7   3   -0.11    0.42
   2  -7  -3    0.04    0.47
   2  -7  -3   -0.23    0.37
  -2  -7   3    0.78    0.36
  -2  -7   3    0.11    0.41
  -2   7   2    0.75    0.36
   2   7  -2    0.27    0.34
  -2   7   2    1.21    0.30
  -2  -7   2    1.11    0.42
  -2  -7   2    0.60    0.44
   2  -7  -2    1.07    0.39
   2  -7  -2    0.53    0.34
  -2   7   1    1.29    0.32
  -2   7   1    0.99    0.35
   2   7  -1    1.28    0.36
  -2  -7   1    1.09    0.37
   2  -7  -1    1.30    0.35
   2  -7  -1    1.96    0.39
   2  -7  -1    1.23    0.42
  -2  -7   1    1.94    0.46
  -2   7   0    0.77    0.33
   2   7   0   -0.12    0.31
  -2   7   0    0.28    0.34
   2  -7   0    0.54    0.32
  -2  -7   0    0.06    0.35
   2  -7   0   -0.28    0.33
   2  -7   0    0.18    0.40
  -2  -7   0    0.52    0.40
  -2   7  -1    7.66    0.69
  -2   7  -1    9.59    0.76
   2   7   1    8.43    0.67
   2  -7   1    7.03    0.75
   2  -7   1    7.73    0.70
   2  -7   1    8.83    0.70
  -2  -7  -1    7.84    0.75
  -2  -7  -1    9.10    0.71
  -2   7  -2    4.80    0.65
  -2   7  -2    4.32    0.67
   2   7   2    4.43    0.59
   2  -7   2    4.62    0.58
  -2  -7  -2    4.61    0.72
  -2  -7  -2    5.04    0.65
   2  -7   2    4.60    0.67
   2  -7   2    4.93    0.81
  -2   7  -3   -0.34    0.36
   2   7   3    0.23    0.33
  -2  -7  -3    0.31    0.41
  -2  -7  -3   -0.24    0.42
   2  -7   3   -0.12    0.37
   2  -7   3    0.20    0.45
   2  -7   3    0.57    0.37
   2   7   4    2.41    0.44
  -2   7  -4    3.26    0.55
  -2  -7  -4    3.05    0.71
  -2  -7  -4    2.88    0.56
   2  -7   4    4.56    0.65
   2  -7   4    2.55    0.52
   2   7   5    7.17    0.73
  -2   7  -5    8.64    0.95
   2  -7   5    9.38    0.89
   2   7   6    0.38    0.44
  -2   7  -6   -0.50    0.92
   2  -7   6    0.38    0.48
  -2  -7  -6   -0.78    0.53
   2  -7   6    0.85    0.61
  -2   7  -7   -0.71    0.66
   2  -7   7   -0.82    0.64
  -2  -7  -7   -0.30    0.61
   2  -7   7    0.33    0.55
  -2   7  -8    0.80    0.91
  -2  -7  -8    0.25    0.71
   2  -7   8   -0.88    0.74
  -2   7  -9    1.93    1.04
  -2  -7  -9    1.56    0.97
   2   8  -8    1.56    0.97
  -2  -8   8   -0.56    0.85
   2  -8  -8   -0.03    0.81
   2   8  -7    0.85    0.74
   2   8  -7   -0.43    0.70
  -2   8   7    0.10    0.86
   2  -8  -7    0.37    0.66
  -2  -8   7   -1.44    0.65
  -2  -8   7    0.03    0.74
  -2   8   6    0.94    0.78
   2   8  -6    0.52    0.63
  -2  -8   6   -1.79    1.13
   2  -8  -6    1.23    0.71
  -2  -8   6    1.03    0.66
   2   8  -5    2.91    0.63
   2  -8  -5    2.97    0.62
  -2  -8   5    1.02    0.71
  -2  -8   5    3.33    0.63
   2   8  -4    7.80    0.92
  -2   8   4    5.56    0.77
  -2   8   4    5.39    0.81
  -2  -8   4    5.90    1.00
   2  -8  -4    4.39    0.67
  -2  -8   4    3.43    0.66
   2   8  -3   -0.07    0.47
  -2   8   3    0.45    0.44
  -2   8   3   -0.32    0.56
  -2  -8   3    0.64    0.51
   2  -8  -3    0.76    0.51
  -2  -8   3    0.66    0.59
  -2   8   2   -0.67    0.52
  -2   8   2   -0.31    0.42
   2   8  -2    0.31    0.46
   2  -8  -2    0.63    0.50
  -2  -8   2   -0.49    0.50
  -2  -8   2   -0.02    0.58
   2   8  -1    9.50    0.92
  -2   8   1   10.28    1.04
  -2   8   1   10.76    0.86
  -2  -8   1   10.42    1.20
  -2  -8   1   10.54    0.93
   2  -8  -1    9.82    1.13
  -2   8   0   -0.22    0.67
  -2   8   0    0.05    0.55
   2  -8   0    1.46    0.49
   2  -8   0    0.03    0.58
  -2  -8   0    0.34    0.46
   2  -8   0    1.21    0.62
  -2   8  -1   16.85    1.10
  -2   8  -1   15.86    1.09
   2   8   1   18.65    1.22
  -2  -8  -1   16.85    1.28
  -2  -8  -1   18.70    1.08
   2  -8   1   17.95    1.02
   2  -8   1   18.80    1.25
   2  -8   1   17.82    1.17
  -2   8  -2    0.32    0.57
   2   8   2   -0.19    0.49
  -2   8  -2   -0.31    0.48
  -2  -8  -2   -0.04    0.98
  -2  -8  -2    0.17    0.49
   2  -8   2    0.00    0.48
   2  -8   2   -0.51    0.49
  -2   8  -3   -0.20    0.49
   2   8   3   -0.44    0.45
  -2   8  -3    0.36    0.99
   2  -8   3   -0.12    0.61
  -2  -8  -3    0.91    0.69
  -2  -8  -3   -0.60    0.51
   2  -8   3    0.11    0.50
   2  -8   3    0.30    0.51
  -2   8  -4    7.24    0.88
   2   8   4    6.98    0.84
  -2  -8  -4    7.24    1.05
   2  -8   4    8.54    0.95
   2  -8   4    6.51    0.90
  -2   8  -5   36.87    2.21
   2   8   5   35.95    1.39
  -2   8  -5   32.90    1.77
  -2  -8  -5   35.31    1.60
   2  -8   5   32.51    1.52
   2  -8   5   32.53    1.67
  -2   8  -6    7.50    1.12
  -2  -8  -6    5.53    0.82
   2  -8   6    5.28    0.74
   2  -8   6    4.61    1.00
  -2   8  -7    0.52    0.80
   2  -8   7    0.38    0.73
  -2  -8  -7   -1.44    0.86
   2  -8   7   -1.47    0.93
   2   9  -6    2.55    0.95
  -2  -9   6   -0.22    0.86
  -2  -9   6   -1.11    1.17
  -2  -9   5    5.62    1.28
   2  -9  -5    3.83    0.79
  -2  -9   5    3.92    0.95
   2   9  -4    0.12    0.67
  -2  -9   4    1.33    0.68
   2  -9  -4    1.26    0.93
  -2  -9   4   -0.15    0.78
   2  -9  -4   -0.38    0.64
   2   9  -3    2.34    0.61
   2  -9  -3    1.36    0.60
  -2  -9   3    1.12    0.72
   2  -9  -3    0.20    1.19
  -2  -9   3    0.01    0.65
   2   9  -2    0.25    0.60
  -2   9   2    2.07    0.57
   2  -9  -2    1.84    0.79
  -2  -9   2   -0.29    0.59
   2  -9  -2   -0.11    0.58
  -2  -9   2    1.00    0.72
   2   9  -1    2.52    0.62
  -2   9   1    2.36    0.58
   2  -9  -1    4.79    0.94
   2  -9  -1    3.01    0.79
  -2  -9   1    2.92    0.71
  -2  -9   1    4.15    0.75
  -2   9   0   55.57    2.32
   2   9   0   56.31    1.98
  -2  -9   0   56.91    2.08
   2  -9   0   56.56    2.18
  -2  -9   0   55.87    2.12
   2  -9   0   56.70    1.89
  -2   9  -1    4.31    0.65
   2   9   1    4.17    0.64
  -2  -9  -1    4.14    0.78
   2  -9   1    4.89    0.69
  -2  -9  -1    4.49    0.71
   2  -9   1    4.68    0.84
   2  -9   1    5.35    0.72
  -2   9  -2   -1.08    0.62
   2   9   2   -0.12    0.57
  -2  -9  -2    1.51    0.64
   2  -9   2    0.88    0.64
  -2  -9  -2    0.89    0.76
   2  -9   2    0.48    0.61
   2  -9   2    2.48    0.75
   2   9   3   -0.12    0.58
  -2   9  -3    0.76    0.65
  -2  -9  -3   -0.06    0.89
   2  -9   3    0.38    0.65
   2  -9   3   -0.23    0.74
  -2  -9  -3    1.91    0.67
   2   9   4    2.00    0.62
  -2   9  -4    1.32    0.79
   2  -9   4    1.29    0.71
  -2  -9  -4    2.55    0.81
   2  -9   4    1.65    0.93
  -2   9  -5   14.74    1.63
   2  -9   5   11.19    1.59
   2  -9   5    7.74    1.06
  -2  -9  -5   13.00    1.95
  -3   0  14    7.19    1.37
  -3   0  13   -0.01    0.66
  -3   0  12    1.87    1.03
   3   0 -12    1.58    0.90
   3   0 -11   -0.67    0.46
  -3   0  11   -0.26    0.56
   3   0 -10   -0.53    0.32
  -3   0  10   -0.34    0.35
   3   0  -9   -0.29    0.27
  -3   0   9    0.48    0.29
   3   0  -8   96.55    1.97
  -3   0   8   94.74    2.19
   3   0  -8   96.15    2.17
   3   0  -7   -0.01    0.24
   3   0  -7   -0.18    0.19
   3   0  -6   11.22    0.48
   3   0  -6   11.77    0.53
  -3   0   6   11.59    0.53
  -3   0   5    0.04    0.14
   3   0  -5    0.11    0.14
   3   0  -5    0.06    0.13
   3   0  -4    6.52    0.33
   3   0  -4    6.45    0.34
  -3   0   4    6.47    0.32
   3   0  -3   -0.13    0.10
  -3   0   3    0.10    0.10
   3   0  -3   -0.03    0.10
   3   0  -3    0.04    0.06
   3   0  -2   12.32    0.33
   3   0  -2   13.38    0.41
  -3   0   2   12.90    0.41
   3   0  -1   -0.42    0.10
  -3   0   1   -0.29    0.09
   3   0  -1   -0.45    0.08
  -3   0   1   -0.44    0.07
   3   0  -1   -0.41    0.10
   3   0   0   76.62    1.51
   3   0   0   76.52    1.52
  -3   0   0   78.10    1.40
   3   0   0   78.94    1.48
  -3   0   0   77.96    1.44
  -3   0  -1    0.04    0.06
   3   0   1   -0.01    0.08
   3   0   1    0.06    0.10
  -3   0  -1   -0.07    0.14
   3   0   2    7.47    0.30
   3   0   2    7.28    0.33
   3   0   2    7.49    0.33
  -3   0  -3    0.00    0.07
   3   0   3   -0.12    0.10
   3   0   3    0.15    0.13
   3   0   3   -0.10    0.10
   3   0   4   19.27    0.48
  -3   0  -4   18.71    0.43
   3   0   4   19.49    0.66
   3   0   4   18.57    0.61
  -3   0  -5    0.36    0.15
   3   0   5   -0.05    0.22
   3   0   5   -0.01    0.15
   3   0   6  313.93    5.78
   3   0   6  321.33    5.68
  -3   0  -6  306.66    5.35
   3   0   7    0.22    0.28
   3   0   7   -0.01    0.28
   3   0   8    1.98    0.32
   3   0   8    1.68    0.36
   3   0   9    0.38    0.40
   3   0   9   -0.39    0.45
   3   0  10    0.43    0.96
   3   0  11   -0.81    0.58
   3   0  12   18.12    1.37
  -3   1  13    7.60    1.19
  -3  -1  13    7.90    1.01
  -3   1  12   -0.42    0.55
   3   1 -12   -0.48    0.70
  -3  -1  12   -0.31    0.57
  -3   1  11    0.74    0.63
   3   1 -11    0.95    0.49
   3  -1 -11    0.32    0.66
  -3  -1  11    0.87    0.49
  -3   1  10   -0.01    0.36
   3   1 -10    0.89    0.36
  -3  -1  10    0.38    0.37
   3  -1 -10    0.16    0.36
  -3   1   9    9.76    0.64
   3   1  -9    9.55    0.64
   3  -1  -9    9.68    0.62
  -3  -1   9    9.83    0.61
   3   1  -8   17.29    0.77
   3   1  -8   17.29    0.70
  -3   1   8   17.87    0.78
   3  -1  -8   19.82    0.95
   3  -1  -8   16.76    0.78
  -3  -1   8   17.10    0.75
   3   1  -7    0.19    0.20
  -3   1   7    0.19    0.25
   3   1  -7   -0.04    0.21
   3   1  -7    0.38    0.26
  -3  -1   7   -0.30    0.24
   3  -1  -7   -0.01    0.21
  -3   1   6    1.78    0.29
   3   1  -6    1.48    0.24
   3   1  -6    1.95    0.28
   3  -1  -6    1.86    0.30
  -3  -1   6    1.99    0.31
   3  -1  -6    1.99    0.32
   3   1  -5    4.59    0.34
  -3   1   5    4.70    0.34
   3   1  -5    4.77    0.29
   3   1  -5    4.71    0.32
   3  -1  -5    4.68    0.32
  -3  -1   5    4.15    0.32
   3  -1  -5    4.57    0.33
   3   1  -4  505.13    8.85
  -3   1   4  520.31    9.13
   3   1  -4  524.43    9.01
   3   1  -4  552.29    9.31
   3  -1  -4  527.90    8.96
  -3  -1   4  527.14    9.15
  -3  -1   4  530.97    8.92
   3   1  -3   50.75    1.14
   3   1  -3   49.22    1.05
  -3   1   3   51.32    1.12
   3  -1  -3   51.61    1.13
   3  -1  -3   51.97    1.13
   3  -1  -3   50.78    0.94
  -3  -1   3   51.14    1.12
  -3  -1   3   50.54    1.04
   3   1  -2    3.24    0.21
   3   1  -2    3.30    0.25
  -3   1   2    3.20    0.22
   3  -1  -2    3.39    0.18
  -3  -1   2    3.21    0.22
   3  -1  -2    3.38    0.22
  -3  -1   2    3.11    0.16
   3  -1  -2    3.20    0.25
   3   1  -1    0.40    0.11
  -3   1   1    0.43    0.11
   3   1  -1    0.54    0.11
   3  -1  -1    0.44    0.13
   3  -1  -1    0.59    0.11
   3  -1  -1    0.61    0.13
  -3  -1   1    0.50    0.11
  -3  -1   1    0.58    0.08
   3   1   0    4.06    0.24
   3   1   0    4.03    0.23
  -3   1   0    3.88    0.23
   3  -1   0    4.18    0.18
   3  -1   0    3.89    0.23
   3  -1   0    3.66    0.24
  -3  -1   0    3.95    0.15
   3   1   1  142.70    2.51
   3   1   1  141.56    2.63
   3   1   1  143.22    2.60
   3  -1   1  144.31    2.43
  -3  -1  -1  143.12    2.54
   3  -1   1  144.99    2.63
   3  -1   1  144.98    2.63
   3   1   2   92.78    1.73
   3   1   2   92.36    1.70
  -3   1  -2   90.34    1.80
   3   1   2   90.18    1.80
   3  -1   2   90.04    1.81
   3  -1   2   92.67    1.78
  -3  -1  -2   90.26    1.68
   3  -1   2   93.36    1.82
   3   1   3    0.49    0.13
   3   1   3    0.49    0.15
  -3   1  -3    0.51    0.16
   3   1   3    0.54    0.11
   3  -1   3    0.98    0.26
   3  -1   3    0.41    0.16
   3  -1   3    0.62    0.14
   3   1   4    2.54    0.30
   3   1   4    2.68    0.27
   3  -1   4    2.53    0.31
   3  -1   4    2.46    0.27
   3  -1   4    2.82    0.28
  -3  -1  -4    2.95    0.25
   3   1   5    3.75    0.38
   3   1   5    3.42    0.31
   3  -1   5    3.35    0.40
  -3  -1  -5    3.26    0.30
   3  -1   5    3.28    0.29
   3  -1   5    3.05    0.34
   3   1   6   12.26    0.55
   3   1   6   10.88    1.01
   3  -1   6   11.87    0.45
   3  -1   6   13.36    0.67
  -3  -1  -6   11.68    0.50
   3  -1   6   11.92    0.60
   3   1   7   79.02    1.82
   3   1   7   78.02    1.95
   3  -1   7   76.81    1.92
  -3  -1  -7   80.69    1.72
   3  -1   7   78.43    1.90
   3   1   8    1.25    0.36
   3   1   8    1.21    0.34
   3  -1   8    0.95    0.30
   3  -1   8    1.48    0.33
   3   1   9    0.03    0.42
   3   1   9    0.11    0.32
   3  -1   9    0.56    0.33
   3  -1   9    0.16    0.42
   3  -1  10    8.52    0.80
   3   1  11    6.95    1.09
   3  -1  11    7.40    0.97
   3   1  12   -0.46    0.74
   3  -1  12   -0.45    0.75
  -3   2  13    5.18    0.81
  -3  -2  13    5.13    0.77
   3  -2 -13    6.50    1.11
  -3   2  12    0.13    0.57
   3  -2 -12   -0.07    0.68
  -3  -2  12    0.59    1.12
   3   2 -11    0.98    0.53
  -3   2  11   -0.15    0.50
  -3  -2  11    0.31    0.50
   3  -2 -11    1.25    0.56
  -3   2  10    1.42    0.43
   3   2 -10    1.58    0.78
  -3  -2  10    1.58    0.39
   3  -2 -10    1.90    0.44
   3   2  -9   10.85    0.82
   3   2  -9   11.14    0.68
  -3   2   9   11.14    0.73
   3  -2  -9   11.11    0.70
  -3  -2   9   11.02    0.65
  -3   2   8   77.19    1.92
   3   2  -8   76.14    1.80
   3   2  -8   78.29    1.67
   3   2  -8   78.03    1.95
  -3  -2   8   73.04    1.92
  -3  -2   8   76.84    1.63
   3  -2  -8   78.71    1.96
   3   2  -7   10.29    0.58
  -3   2   7   10.35    0.60
   3  -2  -7   10.91    0.63
  -3  -2   7    9.72    0.61
   3  -2  -7   10.25    0.53
   3   2  -6   22.39    0.78
  -3   2   6   21.40    0.92
   3   2  -6   21.81    0.77
   3   2  -6   22.33    0.68
  -3  -2   6   22.66    0.66
  -3  -2   6   22.66    0.76
  -3  -2   6   22.29    0.77
   3  -2  -6   22.31    0.83
   3  -2  -6   22.08    0.70
  -3  -2   6   22.25    0.73
   3   2  -5   11.43    0.52
   3   2  -5   11.65    0.46
   3   2  -5   11.85    0.53
   3  -2  -5   12.12    0.54
  -3  -2   5   12.10    0.52
  -3  -2   5   11.96    0.57
  -3  -2   5   11.74    0.47
  -3  -2   5   11.34    0.44
   3  -2  -5   11.06    0.48
   3   2  -4  220.89    4.14
  -3   2   4  224.91    4.11
   3   2  -4  227.70    4.01
  -3   2   4  228.14    3.79
   3  -2  -4  224.56    4.11
  -3  -2   4  221.43    4.16
  -3  -2   4  223.71    4.08
  -3  -2   4  227.68    3.95
   3  -2  -4  220.52    4.05
   3   2  -3  264.69    4.60
   3   2  -3  266.09    4.74
  -3  -2   3  248.67    4.50
  -3  -2   3  266.48    4.72
   3  -2  -3  266.14    4.46
   3  -2  -3  257.35    4.65
  -3   2   2   79.70    1.62
   3   2  -2   78.93    1.59
   3   2  -2   76.82    1.65
  -3  -2   2   81.39    1.39
   3  -2  -2   78.75    1.64
  -3  -2   2   77.22    1.60
   3  -2  -2   79.77    1.60
   3  -2  -2   79.24    1.51
  -3  -2   2   78.47    1.67
  -3   2   1    0.07    0.11
   3   2  -1    0.08    0.11
   3   2  -1    0.06    0.10
   3  -2  -1    0.06    0.10
  -3  -2   1    0.18    0.12
   3  -2  -1   -0.03    0.12
   3  -2  -1    0.13    0.10
  -3  -2   1    0.09    0.11
  -3   2   0   12.20    0.44
   3   2   0   11.80    0.43
   3   2   0   11.62    0.44
   3  -2   0   11.94    0.46
   3  -2   0   12.22    0.38
  -3  -2   0   11.94    0.45
   3  -2   0   11.99    0.43
  -3  -2   0   12.26    0.43
   3   2   1   78.52    1.42
   3   2   1   79.20    1.58
   3   2   1   78.23    1.61
  -3   2  -1   80.40    1.63
   3  -2   1   80.74    1.63
   3  -2   1   78.59    1.50
  -3  -2  -1   78.79    1.59
   3  -2   1   76.35    1.64
  -3  -2  -1   78.44    1.56
   3   2   2  162.54    2.86
  -3   2  -2  158.03    3.17
   3   2   2  159.48    3.01
   3   2   2  164.02    2.92
  -3  -2  -2  162.24    2.94
  -3  -2  -2  163.30    2.92
   3  -2   2  163.01    2.78
   3  -2   2  159.98    3.11
   3  -2   2  159.18    3.07
   3   2   3   45.39    1.03
  -3   2  -3   44.00    1.12
   3   2   3   45.31    0.96
  -3  -2  -3   45.52    1.05
   3  -2   3   43.80    1.09
   3  -2   3   45.42    1.13
   3  -2   3   44.30    1.13
   3  -2   3   45.45    0.84
   3   2   4    3.27    0.43
  -3   2  -4    4.31    0.38
   3   2   4    3.31    0.24
   3   2   4    3.68    0.30
  -3  -2  -4    3.84    0.31
   3  -2   4    3.34    0.38
   3  -2   4    3.70    0.33
   3  -2   4    3.51    0.34
   3   2   5    7.26    0.48
   3   2   5    7.29    0.45
   3  -2   5    6.54    0.41
   3  -2   5    7.52    0.49
  -3   2  -6   24.79    0.92
   3   2   6   27.14    0.87
   3   2   6   26.40    1.10
   3  -2   6   26.65    0.94
   3  -2   6   26.27    0.94
  -3  -2  -6   25.76    0.85
   3  -2   6   25.97    0.79
   3   2   7   11.69    0.65
   3   2   7   14.37    0.73
   3  -2   7   12.60    0.65
  -3  -2  -7   12.92    0.66
   3  -2   7   12.26    0.69
   3   2   8    3.37    0.52
   3   2   8    5.18    0.60
   3  -2   8    3.85    0.51
   3  -2   8    4.68    0.49
   3   2   9   -0.72    0.52
   3  -2   9   -0.24    0.46
   3  -2   9    0.36    0.34
  -3   2 -10   -0.75    0.49
   3  -2  10   -0.79    0.53
   3  -2  10   -0.77    0.42
   3   2  11    3.02    0.80
  -3   2 -11    2.02    0.61
   3  -2  11    2.01    0.67
  -3   2 -12    0.39    0.78
   3   2  12    0.28    0.82
   3  -2  12    2.06    0.83
  -3   3  13   -0.37    0.83
  -3  -3  13    0.71    0.73
   3  -3 -13    1.59    0.96
  -3  -3  12    1.94    0.62
   3  -3 -12    2.12    0.75
   3   3 -11    0.65    0.60
  -3   3  11    1.46    0.56
   3  -3 -11   -0.22    0.76
  -3  -3  11    0.49    0.86
   3   3 -10    0.08    0.44
  -3   3  10   -0.21    0.48
   3  -3 -10    0.06    0.41
  -3  -3  10   -0.33    0.39
   3   3  -9    4.52    0.75
  -3   3   9    3.98    0.55
   3   3  -9    3.97    0.59
  -3  -3   9    4.71    0.59
   3  -3  -9    4.52    0.62
   3   3  -8   50.84    1.46
  -3   3   8   52.74    1.51
   3   3  -8   49.76    1.38
   3   3  -8   52.32    1.51
  -3  -3   8   50.17    1.40
  -3  -3   8   53.16    1.47
  -3  -3   8   50.54    1.33
   3  -3  -8   50.50    1.46
   3   3  -7   69.21    1.63
  -3   3   7   72.03    1.93
   3   3  -7   70.45    1.72
  -3  -3   7   67.13    1.60
  -3  -3   7   68.84    1.69
   3  -3  -7   69.72    1.59
   3  -3  -7   66.39    2.30
  -3  -3   7   69.45    1.71
   3   3  -6    0.23    0.26
   3   3  -6    0.61    0.25
  -3   3   6    0.52    0.23
  -3  -3   6    0.45    0.22
   3  -3  -6    0.08    0.23
  -3  -3   6    0.32    0.22
   3  -3  -6    0.82    0.25
  -3  -3   6    0.72    0.30
  -3   3   5    0.12    0.23
   3   3  -5    0.23    0.19
   3   3  -5    0.17    0.22
   3  -3  -5    0.19    0.21
  -3  -3   5    0.42    0.19
  -3  -3   5    0.02    0.23
  -3  -3   5    0.13    0.22
  -3  -3   5   -0.03    0.19
   3  -3  -5   -0.02    0.24
   3   3  -4    1.14    0.20
  -3   3   4    0.85    0.14
  -3   3   4    1.00    0.23
   3   3  -4    0.93    0.23
   3  -3  -4    1.03    0.25
  -3  -3   4    0.96    0.23
  -3  -3   4    0.88    0.19
   3  -3  -4    0.66    0.21
  -3  -3   4    0.79    0.21
  -3  -3   4    1.18    0.17
   3  -3  -4    1.10    0.18
  -3   3   3   26.06    0.79
   3   3  -3   26.15    0.78
  -3  -3   3   25.14    0.78
  -3  -3   3   24.99    0.83
   3  -3  -3   25.43    0.67
   3  -3  -3   25.38    0.79
   3  -3  -3   25.39    0.78
  -3   3   2   21.76    0.68
   3   3  -2   21.32    0.67
   3   3  -2   21.46    0.46
   3  -3  -2   21.91    0.67
  -3  -3   2   21.30    0.69
   3  -3  -2   21.45    0.62
  -3  -3   2   21.40    0.74
   3  -3  -2   21.26    0.72
   3   3  -1    7.45    0.39
  -3   3   1    7.70    0.38
  -3  -3   1    7.48    0.40
   3  -3  -1    7.89    0.37
   3  -3  -1    7.08    0.37
   3  -3  -1    7.66    0.42
  -3  -3   1    7.46    0.43
   3   3   0   19.90    0.64
  -3   3   0   19.26    0.62
   3  -3   0   19.44    0.69
  -3  -3   0   19.12    0.62
   3  -3   0   19.58    0.59
   3   3   1   43.32    0.85
   3   3   1   43.00    1.07
  -3   3  -1   42.35    1.07
  -3  -3  -1   42.40    1.07
   3  -3   1   43.40    0.97
  -3  -3  -1   42.54    1.06
   3  -3   1   42.21    1.13
   3  -3   1   44.09    1.10
   3   3   2   15.88    0.59
  -3   3  -2   16.50    0.61
   3   3   2   16.60    0.49
   3   3   2   15.49    0.54
   3  -3   2   16.69    0.66
  -3  -3  -2   16.16    0.57
   3  -3   2   16.68    0.49
   3  -3   2   16.27    0.61
  -3  -3  -2   16.77    0.60
   3   3   3    2.84    0.30
   3   3   3    2.50    0.28
  -3   3  -3    2.43    0.33
   3   3   3    3.11    0.31
   3  -3   3    3.17    0.36
   3  -3   3    2.56    0.33
  -3  -3  -3    2.83    0.31
   3  -3   3    2.51    0.24
  -3  -3  -3    2.56    0.29
   3   3   4   -0.03    0.19
   3   3   4    0.08    0.18
   3   3   4   -0.14    0.17
  -3   3  -4    0.51    0.28
   3  -3   4    0.24    0.27
  -3  -3  -4   -0.13    0.18
   3  -3   4   -0.20    0.21
   3  -3   4   -0.11    0.14
  -3  -3  -4    0.13    0.20
   3  -3   4   -0.14    0.28
   3   3   5    3.87    0.40
   3   3   5    3.40    0.45
  -3   3  -5    2.87    0.42
  -3   3  -5    4.15    0.39
   3   3   5    3.52    0.46
   3  -3   5    3.92    0.44
   3  -3   5    3.79    0.45
   3  -3   5    3.29    0.29
   3  -3   5    4.00    0.46
  -3  -3  -5    4.28    0.44
   3   3   6    4.88    0.59
   3   3   6    5.17    0.53
  -3   3  -6    5.44    0.64
  -3  -3  -6    4.69    0.57
   3  -3   6    5.25    0.48
   3  -3   6    4.83    0.51
   3  -3   6    5.51    0.52
   3   3   7   12.83    0.70
   3   3   7   12.83    0.73
  -3   3  -7   14.01    0.86
  -3  -3  -7   13.09    0.80
   3  -3   7   13.39    0.68
   3  -3   7   13.24    0.73
   3  -3   7   13.22    0.72
  -3   3  -8    5.81    0.74
   3   3   8    4.32    0.55
   3   3   8    6.64    0.68
  -3  -3  -8    4.75    0.75
   3  -3   8    5.07    0.60
   3  -3   8    3.84    0.52
  -3   3  -9    0.50    0.53
   3   3   9   -0.53    0.47
   3  -3   9   -0.11    0.49
   3  -3   9    1.55    0.57
  -3   3 -10    9.92    1.02
   3   3  10    8.38    1.14
   3  -3  10   10.21    0.93
   3  -3  10   12.09    1.09
  -3   3 -11   14.24    1.31
   3   3  11   16.58    1.40
   3  -3  11   16.52    1.32
  -3   3 -12    8.15    1.07
   3  -3  12    7.26    1.06
  -3   4  12    9.30    1.25
  -3  -4  12    7.29    0.83
  -3   4  11    1.03    0.61
   3  -4 -11    2.97    0.67
  -3  -4  11    2.00    0.62
  -3   4  10    2.45    0.62
   3   4 -10    2.77    0.61
  -3  -4  10    2.31    0.52
   3   4  -9   10.67    0.86
  -3   4   9   10.00    0.85
   3   4  -9   11.02    0.98
   3   4  -9   11.29    0.84
  -3  -4   9   10.27    0.72
  -3  -4   9    9.43    0.71
   3  -4  -9    8.63    0.79
  -3  -4   9   11.14    0.66
  -3  -4   9   11.41    0.76
   3   4  -8    0.19    0.35
   3   4  -8    0.21    0.35
  -3   4   8   -0.43    0.33
   3   4  -8    0.04    0.35
  -3  -4   8    0.76    0.35
   3  -4  -8    0.37    0.39
  -3  -4   8   -0.40    0.53
  -3  -4   8    0.91    0.33
  -3  -4   8   -0.01    0.29
   3   4  -7    3.06    0.44
  -3   4   7    3.66    0.47
   3   4  -7    3.20    0.42
  -3  -4   7    2.84    0.38
  -3  -4   7    3.43    0.58
  -3  -4   7    3.21    0.48
  -3  -4   7    2.76    0.36
   3  -4  -7    4.07    0.48
   3  -4  -7    3.17    0.48
   3   4  -6    0.05    0.26
   3   4  -6   -0.34    0.27
  -3   4   6   -0.17    0.27
   3   4  -6    0.27    0.30
   3  -4  -6    0.14    0.24
  -3  -4   6    0.34    0.25
  -3  -4   6    0.07    0.27
  -3  -4   6    0.21    0.25
   3  -4  -6    0.34    0.31
  -3  -4   6   -0.14    0.28
  -3   4   5   11.70    0.62
   3   4  -5   12.55    0.54
   3   4  -5   10.03    0.96
  -3   4   5   10.96    0.45
  -3  -4   5   10.53    0.50
   3  -4  -5   11.05    0.63
   3  -4  -5   11.38    0.62
  -3  -4   5   11.61    0.68
  -3  -4   5   11.24    0.62
   3   4  -4   18.98    0.59
   3   4  -4   19.13    0.79
  -3   4   4   19.09    0.60
   3  -4  -4   18.12    0.76
   3  -4  -4   19.46    0.63
   3  -4  -4   19.69    0.95
  -3  -4   4   19.17    0.77
  -3  -4   4   17.91    0.98
  -3   4   3    0.31    0.16
   3   4  -3    0.03    0.21
   3   4  -3    0.02    0.16
  -3   4   3    0.26    0.21
   3  -4  -3   -0.04    0.22
   3  -4  -3    0.01    0.17
  -3  -4   3   -0.33    0.25
  -3  -4   3    0.18    0.21
  -3   4   2    0.16    0.19
   3   4  -2    0.11    0.18
   3   4  -2    0.33    0.15
   3  -4  -2   -0.15    0.19
  -3  -4   2    0.32    0.27
   3  -4  -2    0.25    0.18
  -3  -4   2    0.02    0.20
   3  -4  -2   -0.02    0.21
   3   4  -1    7.00    0.44
  -3   4   1    6.08    0.42
  -3  -4   1    7.12    0.49
   3  -4  -1    6.78    0.43
   3  -4  -1    6.31    0.40
   3  -4  -1    6.63    0.50
  -3  -4   1    6.55    0.45
  -3   4   0    1.23    0.24
   3   4   0    0.92    0.22
   3  -4   0    1.42    0.25
   3  -4   0    1.14    0.27
  -3  -4   0    0.94    0.24
  -3  -4   0    1.21    0.24
   3  -4   0    1.20    0.21
   3   4   1   21.14    0.76
  -3   4  -1   21.28    0.75
  -3  -4  -1   19.94    0.75
   3  -4   1   21.62    0.68
   3  -4   1   20.90    0.78
  -3  -4  -1   20.34    0.75
   3  -4   1   20.44    0.86
   3   4   2   62.23    1.26
   3   4   2   60.65    1.48
  -3   4  -2   60.31    1.48
  -3  -4  -2   60.70    1.49
  -3  -4  -2   58.40    1.45
   3  -4   2   60.24    1.59
   3  -4   2   58.60    1.54
   3   4   3   79.44    1.83
   3   4   3   80.56    1.64
  -3   4  -3   73.75    2.13
   3  -4   3   78.31    1.89
   3  -4   3   80.75    1.65
  -3  -4  -3   77.59    1.73
   3  -4   3   77.98    1.96
  -3  -4  -3   79.60    1.84
  -3   4  -4    2.29    0.33
   3   4   4    2.31    0.38
   3   4   4    2.11    0.30
   3  -4   4    1.94    0.32
   3  -4   4    2.47    0.47
  -3  -4  -4    2.77    0.49
   3  -4   4    2.48    0.33
   3   4   5    0.71    0.32
   3   4   5    0.44    0.26
  -3   4  -5    0.22    0.25
   3  -4   5    0.38    0.35
   3  -4   5    0.32    0.23
  -3  -4  -5    0.12    0.28
   3  -4   5    0.25    0.22
   3   4   6    0.24    0.25
  -3   4  -6    0.25    0.28
   3   4   6    0.26    0.35
   3  -4   6    0.30    0.32
   3  -4   6    0.03    0.32
   3  -4   6    0.84    0.28
  -3  -4  -6    0.38    0.32
   3   4   7   11.97    0.63
   3   4   7   13.39    0.76
  -3   4  -7   11.88    0.76
   3  -4   7   12.89    0.73
  -3  -4  -7   13.01    0.96
   3  -4   7   10.28    0.75
  -3   4  -8   16.89    1.06
   3   4   8   15.86    0.85
   3   4   8   16.67    1.39
   3  -4   8   15.34    1.51
  -3  -4  -8   17.25    0.95
   3  -4   8   17.29    0.96
   3   4   9    0.91    0.62
  -3   4  -9    0.26    0.58
   3  -4   9    0.58    0.57
   3  -4   9    1.15    0.50
  -3   4 -10   33.64    1.63
   3   4  10   38.15    2.28
   3  -4  10   35.79    1.45
   3  -4  10   35.39    1.64
   3   4  11   14.01    1.63
  -3   4 -11   13.19    1.41
   3  -4  11   15.49    1.42
  -3   5  12    0.82    0.88
   3  -5 -12   -0.32    0.92
  -3   5  11    2.57    0.99
   3  -5 -11    0.86    0.68
  -3   5  10    3.56    0.70
   3  -5 -10    3.76    0.68
   3   5  -9    0.33    0.60
   3   5  -9    0.54    0.59
  -3   5   9    0.21    0.66
   3   5  -9    1.00    0.54
   3   5  -9    0.49    0.69
   3  -5  -9    0.26    0.61
  -3  -5   9   -0.01    0.52
  -3  -5   9    1.22    0.43
  -3  -5   9    0.04    0.44
  -3  -5   9    0.80    0.52
  -3   5   8    4.62    0.74
   3   5  -8    3.86    0.59
   3   5  -8    5.12    0.76
   3   5  -8    3.81    0.64
   3   5  -8    4.85    0.72
   3  -5  -8    4.57    0.74
  -3  -5   8    5.98    0.62
  -3  -5   8    4.53    0.59
  -3  -5   8    4.40    0.66
  -3  -5   8    3.68    0.53
   3   5  -7    9.37    0.85
   3   5  -7    9.99    0.76
   3   5  -7    7.64    0.66
  -3   5   7    9.12    0.73
   3  -5  -7    8.75    0.91
   3  -5  -7    9.10    0.72
  -3  -5   7    9.52    0.63
  -3  -5   7    9.50    0.65
  -3  -5   7    9.30    0.72
  -3  -5   7    9.27    0.62
   3   5  -6    1.67    0.32
   3   5  -6    0.56    0.34
  -3   5   6    1.56    0.33
   3   5  -6    1.48    0.42
   3  -5  -6    1.60    0.48
  -3  -5   6    1.48    0.29
   3  -5  -6    1.27    0.32
  -3  -5   6    1.66    0.31
  -3  -5   6    1.29    0.33
  -3   5   5   15.61    0.77
   3   5  -5   14.73    0.74
   3   5  -5   15.25    0.67
  -3   5   5   15.16    0.62
  -3  -5   5   15.44    0.80
  -3  -5   5   16.48    0.74
   3  -5  -5   15.24    0.73
   3  -5  -5   15.79    0.84
  -3  -5   5   15.63    0.73
   3   5  -4   10.82    0.53
   3   5  -4   10.95    0.80
  -3   5   4   10.41    0.64
  -3   5   4   11.04    0.55
  -3  -5   4   11.02    0.66
  -3  -5   4   11.32    0.67
   3  -5  -4   10.91    0.61
   3  -5  -4   10.41    0.72
  -3   5   3    0.96    0.28
   3   5  -3    0.84    0.24
  -3   5   3    0.54    0.23
   3   5  -3    0.64    0.26
   3  -5  -3    0.72    0.26
   3  -5  -3    0.82    0.27
  -3  -5   3    0.58    0.40
   3  -5  -3    1.02    0.34
  -3  -5   3    0.76    0.26
   3   5  -2    5.53    0.46
  -3   5   2    4.62    0.56
   3  -5  -2    5.31    0.56
   3  -5  -2    4.43    0.48
  -3  -5   2    4.74    0.49
  -3  -5   2    4.48    0.47
  -3   5   1    0.72    0.35
   3   5  -1    1.30    0.25
  -3  -5   1    1.57    0.33
  -3  -5   1    1.32    0.26
   3  -5  -1    1.14    0.31
   3  -5  -1    1.20    0.47
  -3   5   0   81.67    2.16
   3   5   0   85.76    2.00
   3  -5   0   86.73    2.01
   3  -5   0   86.02    2.11
  -3  -5   0   85.34    2.07
  -3  -5   0   84.69    1.99
   3  -5   0   85.01    1.93
   3   5   1   20.98    0.79
   3   5   1   22.93    0.86
  -3   5  -1   21.25    1.22
   3  -5   1   24.03    0.82
   3  -5   1   23.47    0.95
  -3  -5  -1   22.66    0.86
   3  -5   1   23.31    0.88
   3   5   2   43.23    1.25
  -3   5  -2   43.61    1.25
   3   5   2   43.01    1.03
   3  -5   2   43.34    1.37
  -3  -5  -2   44.84    1.30
  -3  -5  -2   41.86    1.31
   3  -5   2   42.59    1.16
   3  -5   2   43.01    1.30
   3   5   3   84.80    2.01
   3   5   3   86.94    1.79
  -3   5  -3   82.99    2.05
   3  -5   3   84.55    1.86
  -3  -5  -3   86.70    2.29
  -3  -5  -3   84.10    2.00
   3  -5   3   87.03    2.10
   3  -5   3   82.81    2.28
   3   5   4    0.22    0.29
   3   5   4    0.67    0.32
  -3   5  -4    0.93    0.26
   3   5   4    0.83    0.25
  -3  -5  -4    0.70    0.35
   3  -5   4    0.67    0.26
   3  -5   4    0.63    0.31
  -3  -5  -4    0.73    0.27
   3  -5   4    0.25    0.26
  -3   5  -5   11.24    0.71
  -3  -5  -5   10.83    0.72
   3  -5   5   11.46    0.70
   3  -5   5   12.58    0.74
   3   5   6    2.43    0.34
   3   5   6    2.97    0.60
  -3   5  -6    2.78    0.45
  -3  -5  -6    1.90    0.50
   3  -5   6    2.75    0.41
   3  -5   6    2.25    0.40
   3   5   7    0.28    0.47
  -3   5  -7   -0.22    0.40
   3   5   7    0.16    0.32
  -3  -5  -7   -0.17    0.54
   3  -5   7    0.22    0.40
   3  -5   7   -0.10    0.43
  -3   5  -8    1.00    0.56
   3   5   8    0.87    0.58
  -3  -5  -8    0.75    0.59
  -3   5  -9    1.16    0.60
   3  -5   9   -0.11    0.54
  -3   5 -10    1.36    0.71
   3   5  10    1.95    0.96
   3  -5  10   -0.30    0.62
  -3   6  11    4.13    1.02
   3  -6 -11    5.57    1.03
  -3   6  10    1.20    0.72
   3  -6 -10    1.41    0.69
   3   6  -9    0.72    0.74
   3   6  -9   -0.14    0.78
   3   6  -9   -0.02    0.79
  -3   6   9    1.61    0.63
  -3  -6   9    0.21    0.69
   3  -6  -9    0.30    0.61
  -3   6   8    0.12    0.55
   3   6  -8    0.42    0.58
  -3  -6   8    1.19    0.65
  -3  -6   8    0.37    0.52
   3  -6  -8    1.34    0.57
  -3   6   7   17.23    1.04
   3   6  -7   17.67    1.14
   3   6  -7   16.02    1.00
  -3  -6   7   18.83    1.11
  -3  -6   7   17.61    0.96
  -3  -6   7   16.75    0.98
  -3   6   6    8.91    0.75
   3   6  -6    7.28    0.75
   3  -6  -6    7.13    0.80
  -3  -6   6    6.20    0.71
   3  -6  -6    8.14    0.87
  -3  -6   6    7.07    0.81
  -3   6   5    3.37    0.46
   3   6  -5    3.77    0.60
  -3   6   5    3.12    0.40
  -3  -6   5    3.70    0.61
  -3  -6   5    3.04    0.47
   3  -6  -5    3.95    0.60
   3  -6  -5    4.22    0.66
  -3   6   4    1.27    0.29
  -3   6   4    1.26    0.33
   3   6  -4    0.58    0.32
  -3  -6   4    0.94    0.37
   3  -6  -4    1.40    0.34
  -3  -6   4    1.44    0.32
   3  -6  -4    1.39    0.41
  -3   6   3    3.65    0.48
   3   6  -3    3.43    0.55
  -3   6   3    2.00    0.32
   3  -6  -3    2.52    0.40
  -3  -6   3    3.51    0.49
   3  -6  -3    3.26    0.44
  -3  -6   3    2.54    0.41
   3  -6  -3    3.40    0.56
  -3   6   2   27.31    0.96
  -3   6   2   28.94    1.01
   3   6  -2   26.66    1.05
   3  -6  -2   28.09    1.03
  -3  -6   2   27.40    1.02
   3  -6  -2   26.97    0.99
   3  -6  -2   27.66    1.10
  -3  -6   2   27.13    1.07
   3   6  -1   46.41    1.39
  -3   6   1   44.65    1.32
   3  -6  -1   46.05    1.33
   3  -6  -1   46.30    1.36
  -3  -6   1   44.62    1.44
  -3  -6   1   45.44    1.37
   3  -6  -1   47.46    1.50
   3   6   0   75.04    1.92
  -3  -6   0   74.23    1.92
   3  -6   0   79.10    1.95
   3  -6   0   77.25    2.33
  -3  -6   0   76.53    1.99
   3  -6   0   74.63    2.03
   3   6   1    2.40    0.35
  -3   6  -1    2.82    0.39
   3  -6   1    3.18    0.44
  -3  -6  -1    3.53    0.50
  -3  -6  -1    3.05    0.47
   3  -6   1    2.41    0.36
   3  -6   1    2.67    0.43
   3   6   2    4.49    0.48
  -3   6  -2    3.54    0.49
   3  -6   2    4.46    0.56
  -3  -6  -2    4.18    0.62
   3  -6   2    4.10    0.55
  -3  -6  -2    3.77    0.50
   3  -6   2    4.27    0.48
  -3   6  -3    0.17    0.31
   3   6   3    0.14    0.26
   3  -6   3    0.62    0.30
   3  -6   3    0.82    0.36
   3  -6   3    0.69    0.29
  -3  -6  -3    0.24    0.31
  -3  -6  -3   -0.32    0.65
   3   6   4   -0.04    0.29
  -3   6  -4    0.26    0.34
   3  -6   4    0.69    0.35
   3  -6   4   -0.03    0.38
   3  -6   4    0.19    0.32
  -3  -6  -4   -0.03    0.44
  -3  -6  -4    0.22    0.35
  -3   6  -5    5.82    0.70
   3   6   5    7.20    0.61
  -3  -6  -5    5.49    0.74
   3  -6   5    5.84    0.75
   3  -6   5    6.04    0.71
   3   6   6    1.20    0.37
  -3   6  -6    0.83    0.50
   3  -6   6    0.89    0.47
   3  -6   6   -0.38    0.87
  -3  -6  -6    0.38    0.46
  -3   6  -7   -0.90    0.56
   3   6   7    0.26    0.49
   3  -6   7   -0.61    0.58
   3  -6   7    0.92    0.48
  -3   6  -8    1.33    0.66
   3  -6   8    0.07    0.53
  -3  -6  -8    1.00    0.73
  -3   6  -9    2.24    0.81
   3  -6   9    0.48    0.83
  -3   6 -10    3.69    1.01
   3  -6  10    3.24    0.81
  -3   7  10   16.83    1.86
   3   7  -9    0.92    2.11
   3   7  -9    0.23    0.80
  -3   7   9    0.65    0.79
   3   7  -9   -0.65    0.92
  -3  -7   9   -0.73    0.77
   3  -7  -9    1.72    0.71
  -3  -7   9   -0.85    0.71
  -3   7   8    1.82    1.31
   3   7  -8    0.47    0.75
   3   7  -8    1.88    0.98
  -3  -7   8    1.70    0.62
   3  -7  -8    1.83    0.61
  -3  -7   8    3.10    0.72
  -3   7   7    0.22    0.65
   3   7  -7    0.54    0.58
   3   7  -7    0.26    0.64
  -3  -7   7    0.28    0.61
  -3  -7   7   -0.38    0.53
   3  -7  -7    0.24    0.55
   3   7  -6    0.42    0.55
   3   7  -6    2.27    0.63
   3  -7  -6    1.31    0.74
  -3  -7   6    1.30    0.58
   3  -7  -6    2.26    0.56
   3   7  -5    0.58    0.70
  -3   7   5    0.18    0.56
  -3  -7   5    0.22    0.44
   3  -7  -5    0.58    0.53
  -3  -7   5    1.35    0.71
   3   7  -4    0.83    0.46
  -3   7   4   -0.13    0.31
  -3   7   4    0.41    0.43
   3  -7  -4    0.11    0.46
  -3  -7   4    0.02    0.45
   3  -7  -4    0.67    0.41
  -3  -7   4    0.64    0.42
  -3   7   3    0.49    0.31
   3   7  -3   -0.45    0.37
  -3   7   3   -0.65    0.52
   3  -7  -3   -0.04    0.44
   3  -7  -3   -1.06    0.59
  -3  -7   3   -0.17    0.42
  -3  -7   3   -0.34    0.44
  -3   7   2    5.46    0.63
   3   7  -2    4.32    0.61
  -3   7   2    5.73    0.57
  -3  -7   2    4.65    0.66
   3  -7  -2    4.47    0.61
  -3  -7   2    4.16    0.61
   3  -7  -2    4.40    0.64
   3  -7  -2    5.29    0.64
  -3   7   1    1.84    0.39
   3   7  -1    1.51    0.37
  -3   7   1    1.44    0.38
   3  -7  -1    2.40    0.51
   3  -7  -1    1.93    0.41
  -3  -7   1    1.15    0.44
  -3  -7   1    1.05    0.39
   3  -7  -1    1.29    0.36
   3   7   0    0.12    0.32
  -3   7   0    1.04    0.34
  -3   7   0    0.66    0.36
  -3  -7   0   -0.28    0.44
   3  -7   0    0.98    0.37
  -3  -7   0   -0.21    0.34
   3  -7   0    0.34    0.41
   3  -7   0    0.67    0.63
   3   7   1    0.12    0.34
  -3   7  -1    0.20    0.37
  -3  -7  -1    0.18    0.37
   3  -7   1   -0.35    0.34
  -3  -7  -1    0.14    0.53
   3  -7   1    0.07    0.35
   3  -7   1    0.13    0.41
  -3   7  -2    3.05    0.48
   3   7   2    1.55    0.43
  -3  -7  -2    2.36    0.48
   3  -7   2    2.39    0.47
   3  -7   2    2.39    0.56
  -3  -7  -2    2.51    0.48
   3   7   3   13.30    0.87
  -3   7  -3   12.82    1.51
   3  -7   3   16.17    1.03
   3  -7   3   14.17    0.98
  -3  -7  -3   15.93    1.31
  -3  -7  -3   16.35    0.99
   3  -7   3   14.70    0.77
   3   7   4   -0.17    0.39
  -3   7  -4    0.26    0.48
   3  -7   4    0.37    0.56
   3  -7   4    0.81    0.64
  -3  -7  -4   -0.04    0.51
  -3  -7  -4    0.91    0.55
   3   7   5    5.51    0.78
  -3  -7  -5    6.13    0.97
   3  -7   5    6.48    0.85
   3  -7   5    8.37    1.04
  -3   7  -6    0.16    0.65
   3   7   6   -0.24    0.66
  -3  -7  -6    1.00    0.62
   3  -7   6    0.04    0.65
   3  -7   6    0.68    0.52
  -3   7  -7   -0.15    0.67
   3  -7   7   -0.82    0.69
   3  -7   7   -1.16    0.59
  -3  -7  -7   -0.19    0.71
  -3   7  -8    3.36    0.83
   3  -7   8    4.29    0.71
  -3  -7  -8    4.39    0.94
  -3   8   8    0.79    0.94
   3   8  -8   -0.23    0.85
   3   8  -8   -0.17    1.03
  -3  -8   8   -0.21    0.75
   3  -8  -8    0.42    0.81
  -3  -8   8    0.70    0.90
   3   8  -7    0.82    0.77
   3   8  -7    1.55    0.68
  -3   8   7    0.63    0.82
  -3  -8   7    0.05    0.73
   3  -8  -7    0.32    0.68
   3   8  -6    6.65    1.02
   3   8  -6    7.01    0.83
  -3   8   6    7.07    1.50
  -3  -8   6    6.40    0.90
  -3  -8   6    5.93    0.77
   3  -8  -6    8.12    1.10
   3   8  -5    9.04    1.03
  -3   8   5    8.66    1.24
   3  -8  -5    9.91    1.37
   3  -8  -5    8.63    1.03
  -3  -8   5   10.19    1.03
  -3  -8   5   10.81    1.20
  -3   8   4    0.32    0.46
   3   8  -4   -0.39    0.51
  -3  -8   4    0.86    0.57
   3  -8  -4    0.86    0.70
  -3  -8   4    0.61    0.74
   3  -8  -4    0.84    0.55
  -3   8   3    0.85    0.44
  -3   8   3    1.47    0.64
   3   8  -3    0.12    0.48
  -3  -8   3    0.24    0.50
   3  -8  -3    1.45    0.65
   3  -8  -3    1.13    0.53
  -3  -8   3    1.07    0.62
  -3   8   2   12.01    1.46
   3   8  -2   12.74    1.03
  -3   8   2   12.39    0.91
   3  -8  -2    9.96    1.11
   3  -8  -2   10.87    0.98
   3  -8  -2   11.24    1.10
  -3  -8   2   12.34    1.01
  -3  -8   2   14.17    1.17
  -3   8   1   70.94    2.41
   3   8  -1   75.56    2.20
  -3   8   1   72.74    2.39
   3  -8  -1   72.95    2.33
  -3  -8   1   72.97    2.18
   3  -8  -1   70.30    2.23
  -3  -8   1   74.38    2.35
  -3   8   0    4.43    0.81
   3   8   0    5.00    0.80
  -3   8   0    4.58    0.67
  -3  -8   0    4.51    0.67
   3  -8   0    3.49    0.70
   3  -8   0    5.11    0.81
   3  -8   0    5.10    1.04
  -3  -8   0    3.96    0.92
  -3   8  -1   -0.59    0.98
   3   8   1    0.56    0.45
  -3   8  -1    0.61    0.46
   3  -8   1    0.09    0.50
  -3  -8  -1    0.39    0.50
   3  -8   1   -0.06    0.54
   3  -8   1   -0.32    0.48
  -3   8  -2    0.69    0.61
  -3   8  -2    1.12    0.50
   3   8   2    1.04    0.47
   3  -8   2    0.31    0.51
  -3  -8  -2    1.67    0.85
   3  -8   2    0.98    0.58
   3  -8   2    0.47    0.51
  -3  -8  -2    0.60    0.54
  -3   8  -3    1.95    0.57
   3   8   3    1.73    0.51
   3  -8   3    1.52    0.56
   3  -8   3    1.35    0.65
  -3  -8  -3    4.00    1.04
   3  -8   3    1.63    0.56
  -3   8  -4    4.85    0.87
  -3   8  -4    4.42    0.68
   3   8   4    3.94    0.59
   3  -8   4    2.68    0.75
   3  -8   4    3.57    0.78
  -3  -8  -4    3.85    0.69
  -3   8  -5    5.95    0.81
  -3   8  -5    3.74    0.86
   3   8   5    4.04    0.63
   3  -8   5    3.03    0.80
   3  -8   5    4.27    0.69
  -3  -8  -5    5.80    0.98
  -3   8  -6    1.53    0.91
  -3   8  -6   -0.05    0.73
   3  -8   6   -0.27    0.75
  -3  -8  -6    0.17    0.70
   3  -8   6    0.97    0.64
  -3   8  -7    1.05    1.59
  -3   8  -7   -1.35    0.87
  -3  -8  -7   -0.03    0.91
   3  -8   7   -0.01    0.80
   3  -8   7    0.45    0.88
   3   9  -5    2.87    0.84
   3   9  -5   -0.46    0.92
   3  -9  -5    0.78    0.76
  -3  -9   5   -0.56    1.26
   3  -9  -5    2.63    1.57
   3   9  -4   -0.95    0.69
  -3  -9   4   -0.40    0.68
  -3  -9   4   -0.30    0.80
   3  -9  -4    0.59    0.87
   3  -9  -4    1.84    0.68
   3   9  -3   -0.44    0.63
  -3   9   3    0.03    0.57
   3  -9  -3    0.26    0.78
  -3  -9   3   -0.54    0.73
   3  -9  -3    0.34    0.62
  -3  -9   3   -0.53    0.66
  -3   9   2    9.60    1.23
  -3  -9   2    8.66    1.15
   3  -9  -2    7.67    0.97
   3  -9  -2    7.50    1.00
  -3  -9   2   13.14    2.04
  -3   9   1    6.20    0.69
   3   9  -1    6.09    0.97
  -3  -9   1    4.77    0.73
   3  -9  -1    7.54    1.17
   3  -9  -1    4.22    0.70
  -3  -9   1    4.62    0.84
  -3   9   0   11.28    1.15
   3   9   0   12.01    1.14
  -3  -9   0   13.34    1.40
   3  -9   0   12.65    1.21
   3  -9   0   11.61    1.31
   3  -9   0   10.42    1.10
  -3  -9   0   11.87    1.19
  -3   9  -1   -0.56    0.59
   3   9   1   -0.52    0.56
   3  -9   1    1.40    0.75
  -3  -9  -1   -0.23    0.62
   3  -9   1   -0.58    0.60
   3  -9   1    0.70    0.61
  -3   9  -2    0.87    0.65
   3   9   2   -0.41    0.57
   3  -9   2    1.11    0.79
  -3  -9  -2    1.05    0.66
   3  -9   2    0.26    0.69
   3  -9   2   -0.66    0.63
  -3  -9  -2    0.27    0.91
  -3   9  -3    3.05    0.74
   3   9   3    2.07    0.63
   3   9   3    2.09    1.07
   3  -9   3    2.64    0.77
   3  -9   3    2.97    0.85
  -3  -9  -3    2.97    0.80
   3   9   4   31.13    1.44
  -3   9  -4   28.90    1.67
  -3  -9  -4   28.45    1.78
   3  -9   4   28.96    1.72
   3  -9   4   32.47    1.94
  -4   0  14   13.21    1.65
   4   0 -13    1.52    0.85
  -4   0  13   -1.19    0.67
  -4   0  12    1.09    0.57
   4   0 -12    1.03    0.87
   4   0 -11    0.65    0.47
  -4   0  11    0.17    0.46
  -4   0  10    8.02    0.66
   4   0 -10    7.40    0.69
  -4   0   9    0.33    0.29
   4   0  -9    0.00    0.27
   4   0  -8    2.67    0.43
  -4   0   8    2.23    0.35
   4   0  -8    2.85    0.46
   4   0  -7    0.11    0.22
   4   0  -7    0.37    0.27
  -4   0   6    2.51    0.34
   4   0  -6    2.25    0.35
   4   0  -6    2.46    0.34
   4   0  -5   -0.03    0.17
   4   0  -5   -0.21    0.16
   4   0  -4    8.01    0.39
   4   0  -4    8.18    0.27
  -4   0   4    7.73    0.36
   4   0  -4    7.62    0.38
   4   0  -3   -0.12    0.12
   4   0  -3   -0.03    0.10
   4   0  -3    0.04    0.09
  -4   0   3    0.01    0.11
   4   0  -2    9.37    0.33
   4   0  -2    9.64    0.38
  -4   0   2    9.01    0.33
  -4   0   2    9.56    0.38
   4   0  -2    9.60    0.40
  -4   0   1    0.05    0.10
   4   0  -1   -0.04    0.09
  -4   0   1    0.00    0.09
   4   0  -1   -0.01    0.10
  -4   0   0  231.94    3.91
   4   0   0  227.48    4.02
   4   0   0  226.74    3.90
   4   0   0  223.40    4.25
  -4   0   0  229.73    3.95
  -4   0  -1   -0.04    0.10
   4   0   1   -0.13    0.07
  -4   0  -1    0.10    0.08
   4   0   1   -0.09    0.10
   4   0   1   -0.05    0.11
  -4   0  -2   10.21    0.44
  -4   0  -2   10.89    0.26
   4   0   2   10.79    0.53
   4   0   2   10.49    0.42
   4   0   2   10.93    0.40
   4   0   3   -0.11    0.13
   4   0   3   -0.03    0.13
   4   0   3   -0.26    0.14
   4   0   4    6.68    0.33
   4   0   4    7.60    0.42
   4   0   4    6.54    0.43
   4   0   5    0.06    0.26
   4   0   5   -0.13    0.24
   4   0   5    0.15    0.20
   4   0   6  227.06    4.39
   4   0   7    0.28    0.28
   4   0   7   -0.20    0.23
   4   0   8    0.07    0.28
   4   0   8    0.83    0.36
   4   0   9   -0.24    0.47
   4   0   9    0.03    0.34
   4   0  10   16.10    1.18
   4   0  11    1.27    0.71
   4   0  12    0.58    0.87
  -4   1  13   -0.13    0.65
   4  -1 -13    1.00    0.88
  -4  -1  13   -1.43    0.67
  -4   1  12    1.10    0.57
  -4  -1  12    1.12    0.59
   4  -1 -12    0.06    0.67
   4   1 -11    3.09    0.60
  -4   1  11    1.92    0.91
   4  -1 -11    3.21    0.64
  -4  -1  11    2.98    0.55
  -4   1  10   46.69    1.53
   4   1 -10   46.90    1.47
   4  -1 -10   46.84    1.62
  -4  -1  10   47.73    1.46
  -4   1   9    1.01    0.32
   4   1  -9    1.02    0.31
   4   1  -9    0.96    0.41
   4  -1  -9    1.58    0.34
  -4  -1   9    0.72    0.28
   4   1  -8    0.96    0.30
   4   1  -8    1.64    0.33
  -4   1   8    1.65    0.29
  -4  -1   8    1.28    0.29
   4  -1  -8    1.42    0.33
   4  -1  -8    0.71    0.53
   4   1  -7   -0.09    0.20
  -4   1   7    0.24    0.26
   4   1  -7    0.43    0.27
   4   1  -7    0.68    0.24
  -4  -1   7    0.07    0.25
   4  -1  -7    0.27    0.23
   4  -1  -7    0.09    0.23
   4   1  -6    0.02    0.21
  -4   1   6   -0.14    0.21
   4   1  -6    0.06    0.16
   4   1  -6    0.09    0.19
   4  -1  -6    0.34    0.23
   4  -1  -6    0.09    0.21
  -4  -1   6   -0.20    0.19
   4   1  -5   22.92    0.74
   4   1  -5   24.32    0.61
   4   1  -5   22.69    0.74
  -4   1   5   23.02    0.74
   4  -1  -5   25.04    0.83
  -4  -1   5   23.17    0.75
   4  -1  -5   22.71    0.76
   4   1  -4  285.05    4.82
  -4   1   4  275.95    4.98
   4   1  -4  274.83    5.00
  -4  -1   4  284.18    4.88
   4  -1  -4  278.52    4.99
  -4  -1   4  282.56    5.02
   4  -1  -4  281.07    5.01
   4   1  -3   31.96    0.74
  -4   1   3   32.09    0.82
   4   1  -3   31.78    0.83
   4   1  -3   30.70    0.85
  -4  -1   3   31.47    0.83
   4  -1  -3   30.74    0.84
   4  -1  -3   30.75    0.80
  -4  -1   3   31.48    0.71
   4  -1  -3   31.92    0.67
   4   1  -2    3.50    0.24
   4   1  -2    3.96    0.28
  -4   1   2    3.26    0.25
  -4  -1   2    3.89    0.19
  -4  -1   2    3.32    0.24
   4  -1  -2    3.78    0.25
   4  -1  -2    3.47    0.29
   4  -1  -2    3.81    0.23
   4   1  -1   12.47    0.45
   4   1  -1   12.19    0.42
  -4   1   1   11.90    0.42
   4  -1  -1   11.95    0.39
   4  -1  -1   11.56    0.40
  -4  -1   1   12.03    0.31
  -4  -1   1   11.57    0.41
   4  -1  -1   11.64    0.45
   4   1   0   60.35    1.28
   4   1   0   57.95    1.25
  -4   1   0   58.69    1.25
  -4  -1   0   58.23    1.19
   4  -1   0   59.19    1.13
   4  -1   0   56.96    1.28
  -4  -1   0   60.13    1.11
   4  -1   0   59.70    1.25
  -4   1  -1  115.04    2.21
   4   1   1  116.01    2.18
   4   1   1  110.85    2.16
  -4  -1  -1  114.71    2.09
   4  -1   1  114.34    2.23
   4  -1   1  118.01    1.99
   4  -1   1  115.41    2.23
  -4  -1  -1  114.44    2.09
   4   1   2    1.89    0.22
   4   1   2    1.65    0.21
   4   1   2    1.83    0.23
  -4  -1  -2    1.98    0.24
   4  -1   2    1.68    0.24
   4  -1   2    1.56    0.22
  -4   1  -3    0.48    0.16
   4   1   3    0.63    0.15
   4   1   3    0.56    0.15
   4   1   3    0.51    0.16
   4  -1   3    0.23    0.15
   4  -1   3    0.33    0.17
  -4  -1  -3    0.57    0.18
   4  -1   3    0.35    0.15
   4   1   4   12.52    0.41
  -4   1  -4   12.51    0.56
   4   1   4   12.68    0.54
   4   1   4   12.61    0.54
   4  -1   4   13.02    0.56
  -4  -1  -4   12.46    0.44
   4  -1   4   13.19    0.58
   4  -1   4   12.19    0.48
   4   1   5  110.18    2.30
   4   1   5  107.60    2.27
  -4   1  -5  108.14    2.51
   4  -1   5   99.81    2.55
  -4  -1  -5  108.29    2.01
   4  -1   5  110.36    2.10
   4  -1   5  106.64    2.31
   4   1   6   22.34    0.87
   4  -1   6   21.37    0.86
   4  -1   6   21.14    1.10
  -4  -1  -6   22.37    0.69
   4  -1   6   22.11    0.65
   4   1   7    0.90    0.32
   4   1   7    1.12    0.27
   4  -1   7    0.47    0.25
   4  -1   7    0.55    0.29
   4   1   8    4.67    0.62
   4   1   8    5.78    0.51
   4  -1   8    4.77    0.64
   4  -1   8    5.56    0.54
   4   1   9    0.29    0.35
   4   1   9   -0.19    0.45
   4  -1   9    1.15    0.65
   4  -1   9    0.15    0.34
   4   1  10   10.11    1.10
   4  -1  10   12.66    1.14
   4  -1  10   10.09    0.83
   4   1  11    5.21    0.80
  -4   1 -11    6.77    1.01
   4  -1  11    3.47    0.72
  -4   1 -12   -0.17    0.76
   4  -1  12   -1.74    0.86
  -4   2  13    0.52    0.69
  -4  -2  13    0.44    0.70
   4  -2 -13   -0.54    1.33
  -4   2  12    0.73    0.57
   4   2 -12   -0.12    0.74
  -4  -2  12    1.88    0.59
   4  -2 -12    1.91    0.67
   4   2 -11    0.51    0.53
  -4   2  11    0.17    0.49
  -4  -2  11   -0.26    0.50
   4  -2 -11    0.88    1.03
  -4   2  10    0.55    0.42
   4   2 -10    0.87    0.44
  -4  -2  10    0.67    0.38
   4  -2 -10   -1.30    0.65
   4   2  -9   76.69    2.10
  -4   2   9   71.64    1.93
   4   2  -9   71.25    2.02
  -4  -2   9   74.15    1.83
   4  -2  -9   73.59    1.93
   4   2  -8   19.40    0.81
   4   2  -8   18.06    1.03
  -4   2   8   19.53    0.81
  -4  -2   8   18.84    0.77
   4  -2  -8   18.80    0.81
   4  -2  -8   19.62    0.81
   4   2  -7    0.47    0.28
  -4   2   7   -0.34    0.23
   4   2  -7    0.05    0.23
   4   2  -7    0.02    0.26
   4  -2  -7    0.23    0.40
   4  -2  -7    0.12    0.26
  -4  -2   7   -0.22    0.21
  -4  -2   7    0.29    0.25
   4   2  -6   45.09    1.52
   4   2  -6   46.96    1.08
   4   2  -6   46.04    1.25
  -4   2   6   47.35    1.66
  -4  -2   6   42.43    1.36
   4  -2  -6   45.74    1.18
   4  -2  -6   46.19    1.47
  -4  -2   6   45.22    1.12
   4   2  -5  271.64    4.70
  -4   2   5  261.02    4.87
   4   2  -5  267.51    4.90
   4   2  -5  262.65    4.86
  -4  -2   5  265.08    4.87
   4  -2  -5  265.49    4.82
   4  -2  -5  264.14    4.88
  -4  -2   5  263.28    4.67
   4   2  -4    5.65    0.40
   4   2  -4    5.29    0.33
  -4   2   4    6.10    0.40
   4  -2  -4    6.15    0.39
   4  -2  -4    5.84    0.39
  -4  -2   4    6.19    0.30
   4  -2  -4    6.20    0.26
  -4   2   3    3.76    0.29
   4   2  -3    3.56    0.27
   4   2  -3    3.37    0.31
  -4  -2   3    4.09    0.31
   4  -2  -3    3.21    0.36
  -4  -2   3    3.66    0.21
  -4  -2   3    3.17    0.34
   4  -2  -3    3.64    0.25
   4  -2  -3    3.54    0.29
   4   2  -2   19.45    0.59
  -4   2   2   19.09    0.72
   4   2  -2   19.38    0.66
   4  -2  -2   19.91    0.55
  -4  -2   2   19.53    0.71
   4  -2  -2   18.92    0.59
   4   2  -1    0.32    0.13
   4   2  -1    0.52    0.15
   4  -2  -1    0.53    0.13
  -4  -2   1    0.41    0.15
  -4  -2   1    0.62    0.16
   4  -2  -1    0.47    0.13
   4   2   0   87.35    1.81
   4  -2   0   89.23    1.79
   4  -2   0   88.41    1.67
  -4  -2   0   87.37    1.75
   4   2   1    3.37    0.27
   4   2   1    3.29    0.22
  -4   2  -1    3.17    0.27
   4   2   1    3.40    0.28
   4  -2   1    3.39    0.21
   4  -2   1    3.31    0.28
  -4  -2  -1    3.30    0.26
   4   2   2    0.07    0.13
   4   2   2   -0.02    0.14
   4   2   2    0.00    0.13
  -4   2  -2   -0.18    0.13
   4  -2   2   -0.20    0.12
   4  -2   2   -0.02    0.09
  -4  -2  -2   -0.20    0.14
   4   2   3    8.49    0.44
  -4   2  -3    8.83    0.48
   4   2   3    8.60    0.38
   4   2   3    7.97    0.40
   4  -2   3    8.31    0.50
   4  -2   3    8.58    0.47
  -4  -2  -3    8.52    0.40
   4  -2   3    9.28    0.54
   4   2   4    3.71    0.37
   4   2   4    3.20    0.28
   4   2   4    3.76    0.37
  -4   2  -4    3.53    0.41
   4  -2   4    3.60    0.45
  -4  -2  -4    3.43    0.33
   4  -2   4    3.36    0.35
   4  -2   4    3.56    0.41
   4   2   5    0.12    0.25
  -4   2  -5   -0.07    0.21
   4   2   5   -0.04    0.22
   4  -2   5    0.33    0.24
   4  -2   5   -0.02    0.21
   4   2   6    6.41    0.82
   4   2   6    6.11    0.59
  -4   2  -6    6.88    0.52
   4  -2   6    6.96    0.52
   4  -2   6    6.25    0.46
   4  -2   6    5.43    0.52
  -4  -2  -6    5.81    0.50
  -4   2  -7    3.95    0.51
   4   2   7    4.60    0.56
   4   2   7    3.18    0.46
   4  -2   7    4.07    0.46
   4  -2   7    3.26    0.53
  -4   2  -8    0.15    0.35
   4   2   8   -0.26    0.29
   4   2   8    0.15    0.37
   4  -2   8   -0.51    0.31
   4  -2   8    0.51    0.41
   4   2   9    6.70    0.65
   4   2   9    6.11    0.89
  -4   2  -9    6.34    1.00
   4  -2   9    6.27    0.79
   4  -2   9    7.25    0.99
  -4   2 -10    2.80    0.62
   4   2  10    2.53    0.71
   4  -2  10    3.30    0.67
   4  -2  10    3.17    0.55
   4   2  11    4.85    0.85
  -4   2 -11    4.07    0.74
   4  -2  11    4.19    0.90
  -4   2 -12    0.89    0.85
   4   2  12   -0.86    0.95
   4  -2  12   -1.23    0.90
  -4   3  13    5.11    0.93
   4  -3 -13    6.63    1.07
  -4  -3  13    4.85    0.80
   4   3 -12    0.49    0.91
  -4   3  12   -0.34    0.62
  -4  -3  12   -1.19    0.61
   4  -3 -12   -0.05    0.66
   4   3 -11    0.39    0.72
  -4   3  11    0.92    0.55
  -4  -3  11    0.28    0.52
  -4   3  10    0.80    0.50
   4   3 -10    1.23    0.65
  -4  -3  10   -0.43    0.42
   4  -3 -10    0.72    0.47
  -4   3   9   33.93    1.26
   4   3  -9   32.99    1.21
   4   3  -9   35.45    1.22
  -4  -3   9   34.48    1.11
   4  -3  -9   32.71    1.26
   4   3  -8   28.11    1.00
   4   3  -8   29.08    1.03
   4   3  -8   27.91    1.44
  -4   3   8   28.30    1.06
  -4  -3   8   27.50    0.94
  -4  -3   8   27.56    1.00
   4  -3  -8   25.75    1.12
   4  -3  -8   26.50    1.03
   4   3  -7    4.62    0.55
   4   3  -7    5.03    0.51
   4   3  -7    4.62    0.71
  -4   3   7    4.28    0.47
  -4  -3   7    5.08    0.63
   4  -3  -7    4.74    0.55
   4  -3  -7    5.46    0.49
  -4  -3   7    5.24    0.51
  -4   3   6   24.01    0.89
   4   3  -6   24.14    0.95
   4   3  -6   23.11    0.80
   4  -3  -6   24.24    0.89
   4  -3  -6   22.67    0.84
  -4  -3   6   25.27    0.94
  -4  -3   6   23.02    1.05
  -4  -3   6   24.13    0.74
  -4   3   5   38.24    0.92
   4   3  -5   39.24    1.18
  -4   3   5   40.36    1.45
   4   3  -5   38.99    1.05
   4  -3  -5   40.22    1.55
  -4  -3   5   37.24    1.34
   4  -3  -5   37.73    1.10
  -4  -3   5   38.93    0.93
   4   3  -4    0.35    0.22
   4   3  -4    0.21    0.19
  -4   3   4    0.45    0.34
   4  -3  -4    0.46    0.17
  -4  -3   4    0.65    0.15
   4  -3  -4    0.07    0.21
   4  -3  -4    0.37    0.20
  -4  -3   4    0.40    0.25
  -4  -3   4    0.53    0.23
   4   3  -3    0.19    0.12
   4   3  -3    0.35    0.20
  -4   3   3   -0.01    0.17
   4   3  -3    0.29    0.17
  -4  -3   3   -0.08    0.10
  -4  -3   3    0.22    0.20
  -4  -3   3    0.14    0.18
   4  -3  -3   -0.21    0.18
   4  -3  -3    0.01    0.17
   4  -3  -3    0.12    0.15
   4   3  -2    1.23    0.22
  -4   3   2    1.49    0.23
   4   3  -2    1.12    0.23
  -4  -3   2    1.33    0.24
  -4  -3   2    1.30    0.22
   4  -3  -2    1.32    0.24
   4  -3  -2    1.22    0.21
   4  -3  -2    1.46    0.20
   4   3  -1   82.79    1.78
   4   3  -1   83.01    1.83
  -4   3   1   82.14    1.78
   4  -3  -1   81.42    1.79
   4  -3  -1   81.20    1.85
  -4  -3   1   81.55    1.76
  -4  -3   1   83.65    1.84
   4   3   0   82.04    1.78
  -4   3   0   81.93    1.78
  -4  -3   0   84.16    1.82
   4  -3   0   82.04    1.76
  -4  -3   0   82.39    1.76
   4  -3   0   81.20    1.85
   4  -3   0   82.03    1.65
   4   3   1   51.95    1.26
   4   3   1   52.37    1.29
  -4   3  -1   54.21    1.31
   4   3   1   51.39    1.08
   4  -3   1   50.98    1.11
  -4  -3  -1   53.87    1.28
   4  -3   1   52.12    1.51
  -4  -3  -1   53.53    1.25
  -4   3  -2    1.39    0.27
   4   3   2    1.36    0.19
   4   3   2    1.36    0.24
  -4  -3  -2    1.50    0.28
   4  -3   2    1.56    0.23
   4  -3   2    1.22    0.24
  -4  -3  -2    1.59    0.24
   4  -3   2    1.42    0.28
   4   3   3    2.20    0.29
   4   3   3    2.02    0.32
   4   3   3    2.29    0.49
  -4   3  -3    1.93    0.37
  -4  -3  -3    2.61    0.34
   4  -3   3    2.51    0.40
   4  -3   3    2.06    0.31
   4   3   4   21.60    0.65
   4   3   4   22.48    0.74
   4   3   4   21.87    0.86
  -4   3  -4   21.58    0.83
   4  -3   4   21.85    0.84
   4  -3   4   21.98    0.84
   4  -3   4   21.84    0.58
  -4  -3  -4   21.45    0.76
   4   3   5   32.44    1.02
   4   3   5   31.80    1.03
  -4   3  -5   31.63    1.06
   4  -3   5   31.65    1.06
  -4  -3  -5   32.78    1.00
   4  -3   5   31.37    1.04
   4  -3   5   31.86    1.05
   4   3   6   23.92    0.93
  -4   3  -6   23.80    0.95
   4   3   6   22.08    0.85
   4  -3   6   21.97    0.93
  -4  -3  -6   23.88    0.93
   4  -3   6   23.77    0.92
   4  -3   6   23.66    0.90
  -4   3  -7    2.96    0.48
   4   3   7    3.67    0.52
   4   3   7    4.01    0.67
   4  -3   7    4.94    0.52
   4  -3   7    3.70    0.59
  -4  -3  -7    2.62    0.67
   4   3   8    2.03    0.34
   4   3   8    1.41    0.47
  -4   3  -8    2.25    0.49
   4  -3   8    1.59    0.48
   4  -3   8    1.93    0.39
   4   3   9   11.35    1.15
  -4   3  -9   11.42    1.01
   4  -3   9   11.20    1.03
   4  -3   9   11.17    0.90
   4   3  10   27.57    1.51
  -4   3 -10   24.40    1.45
   4  -3  10   25.65    1.45
   4  -3  10   28.19    1.30
  -4   3 -11    8.07    0.95
   4   3  11   11.63    1.45
   4  -3  11   11.12    1.33
  -4   4  12    1.07    1.00
   4  -4 -12    2.04    0.74
   4   4 -11    6.33    0.95
  -4   4  11    6.03    0.81
   4  -4 -11    8.44    1.05
   4   4 -10    5.66    0.79
   4   4 -10    5.80    0.80
  -4   4  10    6.25    1.13
   4  -4 -10    4.49    0.72
  -4  -4  10    6.16    0.77
  -4   4   9    3.58    0.66
   4   4  -9    3.57    0.62
   4   4  -9    2.69    0.51
  -4  -4   9    4.15    0.62
   4  -4  -9    2.62    0.54
  -4  -4   9    2.46    0.45
   4   4  -8    0.21    0.39
   4   4  -8   -0.25    0.34
  -4   4   8    0.14    0.34
   4   4  -8    0.03    0.36
   4  -4  -8   -0.21    0.34
  -4  -4   8   -0.37    0.37
  -4  -4   8    0.38    0.32
  -4  -4   8    0.75    0.33
   4   4  -7    0.49    0.32
   4   4  -7    0.71    0.31
  -4   4   7    1.29    0.44
   4  -4  -7    0.17    0.30
  -4  -4   7    1.09    0.32
  -4  -4   7    0.41    0.31
   4  -4  -7    0.66    0.43
  -4  -4   7    0.47    0.30
   4   4  -6    5.09    0.49
   4   4  -6    5.28    0.67
   4   4  -6    5.03    0.55
  -4   4   6    4.60    0.48
  -4  -4   6    4.18    0.44
  -4  -4   6    4.99    0.51
   4  -4  -6    4.22    0.64
   4  -4  -6    4.11    0.46
  -4  -4   6    5.08    0.42
   4   4  -5   13.37    0.74
   4   4  -5   14.14    0.84
  -4   4   5   12.32    0.90
  -4   4   5   13.31    0.49
   4   4  -5   13.74    0.56
   4  -4  -5   14.18    0.68
  -4  -4   5   13.88    0.52
   4  -4  -5   14.06    0.82
  -4  -4   5   13.67    0.67
  -4  -4   5   13.42    0.71
  -4   4   4    2.91    0.44
   4   4  -4    2.49    0.35
   4   4  -4    2.66    0.44
  -4   4   4    2.92    0.36
  -4  -4   4    3.66    0.48
   4  -4  -4    3.16    0.41
  -4  -4   4    3.27    0.40
   4  -4  -4    3.49    0.51
   4  -4  -4    2.59    0.37
   4   4  -3    5.34    0.53
   4   4  -3    5.24    0.51
   4  -4  -3    5.10    0.40
  -4  -4   3    6.28    0.56
   4  -4  -3    5.19    0.54
   4  -4  -3    5.19    0.52
  -4  -4   3    4.81    0.52
  -4   4   2    0.13    0.24
   4   4  -2   -0.22    0.22
   4   4  -2   -0.28    0.28
   4  -4  -2    0.08    0.19
  -4  -4   2   -0.04    0.25
   4  -4  -2    0.01    0.21
  -4  -4   2   -0.07    0.28
   4  -4  -2   -0.09    0.26
   4   4  -1   -0.03    0.22
  -4   4   1   -0.04    0.21
   4   4  -1    0.08    0.22
   4  -4  -1    0.34    0.26
  -4  -4   1   -0.18    0.23
   4  -4  -1   -0.18    0.18
   4  -4  -1   -0.12    0.18
  -4  -4   1   -0.19    0.22
  -4   4   0    0.00    0.21
   4   4   0   -0.27    0.19
   4   4   0   -0.10    0.21
   4  -4   0   -0.19    0.25
  -4  -4   0    0.05    0.23
   4  -4   0    0.20    0.20
   4  -4   0    0.22    0.18
  -4  -4   0    0.27    0.23
   4   4   1  101.80    2.22
  -4   4  -1   99.61    2.54
   4  -4   1  106.77    2.10
   4  -4   1  106.94    2.33
  -4  -4  -1  106.44    2.27
  -4  -4  -1  106.81    2.27
   4   4   2   88.07    1.66
   4   4   2   87.90    1.99
  -4   4  -2   87.04    1.99
   4   4   2   86.10    1.92
   4  -4   2   81.38    2.39
  -4  -4  -2   87.27    1.94
  -4  -4  -2   84.60    1.95
   4  -4   2   87.01    1.77
   4  -4   2   86.80    2.02
   4   4   3    1.38    0.25
   4   4   3    1.14    0.25
  -4   4  -3    1.07    0.28
   4   4   3    1.44    0.29
   4  -4   3    1.27    0.25
  -4  -4  -3    0.85    0.27
   4  -4   3    1.35    0.35
   4  -4   3    1.36    0.26
   4   4   4   12.34    0.60
   4   4   4   12.14    0.65
   4   4   4   12.84    0.56
  -4   4  -4   12.71    0.68
   4  -4   4   13.19    0.67
  -4  -4  -4   11.91    0.71
   4  -4   4   13.32    0.73
   4   4   5    5.31    0.49
  -4   4  -5    7.20    0.54
   4   4   5    5.74    0.64
  -4  -4  -5    6.06    0.55
   4  -4   5    4.78    0.54
   4  -4   5    6.44    0.53
   4   4   6    1.54    0.45
  -4   4  -6    1.28    0.35
   4  -4   6    2.15    0.35
   4  -4   6    1.33    0.38
  -4  -4  -6    1.37    0.37
   4   4   7    0.69    0.72
  -4   4  -7    0.79    0.41
   4  -4   7    1.85    0.41
  -4  -4  -7    1.18    0.41
   4  -4   7    0.32    0.36
   4   4   8    3.07    0.61
   4  -4   8    2.75    0.50
  -4   4  -9   40.01    1.91
   4  -4   9   38.89    1.60
   4  -4   9   37.94    1.51
   4   4  10   10.49    1.49
  -4   4 -10    9.49    1.48
   4  -4  10    7.65    1.06
   4  -4  10    6.99    0.86
   4   4  11    0.03    1.08
  -4   4 -11    0.60    0.82
   4  -4  11    0.93    0.92
  -4   5  12    1.38    1.31
   4  -5 -12    0.79    0.91
   4   5 -11    8.20    1.11
  -4   5  11    9.62    1.16
   4  -5 -11    8.15    1.30
   4   5 -10    5.10    0.90
  -4   5  10    6.30    0.99
  -4  -5  10    5.72    1.15
   4  -5 -10    6.23    0.80
   4   5  -9    3.97    0.77
   4   5  -9    6.10    1.06
  -4   5   9    5.54    0.72
   4   5  -9    4.09    0.64
   4  -5  -9    4.67    0.70
  -4  -5   9    4.90    1.15
  -4  -5   9    4.03    0.63
   4   5  -8   24.82    1.36
  -4   5   8   26.19    1.22
   4   5  -8   24.32    1.21
   4   5  -8   26.42    1.23
  -4  -5   8   24.16    1.15
   4  -5  -8   25.86    1.26
  -4  -5   8   26.19    1.14
  -4   5   7   10.91    0.79
   4   5  -7   10.66    0.83
   4   5  -7    9.89    0.74
   4  -5  -7    9.55    0.86
   4  -5  -7   10.50    0.77
  -4  -5   7   10.11    0.72
  -4  -5   7   10.97    0.78
   4   5  -6   32.45    1.25
   4   5  -6   32.23    1.13
  -4   5   6   34.72    1.19
   4  -5  -6   34.17    1.25
   4  -5  -6   31.11    1.24
  -4  -5   6   32.35    1.11
  -4  -5   6   32.18    1.21
   4   5  -5    6.00    0.56
  -4   5   5    5.98    0.52
  -4   5   5    4.31    0.43
   4   5  -5    6.17    0.51
  -4  -5   5    4.68    0.56
   4  -5  -5    4.65    0.61
   4  -5  -5    4.41    0.51
  -4  -5   5    5.16    0.49
   4   5  -4   16.27    0.83
   4   5  -4   15.76    0.73
  -4   5   4   15.64    0.66
  -4   5   4   15.68    0.75
   4  -5  -4   15.56    0.72
   4  -5  -4   15.82    0.83
   4  -5  -4   15.65    0.72
  -4  -5   4   15.79    0.73
  -4  -5   4   17.48    0.81
  -4   5   3   22.76    0.94
  -4   5   3   23.71    0.83
   4   5  -3   23.97    0.98
  -4  -5   3   22.88    0.95
  -4  -5   3   23.41    0.91
   4  -5  -3   22.91    1.23
   4  -5  -3   23.41    0.87
   4  -5  -3   22.60    0.96
   4   5  -2    4.71    0.45
  -4   5   2    5.33    0.50
  -4  -5   2    5.89    0.54
  -4  -5   2    4.84    0.47
   4  -5  -2    5.17    0.58
   4  -5  -2    5.13    0.55
   4  -5  -2    5.67    0.45
  -4   5   1   58.54    1.54
   4   5  -1   59.56    1.57
  -4  -5   1   57.88    1.63
   4  -5  -1   59.20    1.66
  -4  -5   1   57.74    1.55
   4  -5  -1   57.84    1.51
   4  -5  -1   58.60    1.56
  -4   5   0   19.07    0.81
   4   5   0   18.32    0.77
   4  -5   0   19.14    0.81
  -4  -5   0   18.73    0.83
  -4  -5   0   18.03    1.07
   4  -5   0   18.99    0.77
   4  -5   0   18.70    0.86
   4   5   1    2.02    0.28
  -4   5  -1    2.07    0.34
   4   5   1    2.10    0.38
   4  -5   1    1.91    0.34
   4  -5   1    2.06    0.32
  -4  -5  -1    2.17    0.34
   4  -5   1    2.50    0.50
  -4  -5  -1    1.81    0.59
  -4   5  -2   35.39    1.44
   4   5   2   35.01    1.12
   4  -5   2   33.97    1.20
  -4  -5  -2   32.12    1.42
  -4  -5  -2   33.66    1.26
   4  -5   2   33.14    0.98
   4  -5   2   35.40    1.17
   4   5   3    3.72    0.44
   4   5   3    3.47    0.55
  -4   5  -3    4.31    0.47
   4  -5   3    3.27    0.48
  -4  -5  -3    3.12    0.57
  -4  -5  -3    3.88    0.45
   4  -5   3    3.80    0.47
   4  -5   3    3.29    0.52
   4   5   4    0.36    0.27
   4   5   4    0.77    0.33
  -4   5  -4    0.06    0.26
  -4  -5  -4    0.40    0.30
   4  -5   4    0.28    0.32
  -4  -5  -4    0.23    0.40
   4  -5   4    0.45    0.28
  -4   5  -5    1.86    0.40
   4   5   5    1.85    0.31
   4  -5   5    1.52    0.35
  -4  -5  -5    1.91    0.38
   4  -5   5    2.12    0.41
  -4   5  -6    0.03    0.40
   4   5   6    0.09    0.33
  -4  -5  -6   -0.30    0.39
   4  -5   6    0.22    0.38
   4  -5   6    0.66    0.41
   4   5   7    4.68    0.64
  -4   5  -7    3.98    0.89
   4  -5   7    4.41    0.62
   4  -5   7    3.63    0.72
  -4  -5  -7    2.95    0.58
  -4   5  -8    2.88    0.64
  -4  -5  -8    3.85    1.20
   4  -5   8    2.97    0.58
  -4   5  -9    7.82    1.14
   4  -5   9    9.45    1.08
  -4   5 -10    0.31    0.78
   4  -5  10    0.85    0.70
  -4   6  11    1.61    0.92
   4  -6 -11    1.14    0.92
   4   6 -10    0.87    0.87
  -4   6  10    1.05    0.70
   4   6 -10    0.86    0.96
   4  -6 -10    1.16    0.68
  -4  -6  10    0.57    0.66
   4   6  -9    1.05    0.83
   4   6  -9   -0.33    0.78
   4   6  -9   -0.01    0.81
  -4   6   9    0.58    0.57
  -4  -6   9    0.63    0.66
   4  -6  -9    0.38    0.59
  -4   6   8    4.27    0.66
   4   6  -8    4.83    0.73
   4   6  -8    4.50    0.91
  -4  -6   8    4.39    0.83
   4  -6  -8    3.22    0.60
  -4   6   7   -0.33    0.50
   4   6  -7    0.51    0.54
   4   6  -7    0.19    0.55
   4  -6  -7    0.46    0.56
  -4  -6   7   -0.10    0.46
  -4  -6   7    0.20    0.52
   4   6  -6    3.54    0.57
   4   6  -6    2.07    0.45
  -4   6   6    2.53    0.49
  -4  -6   6    1.24    0.46
   4  -6  -6    2.22    0.47
   4  -6  -6    2.36    0.50
  -4  -6   6    3.17    0.56
   4   6  -5    0.27    0.34
  -4   6   5   -0.09    0.34
   4   6  -5   -0.11    0.38
   4  -6  -5    0.67    0.40
   4  -6  -5   -0.05    0.35
  -4  -6   5    0.13    0.38
  -4  -6   5   -0.34    0.34
  -4   6   4    0.97    0.34
  -4   6   4    0.59    0.28
   4   6  -4    0.31    0.36
   4   6  -4    0.91    0.34
  -4  -6   4    0.46    0.37
  -4  -6   4    0.42    0.33
   4  -6  -4    0.42    0.33
   4  -6  -4    0.35    0.44
   4  -6  -4    1.36    0.38
  -4   6   3    0.58    0.30
  -4   6   3    0.33    0.26
   4   6  -3    0.36    0.30
  -4  -6   3    1.01    0.31
   4  -6  -3    0.63    0.34
   4  -6  -3   -0.07    0.30
  -4  -6   3    0.25    0.33
   4  -6  -3    0.42    0.33
  -4   6   2   13.10    0.69
   4   6  -2   12.65    0.69
  -4   6   2   11.82    0.63
   4  -6  -2   11.78    0.79
   4  -6  -2   12.43    0.80
   4  -6  -2   13.21    0.68
  -4  -6   2   13.23    0.92
  -4  -6   2   12.66    0.70
  -4   6   1   70.84    1.81
   4   6  -1   70.04    1.86
  -4  -6   1   68.86    1.86
   4  -6  -1   68.70    1.75
   4  -6  -1   68.10    2.08
  -4  -6   1   70.93    1.95
   4  -6  -1   71.37    1.82
   4   6   0    5.23    0.49
  -4   6   0    5.75    0.53
   4  -6   0    5.30    0.58
  -4  -6   0    4.74    0.58
   4  -6   0    5.82    0.53
  -4  -6   0    5.47    0.54
   4  -6   0    4.81    0.50
   4   6   1    0.23    0.31
  -4   6  -1    0.71    0.29
  -4  -6  -1    0.01    0.29
   4  -6   1   -0.45    0.31
   4  -6   1    0.35    0.30
  -4  -6  -1    0.39    0.32
   4  -6   1    0.26    0.32
   4   6   2    0.54    0.31
   4   6   2    0.35    0.27
  -4   6  -2    0.56    0.38
  -4  -6  -2    0.34    0.32
   4  -6   2    0.34    0.36
   4  -6   2   -0.30    0.30
  -4  -6  -2    0.16    0.35
   4  -6   2    0.64    0.31
   4   6   3    0.86    0.31
   4   6   3   -0.13    0.33
  -4   6  -3    0.30    0.33
   4  -6   3    0.04    0.34
  -4  -6  -3    0.01    0.33
  -4  -6  -3    0.10    0.37
   4  -6   3   -0.25    0.43
   4  -6   3   -0.16    0.34
   4   6   4    9.70    0.69
  -4   6  -4    7.19    0.97
   4   6   4   10.35    0.68
   4  -6   4    7.48    0.81
   4  -6   4    9.02    0.78
  -4  -6  -4    9.00    0.77
  -4  -6  -4    7.77    1.25
   4   6   5   -0.01    0.38
  -4   6  -5    1.56    0.49
  -4  -6  -5    1.37    0.45
   4  -6   5    0.15    0.48
   4  -6   5    0.50    0.43
   4   6   6   -0.50    0.42
   4  -6   6   -0.24    0.55
  -4  -6  -6    1.11    0.57
   4  -6   6   -0.19    0.48
  -4   6  -7    2.42    0.60
   4  -6   7    2.73    0.58
   4  -6   7    2.88    0.99
  -4   6  -8    0.38    0.65
   4  -6   8    0.35    0.60
  -4  -6  -8    1.49    1.59
  -4   6  -9    2.43    0.88
   4  -6   9    3.32    0.80
   4   7  -9   -1.18    0.85
   4   7  -9   -0.68    0.79
   4   7  -9    1.70    1.33
  -4   7   9    1.24    0.74
   4  -7  -9    2.13    0.72
  -4  -7   9    0.15    0.70
  -4  -7   9    0.68    0.78
   4   7  -8    1.63    0.78
   4   7  -8    0.90    0.68
  -4   7   8    1.49    0.65
  -4  -7   8    0.53    0.73
  -4  -7   8    0.93    0.65
   4  -7  -8    0.33    0.62
   4   7  -7   -0.24    0.67
  -4   7   7    0.30    0.57
   4   7  -7    1.15    0.59
  -4  -7   7   -0.43    0.64
   4  -7  -7   -0.89    0.53
  -4  -7   7   -0.35    0.57
   4   7  -6    2.13    0.59
   4   7  -6    1.78    0.65
  -4   7   6    2.12    0.64
  -4  -7   6    2.00    0.57
   4  -7  -6    3.93    1.09
   4  -7  -6    1.65    0.52
   4   7  -5   -0.33    0.78
   4   7  -5   -0.20    0.54
  -4   7   5   -0.53    0.47
  -4  -7   5   -0.06    0.56
   4  -7  -5    0.00    0.53
   4  -7  -5   -0.01    0.55
  -4  -7   5    0.60    0.85
  -4   7   4    2.34    0.37
  -4   7   4    1.72    0.49
   4   7  -4    1.38    0.47
   4   7  -4    1.28    0.80
   4  -7  -4    1.50    0.50
   4  -7  -4    1.89    0.56
  -4  -7   4    1.86    0.58
  -4  -7   4    1.87    0.61
  -4   7   3   15.21    0.93
   4   7  -3   14.68    1.01
  -4   7   3   17.03    0.80
  -4  -7   3   16.29    0.99
   4  -7  -3   14.83    0.90
   4  -7  -3   16.00    0.93
   4  -7  -3   15.22    1.05
  -4  -7   3   15.89    1.09
   4   7  -2    1.64    0.44
  -4   7   2    2.48    0.37
  -4   7   2    1.39    0.42
   4  -7  -2    1.30    0.38
  -4  -7   2    2.06    0.51
   4  -7  -2    1.21    0.49
   4  -7  -2    1.40    0.42
  -4  -7   2    1.61    0.45
  -4   7   1    4.05    0.60
  -4   7   1    6.48    0.70
   4   7  -1    4.03    0.67
  -4  -7   1    6.04    0.80
   4  -7  -1    7.01    0.71
   4  -7  -1    5.64    0.78
  -4  -7   1    5.23    0.67
   4  -7  -1    4.58    0.63
   4   7   0    1.13    0.39
  -4   7   0    0.70    0.39
   4  -7   0    1.61    0.71
  -4  -7   0    0.49    0.70
  -4  -7   0    1.09    0.53
   4  -7   0    1.15    0.36
   4  -7   0    1.97    0.50
   4   7   1    0.79    0.39
  -4   7  -1    0.44    0.40
   4  -7   1    1.33    0.48
  -4  -7  -1    0.27    0.44
   4  -7   1    0.22    0.36
  -4  -7  -1    0.07    0.44
   4  -7   1    0.48    0.40
   4   7   2   17.09    0.95
  -4   7  -2   15.80    0.98
   4   7   2   14.84    0.93
  -4  -7  -2   16.03    0.97
   4  -7   2   16.69    0.81
  -4  -7  -2   17.68    1.06
   4  -7   2   16.06    1.01
   4  -7   2   17.09    1.16
   4   7   3   37.30    1.38
   4   7   3   38.22    1.68
  -4   7  -3   37.76    1.45
  -4  -7  -3   36.94    1.54
  -4  -7  -3   38.37    2.13
  -4   7  -4    9.32    1.46
   4   7   4    9.66    1.20
   4  -7   4    8.65    0.90
   4  -7   4    8.05    1.01
  -4  -7  -4    7.17    1.03
  -4   7  -5   -0.18    0.59
   4   7   5    0.75    0.51
  -4  -7  -5   -0.07    0.59
   4  -7   5   -0.59    0.47
   4  -7   5    1.65    0.61
   4   7   6    3.72    0.63
  -4   7  -6    2.93    0.72
  -4  -7  -6    4.56    0.77
   4  -7   6    2.16    0.75
   4  -7   6    2.18    0.60
  -4   7  -7   14.62    2.05
  -4  -7  -7   13.65    1.44
   4  -7   7   13.56    1.11
  -4   7  -8    1.25    0.87
   4  -7   8    1.48    0.75
  -4  -7  -8    1.72    1.04
   4   8  -8    0.17    0.93
  -4   8   8    1.45    0.94
   4   8  -8    1.17    1.04
  -4  -8   8   -1.55    0.81
  -4  -8   8   -0.70    0.92
   4  -8  -8    1.83    0.96
   4   8  -7   -0.02    0.70
  -4   8   7    0.04    0.74
   4   8  -7    1.32    0.89
  -4  -8   7    0.10    0.68
   4  -8  -7    0.49    0.71
  -4  -8   7   -0.77    0.77
   4   8  -6    1.00    0.73
   4   8  -6    1.16    0.65
  -4   8   6    1.16    0.74
   4  -8  -6    0.98    0.64
  -4  -8   6    2.03    0.74
  -4  -8   6   -0.33    0.76
  -4   8   5    0.56    0.66
   4   8  -5    1.53    0.95
   4   8  -5   -0.56    0.57
   4  -8  -5    0.47    0.61
  -4  -8   5   -0.47    0.62
  -4  -8   5    0.20    0.59
   4   8  -4    0.00    0.53
   4   8  -4    0.18    0.61
  -4   8   4    0.50    0.66
   4  -8  -4    0.10    0.68
   4  -8  -4    0.16    0.54
  -4  -8   4   -0.25    0.70
  -4  -8   4   -0.78    0.57
  -4   8   3   34.76    1.43
   4   8  -3   34.41    1.48
   4   8  -3   34.59    1.60
  -4   8   3   33.96    1.62
   4  -8  -3   35.55    1.74
   4  -8  -3   35.73    1.61
  -4  -8   3   32.35    1.49
  -4  -8   3   34.69    1.62
  -4   8   2   16.40    1.18
   4   8  -2   16.30    1.08
   4  -8  -2   15.36    1.43
  -4  -8   2   17.48    1.14
  -4  -8   2   16.70    1.26
   4  -8  -2   16.53    1.09
   4  -8  -2   16.82    1.25
  -4   8   1    5.34    0.76
   4   8  -1    6.97    0.88
  -4   8   1    6.62    0.91
  -4  -8   1    6.50    0.86
  -4  -8   1    7.23    0.89
   4  -8  -1    6.60    0.99
   4   8   0   -0.57    0.46
  -4   8   0    0.61    0.72
  -4   8   0    0.62    0.46
   4  -8   0    0.84    0.57
   4  -8   0   -0.03    0.53
  -4  -8   0    0.45    0.53
   4  -8   0   -0.98    0.50
  -4  -8   0    0.25    0.59
   4   8   1    1.71    0.61
  -4   8  -1   -0.03    0.50
   4   8   1    0.30    0.47
  -4  -8  -1    0.39    0.65
   4  -8   1    1.22    0.52
   4  -8   1    0.57    0.51
  -4  -8  -1   -0.18    0.53
   4  -8   1    0.82    0.55
   4   8   2    7.91    1.04
   4   8   2    6.48    0.85
  -4   8  -2    8.62    1.35
   4  -8   2    6.79    0.83
  -4  -8  -2    7.31    1.17
  -4  -8  -2    9.81    1.60
   4  -8   2    8.17    0.96
   4  -8   2    6.58    0.85
  -4   8  -3    1.02    1.06
   4   8   3    0.46    0.51
   4   8   3   -0.20    0.83
  -4  -8  -3    0.81    0.58
   4  -8   3    0.29    0.55
   4  -8   3    0.81    0.63
  -4   8  -4    0.72    0.71
   4   8   4   -0.03    0.54
   4  -8   4   -0.94    0.56
  -4  -8  -4   -1.03    0.96
   4  -8   4   -0.55    0.68
   4   8   5    0.04    0.59
  -4   8  -5    1.50    0.94
  -4  -8  -5   -0.51    0.68
   4  -8   5    0.50    0.77
   4  -8   5    0.96    0.62
  -4   8  -6   -0.07    0.86
  -4  -8  -6    0.27    0.85
   4  -8   6   -0.78    0.84
   4  -8   6    0.24    0.72
   4   9  -5    0.12    0.93
  -4   9   5    0.63    1.01
   4   9  -5    0.93    0.89
   4  -9  -5    1.10    1.11
  -4  -9   5    1.61    0.96
   4  -9  -5    1.85    0.85
  -4  -9   5   -0.69    0.80
  -4   9   4    0.84    0.90
   4   9  -4   -1.03    0.71
   4   9  -4    0.05    0.82
   4  -9  -4    0.04    0.85
  -4  -9   4    1.38    0.88
  -4  -9   4    0.87    0.86
  -4   9   3    2.95    1.15
   4   9  -3   -0.44    0.74
   4   9  -3   -0.56    0.66
   4  -9  -3   -0.05    0.88
  -4  -9   3    0.63    0.75
  -4  -9   3    0.65    0.76
   4  -9  -3   -0.07    0.76
  -4   9   2   41.87    1.64
  -4   9   2   45.43    1.94
   4   9  -2   46.98    2.01
   4   9  -2   44.33    1.80
  -4  -9   2   40.98    1.93
   4  -9  -2   42.94    1.72
   4  -9  -2   45.28    1.98
  -4  -9   2   47.93    1.83
   4   9  -1   -0.18    0.59
  -4   9   1    2.16    0.84
   4   9  -1    1.36    0.73
  -4   9   1   -0.93    0.65
   4  -9  -1   -0.98    0.62
  -4  -9   1   -0.14    0.70
  -4  -9   1    0.50    0.65
   4  -9  -1   -0.09    0.71
   4   9   0    0.62    0.77
   4   9   0    2.91    0.82
  -4   9   0    0.39    0.80
  -4   9   0    1.03    0.78
  -4  -9   0    1.99    0.78
   4  -9   0    1.35    0.68
   4  -9   0    1.89    0.75
   4  -9   0    1.65    0.65
  -4  -9   0    1.03    0.63
   4   9   1   -0.48    0.73
   4   9   1    1.72    0.63
  -4   9  -1   -0.21    0.61
  -4   9  -1   -0.38    0.93
   4  -9   1    0.27    0.68
  -4  -9  -1   -0.33    0.67
   4  -9   1    0.07    0.63
  -4  -9  -1    0.29    0.78
   4  -9   1   -0.85    0.72
   4   9   2    1.87    0.63
   4   9   2   -1.37    0.80
  -4   9  -2    2.13    0.67
  -4   9  -2    1.57    0.92
  -4  -9  -2    0.76    0.95
   4  -9   2    0.41    0.69
   4  -9   2    0.30    0.77
  -4  -9  -2    0.81    0.71
   4   9   3    7.60    1.16
  -4   9  -3    8.58    1.25
   4  -9   3    7.91    1.31
  -4  -9  -3   10.21    1.38
   4  -9   3    7.88    1.10
   4   9   4    1.79    0.74
  -4  -9  -4    0.94    0.94
   4  -9   4    3.13    1.34
   5   0 -13   -0.37    1.07
  -5   0  13   -0.75    0.66
   5   0 -12    0.07    0.63
  -5   0  12   -0.77    0.56
  -5   0  11   -0.10    0.48
   5   0 -11   -0.51    0.49
   5   0 -10    0.47    0.39
  -5   0  10    0.82    0.37
  -5   0   9    0.19    0.30
   5   0  -9    0.00    0.28
   5   0  -9   -0.03    0.40
   5   0  -8    6.41    0.51
   5   0  -8    5.42    0.59
  -5   0   8    5.05    0.46
   5   0  -7   -0.04    0.21
   5   0  -7   -0.14    0.25
  -5   0   7    0.11    0.31
  -5   0   6  107.82    2.24
   5   0  -6  105.87    2.26
   5   0  -5    0.10    0.18
  -5   0   5    0.03    0.16
   5   0  -5    0.06    0.18
   5   0  -5   -0.02    0.13
  -5   0   4    0.02    0.14
   5   0  -4    0.01    0.13
   5   0  -4    0.03    0.16
   5   0  -4    0.16    0.15
   5   0  -3   -0.03    0.14
   5   0  -3   -0.04    0.12
   5   0  -3    0.03    0.11
  -5   0   3   -0.02    0.12
   5   0  -2    9.80    0.38
   5   0  -2    9.48    0.45
  -5   0   2   10.09    0.41
  -5   0   2   10.10    0.42
   5   0  -1   -0.16    0.11
   5   0  -1   -0.09    0.13
  -5   0   1   -0.06    0.11
  -5   0   1    0.02    0.12
   5   0  -1   -0.17    0.11
  -5   0   0  111.02    2.10
   5   0   0  109.42    2.20
   5   0   0  111.75    2.03
  -5   0   0  111.89    2.03
   5   0   0  110.21    2.16
   5   0   1   -0.06    0.12
   5   0   1    0.15    0.14
   5   0   1    0.19    0.10
  -5   0  -1   -0.03    0.11
  -5   0  -1   -0.17    0.12
  -5   0  -2    9.15    0.27
   5   0   2    9.39    0.61
   5   0   2    9.06    0.41
   5   0   2    9.12    0.44
   5   0   2    9.00    0.28
   5   0   3   -0.29    0.17
   5   0   3   -0.12    0.15
   5   0   3    0.00    0.16
  -5   0  -3   -0.14    0.15
   5   0   4  463.58    7.74
  -5   0  -4  448.41    7.91
   5   0   4  439.12    7.95
   5   0   4  452.15    7.92
   5   0   5    0.18    0.25
   5   0   5   -0.28    0.40
   5   0   5    0.23    0.19
   5   0   6   21.73    0.88
   5   0   6   22.42    0.86
   5   0   7    0.01    0.30
   5   0   7   -0.17    0.26
   5   0   8    8.23    0.77
   5   0   8    9.68    0.65
   5   0   9    0.49    0.38
   5   0   9   -0.40    0.55
   5   0  10    1.77    0.66
   5   0  10    2.08    0.55
  -5   0 -11    0.62    0.65
   5   0  11    0.33    0.83
   5   1 -13    0.58    1.10
  -5   1  13    1.27    0.66
  -5  -1  13   -0.81    0.67
   5  -1 -13   -1.34    0.77
  -5   1  12    1.22    0.59
   5   1 -12   -0.40    0.63
  -5  -1  12    1.50    0.63
   5  -1 -12    0.57    0.64
   5   1 -11    2.79    0.57
   5  -1 -11    1.07    0.67
  -5  -1  11    1.82    0.54
   5   1 -10   62.59    2.05
  -5   1  10   58.04    1.86
   5  -1 -10   60.33    1.79
  -5  -1  10   60.67    1.68
   5   1  -9    0.88    0.31
   5   1  -9    0.87    0.53
   5  -1  -9    0.62    0.33
  -5  -1   9    0.78    0.32
   5  -1  -9    0.32    0.44
   5   1  -8    0.92    0.28
   5   1  -8    0.79    0.39
   5  -1  -8    1.06    0.29
  -5  -1   8    0.89    0.29
   5  -1  -8    0.88    0.34
   5   1  -7    0.18    0.24
  -5   1   7    0.57    0.27
   5   1  -7    0.67    0.29
   5  -1  -7    0.16    0.27
   5  -1  -7    0.29    0.24
  -5  -1   7   -0.07    0.25
   5   1  -6   72.55    1.41
  -5   1   6   71.28    1.74
   5   1  -6   72.50    1.71
   5   1  -6   70.17    2.01
   5  -1  -6   70.08    1.65
  -5  -1   6   70.55    1.58
   5  -1  -6   69.24    1.87
   5   1  -5   19.43    0.71
   5   1  -5   17.99    0.54
   5   1  -5   18.21    0.71
  -5   1   5   18.52    0.70
   5  -1  -5   18.56    0.69
   5  -1  -5   18.37    0.68
  -5  -1   5   18.25    0.70
   5   1  -4    4.95    0.35
  -5   1   4    4.96    0.34
   5   1  -4    4.54    0.37
   5   1  -4    5.03    0.30
   5  -1  -4    4.89    0.38
   5  -1  -4    4.72    0.34
  -5  -1   4    4.73    0.35
  -5  -1   4    4.91    0.29
   5  -1  -4    4.83    0.26
   5   1  -3   10.49    0.40
   5   1  -3   10.04    0.48
  -5   1   3   10.25    0.51
   5   1  -3   10.07    0.45
  -5  -1   3   10.91    0.46
   5  -1  -3   10.03    0.47
   5  -1  -3   10.28    0.43
   5  -1  -3   10.39    0.38
  -5  -1   3   10.62    0.37
  -5   1   2    4.29    0.29
   5   1  -2    4.71    0.33
   5   1  -2    4.18    0.28
  -5  -1   2    4.30    0.30
   5  -1  -2    4.28    0.28
   5  -1  -2    4.51    0.28
   5  -1  -2    4.12    0.34
   5   1  -1   81.69    1.68
  -5   1   1   82.11    1.67
   5  -1  -1   84.65    1.66
  -5  -1   1   82.97    1.65
  -5  -1   1   82.64    1.52
   5  -1  -1   77.09    1.90
   5  -1  -1   83.36    1.66
   5   1   0   87.90    1.84
  -5   1   0   88.82    1.81
   5   1   0   88.26    1.84
  -5  -1   0   90.90    1.74
   5  -1   0   91.03    1.87
   5  -1   0   91.89    1.68
  -5  -1   0   88.68    1.74
   5   1   1    0.02    0.12
  -5   1  -1   -0.11    0.12
   5   1   1   -0.09    0.13
   5  -1   1    0.22    0.14
   5  -1   1    0.25    0.16
   5  -1   1   -0.01    0.09
  -5  -1  -1   -0.02    0.12
   5   1   2   19.73    0.60
   5   1   2   19.64    0.67
  -5   1  -2   19.80    0.65
   5   1   2   19.28    0.61
  -5  -1  -2   19.32    0.58
   5  -1   2   19.65    0.68
   5  -1   2   19.44    0.66
  -5  -1  -2   19.40    0.53
   5   1   3   13.61    0.54
   5   1   3   13.45    0.58
  -5   1  -3   13.71    0.58
   5   1   3   13.66    0.49
   5  -1   3   13.78    0.61
  -5  -1  -3   13.56    0.44
   5  -1   3   13.24    0.61
   5  -1   3   13.83    0.54
   5   1   4   82.85    2.06
   5   1   4   83.55    1.94
  -5   1  -4   82.51    1.90
   5   1   4   82.03    1.62
   5  -1   4   75.37    2.05
  -5  -1  -4   80.27    1.59
   5  -1   4   83.25    1.73
   5  -1   4   82.77    1.93
   5   1   5   22.62    0.85
   5   1   5   21.53    1.00
  -5   1  -5   22.20    0.84
   5  -1   5   22.24    0.87
   5  -1   5   22.15    1.04
   5  -1   5   21.32    0.74
  -5   1  -6    0.44    0.25
   5   1   6    0.72    0.25
   5   1   6    0.18    0.29
   5  -1   6    0.22    0.24
   5  -1   6    0.60    0.29
   5   1   7    0.52    0.26
  -5   1  -7    0.60    0.33
   5   1   7    1.04    0.35
   5  -1   7    0.87    0.28
   5  -1   7   -0.17    0.34
   5   1   8    7.48    0.58
   5   1   8    6.38    0.76
  -5   1  -8    6.99    0.67
   5  -1   8    8.88    0.64
   5  -1   8    6.79    0.73
   5   1   9   17.10    0.90
  -5   1  -9   17.52    1.79
   5   1   9   18.87    1.38
   5  -1   9   18.28    0.95
   5   1  10    0.65    0.64
  -5   1 -10    0.02    0.53
   5  -1  10    0.51    0.55
   5  -1  10   -1.42    0.64
   5   1  11    0.13    0.76
  -5   1 -11    2.38    0.67
   5  -1  11    2.06    0.79
   5   2 -13    1.60    0.90
   5  -2 -13    0.44    0.78
   5   2 -12    2.98    1.29
  -5   2  12    3.02    0.66
  -5   2  11   31.68    1.38
  -5  -2  11   29.59    1.29
   5  -2 -11   29.01    1.63
  -5   2  10   52.84    1.70
   5   2 -10   51.48    1.66
   5  -2 -10   51.61    1.86
  -5  -2  10   52.22    1.52
   5   2  -9    6.34    0.60
  -5   2   9    5.71    0.63
   5   2  -9    5.70    0.70
   5  -2  -9    4.51    0.79
  -5  -2   9    6.68    0.55
  -5   2   8    9.92    0.61
   5   2  -8    8.62    0.66
   5   2  -8    9.48    0.60
   5  -2  -8    9.41    0.61
  -5  -2   8    9.81    0.60
   5  -2  -8    8.69    0.71
   5   2  -7   24.45    0.98
   5   2  -7   23.94    0.92
  -5   2   7   24.09    0.90
   5  -2  -7   23.81    0.91
  -5  -2   7   24.79    0.83
  -5  -2   7   24.31    0.90
   5  -2  -7   26.10    0.92
   5   2  -6  128.75    2.79
  -5   2   6  132.31    2.76
   5   2  -6  131.63    2.76
  -5  -2   6  128.12    2.54
  -5  -2   6  132.79    2.76
   5  -2  -6  132.99    2.72
   5  -2  -6  131.15    2.76
   5   2  -5   37.81    1.15
  -5   2   5   38.34    1.12
   5   2  -5   38.30    1.13
  -5  -2   5   37.71    0.91
   5  -2  -5   38.64    1.10
   5  -2  -5   37.15    1.12
   5   2  -4    9.16    0.53
   5   2  -4    9.87    0.54
  -5   2   4   10.38    0.52
  -5  -2   4    9.87    0.51
   5  -2  -4    9.93    0.52
   5  -2  -4    9.68    0.53
   5  -2  -4    9.61    0.41
  -5  -2   4   10.19    0.37
  -5   2   3    1.10    0.21
   5   2  -3    1.31    0.21
   5   2  -3    1.81    0.32
   5  -2  -3    1.28    0.18
  -5  -2   3    1.38    0.19
   5  -2  -3    1.38    0.25
   5  -2  -3    1.32    0.21
  -5  -2   3    1.28    0.22
   5   2  -2    4.19    0.37
   5   2  -2    4.75    0.32
  -5   2   2    5.20    0.34
  -5  -2   2    5.06    0.35
   5  -2  -2    4.66    0.33
   5  -2  -2    4.79    0.37
  -5   2   1   28.35    0.81
   5   2  -1   27.85    0.83
   5   2  -1   26.95    0.78
   5  -2  -1   27.37    0.86
   5  -2  -1   28.11    0.73
   5  -2  -1   27.98    0.77
  -5  -2   1   27.84    0.94
   5   2   0    4.58    0.50
   5   2   0    4.04    0.33
  -5   2   0    4.40    0.33
  -5  -2   0    4.56    0.18
   5  -2   0    3.94    0.34
  -5  -2   0    4.47    0.35
   5  -2   0    4.59    0.34
   5  -2   0    4.85    0.27
   5   2   1    0.79    0.18
  -5   2  -1    1.08    0.20
   5  -2   1    1.17    0.20
   5  -2   1    0.87    0.20
   5  -2   1    1.01    0.22
  -5  -2  -1    0.94    0.18
   5   2   2    0.25    0.18
   5   2   2    0.11    0.16
  -5   2  -2    0.07    0.19
   5   2   2    0.17    0.17
  -5  -2  -2    0.15    0.14
  -5  -2  -2    0.21    0.16
   5  -2   2    0.25    0.18
   5  -2   2    0.13    0.17
   5   2   3    1.17    0.24
  -5   2  -3    1.37    0.29
   5   2   3    1.34    0.22
   5   2   3    1.70    0.28
  -5  -2  -3    1.54    0.22
   5  -2   3    1.31    0.28
   5  -2   3    1.05    0.24
  -5   2  -4    7.11    0.52
   5   2   4    7.57    0.40
   5   2   4    7.49    0.49
   5   2   4    7.50    0.66
   5  -2   4    7.54    0.53
  -5  -2  -4    7.59    0.44
   5  -2   4    8.00    0.58
   5  -2   4    7.74    0.49
   5   2   5    7.70    0.50
   5   2   5    6.96    0.60
  -5   2  -5    6.92    0.70
   5  -2   5    7.53    0.54
   5  -2   5    6.68    0.51
  -5  -2  -5    7.53    0.62
   5  -2   5    7.32    0.51
   5   2   6    0.76    0.48
  -5   2  -6    0.29    0.27
   5   2   6    0.30    0.24
   5  -2   6    0.05    0.28
   5  -2   6    0.10    0.24
   5  -2   6   -0.11    0.31
   5   2   7    1.79    0.30
   5   2   7    1.41    0.45
   5  -2   7    1.11    0.40
   5  -2   7    1.41    0.32
  -5   2  -8    8.10    0.83
   5   2   8    7.10    0.77
   5   2   8    8.41    0.62
   5  -2   8    8.18    0.67
   5  -2   8    8.80    0.87
   5   2   9   -0.35    0.67
  -5   2  -9   -1.04    0.48
   5   2   9    0.36    0.41
   5  -2   9    0.11    0.56
   5  -2   9    0.05    0.45
  -5   2 -10    5.68    0.75
   5  -2  10    7.00    0.96
   5  -2  10    7.32    0.87
  -5   2 -11    1.49    0.74
   5   2  11   -1.39    0.85
   5  -2  11   -1.53    0.77
  -5   3  13   -0.30    0.82
   5  -3 -13   -0.36    0.88
  -5  -3  13   -1.40    1.16
   5   3 -12    1.83    1.30
  -5   3  12    0.55    0.64
   5  -3 -12    0.61    0.69
  -5  -3  12    0.63    0.63
  -5   3  11    0.39    0.60
   5   3 -11    1.16    0.75
  -5  -3  11    1.34    0.57
   5  -3 -11   -0.42    0.54
   5   3 -10    1.44    0.56
   5  -3 -10    1.01    0.89
  -5  -3  10    2.06    0.82
   5   3  -9    1.84    0.48
  -5   3   9    1.48    0.43
   5   3  -9    2.48    0.82
  -5  -3   9    1.51    0.36
   5  -3  -9    0.77    0.38
   5   3  -8    0.66    0.33
   5   3  -8    0.39    0.42
   5   3  -8    0.55    0.33
  -5   3   8    0.36    0.29
  -5  -3   8    0.28    0.30
   5  -3  -8    0.68    0.52
  -5  -3   8    0.50    0.31
   5  -3  -8    0.16    0.30
   5   3  -7   51.34    1.60
   5   3  -7   50.85    1.33
  -5   3   7   49.75    1.45
   5   3  -7   51.08    1.44
  -5  -3   7   52.49    1.50
   5  -3  -7   49.50    1.47
  -5  -3   7   50.03    1.28
   5  -3  -7   48.41    1.44
  -5   3   6   39.90    1.30
   5   3  -6   38.40    1.19
   5   3  -6   39.57    1.15
   5   3  -6   39.42    1.24
  -5  -3   6   38.85    1.18
   5  -3  -6   38.57    1.37
  -5  -3   6   37.00    0.98
   5  -3  -6   38.95    1.22
  -5   3   5    3.60    0.26
   5   3  -5    3.39    0.41
   5   3  -5    4.32    0.56
  -5   3   5    3.56    0.42
  -5  -3   5    3.98    0.44
   5  -3  -5    3.97    0.49
   5  -3  -5    3.39    0.41
   5  -3  -5    4.07    0.36
  -5  -3   5    3.74    0.32
   5   3  -4    0.71    0.24
   5  -3  -4    0.72    0.26
   5  -3  -4    0.78    0.27
   5  -3  -4    0.57    0.19
   5   3  -3    2.78    0.36
   5   3  -3    1.86    0.31
  -5   3   3    2.35    0.38
   5  -3  -3    1.63    0.30
  -5  -3   3    2.26    0.39
   5  -3  -3    2.10    0.29
  -5  -3   3    2.31    0.36
   5  -3  -3    2.20    0.32
  -5   3   2   14.26    0.62
   5   3  -2   14.06    0.64
   5   3  -2   13.76    0.59
   5  -3  -2   14.49    0.56
  -5  -3   2   14.41    0.62
   5  -3  -2   13.49    0.54
   5  -3  -2   13.93    0.65
  -5  -3   2   13.81    0.64
   5   3  -1    6.74    0.47
   5   3  -1    6.90    0.43
  -5   3   1    7.78    0.48
   5  -3  -1    6.45    0.40
  -5  -3   1    6.61    0.48
   5  -3  -1    6.81    0.39
  -5  -3   1    6.47    0.44
   5  -3  -1    6.80    0.48
  -5   3   0  105.37    2.25
   5   3   0  105.93    2.26
   5   3   0  108.46    2.28
  -5  -3   0  106.77    2.27
   5  -3   0  110.00    2.09
   5  -3   0  107.46    2.24
   5  -3   0  105.62    2.34
  -5  -3   0  106.96    2.21
  -5   3  -1   28.70    0.94
   5   3   1   29.00    0.93
   5   3   1   28.04    0.87
  -5  -3  -1   28.00    0.86
   5  -3   1   27.92    0.91
  -5  -3  -1   29.34    0.60
   5  -3   1   29.50    0.98
   5  -3   1   27.44    0.94
   5   3   2    0.20    0.21
   5   3   2   -0.02    0.25
   5   3   2   -0.02    0.18
   5  -3   2    0.01    0.15
   5  -3   2    0.09    0.23
   5  -3   2    0.19    0.38
  -5  -3  -2   -0.10    0.19
   5   3   3   10.34    0.64
  -5   3  -3   10.63    0.58
   5   3   3   10.79    0.49
   5   3   3   11.16    0.49
   5  -3   3   10.83    0.63
   5  -3   3    9.98    0.59
  -5  -3  -3   10.63    0.56
   5   3   4    5.39    0.48
   5   3   4    5.71    0.42
   5   3   4    5.53    0.46
  -5   3  -4    5.78    0.48
   5  -3   4    6.71    0.49
   5  -3   4    5.72    0.58
  -5  -3  -4    5.88    0.50
  -5   3  -5   14.83    0.72
   5   3   5   13.54    0.77
   5   3   5   14.62    0.78
   5  -3   5   13.92    0.78
  -5  -3  -5   15.01    0.71
   5  -3   5   15.71    0.74
  -5   3  -6    5.32    0.54
   5   3   6    6.62    0.64
   5   3   6    6.33    0.51
   5  -3   6    6.65    0.59
   5  -3   6    6.12    0.54
  -5  -3  -6    6.59    0.74
   5   3   7   -0.24    0.43
   5   3   7    0.59    0.32
  -5   3  -7   -0.04    0.36
   5  -3   7   -0.30    0.32
   5  -3   7    0.35    0.41
   5   3   8    1.33    0.45
   5   3   8    0.98    0.52
   5  -3   8    0.52    0.43
   5  -3   8    1.09    0.72
  -5   3  -9   -0.36    0.51
   5  -3   9    1.32    0.59
   5  -3   9   -0.01    0.60
  -5   3 -10    2.73    1.13
   5   3  10    4.52    1.59
   5  -3  10    3.57    0.65
   5  -3  10    3.99    0.77
   5   3  11    2.76    1.07
  -5   3 -11    1.82    0.84
   5  -3  11    1.38    0.97
   5   4 -12   -0.28    0.87
  -5   4  12    0.33    0.79
   5  -4 -12   -0.28    0.75
   5   4 -11    0.79    0.74
  -5   4  11    0.20    0.58
   5  -4 -11    0.06    0.60
   5   4 -10    5.08    0.81
  -5   4  10    6.88    0.88
   5  -4 -10    5.49    0.77
   5   4  -9    3.20    0.59
   5   4  -9    2.45    0.56
  -5   4   9    3.17    0.57
  -5  -4   9    2.86    0.50
   5  -4  -9    3.33    0.60
   5   4  -8    0.03    0.39
   5   4  -8    0.02    0.51
   5   4  -8    0.13    0.38
  -5   4   8   -0.29    0.37
  -5  -4   8    0.16    0.35
  -5  -4   8    0.64    0.43
   5  -4  -8    0.43    0.51
   5  -4  -8    0.52    0.38
  -5   4   7    0.23    0.31
   5   4  -7   -0.01    0.33
   5   4  -7    0.05    0.32
   5   4  -7    0.34    0.34
  -5  -4   7    0.54    0.31
  -5  -4   7    0.08    0.38
   5  -4  -7    0.22    0.39
   5  -4  -7    0.18    0.29
   5   4  -6    1.62    0.33
   5   4  -6    1.99    0.35
  -5   4   6    1.81    0.32
  -5  -4   6    1.15    0.28
  -5  -4   6    1.24    0.33
   5  -4  -6    1.12    0.36
   5  -4  -6    1.69    0.32
   5   4  -5    8.55    0.76
  -5   4   5    8.04    0.41
   5   4  -5    8.01    0.60
  -5   4   5    6.99    0.54
   5  -4  -5    7.85    0.52
  -5  -4   5    7.79    0.65
   5  -4  -5    7.60    0.64
   5  -4  -5    8.69    0.56
  -5  -4   5    7.26    0.52
   5   4  -4    0.54    0.26
  -5   4   4    0.30    0.25
   5   4  -4    0.63    0.28
  -5  -4   4    0.64    0.24
   5  -4  -4    0.30    0.31
  -5  -4   4   -0.02    0.26
   5  -4  -4    0.43    0.24
   5  -4  -4    0.63    0.22
   5   4  -3    6.98    0.53
  -5   4   3    6.58    0.50
   5   4  -3    7.43    0.57
  -5  -4   3    7.39    0.50
  -5  -4   3    7.14    0.54
   5  -4  -3    6.87    0.61
   5  -4  -3    6.31    0.46
   5  -4  -3    7.59    0.67
   5   4  -2   30.79    1.02
  -5   4   2   31.33    1.03
   5   4  -2   29.97    1.06
   5  -4  -2   31.12    1.23
   5  -4  -2   30.53    0.97
  -5  -4   2   29.61    1.00
  -5  -4   2   29.76    1.07
   5  -4  -2   30.33    0.95
   5   4  -1    9.26    0.73
  -5   4   1    9.90    0.61
   5   4  -1    9.57    0.58
   5  -4  -1    9.86    0.52
   5  -4  -1    9.53    0.56
  -5  -4   1    9.78    1.00
   5  -4  -1    9.61    0.64
  -5  -4   1   10.16    0.60
   5   4   0  103.02    2.28
  -5   4   0  104.78    2.29
   5   4   0  100.67    2.33
   5  -4   0  104.44    2.39
  -5  -4   0  103.05    2.34
   5  -4   0  105.41    2.12
   5  -4   0   97.66    2.44
  -5   4  -1   42.31    1.22
   5   4   1   41.57    1.22
   5   4   1   42.79    1.23
   5  -4   1   43.04    1.26
  -5  -4  -1   41.57    1.24
   5  -4   1   41.86    1.04
   5  -4   1   42.34    1.31
   5   4   2    8.05    0.55
   5   4   2    7.45    0.53
  -5   4  -2    8.14    0.56
  -5  -4  -2    8.76    0.58
  -5  -4  -2    8.42    0.86
   5  -4   2    8.28    0.43
   5  -4   2    8.10    0.56
   5  -4   2    7.47    0.55
  -5   4  -3   11.19    0.76
   5   4   3   11.65    0.65
   5   4   3   12.14    0.63
   5   4   3   11.83    0.60
   5  -4   3   11.17    0.63
   5  -4   3   11.56    0.68
  -5  -4  -3   11.18    0.69
   5   4   4   -0.08    0.32
   5   4   4    0.27    0.23
  -5   4  -4   -0.16    0.25
   5   4   4    0.00    0.26
  -5  -4  -4   -0.17    0.29
   5  -4   4   -0.14    0.25
   5  -4   4   -0.01    0.30
  -5   4  -5    5.76    0.56
   5   4   5    6.97    0.52
   5   4   5    5.50    0.76
  -5  -4  -5    6.56    0.62
   5  -4   5    5.65    0.57
   5  -4   5    6.33    0.62
   5   4   6    4.11    0.52
   5   4   6    3.89    0.55
  -5   4  -6    3.61    0.50
  -5  -4  -6    4.68    0.78
   5  -4   6    4.37    0.63
   5  -4   6    3.63    0.56
  -5   4  -7    1.38    0.49
   5   4   7    1.09    0.49
   5   4   7    0.97    0.37
   5  -4   7    1.33    0.43
   5   4   8   33.20    1.55
  -5   4  -8   32.89    1.50
   5   4   8   34.69    1.53
   5  -4   8   31.58    1.39
  -5   4  -9    6.94    0.83
   5   4   9    6.24    1.12
   5  -4   9    5.84    0.71
  -5   4 -10    0.18    0.73
   5  -4  10    0.07    0.67
  -5   5  11    2.30    0.72
   5   5 -11    3.56    1.05
   5  -5 -11    1.39    0.70
  -5   5  10    5.83    0.75
   5   5 -10    7.45    1.22
   5   5 -10    5.82    1.01
  -5  -5  10    5.85    0.71
   5  -5 -10    5.23    0.76
  -5   5   9   11.25    1.02
   5   5  -9   10.67    1.22
   5   5  -9   10.08    1.26
  -5  -5   9   10.36    1.38
   5  -5  -9   11.02    0.97
   5   5  -8    0.83    0.47
   5   5  -8    0.88    0.52
   5   5  -8    1.06    0.57
  -5   5   8    0.78    0.50
  -5  -5   8    0.60    0.44
   5   5  -7    8.99    0.84
   5   5  -7    8.48    0.99
  -5   5   7    8.04    0.80
  -5  -5   7    9.01    0.77
   5  -5  -7    9.02    0.81
  -5  -5   7    9.65    0.81
   5  -5  -7   10.23    1.13
   5   5  -6    2.75    0.87
  -5   5   6    3.54    0.56
   5   5  -6    4.84    0.58
   5  -5  -6    4.23    0.61
  -5  -5   6    3.77    0.61
  -5  -5   6    2.61    0.69
   5  -5  -6    2.71    0.43
  -5   5   5    3.84    0.52
   5   5  -5    3.44    0.57
   5   5  -5    4.40    0.52
   5  -5  -5    3.66    0.51
  -5  -5   5    3.05    0.44
   5  -5  -5    2.69    0.42
  -5  -5   5    2.73    0.41
  -5   5   4   14.01    0.74
  -5   5   4   14.52    0.64
   5   5  -4   14.46    0.78
   5   5  -4   14.94    0.72
  -5  -5   4   13.76    0.77
   5  -5  -4   13.44    0.77
  -5  -5   4   15.00    0.71
   5  -5  -4   14.72    0.74
   5  -5  -4   14.47    0.80
   5   5  -3    0.48    0.28
   5   5  -3    0.50    0.25
  -5   5   3    1.10    0.28
   5  -5  -3    0.13    0.28
   5  -5  -3    0.14    0.31
   5  -5  -3    0.31    0.24
  -5  -5   3    0.33    0.26
  -5  -5   3    0.52    0.29
   5   5  -2    5.36    0.50
   5   5  -2    5.40    0.54
  -5   5   2    4.36    0.57
  -5  -5   2    4.38    0.45
   5  -5  -2    4.83    0.57
   5  -5  -2    4.52    0.48
   5  -5  -2    5.25    0.55
  -5  -5   2    4.99    0.60
  -5   5   1    0.64    0.32
   5   5  -1    0.29    0.23
   5   5  -1    1.53    0.37
   5  -5  -1    0.81    0.29
   5  -5  -1    0.65    0.26
  -5  -5   1    0.34    0.40
  -5  -5   1    1.43    0.35
  -5   5   0    3.64    0.52
   5   5   0    4.74    0.46
   5   5   0    3.34    0.50
  -5  -5   0    4.55    0.55
   5  -5   0    4.32    0.54
   5  -5   0    3.75    0.48
  -5  -5   0    4.33    0.51
   5  -5   0    3.76    0.52
   5   5   1   12.32    0.66
   5   5   1   12.67    0.70
  -5   5  -1   12.72    0.78
   5  -5   1   13.83    0.66
  -5  -5  -1   12.40    0.69
  -5  -5  -1   11.98    0.72
   5  -5   1   12.55    0.68
   5  -5   1   13.45    0.74
  -5   5  -2    1.09    0.29
   5   5   2    0.67    0.28
   5   5   2    0.88    0.24
  -5  -5  -2    0.46    0.33
   5  -5   2    0.55    0.27
   5  -5   2    1.02    0.28
  -5  -5  -2    0.92    0.29
   5  -5   2    0.73    0.31
   5   5   3    6.43    0.62
   5   5   3    6.51    0.52
  -5   5  -3    5.38    0.78
   5  -5   3    5.73    0.60
   5  -5   3    6.24    0.56
  -5  -5  -3    6.23    0.71
  -5  -5  -3    5.60    0.56
   5   5   4    0.80    0.30
  -5   5  -4    1.13    0.35
  -5  -5  -4    0.57    0.36
   5  -5   4    1.01    0.33
   5  -5   4    0.09    0.37
   5   5   5    0.99    0.34
  -5   5  -5    0.51    0.39
  -5  -5  -5    0.90    0.48
   5  -5   5    1.30    0.41
   5   5   6   -0.10    0.35
  -5   5  -6    0.14    0.49
   5  -5   6    0.01    0.46
  -5  -5  -6   -0.09    0.47
   5  -5   6    0.06    0.41
   5   5   7   16.80    1.06
  -5   5  -7   17.21    1.19
  -5  -5  -7   17.73    1.30
   5  -5   7   17.73    1.11
   5  -5   7   15.60    1.07
  -5   5  -8   32.82    1.50
   5  -5   8   33.68    1.54
  -5   5  -9    1.01    0.71
   5  -5   9   -0.50    0.61
  -5   5 -10   21.46    2.66
   5  -5  10   17.77    1.49
  -5   6  11   -1.23    0.98
  -5   6  10    0.78    0.70
   5   6 -10    0.33    0.82
   5   6 -10   -0.94    1.55
   5  -6 -10   -0.47    0.68
  -5  -6  10   -0.24    0.66
  -5   6   9    4.08    0.72
   5   6  -9    3.11    1.19
   5   6  -9    3.97    0.82
   5   6  -9    3.32    0.81
   5  -6  -9    2.61    0.71
  -5  -6   9    3.17    0.64
   5   6  -8    4.23    0.88
  -5   6   8    4.56    0.67
   5   6  -8    7.53    1.19
  -5  -6   8    5.29    0.69
  -5  -6   8    6.34    1.04
   5  -6  -8    5.70    0.87
   5   6  -7    9.25    0.96
   5  -6  -7    9.23    1.04
   5  -6  -7   10.41    0.90
   5   6  -6    0.04    0.49
  -5   6   6    1.12    0.48
   5   6  -6    0.36    0.44
   5  -6  -6   -0.13    0.72
  -5  -6   6   -0.15    0.45
   5  -6  -6    0.14    0.41
  -5  -6   6    0.41    0.50
   5   6  -5    0.01    0.38
   5   6  -5    0.53    0.45
  -5   6   5    1.27    0.41
  -5  -6   5   -0.19    0.43
  -5  -6   5   -0.01    0.38
   5  -6  -5    0.93    0.54
   5  -6  -5    0.37    0.39
  -5   6   4    0.65    0.31
   5   6  -4    0.16    0.38
   5   6  -4   -0.20    0.33
  -5   6   4   -0.64    0.32
   5  -6  -4    0.51    0.41
  -5  -6   4    0.27    0.35
   5  -6  -4    0.16    0.34
  -5  -6   4   -0.33    0.38
   5  -6  -4    0.25    0.37
   5   6  -3   33.82    1.28
  -5   6   3   34.73    1.29
   5   6  -3   33.66    1.22
  -5   6   3   36.70    1.13
  -5  -6   3   33.30    1.49
   5  -6  -3   33.85    1.29
   5  -6  -3   35.40    1.17
   5  -6  -3   30.27    1.38
  -5  -6   3   32.22    1.21
   5   6  -2   65.63    1.98
  -5   6   2   65.71    1.79
   5   6  -2   65.96    1.86
  -5  -6   2   65.44    1.90
   5  -6  -2   67.49    1.95
  -5  -6   2   64.14    1.80
   5  -6  -2   65.88    1.70
   5  -6  -2   66.45    1.78
   5   6  -1    0.58    0.30
  -5   6   1    0.91    0.34
   5   6  -1    0.37    0.33
  -5  -6   1    0.22    0.34
   5  -6  -1    0.96    0.29
  -5  -6   1    0.45    0.34
   5  -6  -1    0.39    0.30
   5  -6  -1    0.17    0.36
  -5   6   0   21.34    0.91
   5   6   0   21.53    0.96
   5   6   0   20.18    0.91
  -5  -6   0   20.71    0.98
  -5  -6   0   20.30    0.93
   5  -6   0   21.50    1.02
   5  -6   0   20.74    1.00
  -5   6  -1   27.87    1.10
   5   6   1   28.05    1.09
   5   6   1   28.22    1.11
  -5  -6  -1   26.76    1.22
  -5  -6  -1   27.23    1.11
   5  -6   1   29.06    1.23
   5  -6   1   27.87    0.97
   5  -6   1   28.98    1.12
  -5   6  -2    2.76    0.43
   5   6   2    3.18    0.43
  -5  -6  -2    3.06    0.47
  -5  -6  -2    1.69    0.39
   5  -6   2    2.97    0.49
   5  -6   2    2.58    0.44
   5  -6   2    4.02    0.55
  -5   6  -3    4.48    0.57
   5   6   3    4.95    0.59
   5   6   3    3.88    0.50
  -5  -6  -3    4.12    0.62
  -5  -6  -3    5.27    0.77
   5  -6   3    3.82    0.54
   5  -6   3    3.42    0.51
  -5   6  -4   -0.46    0.45
   5   6   4    0.25    0.38
   5  -6   4    0.28    0.48
  -5  -6  -4    0.32    0.43
   5  -6   4    0.66    0.42
   5   6   5    3.93    0.54
  -5  -6  -5    2.98    0.62
   5  -6   5    2.65    0.55
  -5   6  -6    9.30    1.00
   5   6   6    6.86    1.09
   5  -6   6    8.84    1.10
   5  -6   6    8.42    0.93
  -5  -6  -6    6.70    1.15
  -5   6  -7    1.94    0.61
   5   6   7    1.24    0.54
   5  -6   7    3.27    1.09
   5  -6   7    1.59    0.60
  -5  -6  -7    0.13    0.82
  -5   6  -8   -0.34    0.65
   5  -6   8    0.96    0.62
  -5   6  -9    1.57    0.95
   5  -6   9    0.08    0.77
  -5   7   9    1.83    0.78
   5   7  -9   -0.02    0.89
   5   7  -9    1.44    0.94
   5   7  -9    0.67    1.04
  -5  -7   9    0.10    1.37
   5  -7  -9    1.13    0.77
   5   7  -8    1.43    0.75
   5   7  -8    0.72    0.76
  -5   7   8    0.04    0.66
  -5  -7   8   -1.15    0.65
   5  -7  -8   -0.21    0.63
  -5  -7   8    0.49    0.71
   5   7  -7    0.03    0.61
  -5   7   7   -0.23    0.58
   5   7  -7   -0.05    0.63
  -5  -7   7   -0.73    0.69
   5  -7  -7   -0.82    0.56
  -5  -7   7   -1.16    0.62
   5   7  -6    3.45    0.72
  -5   7   6    2.59    0.63
   5   7  -6    2.62    0.64
  -5  -7   6    2.07    0.62
   5  -7  -6    0.86    1.05
  -5  -7   6    1.48    0.56
   5  -7  -6    2.14    0.58
   5   7  -5    1.75    0.87
   5   7  -5    0.73    0.52
  -5   7   5    0.59    0.87
  -5  -7   5    0.30    0.57
   5  -7  -5    1.44    0.70
  -5  -7   5    1.49    0.91
   5  -7  -5    1.05    0.51
  -5   7   4   29.51    1.54
   5   7  -4   31.66    1.65
  -5   7   4   30.50    1.08
   5  -7  -4   27.70    1.34
   5  -7  -4   30.95    1.46
   5  -7  -4   27.57    1.70
  -5  -7   4   28.64    1.67
   5   7  -3   75.54    2.18
  -5   7   3   73.51    1.96
   5   7  -3   69.90    2.63
  -5   7   3   74.83    2.45
  -5  -7   3   73.88    2.33
  -5  -7   3   74.14    2.17
   5  -7  -3   73.90    2.06
   5  -7  -3   75.44    2.27
   5  -7  -3   72.49    2.07
   5   7  -2   24.53    1.25
   5   7  -2   23.37    1.21
  -5   7   2   23.37    1.13
  -5   7   2   22.56    1.00
   5  -7  -2   21.79    1.05
   5  -7  -2   23.88    1.09
  -5  -7   2   23.35    1.26
  -5  -7   2   20.87    1.20
   5  -7  -2   22.21    1.27
  -5   7   1    0.14    0.41
   5   7  -1    0.05    0.40
   5   7  -1   -0.09    0.44
  -5  -7   1   -0.43    0.42
   5  -7  -1   -0.66    0.38
   5  -7  -1    0.05    0.39
   5  -7  -1    0.91    0.51
  -5  -7   1    0.55    0.47
   5   7   0    1.13    0.45
   5   7   0   -0.11    0.45
  -5   7   0    0.31    0.43
  -5  -7   0    0.76    0.47
   5  -7   0    0.46    0.43
   5  -7   0    0.97    0.54
  -5  -7   0    1.27    0.49
   5  -7   0    0.55    0.50
   5   7   1   13.22    0.99
   5   7   1   12.51    0.94
  -5   7  -1   14.91    0.97
   5  -7   1   14.37    1.00
   5  -7   1   14.68    0.78
  -5  -7  -1   14.79    1.04
   5  -7   1   13.35    1.10
  -5  -7  -1   14.98    1.11
   5   7   2    1.21    0.54
  -5   7  -2    0.93    0.52
   5   7   2    0.14    0.48
  -5  -7  -2    1.42    0.55
  -5  -7  -2    1.03    0.58
   5   7   3    2.12    0.51
   5   7   3    2.39    0.60
  -5  -7  -3    3.06    0.73
   5  -7   3    2.48    0.63
   5  -7   3    2.78    0.59
  -5  -7  -3    1.43    0.74
  -5   7  -4    0.82    0.59
   5   7   4    0.68    0.49
   5  -7   4    0.68    0.60
  -5  -7  -4   -0.48    0.55
   5  -7   4    0.64    0.54
  -5   7  -5    2.59    0.62
   5   7   5    1.71    0.54
  -5  -7  -5    1.13    0.67
   5  -7   5    1.67    0.54
   5   7   6    0.53    0.58
  -5   7  -6    1.63    0.69
  -5  -7  -6    1.67    0.79
   5  -7   6    1.51    0.79
   5  -7   6    1.53    0.59
  -5   7  -7   13.15    1.47
   5  -7   7   14.59    1.52
   5  -7   7    9.10    1.45
  -5  -7  -7   11.33    1.64
   5   8  -7    0.62    0.87
   5   8  -7    0.41    0.77
  -5   8   7    1.20    0.81
   5  -8  -7   -0.48    0.70
  -5  -8   7    0.95    0.75
  -5  -8   7   -1.42    0.82
   5   8  -6    0.14    0.67
  -5   8   6    1.72    0.75
   5   8  -6    1.15    0.74
   5  -8  -6    1.03    0.95
  -5  -8   6    0.41    0.67
  -5  -8   6   -0.46    0.70
   5   8  -5    0.97    0.61
  -5   8   5    1.53    0.65
   5   8  -5    0.16    0.69
  -5  -8   5    1.57    0.64
   5  -8  -5    1.25    0.79
  -5  -8   5    0.60    0.67
   5  -8  -5   -0.22    0.59
   5   8  -4   23.34    1.28
  -5   8   4   24.10    1.31
   5   8  -4   21.86    1.41
   5  -8  -4   24.34    1.49
  -5  -8   4   21.51    1.36
   5  -8  -4   19.06    1.35
  -5  -8   4   20.56    1.32
   5   8  -3   18.20    1.19
  -5   8   3   19.05    1.25
   5   8  -3   19.03    1.35
  -5   8   3   19.90    1.71
  -5  -8   3   21.06    1.28
   5  -8  -3   22.46    1.40
   5  -8  -3   18.40    1.95
  -5  -8   3   17.34    1.33
   5   8  -2    0.15    0.52
  -5   8   2    0.23    0.50
  -5   8   2    0.77    0.62
   5   8  -2    0.25    0.66
   5  -8  -2    0.82    0.56
  -5  -8   2    1.28    0.83
   5  -8  -2   -0.97    0.63
  -5  -8   2    0.69    0.56
   5  -8  -2    0.72    0.80
  -5   8   1    0.21    0.48
  -5   8   1    0.75    0.65
   5   8  -1    0.52    0.63
   5   8  -1   -0.35    0.50
  -5  -8   1    0.05    0.53
   5  -8  -1    1.01    0.58
  -5  -8   1    0.30    0.61
   5  -8  -1    0.81    0.63
   5  -8  -1   -0.23    0.60
   5   8   0    0.68    0.66
  -5   8   0    1.14    0.61
   5   8   0    1.05    0.51
  -5   8   0    1.48    0.54
   5  -8   0    2.45    0.66
  -5  -8   0    0.74    0.56
  -5  -8   0    0.88    0.67
   5  -8   0    2.36    0.60
   5   8   1    0.39    0.65
   5   8   1   -0.73    0.74
  -5   8  -1    0.83    0.62
  -5  -8  -1    0.47    0.60
   5  -8   1   -0.61    0.63
   5  -8   1    1.50    0.57
   5  -8   1    0.58    0.72
  -5  -8  -1   -0.31    0.67
   5   8   2   10.53    1.22
  -5   8  -2   12.84    1.25
   5   8   2   10.52    0.99
   5  -8   2    7.75    1.15
  -5  -8  -2   10.31    1.07
  -5  -8  -2   10.74    1.39
   5  -8   2   10.11    1.03
   5   8   3    0.53    0.57
  -5   8  -3    1.83    0.80
   5  -8   3    2.48    0.78
   5  -8   3    1.76    0.64
  -5  -8  -3    1.35    1.17
   5   8   4   -0.28    0.60
  -5   8  -4   -0.08    0.81
   5  -8   4   -1.31    0.60
  -5  -8  -4    0.48    0.68
   5  -8   4   -1.08    0.73
   5   8   5    0.84    0.65
  -5   8  -5   -0.49    0.78
   5  -8   5    1.82    0.91
   5  -8   5   -0.49    0.69
  -5  -8  -5    1.26    0.83
   5  -9  -5    0.40    0.92
   5  -9  -5   -0.06    1.12
  -5   9   4    2.22    0.93
   5   9  -4    1.76    0.87
   5   9  -4    3.81    0.98
  -5  -9   4    1.62    0.94
   5  -9  -4    4.56    1.09
   5  -9  -4    3.36    0.81
  -5  -9   4    2.97    0.90
  -5   9   3    2.57    0.86
   5   9  -3    1.45    0.86
   5   9  -3    0.80    0.74
  -5  -9   3    2.02    0.78
  -5  -9   3    1.99    0.88
   5  -9  -3    0.67    0.99
   5  -9  -3    2.09    0.69
  -5   9   2    4.13    1.11
   5   9  -2    1.73    0.72
   5   9  -2    4.39    0.86
   5  -9  -2    3.21    0.87
  -5  -9   2    1.87    0.85
   5  -9  -2    2.82    0.69
  -5  -9   2    2.76    0.77
   5  -9  -2    2.61    0.88
  -5   9   1    2.43    1.05
  -5   9   1   -0.51    0.62
   5   9  -1    1.08    0.64
   5   9  -1    0.90    0.78
  -5  -9   1   -0.19    0.77
  -5  -9   1   -0.30    0.66
   5  -9  -1    1.39    0.81
   5  -9  -1   -0.84    0.73
  -5   9   0    0.85    0.63
  -5   9   0    0.33    0.98
   5   9   0    0.63    0.65
   5   9   0    0.09    0.80
  -5  -9   0    0.01    0.79
  -5  -9   0   -0.84    0.70
   5  -9   0    0.98    0.74
   5  -9   0    0.66    0.84
   5  -9   0    0.81    0.79
  -5   9  -1   -0.20    0.81
   5   9   1    0.47    0.65
  -5   9  -1    0.44    0.65
   5   9   1    1.26    0.96
   5  -9   1   -1.10    0.73
   5  -9   1   -0.41    0.79
  -5  -9  -1    1.16    0.92
  -5  -9  -1   -0.34    0.74
   5   9   2    4.17    1.58
   5   9   2    3.56    0.79
  -5   9  -2    4.89    0.84
   5  -9   2    3.50    0.99
   5  -9   2    2.18    0.93
  -5  -9  -2    2.88    0.91
   5   9   3    0.82    0.75
  -5  -9  -3    0.80    1.01
   5  -9   3    4.29    1.31
  -6   0  13   -1.32    0.69
   6   0 -13   -0.05    0.75
  -6   0  12   28.59    1.39
   6   0 -12   31.65    1.43
  -6   0  11    0.08    0.52
   6   0 -10    1.22    0.44
  -6   0  10    2.12    0.44
   6   0  -9    0.21    0.40
  -6   0   9    0.36    0.31
   6   0  -9   -0.45    0.31
   6   0  -8    6.50    0.55
   6   0  -8    7.12    0.69
   6   0  -7   -0.03    0.22
  -6   0   7    0.06    0.27
   6   0  -7    0.01    0.41
   6   0  -6   50.89    1.38
  -6   0   6   51.56    1.32
   6   0  -6   50.77    1.40
  -6   0   5   -0.06    0.19
   6   0  -5    0.05    0.22
   6   0  -5    0.03    0.23
   6   0  -5   -0.13    0.16
   6   0  -4    7.32    0.44
   6   0  -4    7.47    0.36
  -6   0   4    7.09    0.38
   6   0  -4    7.52    0.50
  -6   0   3   -0.06    0.14
   6   0  -3   -0.28    0.17
   6   0  -3   -0.14    0.16
   6   0  -3   -0.10    0.13
   6   0  -2  342.55    6.11
   6   0  -2  334.31    5.92
  -6   0   2  341.97    5.90
   6   0  -1    0.22    0.13
   6   0  -1    0.12    0.13
   6   0  -1   -0.01    0.15
  -6   0   1    0.12    0.14
  -6   0   1   -0.07    0.13
  -6   0   0   19.23    0.55
   6   0   0   19.23    0.53
   6   0   0   17.87    0.66
  -6   0   0   18.21    0.57
   6   0   0   18.25    0.65
   6   0   1    0.23    0.28
   6   0   1   -0.01    0.12
   6   0   1   -0.06    0.14
  -6   0  -1    0.08    0.14
   6   0   2    4.60    0.40
   6   0   2    4.99    0.36
   6   0   2    4.37    0.21
  -6   0  -2    4.53    0.34
   6   0   3   -0.07    0.21
  -6   0  -3   -0.06    0.20
   6   0   3   -0.19    0.22
   6   0   4   50.10    1.21
   6   0   4   47.49    1.52
   6   0   4   49.52    1.35
   6   0   5    0.19    0.24
  -6   0  -5   -0.06    0.23
   6   0   5   -0.39    0.21
   6   0   5    0.11    0.28
  -6   0  -6    1.90    0.30
   6   0   6    1.66    0.29
   6   0   6    2.02    0.36
   6   0   7    0.13    0.30
  -6   0  -7    0.35    0.32
   6   0   7   -0.20    0.35
  -6   0  -8    6.74    0.76
   6   0   8    4.92    0.66
   6   0   8    4.82    0.68
  -6   0  -9    1.05    0.53
   6   0   9   -0.41    0.47
   6   0   9   -0.61    0.59
   6   0  10    1.55    0.70
  -6   0 -10    0.95    0.59
   6   0  10   -0.39    0.57
  -6   0 -11    1.14    0.89
   6   0  11   -1.72    0.84
  -6   1  13    0.30    0.67
   6   1 -13   -0.58    0.75
  -6  -1  13   -0.40    0.69
   6  -1 -13    0.86    0.76
   6   1 -12   47.83    1.92
  -6   1  12   45.38    1.74
   6  -1 -12   46.00    1.77
  -6  -1  12   46.65    1.65
  -6   1  11   12.89    1.17
   6  -1 -11   13.72    1.22
  -6  -1  11   16.15    0.99
  -6   1  10   -0.02    0.41
   6   1 -10    0.33    0.42
   6   1 -10    0.45    0.58
  -6  -1  10    0.45    0.39
   6  -1 -10    0.64    0.41
   6   1  -9    0.28    0.33
  -6   1   9    0.49    0.32
   6   1  -9   -0.09    0.38
   6  -1  -9    0.26    0.37
  -6  -1   9    0.20    0.31
   6  -1  -9    0.17    0.46
   6   1  -8    5.19    0.52
   6   1  -8    4.78    0.59
  -6   1   8    5.15    0.49
  -6  -1   8    4.89    0.48
   6  -1  -8    5.49    0.51
   6  -1  -8    5.25    0.67
  -6   1   7   14.37    0.71
   6   1  -7   16.83    0.75
   6   1  -7   15.43    0.80
  -6  -1   7   14.93    0.73
   6  -1  -7   14.84    0.70
   6  -1  -7   15.10    0.99
   6   1  -6   13.86    0.65
  -6   1   6   12.59    0.76
   6   1  -6   12.12    0.94
   6   1  -6   13.97    0.52
  -6  -1   6   13.90    0.58
   6  -1  -6   14.07    0.66
   6  -1  -6   13.80    0.71
   6   1  -5    0.09    0.17
  -6   1   5    0.12    0.20
   6   1  -5    0.32    0.25
   6  -1  -5    0.28    0.26
  -6  -1   5    0.42    0.19
  -6  -1   5    0.45    0.45
   6  -1  -5   -0.10    0.24
   6  -1  -5    0.37    0.17
   6   1  -4    1.23    0.20
  -6   1   4    1.39    0.22
   6   1  -4    1.45    0.27
   6   1  -4    1.25    0.24
   6  -1  -4    1.72    0.28
   6  -1  -4    1.45    0.24
   6  -1  -4    1.36    0.19
  -6  -1   4    1.66    0.25
  -6  -1   4    1.21    0.24
  -6   1   3    9.83    0.45
   6   1  -3   10.76    0.46
   6   1  -3   10.17    0.47
   6   1  -3   10.96    0.56
   6  -1  -3   10.34    0.47
  -6  -1   3    9.85    0.38
  -6  -1   3   10.04    0.48
   6  -1  -3    9.94    0.53
   6  -1  -3   10.33    0.42
   6   1  -2    3.44    0.31
   6   1  -2    4.25    0.37
  -6   1   2    3.49    0.30
   6   1  -2    2.50    0.29
   6  -1  -2    3.26    0.36
   6  -1  -2    3.69    0.29
  -6  -1   2    3.46    0.25
  -6  -1   2    3.44    0.31
   6   1  -1   10.26    0.51
   6   1  -1   10.57    0.47
  -6   1   1    9.96    0.44
  -6  -1   1   10.33    0.50
   6  -1  -1   10.00    0.40
   6  -1  -1   10.69    0.52
  -6  -1   1   10.53    0.37
   6  -1  -1   10.07    0.45
  -6   1   0    0.36    0.16
   6   1   0    0.72    0.18
   6   1   0    0.59    0.18
   6  -1   0    0.63    0.14
   6  -1   0    0.61    0.20
  -6  -1   0    0.70    0.16
   6  -1   0    0.45    0.16
  -6  -1   0    0.63    0.15
   6   1   1    0.19    0.19
  -6   1  -1    0.32    0.17
   6   1   1    0.26    0.17
  -6  -1  -1    0.14    0.14
   6  -1   1    0.43    0.12
   6  -1   1   -0.14    0.17
  -6  -1  -1    0.24    0.16
   6  -1   1    0.14    0.16
  -6   1  -2   86.98    1.91
   6   1   2   88.63    1.92
   6   1   2   87.45    1.97
   6   1   2   88.27    1.87
   6  -1   2   88.25    1.92
  -6  -1  -2   88.11    1.69
   6  -1   2   88.15    2.04
   6   1   3   97.63    2.03
   6   1   3   97.90    2.27
   6   1   3   99.83    2.27
  -6   1  -3   96.93    2.14
   6  -1   3   97.16    2.21
  -6  -1  -3   97.03    2.01
  -6  -1  -3   96.74    1.82
   6  -1   3   95.12    2.06
   6   1   4    4.98    0.42
   6   1   4    4.54    0.49
   6   1   4    4.84    0.44
  -6   1  -4    4.19    0.42
  -6  -1  -4    4.91    0.43
   6  -1   4    4.72    0.43
   6  -1   4    4.44    0.49
   6  -1   4    4.01    0.45
  -6   1  -5    8.96    0.57
   6   1   5    7.62    0.51
   6   1   5    7.46    0.62
   6  -1   5    8.00    0.53
   6  -1   5    8.31    0.64
   6  -1   5    7.69    0.51
  -6  -1  -5    8.37    0.55
  -6   1  -6    0.73    0.36
   6   1   6    0.89    0.27
   6   1   6    0.91    0.34
   6  -1   6    0.81    0.27
   6  -1   6    0.54    0.34
  -6   1  -7    0.36    0.35
   6   1   7    0.50    0.30
   6   1   7    0.95    0.39
   6  -1   7    0.86    0.32
   6  -1   7   -0.05    0.38
  -6   1  -8    0.17    0.44
   6   1   8    0.15    0.37
   6   1   8    0.27    0.48
   6  -1   8    0.58    0.50
   6  -1   8   -0.18    0.38
  -6   1  -9    2.41    0.55
   6   1   9    1.67    0.69
   6   1   9    1.96    0.50
   6  -1   9    0.92    0.54
   6  -1   9    3.22    0.67
  -6   1 -10   -0.12    0.61
   6   1  10   -0.51    0.69
   6  -1  10   -0.79    0.56
  -6  -1 -10    0.13    0.60
   6  -1  10    1.06    0.77
  -6   1 -11    1.02    0.78
   6   1  11    1.11    0.93
   6  -1  11   -0.57    0.94
  -6  -1 -11    3.22    1.04
   6   2 -13    2.27    0.89
  -6   2  13    0.78    0.78
  -6  -2  13    2.61    0.77
   6  -2 -13    2.11    0.80
   6   2 -12   -0.87    1.07
   6  -2 -12    0.50    0.67
  -6  -2  12    0.84    0.63
   6   2 -11   29.66    1.43
  -6   2  11   32.36    1.44
  -6  -2  11   30.58    1.28
   6  -2 -11   29.60    1.42
  -6   2  10    4.87    0.77
   6   2 -10    4.08    0.60
   6   2 -10    2.45    0.55
   6  -2 -10    3.29    0.57
  -6  -2  10    3.84    0.66
  -6   2   9    0.52    0.36
   6   2  -9    0.48    0.39
   6   2  -9    0.78    0.39
   6  -2  -9    0.94    0.41
   6  -2  -9    1.21    0.76
  -6  -2   9    1.15    0.34
  -6   2   8   23.32    0.94
   6   2  -8   24.53    1.30
   6   2  -8   24.08    1.03
   6  -2  -8   23.39    0.96
   6  -2  -8   24.00    1.05
  -6  -2   8   23.81    0.86
   6   2  -7   53.58    1.53
  -6   2   7   53.26    1.47
   6   2  -7   52.80    1.49
   6   2  -7   55.38    1.29
  -6  -2   7   55.05    1.50
   6  -2  -7   53.99    1.49
   6  -2  -7   51.48    1.97
  -6  -2   7   51.02    1.32
   6   2  -6    0.75    0.29
   6   2  -6    0.87    0.24
  -6   2   6    0.99    0.28
   6   2  -6    0.54    0.26
   6  -2  -6    0.80    0.25
  -6  -2   6    0.87    0.23
   6  -2  -6    1.06    0.40
  -6  -2   6    0.61    0.25
   6   2  -5    9.92    0.66
   6   2  -5    9.74    0.49
  -6   2   5    9.73    0.58
   6   2  -5    9.08    0.60
  -6  -2   5    9.09    0.59
  -6  -2   5    8.77    0.42
   6  -2  -5    9.51    0.60
   6  -2  -5    8.81    0.62
   6  -2  -5    8.99    0.44
  -6   2   4    3.42    0.42
   6   2  -4    3.35    0.34
   6   2  -4    3.71    0.54
   6  -2  -4    3.38    0.38
  -6  -2   4    2.47    0.28
  -6  -2   4    3.35    0.41
   6  -2  -4    4.02    0.48
   6  -2  -4    3.63    0.32
   6   2  -3    2.42    0.32
   6   2  -3    2.23    0.36
  -6   2   3    2.16    0.35
   6  -2  -3    2.01    0.27
   6  -2  -3    2.47    0.29
   6  -2  -3    2.36    0.37
  -6  -2   3    2.34    0.22
  -6  -2   3    1.75    0.27
  -6   2   2   16.39    0.63
   6   2  -2   17.10    0.69
   6   2  -2   15.45    0.61
   6  -2  -2   17.19    0.73
   6  -2  -2   16.40    0.59
  -6  -2   2   16.76    0.64
   6  -2  -2   16.52    0.71
   6   2  -1   16.12    0.64
  -6   2   1   17.41    0.65
   6   2  -1   17.56    0.69
   6  -2  -1   17.51    0.56
  -6  -2   1   16.26    0.60
   6  -2  -1   16.78    0.70
   6  -2  -1   17.40    0.63
   6   2   0    1.29    0.24
  -6   2   0    0.92    0.22
   6   2   0    1.08    0.23
   6  -2   0    1.05    0.17
   6  -2   0    0.99    0.21
  -6  -2   0    1.07    0.23
   6  -2   0    1.36    0.27
  -6  -2   0    1.07    0.14
   6   2   1    0.97    0.24
   6   2   1    1.07    0.22
  -6   2  -1    0.92    0.23
   6  -2   1    0.99    0.24
   6  -2   1    0.91    0.27
  -6  -2  -1    1.05    0.23
   6  -2   1    0.92    0.23
  -6  -2  -1    0.84    0.16
  -6   2  -2   23.99    0.99
   6   2   2   23.79    0.93
   6   2   2   24.64    0.70
   6  -2   2   24.62    0.87
  -6  -2  -2   24.63    0.67
   6   2   3   58.47    1.34
  -6   2  -3   58.66    1.51
   6   2   3   59.41    1.35
   6   2   3   56.88    1.50
   6  -2   3   58.07    1.54
   6  -2   3   57.59    1.49
  -6  -2  -3   57.42    1.31
  -6  -2  -3   59.52    1.31
   6   2   4   24.37    0.85
  -6   2  -4   24.21    0.90
   6   2   4   24.57    0.75
   6  -2   4   24.16    0.88
  -6  -2  -4   24.79    0.76
  -6   2  -5    0.83    0.28
   6   2   5    1.13    0.26
   6   2   5    1.47    0.41
   6  -2   5    1.26    0.26
   6  -2   5    0.98    0.32
   6  -2   5    0.77    0.33
   6   2   6    1.02    0.28
  -6   2  -6    1.24    0.32
   6  -2   6    1.37    0.38
   6  -2   6    1.44    0.31
  -6   2  -7   10.59    0.81
   6   2   7   10.86    0.69
   6   2   7   10.33    0.98
   6  -2   7    8.94    0.86
   6  -2   7    9.21    0.75
   6   2   8   35.77    1.44
   6   2   8   33.63    1.26
   6  -2   8   37.62    1.43
  -6   2  -9    6.26    0.98
   6   2   9    9.41    0.94
   6   2   9    7.42    1.04
   6  -2   9   10.23    1.14
   6  -2   9    8.82    0.90
   6   2  10    1.52    0.82
   6  -2  10    2.48    0.76
   6  -2  10    1.63    0.60
  -6   2 -11    1.18    0.90
   6   2  11    0.29    1.42
   6  -2  11   -1.46    1.23
   6   3 -13    0.62    0.98
  -6   3  13    0.12    0.88
   6  -3 -13    0.92    0.90
  -6   3  12    1.26    0.69
   6   3 -12    0.45    0.72
   6  -3 -12   -0.40    0.67
   6   3 -11    0.72    0.66
  -6   3  11    0.03    0.58
   6  -3 -11    0.64    0.54
  -6  -3  11    0.37    0.65
   6   3 -10    1.41    0.73
   6   3 -10    0.88    0.60
  -6   3  10   -0.11    0.49
  -6  -3  10    1.16    0.48
   6  -3 -10    1.07    0.56
   6   3  -9    0.50    0.42
   6   3  -9    0.83    0.43
  -6   3   9   -0.27    0.39
   6  -3  -9    0.26    0.41
  -6  -3   9    1.23    0.37
   6   3  -8   52.64    1.60
  -6   3   8   51.11    1.58
   6   3  -8   52.94    1.58
   6  -3  -8   51.12    1.57
  -6  -3   8   52.74    1.40
   6  -3  -8   50.25    1.56
   6   3  -7   41.88    1.23
   6   3  -7   39.13    1.28
   6   3  -7   41.48    1.32
  -6   3   7   40.79    1.31
  -6  -3   7   42.87    1.67
   6  -3  -7   41.24    1.33
  -6  -3   7   39.74    1.10
   6  -3  -7   40.83    1.30
  -6   3   6    0.47    0.25
   6   3  -6    0.88    0.30
   6   3  -6    0.42    0.27
   6   3  -6    0.66    0.30
  -6  -3   6    0.47    0.26
   6  -3  -6    0.10    0.31
   6  -3  -6    0.63    0.26
  -6   3   5   -0.05    0.22
   6   3  -5    0.35    0.26
   6   3  -5    0.06    0.28
  -6  -3   5   -0.10    0.18
   6  -3  -5    0.22    0.23
   6  -3  -5    0.03    0.31
   6  -3  -5   -0.04    0.24
  -6  -3   5   -0.22    0.22
   6   3  -4    0.11    0.23
  -6   3   4    0.06    0.22
   6   3  -4    0.15    0.23
  -6  -3   4    0.12    0.23
   6  -3  -4    0.31    0.46
   6  -3  -4    0.38    0.21
   6  -3  -4    0.52    0.32
   6   3  -3   39.40    1.12
  -6   3   3   38.82    1.18
   6   3  -3   36.55    1.23
  -6  -3   3   39.48    1.37
   6  -3  -3   34.67    1.38
   6  -3  -3   37.55    1.08
   6  -3  -3   38.58    1.00
   6   3  -2   82.94    1.89
   6  -3  -2   83.10    1.80
  -6  -3   2   81.71    1.88
   6  -3  -2   84.39    1.82
   6   3  -1  162.45    3.33
   6   3  -1  166.50    3.37
   6  -3  -1  167.13    3.41
  -6  -3   1  169.54    3.27
   6  -3  -1  168.29    3.25
   6   3   0    9.10    0.56
  -6   3   0    7.18    0.61
   6   3   0    6.83    0.63
   6  -3   0    6.99    0.38
   6  -3   0    7.48    0.52
  -6  -3   0    8.39    0.50
   6   3   1   16.22    0.72
   6   3   1   15.84    0.68
  -6   3  -1   16.13    0.83
   6  -3   1   15.33    0.74
  -6  -3  -1   14.99    0.64
   6  -3   1   15.57    0.51
  -6   3  -2   10.59    0.59
   6   3   2   10.96    0.58
   6   3   2   10.75    0.57
   6   3   2   11.00    0.49
   6  -3   2   10.37    0.58
  -6  -3  -2   10.47    0.57
  -6  -3  -2   10.84    0.41
   6  -3   2   10.04    0.76
   6   3   3    7.72    0.52
   6   3   3    8.44    0.55
   6   3   3    7.93    0.53
  -6   3  -3    8.45    0.53
   6  -3   3    7.59    0.53
   6  -3   3    7.83    0.62
  -6  -3  -3    7.41    0.54
   6   3   4   13.71    0.70
   6   3   4   13.06    0.60
   6   3   4   13.98    0.68
  -6   3  -4   14.84    0.73
   6  -3   4   15.62    0.80
   6  -3   4   14.58    0.71
  -6  -3  -4   13.20    0.69
   6   3   5   -0.14    0.26
  -6   3  -5    0.16    0.28
  -6  -3  -5    0.24    0.37
   6  -3   5    0.08    0.33
   6  -3   5    0.14    0.28
   6   3   6    7.09    0.58
   6   3   6    6.45    0.79
  -6   3  -6    6.55    0.88
   6  -3   6    5.92    0.66
  -6   3  -7    2.71    0.56
   6   3   7    2.52    0.44
   6   3   7    3.15    0.54
   6  -3   7    2.39    0.50
   6   3   8    1.71    0.68
  -6   3  -8    1.45    0.53
   6   3   8    1.14    0.60
   6  -3   8    0.86    0.55
   6   3   9    1.90    0.89
   6   3   9    2.48    0.79
  -6   3  -9    0.80    0.59
   6  -3   9    1.57    0.59
  -6   3 -10    0.31    0.71
   6   3  10    1.16    1.07
   6  -3  10   -1.41    0.66
   6   4 -12    1.65    0.90
  -6   4  12    0.04    0.80
   6  -4 -12   -0.02    0.75
  -6   4  11   11.16    1.15
   6   4 -11   12.62    1.33
   6  -4 -11    9.93    1.40
   6   4 -10   13.18    1.34
   6   4 -10   12.35    1.18
  -6   4  10   12.36    1.00
   6  -4 -10   12.35    1.08
   6   4  -9    0.34    0.55
   6   4  -9    0.53    0.55
  -6  -4   9    1.56    0.62
   6   4  -8   18.63    1.03
   6   4  -8   17.49    1.03
  -6   4   8   20.53    1.05
   6   4  -8   19.40    0.96
  -6  -4   8   17.04    0.95
   6  -4  -8   20.63    1.01
   6  -4  -8   20.14    1.06
  -6   4   7    4.85    0.56
   6   4  -7    3.49    0.51
   6   4  -7    4.34    0.55
   6   4  -7    3.75    0.61
  -6  -4   7    3.63    0.55
   6  -4  -7    3.54    0.59
   6  -4  -7    4.12    0.73
   6   4  -6   21.72    0.99
  -6   4   6   21.58    0.93
   6   4  -6   20.90    1.06
  -6  -4   6   21.89    0.93
   6  -4  -6   20.03    1.05
   6  -4  -6   22.49    0.91
   6   4  -5   12.28    0.73
   6   4  -5   11.91    0.68
  -6   4   5   13.25    0.69
  -6  -4   5   12.65    0.67
   6  -4  -5   12.24    0.63
   6  -4  -5   11.63    0.86
   6   4  -4    1.95    0.34
  -6   4   4    2.44    0.35
   6   4  -4    2.77    0.43
   6  -4  -4    2.09    0.31
  -6  -4   4    2.34    0.33
  -6  -4   4    1.91    0.35
   6  -4  -4    3.27    0.44
   6  -4  -4    1.78    0.37
  -6   4   3   26.56    0.96
   6   4  -3   29.16    0.99
   6   4  -3   28.19    1.33
   6  -4  -3   27.82    1.08
  -6  -4   3   27.46    0.97
   6  -4  -3   28.37    0.97
  -6  -4   3   27.44    1.07
   6  -4  -3   28.23    0.92
   6   4  -2    2.96    0.43
  -6   4   2    3.07    0.44
   6   4  -2    2.20    0.36
   6  -4  -2    2.64    0.59
  -6  -4   2    2.81    0.44
  -6  -4   2    2.28    0.43
   6  -4  -2    2.05    0.36
   6  -4  -2    2.88    0.45
  -6   4   1   33.32    1.07
   6   4  -1   34.49    1.10
   6  -4  -1   31.05    1.48
   6  -4  -1   33.56    1.16
  -6  -4   1   33.09    1.12
  -6  -4   1   32.67    1.23
   6  -4  -1   33.84    0.99
   6   4   0   26.15    0.98
  -6   4   0   25.48    0.93
   6   4   0   26.75    0.94
   6  -4   0   26.04    0.95
   6  -4   0   25.03    0.99
   6  -4   0   25.51    0.80
  -6  -4   0   25.87    0.92
  -6   4  -1    0.52    0.23
   6   4   1    0.28    0.23
   6   4   1    0.11    0.28
  -6  -4  -1    0.27    0.27
   6  -4   1    0.38    0.21
   6  -4   1    0.50    0.26
   6  -4   1   -0.05    0.23
  -6   4  -2   21.11    1.04
   6   4   2   21.37    1.16
   6   4   2   20.61    0.82
   6  -4   2   21.05    0.89
   6  -4   2   21.41    0.92
  -6  -4  -2   21.09    0.86
   6   4   3    9.80    0.58
  -6   4  -3    9.68    0.59
   6   4   3   10.19    0.66
  -6  -4  -3   10.10    0.65
   6  -4   3    9.92    0.65
   6  -4   3    9.79    0.60
   6   4   4    0.26    0.27
  -6   4  -4    0.32    0.29
   6   4   4    0.06    0.34
   6  -4   4    0.06    0.28
  -6  -4  -4   -0.03    0.33
   6  -4   4    0.20    0.32
  -6   4  -5    0.16    0.37
   6   4   5    0.91    0.32
   6  -4   5   -0.44    0.32
   6  -4   5    0.32    0.36
  -6  -4  -5   -0.01    0.39
   6   4   6    2.50    0.42
  -6   4  -6    2.84    0.64
   6  -4   6    4.08    0.67
   6  -4   6    2.81    0.49
   6   4   7   32.08    1.25
  -6   4  -7   29.41    1.45
   6  -4   7   31.55    1.61
  -6   4  -8    8.57    0.94
   6  -4   8    8.56    0.99
  -6   4  -9   23.60    1.36
   6  -4   9   19.83    1.27
  -6   4 -10    4.34    0.91
   6  -4  10    3.51    0.79
  -6   5  11    2.41    0.79
   6   5 -11    0.19    0.82
   6  -5 -11    1.22    0.76
   6   5 -10    4.74    0.93
   6   5 -10    3.99    0.79
  -6   5  10    4.49    0.87
   6  -5 -10    4.89    0.70
  -6  -5  10    2.97    0.67
   6   5  -9    2.13    0.75
   6   5  -9    1.27    0.63
  -6   5   9    1.81    0.59
   6  -5  -9    1.64    0.66
  -6  -5   9    1.15    0.52
   6   5  -8    5.91    0.76
   6   5  -8    7.13    1.01
  -6   5   8    7.61    1.05
   6  -5  -8    8.07    0.97
   6  -5  -8    6.36    0.88
   6   5  -7    3.89    0.51
  -6   5   7    4.01    0.58
   6   5  -7    2.88    0.59
   6  -5  -7    4.90    0.70
  -6  -5   7    3.98    0.63
   6  -5  -7    3.11    0.56
   6   5  -6    4.60    0.74
  -6   5   6    4.70    0.68
   6   5  -6    5.63    0.64
   6  -5  -6    3.92    0.65
  -6  -5   6    4.89    0.71
   6  -5  -6    5.43    0.69
  -6  -5   6    4.54    0.63
   6   5  -5    4.75    0.84
  -6   5   5    5.16    0.76
   6   5  -5    4.29    0.57
   6  -5  -5    5.98    0.57
   6  -5  -5    4.38    0.64
  -6  -5   5    4.11    0.56
  -6  -5   5    5.65    0.61
   6   5  -4    0.79    0.34
   6   5  -4    0.47    0.30
  -6   5   4    0.80    0.30
  -6  -5   4    0.65    0.35
  -6  -5   4    0.76    0.30
   6  -5  -4    0.25    0.39
   6  -5  -4    0.16    0.29
   6  -5  -4    1.01    0.35
  -6   5   3    1.28    0.31
   6   5  -3    1.27    0.29
   6   5  -3    0.80    0.32
   6  -5  -3    1.09    0.38
  -6  -5   3    1.11    0.34
   6  -5  -3    0.75    0.26
  -6  -5   3    0.98    0.29
   6  -5  -3    1.65    0.36
  -6   5   2    0.91    0.29
   6   5  -2    0.90    0.30
   6   5  -2    0.91    0.27
   6  -5  -2    0.80    0.29
   6  -5  -2    1.03    0.32
  -6  -5   2    0.83    0.28
   6  -5  -2    1.31    0.34
  -6  -5   2    1.25    0.33
   6   5  -1    4.30    0.46
  -6   5   1    4.16    0.50
   6   5  -1    4.29    0.53
   6  -5  -1    3.65    0.51
  -6  -5   1    4.89    0.51
  -6  -5   1    4.38    0.54
   6  -5  -1    4.47    0.52
   6  -5  -1    4.51    0.51
   6   5   0    2.80    0.43
  -6   5   0    2.29    0.38
   6   5   0    2.45    0.38
   6  -5   0    2.35    0.51
  -6  -5   0    1.77    0.37
   6  -5   0    3.21    0.53
  -6  -5   0    2.90    0.46
   6  -5   0    3.18    0.46
   6   5   1    3.36    0.52
   6   5   1    4.19    0.49
  -6   5  -1    3.76    0.53
  -6  -5  -1    4.50    0.51
   6  -5   1    3.65    0.51
   6  -5   1    4.02    0.50
  -6  -5  -1    4.29    0.67
   6  -5   1    3.53    0.53
   6   5   2    7.46    0.58
   6   5   2    7.45    0.68
  -6   5  -2    6.52    0.60
  -6  -5  -2    7.46    0.61
   6  -5   2    8.63    0.70
   6  -5   2    7.63    0.62
   6   5   3    0.66    0.34
  -6   5  -3    0.44    0.34
   6   5   3    0.87    0.41
  -6  -5  -3    1.23    0.36
   6  -5   3    1.55    0.38
   6  -5   3    0.35    0.32
   6   5   4    2.37    0.41
  -6   5  -4    2.72    0.48
   6  -5   4    3.24    0.48
  -6  -5  -4    2.59    0.47
   6  -5   4    2.79    0.46
  -6   5  -5    3.37    0.59
   6   5   5    3.47    0.48
   6  -5   5    3.85    0.57
   6  -5   5    5.21    0.71
  -6  -5  -5    5.34    0.77
  -6   5  -6   19.75    1.20
   6   5   6   19.84    1.03
   6  -5   6   18.04    1.12
   6  -5   6   19.15    1.27
  -6   5  -7   27.54    1.41
   6   5   7   25.15    1.27
   6  -5   7   25.10    1.31
  -6   5  -8    0.32    0.64
   6   5   8    2.08    0.82
   6  -5   8   -0.49    0.60
  -6   5  -9   16.88    1.55
   6  -5   9   12.61    1.36
   6   6 -10    1.50    0.87
  -6   6  10    0.44    0.75
   6   6 -10    2.43    0.94
  -6  -6  10    2.34    0.73
   6  -6 -10    0.52    0.73
   6   6  -9    9.29    1.22
  -6   6   9    6.90    0.81
   6   6  -9    6.94    0.95
  -6  -6   9    8.78    1.23
   6  -6  -9    9.07    1.01
   6   6  -8    9.87    1.17
   6   6  -8   10.42    1.18
  -6   6   8    8.13    1.03
  -6  -6   8   10.86    1.07
   6  -6  -8    8.14    0.94
   6   6  -7    0.71    0.56
  -6   6   7    0.43    0.54
   6   6  -7    0.09    0.60
   6  -6  -7    0.07    0.63
  -6  -6   7    1.21    0.58
  -6  -6   7    0.99    0.53
   6  -6  -7   -0.04    0.47
   6   6  -6    9.85    1.09
   6  -6  -6    9.44    1.05
  -6  -6   6    7.94    1.26
   6  -6  -6    8.36    1.06
  -6  -6   6    8.34    1.22
   6   6  -5   12.16    1.02
  -6   6   5   11.69    0.91
   6   6  -5   11.05    0.87
  -6  -6   5   13.59    0.97
   6  -6  -5   11.41    0.83
   6  -6  -5   13.44    1.00
  -6  -6   5   13.22    1.00
   6   6  -4   16.09    1.03
   6   6  -4   16.00    0.93
  -6   6   4   17.33    0.72
  -6   6   4   15.69    0.97
  -6  -6   4   15.89    1.04
   6  -6  -4   17.66    1.34
   6  -6  -4   16.52    0.93
   6  -6  -4   14.80    1.19
  -6  -6   4   17.69    0.95
   6   6  -3   26.43    1.13
   6   6  -3   25.64    1.22
  -6   6   3   27.55    1.14
  -6  -6   3   26.83    1.23
   6  -6  -3   29.59    1.08
   6  -6  -3   26.33    1.04
   6  -6  -3   27.70    1.27
  -6  -6   3   25.46    1.15
  -6   6   2   -0.25    0.34
   6   6  -2   -0.29    0.32
   6   6  -2   -0.07    0.36
   6  -6  -2   -0.05    0.32
   6  -6  -2    0.61    0.32
  -6  -6   2   -0.40    0.35
   6  -6  -2    0.20    0.39
  -6  -6   2    0.03    0.37
  -6   6   1    6.54    0.69
   6   6  -1    4.99    0.63
   6   6  -1    5.95    0.69
   6  -6  -1    6.51    0.63
  -6  -6   1    6.14    0.64
   6  -6  -1    6.27    0.56
   6  -6  -1    5.49    0.75
  -6  -6   1    6.11    0.70
   6   6   0   11.22    0.75
  -6   6   0   10.24    0.75
   6   6   0    7.27    0.72
  -6  -6   0    8.43    0.69
  -6  -6   0    9.39    0.77
   6  -6   0    8.64    0.71
   6  -6   0    7.85    0.91
   6  -6   0    9.54    0.60
   6   6   1    0.98    0.36
  -6   6  -1    0.31    0.37
   6   6   1    0.02    0.36
  -6  -6  -1    0.67    0.40
   6  -6   1    0.36    0.34
   6  -6   1    0.51    0.37
   6  -6   1   -0.31    0.41
  -6  -6  -1    0.65    0.60
  -6   6  -2    0.02    0.40
   6   6   2    0.05    0.36
   6   6   2    0.02    0.39
  -6  -6  -2   -0.34    0.39
   6  -6   2   -0.05    0.38
  -6  -6  -2    0.31    0.42
   6   6   3    1.44    0.42
  -6   6  -3    1.53    0.48
   6   6   3    0.60    0.41
   6  -6   3    0.25    0.44
  -6  -6  -3   -0.02    0.45
   6  -6   3    0.94    0.51
   6   6   4   13.25    0.94
  -6   6  -4   11.06    1.63
   6  -6   4   14.08    1.06
  -6  -6  -4   12.81    1.09
   6  -6   4   11.92    1.00
  -6   6  -5   11.03    1.06
   6   6   5   10.87    0.93
  -6  -6  -5    9.85    1.10
   6  -6   5   10.02    0.98
  -6   6  -6    8.88    1.04
   6   6   6   10.27    0.91
   6  -6   6    8.72    0.98
   6  -6   6    9.23    1.15
  -6   6  -7    2.19    0.65
   6   6   7    1.05    0.60
   6  -6   7    2.87    0.74
  -6   6  -8   -2.55    1.23
  -6   7   9    1.80    0.91
   6   7  -9    1.82    1.00
   6   7  -9    1.03    0.98
   6  -7  -9    1.22    0.83
  -6  -7   9   -0.08    1.01
   6   7  -8   -0.01    1.00
   6   7  -8    1.85    0.79
  -6   7   8    1.31    0.75
   6  -7  -8    1.31    0.71
  -6  -7   8    0.39    0.71
  -6   7   7    0.51    0.60
   6   7  -7    0.10    0.68
   6   7  -7    0.54    0.72
   6  -7  -7    0.46    0.90
   6  -7  -7    0.90    0.61
  -6  -7   7   -0.84    0.61
   6   7  -6    9.52    1.09
   6   7  -6   11.64    1.08
  -6   7   6   12.50    1.09
  -6  -7   6    7.61    1.05
   6  -7  -6    9.90    1.39
   6  -7  -6   11.96    1.02
  -6   7   5   63.02    2.02
   6   7  -5   61.32    2.24
   6   7  -5   64.20    2.06
  -6  -7   5   63.01    2.06
  -6  -7   5   62.46    2.13
   6  -7  -5   63.19    2.32
   6  -7  -5   63.47    2.00
  -6   7   4   10.82    1.01
   6   7  -4   11.60    1.01
   6   7  -4   13.00    1.13
  -6  -7   4   12.26    0.99
  -6  -7   4   12.27    1.11
   6  -7  -4   11.47    1.78
   6   7  -3   10.56    0.97
   6   7  -3   11.09    1.01
  -6   7   3   11.15    0.74
  -6  -7   3    9.66    0.99
  -6  -7   3    9.92    0.99
   6  -7  -3    9.67    0.95
   6  -7  -3   10.80    0.88
   6   7  -2    1.76    0.57
  -6   7   2    1.32    0.65
   6  -7  -2    1.03    0.48
  -6  -7   2    1.69    0.72
   6  -7  -2    1.16    0.45
   6   7  -1    0.32    0.73
   6   7  -1   -0.69    0.54
  -6   7   1    0.05    0.72
   6  -7  -1    0.88    0.62
   6  -7  -1    0.47    0.43
   6  -7  -1   -0.21    0.93
   6   7   0    9.06    0.91
   6   7   0   10.87    0.99
   6  -7   0   10.53    1.14
   6  -7   0    9.55    0.93
   6  -7   0    9.84    1.15
   6   7   1   10.27    0.89
   6   7   1   10.00    0.97
  -6  -7  -1   10.04    1.07
  -6  -7  -1    9.71    1.37
   6  -7   1    9.23    1.03
  -6   7  -2    4.53    0.68
   6   7   2    3.74    0.60
   6   7   2    5.62    0.77
  -6  -7  -2    4.75    0.76
  -6  -7  -2    5.28    0.74
   6  -7   2    3.73    0.65
   6  -7   2    4.70    0.71
   6   7   3    0.02    0.50
  -6   7  -3   -0.45    0.52
   6  -7   3    0.08    0.59
  -6  -7  -3    0.43    0.58
   6  -7   3    0.46    0.50
   6   7   4    1.19    0.53
  -6   7  -4    1.27    0.60
  -6  -7  -4    0.45    0.67
   6  -7   4   -0.30    0.53
   6  -7   4   -0.32    0.63
   6   7   5    2.57    0.60
  -6   7  -5    3.99    0.73
  -6  -7  -5    4.15    1.11
   6  -7   5    3.60    0.63
   6  -7   5    2.29    0.74
  -6   7  -6    0.44    0.74
   6   7   6   -0.96    0.62
  -6  -7  -6    1.95    0.96
   6  -7   6   -0.57    0.78
   6  -7   6    1.54    0.75
  -6   7  -7   -0.67    1.17
   6  -7   7    1.67    0.94
  -6   8   7   -0.15    0.84
   6   8  -7    1.08    1.25
   6   8  -7    1.09    0.90
  -6  -8   7   -0.41    0.90
   6  -8  -7   -0.02    0.84
   6   8  -6    0.00    0.77
   6   8  -6    1.01    0.71
  -6   8   6    0.85    0.75
  -6  -8   6   -0.19    0.77
   6  -8  -6    0.58    0.93
   6  -8  -6    0.18    0.69
  -6  -8   6    0.73    0.73
   6   8  -5    3.11    0.70
  -6   8   5    5.07    0.80
   6   8  -5    6.28    0.90
   6  -8  -5    7.68    1.37
   6  -8  -5    4.26    0.70
  -6  -8   5    4.60    0.76
  -6  -8   5    4.72    0.81
  -6   8   4   28.31    1.48
   6   8  -4   29.48    1.61
   6   8  -4   30.72    1.51
   6  -8  -4   32.23    1.64
  -6  -8   4   29.20    1.60
   6  -8  -4   28.95    1.44
  -6  -8   4   28.74    1.52
  -6   8   3    2.56    0.90
   6   8  -3   -0.38    0.64
   6   8  -3    0.28    0.57
  -6   8   3   -0.37    0.60
   6  -8  -3    1.03    0.67
  -6  -8   3   -0.80    0.59
  -6  -8   3    0.82    0.65
   6  -8  -3    0.74    0.59
   6   8  -2   -1.32    0.64
  -6   8   2    1.13    0.63
  -6   8   2    0.33    0.50
   6   8  -2   -0.10    0.52
   6  -8  -2   -0.24    0.57
   6  -8  -2    0.37    0.61
   6  -8  -2    0.72    0.70
  -6  -8   2    0.11    0.66
  -6  -8   2    0.18    0.60
  -6   8   1   -0.09    0.59
   6   8  -1   -0.68    0.75
   6   8  -1    0.23    0.54
  -6  -8   1    0.11    0.58
   6  -8  -1    0.01    0.61
   6  -8  -1    1.44    0.60
   6  -8  -1    0.30    0.62
  -6  -8   1    0.50    0.65
  -6   8   0    4.03    0.71
   6   8   0    3.64    0.66
   6   8   0    5.10    0.75
  -6  -8   0    4.63    0.73
   6  -8   0    3.98    0.72
  -6  -8   0    4.81    0.82
   6  -8   0    5.50    0.92
   6   8   1    6.41    0.90
  -6   8  -1    7.33    0.87
   6   8   1    6.24    0.82
  -6  -8  -1    9.02    1.33
  -6  -8  -1    7.29    1.08
   6  -8   1    6.92    1.14
   6  -8   1    6.59    0.80
  -6   8  -2    0.39    0.66
   6   8   2    1.01    0.71
   6   8   2   -0.56    0.55
  -6  -8  -2    1.48    0.96
  -6  -8  -2    0.66    0.98
   6  -8   2   -0.27    0.67
   6  -8   2   -0.60    0.60
  -6   8  -3    1.30    0.72
   6   8   3    0.40    0.59
  -6  -8  -3    0.84    0.71
   6  -8   3    2.17    0.74
   6  -8   3    2.03    0.65
   6   8   4    0.82    0.65
  -6   8  -4   -0.96    0.77
  -6  -8  -4    1.04    0.86
   6  -8   4    0.25    0.78
   6  -8   4   -1.04    0.67
   6   8   5   16.60    1.39
  -6   8  -5   23.20    1.75
  -6  -8  -5   20.45    2.00
   6  -8   5   19.11    1.80
   6  -8   5   20.34    2.10
  -6   9   3   -0.06    0.88
   6   9  -3    0.58    0.80
  -6  -9   3    0.61    0.95
   6  -9  -3    2.59    0.77
  -6  -9   3    0.21    0.84
   6  -9  -3   -0.55    0.96
  -6   9   2   -0.56    0.86
  -6   9   2    1.68    1.03
   6   9  -2    0.55    0.87
   6   9  -2    0.74    0.77
   6  -9  -2    0.38    0.73
   6  -9  -2    0.05    1.54
  -6  -9   2   -0.30    0.81
  -6  -9   2   -0.10    1.07
   6  -9  -2   -1.03    1.34
   6   9  -1   -0.23    0.83
  -6   9   1    0.43    0.67
  -6   9   1   -0.93    0.84
   6  -9  -1    0.09    0.89
  -6  -9   1    1.47    0.96
   6  -9  -1   -0.82    0.85
  -6   9   0    0.18    0.68
   6   9   0    0.60    0.86
  -6   9   0    1.68    0.91
   6   9   0    0.16    0.73
  -6  -9   0    0.06    0.97
   6  -9   0   -0.71    0.91
   6  -9   0    0.12    0.83
  -6  -9   0    1.05    0.84
   6   9   1    0.98    0.91
  -6   9  -1   -0.39    0.76
   6   9   1    1.28    0.81
  -6   9  -1   -0.24    0.89
  -6  -9  -1   -0.81    1.08
  -6  -9  -1   -0.33    1.59
   6  -9   1    1.48    1.20
   6  -9   1    0.59    0.86
  -7   0  13    1.14    0.72
   7   0 -13   -1.06    0.73
  -7   0  12   10.34    1.04
   7   0 -12    9.12    1.14
   7   0 -11    0.32    0.56
   7   0 -10    1.04    0.63
  -7   0  10    0.94    0.43
   7   0 -10    1.27    0.48
   7   0  -9    0.17    0.33
  -7   0   9    0.24    0.33
   7   0  -9    0.33    0.38
   7   0  -8   93.50    2.27
  -7   0   8   97.16    2.21
   7   0  -8   93.47    2.29
   7   0  -7    0.13    0.25
   7   0  -7    0.14    0.32
  -7   0   7    0.31    0.25
  -7   0   6    6.03    0.53
   7   0  -6    5.47    0.53
   7   0  -6    5.17    0.46
  -7   0   5    0.08    0.22
   7   0  -5   -0.30    0.22
   7   0  -5   -0.04    0.18
   7   0  -5   -0.15    0.27
   7   0  -4   34.59    1.12
   7   0  -4   33.73    1.28
   7   0  -4   35.18    0.88
  -7   0   4   32.51    0.91
   7   0  -3    0.26    0.18
  -7   0   3   -0.16    0.16
   7   0  -3    0.21    0.25
   7   0  -3   -0.14    0.15
   7   0  -2   38.17    1.00
   7   0  -2   38.62    1.15
   7   0  -2   36.31    0.96
   7   0  -1   -0.01    0.21
   7   0  -1    0.19    0.17
  -7   0   0    0.54    0.17
   7   0   0    0.39    0.15
   7   0   0    0.59    0.21
   7   0   0    0.68    0.23
   7   0   1    0.02    0.22
   7   0   1    0.28    0.14
  -7   0  -1   -0.18    0.17
   7   0   1   -0.23    0.21
  -7   0  -2   44.24    1.17
   7   0   2   46.54    0.90
   7   0   2   45.04    1.29
   7   0   2   44.76    1.22
   7   0   3   -0.33    0.19
  -7   0  -3    0.21    0.26
   7   0   4    9.77    0.63
   7   0   4   11.03    0.56
   7   0   4    9.55    0.57
  -7   0  -4   10.36    0.58
  -7   0  -5    0.67    0.27
   7   0   5    0.28    0.31
   7   0   5    0.22    0.25
   7   0   6    0.64    0.30
   7   0   6    1.10    0.39
   7   0   7    0.90    0.37
  -7   0  -7    0.01    0.39
   7   0   7   -0.02    0.45
   7   0   8   -0.04    0.71
   7   0   8   -0.35    0.44
   7   0   9   -0.49    0.67
   7   0   9   -0.05    0.54
  -7   0  -9   -0.47    0.53
   7   0  10    1.33    0.81
   7   0  10    0.98    0.65
  -7   0 -10    3.11    0.70
  -7   1  13   19.93    1.39
   7   1 -13   17.72    1.51
  -7  -1  13   18.31    1.41
   7  -1 -13   20.35    1.75
   7   1 -12   26.06    1.46
  -7   1  12   29.01    1.41
  -7  -1  12   25.44    1.27
   7  -1 -12   28.07    1.46
  -7   1  11   -0.38    0.54
   7   1 -11   -0.52    0.52
   7  -1 -11   -0.84    0.52
  -7  -1  11    0.60    0.54
   7   1 -10    1.15    0.47
  -7   1  10    0.49    0.48
   7   1 -10    0.27    0.50
   7  -1 -10    0.09    0.46
  -7  -1  10    1.01    0.60
   7   1  -9    2.53    0.56
  -7   1   9    2.60    0.42
   7   1  -9    2.17    0.45
   7  -1  -9    1.62    0.41
   7  -1  -9    2.41    0.54
   7   1  -8    1.32    0.35
   7   1  -8    1.01    0.32
  -7   1   8    0.63    0.30
   7  -1  -8    0.66    0.39
  -7  -1   8    0.24    0.31
   7  -1  -8    1.10    0.31
   7   1  -7    6.64    0.53
  -7   1   7    7.28    0.51
   7   1  -7    6.99    0.64
   7  -1  -7    6.56    0.61
   7  -1  -7    7.12    0.52
  -7   1   6    0.14    0.24
   7   1  -6    0.33    0.22
   7   1  -6    0.17    0.22
   7   1  -6   -0.31    0.25
   7  -1  -6    0.25    0.26
   7  -1  -6    0.14    0.28
  -7  -1   6   -0.13    0.23
   7   1  -5   -0.18    0.27
   7   1  -5    0.16    0.30
   7   1  -5   -0.01    0.21
  -7   1   5   -0.22    0.26
   7  -1  -5    0.01    0.19
   7  -1  -5    0.12    0.28
   7  -1  -5   -0.04    0.22
  -7  -1   5    0.20    0.22
  -7  -1   5   -0.43    0.19
   7   1  -4   10.18    0.67
   7   1  -4    9.68    0.74
  -7   1   4   11.78    0.57
   7   1  -4   11.95    0.51
  -7  -1   4   10.97    0.45
   7  -1  -4   10.95    0.47
  -7  -1   4   10.46    0.69
   7  -1  -4   11.67    0.59
   7   1  -3   15.55    0.64
   7   1  -3   15.32    0.76
   7   1  -3   16.60    0.60
  -7   1   3   15.42    0.61
  -7  -1   3   15.72    0.51
   7  -1  -3   15.59    0.68
   7  -1  -3   15.25    0.75
   7  -1  -3   15.04    0.60
  -7  -1   3   15.29    0.65
   7   1  -2    0.41    0.19
   7   1  -2    0.66    0.37
   7   1  -2    0.49    0.19
  -7   1   2    0.59    0.19
  -7  -1   2    0.30    0.19
   7  -1  -2    0.76    0.19
   7  -1  -2    0.33    0.17
   7  -1  -2    0.65    0.26
  -7   1   1    0.27    0.19
   7   1  -1    0.39    0.22
   7   1  -1    0.00    0.16
   7   1  -1    0.24    0.19
  -7  -1   1    0.44    0.24
   7  -1  -1    0.37    0.19
   7  -1  -1    0.25    0.16
   7  -1  -1    0.43    0.24
  -7   1   0    4.70    0.38
   7   1   0    4.49    0.43
   7   1   0    5.04    0.44
  -7  -1   0    4.30    0.30
   7  -1   0    4.50    0.33
   7  -1   0    4.63    0.45
   7  -1   0    5.17    0.43
  -7   1  -1   25.99    0.84
   7   1   1   27.23    0.89
  -7  -1  -1   25.47    0.73
   7  -1   1   24.22    1.04
   7  -1   1   26.25    0.91
   7  -1   1   26.17    0.80
  -7  -1  -1   25.98    0.72
   7   1   2  199.46    3.92
  -7   1  -2  198.75    3.87
   7   1   2  202.26    3.83
   7  -1   2  200.16    3.89
  -7  -1  -2  198.82    3.55
   7  -1   2  200.85    3.97
  -7  -1  -2  200.41    3.69
  -7   1  -3    2.69    0.42
   7   1   3    2.50    0.35
   7   1   3    2.19    0.39
   7   1   3    2.43    0.36
   7  -1   3    2.61    0.45
   7  -1   3    2.49    0.34
  -7  -1  -3    2.81    0.39
   7   1   4    5.43    0.46
   7   1   4    5.05    0.44
  -7   1  -4    5.64    0.47
   7  -1   4    5.71    0.51
   7  -1   4    6.30    0.49
  -7  -1  -4    5.32    0.61
   7   1   5    7.77    0.57
  -7   1  -5    9.38    0.59
   7   1   5    7.84    0.65
   7  -1   5    8.22    0.64
   7  -1   5    8.25    0.58
  -7  -1  -5    8.38    0.55
   7  -1   5    8.35    0.59
  -7   1  -6    0.55    0.34
   7   1   6    1.35    0.32
   7   1   6    1.16    0.37
  -7  -1  -6    1.19    0.35
   7  -1   6    0.52    0.33
   7  -1   6    0.72    0.39
   7   1   7   30.04    1.17
  -7   1  -7   28.34    1.22
   7   1   7   31.14    1.30
   7  -1   7   28.26    1.29
   7  -1   7   28.54    1.26
  -7  -1  -7   30.25    1.14
   7   1   8    3.41    0.79
   7   1   8    2.91    0.54
  -7   1  -8    2.77    0.61
   7  -1   8    1.90    0.67
  -7  -1  -8    2.84    0.58
   7  -1   8    2.85    0.71
   7   1   9    1.93    0.74
  -7   1  -9    0.55    0.55
   7   1   9    0.88    0.59
  -7  -1  -9    0.05    0.59
   7  -1   9    0.45    0.58
   7  -1   9   -0.65    0.65
  -7   1 -10    1.27    0.66
   7   1  10    1.90    0.84
   7  -1  10    0.63    0.86
   7  -1  10   -0.32    0.65
  -7  -1 -10   -1.02    0.66
  -7   2  13    8.13    1.01
   7  -2 -13    6.40    0.97
  -7   2  12    4.77    0.74
   7   2 -12    3.31    0.75
  -7  -2  12    3.27    1.08
   7  -2 -12    2.08    0.98
  -7   2  11    0.51    0.55
   7   2 -11   -0.43    0.54
  -7  -2  11    0.13    0.54
   7  -2 -11   -0.47    0.54
  -7   2  10   -0.17    0.62
   7   2 -10    0.44    0.60
  -7  -2  10    0.68    0.43
  -7   2   9    1.11    0.43
   7   2  -9    0.48    0.40
   7   2  -9    1.25    0.60
  -7  -2   9    1.11    0.35
   7  -2  -9    0.98    0.50
   7  -2  -9    0.66    0.49
   7   2  -8    7.90    0.72
   7   2  -8    8.56    0.72
  -7   2   8    8.00    0.63
  -7  -2   8    8.76    0.57
   7  -2  -8    8.08    0.64
   7  -2  -8    7.41    0.70
   7   2  -7    0.28    0.29
   7   2  -7    0.57    0.32
   7   2  -7    0.83    0.31
  -7   2   7    0.52    0.28
  -7  -2   7    0.18    0.28
  -7  -2   7   -0.02    0.30
   7  -2  -7    0.06    0.31
   7  -2  -7    0.67    0.28
  -7   2   6    0.23    0.25
   7   2  -6    0.28    0.26
   7   2  -6    0.68    0.25
   7   2  -6    0.18    0.26
  -7  -2   6    0.14    0.23
   7  -2  -6    0.45    0.30
   7  -2  -6    0.35    0.25
  -7  -2   6    0.16    0.24
   7   2  -5    6.27    0.54
   7   2  -5    6.33    0.48
  -7   2   5    7.07    0.51
   7   2  -5    6.31    0.55
   7  -2  -5    6.21    0.43
  -7  -2   5    6.01    0.52
   7  -2  -5    6.47    0.48
  -7  -2   5    5.83    0.38
   7  -2  -5    6.61    0.55
   7   2  -4    2.35    0.39
   7   2  -4    2.61    0.40
   7   2  -4    2.09    0.34
  -7   2   4    2.21    0.43
   7  -2  -4    2.41    0.36
  -7  -2   4    1.97    0.28
  -7  -2   4    2.41    0.36
   7  -2  -4    1.80    0.37
   7   2  -3   74.31    1.87
   7   2  -3   74.22    1.70
  -7  -2   3   70.66    1.91
   7  -2  -3   75.68    1.88
   7  -2  -3   76.58    1.71
   7  -2  -3   75.24    1.61
   7   2  -2   75.92    1.74
   7  -2  -2   76.88    1.69
   7  -2  -2   71.20    2.12
   7  -2  -2   77.17    1.66
  -7  -2   2   75.16    1.46
  -7  -2   2   75.34    1.72
   7   2  -1    1.43    0.29
   7   2  -1    1.32    0.32
  -7  -2   1    1.95    0.22
   7  -2  -1    1.52    0.25
  -7  -2   1    1.79    0.27
   7  -2  -1    1.44    0.27
   7   2   0   -0.16    0.23
   7   2   0   -0.11    0.21
   7  -2   0    0.12    0.22
   7  -2   0    0.17    0.16
  -7  -2   0    0.15    0.20
   7   2   1   65.30    1.61
  -7   2  -1   66.68    1.88
   7   2   1   65.11    1.64
  -7  -2  -1   65.95    1.33
  -7  -2  -1   64.63    1.46
   7  -2   1   64.76    1.65
   7  -2   1   66.93    1.29
   7   2   2    6.10    0.49
   7   2   2    5.56    0.48
  -7   2  -2    5.76    0.46
  -7  -2  -2    5.80    0.45
  -7  -2  -2    6.19    0.36
   7  -2   2    6.26    0.50
   7   2   3    6.06    0.48
   7   2   3    5.49    0.51
  -7   2  -3    5.35    0.49
   7   2   3    5.45    0.48
   7  -2   3    5.09    0.46
  -7  -2  -3    7.34    0.64
  -7  -2  -3    5.92    0.42
   7   2   4    0.06    0.23
   7   2   4    0.02    0.36
   7   2   4    0.07    0.26
  -7   2  -4    0.25    0.26
  -7  -2  -4    0.05    0.27
   7  -2   4    0.42    0.25
   7   2   5    0.85    0.38
   7   2   5    1.56    0.31
  -7   2  -5    1.02    0.29
  -7  -2  -5    0.05    0.31
   7  -2   5    0.94    0.30
   7   2   6   21.52    0.95
  -7   2  -6   22.13    1.06
   7   2   6   22.71    1.06
  -7  -2  -6   25.44    0.90
   7  -2   6   22.80    1.15
  -7   2  -7   -0.58    0.45
   7   2   7   -0.40    0.38
   7   2   7    0.50    0.50
  -7  -2  -7    0.93    0.39
   7  -2   7   -0.33    0.41
   7   2   8    3.42    0.75
  -7   2  -8    2.45    0.60
   7   2   8    2.69    0.65
   7  -2   8    4.44    0.72
   7  -2   8    2.86    0.58
   7   2   9   -0.01    0.56
   7   2   9    0.87    0.79
  -7  -2  -9    1.58    0.61
   7  -2   9    3.00    1.07
   7   2  10    1.11    1.05
   7  -2  10    1.54    0.67
  -7  -2 -10    0.04    0.73
   7  -2  10    1.25    0.84
  -7   3  12    8.94    1.19
   7  -3 -12    7.95    1.21
   7   3 -11    1.25    0.62
  -7   3  11    1.65    0.62
   7  -3 -11    1.77    0.60
   7   3 -10    0.92    0.57
   7   3 -10    1.09    0.65
  -7   3  10    0.04    0.49
   7  -3 -10    0.32    0.78
  -7   3   9   49.65    2.05
   7   3  -9   50.66    1.99
   7   3  -9   53.59    1.78
   7  -3  -9   52.71    1.91
   7  -3  -9   58.24    2.45
   7   3  -8   46.80    1.58
  -7   3   8   45.65    1.51
   7   3  -8   47.91    1.58
  -7  -3   8   49.09    1.55
   7  -3  -8   48.87    1.56
   7  -3  -8   47.37    1.80
   7   3  -7   19.11    0.93
   7   3  -7   16.82    0.86
  -7   3   7   17.34    0.83
   7  -3  -7   17.13    0.84
  -7  -3   7   18.27    0.85
   7  -3  -7   18.54    0.89
   7   3  -6    0.32    0.29
   7   3  -6    0.45    0.30
   7   3  -6   -0.67    0.54
  -7   3   6    0.43    0.37
  -7  -3   6   -0.06    0.28
   7  -3  -6    0.26    0.29
   7  -3  -6    0.14    0.34
   7   3  -5    1.98    0.44
  -7   3   5    1.73    0.31
   7   3  -5    2.61    0.45
  -7  -3   5    1.49    0.30
   7  -3  -5    1.91    0.29
   7  -3  -5    1.81    0.37
   7   3  -4    1.30    0.45
   7   3  -4    1.10    0.32
  -7   3   4    0.93    0.28
   7  -3  -4    0.87    0.30
   7  -3  -4    1.04    0.27
  -7  -3   4    0.61    0.28
   7  -3  -4    1.19    0.27
   7   3  -3   19.38    0.80
  -7   3   3   19.57    0.80
   7   3  -3   17.80    0.82
   7  -3  -3   18.76    0.87
  -7  -3   3   19.57    0.78
   7  -3  -3   18.46    0.71
  -7   3   2   88.99    2.05
   7   3  -2   87.40    2.12
   7   3  -2   88.77    2.04
   7  -3  -2   88.64    1.96
   7  -3  -2   86.13    2.33
   7  -3  -2   89.36    2.17
  -7  -3   2   89.52    2.27
   7   3  -1    0.96    0.24
   7   3  -1    0.84    0.32
  -7   3   1    0.68    0.24
   7  -3  -1    0.54    0.22
   7  -3  -1    0.73    0.28
   7  -3  -1    0.39    0.26
  -7   3   0    3.99    0.42
   7   3   0    3.83    0.50
   7   3   0    4.36    0.42
  -7  -3   0    3.96    0.51
   7  -3   0    3.89    0.47
   7  -3   0    4.01    0.50
   7   3   1    5.09    0.44
  -7   3  -1    4.87    0.48
   7  -3   1    5.37    0.54
   7  -3   1    5.57    0.51
  -7  -3  -1    5.79    0.52
   7  -3   1    5.30    0.38
   7   3   2    0.25    0.24
   7   3   2    0.26    0.31
  -7   3  -2    0.35    0.24
  -7  -3  -2    0.31    0.28
   7  -3   2    0.55    0.29
   7  -3   2    0.57    0.30
  -7   3  -3    4.57    0.45
   7   3   3    4.46    0.52
   7   3   3    3.37    0.45
   7  -3   3    2.89    0.43
   7  -3   3    3.90    0.48
  -7  -3  -3    2.72    0.68
  -7  -3  -3    4.42    0.55
   7   3   4    0.37    0.45
  -7   3  -4    0.49    0.30
   7   3   4    0.56    0.31
  -7  -3  -4    0.35    0.28
  -7  -3  -4    0.97    0.41
   7  -3   4    0.47    0.27
   7  -3   4    0.34    0.40
  -7   3  -5    2.62    0.46
   7   3   5    3.38    0.59
   7   3   5    3.71    0.57
   7  -3   5    2.75    0.43
   7  -3   5    2.94    0.45
  -7  -3  -5    3.22    0.52
   7   3   6    5.78    0.91
  -7   3  -6    4.78    0.61
   7   3   6    3.94    0.62
   7  -3   6    5.88    0.70
   7   3   7    0.03    0.43
  -7   3  -7    1.25    0.49
   7   3   7   -0.81    0.77
   7  -3   7    0.16    0.51
   7   3   8   -0.01    0.73
  -7   3  -8    0.43    0.55
   7  -3   8   -0.68    0.52
   7   3   9    0.65    0.93
  -7   3  -9   -0.68    0.64
   7  -3   9   -0.44    0.61
  -7   3 -10    2.41    0.93
   7  -3  10    0.81    0.75
   7   4 -12    4.66    1.02
  -7   4  12    6.66    1.01
   7  -4 -12    4.10    1.00
  -7   4  11    1.73    0.70
   7   4 -11    1.13    0.73
   7  -4 -11    0.80    0.63
  -7   4  10    7.78    1.02
   7   4 -10    6.83    1.00
   7   4 -10    6.13    0.81
   7  -4 -10    7.67    0.94
   7   4  -9   23.86    1.32
   7   4  -9   23.09    1.44
  -7   4   9   23.81    1.25
   7  -4  -9   22.75    1.19
  -7  -4   9   23.45    1.23
   7   4  -8    0.05    0.47
   7   4  -8   -0.35    0.48
  -7   4   8   -0.92    0.43
   7  -4  -8   -0.27    0.43
   7  -4  -8    0.20    0.48
  -7  -4   8    0.76    0.44
   7   4  -7    6.86    0.77
  -7   4   7    5.93    0.78
   7   4  -7    6.17    0.72
   7   4  -7    7.16    0.68
   7  -4  -7    6.31    0.74
   7  -4  -7    5.59    0.66
  -7  -4   7    5.32    0.66
   7   4  -6    2.94    0.44
  -7   4   6    2.18    0.39
   7   4  -6    2.13    0.49
   7  -4  -6    3.88    0.60
  -7  -4   6    3.77    0.58
   7  -4  -6    2.65    0.41
   7   4  -5    7.18    0.65
   7   4  -5    7.20    0.57
  -7   4   5    7.41    0.59
   7  -4  -5    8.45    0.64
  -7  -4   5    8.26    0.59
   7  -4  -5    7.46    0.57
  -7   4   4   23.00    0.92
   7   4  -4   23.80    1.01
   7   4  -4   23.06    0.93
   7  -4  -4   22.82    0.88
   7  -4  -4   23.46    0.88
  -7  -4   4   23.56    0.92
   7  -4  -4   24.44    1.00
  -7   4   3    4.03    0.44
   7   4  -3    3.66    0.46
   7   4  -3    3.30    0.44
   7  -4  -3    2.87    0.41
   7  -4  -3    3.13    0.44
   7  -4  -3    2.49    0.40
  -7  -4   3    2.63    0.43
   7   4  -2   19.67    0.87
  -7   4   2   19.84    0.84
   7   4  -2   20.22    0.83
   7  -4  -2   20.65    0.88
  -7  -4   2   19.32    0.81
   7  -4  -2   19.02    0.89
   7  -4  -2   19.64    0.81
  -7   4   1    2.84    0.41
   7   4  -1    3.52    0.43
   7   4  -1    2.85    0.47
   7  -4  -1    3.06    0.49
   7  -4  -1    2.56    0.34
   7  -4  -1    3.20    0.47
  -7  -4   1    2.57    0.39
  -7   4   0   20.48    0.84
   7   4   0   18.96    0.84
   7   4   0   19.48    0.82
  -7  -4   0   20.04    0.83
   7  -4   0   19.60    0.89
   7  -4   0   19.15    0.82
   7  -4   0   19.97    0.71
   7   4   1   24.46    0.95
  -7   4  -1   24.94    0.96
   7   4   1   24.86    0.95
   7  -4   1   25.67    0.90
  -7  -4  -1   24.74    0.94
   7  -4   1   24.46    0.95
   7  -4   1   26.21    1.17
  -7   4  -2    0.99    0.30
   7   4   2    0.57    0.31
   7   4   2   -0.04    0.24
   7  -4   2    0.30    0.32
   7  -4   2    0.74    0.27
  -7  -4  -2    0.50    0.32
   7   4   3    7.86    0.71
   7   4   3    8.97    0.61
  -7   4  -3    7.30    0.83
   7  -4   3    8.29    0.64
  -7  -4  -3    7.74    0.64
   7  -4   3    8.10    0.63
  -7   4  -4   -0.69    0.34
   7   4   4    0.50    0.30
   7  -4   4   -0.44    0.41
   7  -4   4    0.45    0.33
  -7  -4  -4   -0.14    0.38
  -7   4  -5    0.06    0.42
   7   4   5    0.09    0.36
   7  -4   5   -0.10    0.40
   7  -4   5    0.00    0.42
   7   4   6    2.62    0.48
  -7   4  -6    2.01    0.56
   7  -4   6    2.86    0.54
   7  -4   6    1.65    0.53
  -7   4  -7    3.44    0.64
   7   4   7    3.36    0.59
   7  -4   7    5.28    0.67
   7   4   8   17.74    1.13
  -7   4  -8   15.96    1.30
   7  -4   8   18.21    1.19
  -7   4  -9   -1.12    0.79
   7  -4   9    0.97    0.69
  -7   5  11    2.14    0.83
   7   5 -11    2.23    0.92
   7  -5 -11    2.45    0.80
   7   5 -10   -0.04    0.76
   7   5 -10    0.37    0.81
  -7   5  10   -0.67    0.65
  -7  -5  10   -1.86    0.94
   7  -5 -10    0.09    0.73
   7   5  -9    0.80    0.69
   7   5  -9    0.01    0.60
  -7   5   9    0.33    0.55
   7  -5  -9   -0.44    0.52
  -7  -5   9   -0.59    0.54
   7   5  -8    0.67    0.59
   7   5  -8    0.35    0.60
   7   5  -8    0.36    0.60
  -7   5   8    0.40    0.53
   7  -5  -8    0.14    0.64
  -7  -5   8    0.43    0.81
   7  -5  -8    0.93    0.53
  -7   5   7    2.87    0.81
   7   5  -7    1.21    0.55
   7   5  -7    2.45    0.52
   7  -5  -7    1.79    0.55
  -7  -5   7    1.52    0.59
   7  -5  -7    2.05    0.58
   7   5  -6   -0.09    0.37
  -7   5   6    0.18    0.44
   7   5  -6   -0.06    0.44
  -7  -5   6   -0.37    0.37
   7  -5  -6   -0.38    0.38
   7  -5  -6   -0.28    0.43
   7   5  -5    9.35    0.68
  -7   5   5    7.87    0.71
   7   5  -5    6.99    0.79
  -7  -5   5    8.98    0.73
   7  -5  -5    7.48    0.64
   7  -5  -5    9.44    0.80
   7   5  -4   10.41    0.72
   7   5  -4   10.29    0.80
  -7   5   4    9.69    0.75
   7  -5  -4   11.49    0.81
   7  -5  -4   12.29    1.04
   7  -5  -4   11.09    0.88
  -7  -5   4   10.64    0.86
   7   5  -3    2.72    0.41
   7   5  -3    2.42    0.41
  -7   5   3    2.45    0.38
  -7  -5   3    2.64    0.41
   7  -5  -3    2.63    0.44
   7  -5  -3    3.54    0.50
   7  -5  -3    2.86    0.45
   7   5  -2   21.97    0.98
  -7   5   2   22.03    0.98
   7   5  -2   21.35    0.92
  -7  -5   2   21.87    0.93
   7  -5  -2   22.09    1.02
   7  -5  -2   22.29    0.85
   7  -5  -2   22.14    1.05
   7   5  -1    5.33    0.57
   7   5  -1    5.68    0.59
  -7   5   1    6.25    0.58
   7  -5  -1    5.69    0.59
   7  -5  -1    4.86    0.55
  -7  -5   1    6.37    0.59
   7  -5  -1    5.88    0.65
   7   5   0    5.92    0.57
   7   5   0    7.03    0.60
  -7   5   0    6.20    0.59
   7  -5   0    6.98    0.63
  -7  -5   0    6.67    0.60
   7  -5   0    6.43    0.60
   7   5   1    4.60    0.59
  -7   5  -1    5.01    0.61
   7   5   1    4.14    0.54
  -7  -5  -1    4.34    0.56
   7  -5   1    5.84    0.59
   7  -5   1    4.76    0.63
   7   5   2    0.97    0.36
   7   5   2    0.70    0.34
  -7   5  -2    0.90    0.38
   7  -5   2    1.02    0.34
   7  -5   2    1.05    0.40
  -7  -5  -2    0.81    0.35
   7   5   3   11.83    0.73
  -7   5  -3   11.65    0.95
   7  -5   3   11.25    0.84
   7  -5   3   12.09    0.87
   7   5   4    1.88    0.43
  -7   5  -4    1.34    0.80
   7  -5   4    1.61    0.58
  -7  -5  -4    0.75    0.46
   7  -5   4    1.08    0.49
  -7   5  -5   25.62    1.29
   7   5   5   24.14    1.65
   7  -5   5   27.66    1.29
   7  -5   5   25.76    1.24
  -7   5  -6   34.64    1.51
   7   5   6   35.99    1.46
   7  -5   6   34.36    1.52
   7  -5   6   35.83    1.51
   7   5   7    1.50    0.56
  -7   5  -7    0.07    0.63
   7  -5   7    1.43    0.60
  -7   5  -8   31.05    1.69
   7   5   8   28.60    1.39
   7  -5   8   30.20    1.53
   7   6 -10    2.57    0.96
  -7   6  10    1.87    0.85
   7   6 -10    3.05    1.27
  -7  -6  10    2.83    0.84
   7  -6 -10    2.69    0.87
   7   6  -9    3.94    1.36
  -7   6   9    4.40    0.77
   7   6  -9    2.76    0.80
  -7  -6   9    2.54    0.73
   7  -6  -9    3.78    0.72
   7   6  -8   -0.49    0.73
   7   6  -8    0.03    0.65
   7   6  -8   -0.56    0.68
  -7   6   8   -0.79    0.56
  -7  -6   8    0.19    0.58
   7  -6  -8   -0.69    0.91
  -7   6   7   15.63    1.26
   7   6  -7   14.73    1.22
  -7  -6   7   15.26    1.19
   7  -6  -7   11.63    1.60
  -7   6   6   21.79    1.25
   7   6  -6   20.72    1.32
   7   6  -6   21.12    1.42
   7  -6  -6   20.50    1.48
  -7  -6   6   23.07    1.26
   7  -6  -6   22.76    1.19
   7   6  -5    2.75    0.56
   7  -6  -5    2.39    0.50
   7  -6  -5    2.93    0.65
  -7   6   4    5.20    0.82
   7   6  -4    5.46    0.75
   7   6  -4    5.03    0.87
   7  -6  -4    5.23    0.86
   7  -6  -4    4.75    0.66
  -7  -6   4    7.53    0.91
  -7  -6   4    4.82    0.74
  -7   6   3    0.62    0.42
   7   6  -3    0.37    0.40
   7   6  -3    0.07    0.47
   7  -6  -3   -0.37    0.47
   7  -6  -3   -0.06    0.39
  -7  -6   3    0.06    0.45
  -7  -6   3    0.82    0.43
   7  -6  -3    0.33    0.38
   7   6  -2   10.83    0.81
   7   6  -2   10.96    1.04
  -7   6   2   10.79    0.86
  -7  -6   2    9.90    0.86
   7  -6  -2   11.75    0.81
   7  -6  -2   10.27    1.06
   7  -6  -2   10.81    0.70
  -7  -6   2   11.05    0.93
   7   6  -1   22.50    1.15
   7   6  -1   22.71    1.14
  -7   6   1   22.18    1.10
   7  -6  -1   24.86    1.24
   7  -6  -1   23.46    0.89
  -7  -6   1   23.02    1.12
  -7  -6   1   23.82    1.19
   7  -6  -1   24.10    1.10
   7   6   0    2.05    0.43
  -7   6   0    1.46    0.46
   7   6   0    0.66    0.41
  -7  -6   0    1.71    0.45
   7  -6   0    1.43    0.43
   7  -6   0    1.73    0.37
   7  -6   0    1.39    0.51
   7   6   1    2.32    0.48
   7   6   1    2.69    0.47
  -7   6  -1    3.24    0.54
   7  -6   1    2.36    0.58
   7  -6   1    2.27    0.52
  -7  -6  -1    2.06    0.48
   7   6   2    0.14    0.44
   7   6   2   -0.15    0.44
  -7   6  -2    0.00    0.54
  -7  -6  -2   -0.79    0.52
   7  -6   2    0.11    0.50
   7  -6   2   -0.49    0.44
  -7   6  -3    2.91    0.57
   7   6   3    2.79    0.57
   7  -6   3    3.49    0.61
  -7  -6  -3    3.69    0.86
  -7   6  -4    1.78    0.58
   7   6   4    1.55    0.53
   7  -6   4    0.85    0.59
   7  -6   4    1.73    0.56
  -7  -6  -4    1.98    0.71
   7   6   5   24.78    1.28
  -7   6  -5   27.02    1.41
   7  -6   5   26.99    1.42
   7  -6   5   25.93    1.37
   7   6   6    8.84    0.96
  -7   6  -6    9.51    1.30
   7  -6   6    8.25    1.17
   7  -6   6    8.23    1.09
  -7   6  -7   -0.35    0.75
   7   6   7   -1.23    0.64
   7  -6   7   -1.40    0.70
   7   7  -8    0.20    0.87
   7   7  -8    0.67    0.82
   7   7  -8    0.41    0.80
  -7   7   8   -0.30    0.73
   7  -7  -8    0.63    0.73
  -7  -7   8   -0.07    0.75
   7   7  -7    4.15    0.82
   7   7  -7    3.67    0.81
  -7   7   7    5.15    0.78
   7  -7  -7    4.27    1.00
   7  -7  -7    6.02    0.77
  -7  -7   7    4.15    1.15
   7   7  -6   17.52    1.30
   7   7  -6   15.87    1.28
  -7   7   6   16.29    1.23
   7  -7  -6   17.07    1.17
  -7  -7   6   14.14    1.42
   7  -7  -6   15.80    1.46
   7   7  -5   62.80    2.18
  -7   7   5   63.29    2.06
   7   7  -5   63.99    2.07
   7  -7  -5   61.79    2.00
  -7  -7   5   63.39    2.10
  -7  -7   5   62.14    2.18
   7  -7  -5   65.05    2.86
   7   7  -4   19.87    1.19
  -7   7   4   20.67    1.25
   7   7  -4   19.21    1.31
   7  -7  -4   20.99    1.37
   7  -7  -4   21.88    1.17
  -7  -7   4   20.26    1.33
  -7  -7   4   21.74    1.27
   7   7  -3    0.88    0.51
   7   7  -3    0.42    0.56
  -7   7   3    0.22    0.53
  -7   7   3    0.18    0.43
   7  -7  -3    1.08    0.79
  -7  -7   3    0.95    0.53
   7  -7  -3   -0.68    0.59
  -7  -7   3    1.00    0.59
   7  -7  -3    0.01    0.60
  -7   7   2    0.18    0.53
   7   7  -2    0.16    0.49
   7   7  -2    0.85    0.59
   7  -7  -2    0.17    0.47
   7  -7  -2    1.09    0.66
   7  -7  -2    0.07    0.58
  -7  -7   2    0.10    0.52
  -7  -7   2   -0.07    0.58
   7   7  -1    0.72    0.61
   7   7  -1   -0.08    0.46
  -7   7   1    0.96    0.54
   7  -7  -1    0.67    0.73
  -7  -7   1    1.41    0.63
  -7  -7   1    0.82    0.57
   7  -7  -1    0.54    0.58
   7  -7  -1   -0.19    0.96
   7   7   0    1.54    0.51
  -7   7   0    1.07    0.57
   7   7   0    0.97    0.68
   7  -7   0    2.08    0.63
   7  -7   0    1.55    0.63
  -7  -7   0    1.77    0.57
   7   7   1    0.00    0.49
  -7   7  -1    0.15    0.50
   7  -7   1   -0.23    0.51
   7  -7   1    0.47    0.58
  -7  -7  -1    0.10    0.56
  -7   7  -2    0.41    0.92
  -7  -7  -2    1.42    0.60
   7  -7   2    1.07    0.63
   7  -7   2    0.66    0.56
  -7   7  -3   -0.90    0.58
   7   7   3   -0.29    0.52
  -7  -7  -3   -0.09    0.67
   7  -7   3    0.04    0.56
   7  -7   3   -0.57    0.63
  -7   7  -4   -0.79    0.93
   7   7   4    0.56    0.59
   7  -7   4    0.05    0.75
   7  -7   4    0.51    0.61
  -7  -7  -4    1.26    1.00
  -7   7  -5    0.00    0.69
   7   7   5   -0.17    0.61
  -7  -7  -5   -0.20    0.93
   7  -7   5    0.94    0.79
  -7   7  -6    1.64    0.91
   7   7   6    0.78    0.72
   7  -7   6    1.37    0.89
   7  -7   6    2.17    0.86
  -7   8   6   10.90    1.50
   7   8  -6   12.43    1.56
   7   8  -6   14.47    1.46
   7  -8  -6   12.09    1.35
  -7  -8   6   12.88    1.55
   7  -8  -6   13.01    1.80
   7   8  -5    5.60    0.93
  -7   8   5    6.18    0.90
   7   8  -5    7.49    1.19
  -7  -8   5    7.05    1.24
   7  -8  -5    7.71    1.18
  -7  -8   5    6.40    1.10
   7  -8  -5    5.66    1.01
   7   8  -4    0.39    0.63
   7   8  -4   -1.30    0.72
  -7   8   4    1.14    0.70
  -7  -8   4    1.52    1.03
  -7  -8   4    1.12    0.66
   7  -8  -4    1.31    0.77
   7  -8  -4    0.43    0.64
   7   8  -3    1.64    0.64
  -7   8   3    1.22    0.66
  -7  -8   3    0.46    0.65
   7  -8  -3    1.61    1.09
  -7  -8   3    0.88    0.73
   7  -8  -3   -1.90    1.10
   7   8  -2    0.13    0.58
  -7   8   2    0.12    0.55
  -7   8   2    0.16    0.63
   7   8  -2    0.12    0.70
   7  -8  -2    0.72    0.62
   7  -8  -2    0.73    0.76
  -7  -8   2    0.80    0.64
   7  -8  -2    1.71    0.83
  -7  -8   2    1.34    0.72
  -7   8   1    1.28    0.69
   7   8  -1    1.31    0.60
   7   8  -1   -1.47    0.98
  -7  -8   1    1.45    0.76
  -7  -8   1   -0.61    0.75
   7  -8  -1    0.61    0.72
   7  -8  -1    1.26    0.71
  -7   8   0    8.26    1.11
   7   8   0    6.38    0.87
   7   8   0    5.34    0.80
  -7  -8   0    7.81    1.11
   7  -8   0    6.00    1.42
   7  -8   0    7.22    1.20
   7   8   1   -0.59    0.70
  -7   8  -1    0.50    0.69
   7   8   1    0.94    0.59
   7  -8   1    1.26    0.71
   7  -8   1    0.62    0.64
  -7  -8  -1    0.48    0.67
  -7   8  -2    0.16    0.72
   7   8   2    1.44    0.63
   7  -8   2    0.20    0.64
   7  -8   2    0.05    1.12
  -7  -8  -2    1.37    0.74
   7   8   3    2.53    0.73
  -7   8  -3    2.84    0.85
   7  -8   3    4.98    0.87
   7  -8   3    2.85    0.93
   7   8   4    5.68    0.87
  -7   8  -4    5.83    1.06
  -7  -8  -4    4.68    1.14
   7  -8   4    5.92    1.08
  -8   0  13    1.17    0.77
   8   0 -13   -0.41    0.86
  -8   0  12    3.12    0.67
   8   0 -12    4.24    1.02
  -8   0  11   -0.05    0.54
   8   0 -11    0.71    0.57
   8   0 -10    2.96    0.79
  -8   0  10    2.64    0.51
   8   0 -10    2.59    0.61
  -8   0   9   -0.04    0.36
   8   0  -9    0.19    0.41
   8   0  -9   -0.37    0.38
  -8   0   8    5.50    0.55
   8   0  -8    5.09    0.59
   8   0  -8    4.97    0.67
   8   0  -7    0.60    0.32
  -8   0   7   -0.11    0.28
   8   0  -7    0.15    0.28
  -8   0   6    1.20    0.33
   8   0  -6    0.72    0.26
   8   0  -6    0.90    0.34
   8   0  -5    0.27    0.27
   8   0  -5   -0.14    0.26
   8   0  -5   -0.39    0.25
  -8   0   5    0.19    0.26
  -8   0   4   39.63    1.08
   8   0  -4   40.07    1.05
   8   0  -4   41.72    1.31
   8   0  -4   41.81    1.30
   8   0  -3   -0.01    0.20
  -8   0   3   -0.11    0.19
   8   0  -3    0.16    0.23
   8   0  -3   -0.02    0.23
  -8   0   2   10.49    0.50
   8   0  -2   11.12    0.57
   8   0  -2   10.34    0.52
   8   0  -2   11.17    0.67
   8   0  -1    0.15    0.25
  -8   0   1    0.05    0.19
   8   0  -1    0.20    0.18
   8   0  -1    0.02    0.23
   8   0   0   16.61    0.75
   8   0   0   16.21    0.56
  -8   0   0   17.07    0.63
   8   0   1    0.04    0.18
   8   0   1   -0.28    0.19
   8   0   1    0.00    0.41
  -8   0  -1   -0.36    0.23
   8   0   2    0.05    0.31
  -8   0  -2    0.21    0.28
   8   0   2    0.53    0.21
  -8   0  -3    0.28    0.26
   8   0   3    0.13    0.30
   8   0   3   -0.13    0.22
  -8   0  -4    4.50    0.46
   8   0   4    5.55    0.52
   8   0   4    5.09    0.57
  -8   0  -5    0.51    0.32
   8   0   5    0.65    0.30
   8   0   6   20.63    1.08
   8   0   6   19.98    1.02
  -8   0  -6   20.77    0.96
   8   0   7   -0.31    0.58
   8   0   7    0.54    0.49
  -8   0  -7    0.28    0.46
   8   0   8   -0.24    0.69
   8   0   8    0.54    0.53
  -8   0  -8   -0.41    0.51
   8   0   9   -0.69    0.59
   8   0  10   49.62    2.37
  -8   0 -10   47.05    1.99
   8   0  10   45.78    1.81
   8   1 -13    6.17    1.01
  -8   1  13    4.81    0.93
   8  -1 -13    5.91    1.19
  -8  -1  13    5.54    0.86
  -8   1  12    0.25    0.63
   8   1 -12   -0.50    0.64
   8  -1 -12   -0.04    0.66
  -8  -1  12   -0.65    0.64
   8   1 -11    0.54    0.66
  -8   1  11   -0.69    0.57
   8  -1 -11    0.33    0.56
   8   1 -10   11.20    1.07
  -8   1  10   13.61    0.94
   8   1 -10   12.14    1.05
  -8  -1  10   10.61    0.84
   8  -1 -10   11.18    1.05
   8  -1 -10   12.11    0.95
   8   1  -9   21.34    1.11
   8   1  -9   21.01    1.09
  -8   1   9   18.25    0.96
   8  -1  -9   21.72    1.08
  -8  -1   9   22.64    0.90
   8  -1  -9   19.76    1.06
   8   1  -8    0.39    0.34
   8   1  -8    0.12    0.37
  -8   1   8    0.38    0.32
   8  -1  -8    0.10    0.32
  -8  -1   8    0.76    0.32
   8  -1  -8    0.38    0.35
  -8   1   7    4.07    0.50
   8   1  -7    4.08    0.55
   8   1  -7    3.82    0.49
  -8  -1   7    3.08    0.41
   8  -1  -7    4.00    0.54
   8  -1  -7    3.76    0.49
   8   1  -6    1.41    0.30
  -8   1   6    1.35    0.30
   8   1  -6    1.72    0.35
   8   1  -6    0.92    0.27
  -8  -1   6    1.32    0.31
   8  -1  -6    1.61    0.35
   8  -1  -6    1.41    0.28
  -8   1   5   10.53    0.61
   8   1  -5    9.43    0.63
   8   1  -5   10.21    0.57
   8   1  -5    9.89    0.55
   8  -1  -5    9.98    0.58
  -8  -1   5   10.25    0.59
  -8  -1   5   10.05    0.52
   8  -1  -5    9.83    0.66
   8  -1  -5   10.41    0.52
   8   1  -4  105.76    2.45
  -8   1   4  101.18    2.42
   8   1  -4  106.01    2.31
   8   1  -4  106.71    2.19
  -8  -1   4  103.78    2.07
  -8  -1   4  105.66    2.32
   8  -1  -4  102.02    2.32
   8  -1  -4  107.28    2.47
   8  -1  -4  105.66    2.15
   8   1  -3    2.87    0.40
   8   1  -3    2.28    0.36
  -8   1   3    2.13    0.32
   8  -1  -3    2.54    0.41
   8  -1  -3    2.63    0.44
   8  -1  -3    2.75    0.38
  -8  -1   3    2.26    0.31
  -8   1   2    1.29    0.27
   8   1  -2    1.46    0.33
   8   1  -2    1.67    0.28
   8   1  -2    1.24    0.30
   8  -1  -2    1.60    0.28
   8  -1  -2    1.55    0.25
   8  -1  -2    1.60    0.31
  -8  -1   2    1.29    0.21
  -8  -1   2    1.49    0.28
   8   1  -1    0.01    0.19
  -8   1   1   -0.22    0.22
   8   1  -1    0.67    0.30
   8   1  -1   -0.10    0.28
   8  -1  -1    0.46    0.26
  -8  -1   1   -0.21    0.17
  -8  -1   1    0.08    0.23
   8  -1  -1    0.04    0.27
   8  -1  -1   -0.04    0.18
   8   1   0   49.87    1.74
  -8   1   0   51.74    1.36
   8   1   0   52.50    1.23
   8   1   0   55.25    1.44
   8  -1   0   51.77    1.58
   8  -1   0   53.12    1.21
  -8  -1   0   52.96    1.44
   8  -1   0   53.91    1.43
   8   1   1    3.83    0.61
   8   1   1    4.01    0.42
   8  -1   1    4.50    0.47
  -8  -1  -1    4.36    0.54
  -8  -1  -1    3.64    0.38
   8  -1   1    4.52    0.33
   8  -1   1    4.28    0.54
  -8   1  -2    2.86    0.40
   8   1   2    2.41    0.33
   8   1   2    2.51    0.40
   8   1   2    2.11    0.39
   8  -1   2    1.96    0.32
   8  -1   2    2.37    0.53
  -8  -1  -2    2.47    0.32
   8   1   3    0.32    0.30
   8   1   3   -0.26    0.22
  -8  -1  -3    0.16    0.29
   8  -1   3    0.60    0.34
   8  -1   3    0.09    0.24
   8   1   4    3.28    0.52
   8   1   4    2.19    0.33
  -8   1  -4    2.22    0.33
  -8  -1  -4    1.56    0.31
   8  -1   4    1.38    0.31
   8   1   5    6.12    0.89
   8   1   5    7.66    0.98
  -8   1  -5    6.74    0.59
  -8  -1  -5    7.39    0.54
   8  -1   5    6.65    0.62
   8   1   6    7.82    0.85
   8   1   6    8.91    0.76
  -8   1  -6    7.27    0.75
  -8  -1  -6    7.19    0.68
   8  -1   6    7.60    0.76
   8   1   7    0.45    0.51
   8   1   7   -0.68    0.57
   8  -1   7    0.04    0.81
  -8  -1  -7   -0.48    0.78
   8   1   8    1.65    0.53
  -8   1  -8    2.01    0.58
   8   1   8    0.95    0.76
  -8  -1  -8    3.45    0.61
   8  -1   8    2.01    0.69
   8  -1   8    0.91    0.56
  -8   1  -9   -0.45    0.62
   8   1   9   -0.47    0.87
   8   1   9    0.89    0.64
   8  -1   9   -0.65    0.72
   8  -1   9   -0.16    0.62
  -8  -1  -9    0.28    0.68
  -8   1 -10    2.82    0.86
   8   1  10    2.80    1.18
  -8  -1 -10    0.81    0.81
   8  -1  10    0.64    0.77
  -8   2  12    1.23    0.70
   8   2 -12    1.26    0.70
   8  -2 -12    1.39    0.99
  -8   2  11   -0.31    0.58
   8   2 -10   -0.35    0.61
  -8   2  10   -0.10    0.50
   8   2 -10    1.64    0.55
   8  -2 -10    0.47    0.50
   8   2  -9    2.70    0.90
   8   2  -9    2.65    0.57
  -8   2   9    3.41    0.54
   8  -2  -9    3.43    0.56
   8  -2  -9    2.43    0.55
  -8  -2   9    4.72    0.61
   8   2  -8    0.93    0.45
   8   2  -8    1.42    0.41
  -8   2   8    0.81    0.38
   8  -2  -8    0.89    0.42
  -8  -2   8    0.91    0.34
   8  -2  -8    0.65    0.39
   8   2  -7    0.41    0.34
  -8   2   7    0.68    0.31
   8   2  -7    0.52    0.42
   8  -2  -7    0.59    0.31
   8  -2  -7    0.63    0.34
  -8  -2   7    0.29    0.31
  -8  -2   7    0.07    0.29
  -8   2   6    0.92    0.30
   8   2  -6    0.62    0.35
   8   2  -6    0.74    0.28
   8   2  -6    0.90    0.30
  -8  -2   6    0.16    0.26
   8  -2  -6    1.03    0.28
  -8  -2   6    0.39    0.28
   8  -2  -6    1.41    0.33
   8   2  -5   10.75    0.70
   8   2  -5   10.61    0.64
  -8   2   5    9.61    0.56
   8   2  -5   11.78    0.62
   8  -2  -5    9.99    0.67
   8  -2  -5   10.17    0.86
  -8  -2   5   11.01    0.61
   8  -2  -5   11.24    0.70
  -8  -2   5    9.65    0.47
   8   2  -4   62.36    1.85
  -8   2   4   63.10    1.61
   8   2  -4   63.73    1.64
   8  -2  -4   63.18    1.57
  -8  -2   4   62.98    1.63
   8  -2  -4   63.49    1.73
  -8  -2   4   62.14    1.46
   8  -2  -4   62.91    1.45
   8   2  -3   38.82    1.42
   8   2  -3   41.07    1.18
  -8   2   3   39.26    1.17
   8   2  -3   40.06    1.27
   8  -2  -3   41.05    1.22
  -8  -2   3   40.08    1.20
   8  -2  -3   39.61    1.29
   8  -2  -3   40.78    1.12
   8   2  -2   10.09    0.63
  -8   2   2    9.80    0.61
   8   2  -2    9.32    0.60
   8  -2  -2    9.23    0.60
   8  -2  -2    9.61    0.65
   8  -2  -2    9.44    0.53
  -8   2   1    4.93    0.54
   8   2  -1    6.80    0.53
   8   2  -1    5.49    0.48
   8  -2  -1    5.50    0.55
  -8  -2   1    6.09    0.51
   8  -2  -1    5.87    0.69
   8  -2  -1    5.06    0.42
  -8   2   0  125.43    2.65
   8   2   0  122.86    2.71
   8   2   0  125.28    2.70
   8  -2   0  127.57    2.94
  -8  -2   0  123.91    2.53
   8  -2   0  126.32    2.37
   8  -2   0  123.11    2.67
  -8  -2   0  123.90    2.29
   8   2   1   80.39    1.96
  -8   2  -1   80.04    1.93
   8   2   1   84.09    2.01
  -8  -2  -1   81.83    1.64
   8  -2   1   81.90    1.98
  -8  -2  -1   81.17    1.78
   8  -2   1   81.93    2.03
  -8   2  -2   21.04    0.82
   8   2   2   21.93    0.87
  -8  -2  -2   20.17    0.68
   8  -2   2   21.21    0.84
   8  -2   2   20.72    0.91
  -8  -2  -2   21.58    0.77
   8   2   3    0.49    0.35
  -8   2  -3    1.33    0.29
   8   2   3    0.64    0.25
   8  -2   3   -0.04    0.32
  -8  -2  -3    0.47    0.27
   8  -2   3    0.61    0.43
  -8   2  -4    1.37    0.34
   8   2   4    1.48    0.34
   8   2   4    0.90    0.49
   8  -2   4    1.07    0.33
  -8  -2  -4    0.96    0.34
   8  -2   4    0.26    0.34
   8   2   5    1.88    0.40
  -8   2  -5    2.78    0.46
  -8  -2  -5    3.29    0.42
   8  -2   5    1.96    0.42
   8  -2   5    3.30    0.45
  -8   2  -6   11.15    0.86
   8   2   6   10.55    0.86
   8   2   6   10.55    0.98
  -8  -2  -6   11.29    0.71
   8  -2   6   12.46    0.91
   8   2   7    3.14    0.62
   8   2   7    3.01    0.74
  -8   2  -7    3.37    0.58
  -8  -2  -7    3.40    0.62
   8  -2   7    2.76    0.56
   8   2   8   -0.80    0.52
  -8   2  -8    0.06    0.57
   8   2   8   -0.12    0.89
   8  -2   8    0.01    0.54
  -8  -2  -8    0.15    0.71
   8   2   9    0.28    0.65
  -8   2  -9    1.19    0.69
   8  -2   9    1.19    0.67
  -8  -2  -9   -0.40    0.70
   8   3 -12    1.71    0.80
  -8   3  12    0.05    0.75
   8  -3 -12    0.44    0.78
   8   3 -11    2.51    0.69
  -8   3  11    2.52    0.68
   8  -3 -11    2.41    0.62
   8   3 -10   23.32    1.79
  -8   3  10   21.97    1.31
   8  -3 -10   19.12    1.44
   8   3  -9    0.95    0.56
   8   3  -9    0.76    0.58
   8  -3  -9    0.60    0.50
   8  -3  -9    1.22    0.63
   8   3  -8    3.51    0.58
  -8   3   8    3.00    0.71
   8   3  -8    4.16    0.58
   8  -3  -8    3.87    0.59
   8  -3  -8    5.23    0.76
  -8  -3   8    5.51    0.77
   8   3  -7    0.26    0.37
  -8   3   7   -0.26    0.35
   8   3  -7   -0.44    0.35
   8   3  -7   -0.22    0.51
   8  -3  -7    0.03    0.60
  -8  -3   7   -0.21    0.34
   8  -3  -7    0.22    0.34
   8   3  -6    0.27    0.34
   8   3  -6    0.54    0.32
   8   3  -6    0.45    0.34
  -8   3   6    0.24    0.31
   8  -3  -6    0.68    0.32
  -8  -3   6    0.05    0.30
   8  -3  -6    0.50    0.34
   8   3  -5    2.69    0.40
  -8   3   5    2.90    0.38
   8   3  -5    3.82    0.53
   8   3  -5    3.11    0.55
  -8  -3   5    2.71    0.39
   8  -3  -5    3.17    0.45
   8  -3  -5    3.69    0.51
   8   3  -4   19.71    0.90
  -8   3   4   19.22    0.80
   8   3  -4   18.95    0.81
   8  -3  -4   18.46    1.04
   8  -3  -4   18.96    0.77
  -8  -3   4   19.07    0.81
   8  -3  -4   19.10    0.94
   8   3  -3   56.79    1.51
  -8   3   3   54.08    1.50
   8   3  -3   55.03    1.59
   8  -3  -3   54.73    1.44
   8  -3  -3   57.62    1.48
  -8  -3   3   56.06    1.55
   8  -3  -3   55.41    1.63
   8   3  -2    2.73    0.43
   8   3  -2    3.08    0.47
  -8   3   2    3.49    0.43
   8  -3  -2    3.05    0.49
   8  -3  -2    3.29    0.46
   8  -3  -2    3.03    0.50
  -8  -3   2    3.74    0.59
   8   3  -1   -0.18    0.23
  -8   3   1    0.35    0.25
   8   3  -1    0.00    0.27
  -8  -3   1   -0.10    0.26
   8  -3  -1    0.00    0.25
   8  -3  -1   -0.22    0.23
   8  -3  -1   -0.49    0.27
   8   3   0    6.59    0.56
  -8   3   0    7.23    0.53
   8   3   0    8.55    0.55
  -8  -3   0    6.92    0.63
   8  -3   0    6.31    0.44
   8  -3   0    7.10    0.58
   8  -3   0    7.49    0.59
   8   3   1    0.42    0.24
   8   3   1    0.43    0.29
  -8   3  -1   -0.12    0.25
   8  -3   1    0.57    0.29
  -8  -3  -1    1.09    0.60
   8  -3   1    0.68    0.26
   8   3   2    0.41    0.25
   8   3   2    0.78    0.31
  -8   3  -2    1.76    0.33
  -8  -3  -2    0.74    0.45
   8  -3   2    0.89    0.32
   8  -3   2    0.99    0.29
   8   3   3    1.94    0.42
   8   3   3    2.91    0.48
  -8   3  -3    2.43    0.38
   8  -3   3    2.03    0.37
  -8  -3  -3    2.36    0.49
   8  -3   3    2.49    0.39
  -8   3  -4    3.57    0.48
   8   3   4    3.27    0.44
   8  -3   4    4.69    0.60
   8  -3   4    2.85    0.44
   8   3   5   17.37    0.97
  -8   3  -5   18.79    1.05
   8  -3   5   19.02    0.91
   8  -3   5   19.63    1.04
   8   3   6   17.05    1.16
  -8   3  -6   16.87    1.05
   8  -3   6   15.46    1.05
  -8   3  -7    9.86    1.11
   8   3   7   11.13    0.93
   8  -3   7    9.91    0.98
   8   3   8   -0.33    0.58
  -8   3  -8   -0.94    0.62
  -8   3  -9    0.82    0.78
   8   3   9    3.49    0.71
   8  -3   9    2.05    0.88
   8   4 -11    6.31    0.92
  -8   4  11    7.38    1.09
   8   4 -11    8.35    1.44
   8  -4 -11    7.77    1.12
   8   4 -10   31.14    1.54
  -8   4  10   30.81    1.47
   8   4 -10   33.94    1.94
   8  -4 -10   30.51    1.65
   8   4  -9    6.42    1.00
  -8   4   9    6.14    0.72
   8   4  -9    4.79    0.80
   8  -4  -9    7.46    1.29
   8  -4  -9    5.75    0.86
  -8  -4   9    8.69    0.93
  -8   4   8   11.15    1.12
   8   4  -8    8.20    1.29
   8   4  -8    9.11    1.12
  -8  -4   8    9.71    1.07
   8  -4  -8    9.29    1.04
   8  -4  -8    9.81    1.03
   8   4  -7    3.84    0.65
   8   4  -7    5.87    0.71
  -8   4   7    4.79    0.63
   8   4  -7    4.31    0.71
  -8  -4   7    3.69    0.59
   8  -4  -7    6.16    0.85
   8  -4  -7    4.60    0.72
   8   4  -6    0.00    0.35
   8   4  -6   -0.18    0.39
   8   4  -6   -0.07    0.38
  -8  -4   6   -0.05    0.39
   8  -4  -6    0.64    0.42
  -8   4   5   14.86    0.84
   8   4  -5   14.31    0.76
   8  -4  -5   13.86    0.76
   8  -4  -5   14.94    0.87
  -8  -4   5   14.59    0.89
   8   4  -4    4.90    0.53
   8   4  -4    5.94    0.61
  -8   4   4    5.14    0.55
   8  -4  -4    5.31    0.75
   8  -4  -4    5.96    0.53
  -8  -4   4    5.47    0.60
   8  -4  -4    6.19    0.64
  -8   4   3    3.26    0.49
   8   4  -3    2.79    0.42
   8   4  -3    3.52    0.49
  -8  -4   3    2.63    0.38
   8  -4  -3    2.46    0.45
   8  -4  -3    2.37    0.32
   8   4  -2    1.57    0.34
   8   4  -2    1.57    0.30
  -8   4   2    0.67    0.31
   8  -4  -2    1.38    0.35
  -8  -4   2    1.22    0.31
   8  -4  -2    1.07    0.33
   8  -4  -2    1.71    0.31
   8   4  -1    2.08    0.35
   8   4  -1    2.02    0.32
  -8   4   1    2.30    0.33
  -8  -4   1    2.22    0.35
   8  -4  -1    1.49    0.38
   8  -4  -1    1.68    0.32
   8  -4  -1    1.95    0.36
   8   4   0    3.33    0.52
   8   4   0    4.12    0.47
  -8   4   0    4.50    0.53
   8  -4   0    2.05    0.34
   8  -4   0    2.25    0.39
   8  -4   0    3.31    0.49
  -8  -4   0    3.46    0.60
   8   4   1    0.04    0.32
   8   4   1    0.42    0.28
  -8   4  -1   -0.25    0.29
  -8  -4  -1    0.01    0.30
   8  -4   1    0.26    0.33
   8  -4   1    0.16    0.28
   8   4   2    0.63    0.37
   8   4   2    0.88    0.32
  -8   4  -2    0.75    0.34
  -8  -4  -2    0.83    0.46
   8  -4   2    1.57    0.39
   8  -4   2    0.88    0.34
   8   4   3    0.76    0.38
  -8   4  -3   -0.42    0.37
   8   4   3    0.03    0.32
   8  -4   3   -0.16    0.35
   8  -4   3    0.75    0.39
  -8  -4  -3    0.37    0.43
  -8   4  -4    3.38    0.50
   8   4   4    2.77    0.48
   8  -4   4    2.87    0.50
   8  -4   4    2.60    0.50
  -8   4  -5    0.84    0.50
   8   4   5    0.84    0.59
   8  -4   5    0.58    0.45
   8  -4   5    0.12    0.49
   8   4   6   14.95    1.04
  -8   4  -6   13.27    1.09
   8  -4   6   15.06    1.04
  -8   4  -7   31.67    1.50
   8   4   7   32.28    1.44
   8  -4   7   34.71    1.86
  -8   4  -8    0.44    0.74
   8   4   8    0.63    0.64
   8  -4   8    2.23    0.68
  -8   5  11    2.89    1.18
   8   5 -11    2.90    1.37
   8   5 -11    3.89    1.05
   8  -5 -11    3.09    1.14
   8   5 -10    3.09    0.99
  -8   5  10    3.32    0.75
   8   5 -10    5.30    0.98
  -8  -5  10    3.26    0.75
   8  -5 -10    2.31    0.72
  -8   5   9    0.33    0.60
   8   5  -9   -0.50    0.68
   8   5  -9    0.10    0.67
   8  -5  -9   -0.27    0.60
  -8   5   8    7.31    1.01
   8   5  -8    9.25    1.09
   8   5  -8    7.25    1.02
  -8  -5   8    7.05    0.95
   8  -5  -8    6.51    0.97
   8   5  -7    1.24    0.59
  -8   5   7    1.46    0.53
   8   5  -7    1.43    0.57
   8   5  -7    0.30    0.56
   8  -5  -7    1.93    0.70
  -8  -5   7    0.14    0.53
   8  -5  -7    0.90    0.53
   8   5  -6    7.87    1.09
   8   5  -6    7.35    0.84
  -8   5   6    6.29    1.13
   8  -5  -6    6.98    0.99
  -8  -5   6    6.33    1.06
   8  -5  -6    6.90    0.75
   8   5  -5    4.14    0.67
   8   5  -5    6.75    0.93
  -8   5   5    6.35    0.75
   8  -5  -5    5.61    0.85
  -8  -5   5    6.91    0.84
   8  -5  -5    6.01    0.66
  -8   5   4    1.68    0.43
   8   5  -4    1.49    0.40
   8   5  -4    0.84    0.46
   8  -5  -4    1.89    0.38
   8  -5  -4    1.85    0.49
  -8  -5   4    1.71    0.44
  -8   5   3   14.26    0.88
   8   5  -3   12.89    0.82
   8   5  -3   13.16    0.92
   8  -5  -3   16.33    1.03
   8  -5  -3   13.73    0.75
   8  -5  -3   14.31    1.00
  -8  -5   3   11.78    0.84
   8   5  -2    4.89    0.69
  -8   5   2    3.52    0.51
   8   5  -2    4.76    0.61
   8  -5  -2    5.87    0.53
   8  -5  -2    3.84    0.59
  -8  -5   2    5.36    0.64
   8  -5  -2    4.27    0.60
   8   5  -1    9.80    0.76
  -8   5   1    8.74    0.74
   8   5  -1   11.02    0.74
   8  -5  -1   10.29    0.97
  -8  -5   1    9.55    0.69
   8  -5  -1    8.24    1.15
   8  -5  -1    8.27    0.63
   8   5   0   17.15    0.90
  -8   5   0   15.88    0.90
   8   5   0   14.44    0.87
   8  -5   0   15.79    1.01
   8  -5   0   15.99    0.95
  -8  -5   0   15.11    0.88
  -8   5  -1    2.01    0.45
   8   5   1    1.35    0.41
  -8  -5  -1    1.62    0.45
   8  -5   1    1.99    0.44
   8  -5   1    1.90    0.61
   8   5   2   17.43    1.00
   8   5   2   17.49    0.89
  -8   5  -2   17.14    1.02
   8  -5   2   15.21    1.02
  -8  -5  -2   15.22    0.94
   8  -5   2   17.73    1.02
   8   5   3    4.12    0.60
   8  -5   3    5.01    0.90
   8  -5   3    3.19    0.69
  -8   5  -4   11.22    1.03
   8   5   4   10.27    0.90
   8  -5   4   10.93    1.03
   8  -5   4    9.05    0.95
   8   5   5   12.58    0.96
  -8   5  -5   10.58    1.07
   8  -5   5   12.58    1.61
   8  -5   5   10.56    1.04
  -8   5  -6    2.39    0.78
   8   5   6    2.03    0.57
   8  -5   6    2.81    0.62
  -8   5  -7    9.05    1.25
   8   5   7    7.57    1.14
   8  -5   7    7.93    0.90
   8   6  -9    0.21    0.82
  -8   6   9   -0.53    0.72
   8   6  -9    0.68    0.81
  -8  -6   9   -0.07    0.72
   8  -6  -9    0.07    0.70
  -8   6   8   27.15    1.44
   8   6  -8   23.23    2.03
   8   6  -8   29.57    1.60
   8  -6  -8   33.08    2.16
  -8  -6   8   28.77    1.52
   8  -6  -8   31.85    1.81
  -8   6   7   30.24    1.43
   8   6  -7   31.50    1.59
   8   6  -7   30.00    1.53
  -8  -6   7   29.89    1.53
   8  -6  -7   30.15    1.46
   8  -6  -7   31.15    1.66
   8   6  -6   -0.26    0.58
   8   6  -6    0.69    0.63
  -8   6   6   -0.15    0.52
  -8  -6   6   -0.81    0.53
   8  -6  -6   -0.68    0.52
   8  -6  -6    0.20    0.65
   8   6  -5    0.56    0.58
  -8   6   5    1.64    0.55
   8  -6  -5    1.28    0.69
  -8  -6   5    0.98    0.55
   8   6  -4   -0.64    0.50
  -8   6   4   -0.49    0.48
   8   6  -4    0.57    0.52
   8  -6  -4    0.03    0.44
  -8  -6   4   -0.41    0.50
   8   6  -3    6.91    1.12
   8  -6  -3    6.94    0.85
   8  -6  -3    5.57    0.78
   8   6  -2    6.29    0.96
   8   6  -2    6.08    0.91
   8  -6  -2    5.19    0.79
  -8  -6   2    6.59    1.01
   8  -6  -2    7.31    1.12
   8   6  -1    4.68    0.89
   8   6  -1    6.40    0.88
   8  -6  -1    4.94    0.79
  -8  -6   1    6.65    0.90
   8  -6  -1    4.44    0.67
  -8   6   0   -0.36    0.82
  -8  -6   0    0.18    0.47
   8  -6   0    0.30    0.47
   8   6   1    2.02    0.52
   8   6   1    1.09    0.58
  -8   6  -1    2.03    0.60
  -8  -6  -1    2.64    0.58
   8  -6   1    1.71    0.75
   8  -6   1    2.62    0.63
  -8   6  -2    6.59    0.94
   8   6   2    4.22    0.63
   8   6   2    6.35    0.78
  -8  -6  -2    5.14    0.75
   8  -6   2    5.75    0.76
   8  -6   2    6.61    1.01
  -8   6  -3   10.11    1.06
   8   6   3    8.31    0.93
   8  -6   3   10.03    1.15
   8  -6   3    9.36    1.04
   8   6   4   34.83    1.51
  -8   6  -4   36.12    1.65
   8  -6   4   37.81    1.66
  -8  -6  -4   39.63    2.01
   8  -6   4   35.68    1.67
  -8   6  -5    8.64    1.18
   8   6   5    4.56    0.65
   8  -6   5    7.23    1.24
   8  -6   5    5.72    0.77
  -8   6  -6    3.30    0.84
   8  -6   6    1.91    0.74
  -8   7   8    3.83    0.94
   8   7  -8    3.70    1.00
   8   7  -8    3.47    1.17
  -8  -7   8    5.09    1.00
   8  -7  -8    2.06    0.86
   8   7  -7   28.78    1.98
  -8   7   7   26.76    1.59
   8   7  -7   25.71    1.73
   8  -7  -7   28.87    1.54
   8  -7  -7   27.75    1.84
  -8  -7   7   28.76    1.59
  -8   7   6   10.35    1.29
   8   7  -6   12.21    1.27
   8   7  -6    7.66    1.15
  -8  -7   6   11.86    1.27
   8  -7  -6    8.54    1.42
   8  -7  -6    7.02    1.07
   8   7  -5    2.15    0.65
   8   7  -5    0.82    0.66
  -8   7   5    1.76    0.62
   8  -7  -5    0.57    0.58
   8  -7  -5    1.83    0.76
  -8  -7   5    1.61    0.68
   8   7  -4    2.61    0.64
  -8   7   4    2.07    0.67
   8   7  -4    1.36    0.65
   8  -7  -4    2.56    0.70
  -8  -7   4    1.83    0.64
   8  -7  -4    3.11    0.61
   8   7  -3   -0.12    0.54
   8   7  -3    1.61    1.01
  -8   7   3    0.19    0.57
   8  -7  -3   -0.07    0.54
  -8  -7   3    0.30    0.59
   8  -7  -3    0.39    0.63
  -8   7   2    1.93    0.61
   8   7  -2    2.67    0.66
   8   7  -2    1.14    0.55
  -8  -7   2    1.95    0.61
   8  -7  -2    1.20    0.56
   8  -7  -2    1.84    0.67
   8   7  -1    0.11    0.60
  -8   7   1    0.30    0.57
   8   7  -1    0.97    0.53
   8  -7  -1    1.32    0.65
  -8  -7   1   -0.14    0.56
   8  -7  -1    0.33    0.89
   8   7   0   -0.39    0.49
  -8   7   0    0.04    0.57
   8   7   0    0.95    0.61
   8  -7   0   -0.23    0.59
  -8  -7   0   -0.05    0.56
   8  -7   0   -0.74    0.62
  -8   7  -1   -0.06    0.61
   8   7   1    0.35    0.74
   8   7   1   -0.35    0.52
   8  -7   1    0.04    0.58
  -8  -7  -1    1.35    0.65
   8  -7   1   -1.14    0.68
   8   7   2    7.65    0.89
  -8   7  -2    7.62    1.13
   8  -7   2    7.95    1.09
   8  -7   2    7.13    0.94
  -8  -7  -2    9.37    1.15
  -8   7  -3   15.69    1.30
   8   7   3   16.25    1.19
  -8  -7  -3   16.62    1.91
   8  -7   3   14.99    1.34
   8  -7   3   17.97    1.28
   8   7   4    4.22    0.71
  -8   7  -4    3.56    0.80
   8  -7   4    3.89    0.87
  -8  -7  -4    3.71    0.99
   8  -7   4    2.52    0.80
   8   7   5   -0.08    0.74
  -8   7  -5   -0.12    1.14
   8  -7   5    0.80    0.89
   8  -7   5   -0.07    0.86
   8   8  -5    0.52    0.85
   8   8  -5   -1.52    0.86
  -8   8   5   -0.48    0.98
   8  -8  -5    0.26    0.94
   8  -8  -5    1.05    0.72
  -8  -8   5   -0.24    0.87
   8   8  -4    0.49    0.72
  -8   8   4   -0.23    0.74
   8   8  -4   -0.51    0.80
   8  -8  -4    0.26    0.87
  -8  -8   4   -0.52    0.78
   8  -8  -4    0.37    0.70
   8   8  -3    0.79    0.76
  -8   8   3   -0.20    0.70
   8   8  -3   -0.93    0.66
   8  -8  -3   -0.19    0.78
  -8  -8   3    0.56    0.72
   8  -8  -3    0.99    0.79
   8   8  -2    3.44    0.71
  -8   8   2    4.93    0.85
  -8   8   2    3.76    0.74
   8   8  -2    7.26    1.21
  -8  -8   2    4.43    0.78
   8  -8  -2    4.97    0.88
  -8   8   1    3.84    0.94
   8   8  -1    3.92    0.85
   8   8  -1    3.24    0.71
  -8  -8   1    4.85    0.82
   8  -8  -1    3.29    0.82
   8  -8  -1    2.36    0.83
   8   8   0    1.08    0.76
   8   8   0   -0.38    0.63
  -8   8   0   -0.12    0.69
  -8  -8   0    0.04    0.77
   8  -8   0   -1.34    0.75
   8  -8   0    0.09    0.73
   8   8   1   -0.25    0.67
  -8   8  -1   -0.95    0.79
   8   8   1   -1.65    1.22
   8  -8   1    0.29    0.74
   8  -8   1    1.76    0.87
  -8  -8  -1    1.68    0.81
  -8   8  -2    5.63    1.60
   8   8   2    4.94    0.89
   8  -8   2    5.20    1.06
  -8  -8  -2    4.57    0.99
   8  -8   2    4.61    0.89
   9   0 -12    0.78    0.68
  -9   0  12   -1.39    0.68
   9   0 -11   -1.21    0.58
  -9   0  11   -0.14    0.62
  -9   0  10   14.21    1.00
   9   0 -10   15.12    1.46
   9   0 -10   14.34    1.04
  -9   0   9    0.35    0.40
   9   0  -9    0.67    0.50
   9   0  -9   -0.07    0.51
  -9   0   8    1.17    0.35
   9   0  -8   -0.07    0.47
   9   0  -8    0.01    0.37
   9   0  -7   -0.16    0.36
  -9   0   7    0.32    0.30
   9   0  -7   -0.04    0.31
  -9   0   6    0.84    0.30
   9   0  -6    0.43    0.31
   9   0  -5    1.37    0.48
   9   0  -5   -0.17    0.25
   9   0  -5    0.36    0.29
   9   0  -4    2.49    0.35
  -9   0   4    3.45    0.46
   9   0  -4    3.25    0.46
   9   0  -4    1.92    0.32
   9   0  -3   -0.02    0.30
   9   0  -3   -0.14    0.26
  -9   0   3   -0.09    0.24
   9   0  -3   -0.20    0.28
   9   0  -2    0.76    0.27
   9   0  -2    0.55    0.26
   9   0  -2    0.77    0.30
  -9   0   2    0.33    0.25
   9   0  -1   -0.22    0.22
   9   0  -1   -0.20    0.26
   9   0  -1   -0.32    0.22
   9   0   0   31.24    1.11
  -9   0   0   32.14    0.98
   9   0   0   32.11    1.32
   9   0   0   31.01    0.85
   9   0   1   -0.08    0.23
   9   0   1   -0.53    0.28
   9   0   2    2.28    0.38
  -9   0  -2    2.93    0.45
   9   0   2    3.10    0.43
   9   0   3    0.26    0.28
  -9   0  -3    0.04    0.32
   9   0   4   31.57    1.23
   9   0   4   31.92    1.10
  -9   0  -4   33.74    1.11
   9   0   5   -0.03    0.38
  -9   0  -5    0.35    0.37
  -9   0  -6    0.36    0.45
   9   0   6   -1.06    0.52
  -9   0  -7    0.21    0.53
   9   0   7   -0.33    0.54
   9   0   8   -0.91    0.58
  -9   0  -8   -0.11    0.62
   9   0   9   -1.26    0.69
  -9   0  -9    0.25    0.73
   9   1 -12    0.16    0.74
  -9   1  12    0.32    0.71
   9  -1 -12   -0.27    0.71
  -9   1  11    3.70    0.67
   9   1 -11    3.49    0.68
   9  -1 -11    6.13    0.90
  -9  -1  11    3.22    0.75
   9   1 -10    5.21    0.83
   9   1 -10    4.85    0.70
   9  -1 -10    5.50    0.84
   9  -1 -10    4.22    0.82
   9   1  -9   -0.50    0.50
  -9   1   9    0.02    0.43
   9  -1  -9    0.18    0.50
  -9  -1   9   -0.50    0.40
  -9   1   8    0.09    0.43
   9   1  -8    0.62    0.41
   9   1  -8   -0.11    0.42
   9  -1  -8    0.31    0.39
  -9  -1   8    0.30    0.34
   9   1  -7    3.83    0.47
   9   1  -7    5.31    0.66
  -9   1   7    6.17    0.55
  -9  -1   7    5.12    0.53
   9  -1  -7    6.37    0.67
   9  -1  -7    5.22    0.58
   9   1  -6   47.93    1.42
  -9   1   6   47.48    1.34
   9   1  -6   46.26    1.51
   9   1  -6   46.84    1.53
  -9  -1   6   47.08    1.28
   9  -1  -6   47.61    1.44
   9  -1  -6   47.86    1.52
  -9   1   5   11.09    0.63
   9   1  -5   11.97    0.63
   9   1  -5   11.55    0.74
   9   1  -5   11.59    0.89
   9  -1  -5   12.36    0.73
   9  -1  -5   11.59    0.62
  -9  -1   5   11.66    0.60
   9  -1  -5   11.77    0.64
   9   1  -4    3.30    0.44
  -9   1   4    4.61    0.47
   9   1  -4    4.85    0.60
   9   1  -4    3.31    0.46
  -9  -1   4    2.82    0.52
  -9  -1   4    3.66    0.41
   9  -1  -4    3.33    0.48
   9  -1  -4    2.92    0.38
   9  -1  -4    3.09    0.38
   9   1  -3    0.62    0.30
   9   1  -3    0.33    0.25
  -9   1   3    0.10    0.30
   9   1  -3    0.14    0.35
  -9  -1   3    0.57    0.27
  -9  -1   3    0.15    0.23
   9  -1  -3    0.38    0.27
   9  -1  -3    0.17    0.34
   9  -1  -3    0.32    0.30
   9   1  -2    1.98    0.34
   9   1  -2    2.76    0.44
  -9   1   2    2.51    0.48
   9  -1  -2    2.57    0.34
  -9  -1   2    2.75    0.35
   9  -1  -2    2.08    0.37
   9  -1  -2    2.67    0.45
   9   1  -1    0.73    0.25
   9   1  -1   -0.32    0.27
   9   1  -1    0.60    0.26
  -9  -1   1    0.41    0.22
   9  -1  -1    0.10    0.23
   9  -1  -1    0.36    0.26
   9  -1  -1    0.15    0.25
  -9  -1   1    0.69    0.29
   9   1   0   58.92    1.59
   9   1   0   59.21    1.38
   9   1   0   60.75    1.66
  -9   1   0   58.02    1.50
  -9  -1   0   60.99    1.43
   9  -1   0   61.20    1.95
   9  -1   0   59.04    1.60
  -9  -1   0   57.59    1.35
   9   1   1    5.88    0.44
   9   1   1    6.06    0.57
  -9   1  -1    6.92    0.53
   9   1   1    5.87    0.51
  -9  -1  -1    6.78    0.55
   9  -1   1    6.63    0.53
  -9  -1  -1    6.80    0.49
   9   1   2    2.63    0.43
  -9   1  -2    2.80    0.44
   9   1   2    2.45    0.38
  -9  -1  -2    3.24    0.49
   9  -1   2    3.26    0.53
   9  -1   2    2.93    0.45
  -9   1  -3    2.77    0.56
   9   1   3    2.86    0.42
   9   1   3    1.93    0.36
   9  -1   3    2.00    0.36
  -9  -1  -3    2.20    0.34
   9  -1   3    2.81    0.50
   9   1   4    2.92    0.44
  -9   1  -4    3.19    0.47
   9  -1   4    2.22    0.53
   9  -1   4    2.75    0.40
  -9  -1  -4    2.29    0.35
  -9   1  -5   16.63    0.94
   9   1   5   19.01    0.98
  -9  -1  -5   19.54    0.85
   9  -1   5   19.56    1.04
  -9   1  -6    2.78    0.56
   9   1   6    1.42    0.54
  -9  -1  -6    1.35    0.55
   9  -1   6    1.58    0.66
  -9   1  -7    0.78    0.53
   9   1   7    0.40    0.51
   9  -1   7   -0.45    0.52
  -9   1  -8    1.32    0.62
   9   1   8    0.77    0.60
   9   1   8    1.88    0.89
  -9  -1  -8    2.09    0.62
   9  -1   8    0.70    0.61
   9   1   9   19.66    1.34
  -9   1  -9   16.66    1.53
   9   1   9   17.14    1.90
  -9  -1  -9   20.16    1.44
   9  -1   9   17.57    1.42
  -9   2  12   -0.27    0.76
   9   2 -12    0.18    0.79
   9  -2 -12   -1.07    0.78
   9   2 -11    1.99    1.12
   9   2 -11    2.34    0.70
  -9   2  11    2.53    1.01
   9  -2 -11    2.50    0.68
  -9   2  10    9.88    1.07
   9   2 -10   10.89    1.01
   9  -2 -10   10.40    0.99
  -9   2   9    2.20    0.57
   9   2  -9    2.85    0.68
   9   2  -9    1.51    0.84
   9  -2  -9    0.96    0.53
   9  -2  -9    2.41    0.63
   9   2  -8    2.15    0.51
   9   2  -8    1.95    0.52
  -9   2   8    1.29    0.44
   9  -2  -8    1.97    0.48
   9  -2  -8    1.47    0.49
   9   2  -7   -0.25    0.36
  -9   2   7    0.27    0.35
   9   2  -7   -0.56    0.35
   9  -2  -7    0.55    0.39
   9   2  -6    4.59    0.54
   9   2  -6    5.73    0.80
  -9   2   6    5.10    0.56
  -9  -2   6    4.04    0.56
   9  -2  -6    5.44    0.63
  -9   2   5  102.53    2.32
   9   2  -5  100.15    2.24
   9   2  -5   99.88    2.50
  -9  -2   5   99.38    2.36
   9  -2  -5  101.06    2.30
   9  -2  -5   99.43    2.48
   9   2  -4   44.64    1.29
   9   2  -4   44.75    1.45
  -9   2   4   45.56    1.31
   9   2  -4   45.43    1.31
  -9  -2   4   46.11    1.34
   9  -2  -4   45.12    1.46
   9  -2  -4   45.39    1.35
   9  -2  -4   45.23    1.25
  -9   2   3    0.64    0.30
   9   2  -3    0.35    0.26
   9   2  -3    1.08    0.30
  -9  -2   3    0.72    0.31
   9  -2  -3    0.98    0.31
   9  -2  -3    0.84    0.37
   9  -2  -3    0.28    0.29
   9   2  -2    5.12    0.51
   9   2  -2    4.45    0.57
  -9   2   2    4.21    0.50
   9   2  -2    3.38    0.47
  -9  -2   2    3.81    0.50
   9  -2  -2    3.85    0.54
   9  -2  -2    3.61    0.49
  -9   2   1   63.82    1.64
   9   2  -1   61.66    1.65
   9   2  -1   64.33    1.73
   9  -2  -1   63.35    1.65
   9  -2  -1   64.39    1.78
   9  -2  -1   60.32    1.78
  -9  -2   1   64.24    1.93
   9   2   0    8.90    0.56
   9   2   0    7.60    0.71
  -9   2   0    7.15    0.54
   9  -2   0    8.09    0.56
   9  -2   0    7.74    0.63
  -9  -2   0    7.95    0.68
   9   2   1    1.57    0.34
   9   2   1    1.55    0.32
   9  -2   1    1.10    0.28
   9  -2   1    1.79    0.32
  -9  -2  -1    1.46    0.38
   9   2   2    1.59    0.36
  -9   2  -2    1.94    0.33
   9   2   2    1.48    0.31
   9  -2   2    2.90    0.56
   9  -2   2    1.73    0.34
   9   2   3    3.30    0.54
   9   2   3    3.64    0.44
  -9   2  -3    4.83    0.56
   9  -2   3    3.99    0.56
   9  -2   3    3.74    0.60
   9   2   4    4.88    0.66
  -9   2  -4    4.57    0.65
   9  -2   4    4.07    0.54
   9  -2   4    6.00    0.64
   9   2   5    2.58    0.49
  -9   2  -5    4.07    0.62
   9  -2   5    2.86    0.59
  -9   2  -6    1.21    0.54
   9   2   6    0.41    0.47
   9  -2   6    0.75    0.50
  -9   2  -7    0.65    0.60
   9   2   7    0.44    0.53
   9  -2   7    0.90    0.55
  -9   2  -8    0.41    0.66
   9   2   8    0.10    0.61
   9  -2   8   -0.27    0.59
   9   2   9    3.46    0.80
  -9   2  -9    4.24    1.03
   9  -2   9    2.89    0.84
   9   3 -12    0.16    0.86
  -9   3  12    0.04    0.83
   9  -3 -12    1.38    0.91
   9   3 -11    4.89    1.05
   9   3 -11    4.50    0.81
  -9   3  11    2.88    0.71
   9  -3 -11    3.00    0.68
   9   3 -10   11.49    1.24
  -9   3  10   10.34    1.08
   9   3 -10   14.39    2.08
   9  -3 -10   13.33    1.13
  -9   3   9   13.17    1.03
   9   3  -9   12.11    1.13
   9   3  -9   12.34    1.25
   9  -3  -9   12.04    1.29
   9  -3  -9   12.34    1.02
   9   3  -8   -0.03    0.52
  -9   3   8    0.89    0.49
   9  -3  -8    0.94    0.54
   9   3  -7    1.00    0.49
  -9   3   7    0.75    0.43
   9   3  -7    1.99    0.44
   9  -3  -7    0.21    0.43
  -9  -3   7    0.98    0.53
   9  -3  -7    0.99    0.42
  -9   3   6    0.89    0.36
   9   3  -6    0.87    0.42
   9   3  -6    0.59    0.49
  -9  -3   6    1.25    0.48
   9  -3  -6    1.07    0.38
   9  -3  -6    0.86    0.42
   9   3  -5    5.58    0.58
  -9   3   5    4.68    0.58
   9   3  -5    4.65    0.73
   9   3  -5    4.10    0.59
   9  -3  -5    5.43    0.58
  -9  -3   5    4.76    0.72
   9  -3  -5    5.63    0.73
   9   3  -4   10.80    0.77
   9   3  -4   10.68    0.68
  -9   3   4   10.74    0.68
   9   3  -4   10.87    0.65
  -9  -3   4   11.01    0.71
   9  -3  -4   10.49    0.76
   9  -3  -4    9.71    0.78
   9  -3  -4   10.46    0.63
  -9   3   3    4.52    0.51
   9   3  -3    3.85    0.53
   9   3  -3    4.21    0.49
   9  -3  -3    4.38    0.59
   9  -3  -3    3.74    0.54
   9  -3  -3    3.72    0.48
  -9  -3   3    4.17    0.53
   9   3  -2   22.78    0.93
   9   3  -2   22.13    0.98
  -9   3   2   22.03    0.89
   9  -3  -2   23.51    1.03
  -9  -3   2   22.53    0.89
   9  -3  -2   22.22    0.93
   9  -3  -2   23.92    0.90
   9   3  -1   72.05    1.92
   9   3  -1   72.73    1.89
  -9   3   1   71.67    1.85
  -9  -3   1   73.43    2.02
   9  -3  -1   71.88    2.00
   9  -3  -1   72.73    1.66
   9  -3  -1   71.10    1.84
  -9   3   0    3.23    0.46
   9   3   0    2.58    0.37
   9   3   0    2.99    0.52
  -9  -3   0    4.01    0.57
   9  -3   0    2.72    0.38
  -9   3  -1    4.93    0.55
   9   3   1    3.87    0.53
   9   3   1    4.69    0.56
  -9  -3  -1    4.89    0.65
   9  -3   1    5.94    0.60
   9  -3   1    4.19    0.56
   9   3   2    0.26    0.33
  -9   3  -2    0.03    0.35
   9   3   2   -0.33    0.30
  -9  -3  -2   -0.19    0.46
   9  -3   2    0.56    0.32
   9  -3   2   -0.03    0.37
   9   3   3    7.99    0.73
  -9   3  -3    7.07    0.72
   9   3   3    9.38    0.68
   9  -3   3    9.26    0.75
   9  -3   3    8.67    0.78
  -9   3  -4   17.91    1.00
   9   3   4   19.34    1.03
   9  -3   4   15.47    1.02
   9  -3   4   19.01    1.07
  -9   3  -5   21.70    1.21
   9   3   5   22.08    1.16
   9  -3   5   21.38    1.18
   9   3   6    6.80    0.87
   9  -3   6    5.79    0.90
  -9   3  -7    0.70    0.64
   9   3   7    0.19    0.55
   9  -3   7   -0.63    0.57
   9   3   8    3.32    0.70
  -9   3  -8    2.48    0.84
   9  -3   8    3.67    0.77
   9   4 -11   23.68    2.09
   9   4 -11   26.00    2.58
   9  -4 -11   23.90    1.55
   9   4 -10   -0.30    1.06
   9   4 -10    2.62    0.83
  -9   4  10    1.03    0.66
   9  -4 -10    2.47    1.03
   9   4  -9    2.31    0.73
  -9   4   9    0.27    0.58
   9   4  -9    0.33    0.64
  -9  -4   9    1.68    0.62
   9  -4  -9    1.81    0.58
   9   4  -8    0.40    0.55
   9   4  -8   -1.06    0.55
  -9   4   8    0.10    0.54
   9  -4  -8   -0.17    0.64
  -9  -4   8    0.57    0.56
   9   4  -7    1.25    0.62
   9   4  -7    0.62    0.50
  -9  -4   7    0.46    0.62
   9  -4  -7    0.69    0.65
   9  -4  -7    1.33    0.53
   9   4  -6    3.02    0.54
  -9   4   6    3.23    0.53
   9   4  -6    2.68    0.53
   9   4  -6    2.94    0.59
   9  -4  -6    2.85    0.57
   9  -4  -6    3.30    0.54
  -9  -4   6    2.85    0.57
  -9   4   5    6.81    0.76
   9   4  -5    8.63    0.71
   9   4  -5    7.55    0.80
   9  -4  -5    8.35    0.86
   9  -4  -5    8.34    0.70
  -9  -4   5    8.02    0.84
  -9   4   4    7.98    0.73
   9   4  -4    8.19    1.00
   9   4  -4    8.60    0.70
   9  -4  -4    8.03    1.22
   9  -4  -4    7.77    0.64
  -9  -4   4    8.51    0.77
   9  -4  -4    8.40    0.78
  -9   4   3   -0.04    0.33
   9   4  -3   -0.12    0.32
   9   4  -3   -0.68    0.35
   9  -4  -3    0.28    0.31
  -9  -4   3    0.36    0.35
   9  -4  -3    0.06    0.39
   9  -4  -3    0.03    0.36
   9   4  -2    0.64    0.40
  -9   4   2    0.15    0.36
   9   4  -2    0.74    0.36
   9  -4  -2    0.23    0.32
   9  -4  -2    0.90    0.35
   9  -4  -2    0.26    0.37
  -9  -4   2    1.02    0.36
   9   4  -1    0.94    0.35
  -9   4   1    0.77    0.34
   9   4  -1    0.61    0.33
  -9  -4   1    0.75    0.35
   9  -4  -1   -0.13    0.31
   9  -4  -1    0.12    0.37
   9   4   0    8.15    0.71
  -9   4   0    7.83    0.72
   9   4   0    9.22    0.75
   9  -4   0    8.77    0.68
   9  -4   0    7.12    0.74
  -9  -4   0    8.17    1.11
   9   4   1   15.44    0.89
  -9   4  -1   14.86    0.90
   9   4   1   14.61    0.82
   9  -4   1   13.72    0.93
   9  -4   1   15.02    0.87
  -9  -4  -1   17.10    1.31
  -9   4  -2    0.63    0.43
   9   4   2    0.59    0.37
   9   4   2    0.49    0.39
   9  -4   2    0.64    0.40
  -9  -4  -2    0.58    0.41
   9  -4   2    0.97    0.44
  -9   4  -3    7.55    0.93
   9   4   3    8.17    0.81
   9  -4   3    7.42    0.89
   9  -4   3    5.99    0.84
   9  -4   4    3.49    0.58
   9  -4   4    3.04    0.58
   9   4   5   17.01    1.07
  -9   4  -5   17.59    1.15
   9  -4   5   17.83    1.14
   9  -4   5   16.27    1.13
  -9   4  -6   28.00    1.52
   9   4   6   27.35    1.38
   9  -4   6   31.23    1.45
  -9   4  -7    0.89    0.66
   9   4   7    0.83    0.63
   9  -4   7    2.10    1.14
   9   5 -10    4.09    1.03
  -9   5  10    1.94    0.82
   9   5 -10    2.88    0.94
  -9  -5  10    3.59    0.88
   9  -5 -10    3.42    0.83
   9   5  -9   22.02    1.53
   9   5  -9   21.57    1.42
  -9   5   9   19.11    1.36
   9  -5  -9   17.87    1.30
  -9  -5   9   19.86    1.32
  -9   5   8    3.94    0.66
   9   5  -8    5.35    0.75
   9   5  -8    4.05    0.79
   9  -5  -8    3.32    0.63
  -9  -5   8    4.71    0.71
   9  -5  -8    5.27    0.95
  -9   5   7   12.93    1.05
   9   5  -7   11.76    1.19
   9   5  -7   11.80    1.16
   9   5  -7   13.90    1.16
   9  -5  -7   12.06    1.32
   9  -5  -7   12.75    1.18
  -9  -5   7   11.94    1.13
   9   5  -6    8.17    1.08
  -9   5   6   11.15    0.97
   9   5  -6    9.13    1.07
  -9  -5   6    8.36    0.98
   9   5  -5    1.06    0.60
  -9   5   5    0.68    0.57
   9   5  -5    1.07    0.62
   9  -5  -5    0.98    0.53
   9  -5  -5    0.24    0.64
  -9   5   4   23.32    1.31
   9   5  -4   23.68    1.69
   9   5  -4   24.36    1.19
   9  -5  -4   24.86    1.07
  -9  -5   4   24.75    1.22
   9  -5  -4   23.93    1.32
   9   5  -3   10.16    0.85
   9   5  -3   11.67    0.94
  -9   5   3   10.71    0.88
   9  -5  -3   12.86    0.90
   9  -5  -3   11.86    1.03
  -9  -5   3   11.32    1.02
   9  -5  -3   10.90    1.06
   9   5  -2   18.45    1.03
  -9   5   2   20.98    1.11
   9   5  -2   18.41    1.12
  -9  -5   2   19.24    1.02
   9  -5  -2   20.45    0.84
   9  -5  -2   18.82    0.99
   9  -5  -2   18.79    1.17
  -9   5   1    6.80    0.77
   9   5  -1    4.40    0.78
   9   5  -1    7.18    0.78
   9  -5  -1    6.18    0.80
   9  -5  -1    6.28    0.86
  -9  -5   1    6.02    0.77
  -9   5   0    6.74    0.84
   9   5   0    5.72    0.78
   9   5   0    6.12    0.94
   9  -5   0    6.96    0.81
  -9  -5   0    5.43    0.75
   9  -5   0    8.13    0.92
   9   5   1    8.02    0.82
   9  -5   1    8.54    0.86
  -9  -5  -1    9.19    0.87
   9  -5   1    9.82    1.01
  -9   5  -2    0.19    0.48
   9   5   2    0.76    0.48
   9   5   2    0.05    0.44
   9  -5   2    0.66    0.65
   9  -5   2   -0.26    0.51
  -9  -5  -2    0.40    0.53
  -9   5  -3    7.66    0.89
   9   5   3    5.70    0.82
   9  -5   3    7.99    0.93
   9  -5   3    6.93    1.15
  -9   5  -4    4.33    0.71
   9   5   4    4.19    0.60
   9  -5   4    5.04    0.70
   9  -5   4    7.23    1.02
  -9   5  -5   -0.68    0.59
   9   5   5   -0.85    0.55
   9  -5   5   -0.01    0.70
   9  -5   5   -0.41    0.59
  -9   5  -6    2.08    0.71
   9   5   6    3.49    0.67
   9  -5   6    2.05    0.68
   9   5   7    1.55    0.76
   9   6  -9   18.56    1.82
   9   6  -9   15.42    1.79
  -9   6   9   17.16    1.56
   9  -6  -9   16.13    1.53
  -9  -6   9   18.92    1.63
   9   6  -8   11.60    1.39
   9   6  -8    7.78    1.01
  -9   6   8   10.22    1.25
   9  -6  -8   15.80    2.31
  -9  -6   8   10.03    1.11
   9  -6  -8    9.34    1.20
  -9   6   7    2.26    0.77
   9   6  -7    1.17    0.73
   9   6  -7    2.72    0.80
   9   6  -7    2.63    0.85
   9  -6  -7    0.95    0.88
  -9  -6   7    3.02    0.67
   9  -6  -7    0.16    1.35
   9   6  -6    0.50    0.67
  -9   6   6    3.02    0.67
   9   6  -6    1.84    0.72
  -9  -6   6    1.78    0.64
   9  -6  -6    1.17    0.58
   9  -6  -6    0.88    0.72
   9   6  -5    0.10    0.58
  -9   6   5   -0.14    0.54
   9   6  -5    0.22    0.56
   9  -6  -5   -0.17    0.63
   9  -6  -5    0.86    0.53
  -9  -6   5   -0.57    0.54
   9   6  -4    0.21    0.55
   9   6  -4    0.19    0.56
  -9   6   4   -0.23    0.70
   9  -6  -4    0.92    0.63
  -9  -6   4    0.91    0.54
   9  -6  -4    1.32    0.81
   9   6  -3   -0.21    0.51
  -9   6   3   -0.29    0.50
   9  -6  -3   -0.43    0.56
   9  -6  -3    0.35    0.50
  -9  -6   3   -0.39    0.55
   9   6  -2    4.35    0.66
   9   6  -2    4.31    0.72
  -9   6   2    4.93    0.68
   9  -6  -2    4.14    0.71
  -9  -6   2    4.57    0.69
   9  -6  -2    5.32    0.93
  -9   6   1   -0.05    0.50
   9   6  -1    0.87    0.49
   9   6  -1   -0.11    0.58
   9  -6  -1    1.17    0.56
  -9  -6   1    0.06    0.55
   9  -6  -1    0.72    0.63
   9   6   0    0.42    0.49
   9   6   0   -0.98    0.72
  -9   6   0   -0.17    0.52
  -9  -6   0    0.41    0.61
   9  -6   0    0.27    0.57
   9  -6   0    0.12    0.55
  -9   6  -1    2.27    0.59
   9   6   1    1.85    0.61
   9  -6   1    2.56    0.67
   9  -6   1    2.01    0.58
  -9  -6  -1    1.03    0.71
   9   6   2    3.73    0.63
   9   6   2    4.63    0.88
  -9   6  -2    3.48    0.67
   9  -6   2    5.88    0.96
   9  -6   2    4.54    0.76
  -9  -6  -2    4.93    0.82
  -9   6  -3   28.32    1.43
   9  -6   3   30.95    1.55
   9  -6   3   32.63    1.76
  -9  -6  -3   31.05    2.01
   9   6   4    6.36    1.00
  -9   6  -4    7.80    1.17
   9  -6   4    7.82    1.09
   9  -6   4    6.18    0.85
  -9   6  -5   -0.99    0.76
   9   6   5   -0.74    0.66
   9  -6   5    0.23    0.73
   9  -6   5    0.69    0.81
  -9   7   7    6.92    1.05
   9   7  -7    5.08    1.19
   9   7  -7    6.37    1.16
   9  -7  -7    6.02    0.90
  -9  -7   7    6.57    1.01
   9  -7  -7    6.57    1.21
   9   7  -6    1.89    0.80
   9   7  -6    3.33    0.82
  -9   7   6    1.99    0.76
   9  -7  -6    2.16    0.75
   9  -7  -6    3.32    0.93
  -9  -7   6    3.21    0.83
   9   7  -5    1.24    0.74
  -9   7   5    0.46    0.68
   9   7  -5   -0.86    0.66
  -9  -7   5    0.18    0.68
   9  -7  -5   -0.16    0.75
  -9   7   4   -0.07    0.66
   9   7  -4    0.30    0.63
   9   7  -4    0.25    0.72
  -9  -7   4    0.51    0.67
   9  -7  -4    0.02    0.61
   9  -7  -4    1.18    1.05
   9   7  -3    0.07    0.60
   9   7  -3   -0.39    0.69
  -9   7   3    0.01    0.63
   9  -7  -3    0.31    0.71
  -9  -7   3   -0.39    0.69
   9  -7  -3   -0.41    0.61
  -9   7   2    2.55    0.66
   9   7  -2    2.50    0.64
   9  -7  -2    1.71    0.76
   9  -7  -2    2.60    0.88
  -9  -7   2    1.04    0.67
   9   7  -1    0.23    0.67
   9   7  -1    0.43    0.58
  -9   7   1    0.89    0.62
  -9  -7   1   -0.46    0.75
   9  -7  -1   -0.31    0.73
   9  -7  -1   -0.85    0.68
  -9   7   0   -0.44    0.61
   9   7   0    0.49    0.58
   9   7   0   -1.20    0.71
  -9  -7   0    1.04    0.65
   9  -7   0   -0.91    0.67
   9  -7   0    0.68    0.64
   9   7   1   10.26    1.24
  -9   7  -1    9.67    1.28
   9   7   1   11.55    1.08
   9  -7   1   12.66    1.29
   9  -7   1   12.73    1.57
  -9  -7  -1   11.51    1.29
   9   7   2    0.87    0.67
  -9   7  -2    1.67    0.71
  -9  -7  -2    1.29    0.86
   9  -7   2   -0.17    0.68
   9  -7   2   -0.20    0.76
  -9   7  -3   14.72    1.50
   9   7   3   16.28    1.33
   9  -7   3   14.15    1.49
   9  -7   3   15.39    1.48
  -9  -7  -3   16.61    2.05
  -9   8   3    1.27    1.16
   9   8  -3    0.95    0.94
   9   8  -3    1.55    0.86
   9  -8  -3    1.94    1.22
  -9  -8   3    1.50    0.96
   9   8  -2    3.07    0.89
   9   8  -2    0.57    0.92
  -9   8   2    2.25    0.94
   9  -8  -2    1.90    0.98
  -9  -8   2    1.85    1.05
  -9   8   1    0.25    0.86
   9   8  -1   -0.42    0.80
   9  -8  -1   -0.97    0.93
   9  -8  -1    1.76    0.99
  -9  -8   1   -1.24    0.79
   9   8   0    0.68    0.91
  -9   8   0   -0.06    0.95
  -9  -8   0    0.91    0.88
   9  -8   0   -0.29    0.89
  10   0 -12    1.34    0.82
 -10   0  12   -0.38    1.11
  10   0 -11   -0.38    0.62
 -10   0  11   -0.45    0.64
  10   0 -10    0.03    0.57
  10   0 -10    1.11    0.81
 -10   0   9   -1.35    0.69
  10   0  -9   -0.03    0.49
  10   0  -9   -0.56    0.68
  10   0  -8    0.22    0.49
 -10   0   8    1.24    0.40
  10   0  -8    0.81    0.73
  10   0  -7    0.11    0.43
  10   0  -7    0.75    0.65
 -10   0   7   -0.23    0.35
  10   0  -6   23.60    0.96
  10   0  -6   23.28    1.09
 -10   0   6   24.65    0.88
  10   0  -5    0.22    0.35
  10   0  -5    0.27    0.29
  10   0  -5   -0.09    0.39
 -10   0   5   -0.34    0.28
  10   0  -4    0.29    0.36
 -10   0   4    0.44    0.32
  10   0  -4    1.15    0.34
  10   0  -4    1.16    0.30
  10   0  -3    0.00    0.29
  10   0  -3    0.07    0.31
  10   0  -3   -0.23    0.26
  10   0  -2   60.89    1.73
  10   0  -2   60.45    1.53
  10   0  -2   59.21    1.60
 -10   0   2   58.29    1.62
  10   0  -1    0.86    0.32
  10   0  -1    0.60    0.29
  10   0  -1    0.04    0.25
  10   0   0    0.66    0.31
  10   0   0    0.18    0.26
 -10   0   0   -0.22    0.31
  10   0   1    0.01    0.33
  10   0   2    2.16    0.38
 -10   0  -2    2.13    0.36
  10   0   2    1.80    0.38
 -10   0  -3    0.32    0.33
  10   0   3    0.13    0.35
  10   0   3    1.00    0.38
  10   0   4   36.58    1.55
 -10   0  -4   36.56    1.27
  10   0   5    0.98    0.47
 -10   0  -5    0.44    0.49
 -10   0  -6   -0.06    0.63
  10   0   6    0.62    0.58
  10   0   7   -0.52    0.57
 -10   0  -7   -0.67    0.62
  10   0   8   33.25    1.60
 -10   0  -8   33.55    1.60
  10   1 -12    1.35    0.91
  10  -1 -12    0.78    0.84
  10   1 -11    9.05    1.69
  10   1 -11   10.59    1.21
 -10   1  11    7.72    1.12
  10  -1 -11    8.02    1.15
 -10   1  10    0.17    0.55
  10   1 -10   -0.30    0.55
  10   1 -10    0.36    0.76
  10  -1 -10   -1.04    0.79
  10  -1 -10    0.07    0.55
 -10   1   9    0.69    0.51
  10   1  -9   -0.15    0.87
  10   1  -9   -0.07    0.50
  10  -1  -9   -0.36    0.60
  10  -1  -9    0.04    0.49
  10   1  -8    0.13    0.50
  10   1  -8   -0.10    0.50
  10  -1  -8    0.33    0.47
  10  -1  -8    0.05    0.51
  10   1  -7    4.14    0.63
  10   1  -7    3.84    0.54
  10  -1  -7    3.82    0.55
  10  -1  -7    5.15    0.87
  10   1  -6  101.81    2.50
  10   1  -6  103.92    2.68
 -10   1   6  107.16    2.38
  10  -1  -6  102.87    2.64
  10  -1  -6  106.79    2.54
  10   1  -5    4.25    0.66
  10   1  -5    3.63    0.51
  10   1  -5    3.85    0.49
 -10   1   5    4.53    0.48
  10  -1  -5    4.00    0.50
  10  -1  -5    4.03    0.72
  10   1  -4    6.02    0.64
  10   1  -4    7.97    0.53
  10   1  -4    6.22    0.61
 -10   1   4    7.28    0.54
  10  -1  -4    7.17    0.66
  10  -1  -4    6.21    0.54
  10  -1  -4    6.84    0.69
 -10   1   3    0.07    0.28
  10   1  -3    0.78    0.33
  10   1  -3    0.21    0.27
  10   1  -3    0.03    0.30
  10  -1  -3   -0.22    0.28
  10  -1  -3    0.52    0.31
  10  -1  -3   -0.12    0.30
  10   1  -2    0.00    0.27
  10   1  -2    0.02    0.25
  10   1  -2   -0.32    0.32
 -10   1   2    0.34    0.29
 -10  -1   2    0.16    0.36
  10  -1  -2    0.13    0.31
 -10  -1   2    0.39    0.33
  10   1  -1   10.02    0.63
 -10   1   1   10.08    0.60
  10   1  -1   11.55    0.69
 -10  -1   1    9.88    0.59
  10  -1  -1   10.98    0.60
  10  -1  -1   10.81    0.66
  10   1   0   -0.05    0.29
  10   1   0    0.02    0.31
  10   1   0   -0.29    0.27
 -10   1   0    0.56    0.28
 -10  -1   0    0.33    0.40
 -10  -1   0   -0.27    0.28
  10  -1   0   -0.45    0.27
  10  -1   0    0.11    0.33
  10   1   1    2.80    0.38
 -10   1  -1    3.96    0.50
  10   1   1    2.32    0.38
 -10  -1  -1    1.61    0.38
  10  -1   1    3.94    0.57
  10  -1   1    2.51    0.38
 -10   1  -2    1.77    0.54
  10   1   2    1.45    0.37
  10   1   2    1.56    0.37
  10  -1   2    1.45    0.38
 -10  -1  -2    2.33    0.36
  10  -1   2    1.52    0.40
  10   1   3   16.12    0.94
  10   1   3   17.18    0.80
 -10   1  -3   15.46    0.84
  10  -1   3   13.98    1.02
 -10  -1  -3   16.60    0.71
  10  -1   3   14.47    0.83
 -10   1  -4    1.33    0.49
  10   1   4    0.49    0.49
  10  -1   4    0.10    0.43
 -10  -1  -4    0.65    0.39
  10  -1   4    1.39    0.45
 -10   1  -5    0.64    0.54
  10   1   5    0.28    0.48
  10  -1   5    0.68    0.49
 -10  -1  -5   -0.63    0.45
 -10   1  -6    2.60    0.62
  10   1   6    4.53    0.65
  10  -1   6    3.62    0.63
 -10  -1  -6    2.75    0.66
 -10   1  -7    0.77    0.66
  10   1   7   -1.30    0.58
  10  -1   7    0.08    0.60
  10   1   8   37.83    1.94
 -10   1  -8   40.78    1.76
  10  -1   8   37.78    1.77
 -10   2  12   12.01    1.53
  10   2 -12   15.53    2.47
  10   2 -11    2.26    0.99
 -10   2  11    1.71    0.68
  10   2 -11    1.95    0.77
  10  -2 -11    0.79    0.70
  10   2 -10    0.50    0.61
  10   2 -10    1.04    0.78
 -10   2  10    1.88    0.61
  10  -2 -10    1.16    0.90
  10  -2 -10    0.69    0.59
 -10   2   9    0.23    0.53
  10   2  -9    0.74    0.88
  10   2  -9    0.56    0.64
  10  -2  -9   -0.23    0.82
  10  -2  -9   -1.12    0.50
  10   2  -8    2.42    0.65
  10   2  -8    2.99    0.62
  10  -2  -8    4.29    0.70
 -10   2   7   25.39    1.10
  10   2  -7   26.79    1.23
  10   2  -7   27.37    1.33
  10  -2  -7   25.69    1.24
  10  -2  -7   25.61    1.13
  10   2  -6   18.03    1.05
  10   2  -6   17.53    1.07
  10   2  -6   19.78    1.02
 -10   2   6   17.49    0.87
  10  -2  -6   18.09    1.06
 -10  -2   6   18.67    1.00
  10  -2  -6   19.56    0.90
 -10   2   5    8.52    0.61
  10   2  -5    6.84    0.65
  10   2  -5    7.44    0.77
  10   2  -5    6.41    0.63
  10  -2  -5    5.39    0.73
  10  -2  -5    6.95    0.61
 -10  -2   5    5.68    0.67
  10   2  -4    7.10    0.76
  10   2  -4    4.74    0.58
 -10   2   4    5.95    0.58
  10   2  -4    4.73    0.71
  10  -2  -4    6.39    0.69
  10  -2  -4    5.37    0.80
  10  -2  -4    5.74    0.55
 -10  -2   4    6.17    0.75
  10   2  -3    2.20    0.37
  10   2  -3    1.87    0.39
  10   2  -3    2.68    0.43
 -10   2   3    2.04    0.35
  10  -2  -3    2.28    0.36
  10  -2  -3    3.72    0.60
 -10  -2   3    2.46    0.44
  10  -2  -3    2.87    0.42
  10   2  -2   64.21    1.71
  10   2  -2   63.99    1.62
  10   2  -2   62.85    2.19
 -10   2   2   67.14    1.70
  10  -2  -2   63.26    1.69
 -10  -2   2   63.87    1.68
  10  -2  -2   63.84    1.60
  10  -2  -2   62.88    1.86
  10   2  -1   16.71    0.74
  10   2  -1   15.81    0.81
  10   2  -1   17.43    0.87
 -10   2   1   16.36    0.76
  10  -2  -1   16.73    0.91
  10  -2  -1   17.86    0.82
 -10  -2   1   16.96    0.82
  10   2   0    5.09    0.59
 -10   2   0    5.84    0.56
  10   2   0    6.31    0.62
  10   2   0    5.05    0.61
 -10  -2   0    6.16    0.73
  10  -2   0    5.98    0.66
  10  -2   0    5.55    0.73
 -10   2  -1   -0.26    0.31
  10   2   1    0.08    0.36
  10   2   1   -0.29    0.30
  10  -2   1    0.60    0.33
  10  -2   1    1.00    0.41
 -10   2  -2   -0.36    0.41
  10   2   2   -0.04    0.35
  10   2   2    0.28    0.37
  10  -2   2    0.00    0.38
  10  -2   2   -0.02    0.35
 -10   2  -3    7.83    0.77
  10   2   3    9.47    0.81
  10   2   3    5.99    0.68
  10  -2   3    7.95    0.82
  10  -2   3    8.50    0.75
 -10   2  -4   12.08    0.95
  10   2   4   10.96    1.02
  10  -2   4   14.58    1.09
  10  -2   4   11.69    0.96
 -10   2  -5    0.33    0.54
  10   2   5    0.60    0.49
  10  -2   5    0.88    0.50
 -10   2  -6    1.67    0.61
  10   2   6    0.01    0.55
  10  -2   6    0.26    0.53
 -10   2  -7    2.52    0.71
  10   2   7    2.17    0.62
  10  -2   7    1.21    0.67
  10   2   8    1.78    0.78
 -10   2  -8    0.54    0.85
  10  -2   8    0.31    0.78
  10   3 -11    1.58    0.83
 -10   3  11    1.80    0.77
  10   3 -11    1.44    1.15
  10  -3 -11    1.21    0.73
  10   3 -10    3.17    0.82
  10   3 -10    2.42    0.68
 -10   3  10    1.56    0.71
  10  -3 -10    3.34    0.65
 -10   3   9    0.59    0.58
  10   3  -9   -0.30    0.58
  10   3  -9    0.78    0.65
  10  -3  -9   -0.09    0.77
  10  -3  -9   -0.20    0.55
  10   3  -8    1.93    0.63
  10   3  -8    2.10    0.61
 -10   3   8    3.05    0.57
  10  -3  -8    1.15    0.54
 -10   3   7    5.00    0.66
  10  -3  -7    6.05    0.94
  10  -3  -7    5.39    1.05
  10   3  -6    2.24    0.54
 -10   3   6    1.68    0.44
  10   3  -6    1.63    0.47
  10   3  -6    0.58    0.43
  10  -3  -6    1.46    0.55
  10  -3  -6    1.03    0.43
  10   3  -5    0.03    0.37
  10   3  -5   -0.40    0.42
 -10   3   5   -0.85    0.38
  10   3  -5   -0.48    0.39
  10  -3  -5   -0.23    0.41
  10  -3  -5   -0.17    0.37
 -10  -3   5    0.74    0.41
 -10   3   4   -0.09    0.35
  10   3  -4    0.26    0.35
  10   3  -4   -0.22    0.42
  10   3  -4    0.59    0.34
  10  -3  -4    0.44    0.33
 -10  -3   4    0.50    0.38
  10  -3  -4   -0.43    0.39
  10  -3  -4    0.17    0.44
  10   3  -3   34.53    1.17
  10   3  -3   31.80    1.29
  10   3  -3   31.93    1.15
 -10   3   3   31.75    1.54
  10  -3  -3   31.71    1.15
 -10  -3   3   32.41    1.18
  10  -3  -3   32.63    1.03
  10  -3  -3   30.33    1.29
 -10   3   2   48.50    1.93
  10   3  -2   50.17    1.67
  10   3  -2   49.90    1.52
 -10  -3   2   51.96    1.51
  10  -3  -2   50.02    1.48
  10  -3  -2   49.64    1.67
  10  -3  -2   49.84    1.34
 -10   3   1    1.62    0.51
  10   3  -1    1.29    0.35
  10   3  -1    1.69    0.39
 -10  -3   1    1.05    0.37
  10  -3  -1    1.55    0.38
  10  -3  -1    1.15    0.43
  10   3   0    0.11    0.65
  10   3   0   -0.31    0.32
 -10   3   0    0.22    0.35
 -10  -3   0    0.44    0.38
  10  -3   0   -0.23    0.34
  10  -3   0    0.40    0.38
  10   3   1    3.39    0.50
 -10   3  -1    2.74    0.54
  10   3   1    2.41    0.45
  10  -3   1    2.43    0.48
  10  -3   1    2.89    0.49
  10   3   2    0.12    0.40
  10   3   2   -0.13    0.41
 -10   3  -2   -0.02    0.40
  10  -3   2   -0.17    0.39
  10  -3   2    0.09    0.46
  10   3   3    1.88    0.85
 -10   3  -3    3.30    0.56
  10  -3   3    2.27    0.50
 -10   3  -4   43.43    1.63
  10   3   4   42.16    1.61
  10  -3   4   42.08    1.55
  10  -3   4   41.85    1.64
  10   3   5   19.02    1.16
 -10   3  -5   20.85    1.22
  10  -3   5   16.74    1.15
  10   3   6   -0.92    0.61
 -10   3  -6   -0.39    0.61
  10  -3   6    0.41    0.57
 -10   3  -7    1.54    0.95
  10   3   7    2.26    0.66
  10  -3   7    1.38    1.04
 -10   4  10    0.41    0.72
  10   4 -10    1.58    0.86
  10   4 -10    2.09    0.79
  10  -4 -10    2.16    0.69
 -10   4   9    1.98    0.65
  10   4  -9    1.03    0.75
  10   4  -9    2.67    1.05
  10  -4  -9   -0.04    0.61
  10  -4  -9    1.52    0.88
 -10  -4   9    0.06    0.63
  10   4  -8   -0.65    0.62
 -10   4   8   -0.58    0.54
  10   4  -8   -0.87    0.61
 -10  -4   8   -0.29    0.60
  10  -4  -8   -0.20    0.56
  10  -4  -8    0.60    0.71
 -10   4   7    0.68    0.53
  10   4  -7    1.85    0.57
  10   4  -7    1.30    0.63
  10  -4  -7    1.28    0.55
  10  -4  -7    1.47    0.65
 -10  -4   7    2.12    0.56
  10   4  -6    6.87    1.03
  10   4  -6    7.45    0.93
 -10   4   6    7.51    0.92
  10   4  -6    7.47    0.99
 -10  -4   6    7.15    1.00
  10  -4  -6    8.21    0.90
  10   4  -5   11.19    1.00
  10   4  -5    8.97    0.89
 -10   4   5   10.11    0.91
  10  -4  -5    8.82    1.04
 -10  -4   5    8.72    1.29
  10  -4  -5   10.19    1.18
  10   4  -4    0.49    0.52
 -10   4   4    1.46    0.51
  10   4  -4    0.73    0.40
  10  -4  -4    0.39    0.40
  10  -4  -4    0.71    0.51
 -10  -4   4    0.91    0.49
  10   4  -3    2.85    0.50
  10   4  -3    3.64    0.58
  10  -4  -3    4.89    0.73
  10  -4  -3    2.72    0.41
  10  -4  -3    4.50    0.78
 -10  -4   3    2.20    0.52
  10   4  -2    2.27    0.50
  10   4  -2    2.12    0.47
  10  -4  -2    2.44    0.53
 -10  -4   2    1.52    0.44
  10  -4  -2    2.45    0.46
  10   4  -1    6.03    0.75
  10   4  -1    5.64    0.78
  10  -4  -1    6.21    0.71
 -10  -4   1    5.78    0.77
  10  -4  -1    7.53    0.89
  10   4   0    5.48    0.78
  10   4   0    6.89    0.78
  10  -4   0    9.28    0.89
 -10  -4   0    8.79    1.07
  10  -4   0    6.41    0.90
  10   4   1   -0.25    0.44
  10   4   1    0.46    0.57
 -10   4  -1    0.05    0.72
  10  -4   1    0.04    0.42
 -10  -4  -1    0.46    0.49
  10  -4   1    0.81    0.56
  10   4   2    9.30    0.86
 -10   4  -2   10.52    1.54
  10   4   2    8.59    0.82
  10  -4   2    9.32    1.06
  10  -4   2   10.26    1.01
 -10   4  -3    4.48    0.99
  10   4   3    5.63    0.83
  10  -4   3    6.26    0.89
  10  -4   3    3.52    0.84
  10   4   4   13.51    1.02
  10  -4   4   12.32    1.03
  10  -4   4   10.77    1.41
  10   4   5    8.84    1.03
  10  -4   5    9.40    1.09
  10   4   6    2.13    0.65
  10  -4   6    3.03    0.71
  10   5  -9    2.49    0.93
 -10   5   9    2.95    0.80
  10   5  -9    3.25    0.94
  10  -5  -9    2.93    0.76
  10  -5  -9    6.27    1.77
 -10  -5   9    4.21    0.89
 -10   5   8    2.13    0.67
  10   5  -8    0.56    0.76
  10   5  -8    1.23    0.67
  10  -5  -8    0.06    1.00
  10  -5  -8    0.12    0.84
 -10  -5   8    1.35    0.65
 -10   5   7    0.68    1.10
  10   5  -7    1.65    0.71
  10   5  -7    0.89    0.67
 -10  -5   7    1.79    0.70
  10  -5  -7    1.12    0.57
  10  -5  -7    2.10    0.77
  10   5  -6    1.03    0.91
 -10   5   6    2.28    0.55
  10   5  -6    0.20    0.59
  10   5  -6    1.00    0.64
  10  -5  -6    1.95    0.56
  10  -5  -6    0.12    0.63
 -10  -5   6    0.99    0.61
  10   5  -5    7.57    1.19
 -10   5   5    7.56    0.93
  10  -5  -5    9.36    1.13
 -10  -5   5    8.73    1.13
  10   5  -4    0.44    0.55
 -10   5   4   -0.35    0.49
 -10  -5   4    0.76    0.55
  10  -5  -4   -0.07    0.65
  10  -5  -4    0.31    0.61
  10   5  -3    1.68    1.00
 -10   5   3    1.72    0.56
  10  -5  -3    0.71    0.72
  10  -5  -3    2.36    0.63
  10  -5  -3    2.41    0.45
 -10   5   2    2.12    0.56
  10   5  -2    1.99    0.57
  10   5  -2    2.23    0.83
  10  -5  -2    2.48    0.58
 -10  -5   2    0.76    0.89
  10  -5  -2    2.08    0.63
  10   5  -1    1.50    0.52
  10   5  -1    1.32    0.73
 -10   5   1    1.22    0.54
 -10  -5   1    0.97    0.56
  10  -5  -1    1.32    0.63
 -10   5   0    5.70    0.76
  10   5   0    4.21    0.62
  10  -5   0    5.30    1.12
  10  -5   0    8.34    1.23
 -10  -5   0    6.37    0.99
  10   5   1    3.20    0.61
 -10   5  -1    3.67    0.63
  10   5   1    5.86    0.94
 -10  -5  -1    3.34    0.97
  10  -5   1    3.87    0.71
  10  -5   1    3.46    0.67
 -10   5  -2    1.09    0.59
  10   5   2    1.04    0.52
  10   5   2    0.92    0.97
  10  -5   2    1.54    0.59
  10  -5   2    0.82    0.54
  10   5   3   -0.33    0.58
 -10   5  -3    0.27    0.58
  10  -5   3    1.22    0.58
  10  -5   3   -0.52    0.66
 -10   5  -4   -0.21    0.62
  10   5   4    0.99    0.61
  10  -5   4    1.26    0.61
  10  -5   4    0.01    0.71
 -10   5  -5   -0.01    0.76
  10   5   5    1.01    0.65
  10  -5   5    0.95    0.72
 -10   6   8    7.45    1.00
  10   6  -8    9.67    1.60
  10   6  -8   10.55    1.68
  10  -6  -8    6.73    1.26
 -10  -6   8   11.82    1.58
  10  -6  -8    9.47    1.38
  10   6  -7    1.30    0.82
 -10   6   7    2.14    0.73
  10   6  -7    1.66    0.77
  10   6  -7    1.77    1.10
  10  -6  -7    3.04    0.92
  10  -6  -7    1.23    0.73
 -10  -6   7    0.36    0.75
  10   6  -6    0.47    0.78
  10   6  -6    1.22    0.78
 -10   6   6    1.45    0.65
 -10  -6   6   -0.65    0.69
  10  -6  -6   -0.27    0.89
  10  -6  -6    2.76    0.82
  10   6  -5    1.21    0.65
  10   6  -5   -1.11    0.64
 -10   6   5   -0.96    0.61
 -10  -6   5    1.59    0.67
  10  -6  -5    0.62    0.72
  10  -6  -5    0.40    0.61
  10   6  -4    4.82    0.71
 -10   6   4    3.29    0.67
  10   6  -4    3.58    0.72
  10  -6  -4    4.95    0.83
  10  -6  -4    5.59    0.68
 -10  -6   4    4.99    0.75
  10   6  -3   10.66    1.05
 -10   6   3   11.69    1.11
  10   6  -3   11.29    1.18
  10  -6  -3   10.73    1.35
 -10  -6   3   14.26    1.20
 -10   6   2    1.71    0.60
  10   6  -2    3.18    0.62
  10   6  -2    2.13    0.74
  10  -6  -2    2.62    0.69
 -10  -6   2    2.19    0.67
  10  -6  -2    2.95    1.02
 -10   6   1   -0.16    0.59
  10   6  -1    0.14    0.54
  10   6  -1    0.40    0.63
  10  -6  -1   -1.17    0.62
 -10  -6   1    0.56    0.63
  10  -6  -1    0.48    0.67
  10   6   0    6.66    1.07
 -10   6   0    5.02    0.73
  10   6   0    5.86    0.95
  10  -6   0    8.40    1.15
  10  -6   0    6.30    0.95
 -10  -6   0    7.48    1.17
  10   6   1   -0.54    0.66
 -10   6  -1    0.02    0.60
  10   6   1    0.36    0.56
 -10  -6  -1   -0.31    0.71
  10  -6   1   -0.22    0.68
  10  -6   1    0.77    0.63
  10   6   2   14.24    1.16
 -10   6  -2   19.56    1.35
  10  -6   2   15.55    1.33
  10  -6   2   16.89    1.29
  10   6   3   -0.10    0.65
 -10   6  -3    0.66    0.71
  10  -6   3    1.13    0.68
  10  -6   3    1.59    0.78
 -10   6  -4    4.64    0.97
  10   6   4    4.17    0.82
  10  -6   4    5.80    0.96
  10  -6   4    5.21    0.91
  10   7  -6   -1.27    0.93
 -10  -7   6   -0.32    1.26
  10  -7  -6   -0.49    1.04
  10  -7  -6   -1.69    0.80
  10   7  -5   -1.71    0.83
  10   7  -5    0.70    0.80
 -10   7   5   -0.70    0.78
  10  -7  -5   -0.74    0.73
 -10  -7   5   -0.90    0.86
  10   7  -4   -0.12    0.80
 -10   7   4    0.24    0.81
  10   7  -4    0.70    0.72
 -10  -7   4   -0.12    0.78
  10  -7  -4    0.51    0.87
 -10   7   3    1.10    0.87
  10   7  -3    0.62    0.66
  10   7  -3    0.46    0.78
  10  -7  -3    2.41    0.87
 -10  -7   3    2.11    0.99
  10   7  -2    0.03    0.74
  10   7  -2    0.36    1.19
 -10   7   2    0.61    0.75
  10  -7  -2    0.73    0.79
 -10  -7   2   -0.10    0.72
 -10   7   1    1.75    0.74
  10   7  -1    0.20    0.76
  10   7  -1    0.99    0.68
 -10  -7   1    0.77    0.76
  10  -7  -1    0.77    0.81
  10  -7  -1    0.72    0.81
 -10   7   0   23.89    1.61
  10   7   0   24.61    1.46
  10   7   0   26.69    1.54
 -10  -7   0   22.12    1.69
  10  -7   0   22.60    1.69
  10  -7   0   21.62    1.63
 -10   7  -1   55.40    2.25
  10   7   1   56.70    2.17
 -10  -7  -1   55.64    2.16
  10  -7   1   53.88    2.24
  10  -7   1   53.28    2.31
 -10   7  -2   21.90    2.41
  10   7   2   21.04    2.05
  10  -7   2   19.75    1.75
  10  -7   2   19.72    1.77
  11   0 -11    1.66    0.78
  11   0 -10    1.48    0.63
  11   0 -10    1.96    1.17
  11   0  -9   -0.28    0.54
  11   0  -9   -0.13    0.67
  11   0  -8   83.03    2.33
  11   0  -8   81.76    2.59
 -11   0   8   78.89    2.06
  11   0  -7    0.09    0.43
 -11   0   7   -0.39    0.40
  11   0  -7   -0.23    0.49
  11   0  -6    1.30    0.51
 -11   0   6    1.26    0.37
  11   0  -6    1.12    0.44
 -11   0   5    0.62    0.33
  11   0  -5   -0.28    0.34
  11   0  -5   -0.05    0.41
  11   0  -4    0.29    0.38
 -11   0   4   -0.33    0.33
  11   0  -4   -0.29    0.33
  11   0  -4    0.00    0.34
  11   0  -3    0.38    0.31
  11   0  -3   -0.64    0.37
 -11   0   3   -0.10    0.32
  11   0  -3    0.34    0.31
  11   0  -2   39.56    1.17
  11   0  -2   39.58    1.31
  11   0  -2   39.49    1.42
 -11   0   2   38.87    1.14
  11   0  -1   -0.08    0.31
  11   0  -1    0.14    0.38
 -11   0   1   -0.47    0.31
  11   0   0    2.29    0.42
 -11   0   0    3.66    0.57
  11   0   0    3.73    0.64
  11   0   1   -0.53    0.36
  11   0   1   -0.08    0.39
 -11   0  -1    0.74    0.34
  11   0   2   46.32    1.64
 -11   0  -2   48.35    1.37
  11   0   2   49.56    1.87
  11   0   3    0.56    0.75
  11   0   3   -0.78    0.48
 -11   0  -3    0.01    0.52
  11   0   4    1.41    0.56
 -11   0  -4    1.55    0.50
  11   0   5   -1.13    0.52
 -11   0  -6    2.05    0.91
  11   0   6    1.45    0.61
  11   0   7   -0.43    0.71
 -11   0  -7   -1.38    1.20
 -11   1  11    0.04    0.73
  11   1 -11   -0.99    0.99
  11   1 -11   -0.03    0.78
  11  -1 -11   -0.75    0.74
 -11   1  10    0.91    0.63
  11   1 -10   -0.41    0.61
  11   1 -10    0.08    0.76
  11  -1 -10    0.82    0.96
  11  -1 -10   -0.46    0.58
 -11   1   9    0.66    0.58
  11   1  -9    1.56    1.16
  11   1  -9    0.43    0.58
  11  -1  -9    1.12    0.55
  11  -1  -9   -0.61    0.66
  11   1  -8   19.59    1.17
  11   1  -8   18.08    1.28
 -11   1   8   17.57    1.17
  11  -1  -8   16.11    1.12
  11  -1  -8   18.23    1.29
 -11   1   7   34.24    1.24
  11   1  -7   29.71    2.32
  11   1  -7   34.42    1.58
  11  -1  -7   34.45    1.59
  11  -1  -7   35.53    1.43
 -11   1   6    1.49    0.39
  11   1  -6    0.33    0.44
  11   1  -6    0.86    0.51
  11  -1  -6    0.69    0.42
  11  -1  -6    0.93    0.52
  11   1  -5    0.16    0.38
  11   1  -5    1.05    0.41
  11   1  -5    1.12    0.47
 -11   1   5    0.49    0.35
  11  -1  -5    0.61    0.47
  11  -1  -5    1.16    0.39
  11   1  -4    9.57    0.66
  11   1  -4    9.07    0.70
  11   1  -4    6.69    0.87
 -11   1   4    7.97    0.60
  11  -1  -4    7.83    0.67
  11  -1  -4    8.58    1.23
  11  -1  -4    8.37    0.85
  11   1  -3    9.79    0.69
 -11   1   3   11.69    0.64
  11   1  -3    9.57    0.84
  11   1  -3   10.54    0.67
  11  -1  -3    9.97    0.84
  11  -1  -3   10.16    0.71
  11  -1  -3   10.60    0.66
  11   1  -2    0.79    0.32
  11   1  -2    1.48    0.35
  11  -1  -2    1.08    0.36
  11  -1  -2    1.60    0.42
  11  -1  -2    0.94    0.32
  11   1  -1    0.57    0.32
  11   1  -1    0.57    0.32
 -11   1   1    0.52    0.33
  11   1  -1    0.24    0.39
  11  -1  -1   -0.02    0.39
  11  -1  -1    0.62    0.35
  11   1   0    0.47    0.34
 -11   1   0    0.84    0.35
  11   1   0    0.43    0.38
  11  -1   0    0.04    0.35
  11  -1   0    0.25    0.41
  11   1   1    3.12    0.51
 -11   1  -1    4.31    0.57
  11  -1   1    3.17    0.53
  11  -1   1    3.23    0.52
  11   1   2   10.68    0.91
  11   1   2   14.79    1.16
 -11   1  -2   10.70    0.80
  11  -1   2   13.22    0.94
  11  -1   2   12.97    1.09
  11   1   3    0.06    0.56
 -11   1  -3    0.44    0.47
  11   1   3    0.45    0.44
  11  -1   3    0.62    0.46
  11  -1   3    0.33    0.50
 -11   1  -4   -0.41    0.57
  11   1   4   -0.28    0.48
  11  -1   4    1.54    0.53
 -11   1  -5    1.08    0.58
  11   1   5   -0.21    0.54
  11  -1   5   -0.90    0.51
  11   1   6    6.42    0.99
 -11   1  -6    7.56    0.86
  11  -1   6    5.73    0.76
 -11   1  -7   10.11    1.39
  11   1   7    8.46    1.26
  11  -1   7    7.17    0.96
 -11   2  11    4.25    0.78
  11   2 -11    0.23    0.88
  11   2 -11    2.90    1.18
  11  -2 -11    2.78    0.87
 -11   2  10    0.44    0.71
  11   2 -10    0.33    0.82
  11   2 -10   -1.35    0.65
  11  -2 -10    0.38    0.64
  11  -2 -10    1.67    0.94
  11   2  -9    3.90    0.65
  11   2  -9    2.84    0.78
 -11   2   9    3.45    0.66
  11  -2  -9    2.45    0.62
  11  -2  -9    3.61    0.80
  11   2  -8    9.21    1.14
 -11   2   8    6.00    0.75
  11   2  -8    6.13    0.74
  11  -2  -8    6.29    0.89
  11  -2  -8    7.14    1.17
  11   2  -7   18.91    1.18
  11   2  -7   19.54    1.24
 -11   2   7   18.25    1.06
 -11   2   6    5.75    0.80
  11   2  -6    5.38    1.13
  11   2  -6    6.69    0.83
  11  -2  -6    4.44    0.61
  11  -2  -6    6.12    1.06
 -11   2   5    0.75    0.38
  11   2  -5    0.67    0.41
  11   2  -5    1.35    0.49
 -11  -2   5    0.28    0.44
  11  -2  -5    0.68    0.50
  11  -2  -5    1.07    0.39
  11   2  -4    1.79    0.39
  11   2  -4    1.67    0.42
 -11   2   4    1.49    0.39
  11   2  -4    2.09    0.50
  11  -2  -4    1.87    0.40
 -11  -2   4    1.54    0.45
  11  -2  -4    1.87    0.48
  11  -2  -4    2.32    0.55
  11   2  -3    7.80    0.71
 -11   2   3    7.41    0.66
  11   2  -3    7.59    0.76
  11   2  -3    7.27    0.64
  11  -2  -3    7.34    0.83
  11  -2  -3    7.67    0.77
  11  -2  -3    8.82    0.62
 -11  -2   3    8.02    0.72
  11   2  -2    0.48    0.34
 -11   2   2    0.89    0.36
  11   2  -2    0.41    0.41
  11   2  -2    0.26    0.34
  11  -2  -2    0.07    0.37
  11  -2  -2   -0.07    0.44
 -11  -2   2    0.80    0.41
  11   2  -1    1.87    0.46
  11   2  -1    2.83    0.39
 -11   2   1    2.99    0.48
  11   2  -1    2.29    0.43
 -11  -2   1    2.47    0.52
  11  -2  -1    1.80    0.43
  11  -2  -1    2.23    0.51
  11   2   0    0.83    0.41
  11   2   0    0.31    0.42
 -11   2   0    0.81    0.40
  11  -2   0    1.27    0.44
  11  -2   0    0.48    0.45
  11   2   1    2.04    0.45
  11   2   1    2.14    0.48
 -11   2  -1    1.70    0.44
  11  -2   1    3.16    0.53
  11  -2   1    2.43    0.52
 -11   2  -2    2.25    0.82
  11   2   2    2.88    0.50
  11  -2   2    2.41    0.55
  11  -2   2    2.83    1.05
 -11   2  -3   24.42    1.78
  11   2   3   25.39    1.26
  11  -2   3   25.83    1.33
  11  -2   3   23.57    1.24
 -11   2  -4    1.38    0.56
  11   2   4    0.58    0.49
  11  -2   4    0.69    0.54
  11   2   5   -0.38    0.64
 -11   2  -5    0.15    0.60
  11  -2   5    0.55    0.56
  11   2   6   11.85    1.15
 -11   2  -6   12.57    1.20
  11  -2   6   11.89    1.17
 -11   2  -7   24.65    1.72
  11   2   7   21.67    1.61
  11  -2   7   26.38    1.79
  11   3 -10    0.22    0.84
 -11   3  10   -0.70    0.70
  11   3 -10    0.07    0.76
  11   3  -9    1.43    0.67
  11   3  -9    1.60    0.76
 -11   3   9   -0.93    0.95
  11  -3  -9    0.12    0.59
  11  -3  -9    2.27    0.83
  11   3  -8    0.89    0.58
  11   3  -8    1.36    0.65
 -11   3   8    1.23    0.59
  11  -3  -8    1.94    0.71
  11  -3  -8    1.42    0.57
  11   3  -7    7.00    1.05
 -11   3   7    5.75    0.93
  11   3  -7    5.08    0.92
 -11  -3   7    6.04    0.78
  11  -3  -7    3.98    0.63
  11  -3  -7    6.91    1.05
  11   3  -6    1.29    0.53
  11   3  -6    0.54    0.86
  11   3  -6    1.48    0.69
  11  -3  -6    2.14    0.55
  11  -3  -6    1.12    0.61
 -11  -3   6    1.21    0.59
  11   3  -5    0.26    0.65
 -11   3   5   -0.78    0.45
  11   3  -5   -0.02    0.46
  11   3  -5   -0.21    0.43
 -11  -3   5    0.36    0.50
  11  -3  -5    0.43    0.44
  11   3  -4   19.63    1.06
  11   3  -4   21.13    1.31
 -11   3   4   22.10    1.09
  11   3  -4   20.98    1.07
  11  -3  -4   22.12    1.83
  11  -3  -4   22.52    1.22
 -11  -3   4   20.88    1.16
 -11   3   3   33.57    1.33
  11   3  -3   36.28    1.28
  11   3  -3   35.67    1.35
  11   3  -3   37.26    1.49
  11  -3  -3   35.54    1.55
  11  -3  -3   36.56    1.36
 -11  -3   3   35.42    1.35
  11  -3  -3   35.69    1.15
  11   3  -2    6.13    0.76
  11   3  -2    9.65    0.89
  11   3  -2    8.63    0.71
 -11   3   2    6.37    0.80
 -11  -3   2    8.07    0.82
  11  -3  -2    7.82    1.00
  11  -3  -2    7.51    0.96
  11   3  -1    6.69    0.82
  11   3  -1    6.63    0.70
  11   3  -1    7.39    0.78
 -11   3   1    5.23    0.80
 -11  -3   1    6.95    0.81
  11  -3  -1    7.48    0.91
  11  -3  -1    6.02    0.79
  11   3   0    0.57    0.47
 -11   3   0    1.08    0.47
  11   3   0    1.46    0.41
  11   3   0    0.87    0.49
  11  -3   0    0.95    0.54
 -11  -3   0    1.63    0.62
  11  -3   0    0.63    0.46
  11   3   1    1.86    0.56
 -11   3  -1    2.04    0.54
  11   3   1    1.85    0.51
  11  -3   1    1.77    0.55
  11  -3   1    2.10    0.68
  11   3   2   11.11    0.99
  11   3   2   11.93    0.94
 -11   3  -2   13.06    1.18
  11  -3   2   12.53    1.05
  11  -3   2   13.91    1.20
 -11   3  -3   44.34    1.62
  11   3   3   41.85    1.80
  11  -3   3   43.11    1.68
  11   3   4    8.67    0.95
 -11   3  -4    7.86    1.06
  11  -3   4    8.14    1.00
 -11   3  -5    2.35    0.71
  11   3   5    4.15    0.66
  11  -3   5    3.06    0.63
 -11   3  -6   -0.63    0.76
  11   3   6   -0.22    0.77
  11  -3   6    0.12    0.72
  11   4 -10    2.39    1.09
 -11   4  10   -0.53    0.85
  11  -4 -10    0.14    1.00
  11   4  -9    0.12    0.75
 -11   4   9    1.03    0.70
  11   4  -9   -0.09    0.76
  11  -4  -9    1.58    0.94
  11  -4  -9   -0.03    0.65
  11   4  -8    0.29    0.66
 -11   4   8    0.44    0.66
  11   4  -8   -1.04    0.67
  11  -4  -8    1.62    0.78
 -11  -4   8    0.38    0.66
 -11   4   7    8.83    1.04
  11   4  -7    8.06    1.18
  11   4  -7    8.27    1.13
 -11  -4   7   11.12    1.19
  11  -4  -7    7.92    0.99
  11  -4  -7   10.53    1.23
  11   4  -6   17.94    1.34
  11   4  -6   15.32    1.13
 -11   4   6   15.82    1.10
  11   4  -6   16.61    1.25
 -11  -4   6   15.88    1.16
  11  -4  -6   16.53    1.10
  11  -4  -6   15.20    1.27
  11   4  -5    0.15    0.60
  11   4  -5    1.05    0.51
 -11   4   5    0.68    0.52
  11   4  -5   -0.65    0.56
 -11  -4   5    1.29    0.59
  11  -4  -5    1.27    0.64
  11  -4  -5    0.29    0.51
  11   4  -4   31.54    1.66
  11   4  -4   31.20    2.10
 -11   4   4   36.60    1.47
  11   4  -4   33.97    1.53
  11  -4  -4   34.83    1.75
  11  -4  -4   33.55    1.35
  11   4  -3   16.65    1.83
  11   4  -3   18.21    1.30
 -11   4   3   16.48    1.32
  11   4  -3   15.30    1.54
  11  -4  -3   16.27    1.20
 -11  -4   3   14.12    1.18
  11  -4  -3   13.82    1.07
 -11   4   2   14.94    1.39
 -11  -4   2   20.82    2.13
  11  -4  -2   15.20    1.06
  11  -4  -2   15.80    1.18
  11   4  -1    6.31    1.08
 -11   4   1    7.27    0.93
  11   4  -1    8.32    0.90
 -11  -4   1    7.37    1.00
  11  -4  -1    9.06    0.95
  11  -4  -1    9.63    1.00
 -11   4   0    0.40    0.51
  11   4   0    0.34    0.53
  11   4   0   -0.42    0.46
 -11  -4   0    0.46    0.61
  11  -4   0    0.21    0.53
  11   4   1   15.39    1.05
 -11   4  -1   13.00    1.08
  11   4   1   13.26    1.01
  11  -4   1   15.04    1.19
  11  -4   1   13.36    1.08
  11   4   2    4.84    0.66
 -11   4  -2    5.28    0.70
  11  -4   2    4.77    0.73
  11  -4   2    4.99    0.71
  11   4   3   -0.13    0.54
 -11   4  -3   -0.31    0.59
  11  -4   3    1.31    0.59
  11  -4   3    0.77    0.66
  11   4   4    2.44    0.65
 -11   4  -4    4.27    0.75
  11  -4   4    3.23    0.67
 -11   4  -5    1.50    0.77
  11   4   5    0.96    0.69
  11  -4   5   -0.21    0.71
 -11   5   8    2.42    0.81
  11   5  -8    1.19    0.86
  11   5  -8    1.52    0.86
  11  -5  -8    1.37    0.71
 -11  -5   8   -0.42    0.83
  11  -5  -8    3.03    0.94
 -11   5   7    1.01    1.12
  11   5  -7    0.61    0.70
  11   5  -7    0.42    0.74
  11  -5  -7    0.00    0.80
  11  -5  -7   -0.96    0.62
 -11  -5   7   -0.05    0.70
  11   5  -6    2.35    0.78
  11   5  -6    0.67    0.77
  11   5  -6    0.18    0.78
  11  -5  -6    1.66    0.76
  11  -5  -6    2.11    0.68
 -11  -5   6    2.05    0.74
 -11   5   5   -1.27    0.65
  11   5  -5    0.05    0.59
  11   5  -5    1.20    0.65
  11   5  -5   -0.38    0.79
  11  -5  -5    0.48    0.65
 -11  -5   5   -0.49    0.59
  11  -5  -5    0.65    0.57
  11   5  -4   -0.69    0.95
  11   5  -4   -0.18    0.58
 -11   5   4   -0.06    0.56
 -11  -5   4   -0.66    0.65
  11  -5  -4   -0.21    0.67
  11   5  -3    1.89    0.59
  11   5  -3    1.15    0.63
 -11   5   3    0.26    0.56
  11  -5  -3    1.44    0.63
 -11  -5   3    1.56    0.74
  11   5  -2    0.83    0.53
  11   5  -2    0.43    0.59
 -11   5   2   -0.58    0.52
  11  -5  -2    0.21    0.87
 -11  -5   2    0.16    0.64
  11  -5  -2   -0.40    0.61
  11   5  -1   -0.03    0.51
 -11   5   1   -0.65    0.56
  11   5  -1   -0.11    0.59
 -11  -5   1    0.02    0.68
  11  -5  -1    0.01    0.62
  11  -5  -1    0.55    0.65
 -11   5   0    1.24    0.61
  11   5   0    1.80    0.58
  11   5   0    1.71    0.66
  11  -5   0    2.19    0.69
  11  -5   0    1.84    0.62
  11   5   1    1.67    0.66
  11   5   1    2.14    0.60
  11  -5   1    0.88    0.65
  11  -5   1    1.64    0.62
  11   5   2   -0.20    0.56
 -11   5  -2   -0.69    0.64
  11  -5   2   -0.96    0.66
  11  -5   2   -0.16    0.61
 -11   5  -3    4.02    0.75
  11   5   3    2.96    0.68
  11  -5   3    4.98    0.77
  11  -5   3    2.58    0.77
  11   5   4    4.35    1.38
 -11   5  -4    2.78    0.87
  11  -5   4    4.07    0.88
  11  -5   4    4.71    0.98
  11   6  -7    1.11    1.13
 -11   6   7    1.58    1.05
  11   6  -7    1.13    1.58
 -11  -6   7   -1.04    1.10
  11  -6  -7    1.48    1.09
  11   6  -6    0.70    0.92
  11   6  -6   -1.26    0.85
 -11   6   6   -0.74    0.76
  11   6  -6   -0.03    0.82
 -11  -6   6   -1.32    0.82
  11  -6  -6    0.93    0.94
  11  -6  -6    1.14    0.70
 -11   6   5    3.88    0.80
  11   6  -5    4.50    1.11
  11   6  -5    4.57    0.88
  11  -6  -5    5.31    0.97
 -11  -6   5    4.98    0.90
  11  -6  -5    3.75    0.72
  11   6  -4    6.54    0.91
  11   6  -4    7.09    0.97
 -11   6   4    5.31    0.77
 -11  -6   4    8.36    1.34
  11  -6  -4    4.67    0.93
  11   6  -3    1.06    0.73
  11   6  -3    0.40    0.62
 -11   6   3    1.40    0.68
 -11  -6   3    0.12    0.70
  11  -6  -3    0.67    0.77
 -11   6   2    9.20    1.13
  11   6  -2    7.50    0.87
  11   6  -2    8.24    0.94
  11  -6  -2    7.37    1.32
 -11   6   1   26.24    1.51
  11   6  -1   23.47    1.55
  11   6  -1   24.16    1.41
 -11  -6   1   25.94    1.95
  11  -6  -1   26.50    1.49
  11  -6  -1   21.77    1.65
  11   6   0    5.43    0.81
  11   6   0    5.34    0.76
 -11   6   0    7.18    1.17
  11  -6   0    6.20    0.88
 -11  -6   0    4.32    1.07
  11  -6   0    5.65    0.87
  11   6   1    8.14    1.16
 -11   6  -1    6.93    0.90
  11  -6   1    7.29    0.96
  11  -6   1    7.73    1.25
  11   6   2    1.27    0.77
 -11   6  -2    1.71    0.83
  11   7  -3   -0.34    1.13
  11   7  -3    0.53    0.90
 -11  -7   3    0.42    0.92
  11   7  -2    1.73    0.97
  11   7  -2    3.68    0.97
 -11  -7   2    3.02    1.02
  12   0 -11    0.75    1.28
  12   0 -10    4.24    0.95
  12   0 -10    3.61    0.77
  12   0  -9    0.02    0.69
  12   0  -9   -1.21    0.61
  12   0  -8   57.68    2.08
  12   0  -8   55.63    1.92
  12   0  -7    0.62    0.58
  12   0  -7   -0.56    0.50
  12   0  -6   -0.03    0.54
  12   0  -6    0.62    0.52
  12   0  -5   -0.41    0.44
  12   0  -5    0.03    0.74
  12   0  -4   29.93    1.20
  12   0  -4   31.78    2.00
  12   0  -4   31.68    1.36
  12   0  -3    0.95    0.50
  12   0  -3    0.79    0.38
  12   0  -3    0.96    0.47
  12   0  -2    3.11    0.57
  12   0  -2    2.00    0.46
  12   0  -1    0.29    0.97
  12   0  -1    0.56    0.45
  12   0   0   10.91    1.27
  12   0   0    8.06    0.88
  12   0   1    0.80    0.54
  12   0   1   -0.74    0.50
  12   0   2    8.22    0.93
  12   0   2    7.60    0.97
  12   0   4    0.19    0.57
  12   0   5   -0.41    0.60
  12   0   6    0.13    0.78
  12   1 -10    1.24    0.88
  12   1 -10    1.49    0.72
  12  -1 -10    1.82    0.96
  12   1  -9   26.93    1.66
 -12   1   9   24.93    2.17
  12  -1  -9   28.72    2.15
  12  -1  -9   25.37    1.37
  12   1  -8   17.08    1.16
  12   1  -8   17.53    1.33
  12  -1  -8   16.92    1.36
  12  -1  -8   15.78    1.39
  12   1  -7   -0.60    0.50
 -12   1   7    0.65    0.52
  12   1  -7    0.71    0.62
  12  -1  -7    0.31    0.52
  12  -1  -7   -0.40    0.57
 -12   1   6    2.65    0.54
  12   1  -6    3.15    0.91
  12  -1  -6    1.91    0.63
  12  -1  -6    2.33    0.67
  12   1  -5    0.55    0.47
 -12   1   5    0.55    0.42
  12   1  -5    0.78    0.58
  12  -1  -5    0.14    0.59
  12  -1  -5   -0.45    0.43
  12   1  -4   10.16    0.81
  12   1  -4   10.83    1.58
 -12   1   4   10.77    0.74
  12   1  -4    8.91    1.27
  12  -1  -4    9.61    0.87
  12  -1  -4   11.46    0.86
  12   1  -3    6.06    0.72
  12   1  -3    6.51    0.76
  12   1  -3    6.93    0.93
 -12   1   3    6.62    0.66
  12  -1  -3    5.60    0.78
  12  -1  -3    5.17    0.86
  12  -1  -3    7.01    0.66
  12   1  -2    0.06    0.38
  12   1  -2    0.25    0.48
  12   1  -2    0.19    0.39
 -12   1   2   -0.06    0.37
  12  -1  -2    0.72    0.52
  12  -1  -2   -0.32    0.42
 -12   1   1    0.52    0.40
  12   1  -1    0.20    0.42
  12   1  -1    0.60    0.47
  12  -1  -1    0.06    0.50
  12  -1  -1    0.65    0.45
  12   1   0    3.18    0.60
 -12   1   0    2.54    0.46
  12   1   0    2.91    0.60
  12  -1   0    2.80    0.59
  12  -1   0    2.66    0.60
 -12   1  -1   -0.13    0.69
  12   1   1    0.58    0.52
  12   1   1    1.17    0.50
  12  -1   1    0.79    0.56
  12  -1   1    0.68    0.53
  12   1   2   10.27    0.93
 -12   1  -2    9.02    0.92
  12   1   2    9.39    0.93
  12  -1   2    8.59    0.98
  12  -1   2    8.19    0.96
  12   1   3   -0.10    0.51
 -12   1  -3   -1.50    0.97
  12  -1   3    0.56    0.53
  12  -1   3    0.56    0.63
 -12   1  -4    1.53    0.64
  12   1   4    0.05    0.56
  12  -1   4    0.22    0.60
 -12   1  -5    2.35    1.14
  12   1   5    0.90    0.64
  12  -1   5    0.15    0.64
  12   1   6   41.01    2.17
 -12   1  -6   41.48    1.77
  12  -1   6   35.68    1.93
 -12   2  10    1.36    0.76
  12   2 -10    1.48    0.96
  12   2 -10    1.73    0.86
  12  -2 -10    0.84    1.34
  12  -2 -10    1.68    0.79
  12   2  -9    2.37    0.69
  12   2  -9    2.01    0.79
 -12   2   9    0.44    0.74
  12  -2  -9    1.69    0.65
  12  -2  -9    3.15    0.96
  12   2  -8   -0.28    0.62
 -12   2   8    0.78    0.60
  12   2  -8   -0.57    0.65
  12  -2  -8   -0.51    0.58
  12  -2  -8    0.12    0.66
 -12   2   7    0.54    0.56
  12   2  -7    0.04    0.56
  12   2  -7    0.98    0.67
  12  -2  -7   -0.21    0.54
  12  -2  -7    0.29    0.64
  12   2  -6   -0.11    0.52
  12   2  -6    0.70    0.58
 -12   2   6   -0.30    0.53
  12  -2  -6    0.07    0.60
  12   2  -5    1.16    0.63
 -12   2   5    2.86    0.53
  12   2  -5    2.47    0.60
  12  -2  -5    3.19    0.73
  12  -2  -5    2.06    0.52
 -12   2   4   -0.36    0.45
  12   2  -4    0.82    0.57
  12   2  -4   -0.18    0.46
  12   2  -4   -0.20    0.45
  12  -2  -4   -0.33    0.42
  12  -2  -4    0.04    0.52
  12   2  -3    1.14    0.45
  12   2  -3    2.59    0.54
 -12   2   3    2.26    0.48
  12  -2  -3    1.90    0.69
  12  -2  -3    2.74    0.88
  12   2  -2    0.01    0.53
 -12   2   2   -0.40    0.43
  12   2  -2    0.53    0.45
 -12  -2   2    0.68    0.49
  12  -2  -2    0.20    0.47
  12   2  -1    1.37    0.56
 -12   2   1    1.13    0.47
  12   2  -1    0.92    0.49
  12  -2  -1    1.87    0.54
  12   2   0    2.10    0.59
 -12   2   0    2.32    0.51
  12   2   0    2.21    0.58
  12  -2   0    1.96    0.66
  12   2   1   39.99    1.53
 -12   2  -1   40.12    1.51
  12   2   1   39.83    1.57
  12  -2   1   37.68    1.59
  12   2   2   38.98    1.58
  12   2   2   36.20    1.50
 -12   2  -2   41.84    1.55
  12  -2   2   33.55    1.74
  12  -2   2   38.82    1.62
  12   2   3    0.66    0.54
 -12   2  -3    0.30    0.58
  12  -2   3    1.41    0.80
  12  -2   3    1.45    0.58
 -12   2  -4    2.20    0.64
  12   2   4    0.94    0.59
  12  -2   4    1.01    0.62
 -12   2  -5   12.88    1.25
  12   2   5    9.90    1.22
  12  -2   5   11.23    1.26
  12   3  -9   13.05    1.59
  12   3  -9    9.60    1.32
 -12   3   9    7.86    1.29
  12  -3  -9   11.08    1.45
  12  -3  -9   11.46    1.52
  12   3  -8   10.33    1.22
 -12   3   8   11.67    1.20
  12   3  -8    8.80    1.26
  12  -3  -8   11.35    1.29
  12  -3  -8    9.93    1.33
  12   3  -7    1.97    0.62
 -12   3   7    1.85    0.61
  12   3  -7    1.43    0.70
  12  -3  -7    2.57    0.61
  12  -3  -7    2.38    0.69
 -12   3   6    1.19    0.57
  12   3  -6    0.12    0.62
 -12  -3   6    1.24    0.62
  12  -3  -6    0.34    0.61
  12  -3  -6    0.63    0.55
  12   3  -5   22.28    1.50
  12   3  -5   21.40    1.33
  12   3  -5   18.64    1.19
 -12   3   5   21.22    1.19
  12  -3  -5   20.21    1.11
 -12  -3   5   18.94    1.35
  12  -3  -5   21.65    1.36
 -12   3   4   37.72    1.84
  12   3  -4   35.72    1.54
  12   3  -4   37.49    1.61
  12  -3  -4   38.22    1.66
  12  -3  -4   34.55    1.29
  12   3  -3   14.65    1.16
  12   3  -3   13.68    1.59
  12   3  -3   13.71    0.99
  12  -3  -3   12.42    1.15
 -12  -3   3   14.93    1.14
  12  -3  -3   13.01    1.35
  12   3  -2    0.36    0.49
  12   3  -2    0.78    0.57
  12   3  -2   -0.11    0.53
  12  -3  -2   -0.13    0.79
 -12  -3   2   -0.10    0.58
  12  -3  -2   -0.45    0.57
  12   3  -1    3.59    0.60
  12   3  -1    3.61    0.87
  12   3  -1    3.99    0.72
 -12   3   1    3.60    0.83
  12  -3  -1    4.48    1.00
  12  -3  -1    4.05    0.75
 -12   3   0    0.68    0.53
  12   3   0   -0.18    0.93
  12   3   0   -0.17    0.50
  12  -3   0    0.19    0.56
  12  -3   0   -0.58    0.54
  12   3   1    0.45    0.53
 -12   3  -1    0.48    0.57
  12  -3   1    1.36    0.58
  12  -3   1    0.63    0.63
  12   3   2   16.11    1.14
 -12   3  -2   15.83    1.17
  12  -3   2   18.36    1.29
  12  -3   2   17.09    1.18
  12   3   3    1.08    0.59
 -12   3  -3    0.56    0.63
  12  -3   3    2.12    0.71
  12  -3   3   -0.02    0.63
  12   3   4    1.86    0.66
 -12   3  -4    0.96    0.70
  12  -3   4    2.55    0.72
 -12   3  -5    6.19    0.93
  12   3   5    4.94    1.07
  12  -3   5    8.34    1.35
  12   4  -9    0.45    1.03
 -12   4   9    0.09    0.83
  12  -4  -9    1.68    1.14
  12  -4  -9    0.05    0.86
  12   4  -8    4.63    0.93
 -12   4   8    3.43    0.72
  12   4  -8    0.85    0.81
  12  -4  -8    2.08    0.70
  12  -4  -8    2.16    0.91
 -12   4   7    1.09    0.66
  12   4  -7    1.61    0.70
  12  -4  -7    2.65    0.76
 -12  -4   7    1.31    0.71
  12   4  -6    2.58    0.80
 -12   4   6    3.09    1.04
  12   4  -6    3.75    0.78
  12  -4  -6    2.21    0.62
  12  -4  -6    3.30    1.05
 -12  -4   6    3.13    0.74
  12   4  -5   29.00    1.54
  12   4  -5   30.21    1.43
 -12   4   5   26.78    1.42
  12   4  -5   29.74    1.53
  12  -4  -5   26.05    1.56
  12  -4  -5   27.46    1.31
 -12  -4   5   26.87    1.49
  12   4  -4    4.66    0.76
  12   4  -4    4.95    0.69
 -12   4   4    4.42    0.68
  12   4  -4    2.40    0.94
  12  -4  -4    4.80    0.78
 -12  -4   4    4.72    0.76
  12   4  -3    0.16    0.56
 -12   4   3    0.89    0.58
  12   4  -3    1.45    0.58
  12   4  -3    0.66    0.60
  12  -4  -3    0.66    0.63
 -12   4   2    1.88    0.58
  12   4  -2    2.07    0.65
  12   4  -2    1.51    0.64
  12   4  -2    2.29    0.60
  12  -4  -2    2.27    0.68
 -12  -4   2    2.48    0.96
  12   4  -1    0.80    0.54
 -12   4   1    1.19    0.62
  12   4  -1   -0.96    0.60
  12   4  -1    1.92    1.04
  12  -4  -1   -0.69    0.59
  12  -4  -1   -0.15    1.10
  12   4   0    2.29    0.61
  12   4   0    3.33    0.69
 -12   4   0    3.35    0.80
  12  -4   0    3.62    0.73
  12  -4   0    4.25    0.69
  12   4   1    0.63    0.67
 -12   4  -1   -0.12    0.61
  12   4   1    1.40    0.56
  12  -4   1   -0.86    0.66
  12  -4   1   -0.02    0.59
  12   4   2   -0.16    0.58
  12  -4   2   -1.22    0.75
  12  -4   2    1.33    0.62
  12   4   3    0.32    0.66
 -12   4  -3   -0.25    0.69
  12  -4   3    0.11    0.68
  12   4   4    2.93    0.81
 -12   4  -4    1.17    0.86
  12  -4   4    4.33    0.98
  12   5  -7    0.72    0.93
 -12   5   7    0.39    0.80
  12   5  -7    1.40    0.88
 -12  -5   7    1.33    0.95
  12  -5  -7    2.40    0.99
  12  -5  -7    2.53    0.75
 -12   5   6    2.27    0.72
  12   5  -6   -0.31    0.80
  12   5  -6    0.48    0.90
  12  -5  -6    0.97    0.82
  12  -5  -6    0.09    0.67
 -12  -5   6    0.86    0.79
  12   5  -5    3.83    0.90
  12   5  -5    2.26    0.69
  12   5  -5    1.56    0.75
 -12   5   5    3.26    0.72
 -12  -5   5    3.48    0.79
  12  -5  -5    3.93    0.89
  12   5  -4    0.58    0.80
 -12   5   4    0.93    0.65
  12   5  -4   -0.77    0.77
  12   5  -4    1.19    0.66
 -12  -5   4   -0.22    0.75
  12  -5  -4   -1.01    0.70
  12   5  -3    3.12    0.83
 -12   5   3    4.13    0.69
  12   5  -3    4.32    0.79
  12   5  -3    3.97    0.70
  12  -5  -3    5.71    0.84
 -12  -5   3    1.84    0.80
  12   5  -2    3.06    0.72
 -12   5   2    2.21    0.67
  12   5  -2    1.65    0.70
 -12  -5   2    1.72    1.00
  12  -5  -2    3.95    1.20
  12  -5  -2    2.17    0.75
  12   5  -1    1.99    0.64
 -12   5   1    3.21    0.69
  12   5  -1    3.43    0.72
  12  -5  -1    4.08    0.84
  12  -5  -1    2.58    0.77
 -12  -5   1    3.60    0.98
  12   5   0    7.05    1.09
 -12   5   0    7.26    0.84
  12   5   0    6.02    0.84
  12  -5   0    6.38    0.87
  12  -5   0    8.01    1.29
 -12   5  -1    2.15    0.71
  12   5   1    0.35    0.65
  12  -5   1    3.17    1.88
  12  -5   1    1.50    0.72
 -12   5  -2    8.98    1.08
  12   5   2   11.78    1.33
  12  -5   2   11.79    1.39
  12  -5   2   10.17    1.39
  12   6  -5    3.01    1.07
  12   6  -5    2.30    1.11
 -12  -6   5    3.49    1.19
  12  -6  -5    4.09    1.51
  12   6  -4    0.79    0.95
  12   6  -4    0.51    0.88
  12   6  -4    1.53    0.82
 -12   6   4    2.16    0.89
  12  -6  -4    1.69    1.22
 -12  -6   4   -1.66    0.92
  12   6  -3    3.43    0.90
 -12   6   3    5.73    0.92
  12   6  -3    4.08    0.96
  12   6  -2   21.22    1.84
 -12   6   2   24.01    1.61
  12   6  -2   18.98    1.64
  12  -6  -2   19.66    1.82
 -12  -6   2   18.41    1.92
 -12   6   1    4.41    0.88
  12   6  -1    4.87    0.92
  12   6  -1    1.73    0.90
  12  -6  -1    3.32    0.97
  12  -6  -1    2.98    1.06
 -12  -6   1    4.33    1.17
  12   6   0    0.90    0.84
 -12   6   0    0.14    1.02
  12  -6   0   -0.23    0.94
  12  -6   0    0.71    0.99
  13   0  -9    0.71    0.73
  13   0  -9    0.51    0.81
  13   0  -8    2.39    0.68
  13   0  -8    4.44    0.81
  13   0  -7    0.41    0.76
  13   0  -7   -0.62    0.60
  13   0  -6    0.86    0.59
  13   0  -6    1.01    0.64
  13   0  -5   -1.16    0.57
  13   0  -4    4.70    0.72
  13   0  -4    3.94    0.76
  13   0  -4    4.25    0.57
  13   0  -3    0.11    0.55
  13   0  -3    0.14    0.56
  13   0  -2    0.95    0.75
  13   0  -2    1.59    0.62
  13   0  -1    0.52    0.57
  13   0  -1    0.93    0.57
  13   0   0    0.08    0.55
  13   0   0    1.13    0.62
  13   0   1   -1.10    0.56
  13   0   2    1.79    0.72
  13   0   2    0.01    0.57
  13   0   3    0.22    0.62
  13   0   4    8.42    1.24
  13   1  -9   10.32    1.29
  13   1  -9    9.27    1.46
  13  -1  -9    8.42    1.25
  13  -1  -9    9.32    1.45
  13   1  -8    1.17    0.74
  13   1  -8   -0.95    0.67
  13  -1  -8    0.02    0.78
  13  -1  -8   -0.40    1.12
  13  -1  -7    0.22    0.57
  13   1  -6    5.48    0.83
  13   1  -6    7.75    0.97
  13  -1  -6    7.82    1.12
  13  -1  -6    7.20    0.95
  13   1  -5   14.76    1.17
  13   1  -5   13.92    1.08
  13  -1  -5   14.60    1.16
  13  -1  -5   15.70    1.30
  13   1  -4    0.03    0.62
  13   1  -4   -0.83    0.56
  13   1  -4   -0.67    0.52
  13  -1  -4    0.59    0.60
  13  -1  -4    0.36    0.59
  13   1  -3    1.39    0.77
  13   1  -3    2.19    0.76
  13   1  -3    1.31    0.91
  13  -1  -3    2.82    0.79
  13  -1  -3    1.83    0.64
  13   1  -2    0.28    0.69
  13   1  -2    0.91    0.61
  13  -1  -2   -0.11    0.57
  13  -1  -2    0.06    0.62
  13   1  -1    4.31    0.69
  13   1  -1    2.64    0.62
  13  -1  -1    4.09    0.73
  13  -1  -1    3.58    0.80
 -13   1   0   57.11    2.33
  13   1   0   63.55    2.09
  13   1   0   58.33    1.96
  13  -1   0   63.11    2.12
  13  -1   0   62.64    2.04
  13   1   1    5.08    0.88
  13   1   1    6.79    0.94
  13  -1   1    6.73    1.08
  13  -1   1    5.87    0.75
  13   1   2    0.87    0.60
  13  -1   2    1.82    0.73
  13  -1   2    2.71    0.81
  13   1   3    0.49    0.62
  13  -1   3    0.81    0.63
  13   1   4    0.98    0.76
  13  -1   4    0.09    0.73
  13   2  -9   -0.43    0.93
 -13   2   9    1.73    0.81
  13   2  -9    2.21    0.84
  13  -2  -9    1.37    0.97
  13  -2  -9   -0.25    0.75
 -13   2   8   -1.11    1.06
  13   2  -8   -0.18    0.69
  13   2  -8    0.09    0.75
  13  -2  -8    0.65    0.68
  13  -2  -8   -0.12    0.78
 -13   2   7    0.49    0.62
  13   2  -7    0.49    0.62
  13   2  -7    1.08    0.72
  13  -2  -7    0.84    0.81
  13  -2  -7    0.73    0.64
  13   2  -6    1.30    0.71
  13   2  -6    2.47    0.64
 -13   2   6    2.28    0.63
  13  -2  -6    2.66    0.61
  13  -2  -6    2.63    0.72
  13   2  -5    0.13    0.62
  13   2  -5    0.03    0.57
 -13   2   5    1.33    0.58
  13  -2  -5   -0.15    0.63
  13   2  -4    3.99    0.71
  13   2  -4    6.34    1.04
  13  -2  -4    4.70    0.78
  13   2  -3    0.62    0.54
  13   2  -3   -0.10    0.61
  13   2  -3   -0.98    0.58
  13  -2  -3    1.07    0.71
  13  -2  -3    0.45    0.63
  13   2  -2   -0.99    0.61
  13   2  -2    0.54    0.55
  13   2  -1    3.42    0.62
  13   2  -1    3.97    0.72
 -13   2   1    2.41    0.78
  13  -2  -1    3.82    0.71
  13  -2  -1    2.34    0.68
  13   2   0    4.96    0.71
  13   2   0    8.92    1.13
 -13   2   0    8.28    1.07
  13  -2   0    7.21    1.21
  13  -2   0    7.15    1.04
 -13   2  -1   23.00    1.32
  13   2   1   24.56    1.36
  13   2   1   26.19    1.60
  13  -2   1   22.72    1.48
  13  -2   1   21.36    1.42
  13   2   2    0.19    0.60
 -13   2  -2    0.05    0.66
  13  -2   2    0.78    0.68
  13  -2   2    0.94    0.70
  13   2   3    1.63    0.64
 -13   2  -3    1.50    0.71
  13  -2   3    1.03    0.68
 -13   2  -4   28.63    1.53
  13   2   4   25.25    1.68
  13  -2   4   23.63    1.66
  13   3  -8    3.02    0.99
 -13   3   8    3.09    0.75
  13  -3  -8    2.54    0.77
  13  -3  -8    2.84    0.97
  13   3  -7    1.25    0.86
  13   3  -7   -0.31    0.68
 -13   3   7   -0.53    0.69
  13  -3  -7    0.30    0.67
  13  -3  -7    1.77    1.34
  13   3  -6    4.34    0.73
  13   3  -6    3.72    0.82
 -13   3   6    1.99    0.69
  13  -3  -6    5.27    0.70
  13  -3  -6    3.51    0.78
 -13   3   5    0.61    0.60
  13   3  -5   -0.78    0.67
  13   3  -5    0.88    0.83
  13   3  -5   -1.10    0.61
  13  -3  -5    0.63    0.69
 -13   3   4    5.01    0.70
  13   3  -4    4.48    0.90
  13   3  -4    5.14    0.70
  13   3  -4    8.24    1.19
  13  -3  -4    6.45    0.97
 -13  -3   4    5.02    0.87
  13   3  -3    2.50    0.65
 -13   3   3   -0.01    0.58
  13   3  -3    0.79    0.59
  13   3  -3    0.01    0.64
 -13  -3   3    1.62    0.84
  13  -3  -3   -0.66    0.63
  13   3  -2    0.26    0.62
  13   3  -2   -0.05    0.58
 -13   3   2   -0.29    0.57
  13  -3  -2    1.53    0.76
  13  -3  -2   -0.59    0.65
  13   3  -1    0.76    0.57
  13   3  -1   -0.57    0.66
 -13   3   1    0.64    0.61
  13  -3  -1   -0.52    0.63
  13  -3  -1    0.45    0.67
  13   3   0    0.80    0.69
  13   3   0    0.62    0.59
  13  -3   0    1.49    0.64
  13  -3   0    1.65    0.69
  13   3   1    6.44    0.98
 -13   3  -1    6.61    0.86
  13   3   1    7.91    1.02
  13  -3   1    7.44    0.89
  13  -3   1    7.23    0.89
 -13   3  -2    0.84    0.71
  13   3   2    1.77    0.69
  13  -3   2    1.98    0.82
  13  -3   2    0.14    0.76
  13   3   3   -0.32    0.73
 -13   3  -3    0.37    0.77
  13  -3   3   -0.18    0.75
  13   4  -7    1.42    0.87
 -13   4   7    1.87    0.94
  13   4  -7    2.26    0.92
  13  -4  -7    2.42    0.98
  13  -4  -7    2.04    0.76
 -13   4   6   22.19    1.81
  13   4  -6   20.46    1.55
  13   4  -6   25.63    1.57
 -13  -4   6   21.47    1.61
  13  -4  -6   25.58    1.75
  13  -4  -6   19.86    1.83
  13   4  -5    5.72    0.90
 -13   4   5    8.68    1.10
  13   4  -5    7.52    1.27
  13   4  -5    7.24    1.07
  13  -4  -5   10.13    1.36
 -13  -4   5    7.49    1.12
  13   4  -4    0.49    0.66
  13   4  -4    1.76    0.76
 -13   4   4    1.63    1.05
  13  -4  -4    3.47    1.17
 -13  -4   4    2.92    0.85
 -13   4   3   -0.85    1.02
  13   4  -3   -0.05    0.71
  13   4  -3   -1.48    0.90
  13   4  -3   -0.29    0.65
  13  -4  -3    1.05    0.69
 -13  -4   3   -0.60    0.81
  13   4  -2    1.16    0.72
  13   4  -2    0.54    0.64
 -13   4   2    0.63    0.95
  13  -4  -2    0.91    0.72
  13  -4  -2    1.53    1.02
 -13   4   1    2.13    0.71
  13   4  -1    2.90    0.76
  13   4  -1    2.63    0.69
  13  -4  -1    4.36    0.89
  13   4   0    3.33    0.70
  13   4   0    3.87    0.82
 -13   4   0    3.89    0.75
  13  -4   0    5.42    0.85
  13  -4   0    4.18    0.79
  13   4   1    5.23    0.84
  13  -4   1    3.95    0.89
  13  -4   1    5.10    0.83
 -13   4  -2    0.48    0.82
  13   4   2    2.37    0.84
  13  -4   2    2.68    0.86
  13  -4   2    1.71    0.88
  13   5  -5   -0.07    0.85
  13   5  -5    1.24    0.99
  13   5  -5    0.01    1.12
 -13   5   5    1.00    0.83
  13  -5  -5   -0.74    1.08
 -13  -5   5   -0.23    0.94
 -13   5   4   12.90    1.50
  13   5  -4   17.75    1.80
  13   5  -4   18.36    1.47
  13   5  -4   13.95    1.61
 -13  -5   4   15.84    1.70
  13  -5  -4   17.05    1.76
  13   5  -3    8.43    1.32
  13   5  -3    9.42    1.14
  13   5  -3    8.85    1.30
 -13   5   3    8.39    1.00
 -13  -5   3   11.49    1.70
  13  -5  -3   12.90    1.69
  13   5  -2    2.42    0.82
  13   5  -2    1.55    1.30
  13   5  -2    1.24    0.90
 -13   5   2   -0.09    0.77
  13  -5  -2    1.42    0.95
  13   5  -1    8.21    1.31
  13   5  -1    4.93    0.99
 -13   5   1    7.10    0.93
  13  -5  -1    5.93    1.14
  13  -5  -1    4.81    1.08
  13   5   0   -1.60    0.85
 -13   5   0   -0.18    0.86
  13   5   0   -1.14    0.88
  13  -5   0    0.03    0.96
  13  -5   0    0.39    0.99
  14   0  -8    0.11    0.75
  14   0  -8    0.34    0.92
  14   0  -7    0.27    0.74
  14   0  -7    1.10    0.79
  14   0  -6    4.13    0.71
  14   0  -5   -1.10    1.24
  14   0  -5   -0.40    0.69
  14   0  -4   -0.33    0.69
  14   0  -3    1.49    0.79
  14   0  -3   -0.89    0.81
  14   0  -2    3.99    0.91
  14   0  -2    3.52    0.76
  14   0  -1    1.36    0.67
  14   0   0    0.09    0.64
  14   0   0    0.17    0.75
  14   0   1   -0.13    0.65
  14   1  -8   -0.09    0.81
  14   1  -8    1.81    0.98
  14  -1  -8    0.20    0.76
  14  -1  -8    1.50    1.08
  14   1  -7    0.20    0.84
  14   1  -7   -0.24    0.85
  14  -1  -7   -0.17    0.67
  14   1  -6   -0.45    0.72
  14   1  -6    1.96    0.80
  14  -1  -6    0.97    0.66
  14  -1  -6    2.19    0.85
  14   1  -5    2.36    0.65
  14   1  -5    0.38    0.71
  14  -1  -5    1.64    0.75
  14   1  -4   -0.26    0.69
  14  -1  -4    0.81    0.68
  14   1  -3    0.50    0.66
  14   1  -3    3.24    0.75
  14  -1  -3    1.87    0.92
  14  -1  -3    2.33    0.88
  14   1  -2   10.73    1.22
  14  -1  -2   11.58    1.33
  14  -1  -2   11.50    1.19
  14   1  -1   12.63    1.24
  14   1  -1   14.94    1.25
  14  -1  -1   14.00    1.30
  14  -1  -1   12.48    1.37
  14   1   0    7.53    0.87
  14   1   0    8.01    1.27
  14  -1   0    7.98    1.24
  14  -1   0    6.88    0.85
  14   1   1    0.81    0.66
  14  -1   1   -0.38    0.78
  14  -1   1    1.44    0.71
  14   1   2   -0.08    0.75
  14  -1   2    0.89    0.77
  14   2  -7    5.36    0.80
  14   2  -7    4.16    0.98
  14  -2  -7    4.54    0.77
  14  -2  -7    3.19    0.99
  14   2  -6   16.91    1.45
  14   2  -6   16.83    1.49
  14  -2  -6   10.74    1.71
  14  -2  -6   14.72    1.53
  14   2  -5    3.85    0.73
  14  -2  -5    3.26    1.13
  14   2  -4    1.36    0.87
  14   2  -4    0.41    0.71
  14  -2  -4    0.79    0.74
  14   2  -3    0.42    0.71
  14   2  -3    1.19    0.71
  14  -2  -3    0.11    0.73
 -14   2   2    7.63    1.25
  14   2  -2    5.54    0.85
  14   2  -2    4.57    0.80
  14  -2  -2    6.52    0.89
  14  -2  -2    5.49    0.89
  14   2  -1   29.45    1.85
  14   2  -1   29.14    1.55
  14  -2  -1   31.84    1.69
  14  -2  -1   30.06    1.67
  14   2   0   12.85    1.53
  14   2   0   15.00    1.22
 -14   2   0   12.29    1.14
  14  -2   0   16.64    1.37
  14  -2   0   15.02    1.46
  14   2   1    0.49    1.25
  14   2   1   -0.08    0.69
  14  -2   1    1.82    1.28
  14  -2   1    0.56    0.83
  14   2   2    0.09    0.80
  14  -2   2   -1.39    0.77
  14  -2   2    0.29    0.91
  14   3  -6    3.31    1.04
  14   3  -6    2.51    0.82
  14  -3  -6    5.23    1.08
  14   3  -5    4.00    0.77
 -14   3   5    3.46    0.76
  14   3  -5    1.87    0.89
  14  -3  -5    2.71    0.92
  14   3  -4    1.39    0.86
 -14   3   4   -0.82    0.72
  14   3  -4    2.06    0.84
  14   3  -4    0.85    0.71
  14  -3  -4    1.02    0.81
  14   3  -3    0.38    0.73
 -14   3   3   -0.29    0.70
  14   3  -3    1.35    0.77
  14  -3  -3   -0.75    0.76
 -14   3   2    0.19    0.70
  14   3  -2    1.77    0.69
  14  -3  -2    1.31    1.26
  14  -3  -2    2.08    0.81
  14   3  -1    0.98    0.83
  14   3  -1    1.12    0.67
 -14   3   1    0.73    0.70
  14  -3  -1   -0.01    0.79
  14  -3  -1    1.87    0.86
  14   3   0    0.20    0.71
  14   3   0    0.25    0.80
 -14   3   0    0.56    0.75
  14  -3   0   -0.34    0.80
  14  -3   0    0.30    0.79
 -14   3  -1    1.25    0.81
  14   3   1    1.24    0.86
  14  -3   1    1.10    0.88
  14  -3   1    1.30    0.89
  14   4  -4    0.48    0.95
  14   4  -4   -0.63    0.93
 -14   4   4   -1.66    0.83
  14   4  -4    0.45    0.80
 -14  -4   4    2.00    1.19
  14  -4  -4    1.18    1.03
  14   4  -3    0.63    0.87
 -14   4   3   -0.07    0.80
  14   4  -3    1.92    0.96
  14  -4  -3    0.74    0.97
 -14   4   2   -0.19    0.81
  14   4  -2    0.19    0.85
  14   4  -2   -0.39    0.91
  14   4  -1    2.66    1.06
 -14   4   1    2.16    0.87
  14   4  -1    2.60    0.93
  14  -4  -1   -0.04    0.98
  14  -4  -1    1.06    1.03
  15   0  -6   -0.40    1.20
  15   0  -5   -0.68    0.89
  15   0  -4    0.37    0.87
  15   0  -3    0.02    0.82
  15   0  -2   51.77    2.24
  15   0  -2   54.03    2.23
  15   0  -1    0.00    0.83
  15   0  -1    0.22    0.86
  15   0   0    1.13    0.91
  15   0   0    0.75    0.92
  15   1  -5    0.58    0.88
  15  -1  -5    0.70    0.98
  15   1  -4    1.85    1.01
  15  -1  -4   -1.06    0.88
  15   1  -3    4.61    1.18
  15   1  -3    2.50    0.89
  15  -1  -3    1.32    0.94
  15   1  -2   32.95    1.85
  15   1  -2   30.38    1.74
  15  -1  -2   27.19    2.09
  15  -1  -2   31.12    1.88
  15   1  -1    4.58    0.96
  15  -1  -1    2.83    0.94
  15  -1  -1    1.65    1.02
  15   1   0    3.79    0.99
  15   1   0    3.83    0.98
  15  -1   0    3.89    1.02
  15  -1   0    3.45    0.97
  15   2  -4   -1.74    0.97
  15  -2  -4    1.40    1.20
  15   2  -3    7.23    1.17
  15   2  -3    6.93    1.09
  15   2  -2    0.69    0.91
  15   2  -2   -0.40    0.85
  15  -2  -2    1.66    0.98
  15   2  -1    2.35    0.89
  15   2  -1    1.48    0.97
  15  -2  -1    2.38    1.01
  15  -2  -1    5.08    1.08
   0   0   0    0.00    0.00
;
_shelx_hkl_checksum              81143
loop_
_space_group_symop_operation_xyz
'x, y, z'
'-x, y+1/2, -z+1/2'
'-x, -y, -z'
'x, -y-1/2, z-1/2'
loop_
_atom_site_label
_atom_site_type_symbol
_atom_site_fract_x
_atom_site_fract_y
_atom_site_fract_z
_atom_site_U_iso_or_equiv
_atom_site_adp_type
_atom_site_occupancy
_atom_site_site_symmetry_order
_atom_site_calc_flag
_atom_site_refinement_flags_posn
_atom_site_refinement_flags_adp
C1 C 0.45083(8) 0.21137(12) 0.53804(9) 0.01164(15) Uani 1 1 d . .
H1 H 0.4178 0.3541 0.5637 0.014 Uiso 1 1 calc R U
C2 C 0.58953(8) 0.13430(12) 0.62028(9) 0.01105(14) Uani 1 1 d . .
C3 C 0.68279(8) 0.26450(13) 0.74337(9) 0.01383(16) Uani 1 1 d . .
H3 H 0.6506 0.4071 0.7705 0.017 Uiso 1 1 calc R U
C4 C 0.81765(9) 0.18645(15) 0.82257(10) 0.01677(17) Uani 1 1 d . .
H4 H 0.8778 0.2744 0.9048 0.020 Uiso 1 1 calc R U
C5 C 0.36002(8) 0.08143(12) 0.41855(9) 0.01100(14) Uani 1 1 d . .
C6 C 0.21725(8) 0.15599(13) 0.33458(10) 0.01455(16) Uani 1 1 d . .
H6 H 0.1818 0.2970 0.3604 0.017 Uiso 1 1 calc R U
C7 C 0.13137(9) 0.02630(15) 0.21763(10) 0.01700(17) Uani 1 1 d . .
H7 H 0.0371 0.0783 0.1627 0.020 Uiso 1 1 calc R U
loop_
_atom_site_aniso_label
_atom_site_aniso_U_11
_atom_site_aniso_U_22
_atom_site_aniso_U_33
_atom_site_aniso_U_23
_atom_site_aniso_U_13
_atom_site_aniso_U_12
C1 0.0131(3) 0.0095(3) 0.0127(3) -0.0004(2) 0.0039(2) 0.0005(2)
C2 0.0123(3) 0.0108(3) 0.0105(3) -0.0003(2) 0.0035(2) -0.0003(2)
C3 0.0152(3) 0.0137(3) 0.0130(3) -0.0024(2) 0.0039(2) -0.0017(2)
C4 0.0152(3) 0.0195(4) 0.0147(3) -0.0022(3) 0.0013(3) -0.0028(3)
C5 0.0117(3) 0.0107(3) 0.0109(3) 0.0008(2) 0.0033(2) 0.0004(2)
C6 0.0126(3) 0.0147(3) 0.0163(3) 0.0016(2) 0.0030(2) 0.0020(2)
C7 0.0129(3) 0.0202(4) 0.0171(4) 0.0015(3) 0.0015(3) 0.0005(3)
loop_
_atom_type_symbol
_atom_type_description
_atom_type_scat_dispersion_real
_atom_type_scat_dispersion_imag
_atom_type_scat_source
C C 0.0033 0.0016 'International Tables Vol C Tables 4.2.6.8 and 6.1.1.4'
H H 0.0000 0.0000 'International Tables Vol C Tables 4.2.6.8 and 6.1.1.4'
loop_
_geom_angle_atom_site_label_1
_geom_angle_atom_site_label_2
_geom_angle_atom_site_label_3
_geom_angle
_geom_angle_site_symmetry_3
C5 C1 C2 121.12(6) .
C1 C2 C3 121.69(7) .
C1 C2 C5 119.60(6) 3_656
C3 C2 C5 118.71(7) 3_656
C4 C3 C2 120.88(7) .
C3 C4 C7 120.40(7) 3_656
C1 C5 C6 121.98(7) .
C1 C5 C2 119.27(7) 3_656
C6 C5 C2 118.75(7) 3_656
C7 C6 C5 120.72(7) .
C6 C7 C4 120.52(7) 3_656
loop_
_geom_bond_atom_site_label_1
_geom_bond_atom_site_label_2
_geom_bond_distance
_geom_bond_site_symmetry_2
C1 C5 1.4014(10) .
C1 C2 1.4021(10) .
C2 C3 1.4304(10) .
C2 C5 1.4379(10) 3_656
C3 C4 1.3676(11) .
C4 C7 1.4272(12) 3_656
C5 C6 1.4323(10) .
C5 C2 1.4379(10) 3_656
C6 C7 1.3679(11) .
C7 C4 1.4272(12) 3_656
