#------------------------------------------------------------------------------
#$Date: 2016-02-18 17:37:37 +0200 (Thu, 18 Feb 2016) $
#$Revision: 176729 $
#$URL: svn://www.crystallography.net/cod/cif/1/51/84/1518447.cif $
#------------------------------------------------------------------------------
#
# This file is available in the Crystallography Open Database (COD),
# http://www.crystallography.net/
#
# All data on this site have been placed in the public domain by the
# contributors.
#
data_1518447
loop_
_publ_author_name
'San, Long K.'
'Bukovsky, Eric V.'
'Larson, Bryon W.'
'Whitaker, James B.'
'Deng, S. H. M.'
'Kopidakis, Nikos'
'Rumbles, Garry'
'Popov, Alexey A.'
'Chen, Yu-Sheng'
'Wang, Xue-Bin'
'Boltalina, Olga V.'
'Strauss, Steven H.'
_publ_section_title
;
 A faux hawk fullerene with PCBM-like properties
;
_journal_issue                   3
_journal_name_full               'Chem. Sci.'
_journal_page_first              1801
_journal_paper_doi               10.1039/C4SC02970D
_journal_volume                  6
_journal_year                    2015
_chemical_formula_moiety         '1(C67 F6)'
_chemical_formula_sum            'C67 F6'
_chemical_formula_weight         918.67
_space_group_crystal_system      orthorhombic
_space_group_IT_number           61
_space_group_name_Hall           '-P 2ac 2ab'
_space_group_name_H-M_alt        'P b c a'
_symmetry_space_group_name_Hall  '-P 2ac 2ab'
_symmetry_space_group_name_H-M   'P b c a'
_audit_creation_date             2014-09-13
_audit_creation_method
;
Olex2 1.2
(compiled 2014.06.27 svn.r2953 for OlexSys, GUI svn.r4855)
;
_cell_angle_alpha                90
_cell_angle_beta                 90
_cell_angle_gamma                90
_cell_formula_units_Z            8
_cell_length_a                   9.9998(6)
_cell_length_b                   20.6538(12)
_cell_length_c                   31.3512(18)
_cell_measurement_reflns_used    6627
_cell_measurement_temperature    15(2)
_cell_measurement_theta_max      17.66
_cell_measurement_theta_min      2.33
_cell_volume                     6475.1(7)
_computing_cell_refinement       'SAINT v8.34A (Bruker, 2013)'
_computing_data_collection       'Bruker APEX2 (Bruker, 2009)'
_computing_data_reduction        'SAINT v8.34A (Bruker, 2013)'
_computing_molecular_graphics    'Olex2 (Dolomanov et al., 2009)'
_computing_publication_material  'Olex2 (Dolomanov et al., 2009)'
_computing_structure_refinement  'XL (Sheldrick, 2008)'
_computing_structure_solution    'XS (Sheldrick, 2008)'
_diffrn_ambient_temperature      15(2)
_diffrn_measured_fraction_theta_full 0.970
_diffrn_measured_fraction_theta_max 0.965
_diffrn_measurement_device_type  'Bruker D8 goniometer'
_diffrn_measurement_method       'omega and phi scans'
_diffrn_radiation_monochromator  'diamond 1 1 1'
_diffrn_radiation_type           synchrotron
_diffrn_radiation_wavelength     0.41328
_diffrn_reflns_av_R_equivalents  0.0811
_diffrn_reflns_av_unetI/netI     0.0488
_diffrn_reflns_Laue_measured_fraction_full 0.970
_diffrn_reflns_Laue_measured_fraction_max 0.965
_diffrn_reflns_limit_h_max       12
_diffrn_reflns_limit_h_min       0
_diffrn_reflns_limit_k_max       25
_diffrn_reflns_limit_k_min       0
_diffrn_reflns_limit_l_max       38
_diffrn_reflns_limit_l_min       0
_diffrn_reflns_number            9670
_diffrn_reflns_point_group_measured_fraction_full 0.970
_diffrn_reflns_point_group_measured_fraction_max 0.965
_diffrn_reflns_theta_full        14.357
_diffrn_reflns_theta_max         14.968
_diffrn_reflns_theta_min         1.147
_diffrn_source                   'APS beamline 15ID-B'
_diffrn_standards_interval_count 0
_diffrn_standards_number         0
_exptl_absorpt_coefficient_mu    0.053
_exptl_absorpt_correction_T_max  0.7442
_exptl_absorpt_correction_T_min  0.6681
_exptl_absorpt_correction_type   multi-scan
_exptl_absorpt_process_details
;
 TWINABS-2012/1 (Bruker,2012) was used for absorption correction.
 
For component 1:
 wR2(int) was 0.0631 before and 0.0588 after correction.
 The Ratio of minimum to maximum transmission is 0.90.
 The \l/2 correction factor is Not present

Final HKLF 4 output contains 165558 reflections, Rint = 0.0811
 (39657 with I > 3sig(I), Rint = 0.0579)
;
_exptl_crystal_colour            'clear dark brown'
_exptl_crystal_colour_lustre     clear
_exptl_crystal_colour_modifier   dark
_exptl_crystal_colour_primary    brown
_exptl_crystal_density_diffrn    1.885
_exptl_crystal_density_method    'not measured'
_exptl_crystal_description       plate
_exptl_crystal_F_000             3648
_exptl_crystal_recrystallization_method 'evaporation from CS2'
_exptl_crystal_size_max          0.10
_exptl_crystal_size_mid          0.10
_exptl_crystal_size_min          0.01
_refine_diff_density_max         0.473
_refine_diff_density_min         -0.412
_refine_diff_density_rms         0.072
_refine_ls_extinction_method     none
_refine_ls_goodness_of_fit_ref   1.215
_refine_ls_hydrogen_treatment    undef
_refine_ls_matrix_type           full
_refine_ls_number_parameters     1135
_refine_ls_number_reflns         9670
_refine_ls_number_restraints     1890
_refine_ls_restrained_S_all      1.121
_refine_ls_R_factor_all          0.0865
_refine_ls_R_factor_gt           0.0732
_refine_ls_shift/su_max          0.000
_refine_ls_shift/su_mean         0.000
_refine_ls_structure_factor_coef Fsqd
_refine_ls_weighting_details
'w=1/[\s^2^(Fo^2^)+(0.0232P)^2^+17.2506P] where P=(Fo^2^+2Fc^2^)/3'
_refine_ls_weighting_scheme      calc
_refine_ls_wR_factor_gt          0.1576
_refine_ls_wR_factor_ref         0.1633
_reflns_Friedel_coverage         0.000
_reflns_number_gt                8340
_reflns_number_total             9670
_reflns_threshold_expression     'I > 2\s(I)'
_cod_data_source_file            c4sc02970d2.cif
_cod_data_source_block           added_by_encifer
_cod_depositor_comments          'Adding full bibliography for 1518447.cif.'
_cod_database_code               1518447
#BEGIN Tags that were not found in dictionaries:
_shelxl_version_number           2014-3
_shelx_space_group_comment
;
The symmetry employed for this shelxl refinement is uniquely defined
by the following loop, which should always be used as a source of
symmetry information in preference to the above space-group names.
They are only intended as comments.
;
_olex2_refinement_description
;
1. Uiso/Uaniso restraints and constraints
Uanis(C1A) = Uanis(C1)
Uanis(F5) = Uanis(F5A)
Uanis(F1A) = Uanis(F2)
Uanis(F2A) = Uanis(F1)
Uanis(F3) = Uanis(F3A)
Uanis(F4A) = Uanis(F6)
Uanis(F4) = Uanis(F6A)
Uanis(C5) = Uanis(C5A)
Uanis(C4A) = Uanis(C6)
Uanis(C3A) = Uanis(C7)
Uanis(C7A) = Uanis(C3)
Uanis(C6A) = Uanis(C4)
Uanis(C2A) = Uanis(C2)
Uanis(C10) = Uanis(C34A)
Uanis(C22A) = Uanis(C60)
Uanis(C57) = Uanis(C57A)
Uanis(C36) = Uanis(C36A)
2. Rigid body (RIGU) restrains
 All non-hydrogen atoms
 with sigma for 1-2 distances of 0.004 and sigma for 1-3 distances of 0.004
3. Others
 Sof(C33A)=Sof(C13A)=Sof(C10A)=Sof(C19A)=Sof(C53A)=Sof(C54A)=Sof(C55A)=
 Sof(C64A)=Sof(C42A)=Sof(C41A)=Sof(C65A)=Sof(C63A)=Sof(C17A)=Sof(C18A)=
 Sof(C14A)=Sof(C34A)=Sof(C56A)=Sof(C57A)=Sof(C6A)=Sof(C5A)=Sof(C4A)=Sof(C3A)=
 Sof(F1A)=Sof(F2A)=Sof(F6A)=Sof(F5A)=Sof(F4A)=Sof(F3A)=Sof(C9A)=Sof(C8A)=
 Sof(C7A)=Sof(C2A)=Sof(C1A)=Sof(C37A)=Sof(C32A)=Sof(C31A)=Sof(C30A)=Sof(C66A)=
 Sof(C40A)=Sof(C35A)=Sof(C36A)=Sof(C38A)=Sof(C39A)=Sof(C20A)=Sof(C21A)=
 Sof(C51A)=Sof(C50A)=Sof(C49A)=Sof(C28A)=Sof(C60A)=Sof(C61A)=Sof(C62A)=
 Sof(C29A)=Sof(C52A)=Sof(C45A)=Sof(C44A)=Sof(C43A)=Sof(C67A)=Sof(C58A)=
 Sof(C59A)=Sof(C22A)=Sof(C23A)=Sof(C24A)=Sof(C26A)=Sof(C27A)=Sof(C15A)=
 Sof(C16A)=Sof(C25A)=Sof(C48A)=Sof(C11A)=Sof(C12A)=Sof(C46A)=Sof(C47A)=1-FVAR(1)
 Sof(C3)=Sof(C4)=Sof(C5)=Sof(C6)=Sof(C7)=Sof(C8)=Sof(C2)=Sof(C1)=Sof(C9)=
 Sof(C10)=Sof(C11)=Sof(C12)=Sof(C13)=Sof(C14)=Sof(C15)=Sof(C16)=Sof(C17)=
 Sof(C18)=Sof(C19)=Sof(C20)=Sof(C21)=Sof(C22)=Sof(C23)=Sof(C24)=Sof(C25)=
 Sof(C26)=Sof(C27)=Sof(C28)=Sof(C29)=Sof(C30)=Sof(C31)=Sof(C32)=Sof(C33)=
 Sof(C34)=Sof(C35)=Sof(C36)=Sof(C37)=Sof(C38)=Sof(C39)=Sof(C40)=Sof(C41)=
 Sof(C42)=Sof(C43)=Sof(C44)=Sof(C45)=Sof(C46)=Sof(C47)=Sof(C48)=Sof(C49)=
 Sof(C50)=Sof(C51)=Sof(C52)=Sof(C53)=Sof(C54)=Sof(C55)=Sof(C56)=Sof(C57)=
 Sof(C58)=Sof(C59)=Sof(C60)=Sof(C61)=Sof(C62)=Sof(C63)=Sof(C64)=Sof(C65)=
 Sof(C66)=Sof(C67)=Sof(F3)=Sof(F4)=Sof(F5)=Sof(F6)=Sof(F2)=Sof(F1)=FVAR(1)
4.a Fitted pentagon refined as free rotating group:
 C9A(C8A,C7A,C2A,C1A), C37A(C32A,C31A,C30A,C66A), C40A(C35A,C36A,C38A,C39A),
 C20A(C21A,C51A,C50A,C49A), C28A(C60A,C61A,C62A,C29A), C52A(C45A,C44A,C43A,
 C67A), C58A(C59A,C22A,C23A,C24A), C26A(C27A,C15A,C16A,C25A), C48A(C11A,C12A,
 C46A,C47A)
;
_shelx_res_file
;
TITL mohawk3_pbca in Pbca
CELL 0.41328 9.9998 20.6538 31.3512 90 90 90
ZERR 8 0.0006 0.0012 0.0018 0 0 0
LATT 1
SYMM 0.5-X,-Y,0.5+Z
SYMM -X,0.5+Y,0.5-Z
SYMM 0.5+X,0.5-Y,-Z

SFAC C F
DISP C -0.002 0 5.17
DISP F -0.005 0.003 14.4
UNIT 536 48
RIGU
EADP C1A C1
EADP F5 F5A
EADP F1A F2
EADP F2A F1
EADP F3 F3A
EADP F4A F6
EADP F4 F6A
EADP C5 C5A
EADP C4A C6
EADP C3A C7
EADP C7A C3
EADP C6A C4
EADP C2A C2
EADP C10 C34A
EADP C22A C60
EADP C57 C57A
EADP C36 C36A

L.S. 20
PLAN  5
TEMP -173
BOND $H
MORE -1
CONF
fmap 2
acta
SHEL 999 0.8
OMIT 1 4 2
OMIT 2 2 3
OMIT 2 0 4
OMIT 2 4 4
OMIT 2 5 2
OMIT 2 3 5
OMIT 2 3 0
OMIT 1 3 4
OMIT 2 2 2
OMIT 5 5 35
OMIT 2 0 2

WGHT    0.023200   17.250601
BASF   0.06507   0.09393
FVAR       0.64820   0.83046
PART 1
C3    1   -0.162036    0.407653    0.133930    21.00000    0.01518    0.01628 =
         0.01518   -0.00005   -0.00167   -0.00337
C4    1   -0.242816    0.361772    0.151724    21.00000    0.01359    0.01732 =
         0.01738   -0.00184    0.00099   -0.00142
C5    1   -0.217982    0.336644    0.192723    21.00000    0.01596    0.01354 =
         0.02010    0.00111    0.00534   -0.00384
C6    1   -0.108042    0.359198    0.215026    21.00000    0.01890    0.01676 =
         0.01283    0.00014    0.00360   -0.00054
C7    1   -0.027593    0.406711    0.196954    21.00000    0.01430    0.01427 =
         0.00956   -0.00246    0.00307    0.00154
C8    1    0.096908    0.434065    0.215213    21.00000    0.01608    0.01210 =
         0.01012   -0.00137    0.00080    0.00240
C2    1   -0.052348    0.430396    0.156764    21.00000    0.01460    0.01275 =
         0.00951   -0.00349    0.00080    0.00056
C1    1    0.047691    0.482995    0.143023    21.00000    0.01451    0.01639 =
         0.01075    0.00116    0.00437   -0.00041
C9    1    0.141136    0.490346    0.184567    21.00000    0.01301    0.00992 =
         0.00844   -0.00019   -0.00017    0.00061
C10   1    0.133888    0.557696    0.205126    21.00000    0.01457    0.01195 =
         0.00601    0.00116    0.00213   -0.00016
C11   1    0.043093    0.604431    0.193990    21.00000    0.01255    0.01526 =
         0.00807    0.00141    0.00506    0.00010
C12   1   -0.042113    0.596905    0.155847    21.00000    0.00687    0.01732 =
         0.01091    0.00326   -0.00052    0.00149
C13   1    0.265340    0.577341    0.218956    21.00000    0.01577    0.01877 =
         0.00467    0.00097   -0.00087    0.00114
C14   1    0.361807    0.532446    0.201090    21.00000    0.01011    0.01608 =
         0.00906    0.00276   -0.00248    0.00093
C15   1    0.291291    0.484978    0.176039    21.00000    0.01102    0.01264 =
         0.01421    0.00402   -0.00030    0.00243
C16   1    0.299586    0.642108    0.223523    21.00000    0.01622    0.01700 =
         0.00693   -0.00310   -0.00149   -0.00067
C17   1    0.202916    0.691338    0.212409    21.00000    0.01576    0.01479 =
         0.01157   -0.00596    0.00234    0.00062
C18   1    0.077856    0.672516    0.197583    21.00000    0.01289    0.01334 =
         0.01107   -0.00182    0.00475    0.00368
C19   1    0.015819    0.706871    0.162641    21.00000    0.01116    0.01763 =
         0.01568   -0.00204    0.00212    0.00495
C20   1    0.081970    0.758907    0.143844    21.00000    0.01919    0.01247 =
         0.01773    0.00125    0.00360    0.00642
C21   1    0.213163    0.777737    0.158551    21.00000    0.01985    0.00699 =
         0.02574   -0.00311    0.00460    0.00086
C22   1    0.272360    0.744728    0.192079    21.00000    0.02230    0.01117 =
         0.01598   -0.00676    0.00354   -0.00430
C23   1    0.430358    0.664651    0.209670    21.00000    0.01677    0.02204 =
         0.01118   -0.00416   -0.00610   -0.00282
C24   1    0.522471    0.621575    0.192875    21.00000    0.01195    0.02221 =
         0.01308    0.00150   -0.00688   -0.00490
C25   1    0.412303    0.728061    0.190532    21.00000    0.02052    0.01606 =
         0.01180   -0.00739   -0.00008   -0.00687
C26   1    0.488713    0.746039    0.154685    21.00000    0.01801    0.01525 =
         0.01171   -0.00324   -0.00004   -0.00778
C27   1    0.585656    0.700335    0.137654    21.00000    0.01162    0.01923 =
         0.01430   -0.00181   -0.00127   -0.00675
C28   1    0.602533    0.640073    0.156154    21.00000    0.01106    0.02220 =
         0.01954   -0.00161   -0.00567   -0.00378
C29   1    0.616551    0.582659    0.129126    21.00000    0.00782    0.01986 =
         0.02050    0.00089   -0.00156    0.00030
C30   1    0.545760    0.529590    0.149708    21.00000    0.00691    0.01627 =
         0.01941    0.00252   -0.00085    0.00548
C31   1    0.474236    0.485346    0.125126    21.00000    0.01052    0.01210 =
         0.02282    0.00012    0.00031    0.00481
C32   1    0.472128    0.491723    0.078893    21.00000    0.01427    0.01588 =
         0.01922   -0.00478    0.00618    0.00534
C33   1    0.540120    0.542552    0.059060    21.00000    0.01258    0.02078 =
         0.01576   -0.00686    0.00565    0.00005
C34   1    0.613914    0.589227    0.085082    21.00000    0.00959    0.02134 =
         0.02118   -0.00068    0.00537   -0.00027
C35   1    0.597434    0.652030    0.065632    21.00000    0.00958    0.02213 =
         0.01901   -0.00044    0.00349   -0.00319
C36   1    0.479079    0.577053    0.024068    21.00000    0.01587    0.02491 =
         0.00774   -0.00241    0.00487   -0.00394
C37   1    0.340276    0.472764    0.063828    21.00000    0.01898    0.01093 =
         0.01831   -0.00737    0.00363   -0.00127
C38   1    0.260171    0.454542    0.100761    21.00000    0.01610    0.00913 =
         0.01452    0.00103    0.00229   -0.00002
C39   1    0.345653    0.462269    0.138987    21.00000    0.01479    0.01025 =
         0.01663   -0.00047   -0.00134    0.00369
C40   1    0.125820    0.469240    0.101549    21.00000    0.01568    0.01107 =
         0.01157   -0.00415    0.00066   -0.00593
C41   1   -0.027148    0.550539    0.084205    21.00000    0.01059    0.02061 =
         0.01107    0.00045   -0.00271   -0.00620
C42   1    0.067619    0.505011    0.067087    21.00000    0.01583    0.01490 =
         0.00882    0.00147   -0.00358   -0.00726
C43   1    0.282046    0.505589    0.029886    21.00000    0.02195    0.01564 =
         0.00960   -0.00405    0.00721   -0.00599
C44   1    0.010476    0.720867    0.072315    21.00000    0.01302    0.02179 =
         0.01813    0.01020   -0.00322    0.00485
C45   1    0.079217    0.765272    0.096987    21.00000    0.01380    0.01203 =
         0.02386    0.00691    0.00069    0.00596
C46   1    0.210183    0.788202    0.083795    21.00000    0.01831    0.01150 =
         0.01970    0.00601    0.00129    0.00096
C47   1    0.292408    0.795742    0.121427    21.00000    0.01783    0.00723 =
         0.02036    0.00048    0.00186    0.00018
C48   1    0.427112    0.780124    0.119897    21.00000    0.02045    0.01172 =
         0.01917   -0.00052   -0.00055   -0.00544
C49   1    0.486310    0.755831    0.080281    21.00000    0.01452    0.01707 =
         0.01353    0.00137    0.00025   -0.00842
C50   1    0.406004    0.748748    0.044536    21.00000    0.01777    0.01593 =
         0.01513    0.00603    0.00319   -0.00561
C51   1    0.421355    0.691766    0.017587    21.00000    0.01373    0.02214 =
         0.01118    0.00577    0.00422   -0.00830
C52   1    0.487708    0.553916    0.188247    21.00000    0.00962    0.01917 =
         0.01392    0.00220   -0.00294    0.00336
C53   1   -0.056867    0.660326    0.136854    21.00000    0.00863    0.01737 =
         0.01770    0.00612    0.00370    0.00385
C54   1   -0.060104    0.667797    0.092684    21.00000    0.00993    0.02024 =
         0.01826    0.00838   -0.00338    0.00302
C55   1   -0.045744    0.611221    0.065747    21.00000    0.00835    0.02365 =
         0.01663    0.00419   -0.00536   -0.00050
C56   1    0.034180    0.629243    0.028668    21.00000    0.01589    0.02483 =
         0.01158    0.00341   -0.00538   -0.00357
C57   1    0.125477    0.585712    0.011952    21.00000    0.01739    0.02321 =
         0.00719    0.00149   -0.00439   -0.00716
C58   1    0.068798    0.696822    0.032997    21.00000    0.01633    0.02354 =
         0.01454    0.00797   -0.00647    0.00168
C59   1    0.193959    0.718923    0.019943    21.00000    0.01423    0.01932 =
         0.01292    0.00902   -0.00216   -0.00178
C60   1    0.257370    0.608114   -0.001464    21.00000    0.01646    0.02426 =
         0.00360   -0.00034    0.00150   -0.00662
C61   1    0.289605    0.673426    0.002341    21.00000    0.01629    0.02435 =
         0.01070    0.00489   -0.00168   -0.00432
C62   1    0.353257    0.558863    0.009524    21.00000    0.01770    0.01922 =
         0.00762   -0.00638    0.00315   -0.00618
C63   1    0.143678    0.522382    0.031007    21.00000    0.01991    0.01996 =
         0.00769   -0.00485    0.00078   -0.00757
C64   1    0.583794    0.706813    0.091148    21.00000    0.01043    0.02269 =
         0.01901    0.00059    0.00205   -0.00749
C65   1    0.266019    0.765381    0.045944    21.00000    0.01886    0.01480 =
         0.01816    0.00907   -0.00061   -0.00226
C66   1    0.514559    0.644492    0.028024    21.00000    0.01201    0.02366 =
         0.01424    0.00048    0.00813   -0.00458
C67   1   -0.028001    0.544014    0.130309    21.00000    0.00781    0.01654 =
         0.01360    0.00303   -0.00144   -0.00300
F3    2   -0.188773    0.429372    0.094596    21.00000    0.02090    0.02209 =
         0.01421    0.00167   -0.00099   -0.00703
F4    2   -0.347678    0.339501    0.130105    21.00000    0.01516    0.02418 =
         0.02667   -0.00173    0.00002   -0.01099
F5    2   -0.297629    0.291586    0.208934    21.00000    0.01561    0.01945 =
         0.03103    0.00734    0.00517   -0.00315
F6    2   -0.078336    0.333244    0.253046    21.00000    0.02761    0.02203 =
         0.01406    0.00515    0.00450   -0.00377
F2    2    0.193784    0.387148    0.216920    21.00000    0.01675    0.01428 =
         0.01465    0.00211    0.00098    0.00469
F1    2    0.084361    0.455006    0.256161    21.00000    0.02651    0.01626 =
         0.00943    0.00028    0.00255    0.00055

PART 0
PART 2
C33A  1    0.274668    0.513436    0.194613   -21.00000    0.01834    0.01372 =
         0.01394    0.00357    0.00331    0.00191
C13A  1    0.055971    0.552763    0.184059   -21.00000    0.01484    0.01172 =
         0.01334    0.00100    0.00346    0.00028
C10A  1   -0.046906    0.558517    0.099871   -21.00000    0.00657    0.01738 =
         0.00951    0.00389   -0.00354   -0.00243
C19A  1   -0.014391    0.574187    0.055488   -21.00000    0.01211    0.02092 =
         0.00936    0.00345   -0.00725   -0.00511
C53A  1    0.346199    0.772161    0.056006   -21.00000    0.02788    0.02513 =
         0.01896    0.00513   -0.00095   -0.00561
C54A  1    0.280298    0.733553    0.022746   -21.00000    0.02864    0.02317 =
         0.01505    0.00449    0.00280   -0.00860
C55A  1    0.470605    0.747141    0.063274   -21.00000    0.02706    0.02805 =
         0.01241   -0.00222   -0.00369   -0.00571
C64A  1    0.526443    0.744110    0.104970   -21.00000    0.02315    0.02788 =
         0.01721   -0.00202    0.00156   -0.00716
C42A  1    0.449543    0.765649    0.139935   -21.00000    0.02264    0.02118 =
         0.00844   -0.00495   -0.00295   -0.00654
C41A  1    0.476338    0.725116    0.176030   -21.00000    0.01661    0.02915 =
         0.01411   -0.00294    0.00064   -0.01086
C65A  1    0.573927    0.674944    0.162228   -21.00000    0.01519    0.03066 =
         0.01581   -0.00518   -0.00427   -0.00858
C63A  1    0.604116    0.688633    0.117517   -21.00000    0.01985    0.03178 =
         0.01446   -0.00336    0.00165   -0.00652
C17A  1    0.098766    0.483511    0.077386   -21.00000    0.01221    0.01845 =
         0.00694    0.00340   -0.00235   -0.00076
C18A  1    0.087767    0.524980    0.042816   -21.00000    0.01879    0.01955 =
         0.01003    0.00289    0.00028   -0.00581
C14A  1    0.211582    0.474885    0.162067   -21.00000    0.01434    0.01079 =
         0.01892    0.00072    0.00320    0.00146
C34A  1    0.178219    0.563336    0.209262   -21.00000    0.01457    0.01195 =
         0.00601    0.00116    0.00213   -0.00016
C56A  1    0.499133    0.692360    0.035332   -21.00000    0.02792    0.03462 =
         0.02090   -0.00439    0.00047   -0.00787
C57A  1    0.373630    0.684875    0.009869   -21.00000    0.01739    0.02321 =
         0.00719    0.00149   -0.00439   -0.00716
C6A   1   -0.215759    0.363789    0.165925   -21.00000    0.01359    0.01732 =
         0.01738   -0.00184    0.00099   -0.00142
C5A   1   -0.192075    0.342272    0.205151   -21.00000    0.01596    0.01354 =
         0.02010    0.00111    0.00534   -0.00384
C4A   1   -0.097144    0.363472    0.231921   -21.00000    0.01890    0.01676 =
         0.01283    0.00014    0.00360   -0.00054
C3A   1   -0.011186    0.410332    0.219172   -21.00000    0.01430    0.01427 =
         0.00956   -0.00246    0.00307    0.00154
F1A   2   -0.076766    0.393619    0.081194   -21.00000    0.01675    0.01428 =
         0.01465    0.00211    0.00098    0.00469
F2A   2   -0.228360    0.466724    0.095509   -21.00000    0.02651    0.01626 =
         0.00943    0.00028    0.00255    0.00055
F6A   2   -0.298686    0.342678    0.138626   -21.00000    0.01516    0.02418 =
         0.02667   -0.00173    0.00002   -0.01099
F5A   2   -0.266802    0.285739    0.216199   -21.00000    0.01561    0.01945 =
         0.03103    0.00734    0.00517   -0.00315
F4A   2   -0.081229    0.336183    0.271624   -21.00000    0.02761    0.02203 =
         0.01406    0.00515    0.00450   -0.00377
F3A   2    0.084683    0.427482    0.247903   -21.00000    0.02090    0.02209 =
         0.01421    0.00167   -0.00099   -0.00703
AFIX  56
C9A   1    0.001358    0.491365    0.113797   -21.00000    0.01748    0.01773 =
         0.00897    0.00299    0.00065    0.00046
C8A   1   -0.106102    0.446944    0.109292   -21.00000    0.01716    0.02018 =
         0.01683    0.00057   -0.00359   -0.00166
C7A   1   -0.122466    0.414123    0.148748   -21.00000    0.01518    0.01628 =
         0.01518   -0.00005   -0.00167   -0.00337
C2A   1   -0.025121    0.438260    0.177637   -21.00000    0.01460    0.01275 =
         0.00951   -0.00349    0.00080    0.00056
C1A   1    0.051406    0.485999    0.156036   -21.00000    0.01451    0.01639 =
         0.01075    0.00116    0.00437   -0.00041
AFIX  56
C37A  1    0.458402    0.592780    0.204995   -21.00000    0.01805    0.02674 =
         0.01821   -0.00054   -0.00052   -0.00198
C32A  1    0.412211    0.529925    0.194049   -21.00000    0.01426    0.02499 =
         0.02057   -0.00005    0.00655   -0.00161
C31A  1    0.487891    0.507879    0.158583   -21.00000    0.00296    0.03014 =
         0.01830    0.00149    0.00160   -0.00030
C30A  1    0.580856    0.557109    0.147609   -21.00000    0.00592    0.03346 =
         0.01110   -0.00243    0.00214   -0.00593
C66A  1    0.562631    0.609580    0.176293   -21.00000    0.01952    0.03518 =
         0.01107   -0.00246    0.00167   -0.00627
AFIX  56
C40A  1    0.150372    0.679820    0.207726   -21.00000    0.01413    0.01401 =
         0.00670   -0.00327    0.00360   -0.00297
C35A  1    0.223897    0.624389    0.220687   -21.00000    0.01838    0.01685 =
         0.00792   -0.00110    0.00292   -0.00055
C36A  1    0.362125    0.639678    0.218201   -21.00000    0.01587    0.02491 =
         0.00774   -0.00241    0.00487   -0.00394
C38A  1    0.374028    0.704558    0.203704   -21.00000    0.02059    0.02345 =
         0.01402   -0.00154    0.00351   -0.00602
C39A  1    0.243158    0.729367    0.197229   -21.00000    0.01629    0.01592 =
         0.01173   -0.00348    0.00160   -0.00543
AFIX  56
C20A  1   -0.002555    0.638193    0.041805   -21.00000    0.01842    0.02354 =
         0.00854    0.00738   -0.00689   -0.00361
C21A  1    0.103834    0.655706    0.014113   -21.00000    0.02481    0.02404 =
         0.01009    0.00431   -0.00544   -0.00536
C51A  1    0.148861    0.718357    0.026016   -21.00000    0.02562    0.02160 =
         0.01722    0.00341    0.00246   -0.00789
C50A  1    0.070301    0.739565    0.061064   -21.00000    0.02801    0.02614 =
         0.01749    0.00325    0.00060   -0.00666
C49A  1   -0.023280    0.690020    0.070823   -21.00000    0.02068    0.02193 =
         0.01622    0.00923   -0.00703   -0.00240
AFIX  56
C28A  1    0.548724    0.534082    0.071419   -21.00000    0.01709    0.03249 =
         0.01080   -0.00634    0.00639   -0.00343
C60A  1    0.521564    0.575907    0.036530   -21.00000    0.01921    0.03358 =
         0.00597   -0.00819    0.00458   -0.00780
C61A  1    0.568201    0.638733    0.047354   -21.00000    0.01521    0.03140 =
         0.00659   -0.00497    0.00210   -0.00969
C62A  1    0.624183    0.635737    0.088932   -21.00000    0.02072    0.03097 =
         0.01303   -0.00482    0.00370   -0.00742
C29A  1    0.612146    0.571059    0.103805   -21.00000    0.01118    0.03080 =
         0.01058   -0.00388    0.00849   -0.00466
AFIX  56
C52A  1    0.132517    0.776540    0.093253   -21.00000    0.02668    0.01879 =
         0.01863    0.00317   -0.00435   -0.00335
C45A  1    0.097765    0.760622    0.135899   -21.00000    0.03054    0.01339 =
         0.01858   -0.00099    0.00158   -0.00126
C44A  1    0.214122    0.767277    0.161489   -21.00000    0.02717    0.01137 =
         0.01576   -0.00531    0.00294   -0.00022
C43A  1    0.320787    0.787307    0.134659   -21.00000    0.02810    0.02209 =
         0.01581    0.00059   -0.00255   -0.00435
C67A  1    0.270352    0.793032    0.092487   -21.00000    0.02229    0.02359 =
         0.01693    0.00332   -0.00537   -0.00642
AFIX  56
C58A  1    0.407934    0.569673    0.011790   -21.00000    0.01855    0.02062 =
         0.00703   -0.00733    0.00167   -0.00945
C59A  1    0.333365    0.624869   -0.000997   -21.00000    0.02229    0.02555 =
         0.01579   -0.00240    0.00311   -0.00949
C22A  1    0.195549    0.608433    0.000397   -21.00000    0.01646    0.02426 =
         0.00360   -0.00034    0.00150   -0.00662
C23A  1    0.184943    0.543078    0.014046   -21.00000    0.02351    0.02224 =
         0.01079   -0.00005    0.00202   -0.00758
C24A  1    0.316203    0.519123    0.021088   -21.00000    0.01565    0.01372 =
         0.01063   -0.00762    0.00096   -0.00769
AFIX  56
C26A  1    0.459254    0.485874    0.082231   -21.00000    0.01224    0.02881 =
         0.02019   -0.00189    0.00561    0.00088
C27A  1    0.427877    0.470495    0.125228   -21.00000    0.00643    0.03108 =
         0.02066   -0.00161    0.00045   -0.00161
C15A  1    0.289821    0.454700    0.127270   -21.00000    0.00612    0.00852 =
         0.01151    0.00230   -0.00109    0.00453
C16A  1    0.235873    0.460318    0.085537   -21.00000    0.01268    0.01754 =
         0.01434    0.00247    0.00026   -0.00024
C25A  1    0.340589    0.479584    0.057701   -21.00000    0.01522    0.02000 =
         0.01864   -0.00193    0.00355   -0.00139
AFIX  56
C48A  1   -0.055074    0.674234    0.115633   -21.00000    0.02405    0.01739 =
         0.01479    0.00344    0.00046    0.00373
C11A  1   -0.066305    0.609345    0.130166   -21.00000    0.02007    0.01907 =
         0.01598    0.00291    0.00117   -0.00036
C12A  1   -0.013871    0.606406    0.172214   -21.00000    0.01346    0.01159 =
         0.00740    0.00015    0.00129    0.00171
C46A  1    0.029767    0.669479    0.183668   -21.00000    0.01374    0.01597 =
         0.00732    0.00037    0.00418   -0.00043
C47A  1    0.004302    0.711399    0.148699   -21.00000    0.02775    0.01761 =
         0.01657    0.00337    0.00001    0.00405
AFIX   0
HKLF 5

REM  mohawk3_pbca in Pbca
REM R1 =  0.0732 for    8340 Fo > 4sig(Fo)  and  0.0865 for all    9670 data
REM   1135 parameters refined using   1890 restraints

END

WGHT      0.0232     17.2532

REM Highest difference peak  0.473,  deepest hole -0.412,  1-sigma level  0.072
Q1    1   0.0839  0.4941  0.1664  11.00000  0.05    0.47
Q2    1  -0.1393  0.4224  0.1633  11.00000  0.05    0.37
Q3    1  -0.4328  0.3663  0.0827  11.00000  0.05    0.32
Q4    1   0.1641  0.6372  0.0037  11.00000  0.05    0.31
Q5    1  -0.0474  0.7081  0.0890  11.00000  0.05    0.31
;
_shelx_res_checksum              99932
_shelx_hkl_file
;
   1   1   0 0.29523 2.89620   1
   3   1   0 -1.0280 6.71098   1
   5   1   0 -2.3514 7.12193   1
   6   1   0 1224.77 62.8506   1
   0   2   0 947.297 47.3038  -3
   0   2   0 947.297 47.3038  -2
   0   2   0 947.297 47.3038   1
   1   2   0 2.36327 2.47808   1
   3   2   0 -2.0088 3.16884   1
   7   2   0 0.76587 4.23430   1
   8   2   0 1525.93 55.3950   1
   0   3   0 1.11927 5.23067   1
   1   3   0 0.63380 3.33736   1
   2   3   0 -0.3914 3.65462  -3
   2   3   0 -0.3914 3.65462   1
   3   3   0 20.9698 5.40781   1
   4   3   0 490.876 27.0704  -3
   4   3   0 490.876 27.0704   1
   4   3   0 490.657 19.8784  -2
   4   3   0 490.657 19.8784   1
   7   3   0 -0.2045 8.36511   1
   8   3   0 169.206 9.51638   1
   9   3   0 30.1972 4.91788   1
  10   3   0 628.698 24.2614   1
   1   4   0 -7.5389 3.99521   1
   2   4   0 66.7549 5.17375  -2
   2   4   0 66.7549 5.17375   1
   2   4   0 43.9079 10.3507  -3
   2   4   0 43.9079 10.3507  -2
   2   4   0 43.9079 10.3507   1
   2   4   0 42.9278 7.52677  -3
   2   4   0 42.9278 7.52677   1
   3   4   0 4.61843 4.57157   1
   4   4   0 1689.54 88.0909  -2
   4   4   0 1689.54 88.0909   1
   4   4   0 1774.38 91.1576  -3
   4   4   0 1774.38 91.1576   1
   5   4   0 15.0630 6.37792   1
   6   4   0 9.15037 9.69218  -3
   6   4   0 9.15037 9.69218   1
   7   4   0 29.0373 7.01342   1
   8   4   0 58.2656 6.53081   1
   9   4   0 67.3046 7.29954   1
  10   4   0 71.3091 7.20158   1
  11   4   0 0.28564 4.71316   1
   0   5   0 -4.3427 7.28980   1
   1   5   0 -11.273 2.34187   1
   2   5   0 -2.3763 6.37334  -3
   2   5   0 -2.3763 6.37334   1
   2   5   0 8.74407 16.9247  -3
   2   5   0 8.74407 16.9247  -2
   2   5   0 8.74407 16.9247   1
   2   5   0 -1.2295 5.79310  -2
   2   5   0 -1.2295 5.79310   1
   3   5   0 8.12889 3.31393   1
   5   5   0 2.99287 5.03969   1
   6   5   0 557.093 16.2409  -3
   6   5   0 557.093 16.2409   1
   7   5   0 0.76346 10.8553   1
   8   5   0 1752.45 64.8021   1
   9   5   0 99.4024 9.11624   1
  10   5   0 1292.66 48.7926   1
  11   5   0 5.58780 7.40762   1
  12   5   0 1317.13 69.3146   1
   0   6   0 336.737 26.6443  -3
   0   6   0 336.737 26.6443  -2
   0   6   0 336.737 26.6443   1
   0   6   0 355.078 16.2182  -2
   0   6   0 355.078 16.2182   1
   0   6   0 364.838 16.0799  -3
   0   6   0 364.838 16.0799   1
   1   6   0 -0.6161 4.30096   1
   2   6   0 452.927 9.95924  -3
   2   6   0 452.927 9.95924   1
   2   6   0 455.025 13.5766  -2
   2   6   0 455.025 13.5766   1
   3   6   0 -3.6356 1.99125   1
   4   6   0 2309.13 59.6269  -3
   4   6   0 2309.13 59.6269   1
   5   6   0 -0.7403 6.30013   1
   6   6   0 476.956 14.4333  -3
   6   6   0 476.956 14.4333   1
   7   6   0 39.2069 3.99485   1
   8   6   0 1991.83 73.6306   1
   9   6   0 42.7666 6.84176   1
  10   6   0 180.314 16.4149   1
  11   6   0 -3.2018 7.91370   1
  12   6   0 38.1691 9.39911   1
  13   6   0 -2.1043 7.33679   1
   0   7   0 6.15428 6.56611   1
   1   7   0 -11.867 4.28173   1
   2   7   0 219.882 10.3936  -2
   2   7   0 219.882 10.3936   1
   2   7   0 244.209 8.86498  -3
   2   7   0 244.209 8.86498   1
   3   7   0 20.8836 3.50023   1
   4   7   0 698.464 16.4978  -3
   4   7   0 698.464 16.4978   1
   5   7   0 84.0553 5.56845   1
   6   7   0 2054.44 61.2449  -3
   6   7   0 2054.44 61.2449   1
   7   7   0 4.95070 3.42364   1
   8   7   0 287.474 19.9901  -3
   8   7   0 287.474 19.9901   1
   9   7   0 18.3189 9.65650   1
  10   7   0 70.6072 11.6238   1
  11   7   0 -0.8069 8.70523   1
  12   7   0 56.8311 10.9634   1
  13   7   0 10.9198 8.89710   1
   0   8   0 276.383 13.0740  -2
   0   8   0 276.383 13.0740   1
   0   8   0 275.400 12.9274  -3
   0   8   0 275.400 12.9274   1
   1   8   0 -8.0711 4.51594   1
   2   8   0 49.9681 7.49490  -3
   2   8   0 49.9681 7.49490   1
   2   8   0 36.8423 9.10579  -2
   2   8   0 36.8423 9.10579   1
   3   8   0 -8.3538 3.71967   1
   4   8   0 4492.11 93.7717  -3
   4   8   0 4492.11 93.7717   1
   5   8   0 60.0410 7.19646   1
   6   8   0 180.798 10.9126  -3
   6   8   0 180.798 10.9126   1
   7   8   0 7.13643 3.53820   1
   8   8   0 625.385 18.6039   1
   9   8   0 64.5573 5.35323   1
  10   8   0 37.7818 10.6979   1
  11   8   0 -2.3109 8.88794   1
  12   8   0 4.94279 9.18059   1
   0   9   0 4.19134 7.61871   1
   1   9   0 27.4206 4.90482   1
   2   9   0 1448.49 29.6162  -3
   2   9   0 1448.49 29.6162   1
   2   9   0 1358.19 49.9162  -2
   2   9   0 1358.19 49.9162   1
   3   9   0 -2.7808 2.70978   1
   4   9   0 243.064 8.15419  -3
   4   9   0 243.064 8.15419   1
   5   9   0 8.91364 3.47589   1
   6   9   0 1066.12 34.6725  -3
   6   9   0 1066.12 34.6725   1
   7   9   0 28.4135 3.60680   1
   8   9   0 -2.7558 4.43158   1
   9   9   0 12.7172 4.50547   1
  10   9   0 -1.8311 3.71279   1
  11   9   0 -6.5005 9.17812   1
  12   9   0 26.9004 10.9665   1
   0  10   0 3124.42 72.2284  -3
   0  10   0 3124.42 72.2284   1
   1  10   0 60.5210 4.75781   1
   2  10   0 1549.05 34.6777  -3
   2  10   0 1549.05 34.6777   1
   3  10   0 0.90883 2.78880   1
   4  10   0 1337.82 30.0908  -3
   4  10   0 1337.82 30.0908   1
   5  10   0 2.31236 3.48031   1
   6  10   0 673.798 41.5791  -3
   6  10   0 673.798 41.5791   1
   7  10   0 13.1030 5.13682   1
   8  10   0 1262.88 39.4494   1
   9  10   0 4.87322 4.59766   1
  10  10   0 50.6564 7.11318   1
  11  10   0 7.34730 10.1613   1
  12  10   0 1028.09 58.5814   1
   0  11   0 -14.251 6.19939   1
   1  11   0 -11.625 3.86175   1
   2  11   0 67.4736 9.01654  -3
   2  11   0 67.4736 9.01654   1
   3  11   0 -3.3006 3.33806   1
   4  11   0 1190.43 30.5545  -3
   4  11   0 1190.43 30.5545   1
   5  11   0 73.3582 5.07699   1
   6  11   0 805.717 15.4123   1
   7  11   0 2.48497 3.40732   1
   8  11   0 1961.07 73.4383   1
   9  11   0 29.4621 7.27265   1
  10  11   0 149.883 11.3400   1
  11  11   0 -4.2343 5.84796   1
   0  12   0 167.178 12.5396  -3
   0  12   0 167.178 12.5396   1
   1  12   0 -15.314 3.68291   1
   2  12   0 2322.39 50.8032  -3
   2  12   0 2322.39 50.8032   1
   3  12   0 2.30828 3.58896   1
   4  12   0 792.238 24.5945  -3
   4  12   0 792.238 24.5945   1
   5  12   0 -6.4996 2.34871   1
   6  12   0 522.574 13.7173   1
   7  12   0 4.85391 4.39408   1
   8  12   0 21.5807 7.74480   1
   9  12   0 63.9488 9.60662   1
  10  12   0 69.9045 9.57443   1
  11  12   0 2.21067 6.25517   1
   0  13   0 -7.7326 5.92017   1
   1  13   0 10.7319 4.87791   1
   2  13   0 59.4511 12.6179  -3
   2  13   0 59.4511 12.6179   1
   3  13   0 19.7567 3.41216   1
   4  13   0 -10.701 22.7249  -3
   4  13   0 -10.701 22.7249   1
   5  13   0 1.10756 2.65598   1
   6  13   0 260.406 16.8608   1
   7  13   0 15.6260 8.12971   1
   8  13   0 55.6161 6.37668   1
   9  13   0 11.5477 7.62271   1
  10  13   0 367.847 19.0197   1
  11  13   0 1.93379 6.71141   1
  12  13   0 7.47300 8.09740   1
   0  14   0 159.793 16.7703  -3
   0  14   0 159.793 16.7703   1
   1  14   0 26.4577 4.66011   1
   2  14   0 1617.98 92.2383  -3
   2  14   0 1617.98 92.2383   1
   3  14   0 69.6868 4.28502   1
   4  14   0 32.5061 3.21535   1
   5  14   0 31.0539 4.98117   1
   6  14   0 117.940 13.9188   1
   7  14   0 15.9294 8.57190   1
   8  14   0 228.891 11.4257   1
   9  14   0 0.19834 7.39955   1
  10  14   0 2566.52 95.5816   1
  11  14   0 2.26089 8.67818   1
   0  15   0 1.13047 6.16331   1
   1  15   0 23.6043 4.65887   1
   2  15   0 2378.57 130.198  -3
   2  15   0 2378.57 130.198   1
   3  15   0 8.39484 3.53423   1
   4  15   0 51.9142 4.94425   1
   5  15   0 14.1934 4.53281   1
   6  15   0 24.2315 4.80582   1
   7  15   0 4.48862 8.50325   1
   8  15   0 11.3448 6.00173   1
   9  15   0 4.92477 8.01927   1
  10  15   0 757.946 33.1333   1
  11  15   0 5.83375 11.8764   1
   0  16   0 2707.24 146.609  -3
   0  16   0 2707.24 146.609   1
   1  16   0 14.8570 4.31609   1
   2  16   0 535.554 44.9985  -3
   2  16   0 535.554 44.9985   1
   3  16   0 24.9115 4.29009   1
   4  16   0 723.867 17.9786   1
   5  16   0 15.8398 4.61104   1
   6  16   0 14.9140 5.45192   1
   7  16   0 10.3939 8.93572   1
   8  16   0 67.4212 11.3476   1
   9  16   0 -2.2025 5.47001   1
  10  16   0 414.427 22.3297   1
   0  17   0 -4.8992 5.90714   1
   1  17   0 40.9854 4.73084   1
   2  17   0 800.642 18.7793   1
   3  17   0 12.3720 5.51017   1
   4  17   0 524.156 16.1243   1
   5  17   0 -1.8534 4.65128   1
   6  17   0 71.5364 7.51777   1
   7  17   0 3.00988 8.84672   1
   8  17   0 410.768 23.0079   1
   9  17   0 65.5068 7.98340   1
  10  17   0 129.023 15.9965   1
   0  18   0 271.203 13.0073   1
   1  18   0 27.5454 4.93944   1
   2  18   0 27.4094 5.95892   1
   3  18   0 22.9348 6.43794   1
   4  18   0 915.333 27.2897   1
   5  18   0 17.7922 5.11016   1
   6  18   0 79.6772 8.30486   1
   7  18   0 1.90462 9.71281   1
   8  18   0 2158.05 83.1702   1
   9  18   0 18.7153 6.99583   1
   0  19   0 20.3144 6.99564   1
   1  19   0 56.3949 5.91492   1
   2  19   0 499.323 15.0249   1
   3  19   0 5.96058 6.21429   1
   4  19   0 180.286 11.2805   1
   5  19   0 1.44399 5.45632   1
   6  19   0 778.184 27.3991   1
   7  19   0 5.84805 4.61637   1
   8  19   0 41.3818 11.3662   1
   9  19   0 -5.8436 7.02560   1
  10  19   0 282.811 19.0378   1
   0  20   0 408.755 18.2299   1
   1  20   0 16.6964 5.29859   1
   2  20   0 499.731 16.7592   1
   3  20   0 1.38688 6.06868   1
   4  20   0 437.389 16.7765   1
   5  20   0 7.95519 5.98966   1
   6  20   0 53.2880 7.69426   1
   7  20   0 14.1737 5.60275   1
   8  20   0 178.774 18.1389   1
   9  20   0 43.6211 17.7476   1
   0  21   0 -12.070 7.25795   1
   1  21   0 22.1088 5.86092   1
   2  21   0 724.638 21.4291   1
   3  21   0 -5.1296 6.28301   1
   4  21   0 534.015 19.2085   1
   5  21   0 7.86811 6.41551   1
   6  21   0 29.7148 6.28797   1
   7  21   0 1.79066 5.77607   1
   8  21   0 172.968 18.1576   1
   0  22   0 770.829 28.5159   1
   1  22   0 1.50342 5.89265   1
   2  22   0 29.7611 7.76435   1
   3  22   0 8.35534 7.22092   1
   4  22   0 12.3230 7.18468   1
   5  22   0 -4.9668 6.20561   1
   6  22   0 31.0240 6.48759   1
   7  22   0 10.4721 6.58858   1
   8  22   0 840.040 57.6202   1
   0  23   0 18.6229 8.39366   1
   1  23   0 9.98012 6.16465   1
   2  23   0 150.302 11.6753   1
   3  23   0 1.73100 8.20631   1
   4  23   0 209.195 12.9397   1
   5  23   0 6.41802 6.77184   1
   6  23   0 14.6304 6.21887   1
   7  23   0 -2.2114 6.53247   1
   8  23   0 61.1438 21.2302   1
   0  24   0 670.131 30.4779   1
   1  24   0 -4.9102 6.11043   1
   2  24   0 55.9886 9.02172   1
   3  24   0 6.46978 8.86036   1
   4  24   0 251.632 15.5133   1
   5  24   0 5.82104 7.01241   1
   6  24   0 13.3261 6.57604   1
   7  24   0 -1.0487 7.27465   1
   0  25   0 18.1552 10.1043   1
   1  25   0 54.2676 7.44358   1
   2  25   0 25.4545 8.43706   1
   3  25   0 -2.2699 8.65677   1
   4  25   0 90.7158 11.2021   1
   5  25   0 -11.452 16.7855   1
   6  25   0 208.526 22.7775   1
   7  25   0 -18.361 17.9499   1
   0  26   0 401.351 22.9622   1
   1  26   0 7.41629 7.23054   1
   2  26   0 198.213 13.5915   1
   3  26   0 5.49434 9.13604   1
   4  26   0 30.4294 13.1064   1
   5  26   0 43.3432 20.2334   1
   6  26   0 123.393 30.2415   1
   7  26   0 0.85836 19.7294   1
   0  27   0 20.4237 18.5696   1
   1  27   0 8.54552 9.07366   1
   2  27   0 34.7839 10.3790   1
   3  27   0 33.1300 12.6810   1
   4  27   0 154.671 18.9165   1
   0  28   0 69.9115 20.8679   1
   1  28   0 25.9158 13.1847   1
   3  28   0 10.2470 11.8263   1
   4  28   0 247.084 21.5746   1
   0  29   0 17.2321 19.5030   1
   1  29   0 39.1158 19.8479   1
   1  30   0 14.8620 19.4941   1
   2   0   1 2.91987 3.68984   1
   3   0   1 -0.3054 2.87356   1
   0   1   1 0.73732 2.10349   1
   1   1   1 162.929 5.03351  -3
   1   1   1 162.929 5.03351   1
   1   1   1 152.022 5.92302  -3
   1   1   1 152.022 5.92302  -2
   1   1   1 152.022 5.92302   1
   2   1   1 801.769 41.7434  -3
   2   1   1 801.769 41.7434  -2
   2   1   1 801.769 41.7434   1
   3   1   1 715.559 19.0772  -3
   3   1   1 715.559 19.0772  -2
   3   1   1 715.559 19.0772   1
   4   1   1 850.952 44.9094  -3
   4   1   1 850.952 44.9094   1
   5   1   1 47.8607 8.15994  -3
   5   1   1 47.8607 8.15994   1
   6   1   1 3929.75 198.203   1
   7   1   1 209.719 14.3382  -3
   7   1   1 209.719 14.3382   1
   4   2   1 801.190 29.4980  -3
   4   2   1 801.190 29.4980   1
   5   2   1 2489.04 127.115  -3
   5   2   1 2489.04 127.115   1
   6   2   1 -9.3103 7.95655  -3
   6   2   1 -9.3103 7.95655   1
   7   2   1 95.9293 6.70007  -3
   7   2   1 95.9293 6.70007   1
   8   2   1 290.374 12.5541   1
   0   3   1 1.31925 4.33156   1
   1   3   1 170.384 5.60663  -3
   1   3   1 170.384 5.60663   1
   1   3   1 160.032 4.97648  -2
   1   3   1 160.032 4.97648   1
   1   3   1 181.535 4.96380  -3
   1   3   1 181.535 4.96380  -2
   1   3   1 181.535 4.96380   1
   2   3   1 101.647 5.56126  -3
   2   3   1 101.647 5.56126  -2
   2   3   1 101.647 5.56126   1
   2   3   1 110.795 4.92742  -3
   2   3   1 110.795 4.92742   1
   2   3   1 112.777 10.7325  -2
   2   3   1 112.777 10.7325   1
   6   3   1 572.470 23.4109  -3
   6   3   1 572.470 23.4109   1
   7   3   1 26.1774 8.77219  -3
   7   3   1 26.1774 8.77219   1
   8   3   1 592.515 34.3363  -3
   8   3   1 592.515 34.3363   1
   9   3   1 718.986 22.4911   1
  10   3   1 399.958 13.4249   1
   0   4   1 1012.35 26.3530  -3
   0   4   1 1012.35 26.3530  -2
   0   4   1 1012.35 26.3530   1
   0   4   1 929.888 50.5106  -3
   0   4   1 929.888 50.5106   1
   0   4   1 980.350 49.2238  -2
   0   4   1 980.350 49.2238   1
   1   4   1 46.4188 5.52350  -3
   1   4   1 46.4188 5.52350  -2
   1   4   1 46.4188 5.52350   1
   1   4   1 27.0920 6.65957  -3
   1   4   1 27.0920 6.65957   1
   1   4   1 39.5206 4.92760  -2
   1   4   1 39.5206 4.92760   1
   2   4   1 4473.16 131.186  -3
   2   4   1 4473.16 131.186  -2
   2   4   1 4473.16 131.186   1
   3   4   1 63.0932 4.66062  -3
   3   4   1 63.0932 4.66062   1
   3   4   1 62.4380 7.92730  -2
   3   4   1 62.4380 7.92730   1
   3   4   1 76.5507 18.2999  -3
   3   4   1 76.5507 18.2999  -2
   3   4   1 76.5507 18.2999   1
   4   4   1 904.258 28.0477  -3
   4   4   1 904.258 28.0477   1
   5   4   1 263.715 8.91632  -3
   5   4   1 263.715 8.91632   1
   6   4   1 556.783 22.1409  -3
   6   4   1 556.783 22.1409   1
   6   4   1 462.008 25.1263  -2
   6   4   1 462.008 25.1263   1
   7   4   1 290.343 10.9864  -3
   7   4   1 290.343 10.9864   1
   8   4   1 799.151 45.5675  -3
   8   4   1 799.151 45.5675   1
   9   4   1 351.190 11.1007   1
  10   4   1 213.421 7.85738   1
  11   4   1 126.011 6.77758   1
   0   5   1 1.39654 5.48976   1
   1   5   1 1859.35 41.8043  -3
   1   5   1 1859.35 41.8043  -2
   1   5   1 1859.35 41.8043   1
   1   5   1 1621.21 35.7386  -2
   1   5   1 1621.21 35.7386   1
   1   5   1 1656.23 43.4240  -3
   1   5   1 1656.23 43.4240   1
   2   5   1 735.570 13.8429  -3
   2   5   1 735.570 13.8429   1
   2   5   1 830.651 24.5030  -3
   2   5   1 830.651 24.5030  -2
   2   5   1 830.651 24.5030   1
   2   5   1 732.482 15.6522  -2
   2   5   1 732.482 15.6522   1
   3   5   1 661.299 17.3630  -2
   3   5   1 661.299 17.3630   1
   3   5   1 651.006 15.3481  -3
   3   5   1 651.006 15.3481   1
   4   5   1 34.5697 9.75786  -2
   4   5   1 34.5697 9.75786   1
   4   5   1 8.26851 6.32664  -3
   4   5   1 8.26851 6.32664   1
   5   5   1 726.950 14.3252  -3
   5   5   1 726.950 14.3252   1
   6   5   1 768.799 15.9839  -3
   6   5   1 768.799 15.9839   1
   7   5   1 787.713 25.4486  -3
   7   5   1 787.713 25.4486   1
   8   5   1 227.993 22.9994  -3
   8   5   1 227.993 22.9994   1
   9   5   1 219.703 8.61759   1
  10   5   1 28.2788 4.89749   1
  11   5   1 0.15874 5.09624   1
  12   5   1 72.5915 7.65986   1
   0   6   1 2747.47 63.4326  -3
   0   6   1 2747.47 63.4326   1
   0   6   1 2873.86 80.9531  -2
   0   6   1 2873.86 80.9531   1
   0   6   1 3097.47 154.046  -3
   0   6   1 3097.47 154.046  -2
   0   6   1 3097.47 154.046   1
   1   6   1 4707.50 84.6731  -3
   1   6   1 4707.50 84.6731   1
   1   6   1 4268.52 210.356  -2
   1   6   1 4268.52 210.356   1
   2   6   1 3127.86 41.3022  -3
   2   6   1 3127.86 41.3022   1
   2   6   1 3052.50 67.1597  -2
   2   6   1 3052.50 67.1597   1
   2   6   1 3383.31 168.018  -3
   2   6   1 3383.31 168.018  -2
   2   6   1 3383.31 168.018   1
   3   6   1 254.894 10.3776  -2
   3   6   1 254.894 10.3776   1
   3   6   1 280.866 7.74266  -3
   3   6   1 280.866 7.74266   1
   4   6   1 23.3984 4.00780  -3
   4   6   1 23.3984 4.00780   1
   4   6   1 44.3823 7.47503  -2
   4   6   1 44.3823 7.47503   1
   5   6   1 2383.10 38.7151  -3
   5   6   1 2383.10 38.7151   1
   6   6   1 1050.52 21.4844  -3
   6   6   1 1050.52 21.4844   1
   7   6   1 10.7474 7.10995  -3
   7   6   1 10.7474 7.10995   1
   8   6   1 766.161 19.1510   1
   9   6   1 538.309 16.2207   1
  10   6   1 20.3777 6.21009   1
  11   6   1 50.0933 7.22077   1
  12   6   1 274.082 13.9867   1
  13   6   1 61.7768 7.90676   1
   0   7   1 2.47264 4.68431   1
   1   7   1 956.894 13.6649  -3
   1   7   1 956.894 13.6649   1
   1   7   1 936.889 22.1577  -2
   1   7   1 936.889 22.1577   1
   1   7   1 969.160 38.4316  -3
   1   7   1 969.160 38.4316  -2
   1   7   1 969.160 38.4316   1
   2   7   1 1875.49 35.3464  -2
   2   7   1 1875.49 35.3464   1
   2   7   1 1943.15 27.2064  -3
   2   7   1 1943.15 27.2064   1
   3   7   1 57.4601 4.26335  -3
   3   7   1 57.4601 4.26335   1
   3   7   1 63.4263 7.02358  -2
   3   7   1 63.4263 7.02358   1
   4   7   1 -0.6443 4.54004  -3
   4   7   1 -0.6443 4.54004   1
   5   7   1 5197.64 93.1219  -3
   5   7   1 5197.64 93.1219   1
   5   7   1 5400.61 265.758  -2
   5   7   1 5400.61 265.758   1
   6   7   1 38.1921 4.82361  -3
   6   7   1 38.1921 4.82361   1
   7   7   1 518.134 14.6249  -3
   7   7   1 518.134 14.6249   1
   8   7   1 2624.20 134.303  -3
   8   7   1 2624.20 134.303   1
   9   7   1 54.9807 8.00174   1
  10   7   1 31.0625 7.23345   1
  11   7   1 53.5394 7.89687   1
  12   7   1 50.7328 7.69991   1
  13   7   1 196.372 12.2604   1
   0   8   1 657.608 14.7165  -3
   0   8   1 657.608 14.7165   1
   0   8   1 656.379 16.9157  -2
   0   8   1 656.379 16.9157   1
   1   8   1 29.5662 4.92185  -3
   1   8   1 29.5662 4.92185   1
   1   8   1 31.1437 4.28291  -2
   1   8   1 31.1437 4.28291   1
   2   8   1 295.569 8.33711  -2
   2   8   1 295.569 8.33711   1
   2   8   1 303.193 7.55405  -3
   2   8   1 303.193 7.55405   1
   3   8   1 1575.32 22.4348  -3
   3   8   1 1575.32 22.4348   1
   3   8   1 1642.44 82.3904  -2
   3   8   1 1642.44 82.3904   1
   4   8   1 377.186 8.04731  -3
   4   8   1 377.186 8.04731   1
   5   8   1 731.501 12.0866  -3
   5   8   1 731.501 12.0866   1
   6   8   1 369.118 11.0664  -3
   6   8   1 369.118 11.0664   1
   6   8   1 350.347 29.0434  -2
   6   8   1 350.347 29.0434   1
   7   8   1 1632.63 88.6497  -2
   7   8   1 1632.63 88.6497   1
   8   8   1 1204.32 24.5000   1
   9   8   1 796.242 43.8302  -3
   9   8   1 796.242 43.8302   1
  10   8   1 69.2234 8.82460   1
  11   8   1 27.5416 7.49136   1
  12   8   1 153.759 11.8840   1
   0   9   1 -2.8271 5.14636   1
   1   9   1 1486.89 21.7639  -3
   1   9   1 1486.89 21.7639   1
   1   9   1 1413.30 29.9602  -2
   1   9   1 1413.30 29.9602   1
   2   9   1 326.452 6.99139  -3
   2   9   1 326.452 6.99139   1
   2   9   1 308.491 13.2778  -2
   2   9   1 308.491 13.2778   1
   3   9   1 51.8358 4.54016  -3
   3   9   1 51.8358 4.54016   1
   4   9   1 25.3042 4.83746  -3
   4   9   1 25.3042 4.83746   1
   5   9   1 16.6640 5.59031  -3
   5   9   1 16.6640 5.59031   1
   6   9   1 3973.71 101.224  -3
   6   9   1 3973.71 101.224   1
   7   9   1 630.396 9.88580   1
   8   9   1 119.291 5.67279   1
   9   9   1 218.541 6.99113   1
  10   9   1 11.7694 2.82100   1
  11   9   1 23.2566 7.55942   1
  12   9   1 72.3294 9.79019   1
   0  10   1 3185.87 55.0655  -3
   0  10   1 3185.87 55.0655   1
   0  10   1 3063.69 153.935  -2
   0  10   1 3063.69 153.935   1
   1  10   1 7130.33 114.763  -3
   1  10   1 7130.33 114.763   1
   1  10   1 6545.35 322.426  -2
   1  10   1 6545.35 322.426   1
   2  10   1 3762.22 48.1260  -3
   2  10   1 3762.22 48.1260   1
   3  10   1 631.932 11.3505  -3
   3  10   1 631.932 11.3505   1
   4  10   1 5.40296 5.10773  -3
   4  10   1 5.40296 5.10773   1
   5  10   1 109.321 7.09378  -3
   5  10   1 109.321 7.09378   1
   6  10   1 691.103 31.0856  -3
   6  10   1 691.103 31.0856   1
   7  10   1 887.970 20.5716   1
   8  10   1 32.6740 3.98577   1
   9  10   1 16.9594 3.71618   1
  10  10   1 4.77381 4.02034   1
  11  10   1 10.3744 7.64360   1
  12  10   1 76.8927 10.2282   1
   0  11   1 -8.4910 4.23797   1
   1  11   1 349.383 7.83303  -3
   1  11   1 349.383 7.83303   1
   2  11   1 186.436 6.49437  -3
   2  11   1 186.436 6.49437   1
   3  11   1 221.150 6.29167  -3
   3  11   1 221.150 6.29167   1
   4  11   1 1358.03 25.3201  -3
   4  11   1 1358.03 25.3201   1
   5  11   1 977.755 23.7898  -3
   5  11   1 977.755 23.7898   1
   6  11   1 478.440 38.1986  -3
   6  11   1 478.440 38.1986   1
   7  11   1 79.7818 3.56514   1
   8  11   1 287.735 11.3663   1
   9  11   1 864.795 24.7418   1
  10  11   1 11.7231 4.52169   1
  11  11   1 2.68873 4.12992   1
   0  12   1 200.796 9.99057  -3
   0  12   1 200.796 9.99057   1
   1  12   1 -20.763 6.43935  -3
   1  12   1 -20.763 6.43935   1
   2  12   1 105.995 5.93113  -3
   2  12   1 105.995 5.93113   1
   3  12   1 -4.9709 6.23975  -3
   3  12   1 -4.9709 6.23975   1
   4  12   1 161.465 11.7890  -3
   4  12   1 161.465 11.7890   1
   5  12   1 539.996 27.4548  -3
   5  12   1 539.996 27.4548   1
   6  12   1 1771.98 28.3771   1
   7  12   1 1364.83 27.5131   1
   8  12   1 181.052 9.56147   1
   9  12   1 279.067 11.3564   1
  10  12   1 75.6904 6.77601   1
  11  12   1 217.502 9.59800   1
  12  12   1 -3.0847 6.97874   1
   0  13   1 -10.341 4.41448   1
   1  13   1 256.606 9.37164  -3
   1  13   1 256.606 9.37164   1
   2  13   1 2214.59 39.9285  -3
   2  13   1 2214.59 39.9285   1
   3  13   1 206.178 8.46657  -3
   3  13   1 206.178 8.46657   1
   4  13   1 35.8942 14.3985  -3
   4  13   1 35.8942 14.3985   1
   5  13   1 85.5103 25.5650  -3
   5  13   1 85.5103 25.5650   1
   6  13   1 4216.00 108.956   1
   7  13   1 32.3526 5.21795   1
   8  13   1 1423.27 31.0640   1
   9  13   1 627.646 19.7888   1
  10  13   1 55.9493 6.31697   1
  11  13   1 9.82366 5.07830   1
  12  13   1 58.1711 7.15414   1
   0  14   1 3181.23 63.2165  -3
   0  14   1 3181.23 63.2165   1
   1  14   1 38.3176 8.96492  -3
   1  14   1 38.3176 8.96492   1
   2  14   1 665.050 23.7476  -3
   2  14   1 665.050 23.7476   1
   3  14   1 1586.02 64.4707  -3
   3  14   1 1586.02 64.4707   1
   4  14   1 42.0440 28.8512  -3
   4  14   1 42.0440 28.8512   1
   5  14   1 434.219 8.83128   1
   6  14   1 1283.94 36.3502   1
   7  14   1 52.2545 6.96163   1
   8  14   1 97.7037 5.72678   1
   9  14   1 1.86427 5.41913   1
  10  14   1 50.4151 6.38258   1
  11  14   1 57.7090 8.12942   1
   0  15   1 -1.8733 4.02848   1
   1  15   1 81.9356 11.4385  -3
   1  15   1 81.9356 11.4385   1
   2  15   1 2806.63 83.8768  -3
   2  15   1 2806.63 83.8768   1
   3  15   1 413.428 40.8362  -3
   3  15   1 413.428 40.8362   1
   4  15   1 434.093 8.18631   1
   5  15   1 22.6376 3.55978   1
   6  15   1 38.4103 3.88948   1
   7  15   1 65.4618 7.72603   1
   8  15   1 314.559 9.91004   1
   9  15   1 190.735 10.7944   1
  10  15   1 118.887 9.15065   1
  11  15   1 4.51262 11.4786   1
   0  16   1 269.089 24.7784  -3
   0  16   1 269.089 24.7784   1
   1  16   1 61.4660 29.6378  -3
   1  16   1 61.4660 29.6378   1
   2  16   1 892.506 42.6613  -3
   2  16   1 892.506 42.6613   1
   3  16   1 30.0595 3.18467   1
   4  16   1 707.655 13.0741   1
   5  16   1 504.994 10.3074   1
   6  16   1 299.502 9.39134   1
   7  16   1 350.735 14.7868   1
   8  16   1 52.9986 6.23066   1
   9  16   1 228.106 8.24770   1
  10  16   1 488.109 17.3090   1
   0  17   1 -1.6620 4.32130   1
   1  17   1 313.658 6.38635   1
   2  17   1 34.5111 3.56524   1
   3  17   1 154.836 6.28671   1
   4  17   1 649.158 12.4670   1
   5  17   1 91.9969 4.84582   1
   6  17   1 174.850 7.49875   1
   7  17   1 54.5125 7.88109   1
   8  17   1 552.700 19.4040   1
   9  17   1 189.148 7.92739   1
  10  17   1 15.8823 7.28936   1
   0  18   1 71.8152 5.77811   1
   1  18   1 375.705 7.60323   1
   2  18   1 2780.42 40.2669   1
   3  18   1 67.6716 5.13202   1
   4  18   1 60.7115 4.97580   1
   5  18   1 118.646 5.44824   1
   6  18   1 -0.1252 4.07440   1
   7  18   1 -0.9132 6.69840   1
   8  18   1 188.872 11.9571   1
   9  18   1 111.491 6.89309   1
   0  19   1 -0.9892 4.63423   1
   1  19   1 517.744 9.82531   1
   2  19   1 643.704 12.5307   1
   3  19   1 479.998 11.1949   1
   4  19   1 523.948 13.0462   1
   5  19   1 53.0552 4.76579   1
   6  19   1 40.8979 5.08109   1
   7  19   1 86.4607 5.07565   1
   8  19   1 186.492 12.4235   1
   9  19   1 194.649 9.00844   1
  10  19   1 175.160 10.4019   1
   0  20   1 1300.42 29.7362   1
   1  20   1 265.309 7.00586   1
   2  20   1 1131.41 20.8460   1
   3  20   1 94.4665 5.85402   1
   4  20   1 33.1822 5.23729   1
   5  20   1 208.514 7.83068   1
   6  20   1 97.8046 5.89998   1
   7  20   1 47.6689 5.20833   1
   8  20   1 174.230 12.5714   1
   9  20   1 218.901 20.2249   1
   0  21   1 5.83025 5.54829   1
   1  21   1 316.985 8.24895   1
   2  21   1 91.1899 6.02848   1
   3  21   1 -3.1078 4.45042   1
   4  21   1 31.2110 5.47200   1
   5  21   1 181.520 7.65025   1
   6  21   1 70.8308 5.82648   1
   7  21   1 169.526 7.74011   1
   8  21   1 143.184 12.2767   1
   0  22   1 42.3360 6.40150   1
   1  22   1 17.0676 4.39489   1
   2  22   1 496.501 12.9372   1
   3  22   1 -1.0852 4.93219   1
   4  22   1 20.1581 5.36516   1
   5  22   1 137.756 7.10324   1
   6  22   1 64.6562 5.20472   1
   7  22   1 215.603 8.95337   1
   8  22   1 152.834 18.0364   1
   0  23   1 11.6206 5.80755   1
   1  23   1 137.054 6.72871   1
   2  23   1 23.7555 5.60517   1
   3  23   1 109.588 7.98521   1
   4  23   1 228.900 9.55052   1
   5  23   1 104.995 6.66837   1
   6  23   1 82.6248 5.69755   1
   7  23   1 154.385 7.90823   1
   8  23   1 121.941 17.8717   1
   0  24   1 42.4165 7.49999   1
   1  24   1 67.4918 5.39211   1
   2  24   1 11.6997 5.56984   1
   3  24   1 6.02023 5.97446   1
   4  24   1 197.679 10.2258   1
   5  24   1 50.4266 5.67633   1
   6  24   1 131.410 7.00149   1
   7  24   1 7.39229 5.62350   1
   0  25   1 5.85887 6.98871   1
   1  25   1 247.243 8.39567   1
   2  25   1 9.24844 5.75853   1
   3  25   1 7.81144 6.25072   1
   4  25   1 194.074 10.2825   1
   5  25   1 124.664 17.1572   1
   6  25   1 47.2518 10.7135   1
   7  25   1 7.94106 13.6114   1
   0  26   1 63.6266 8.34419   1
   1  26   1 113.665 7.00107   1
   2  26   1 83.9129 7.59313   1
   3  26   1 4.06775 6.40398   1
   4  26   1 2.30275 8.44159   1
   5  26   1 306.551 24.8435   1
   6  26   1 147.264 30.0388   1
   7  26   1 9.27971 13.3226   1
   0  27   1 4.44555 12.0385   1
   1  27   1 28.8444 6.84223   1
   2  27   1 9.27491 6.69398   1
   3  27   1 103.577 10.7541   1
   4  27   1 223.640 14.8751   1
   0  28   1 56.6508 14.2790   1
   1  28   1 9.69960 8.64197   1
   3  28   1 17.0118 8.97000   1
   4  28   1 45.7507 10.0286   1
   0  29   1 6.91857 12.4390   1
   1  29   1 14.3183 13.9612   1
   1  30   1 45.6710 15.4467   1
   2   0   2 425.535 23.0696  -3
   2   0   2 425.535 23.0696   1
   4   0   2 255.299 10.7081   1
   6   0   2 1998.52 101.873  -3
   6   0   2 1998.52 101.873   1
   0   1   2 1.66664 2.01151   1
   1   1   2 2174.71 78.2554  -3
   1   1   2 2174.71 78.2554   1
   2   1   2 97.8643 7.65695  -3
   2   1   2 97.8643 7.65695  -2
   2   1   2 97.8643 7.65695   1
   2   1   2 94.5053 3.91987  -3
   2   1   2 94.5053 3.91987   1
   2   1   2 104.082 6.10952  -2
   2   1   2 104.082 6.10952   1
   3   1   2 499.397 19.8923  -3
   3   1   2 499.397 19.8923  -2
   3   1   2 499.397 19.8923   1
   3   1   2 475.999 15.3691  -3
   3   1   2 475.999 15.3691   1
   4   1   2 2266.10 115.553  -3
   4   1   2 2266.10 115.553   1
   4   1   2 2230.90 113.614  -2
   4   1   2 2230.90 113.614   1
   5   1   2 1639.08 84.1767  -3
   5   1   2 1639.08 84.1767   1
   5   1   2 1567.58 80.3097  -2
   5   1   2 1567.58 80.3097   1
   6   1   2 57.4333 6.68110  -2
   6   1   2 57.4333 6.68110   1
   6   1   2 25.2175 9.40587  -3
   6   1   2 25.2175 9.40587   1
   7   1   2 29.9500 8.61985  -3
   7   1   2 29.9500 8.61985   1
   0   2   2 41.3467 4.31601  -3
   0   2   2 41.3467 4.31601  -2
   0   2   2 41.3467 4.31601   1
   1   2   2 5.98655 1.93264  -3
   1   2   2 5.98655 1.93264  -2
   1   2   2 5.98655 1.93264   1
   1   2   2 5.22306 2.43276  -3
   1   2   2 5.22306 2.43276   1
   1   2   2 7.39906 2.62561  -2
   1   2   2 7.39906 2.62561   1
   2   2   2 -1.2076 2.22513  -3
   2   2   2 -1.2076 2.22513   1
   3   2   2 222.491 9.91337  -2
   3   2   2 222.491 9.91337   1
   3   2   2 222.093 7.18656  -3
   3   2   2 222.093 7.18656  -2
   3   2   2 222.093 7.18656   1
   3   2   2 219.072 6.75189  -3
   3   2   2 219.072 6.75189   1
   4   2   2 274.782 8.77130  -3
   4   2   2 274.782 8.77130   1
   4   2   2 284.383 18.8350  -2
   4   2   2 284.383 18.8350   1
   5   2   2 5493.26 277.587  -3
   5   2   2 5493.26 277.587   1
   6   2   2 250.588 12.7159  -3
   6   2   2 250.588 12.7159   1
   6   2   2 276.496 18.2966  -2
   6   2   2 276.496 18.2966   1
   7   2   2 232.809 11.9810  -3
   7   2   2 232.809 11.9810   1
   7   2   2 199.837 14.9837  -2
   7   2   2 199.837 14.9837   1
   8   2   2 62.5953 4.11262   1
   9   2   2 270.376 11.9615   1
   0   3   2 -1.7586 5.90732   1
   1   3   2 2236.20 39.9067  -3
   1   3   2 2236.20 39.9067   1
   1   3   2 2325.26 37.2480  -3
   1   3   2 2325.26 37.2480  -2
   1   3   2 2325.26 37.2480   1
   1   3   2 1996.28 69.8046  -2
   1   3   2 1996.28 69.8046   1
   2   3   2 1779.06 32.3989  -3
   2   3   2 1779.06 32.3989  -2
   2   3   2 1779.06 32.3989   1
   2   3   2 1630.20 29.6135  -3
   2   3   2 1630.20 29.6135   1
   2   3   2 1698.58 59.6391  -2
   2   3   2 1698.58 59.6391   1
   4   3   2 65.0117 5.56302  -3
   4   3   2 65.0117 5.56302   1
   4   3   2 52.5954 5.36852  -2
   4   3   2 52.5954 5.36852   1
   5   3   2 40.9995 6.36729  -3
   5   3   2 40.9995 6.36729   1
   6   3   2 322.822 11.7870  -3
   6   3   2 322.822 11.7870   1
   7   3   2 138.656 16.0242  -3
   7   3   2 138.656 16.0242   1
   8   3   2 832.324 32.4447  -3
   8   3   2 832.324 32.4447   1
   9   3   2 663.975 18.2186   1
  10   3   2 73.5379 5.47624   1
   1   4   2 3.53740 3.82209  -3
   1   4   2 3.53740 3.82209  -2
   1   4   2 3.53740 3.82209   1
   2   4   2 22.8950 4.74869  -3
   2   4   2 22.8950 4.74869  -2
   2   4   2 22.8950 4.74869   1
   2   4   2 37.2945 4.33655  -3
   2   4   2 37.2945 4.33655   1
   2   4   2 42.6395 3.63838  -2
   2   4   2 42.6395 3.63838   1
   4   4   2 1.12563 10.4439  -2
   4   4   2 1.12563 10.4439   1
   4   4   2 -6.0495 5.94377  -3
   4   4   2 -6.0495 5.94377   1
   5   4   2 3031.03 153.835  -2
   5   4   2 3031.03 153.835   1
   5   4   2 3330.62 119.951  -3
   5   4   2 3330.62 119.951   1
   6   4   2 20.3310 4.92191  -3
   6   4   2 20.3310 4.92191   1
   6   4   2 15.0012 12.9734  -2
   6   4   2 15.0012 12.9734   1
   7   4   2 15.1206 5.93128  -3
   7   4   2 15.1206 5.93128   1
   8   4   2 859.731 48.8214  -3
   8   4   2 859.731 48.8214   1
   9   4   2 594.220 16.9389   1
  10   4   2 69.4392 5.04431   1
  11   4   2 53.1808 5.06477   1
  12   4   2 9.14530 6.36179   1
   0   5   2 -1.5741 4.82329   1
   1   5   2 5380.15 272.972  -3
   1   5   2 5380.15 272.972   1
   2   5   2 -5.6827 3.26801  -3
   2   5   2 -5.6827 3.26801   1
   3   5   2 736.414 17.9677  -2
   3   5   2 736.414 17.9677   1
   3   5   2 738.667 14.6002  -3
   3   5   2 738.667 14.6002   1
   4   5   2 819.684 20.3958  -3
   4   5   2 819.684 20.3958   1
   5   5   2 13.0256 4.67147  -3
   5   5   2 13.0256 4.67147   1
   6   5   2 28.4626 4.43504  -3
   6   5   2 28.4626 4.43504   1
   6   5   2 33.7753 10.0411  -2
   6   5   2 33.7753 10.0411   1
   7   5   2 83.3960 6.28272  -3
   7   5   2 83.3960 6.28272   1
   7   5   2 55.6896 16.9501  -2
   7   5   2 55.6896 16.9501   1
   8   5   2 1686.75 89.6244  -3
   8   5   2 1686.75 89.6244   1
   9   5   2 544.263 16.0789   1
  10   5   2 75.2793 6.74115   1
  11   5   2 207.823 11.6066   1
  12   5   2 72.2215 7.33826   1
  13   5   2 43.0456 8.19832   1
   0   6   2 810.083 21.4689  -2
   0   6   2 810.083 21.4689   1
   0   6   2 812.220 19.3838  -3
   0   6   2 812.220 19.3838   1
   0   6   2 880.279 28.3307  -3
   0   6   2 880.279 28.3307  -2
   0   6   2 880.279 28.3307   1
   1   6   2 141.340 9.26013  -3
   1   6   2 141.340 9.26013  -2
   1   6   2 141.340 9.26013   1
   1   6   2 147.704 5.70490  -2
   1   6   2 147.704 5.70490   1
   1   6   2 149.747 6.74290  -3
   1   6   2 149.747 6.74290   1
   2   6   2 460.138 10.1823  -2
   2   6   2 460.138 10.1823   1
   2   6   2 426.529 8.74868  -3
   2   6   2 426.529 8.74868   1
   3   6   2 517.967 12.1608  -3
   3   6   2 517.967 12.1608   1
   3   6   2 547.598 14.1852  -2
   3   6   2 547.598 14.1852   1
   4   6   2 1482.91 27.5522  -3
   4   6   2 1482.91 27.5522   1
   4   6   2 1470.62 44.8974  -2
   4   6   2 1470.62 44.8974   1
   5   6   2 598.729 12.4730  -3
   5   6   2 598.729 12.4730   1
   5   6   2 550.527 34.4097  -2
   5   6   2 550.527 34.4097   1
   6   6   2 62.5157 4.85426  -3
   6   6   2 62.5157 4.85426   1
   7   6   2 1541.03 40.3706  -3
   7   6   2 1541.03 40.3706   1
   8   6   2 12.8734 2.88769   1
   9   6   2 287.587 10.3774   1
  10   6   2 33.0199 6.75942   1
  11   6   2 304.003 15.0728   1
  12   6   2 5.51080 5.78963   1
  13   6   2 121.924 9.14005   1
   0   7   2 0.12151 4.47581   1
   1   7   2 3151.51 41.9612  -3
   1   7   2 3151.51 41.9612   1
   1   7   2 3075.65 61.4950  -2
   1   7   2 3075.65 61.4950   1
   1   7   2 3259.70 162.552  -3
   1   7   2 3259.70 162.552  -2
   1   7   2 3259.70 162.552   1
   2   7   2 29.9628 4.50980  -3
   2   7   2 29.9628 4.50980   1
   2   7   2 42.1416 6.21784  -2
   2   7   2 42.1416 6.21784   1
   3   7   2 460.101 13.7411  -2
   3   7   2 460.101 13.7411   1
   3   7   2 468.396 9.86421  -3
   3   7   2 468.396 9.86421   1
   4   7   2 1915.96 30.1030  -3
   4   7   2 1915.96 30.1030   1
   4   7   2 1987.20 59.4840  -2
   4   7   2 1987.20 59.4840   1
   5   7   2 2748.77 42.6636  -3
   5   7   2 2748.77 42.6636   1
   6   7   2 201.863 6.15005  -3
   6   7   2 201.863 6.15005   1
   7   7   2 1245.65 33.8635  -3
   7   7   2 1245.65 33.8635   1
   7   7   2 1183.66 66.2857  -2
   7   7   2 1183.66 66.2857   1
   8   7   2 948.036 51.3190  -3
   8   7   2 948.036 51.3190   1
   9   7   2 42.8639 4.14934   1
  10   7   2 25.9628 6.86025   1
  11   7   2 43.1085 7.49787   1
  12   7   2 8.13792 6.22114   1
  13   7   2 198.919 12.3418   1
   0   8   2 2121.63 42.3328  -3
   0   8   2 2121.63 42.3328   1
   0   8   2 2151.75 53.6084  -2
   0   8   2 2151.75 53.6084   1
   1   8   2 5814.21 85.4053  -3
   1   8   2 5814.21 85.4053   1
   1   8   2 5691.53 198.183  -2
   1   8   2 5691.53 198.183   1
   2   8   2 1187.34 18.9237  -3
   2   8   2 1187.34 18.9237   1
   2   8   2 1140.04 26.5826  -2
   2   8   2 1140.04 26.5826   1
   3   8   2 5359.47 90.5800  -3
   3   8   2 5359.47 90.5800   1
   4   8   2 -4.3266 4.95435  -3
   4   8   2 -4.3266 4.95435   1
   5   8   2 1659.82 25.4003  -3
   5   8   2 1659.82 25.4003   1
   5   8   2 1414.29 77.4310  -2
   5   8   2 1414.29 77.4310   1
   6   8   2 848.812 17.4230  -3
   6   8   2 848.812 17.4230   1
   7   8   2 1823.09 55.2710  -3
   7   8   2 1823.09 55.2710   1
   8   8   2 -6.1055 14.8781  -3
   8   8   2 -6.1055 14.8781   1
   9   8   2 76.9227 4.40902   1
  10   8   2 19.7598 7.13541   1
  11   8   2 129.367 11.2856   1
  12   8   2 200.224 13.1154   1
   0   9   2 -0.8955 4.74795   1
   1   9   2 -7.3513 5.42487  -3
   1   9   2 -7.3513 5.42487   1
   1   9   2 23.5748 8.38693  -2
   1   9   2 23.5748 8.38693   1
   2   9   2 749.169 11.6284  -3
   2   9   2 749.169 11.6284   1
   2   9   2 699.096 20.0658  -2
   2   9   2 699.096 20.0658   1
   3   9   2 2647.67 35.4303  -3
   3   9   2 2647.67 35.4303   1
   4   9   2 516.416 9.67196  -3
   4   9   2 516.416 9.67196   1
   5   9   2 699.382 12.3502  -3
   5   9   2 699.382 12.3502   1
   6   9   2 416.131 12.5402  -3
   6   9   2 416.131 12.5402   1
   7   9   2 54.9641 22.6772  -2
   7   9   2 54.9641 22.6772   1
   8   9   2 1651.97 35.6583   1
   9   9   2 515.606 12.6636   1
  10   9   2 5.40710 3.08731   1
  11   9   2 260.680 15.4850   1
  12   9   2 34.0970 8.02961   1
   0  10   2 1897.38 98.2112  -2
   0  10   2 1897.38 98.2112   1
   0  10   2 1829.05 32.7888  -3
   0  10   2 1829.05 32.7888   1
   1  10   2 359.038 7.59935  -3
   1  10   2 359.038 7.59935   1
   1  10   2 348.191 28.7615  -2
   1  10   2 348.191 28.7615   1
   2  10   2 22.2903 4.69711  -3
   2  10   2 22.2903 4.69711   1
   3  10   2 183.466 5.66871  -3
   3  10   2 183.466 5.66871   1
   4  10   2 1864.57 30.0761  -3
   4  10   2 1864.57 30.0761   1
   5  10   2 607.855 14.1789  -3
   5  10   2 607.855 14.1789   1
   6  10   2 3450.29 178.107  -3
   6  10   2 3450.29 178.107   1
   7  10   2 1140.70 25.5954   1
   8  10   2 34.8733 4.06971   1
   9  10   2 38.2630 4.40428   1
  10  10   2 23.2198 4.36502   1
  11  10   2 353.129 14.2175   1
  12  10   2 248.073 15.4323   1
   0  11   2 3.47668 3.96961   1
   1  11   2 449.535 9.27456  -3
   1  11   2 449.535 9.27456   1
   2  11   2 4436.59 58.5886  -3
   2  11   2 4436.59 58.5886   1
   3  11   2 548.964 10.0051  -3
   3  11   2 548.964 10.0051   1
   4  11   2 397.969 10.1912  -3
   4  11   2 397.969 10.1912   1
   5  11   2 4799.34 100.237  -3
   5  11   2 4799.34 100.237   1
   6  11   2 74.2813 17.1042  -3
   6  11   2 74.2813 17.1042   1
   7  11   2 218.887 5.44292   1
   8  11   2 19.9123 5.22511   1
   9  11   2 1129.98 31.3438   1
  10  11   2 90.5229 6.89793   1
  11  11   2 89.2168 6.57107   1
   0  12   2 62.4549 9.53109  -3
   0  12   2 62.4549 9.53109   1
   1  12   2 2524.50 35.7131  -3
   1  12   2 2524.50 35.7131   1
   2  12   2 358.069 7.79787  -3
   2  12   2 358.069 7.79787   1
   3  12   2 1071.12 22.3450  -3
   3  12   2 1071.12 22.3450   1
   4  12   2 107.646 10.1798  -3
   4  12   2 107.646 10.1798   1
   5  12   2 3916.03 202.873  -3
   5  12   2 3916.03 202.873   1
   6  12   2 345.845 8.03175   1
   7  12   2 59.6950 4.99685   1
   8  12   2 154.115 9.24513   1
   9  12   2 10.9273 4.94394   1
  10  12   2 1014.15 28.6392   1
  11  12   2 16.6391 4.81452   1
  12  12   2 105.769 8.30629   1
   0  13   2 0.95584 4.30888   1
   1  13   2 293.139 9.21785  -3
   1  13   2 293.139 9.21785   1
   2  13   2 512.493 10.5992  -3
   2  13   2 512.493 10.5992   1
   3  13   2 4.37144 9.83179  -3
   3  13   2 4.37144 9.83179   1
   4  13   2 121.455 25.4904  -3
   4  13   2 121.455 25.4904   1
   5  13   2 1306.54 15.3581   1
   6  13   2 2910.61 76.4326   1
   7  13   2 1003.48 25.5020   1
   8  13   2 1232.97 27.2245   1
   9  13   2 861.353 25.4307   1
  10  13   2 58.3131 6.51294   1
  11  13   2 223.656 10.2118   1
  12  13   2 336.058 15.7876   1
   0  14   2 235.506 11.4336  -3
   0  14   2 235.506 11.4336   1
   1  14   2 1278.43 28.5038  -3
   1  14   2 1278.43 28.5038   1
   2  14   2 1460.68 28.9894  -3
   2  14   2 1460.68 28.9894   1
   3  14   2 49.2644 18.8954  -3
   3  14   2 49.2644 18.8954   1
   4  14   2 29.0425 2.41722   1
   5  14   2 885.571 15.1034   1
   6  14   2 565.002 19.0003   1
   7  14   2 1401.64 39.1014   1
   8  14   2 343.403 10.1101   1
   9  14   2 187.544 10.1639   1
  10  14   2 49.7930 6.58887   1
  11  14   2 158.808 12.0542   1
   0  15   2 -3.1902 4.18564   1
   1  15   2 412.792 17.1692  -3
   1  15   2 412.792 17.1692   1
   2  15   2 2334.06 126.877  -3
   2  15   2 2334.06 126.877   1
   3  15   2 252.236 22.5286  -3
   3  15   2 252.236 22.5286   1
   4  15   2 31.3113 3.51444   1
   5  15   2 2296.85 39.4908   1
   6  15   2 39.1811 4.13737   1
   7  15   2 281.471 12.9794   1
   8  15   2 81.1915 6.66831   1
   9  15   2 202.583 8.62523   1
  10  15   2 68.6924 7.45063   1
  11  15   2 85.4995 20.5029   1
   0  16   2 302.339 25.6841  -3
   0  16   2 302.339 25.6841   1
   1  16   2 92.4152 3.87759   1
   2  16   2 624.346 9.84755   1
   3  16   2 448.543 8.07437   1
   4  16   2 214.539 6.55678   1
   5  16   2 242.821 7.11216   1
   6  16   2 291.867 9.31500   1
   7  16   2 45.8749 7.32447   1
   8  16   2 360.173 12.5358   1
   9  16   2 55.6674 4.81589   1
  10  16   2 198.415 11.1448   1
   0  17   2 9.75190 4.39705   1
   1  17   2 2592.04 32.0181   1
   2  17   2 169.095 5.61797   1
   3  17   2 136.180 5.96891   1
   4  17   2 59.7688 4.55181   1
   5  17   2 384.951 8.90429   1
   6  17   2 3.31428 3.79957   1
   7  17   2 28.0158 7.06091   1
   8  17   2 403.409 13.7678   1
   9  17   2 71.1899 5.65489   1
  10  17   2 113.288 12.5326   1
   0  18   2 963.283 20.1440   1
   1  18   2 118.096 4.79838   1
   2  18   2 1645.40 24.9284   1
   3  18   2 39.9022 4.67392   1
   4  18   2 657.801 13.9896   1
   5  18   2 35.8090 4.00893   1
   6  18   2 31.7414 4.14184   1
   7  18   2 450.832 17.6878   1
   8  18   2 64.7272 8.17668   1
   9  18   2 95.4428 6.69657   1
   0  19   2 0.85254 4.71254   1
   1  19   2 739.112 12.5076   1
   2  19   2 122.221 5.59859   1
   3  19   2 26.8511 4.53045   1
   4  19   2 17.5536 4.39977   1
   5  19   2 2.98569 3.82587   1
   6  19   2 211.855 7.78260   1
   7  19   2 27.6047 3.85250   1
   8  19   2 22.0817 7.33357   1
   9  19   2 503.711 17.0750   1
  10  19   2 109.514 8.61801   1
   0  20   2 27.2177 5.72199   1
   1  20   2 136.686 5.59047   1
   2  20   2 120.752 6.07871   1
   3  20   2 789.763 15.7608   1
   4  20   2 10.4692 4.35960   1
   5  20   2 23.2368 4.49036   1
   6  20   2 1362.54 28.6134   1
   7  20   2 41.9740 4.72019   1
   8  20   2 23.6744 7.48916   1
   9  20   2 22.6361 11.4675   1
   0  21   2 -4.0899 5.34759   1
   1  21   2 118.528 5.80125   1
   2  21   2 31.6943 4.61853   1
   3  21   2 23.8455 4.93974   1
   4  21   2 15.8785 5.13247   1
   5  21   2 62.7663 5.37545   1
   6  21   2 122.378 6.67885   1
   7  21   2 64.8971 5.59746   1
   8  21   2 89.3540 9.81165   1
   0  22   2 81.7550 7.32878   1
   1  22   2 9.11578 4.24848   1
   2  22   2 140.333 7.12832   1
   3  22   2 8.54831 5.17072   1
   4  22   2 485.343 12.8970   1
   5  22   2 64.6067 5.66489   1
   6  22   2 11.7033 4.77141   1
   7  22   2 -8.5190 4.28089   1
   8  22   2 42.6320 13.5317   1
   0  23   2 3.54371 5.69588   1
   1  23   2 182.771 7.29419   1
   2  23   2 150.055 7.42816   1
   3  23   2 152.748 9.18226   1
   4  23   2 839.887 18.8867   1
   5  23   2 239.394 8.93405   1
   6  23   2 14.7452 4.77465   1
   7  23   2 184.351 8.64400   1
   8  23   2 171.676 20.2668   1
   0  24   2 48.2270 7.68371   1
   1  24   2 102.229 6.53602   1
   2  24   2 -0.6892 5.32695   1
   3  24   2 248.937 11.1559   1
   4  24   2 29.9028 6.42291   1
   5  24   2 22.8373 5.13341   1
   6  24   2 10.7938 4.72750   1
   7  24   2 85.0351 7.80986   1
   0  25   2 7.56648 6.79193   1
   1  25   2 136.839 7.60168   1
   2  25   2 61.2345 6.70670   1
   3  25   2 96.8431 8.12631   1
   4  25   2 28.5571 6.54641   1
   5  25   2 35.5189 12.5457   1
   6  25   2 69.6308 12.0812   1
   7  25   2 215.251 23.3923   1
   0  26   2 381.045 15.7445   1
   1  26   2 32.2359 6.02188   1
   2  26   2 464.116 14.2879   1
   3  26   2 107.364 8.78898   1
   4  26   2 168.364 12.9658   1
   5  26   2 28.9441 13.7629   1
   6  26   2 177.525 34.5250   1
   7  26   2 235.174 24.4125   1
   0  27   2 17.7340 12.1882   1
   1  27   2 233.565 11.1380   1
   2  27   2 145.009 10.4184   1
   3  27   2 37.0967 8.94648   1
   4  27   2 1052.95 32.8341   1
   0  28   2 8.34807 12.7429   1
   1  28   2 33.7987 9.38650   1
   3  28   2 -0.3191 8.14388   1
   4  28   2 362.722 17.8928   1
   0  29   2 11.0851 12.6191   1
   1  29   2 -4.7920 13.0566   1
   1  30   2 84.1504 16.1522   1
   1   0   3 0.74669 2.26227   1
   2   0   3 -1.2751 2.14259   1
   3   0   3 0.93714 3.23586   1
   4   0   3 4.00983 2.84367   1
   5   0   3 58.4737 7.73726   1
   6   0   3 2.99623 4.39869   1
   7   0   3 7.69125 7.93194   1
   0   1   3 4.83582 1.49172   1
   2   1   3 100.823 3.86766  -3
   2   1   3 100.823 3.86766   1
   2   1   3 98.7073 6.17601  -3
   2   1   3 98.7073 6.17601  -2
   2   1   3 98.7073 6.17601   1
   2   1   3 117.259 7.67439  -2
   2   1   3 117.259 7.67439   1
   3   1   3 745.923 19.5459  -2
   3   1   3 745.923 19.5459   1
   3   1   3 762.700 16.5765  -3
   3   1   3 762.700 16.5765   1
   3   1   3 790.270 29.9176  -3
   3   1   3 790.270 29.9176  -2
   3   1   3 790.270 29.9176   1
   4   1   3 1648.95 48.9539  -3
   4   1   3 1648.95 48.9539   1
   4   1   3 1466.73 75.4893  -2
   4   1   3 1466.73 75.4893   1
   4   1   3 1645.89 84.6110  -3
   4   1   3 1645.89 84.6110  -2
   4   1   3 1645.89 84.6110   1
   5   1   3 1315.51 48.2527  -3
   5   1   3 1315.51 48.2527   1
   5   1   3 1264.86 65.2918  -2
   5   1   3 1264.86 65.2918   1
   7   1   3 144.908 12.9612  -3
   7   1   3 144.908 12.9612   1
   8   1   3 651.890 34.8112   1
   1   2   3 612.034 8.81257  -3
   1   2   3 612.034 8.81257  -2
   1   2   3 612.034 8.81257   1
   1   2   3 563.722 9.21616  -3
   1   2   3 563.722 9.21616   1
   1   2   3 557.251 16.4139  -2
   1   2   3 557.251 16.4139   1
   2   2   3 1254.81 62.3568  -3
   2   2   3 1254.81 62.3568   1
   2   2   3 0.79931 3.10702  -3
   2   2   3 0.79931 3.10702  -2
   2   2   3 0.79931 3.10702   1
   3   2   3 4351.16 220.357  -3
   3   2   3 4351.16 220.357  -2
   3   2   3 4351.16 220.357   1
   4   2   3 673.253 16.3767  -3
   4   2   3 673.253 16.3767   1
   4   2   3 640.757 34.0203  -2
   4   2   3 640.757 34.0203   1
   5   2   3 228.176 9.68725  -3
   5   2   3 228.176 9.68725   1
   5   2   3 210.114 16.3164  -2
   5   2   3 210.114 16.3164   1
   6   2   3 2811.05 101.449  -3
   6   2   3 2811.05 101.449   1
   6   2   3 2498.53 127.522  -2
   6   2   3 2498.53 127.522   1
   7   2   3 172.811 10.4940  -3
   7   2   3 172.811 10.4940   1
   7   2   3 162.430 13.4916  -2
   7   2   3 162.430 13.4916   1
   8   2   3 74.0777 6.20737   1
   9   2   3 195.855 9.83371   1
  10   2   3 692.875 37.1440   1
   0   3   3 4.55151 6.46146   1
   1   3   3 109.534 3.61912  -3
   1   3   3 109.534 3.61912  -2
   1   3   3 109.534 3.61912   1
   1   3   3 101.066 3.82836  -3
   1   3   3 101.066 3.82836   1
   1   3   3 95.2328 6.32795  -2
   1   3   3 95.2328 6.32795   1
   3   3   3 1182.37 36.2832  -3
   3   3   3 1182.37 36.2832  -2
   3   3   3 1182.37 36.2832   1
   3   3   3 1062.94 21.2176  -3
   3   3   3 1062.94 21.2176   1
   3   3   3 1000.53 29.4461  -2
   3   3   3 1000.53 29.4461   1
   4   3   3 563.069 14.3354  -3
   4   3   3 563.069 14.3354   1
   4   3   3 519.456 16.9750  -2
   4   3   3 519.456 16.9750   1
   5   3   3 1222.12 36.9090  -3
   5   3   3 1222.12 36.9090   1
   5   3   3 1232.79 65.2677  -2
   5   3   3 1232.79 65.2677   1
   6   3   3 233.087 10.1324  -3
   6   3   3 233.087 10.1324   1
   6   3   3 217.451 16.8066  -2
   6   3   3 217.451 16.8066   1
   7   3   3 196.811 8.97153  -3
   7   3   3 196.811 8.97153   1
   7   3   3 215.825 17.8461  -2
   7   3   3 215.825 17.8461   1
   8   3   3 128.204 10.7541  -2
   8   3   3 128.204 10.7541   1
   8   3   3 123.796 15.1777  -3
   8   3   3 123.796 15.1777   1
   9   3   3 188.334 8.17581   1
  10   3   3 24.5970 3.95255   1
   0   4   3 1552.70 45.4396  -3
   0   4   3 1552.70 45.4396  -2
   0   4   3 1552.70 45.4396   1
   1   4   3 3000.67 68.5253  -3
   1   4   3 3000.67 68.5253   1
   1   4   3 3287.34 74.0359  -3
   1   4   3 3287.34 74.0359  -2
   1   4   3 3287.34 74.0359   1
   1   4   3 2938.72 83.1590  -2
   1   4   3 2938.72 83.1590   1
   2   4   3 1439.86 22.7282  -3
   2   4   3 1439.86 22.7282  -2
   2   4   3 1439.86 22.7282   1
   2   4   3 1408.11 23.0910  -3
   2   4   3 1408.11 23.0910   1
   2   4   3 1431.54 35.5777  -2
   2   4   3 1431.54 35.5777   1
   3   4   3 758.434 21.8437  -3
   3   4   3 758.434 21.8437  -2
   3   4   3 758.434 21.8437   1
   3   4   3 693.127 15.7338  -3
   3   4   3 693.127 15.7338   1
   3   4   3 707.339 21.9793  -2
   3   4   3 707.339 21.9793   1
   4   4   3 3.53768 5.95085  -3
   4   4   3 3.53768 5.95085   1
   4   4   3 12.2325 8.58055  -2
   4   4   3 12.2325 8.58055   1
   5   4   3 636.177 20.1723  -2
   5   4   3 636.177 20.1723   1
   5   4   3 677.314 16.6795  -3
   5   4   3 677.314 16.6795   1
   6   4   3 29.2592 4.25895  -3
   6   4   3 29.2592 4.25895   1
   7   4   3 22.7280 10.1021  -2
   7   4   3 22.7280 10.1021   1
   7   4   3 30.5248 6.91433  -3
   7   4   3 30.5248 6.91433   1
   8   4   3 58.6921 16.5423  -3
   8   4   3 58.6921 16.5423   1
   9   4   3 627.563 20.4835   1
  10   4   3 44.6492 4.24465   1
  11   4   3 201.798 8.94760   1
  12   4   3 374.320 22.6974   1
   0   5   3 -1.7024 6.11501   1
   1   5   3 4393.75 111.825  -3
   1   5   3 4393.75 111.825   1
   1   5   3 4450.79 154.683  -3
   1   5   3 4450.79 154.683  -2
   1   5   3 4450.79 154.683   1
   2   5   3 3654.54 70.4836  -3
   2   5   3 3654.54 70.4836   1
   2   5   3 3966.65 66.9556  -3
   2   5   3 3966.65 66.9556  -2
   2   5   3 3966.65 66.9556   1
   2   5   3 3699.65 182.239  -2
   2   5   3 3699.65 182.239   1
   3   5   3 385.505 9.46748  -3
   3   5   3 385.505 9.46748   1
   3   5   3 385.953 11.8261  -2
   3   5   3 385.953 11.8261   1
   4   5   3 1834.18 42.2878  -3
   4   5   3 1834.18 42.2878   1
   4   5   3 1825.30 94.4178  -2
   4   5   3 1825.30 94.4178   1
   5   5   3 664.579 14.3074  -3
   5   5   3 664.579 14.3074   1
   5   5   3 646.754 35.8895  -2
   5   5   3 646.754 35.8895   1
   6   5   3 228.996 11.8207  -2
   6   5   3 228.996 11.8207   1
   6   5   3 220.563 7.43309  -3
   6   5   3 220.563 7.43309   1
   7   5   3 301.818 10.7140  -3
   7   5   3 301.818 10.7140   1
   8   5   3 -33.845 16.8148  -3
   8   5   3 -33.845 16.8148   1
   9   5   3 296.852 11.8619   1
  10   5   3 1215.70 37.7637   1
  11   5   3 21.1054 5.70858   1
  12   5   3 100.378 8.34616   1
  13   5   3 12.7276 7.09550   1
   0   6   3 5207.27 152.859  -3
   0   6   3 5207.27 152.859   1
   0   6   3 5683.18 279.277  -3
   0   6   3 5683.18 279.277  -2
   0   6   3 5683.18 279.277   1
   1   6   3 5021.99 180.512  -3
   1   6   3 5021.99 180.512   1
   1   6   3 5029.13 247.241  -2
   1   6   3 5029.13 247.241   1
   3   6   3 1220.68 24.0984  -2
   3   6   3 1220.68 24.0984   1
   3   6   3 1236.78 27.2609  -3
   3   6   3 1236.78 27.2609   1
   4   6   3 261.071 6.56429  -3
   4   6   3 261.071 6.56429   1
   4   6   3 293.771 18.7324  -2
   4   6   3 293.771 18.7324   1
   5   6   3 95.2739 5.40410  -3
   5   6   3 95.2739 5.40410   1
   5   6   3 90.2819 14.7133  -2
   5   6   3 90.2819 14.7133   1
   6   6   3 84.9234 5.61835  -3
   6   6   3 84.9234 5.61835   1
   6   6   3 65.8196 16.4564  -2
   6   6   3 65.8196 16.4564   1
   7   6   3 34.9650 9.53231  -3
   7   6   3 34.9650 9.53231   1
   8   6   3 220.144 23.4889  -3
   8   6   3 220.144 23.4889   1
   9   6   3 178.322 8.35554   1
  10   6   3 20.5743 6.39032   1
  11   6   3 217.933 12.6009   1
  12   6   3 123.566 9.73258   1
  13   6   3 219.092 12.0778   1
   0   7   3 -3.5442 4.37821   1
   1   7   3 1782.18 24.4727  -3
   1   7   3 1782.18 24.4727   1
   1   7   3 1705.50 27.1964  -2
   1   7   3 1705.50 27.1964   1
   1   7   3 1869.40 96.1870  -3
   1   7   3 1869.40 96.1870  -2
   1   7   3 1869.40 96.1870   1
   2   7   3 7196.19 258.033  -3
   2   7   3 7196.19 258.033   1
   3   7   3 2783.90 56.9815  -2
   3   7   3 2783.90 56.9815   1
   3   7   3 2679.05 43.7057  -3
   3   7   3 2679.05 43.7057   1
   4   7   3 767.410 25.2254  -2
   4   7   3 767.410 25.2254   1
   4   7   3 791.890 14.2076  -3
   4   7   3 791.890 14.2076   1
   5   7   3 20.9407 4.68512  -3
   5   7   3 20.9407 4.68512   1
   6   7   3 -3.1941 5.46571  -3
   6   7   3 -3.1941 5.46571   1
   6   7   3 26.1216 17.1629  -2
   6   7   3 26.1216 17.1629   1
   7   7   3 1480.47 80.7354  -2
   7   7   3 1480.47 80.7354   1
   7   7   3 1640.02 43.3780  -3
   7   7   3 1640.02 43.3780   1
   8   7   3 630.280 36.0480  -3
   8   7   3 630.280 36.0480   1
   9   7   3 828.357 22.8592   1
  10   7   3 174.322 11.9822   1
  11   7   3 26.0932 6.90776   1
  12   7   3 67.7682 8.12812   1
  13   7   3 202.784 17.3531   1
   0   8   3 39.0090 8.39373  -2
   0   8   3 39.0090 8.39373   1
   0   8   3 27.8651 7.04514  -3
   0   8   3 27.8651 7.04514   1
   1   8   3 1131.48 16.4444  -3
   1   8   3 1131.48 16.4444   1
   1   8   3 1098.52 20.4297  -2
   1   8   3 1098.52 20.4297   1
   2   8   3 1164.09 22.9953  -2
   2   8   3 1164.09 22.9953   1
   2   8   3 1150.14 17.0041  -3
   2   8   3 1150.14 17.0041   1
   3   8   3 8.28343 4.44728  -3
   3   8   3 8.28343 4.44728   1
   3   8   3 26.5829 8.27263  -2
   3   8   3 26.5829 8.27263   1
   4   8   3 52.9117 4.96927  -3
   4   8   3 52.9117 4.96927   1
   4   8   3 80.5552 11.1390  -2
   4   8   3 80.5552 11.1390   1
   5   8   3 383.678 8.84328  -3
   5   8   3 383.678 8.84328   1
   6   8   3 2937.21 61.8715  -3
   6   8   3 2937.21 61.8715   1
   6   8   3 2677.75 97.2035  -2
   6   8   3 2677.75 97.2035   1
   7   8   3 836.524 28.0678  -3
   7   8   3 836.524 28.0678   1
   8   8   3 1236.34 66.5945  -3
   8   8   3 1236.34 66.5945   1
   9   8   3 516.769 31.1645  -3
   9   8   3 516.769 31.1645   1
  10   8   3 3.25867 6.48742   1
  11   8   3 7.92315 6.68953   1
  12   8   3 19.9004 7.26884   1
   0   9   3 -2.1551 4.64921   1
   1   9   3 2306.13 32.5646  -3
   1   9   3 2306.13 32.5646   1
   1   9   3 2119.20 75.7799  -2
   1   9   3 2119.20 75.7799   1
   2   9   3 -6.7040 9.33638  -2
   2   9   3 -6.7040 9.33638   1
   2   9   3 9.88232 5.19921  -3
   2   9   3 9.88232 5.19921   1
   3   9   3 22.7500 4.57355  -3
   3   9   3 22.7500 4.57355   1
   3   9   3 22.8181 16.0612  -2
   3   9   3 22.8181 16.0612   1
   4   9   3 1484.28 23.3256  -3
   4   9   3 1484.28 23.3256   1
   5   9   3 40.1211 5.41460  -3
   5   9   3 40.1211 5.41460   1
   6   9   3 149.115 9.36399  -3
   6   9   3 149.115 9.36399   1
   7   9   3 1139.53 65.8341  -3
   7   9   3 1139.53 65.8341   1
   8   9   3 35.4303 17.6344  -3
   8   9   3 35.4303 17.6344   1
   9   9   3 331.716 24.9827  -3
   9   9   3 331.716 24.9827   1
  10   9   3 57.7528 4.12983   1
  11   9   3 -6.0416 6.85801   1
  12   9   3 26.6797 7.65534   1
   0  10   3 4072.34 69.7303  -3
   0  10   3 4072.34 69.7303   1
   1  10   3 4210.06 53.9972  -3
   1  10   3 4210.06 53.9972   1
   1  10   3 3418.45 171.536  -2
   1  10   3 3418.45 171.536   1
   2  10   3 1384.31 19.6186  -3
   2  10   3 1384.31 19.6186   1
   2  10   3 1391.08 74.4755  -2
   2  10   3 1391.08 74.4755   1
   3  10   3 80.2486 5.37376  -3
   3  10   3 80.2486 5.37376   1
   4  10   3 390.246 8.87242  -3
   4  10   3 390.246 8.87242   1
   5  10   3 236.238 10.1642  -3
   5  10   3 236.238 10.1642   1
   6  10   3 1946.40 45.9950  -3
   6  10   3 1946.40 45.9950   1
   7  10   3 2129.33 41.9280   1
   8  10   3 296.512 9.05576   1
   9  10   3 5.87449 3.85588   1
  10  10   3 50.0035 5.08455   1
  11  10   3 6.62745 4.78420   1
  12  10   3 13.5935 7.71982   1
   0  11   3 10.2783 4.17906   1
   1  11   3 4584.91 58.4851  -3
   1  11   3 4584.91 58.4851   1
   2  11   3 63.2046 5.79895  -3
   2  11   3 63.2046 5.79895   1
   3  11   3 177.578 6.86624  -3
   3  11   3 177.578 6.86624   1
   4  11   3 68.5064 7.69015  -3
   4  11   3 68.5064 7.69015   1
   5  11   3 1685.22 45.9633  -3
   5  11   3 1685.22 45.9633   1
   6  11   3 457.155 17.5684  -3
   6  11   3 457.155 17.5684   1
   7  11   3 498.089 9.51504   1
   8  11   3 652.879 19.9067   1
   9  11   3 13.5529 4.94318   1
  10  11   3 70.2773 6.08519   1
  11  11   3 9.04062 4.24591   1
   0  12   3 194.072 11.0283  -3
   0  12   3 194.072 11.0283   1
   1  12   3 3839.77 55.2088  -3
   1  12   3 3839.77 55.2088   1
   2  12   3 2608.84 35.4887  -3
   2  12   3 2608.84 35.4887   1
   3  12   3 69.0869 6.49604  -3
   3  12   3 69.0869 6.49604   1
   4  12   3 88.5690 9.63794  -3
   4  12   3 88.5690 9.63794   1
   5  12   3 1312.93 53.4687  -3
   5  12   3 1312.93 53.4687   1
   6  12   3 125.485 5.36427   1
   7  12   3 27.8088 4.56392   1
   8  12   3 409.353 14.6019   1
   9  12   3 213.844 10.0885   1
  10  12   3 60.4739 6.07197   1
  11  12   3 7.33622 4.56098   1
  12  12   3 7.19780 7.22686   1
   0  13   3 0.54944 4.33546   1
   1  13   3 66.8753 7.31390  -3
   1  13   3 66.8753 7.31390   1
   2  13   3 2110.77 34.2991  -3
   2  13   3 2110.77 34.2991   1
   3  13   3 964.655 20.4742  -3
   3  13   3 964.655 20.4742   1
   4  13   3 5.29854 16.6735  -3
   4  13   3 5.29854 16.6735   1
   5  13   3 97.0224 3.10219   1
   6  13   3 397.079 14.9819   1
   7  13   3 181.385 8.57245   1
   8  13   3 154.298 6.43484   1
   9  13   3 513.164 17.0920   1
  10  13   3 60.6869 6.73341   1
  11  13   3 80.9492 7.24264   1
  12  13   3 12.9382 7.82180   1
   0  14   3 1748.71 43.7255  -3
   0  14   3 1748.71 43.7255   1
   1  14   3 19.3874 10.2141  -3
   1  14   3 19.3874 10.2141   1
   2  14   3 835.345 24.0449  -3
   2  14   3 835.345 24.0449   1
   3  14   3 22.2897 15.1809  -3
   3  14   3 22.2897 15.1809   1
   4  14   3 65.6429 19.7955  -3
   4  14   3 65.6429 19.7955   1
   5  14   3 105.569 4.50106   1
   6  14   3 24.1494 6.35676   1
   7  14   3 89.4727 7.10959   1
   8  14   3 276.598 8.81462   1
   9  14   3 11.7709 5.68616   1
  10  14   3 139.070 9.15808   1
  11  14   3 425.319 19.9853   1
   0  15   3 -6.2877 4.50213   1
   1  15   3 369.538 18.4870  -3
   1  15   3 369.538 18.4870   1
   2  15   3 233.238 5.58731   1
   3  15   3 1259.45 76.9694  -3
   3  15   3 1259.45 76.9694   1
   4  15   3 478.204 9.11667   1
   5  15   3 167.904 5.96046   1
   6  15   3 32.7246 3.55898   1
   7  15   3 202.027 11.4573   1
   8  15   3 72.3256 6.43550   1
   9  15   3 31.0220 4.87217   1
  10  15   3 584.012 19.3136   1
   0  16   3 54.8804 31.4094  -3
   0  16   3 54.8804 31.4094   1
   1  16   3 43.7229 3.24398   1
   2  16   3 44.4348 3.44594   1
   3  16   3 1809.19 25.2007   1
   4  16   3 941.538 16.3584   1
   5  16   3 21.8989 3.71932   1
   6  16   3 479.691 12.9556   1
   7  16   3 49.2884 7.47956   1
   8  16   3 1029.29 26.6748   1
   9  16   3 7.72057 3.94835   1
  10  16   3 63.5065 7.44972   1
   0  17   3 11.5108 4.50231   1
   1  17   3 64.2446 3.96030   1
   2  17   3 3208.26 42.9387   1
   3  17   3 2781.19 41.8377   1
   4  17   3 737.901 13.6778   1
   5  17   3 463.406 10.6555   1
   6  17   3 65.5384 4.56992   1
   7  17   3 66.8504 8.24427   1
   8  17   3 150.570 9.06031   1
   9  17   3 80.7824 5.87101   1
  10  17   3 241.532 19.2203   1
   0  18   3 1915.51 36.5106   1
   1  18   3 296.202 6.77224   1
   2  18   3 1307.62 20.3815   1
   3  18   3 373.577 9.51954   1
   4  18   3 212.164 7.45538   1
   5  18   3 18.8441 3.89183   1
   6  18   3 157.136 6.58473   1
   7  18   3 352.507 15.4493   1
   8  18   3 81.1063 8.95503   1
   9  18   3 111.391 8.02753   1
  10  18   3 257.523 16.6285   1
   0  19   3 1.61404 4.80831   1
   1  19   3 905.888 14.5536   1
   2  19   3 80.5074 4.80689   1
   3  19   3 72.6164 5.34172   1
   4  19   3 42.6930 4.74577   1
   5  19   3 16.6876 4.18317   1
   6  19   3 112.444 6.02015   1
   7  19   3 31.9165 3.99687   1
   8  19   3 21.2331 7.49908   1
   9  19   3 105.127 8.97653   1
  10  19   3 1832.70 65.3523   1
   0  20   3 420.210 13.2011   1
   1  20   3 430.791 9.38720   1
   2  20   3 1059.16 18.7155   1
   3  20   3 783.354 15.6795   1
   4  20   3 21.0066 4.53319   1
   5  20   3 45.5253 4.86170   1
   6  20   3 233.218 8.40692   1
   7  20   3 14.5349 3.96060   1
   8  20   3 151.571 12.1152   1
   9  20   3 21.1419 11.6467   1
   0  21   3 -4.9007 5.40242   1
   1  21   3 11.7087 4.12743   1
   2  21   3 3.57766 4.14826   1
   3  21   3 7.68165 4.52535   1
   4  21   3 175.483 7.58838   1
   5  21   3 177.262 7.55582   1
   6  21   3 137.338 6.95728   1
   7  21   3 270.849 9.78315   1
   8  21   3 18.0723 8.38882   1
   0  22   3 64.5358 6.95947   1
   1  22   3 19.2089 4.92120   1
   2  22   3 279.358 8.95637   1
   3  22   3 104.273 7.28151   1
   4  22   3 417.231 11.0571   1
   5  22   3 35.2865 5.60354   1
   6  22   3 20.5238 4.89701   1
   7  22   3 171.577 8.01382   1
   8  22   3 8.39116 12.2873   1
   0  23   3 13.0148 5.96823   1
   1  23   3 47.3663 5.44698   1
   2  23   3 159.650 7.56094   1
   3  23   3 126.179 8.45530   1
   4  23   3 140.645 7.39172   1
   5  23   3 35.0469 5.83331   1
   6  23   3 12.5071 4.85184   1
   7  23   3 12.2133 4.99706   1
   8  23   3 53.1210 14.4986   1
   0  24   3 290.653 13.4226   1
   1  24   3 151.002 7.67318   1
   2  24   3 75.8968 6.16146   1
   3  24   3 453.539 14.4699   1
   4  24   3 35.2927 5.85864   1
   5  24   3 48.9568 6.30654   1
   6  24   3 118.360 7.91361   1
   7  24   3 54.7045 6.77520   1
   0  25   3 -5.5343 6.46005   1
   1  25   3 695.824 15.5631   1
   2  25   3 35.0920 5.61391   1
   3  25   3 28.2845 6.64128   1
   4  25   3 14.1263 5.55441   1
   5  25   3 538.574 31.0801   1
   6  25   3 36.0410 12.4034   1
   7  25   3 27.0315 13.9650   1
   0  26   3 219.689 12.4736   1
   1  26   3 12.0121 5.65360   1
   2  26   3 28.4694 6.52320   1
   3  26   3 426.683 14.5956   1
   4  26   3 493.777 20.0043   1
   5  26   3 59.0060 15.0313   1
   6  26   3 77.1582 24.9309   1
   7  26   3 -1.7040 14.2032   1
   0  27   3 23.2887 12.2337   1
   1  27   3 85.5986 8.09472   1
   2  27   3 37.8344 7.72883   1
   3  27   3 238.269 14.8275   1
   4  27   3 42.3533 9.22597   1
   0  28   3 247.100 20.7952   1
   1  28   3 421.737 18.1981   1
   3  28   3 103.692 11.3726   1
   4  28   3 62.1377 10.2398   1
   0  29   3 2.26937 12.6105   1
   1  29   3 82.9839 16.2501   1
   1  30   3 29.0658 13.7056   1
   1   0   4 574.628 12.3588  -3
   1   0   4 574.628 12.3588   1
   1   0   4 594.009 18.2009  -3
   1   0   4 594.009 18.2009  -2
   1   0   4 594.009 18.2009   1
   2   0   4 9.08946 4.56382  -2
   2   0   4 9.08946 4.56382   1
   3   0   4 1946.48 70.2756  -2
   3   0   4 1946.48 70.2756   1
   3   0   4 2131.06 77.0799  -3
   3   0   4 2131.06 77.0799   1
   4   0   4 768.028 23.4110  -2
   4   0   4 768.028 23.4110   1
   4   0   4 816.892 25.1868  -3
   4   0   4 816.892 25.1868   1
   5   0   4 153.369 9.07789  -3
   5   0   4 153.369 9.07789   1
   6   0   4 590.177 32.1957   1
   7   0   4 47.4949 9.08891  -3
   7   0   4 47.4949 9.08891   1
   8   0   4 -2.9574 5.50799   1
   0   1   4 1.27472 1.90068   1
   1   1   4 1479.20 21.7219  -3
   1   1   4 1479.20 21.7219   1
   1   1   4 1554.48 26.3374  -3
   1   1   4 1554.48 26.3374  -2
   1   1   4 1554.48 26.3374   1
   1   1   4 1510.83 73.5225  -2
   1   1   4 1510.83 73.5225   1
   2   1   4 2368.45 54.1117  -3
   2   1   4 2368.45 54.1117   1
   2   1   4 2425.26 71.4589  -3
   2   1   4 2425.26 71.4589  -2
   2   1   4 2425.26 71.4589   1
   2   1   4 2321.93 68.3521  -2
   2   1   4 2321.93 68.3521   1
   3   1   4 785.978 14.8394  -3
   3   1   4 785.978 14.8394   1
   3   1   4 760.526 18.1121  -2
   3   1   4 760.526 18.1121   1
   3   1   4 675.782 36.9732  -3
   3   1   4 675.782 36.9732  -2
   3   1   4 675.782 36.9732   1
   4   1   4 1077.36 27.9644  -2
   4   1   4 1077.36 27.9644   1
   4   1   4 1180.08 25.1981  -3
   4   1   4 1180.08 25.1981   1
   5   1   4 73.3779 4.76273  -3
   5   1   4 73.3779 4.76273   1
   5   1   4 63.3065 9.70611  -2
   5   1   4 63.3065 9.70611   1
   6   1   4 149.656 7.60377  -3
   6   1   4 149.656 7.60377   1
   7   1   4 13.7721 10.3860  -3
   7   1   4 13.7721 10.3860   1
   8   1   4 4035.37 204.219  -3
   8   1   4 4035.37 204.219   1
   8   1   4 3663.85 185.550  -2
   8   1   4 3663.85 185.550   1
   9   1   4 46.6031 5.22254   1
   0   2   4 165.938 13.6826  -3
   0   2   4 165.938 13.6826  -2
   0   2   4 165.938 13.6826   1
   0   2   4 169.451 7.68806  -3
   0   2   4 169.451 7.68806   1
   1   2   4 3585.45 103.882  -3
   1   2   4 3585.45 103.882  -2
   1   2   4 3585.45 103.882   1
   2   2   4 154.004 4.37244  -3
   2   2   4 154.004 4.37244   1
   2   2   4 172.661 8.63957  -2
   2   2   4 172.661 8.63957   1
   2   2   4 153.256 4.60819  -3
   2   2   4 153.256 4.60819  -2
   2   2   4 153.256 4.60819   1
   3   2   4 1577.94 33.1406  -3
   3   2   4 1577.94 33.1406   1
   3   2   4 1687.43 61.9997  -3
   3   2   4 1687.43 61.9997  -2
   3   2   4 1687.43 61.9997   1
   3   2   4 1539.48 45.1361  -2
   3   2   4 1539.48 45.1361   1
   4   2   4 1618.90 37.4622  -3
   4   2   4 1618.90 37.4622   1
   4   2   4 1545.20 56.0411  -2
   4   2   4 1545.20 56.0411   1
   5   2   4 324.825 9.18675  -3
   5   2   4 324.825 9.18675   1
   5   2   4 294.742 17.4836  -2
   5   2   4 294.742 17.4836   1
   6   2   4 208.068 11.5506  -2
   6   2   4 208.068 11.5506   1
   6   2   4 246.792 10.0725  -3
   6   2   4 246.792 10.0725   1
   7   2   4 31.5911 8.30175  -3
   7   2   4 31.5911 8.30175   1
   7   2   4 15.9436 9.37276  -2
   7   2   4 15.9436 9.37276   1
   8   2   4 128.473 13.4956  -2
   8   2   4 128.473 13.4956   1
   9   2   4 4.71479 4.34581   1
  10   2   4 184.114 13.2655   1
   0   3   4 4.90981 3.55689   1
   1   3   4 4437.40 224.990  -3
   1   3   4 4437.40 224.990   1
   1   3   4 9.33872 3.63802  -3
   1   3   4 9.33872 3.63802  -2
   1   3   4 9.33872 3.63802   1
   2   3   4 3896.44 98.9798  -3
   2   3   4 3896.44 98.9798  -2
   2   3   4 3896.44 98.9798   1
   2   3   4 3576.62 74.2301  -3
   2   3   4 3576.62 74.2301   1
   3   3   4 204.119 11.4478  -3
   3   3   4 204.119 11.4478  -2
   3   3   4 204.119 11.4478   1
   3   3   4 201.266 6.21310  -3
   3   3   4 201.266 6.21310   1
   3   3   4 154.201 12.7777  -2
   3   3   4 154.201 12.7777   1
   4   3   4 3810.17 111.843  -3
   4   3   4 3810.17 111.843   1
   4   3   4 3918.49 199.378  -3
   4   3   4 3918.49 199.378  -2
   4   3   4 3918.49 199.378   1
   5   3   4 1428.71 52.5334  -2
   5   3   4 1428.71 52.5334   1
   5   3   4 1472.40 31.0460  -3
   5   3   4 1472.40 31.0460   1
   6   3   4 35.3922 6.95768  -3
   6   3   4 35.3922 6.95768   1
   6   3   4 17.4054 13.3045  -2
   6   3   4 17.4054 13.3045   1
   7   3   4 69.0707 7.06173  -3
   7   3   4 69.0707 7.06173   1
   7   3   4 44.9861 13.3997  -2
   7   3   4 44.9861 13.3997   1
   8   3   4 59.1984 13.3131  -2
   8   3   4 59.1984 13.3131   1
   9   3   4 175.062 9.84262   1
  10   3   4 145.538 6.21100   1
  11   3   4 26.9002 10.3079   1
   1   4   4 2758.44 46.4954  -3
   1   4   4 2758.44 46.4954  -2
   1   4   4 2758.44 46.4954   1
   1   4   4 2662.94 51.6779  -3
   1   4   4 2662.94 51.6779   1
   1   4   4 2519.65 86.7336  -2
   1   4   4 2519.65 86.7336   1
   2   4   4 119.009 10.1992  -3
   2   4   4 119.009 10.1992  -2
   2   4   4 119.009 10.1992   1
   3   4   4 1062.11 33.6994  -3
   3   4   4 1062.11 33.6994  -2
   3   4   4 1062.11 33.6994   1
   3   4   4 999.098 18.8086  -3
   3   4   4 999.098 18.8086   1
   3   4   4 992.925 50.4677  -2
   3   4   4 992.925 50.4677   1
   5   4   4 83.4923 6.33845  -2
   5   4   4 83.4923 6.33845   1
   5   4   4 84.5832 5.71843  -3
   5   4   4 84.5832 5.71843   1
   6   4   4 58.7821 5.79980  -3
   6   4   4 58.7821 5.79980   1
   6   4   4 41.9023 7.00682  -2
   6   4   4 41.9023 7.00682   1
   7   4   4 229.858 10.7910  -3
   7   4   4 229.858 10.7910   1
   7   4   4 219.155 13.7664  -2
   7   4   4 219.155 13.7664   1
   8   4   4 -3.1833 15.5064  -3
   8   4   4 -3.1833 15.5064   1
   9   4   4 963.470 30.1113   1
  10   4   4 337.311 10.8214   1
  11   4   4 136.399 8.87139   1
   0   5   4 1.03156 7.87281   1
   1   5   4 343.888 8.74405  -3
   1   5   4 343.888 8.74405  -2
   1   5   4 343.888 8.74405   1
   1   5   4 311.180 10.2480  -2
   1   5   4 311.180 10.2480   1
   1   5   4 324.232 8.61256  -3
   1   5   4 324.232 8.61256   1
   3   5   4 2436.61 61.4880  -2
   3   5   4 2436.61 61.4880   1
   3   5   4 2376.71 46.1033  -3
   3   5   4 2376.71 46.1033   1
   3   5   4 2556.01 131.718  -3
   3   5   4 2556.01 131.718  -2
   3   5   4 2556.01 131.718   1
   4   5   4 3198.15 66.3264  -3
   4   5   4 3198.15 66.3264   1
   4   5   4 3150.38 93.1863  -2
   4   5   4 3150.38 93.1863   1
   5   5   4 402.648 9.97305  -3
   5   5   4 402.648 9.97305   1
   5   5   4 392.845 24.6058  -2
   5   5   4 392.845 24.6058   1
   6   5   4 174.271 7.00585  -3
   6   5   4 174.271 7.00585   1
   6   5   4 172.170 9.02394  -2
   6   5   4 172.170 9.02394   1
   7   5   4 871.903 24.0903  -3
   7   5   4 871.903 24.0903   1
   7   5   4 782.803 45.2365  -2
   7   5   4 782.803 45.2365   1
   8   5   4 459.013 31.5317  -3
   8   5   4 459.013 31.5317   1
   9   5   4 107.437 20.4424  -3
   9   5   4 107.437 20.4424   1
  10   5   4 408.484 18.1875   1
  11   5   4 58.4704 7.65726   1
  12   5   4 295.028 14.0946   1
  13   5   4 399.848 24.5402   1
   0   6   4 810.798 21.4201  -3
   0   6   4 810.798 21.4201   1
   0   6   4 904.592 29.1456  -3
   0   6   4 904.592 29.1456  -2
   0   6   4 904.592 29.1456   1
   0   6   4 808.454 30.4828  -2
   0   6   4 808.454 30.4828   1
   1   6   4 2050.84 38.3517  -2
   1   6   4 2050.84 38.3517   1
   1   6   4 2129.19 62.2357  -3
   1   6   4 2129.19 62.2357  -2
   1   6   4 2129.19 62.2357   1
   1   6   4 2137.76 37.0959  -3
   1   6   4 2137.76 37.0959   1
   2   6   4 280.787 8.00494  -2
   2   6   4 280.787 8.00494   1
   2   6   4 277.616 8.09207  -3
   2   6   4 277.616 8.09207   1
   2   6   4 291.051 16.2428  -3
   2   6   4 291.051 16.2428  -2
   2   6   4 291.051 16.2428   1
   3   6   4 1699.92 35.7963  -2
   3   6   4 1699.92 35.7963   1
   3   6   4 1655.10 35.6682  -3
   3   6   4 1655.10 35.6682   1
   4   6   4 443.514 9.24811  -3
   4   6   4 443.514 9.24811   1
   4   6   4 515.046 21.0257  -2
   4   6   4 515.046 21.0257   1
   5   6   4 48.1997 5.26492  -3
   5   6   4 48.1997 5.26492   1
   6   6   4 286.316 9.05549  -3
   6   6   4 286.316 9.05549   1
   6   6   4 290.110 15.6112  -2
   6   6   4 290.110 15.6112   1
   7   6   4 78.7369 6.36368  -3
   7   6   4 78.7369 6.36368   1
   8   6   4 653.526 41.1544  -3
   8   6   4 653.526 41.1544   1
   9   6   4 44.1183 3.79518   1
  10   6   4 779.544 31.1949   1
  11   6   4 40.6991 6.94162   1
  12   6   4 14.7086 6.05405   1
  13   6   4 15.6347 5.84711   1
   0   7   4 0.55542 4.97669   1
   1   7   4 53.0042 6.00338  -2
   1   7   4 53.0042 6.00338   1
   1   7   4 55.6758 5.09008  -3
   1   7   4 55.6758 5.09008   1
   1   7   4 63.6422 21.1686  -3
   1   7   4 63.6422 21.1686  -2
   1   7   4 63.6422 21.1686   1
   2   7   4 1940.57 30.6673  -3
   2   7   4 1940.57 30.6673   1
   2   7   4 1923.47 42.8120  -2
   2   7   4 1923.47 42.8120   1
   3   7   4 248.119 9.27238  -2
   3   7   4 248.119 9.27238   1
   3   7   4 241.306 6.14524  -3
   3   7   4 241.306 6.14524   1
   4   7   4 324.436 8.00928  -3
   4   7   4 324.436 8.00928   1
   4   7   4 344.429 16.1996  -2
   4   7   4 344.429 16.1996   1
   5   7   4 534.089 12.6418  -3
   5   7   4 534.089 12.6418   1
   6   7   4 48.0255 6.54685  -3
   6   7   4 48.0255 6.54685   1
   6   7   4 55.0283 13.0118  -2
   6   7   4 55.0283 13.0118   1
   7   7   4 277.819 10.4498  -3
   7   7   4 277.819 10.4498   1
   7   7   4 272.787 24.8712  -2
   7   7   4 272.787 24.8712   1
   8   7   4 10.7537 12.7737  -3
   8   7   4 10.7537 12.7737   1
   9   7   4 110.483 6.28201   1
  10   7   4 68.8187 8.46870   1
  11   7   4 109.403 10.3027   1
  12   7   4 79.0486 9.02693   1
  13   7   4 97.0446 13.6684   1
   0   8   4 1110.30 22.2682  -3
   0   8   4 1110.30 22.2682   1
   0   8   4 1004.53 38.0888  -2
   0   8   4 1004.53 38.0888   1
   1   8   4 309.580 9.57818  -2
   1   8   4 309.580 9.57818   1
   1   8   4 322.592 7.45116  -3
   1   8   4 322.592 7.45116   1
   2   8   4 5940.88 114.271  -3
   2   8   4 5940.88 114.271   1
   2   8   4 5871.71 201.170  -2
   2   8   4 5871.71 201.170   1
   3   8   4 3965.18 58.3560  -3
   3   8   4 3965.18 58.3560   1
   3   8   4 4170.85 118.552  -2
   3   8   4 4170.85 118.552   1
   4   8   4 371.982 8.14720  -3
   4   8   4 371.982 8.14720   1
   4   8   4 357.971 12.6274  -2
   4   8   4 357.971 12.6274   1
   5   8   4 248.177 7.52100  -3
   5   8   4 248.177 7.52100   1
   6   8   4 694.070 14.9465  -3
   6   8   4 694.070 14.9465   1
   6   8   4 656.073 41.8572  -2
   6   8   4 656.073 41.8572   1
   7   8   4 12.1148 8.01801  -3
   7   8   4 12.1148 8.01801   1
   7   8   4 23.7438 20.1828  -2
   7   8   4 23.7438 20.1828   1
   8   8   4 38.7367 15.8900  -3
   8   8   4 38.7367 15.8900   1
   9   8   4 240.787 19.1545  -3
   9   8   4 240.787 19.1545   1
  10   8   4 5.46236 3.52471   1
  11   8   4 131.324 11.4363   1
  12   8   4 225.288 13.9465   1
   0   9   4 12.0543 4.25367   1
   1   9   4 3112.19 77.6359  -2
   1   9   4 3112.19 77.6359   1
   1   9   4 3257.90 43.5752  -3
   1   9   4 3257.90 43.5752   1
   2   9   4 1111.60 16.0701  -3
   2   9   4 1111.60 16.0701   1
   2   9   4 1068.53 33.2999  -2
   2   9   4 1068.53 33.2999   1
   3   9   4 1688.65 24.0799  -3
   3   9   4 1688.65 24.0799   1
   3   9   4 1643.76 59.7902  -2
   3   9   4 1643.76 59.7902   1
   4   9   4 218.529 6.57252  -3
   4   9   4 218.529 6.57252   1
   5   9   4 521.764 10.5467  -3
   5   9   4 521.764 10.5467   1
   5   9   4 451.577 33.7987  -2
   5   9   4 451.577 33.7987   1
   6   9   4 346.416 10.6024  -3
   6   9   4 346.416 10.6024   1
   7   9   4 13.5994 13.5915  -3
   7   9   4 13.5994 13.5915   1
   8   9   4 221.881 22.3552  -3
   8   9   4 221.881 22.3552   1
   9   9   4 28.0468 4.01909   1
  10   9   4 167.919 6.51009   1
  11   9   4 4.31704 4.61849   1
  12   9   4 217.076 14.2460   1
   0  10   4 178.379 7.67479  -3
   0  10   4 178.379 7.67479   1
   1  10   4 183.088 6.09807  -3
   1  10   4 183.088 6.09807   1
   1  10   4 114.836 22.8128  -2
   1  10   4 114.836 22.8128   1
   2  10   4 2427.60 32.8569  -3
   2  10   4 2427.60 32.8569   1
   2  10   4 2351.45 120.361  -2
   2  10   4 2351.45 120.361   1
   3  10   4 584.618 10.6535  -3
   3  10   4 584.618 10.6535   1
   4  10   4 1559.60 26.9436  -3
   4  10   4 1559.60 26.9436   1
   5  10   4 389.793 9.85094  -3
   5  10   4 389.793 9.85094   1
   6  10   4 84.9736 7.87747  -3
   6  10   4 84.9736 7.87747   1
   7  10   4 676.487 45.3103  -3
   7  10   4 676.487 45.3103   1
   8  10   4 17.9770 3.84028   1
   9  10   4 10.4302 4.48065   1
  10  10   4 399.882 13.2292   1
  11  10   4 51.9694 6.63151   1
  12  10   4 9.29679 8.33539   1
   0  11   4 16.0419 4.38514   1
   1  11   4 1628.68 22.9980  -3
   1  11   4 1628.68 22.9980   1
   2  11   4 25.2291 5.29264  -3
   2  11   4 25.2291 5.29264   1
   3  11   4 235.556 7.04052  -3
   3  11   4 235.556 7.04052   1
   4  11   4 8.14385 8.90074  -3
   4  11   4 8.14385 8.90074   1
   5  11   4 145.082 10.4906  -3
   5  11   4 145.082 10.4906   1
   6  11   4 58.8958 11.6846  -3
   6  11   4 58.8958 11.6846   1
   7  11   4 1152.21 20.7658   1
   8  11   4 233.961 10.3720   1
   9  11   4 640.429 19.4750   1
  10  11   4 17.0832 4.80362   1
  11  11   4 10.5978 4.48970   1
  12  11   4 21.6237 7.45327   1
   0  12   4 58.7770 9.62141  -3
   0  12   4 58.7770 9.62141   1
   1  12   4 957.159 16.1481  -3
   1  12   4 957.159 16.1481   1
   2  12   4 459.299 10.3708  -3
   2  12   4 459.299 10.3708   1
   3  12   4 360.427 10.6809  -3
   3  12   4 360.427 10.6809   1
   4  12   4 870.130 23.6641  -3
   4  12   4 870.130 23.6641   1
   5  12   4 -19.508 11.6665  -3
   5  12   4 -19.508 11.6665   1
   6  12   4 1220.87 23.7820   1
   7  12   4 630.860 17.2245   1
   8  12   4 223.209 10.5721   1
   9  12   4 295.626 11.8729   1
  10  12   4 47.8057 5.96134   1
  11  12   4 179.165 9.04822   1
  12  12   4 34.3115 5.77053   1
   0  13   4 5.71583 4.33816   1
   1  13   4 58.4996 8.27948  -3
   1  13   4 58.4996 8.27948   1
   2  13   4 1171.80 21.7982  -3
   2  13   4 1171.80 21.7982   1
   3  13   4 1035.34 23.5285  -3
   3  13   4 1035.34 23.5285   1
   4  13   4 247.602 17.2066  -3
   4  13   4 247.602 17.2066   1
   5  13   4 282.521 5.03997   1
   6  13   4 188.832 10.5859   1
   7  13   4 37.3758 5.40749   1
   8  13   4 57.7816 4.62272   1
   9  13   4 489.812 16.5212   1
  10  13   4 96.3989 7.95950   1
  11  13   4 524.992 17.0181   1
  12  13   4 136.238 13.9187   1
   0  14   4 147.867 13.1961  -3
   0  14   4 147.867 13.1961   1
   1  14   4 438.349 15.1452  -3
   1  14   4 438.349 15.1452   1
   2  14   4 447.573 16.7020  -3
   2  14   4 447.573 16.7020   1
   3  14   4 -0.5374 11.6243  -3
   3  14   4 -0.5374 11.6243   1
   4  14   4 59.6543 19.1360  -3
   4  14   4 59.6543 19.1360   1
   5  14   4 938.735 15.9202   1
   6  14   4 781.844 24.2275   1
   7  14   4 271.705 10.4462   1
   8  14   4 280.635 10.3325   1
   9  14   4 5.36787 5.65020   1
  10  14   4 167.621 9.81095   1
  11  14   4 -1.4933 6.55187   1
   0  15   4 -3.0886 4.50459   1
   1  15   4 520.600 21.6658  -3
   1  15   4 520.600 21.6658   1
   2  15   4 799.457 35.7727  -3
   2  15   4 799.457 35.7727   1
   3  15   4 149.227 32.3603  -3
   3  15   4 149.227 32.3603   1
   4  15   4 26.1353 26.6168  -3
   4  15   4 26.1353 26.6168   1
   5  15   4 723.672 14.2681   1
   6  15   4 592.683 14.7325   1
   7  15   4 133.025 8.30241   1
   8  15   4 276.427 10.6886   1
   9  15   4 194.165 8.63401   1
  10  15   4 779.511 23.9866   1
   0  16   4 3032.87 115.152  -3
   0  16   4 3032.87 115.152   1
   1  16   4 913.615 13.1734   1
   2  16   4 189.073 5.39741   1
   3  16   4 1385.39 21.2052   1
   4  16   4 483.964 9.99977   1
   5  16   4 702.174 14.1005   1
   6  16   4 10.0542 3.26822   1
   7  16   4 167.478 11.0511   1
   8  16   4 36.4265 5.91840   1
   9  16   4 84.2161 5.61534   1
  10  16   4 336.740 13.9769   1
   0  17   4 2.73913 4.39449   1
   1  17   4 350.291 7.36039   1
   2  17   4 1249.63 18.8812   1
   3  17   4 160.244 6.21496   1
   4  17   4 712.714 13.3961   1
   5  17   4 470.187 10.8213   1
   6  17   4 155.778 6.42905   1
   7  17   4 19.4111 6.94420   1
   8  17   4 32.3492 5.99765   1
   9  17   4 252.785 8.99434   1
  10  17   4 69.0278 12.6151   1
   0  18   4 361.874 10.5889   1
   1  18   4 135.463 5.34619   1
   2  18   4 414.969 8.91747   1
   3  18   4 2659.92 43.9435   1
   4  18   4 171.789 7.04198   1
   5  18   4 49.3493 4.66170   1
   6  18   4 108.234 5.74838   1
   7  18   4 28.1721 7.48827   1
   8  18   4 28.5281 6.26298   1
   9  18   4 19.6219 5.73607   1
  10  18   4 71.0724 9.90723   1
   0  19   4 7.93165 4.92148   1
   1  19   4 1697.39 25.7183   1
   2  19   4 421.467 9.13523   1
   3  19   4 725.325 14.7352   1
   4  19   4 396.719 10.2456   1
   5  19   4 39.3302 4.92628   1
   6  19   4 443.017 11.7384   1
   7  19   4 16.1528 3.71650   1
   8  19   4 87.0004 9.27707   1
   9  19   4 118.340 10.8803   1
  10  19   4 1185.01 43.2776   1
   0  20   4 117.936 7.98876   1
   1  20   4 100.413 5.23799   1
   2  20   4 31.4439 4.46280   1
   3  20   4 56.1614 5.17508   1
   4  20   4 276.969 8.64593   1
   5  20   4 152.036 7.66902   1
   6  20   4 117.569 6.50633   1
   7  20   4 357.025 11.2306   1
   8  20   4 158.958 12.0741   1
   9  20   4 936.018 42.7754   1
   0  21   4 8.59643 5.54608   1
   1  21   4 126.305 6.32618   1
   2  21   4 38.7180 4.63190   1
   3  21   4 5.32762 4.57696   1
   4  21   4 150.540 7.17022   1
   5  21   4 42.4968 5.53839   1
   6  21   4 23.1983 4.65684   1
   7  21   4 49.4592 5.14644   1
   8  21   4 99.0556 13.1885   1
   0  22   4 104.310 8.24860   1
   1  22   4 71.2213 5.64432   1
   2  22   4 337.522 9.68204   1
   3  22   4 13.6180 5.21891   1
   4  22   4 16.6203 4.79835   1
   5  22   4 306.106 10.5095   1
   6  22   4 40.6572 5.23553   1
   7  22   4 71.8454 6.21113   1
   8  22   4 297.492 23.2397   1
   0  23   4 19.1798 5.98391   1
   1  23   4 249.838 8.79420   1
   2  23   4 25.1423 4.95897   1
   3  23   4 325.906 12.1010   1
   4  23   4 185.054 7.99656   1
   5  23   4 124.368 7.74657   1
   6  23   4 30.4001 5.22880   1
   7  23   4 209.639 9.88996   1
   8  23   4 106.348 16.9884   1
   0  24   4 405.388 15.8061   1
   1  24   4 327.289 9.99808   1
   2  24   4 121.293 7.14307   1
   3  24   4 197.925 10.3288   1
   4  24   4 12.7779 5.40022   1
   5  24   4 68.1075 6.62411   1
   6  24   4 301.542 11.7357   1
   7  24   4 83.2860 7.47616   1
   0  25   4 0.08636 6.64072   1
   1  25   4 40.8099 5.80011   1
   2  25   4 64.6901 5.98654   1
   3  25   4 141.076 9.17273   1
   4  25   4 180.366 9.00201   1
   5  25   4 363.984 25.8001   1
   6  25   4 219.169 19.7522   1
   7  25   4 101.127 17.2003   1
   0  26   4 103.522 9.41346   1
   1  26   4 164.143 8.79522   1
   2  26   4 66.0691 6.47372   1
   3  26   4 169.976 10.5113   1
   4  26   4 559.354 21.3087   1
   5  26   4 137.371 18.2241   1
   6  26   4 34.2922 23.1953   1
   7  26   4 35.0654 14.8953   1
   0  27   4 -1.1640 11.5013   1
   1  27   4 179.093 10.3044   1
   2  27   4 9.23981 7.01818   1
   3  27   4 382.109 17.6042   1
   4  27   4 68.1270 9.99486   1
   0  28   4 125.269 16.6867   1
   1  28   4 14.0609 8.83500   1
   3  28   4 27.5456 9.16461   1
   4  28   4 42.0088 9.75010   1
   0  29   4 -1.9751 12.5676   1
   1  29   4 157.752 18.5221   1
   1  30   4 123.123 19.6840   1
   1   0   5 1.88760 2.03011   1
   2   0   5 2.09600 2.34544   1
   3   0   5 -0.3404 3.63640   1
   4   0   5 -1.2592 4.97732   1
   5   0   5 10.9529 4.18336   1
   6   0   5 34.0391 5.08591   1
   7   0   5 -0.2479 4.93086   1
   8   0   5 12.8327 6.32822   1
   9   0   5 -2.7274 5.37172   1
   0   1   5 -0.4822 3.92426   1
   1   1   5 14.6203 1.73900  -3
   1   1   5 14.6203 1.73900   1
   1   1   5 6.34890 4.92689  -3
   1   1   5 6.34890 4.92689  -2
   1   1   5 6.34890 4.92689   1
   2   1   5 1141.62 23.9458  -3
   2   1   5 1141.62 23.9458  -2
   2   1   5 1141.62 23.9458   1
   2   1   5 1110.02 16.5759  -3
   2   1   5 1110.02 16.5759   1
   2   1   5 1107.79 28.6972  -2
   2   1   5 1107.79 28.6972   1
   3   1   5 1303.90 25.4232  -3
   3   1   5 1303.90 25.4232   1
   3   1   5 1297.01 46.9697  -3
   3   1   5 1297.01 46.9697  -2
   3   1   5 1297.01 46.9697   1
   3   1   5 1244.30 37.3881  -2
   3   1   5 1244.30 37.3881   1
   4   1   5 559.266 13.0500  -3
   4   1   5 559.266 13.0500   1
   4   1   5 525.759 16.9844  -2
   4   1   5 525.759 16.9844   1
   4   1   5 511.605 29.4185  -3
   4   1   5 511.605 29.4185  -2
   4   1   5 511.605 29.4185   1
   5   1   5 2990.89 62.2137  -3
   5   1   5 2990.89 62.2137   1
   5   1   5 2800.73 82.2101  -2
   5   1   5 2800.73 82.2101   1
   6   1   5 139.753 9.20424  -3
   6   1   5 139.753 9.20424   1
   6   1   5 151.887 12.3622  -2
   6   1   5 151.887 12.3622   1
   7   1   5 686.618 37.5563  -2
   7   1   5 686.618 37.5563   1
   7   1   5 637.589 34.8096  -3
   7   1   5 637.589 34.8096   1
   8   1   5 46.1871 10.2563  -2
   8   1   5 46.1871 10.2563   1
   9   1   5 6.50143 4.12114   1
  10   1   5 7.65441 5.94623   1
   2   2   5 2796.86 142.460  -2
   2   2   5 2796.86 142.460   1
   2   2   5 3071.26 110.756  -3
   2   2   5 3071.26 110.756  -2
   2   2   5 3071.26 110.756   1
   4   2   5 1763.25 37.2911  -3
   4   2   5 1763.25 37.2911   1
   4   2   5 1698.16 61.7139  -2
   4   2   5 1698.16 61.7139   1
   4   2   5 1955.34 101.112  -3
   4   2   5 1955.34 101.112  -2
   4   2   5 1955.34 101.112   1
   6   2   5 2090.80 75.6884  -2
   6   2   5 2090.80 75.6884   1
   6   2   5 2125.98 54.6665  -3
   6   2   5 2125.98 54.6665   1
   7   2   5 381.604 16.8581  -2
   7   2   5 381.604 16.8581   1
   7   2   5 372.903 17.2639  -3
   7   2   5 372.903 17.2639   1
   8   2   5 259.705 18.8293  -2
   8   2   5 259.705 18.8293   1
   9   2   5 393.601 11.6098   1
  10   2   5 622.443 24.3997   1
  11   2   5 245.494 11.3633   1
   0   3   5 1.60026 3.77009   1
   1   3   5 21.2860 3.60193  -3
   1   3   5 21.2860 3.60193   1
   1   3   5 28.6115 4.17929  -3
   1   3   5 28.6115 4.17929  -2
   1   3   5 28.6115 4.17929   1
   1   3   5 35.7534 6.78667  -2
   1   3   5 35.7534 6.78667   1
   2   3   5 15.8511 4.84504  -3
   2   3   5 15.8511 4.84504   1
   3   3   5 3537.37 104.217  -3
   3   3   5 3537.37 104.217  -2
   3   3   5 3537.37 104.217   1
   3   3   5 3476.09 88.6295  -3
   3   3   5 3476.09 88.6295   1
   3   3   5 3045.44 154.914  -2
   3   3   5 3045.44 154.914   1
   4   3   5 2245.13 116.130  -3
   4   3   5 2245.13 116.130  -2
   4   3   5 2245.13 116.130   1
   4   3   5 2175.17 77.3224  -2
   4   3   5 2175.17 77.3224   1
   4   3   5 2245.00 47.1939  -3
   4   3   5 2245.00 47.1939   1
   5   3   5 83.5062 4.85162  -3
   5   3   5 83.5062 4.85162   1
   5   3   5 69.0717 10.7394  -2
   5   3   5 69.0717 10.7394   1
   6   3   5 1024.00 24.6265  -3
   6   3   5 1024.00 24.6265   1
   7   3   5 28.3686 14.6068  -2
   7   3   5 28.3686 14.6068   1
   7   3   5 20.7137 6.92589  -3
   7   3   5 20.7137 6.92589   1
   8   3   5 253.183 13.9260  -2
   8   3   5 253.183 13.9260   1
   9   4   5 1916.26 100.430  -3
   9   3   5 1916.26 100.430  -2
   9   3   5 1916.26 100.430   1
  10   3   5 371.868 13.0205   1
   0   4   5 52.9595 11.7199  -3
   0   4   5 52.9595 11.7199  -2
   0   4   5 52.9595 11.7199   1
   1   4   5 7596.65 383.780  -3
   1   4   5 7596.65 383.780   1
   2   4   5 689.080 11.0008  -3
   2   4   5 689.080 11.0008  -2
   2   4   5 689.080 11.0008   1
   2   4   5 658.172 11.2845  -3
   2   4   5 658.172 11.2845   1
   2   4   5 689.318 18.1817  -2
   2   4   5 689.318 18.1817   1
   3   4   5 862.556 25.7174  -2
   3   4   5 862.556 25.7174   1
   3   4   5 856.266 17.8280  -3
   3   4   5 856.266 17.8280   1
   3   4   5 913.528 25.7538  -3
   3   4   5 913.528 25.7538  -2
   3   4   5 913.528 25.7538   1
   4   4   5 146.806 6.70920  -3
   4   4   5 146.806 6.70920   1
   4   4   5 133.703 14.5599  -2
   4   4   5 133.703 14.5599   1
   5   4   5 1860.93 36.4174  -3
   5   4   5 1860.93 36.4174   1
   5   4   5 1773.44 52.4804  -2
   5   4   5 1773.44 52.4804   1
   6   4   5 86.2573 7.62138  -2
   6   4   5 86.2573 7.62138   1
   6   4   5 75.5183 5.44137  -3
   6   4   5 75.5183 5.44137   1
   7   4   5 9.78525 5.76004  -3
   7   4   5 9.78525 5.76004   1
   7   4   5 7.77452 7.76210  -2
   7   4   5 7.77452 7.76210   1
   8   4   5 166.722 19.7920  -3
   8   4   5 166.722 19.7920   1
   8   4   5 185.605 19.4957  -2
   8   4   5 185.605 19.4957   1
  10   4   5 425.280 14.9473   1
  11   4   5 13.9918 5.14487   1
  13   3   5 282.714 20.1536  -2
  13   4   5 282.714 20.1536   1
   0   5   5 3.09601 4.81331   1
   1   5   5 1600.85 29.7892  -3
   1   5   5 1600.85 29.7892   1
   1   5   5 1723.63 43.9256  -3
   1   5   5 1723.63 43.9256  -2
   1   5   5 1723.63 43.9256   1
   1   5   5 1636.70 46.9308  -2
   1   5   5 1636.70 46.9308   1
   2   5   5 1416.36 24.9924  -3
   2   5   5 1416.36 24.9924   1
   2   5   5 1532.26 27.2086  -3
   2   5   5 1532.26 27.2086  -2
   2   5   5 1532.26 27.2086   1
   2   5   5 1406.84 31.4027  -2
   2   5   5 1406.84 31.4027   1
   3   5   5 265.576 7.94953  -3
   3   5   5 265.576 7.94953   1
   3   5   5 300.968 14.3296  -2
   3   5   5 300.968 14.3296   1
   3   5   5 274.669 18.8044  -3
   3   5   5 274.669 18.8044  -2
   3   5   5 274.669 18.8044   1
   4   5   5 223.986 6.11597  -3
   4   5   5 223.986 6.11597   1
   4   5   5 231.966 10.6589  -2
   4   5   5 231.966 10.6589   1
   5   5   5 126.826 8.35211  -2
   5   5   5 126.826 8.35211   1
   5   5   5 128.792 6.32296  -3
   5   5   5 128.792 6.32296   1
   6   5   5 74.3582 5.67344  -2
   6   5   5 74.3582 5.67344   1
   6   5   5 80.0651 6.04917  -3
   6   5   5 80.0651 6.04917   1
   7   5   5 629.026 18.0999  -2
   7   5   5 629.026 18.0999   1
   7   5   5 664.717 19.4070  -3
   7   5   5 664.717 19.4070   1
   8   5   5 386.428 28.5868  -3
   8   5   5 386.428 28.5868   1
   9   5   5 661.946 16.5367   1
  10   5   5 43.9851 6.72194   1
  11   5   5 86.5601 8.47357   1
  12   5   5 8.13585 5.40154   1
   0   6   5 367.453 11.8181  -3
   0   6   5 367.453 11.8181   1
   0   6   5 398.584 16.9536  -3
   0   6   5 398.584 16.9536  -2
   0   6   5 398.584 16.9536   1
   0   6   5 360.009 24.2014  -2
   0   6   5 360.009 24.2014   1
   2   6   5 160.434 12.8304  -3
   2   6   5 160.434 12.8304  -2
   2   6   5 160.434 12.8304   1
   2   6   5 162.528 6.34780  -3
   2   6   5 162.528 6.34780   1
   2   6   5 147.927 5.68188  -2
   2   6   5 147.927 5.68188   1
   3   6   5 3469.15 62.1653  -3
   3   6   5 3469.15 62.1653   1
   3   6   5 3399.62 85.2673  -2
   3   6   5 3399.62 85.2673   1
   3   6   5 3798.33 195.370  -3
   3   6   5 3798.33 195.370  -2
   3   6   5 3798.33 195.370   1
   4   6   5 551.267 16.6011  -2
   4   6   5 551.267 16.6011   1
   4   6   5 550.262 10.3310  -3
   4   6   5 550.262 10.3310   1
   5   6   5 525.693 16.3365  -2
   5   6   5 525.693 16.3365   1
   5   6   5 551.806 12.9212  -3
   5   6   5 551.806 12.9212   1
   6   6   5 69.5157 6.53976  -3
   6   6   5 69.5157 6.53976   1
   6   6   5 82.4389 9.26869  -2
   6   6   5 82.4389 9.26869   1
   7   6   5 710.150 17.0488  -3
   7   6   5 710.150 17.0488   1
   7   6   5 699.478 28.6395  -2
   7   6   5 699.478 28.6395   1
   8   6   5 620.046 21.1341  -3
   8   6   5 620.046 21.1341   1
   9   6   5 29.6210 19.8444  -3
   9   6   5 29.6210 19.8444   1
  10   6   5 28.2556 6.77888   1
  11   6   5 97.4624 9.42611   1
  12   6   5 287.577 14.4865   1
  13   6   5 29.7568 6.35821   1
   0   7   5 -1.3151 4.19300   1
   1   7   5 254.244 6.71083  -3
   1   7   5 254.244 6.71083   1
   1   7   5 244.328 6.86766  -2
   1   7   5 244.328 6.86766   1
   1   7   5 245.218 26.7999  -3
   1   7   5 245.218 26.7999  -2
   1   7   5 245.218 26.7999   1
   2   7   5 5701.09 96.6910  -3
   2   7   5 5701.09 96.6910   1
   2   7   5 5483.48 154.930  -2
   2   7   5 5483.48 154.930   1
   3   7   5 188.533 5.82821  -3
   3   7   5 188.533 5.82821   1
   3   7   5 188.010 8.46402  -2
   3   7   5 188.010 8.46402   1
   4   7   5 103.598 4.95525  -3
   4   7   5 103.598 4.95525   1
   4   7   5 104.932 8.92859  -2
   4   7   5 104.932 8.92859   1
   5   7   5 3179.66 93.7973  -2
   5   7   5 3179.66 93.7973   1
   5   7   5 3227.84 62.4882  -3
   5   7   5 3227.84 62.4882   1
   6   7   5 27.2014 10.5597  -2
   6   7   5 27.2014 10.5597   1
   6   7   5 16.8256 6.51320  -3
   6   7   5 16.8256 6.51320   1
   7   7   5 287.238 10.0124  -3
   7   7   5 287.238 10.0124   1
   7   7   5 298.138 16.9744  -2
   7   7   5 298.138 16.9744   1
   8   7   5 6.69118 11.3528  -3
   8   7   5 6.69118 11.3528   1
   8   7   5 0.55223 10.9051  -2
   8   7   5 0.55223 10.9051   1
   9   7   5 23.5711 3.35150   1
  10   7   5 15.8416 3.61449   1
  11   7   5 7.90304 6.46247   1
  12   7   5 37.9685 7.24591   1
   0   8   5 369.834 10.6364  -3
   0   8   5 369.834 10.6364   1
   0   8   5 359.692 24.8049  -2
   0   8   5 359.692 24.8049   1
   1   8   5 162.372 6.18753  -3
   1   8   5 162.372 6.18753   1
   1   8   5 156.378 7.70681  -2
   1   8   5 156.378 7.70681   1
   2   8   5 1711.21 24.2575  -3
   2   8   5 1711.21 24.2575   1
   2   8   5 1652.93 48.8790  -2
   2   8   5 1652.93 48.8790   1
   3   8   5 235.447 5.64839  -3
   3   8   5 235.447 5.64839   1
   3   8   5 252.794 12.2695  -2
   3   8   5 252.794 12.2695   1
   4   8   5 896.061 14.6739  -3
   4   8   5 896.061 14.6739   1
   4   8   5 935.977 23.1663  -2
   4   8   5 935.977 23.1663   1
   5   8   5 309.402 28.1630  -2
   5   8   5 309.402 28.1630   1
   5   8   5 318.253 10.6352  -3
   5   8   5 318.253 10.6352   1
   6   8   5 1137.67 25.8983  -3
   6   8   5 1137.67 25.8983   1
   6   8   5 1108.72 44.8279  -2
   6   8   5 1108.72 44.8279   1
   7   8   5 345.048 11.3882  -3
   7   8   5 345.048 11.3882   1
   8   8   5 494.948 32.4206  -3
   8   8   5 494.948 32.4206   1
   9   8   5 140.613 16.4392  -3
   9   8   5 140.613 16.4392   1
  10   8   5 39.9393 4.60484   1
  11   8   5 80.0887 10.3747   1
  12   8   5 104.072 10.7245   1
   0   9   5 0.53454 4.31054   1
   1   9   5 1937.05 27.7721  -3
   1   9   5 1937.05 27.7721   1
   1   9   5 1776.14 64.3553  -2
   1   9   5 1776.14 64.3553   1
   2   9   5 522.005 9.11987  -3
   2   9   5 522.005 9.11987   1
   2   9   5 538.394 24.3487  -2
   2   9   5 538.394 24.3487   1
   3   9   5 1094.72 17.0285  -3
   3   9   5 1094.72 17.0285   1
   3   9   5 1144.79 43.2900  -2
   3   9   5 1144.79 43.2900   1
   4   9   5 2027.14 30.8852  -3
   4   9   5 2027.14 30.8852   1
   5   9   5 374.654 9.78365  -3
   5   9   5 374.654 9.78365   1
   5   9   5 338.250 29.9372  -2
   5   9   5 338.250 29.9372   1
   6   9   5 36.4053 6.46793  -3
   6   9   5 36.4053 6.46793   1
   7   9   5 116.931 20.1322  -3
   7   9   5 116.931 20.1322   1
   8   9   5 160.832 20.8017  -3
   8   9   5 160.832 20.8017   1
   9   9   5 345.562 10.4733   1
  10   9   5 47.2547 4.47002   1
  11   9   5 4.34026 4.64532   1
  12   9   5 2.61164 7.15083   1
   0  10   5 1088.81 24.0018  -3
   0  10   5 1088.81 24.0018   1
   0  10   5 1134.15 62.8095  -2
   0  10   5 1134.15 62.8095   1
   1  10   5 1834.54 25.4941  -3
   1  10   5 1834.54 25.4941   1
   1  10   5 1782.85 93.1094  -2
   1  10   5 1782.85 93.1094   1
   2  10   5 244.088 5.98019  -3
   2  10   5 244.088 5.98019   1
   3  10   5 28.4981 5.26585  -3
   3  10   5 28.4981 5.26585   1
   4  10   5 6.47829 4.88898  -3
   4  10   5 6.47829 4.88898   1
   5  10   5 256.799 8.75914  -3
   5  10   5 256.799 8.75914   1
   6  10   5 579.458 17.3688  -3
   6  10   5 579.458 17.3688   1
   6  10   5 541.987 39.5827  -2
   6  10   5 541.987 39.5827   1
   7  10   5 58.1132 23.2891  -3
   7  10   5 58.1132 23.2891   1
   8  10   5 305.693 10.2148   1
   9  10   5 52.4995 5.63206   1
  10  10   5 14.0167 4.41938   1
  11  10   5 63.2865 7.11577   1
  12  10   5 106.479 18.3180   1
   0  11   5 -2.1079 4.06035   1
   1  11   5 3544.06 49.0822  -3
   1  11   5 3544.06 49.0822   1
   2  11   5 1341.79 18.6874  -3
   2  11   5 1341.79 18.6874   1
   3  11   5 978.072 15.3595  -3
   3  11   5 978.072 15.3595   1
   4  11   5 328.551 9.25901  -3
   4  11   5 328.551 9.25901   1
   5  11   5 160.563 9.09908  -3
   5  11   5 160.563 9.09908   1
   6  11   5 787.722 35.5813  -3
   6  11   5 787.722 35.5813   1
   7  11   5 1401.81 26.2752   1
   8  11   5 66.6893 6.38470   1
   9  11   5 295.140 11.5147   1
  10  11   5 194.043 9.15688   1
  11  11   5 9.69961 4.37179   1
  12  11   5 2.38611 6.79400   1
   0  12   5 478.037 15.3655  -3
   0  12   5 478.037 15.3655   1
   1  12   5 123.323 7.05569  -3
   1  12   5 123.323 7.05569   1
   2  12   5 38.2204 6.61040  -3
   2  12   5 38.2204 6.61040   1
   3  12   5 37.4647 6.42801  -3
   3  12   5 37.4647 6.42801   1
   4  12   5 602.603 16.0989  -3
   4  12   5 602.603 16.0989   1
   5  12   5 4.03665 10.2045  -3
   5  12   5 4.03665 10.2045   1
   6  12   5 300.709 9.27876   1
   7  12   5 37.7499 5.15456   1
   8  12   5 11.7186 3.44597   1
   9  12   5 104.284 7.97263   1
  10  12   5 -3.0987 4.76615   1
  11  12   5 22.1961 5.15388   1
  12  12   5 -0.2556 5.00645   1
   0  13   5 3.89599 4.44435   1
   1  13   5 99.8173 8.22315  -3
   1  13   5 99.8173 8.22315   1
   2  13   5 174.678 7.68712  -3
   2  13   5 174.678 7.68712   1
   3  13   5 0.49683 8.74299  -3
   3  13   5 0.49683 8.74299   1
   4  13   5 428.557 16.5509  -3
   4  13   5 428.557 16.5509   1
   5  13   5 2025.18 107.219  -3
   5  13   5 2025.18 107.219   1
   6  13   5 23.3694 28.5821  -3
   6  13   5 23.3694 28.5821   1
   7  13   5 1434.54 35.0895   1
   8  13   5 65.7239 4.73323   1
   9  13   5 228.188 10.8552   1
  10  13   5 13.8452 5.49100   1
  11  13   5 209.677 9.93567   1
  12  13   5 5.37970 8.05931   1
   0  14   5 1293.93 34.1872  -3
   0  14   5 1293.93 34.1872   1
   1  14   5 19.2133 9.72322  -3
   1  14   5 19.2133 9.72322   1
   2  14   5 183.082 11.6270  -3
   2  14   5 183.082 11.6270   1
   3  14   5 1251.28 33.0624  -3
   3  14   5 1251.28 33.0624   1
   4  14   5 460.573 37.5797  -3
   4  14   5 460.573 37.5797   1
   5  14   5 575.514 11.7312   1
   6  14   5 90.6888 5.67395   1
   7  14   5 114.999 7.80750   1
   8  14   5 26.2821 5.07914   1
   9  14   5 31.2671 6.28721   1
  10  14   5 403.937 14.8896   1
  11  14   5 116.457 11.1002   1
   0  15   5 -3.3334 3.95620   1
   1  15   5 104.201 13.2692  -3
   1  15   5 104.201 13.2692   1
   2  15   5 294.005 18.5652  -3
   2  15   5 294.005 18.5652   1
   3  15   5 437.566 41.2892  -3
   3  15   5 437.566 41.2892   1
   4  15   5 410.778 37.2247  -3
   4  15   5 410.778 37.2247   1
   5  15   5 1946.05 33.9272   1
   6  15   5 11.7806 3.36806   1
   7  15   5 25.8979 5.54024   1
   8  15   5 128.582 7.96131   1
   9  15   5 29.7354 5.07613   1
  10  15   5 466.388 16.6692   1
   0  16   5 3523.70 63.9027   1
   1  16   5 33.6595 28.4020  -3
   1  16   5 33.6595 28.4020   1
   2  16   5 80.2788 31.5430  -3
   2  16   5 80.2788 31.5430   1
   3  16   5 184.889 6.02703   1
   4  16   5 1006.77 17.3746   1
   5  16   5 691.553 13.9896   1
   6  16   5 229.592 7.31245   1
   7  16   5 38.6766 7.20053   1
   8  16   5 34.4964 5.89553   1
   9  16   5 94.9267 5.76747   1
  10  16   5 98.5163 8.88080   1
   0  17   5 -4.8874 4.45631   1
   1  17   5 499.355 9.24216   1
   2  17   5 120.206 5.34054   1
   3  17   5 714.603 12.5516   1
   4  17   5 54.4231 4.24694   1
   5  17   5 90.6074 5.17083   1
   6  17   5 92.7302 5.23454   1
   7  17   5 13.6992 6.62119   1
   8  17   5 175.947 9.59777   1
   9  17   5 41.5227 5.96417   1
  10  17   5 21.1859 13.0057   1
   0  18   5 651.113 15.0052   1
   1  18   5 1212.27 18.0198   1
   2  18   5 837.807 14.2374   1
   3  18   5 131.418 6.33649   1
   4  18   5 445.688 10.7492   1
   5  18   5 4.07962 4.35043   1
   6  18   5 272.373 8.62268   1
   7  18   5 19.3550 7.07106   1
   8  18   5 225.961 10.8189   1
   9  18   5 127.437 8.56068   1
  10  18   5 63.2383 10.0118   1
   0  19   5 6.02022 4.88753   1
   1  19   5 65.0456 4.59564   1
   2  19   5 39.5113 4.28574   1
   3  19   5 233.849 7.96285   1
   4  19   5 56.3461 5.03857   1
   5  19   5 208.575 9.23030   1
   6  19   5 16.2322 4.00853   1
   7  19   5 31.8968 5.05886   1
   8  19   5 5.21124 6.00929   1
   9  19   5 105.313 10.4889   1
  10  19   5 56.6161 7.20775   1
   0  20   5 45.2060 6.16096   1
   1  20   5 198.639 6.82322   1
   2  20   5 22.3502 4.38518   1
   3  20   5 347.894 9.60161   1
   4  20   5 42.9704 4.87956   1
   5  20   5 597.501 16.4381   1
   6  20   5 12.0874 4.18053   1
   7  20   5 321.402 10.3540   1
   8  20   5 16.5547 7.61649   1
   9  20   5 1.76890 11.0866   1
   0  21   5 5.72987 5.58466   1
   1  21   5 118.919 6.12281   1
   2  21   5 638.569 13.0290   1
   3  21   5 0.63425 4.50942   1
   4  21   5 410.171 10.7607   1
   5  21   5 106.390 6.96749   1
   6  21   5 265.423 9.18486   1
   7  21   5 98.8852 6.31215   1
   8  21   5 202.870 20.2251   1
   0  22   5 179.435 9.57010   1
   1  22   5 158.884 7.46000   1
   2  22   5 27.0978 4.87121   1
   3  22   5 13.4827 5.14555   1
   4  22   5 131.084 7.07889   1
   5  22   5 171.988 8.32408   1
   6  22   5 124.641 7.11058   1
   7  22   5 131.377 6.45488   1
   8  22   5 204.550 20.8383   1
   0  23   5 -0.2789 6.10643   1
   1  23   5 72.7257 5.86917   1
   2  23   5 24.6141 4.98984   1
   3  23   5 61.8020 6.88064   1
   4  23   5 28.9176 5.17403   1
   5  23   5 23.8645 5.55051   1
   6  23   5 33.5229 5.42389   1
   7  23   5 115.396 6.95746   1
   8  23   5 403.009 26.9069   1
   0  24   5 298.318 13.5915   1
   1  24   5 53.6924 5.80303   1
   2  24   5 308.886 9.82614   1
   3  24   5 9.01000 6.01518   1
   4  24   5 192.395 9.00268   1
   5  24   5 26.2306 5.79458   1
   6  24   5 187.791 9.76726   1
   7  24   5 320.275 13.0614   1
   0  25   5 5.31555 6.93148   1
   1  25   5 78.2407 6.64624   1
   2  25   5 90.6376 6.51511   1
   3  25   5 118.411 8.84902   1
   4  25   5 327.879 11.3070   1
   5  25   5 31.1905 13.0131   1
   6  25   5 12.6605 14.2416   1
   7  25   5 62.6118 15.2490   1
   0  26   5 21.8470 8.98287   1
   1  26   5 119.269 7.81188   1
   2  26   5 133.805 7.99195   1
   3  26   5 22.9565 6.56918   1
   4  26   5 481.548 19.6601   1
   5  26   5 937.263 44.5120   1
   6  26   5 -8.9440 28.4566   1
   7  26   5 4.76745 13.0896   1
   0  27   5 13.8836 11.7547   1
   1  27   5 235.814 11.3057   1
   2  27   5 34.9276 8.06850   1
   3  27   5 81.9925 10.1419   1
   4  27   5 22.6760 8.92681   1
   0  28   5 776.147 36.6737   1
   1  28   5 246.720 15.2005   1
   3  28   5 75.8104 11.3777   1
   4  28   5 216.076 15.0900   1
   0  29   5 5.37614 13.6461   1
   1  29   5 56.5853 14.4382   1
   1  30   5 108.998 22.8145   1
   2   0   6 1489.18 77.2931  -2
   2   0   6 1489.18 77.2931   1
   2   0   6 1659.90 34.4376  -3
   2   0   6 1659.90 34.4376   1
   2   0   6 1705.22 43.0651  -3
   2   0   6 1705.22 43.0651  -2
   2   0   6 1705.22 43.0651   1
   4   0   6 3933.07 141.254  -3
   4   0   6 3933.07 141.254   1
   4   0   6 3715.23 188.492  -2
   4   0   6 3715.23 188.492   1
   5   0   6 464.219 16.0674  -3
   5   0   6 464.219 16.0674   1
   5   0   6 380.518 22.8288  -2
   5   0   6 380.518 22.8288   1
   6   0   6 2957.74 151.016  -3
   6   0   6 2957.74 151.016   1
   6   0   6 2842.34 144.550  -2
   6   0   6 2842.34 144.550   1
   7   0   6 20.7060 10.8951  -3
   7   0   6 20.7060 10.8951   1
   8   0   6 840.797 44.4587  -2
   8   0   6 840.797 44.4587   1
   9   0   6 4.63030 6.17705   1
  10   0   6 585.751 22.6503   1
   0   1   6 -0.8524 6.07733   1
   1   1   6 3209.52 80.9946  -3
   1   1   6 3209.52 80.9946   1
   1   1   6 3382.74 98.2635  -3
   1   1   6 3382.74 98.2635  -2
   1   1   6 3382.74 98.2635   1
   2   1   6 359.232 6.47311  -3
   2   1   6 359.232 6.47311   1
   2   1   6 378.318 8.27983  -3
   2   1   6 378.318 8.27983  -2
   2   1   6 378.318 8.27983   1
   2   1   6 352.840 10.1898  -2
   2   1   6 352.840 10.1898   1
   3   1   6 371.157 12.7409  -2
   3   1   6 371.157 12.7409   1
   3   1   6 393.195 9.01810  -3
   3   1   6 393.195 9.01810   1
   3   1   6 393.143 17.2826  -3
   3   1   6 393.143 17.2826  -2
   3   1   6 393.143 17.2826   1
   4   1   6 47.7222 5.09892  -3
   4   1   6 47.7222 5.09892   1
   4   1   6 52.0125 12.7226  -3
   4   1   6 52.0125 12.7226  -2
   4   1   6 52.0125 12.7226   1
   4   1   6 48.9968 7.85982  -2
   4   1   6 48.9968 7.85982   1
   5   1   6 65.8667 5.56749  -3
   5   1   6 65.8667 5.56749   1
   5   1   6 70.3823 5.24677  -2
   5   1   6 70.3823 5.24677   1
   6   1   6 678.865 21.2213  -2
   6   1   6 678.865 21.2213   1
   6   1   6 716.989 22.8415  -3
   6   1   6 716.989 22.8415   1
   7   1   6 66.3997 7.97961  -3
   7   1   6 66.3997 7.97961   1
   7   1   6 71.1279 6.53805  -2
   7   1   6 71.1279 6.53805   1
   8   1   6 390.155 24.2292  -2
   8   1   6 390.155 24.2292   1
   9   1   6 110.724 7.69703   1
  10   1   6 286.389 12.9639   1
  11   1   6 20.7529 6.51336   1
   0   2   6 1205.98 34.8094  -3
   0   2   6 1205.98 34.8094   1
   1   2   6 3515.97 72.7403  -3
   1   2   6 3515.97 72.7403  -2
   1   2   6 3515.97 72.7403   1
   1   2   6 3308.94 83.5554  -3
   1   2   6 3308.94 83.5554   1
   2   2   6 710.438 12.2871  -3
   2   2   6 710.438 12.2871  -2
   2   2   6 710.438 12.2871   1
   2   2   6 650.747 9.51645  -3
   2   2   6 650.747 9.51645   1
   2   2   6 673.590 20.2535  -2
   2   2   6 673.590 20.2535   1
   3   2   6 547.950 12.0021  -3
   3   2   6 547.950 12.0021   1
   3   2   6 566.047 16.3227  -3
   3   2   6 566.047 16.3227  -2
   3   2   6 566.047 16.3227   1
   3   2   6 540.450 17.5633  -2
   3   2   6 540.450 17.5633   1
   4   2   6 161.657 5.54119  -3
   4   2   6 161.657 5.54119   1
   4   2   6 155.937 6.66768  -2
   4   2   6 155.937 6.66768   1
   4   2   6 204.114 13.7511  -3
   4   2   6 204.114 13.7511  -2
   4   2   6 204.114 13.7511   1
   5   2   6 2259.73 43.7160  -3
   5   2   6 2259.73 43.7160   1
   5   2   6 2197.84 56.3005  -2
   5   2   6 2197.84 56.3005   1
   6   2   6 549.042 17.7778  -2
   6   2   6 549.042 17.7778   1
   6   2   6 593.509 15.3037  -3
   6   2   6 593.509 15.3037   1
   7   2   6 59.2752 8.83026  -3
   7   2   6 59.2752 8.83026   1
   7   2   6 74.5778 7.05188  -2
   7   2   6 74.5778 7.05188   1
   8   2   6 58.3133 13.5422  -2
   8   2   6 58.3133 13.5422   1
   9   2   6 45.0378 12.2781  -2
   9   2   6 45.0378 12.2781   1
  10   2   6 259.587 12.5245   1
  11   2   6 399.078 23.8756   1
   0   3   6 -3.0834 3.40260   1
   1   3   6 2271.14 110.781  -2
   1   3   6 2271.14 110.781   1
   1   3   6 2478.25 38.2159  -3
   1   3   6 2478.25 38.2159  -2
   1   3   6 2478.25 38.2159   1
   1   3   6 2341.62 40.0772  -3
   1   3   6 2341.62 40.0772   1
   2   3   6 1555.12 21.4338  -3
   2   3   6 1555.12 21.4338  -2
   2   3   6 1555.12 21.4338   1
   2   3   6 1464.69 21.9070  -3
   2   3   6 1464.69 21.9070   1
   2   3   6 1516.44 37.6277  -2
   2   3   6 1516.44 37.6277   1
   3   3   6 2078.95 35.2520  -3
   3   3   6 2078.95 35.2520   1
   3   3   6 2250.69 67.3680  -3
   3   3   6 2250.69 67.3680  -2
   3   3   6 2250.69 67.3680   1
   3   3   6 2059.22 51.5830  -2
   3   3   6 2059.22 51.5830   1
   4   3   6 4006.66 91.2213  -3
   4   3   6 4006.66 91.2213   1
   4   3   6 4134.59 202.794  -2
   4   3   6 4134.59 202.794   1
   4   3   6 4390.48 223.393  -3
   4   3   6 4390.48 223.393  -2
   4   3   6 4390.48 223.393   1
   5   3   6 8200.33 292.925  -3
   5   3   6 8200.33 292.925   1
   6   3   6 28.7340 5.56120  -3
   6   3   6 28.7340 5.56120   1
   6   3   6 39.3856 8.76562  -2
   6   3   6 39.3856 8.76562   1
   7   3   6 139.103 7.32077  -3
   7   3   6 139.103 7.32077   1
   7   3   6 109.073 14.9921  -2
   7   3   6 109.073 14.9921   1
   8   3   6 76.3814 10.5928  -2
   8   3   6 76.3814 10.5928   1
   9   3   6 92.1852 6.09959   1
  10   3   6 11.2103 3.95473   1
  13   2   6 12.8038 9.68232  -2
  13   3   6 12.8038 9.68232   1
   0   4   6 2532.09 89.8114  -3
   0   4   6 2532.09 89.8114   1
   0   4   6 2469.35 123.401  -3
   0   4   6 2469.35 123.401  -2
   0   4   6 2469.35 123.401   1
   1   4   6 428.738 9.39660  -3
   1   4   6 428.738 9.39660  -2
   1   4   6 428.738 9.39660   1
   1   4   6 397.478 8.46589  -3
   1   4   6 397.478 8.46589   1
   1   4   6 429.382 17.6318  -2
   1   4   6 429.382 17.6318   1
   2   4   6 4118.64 93.9161  -3
   2   4   6 4118.64 93.9161   1
   2   4   6 4295.42 97.9911  -3
   2   4   6 4295.42 97.9911  -2
   2   4   6 4295.42 97.9911   1
   3   4   6 243.317 10.5492  -3
   3   4   6 243.317 10.5492  -2
   3   4   6 243.317 10.5492   1
   3   4   6 244.282 7.57099  -3
   3   4   6 244.282 7.57099   1
   3   4   6 233.070 9.44519  -2
   3   4   6 233.070 9.44519   1
   4   4   6 2485.55 42.1361  -3
   4   4   6 2485.55 42.1361   1
   4   4   6 2045.04 105.208  -2
   4   4   6 2045.04 105.208   1
   4   4   6 2478.70 128.595  -3
   4   4   6 2478.70 128.595  -2
   4   4   6 2478.70 128.595   1
   5   4   6 95.6656 5.61939  -3
   5   4   6 95.6656 5.61939   1
   5   4   6 114.922 9.46718  -2
   5   4   6 114.922 9.46718   1
   6   4   6 20.8787 5.39573  -3
   6   4   6 20.8787 5.39573   1
   6   4   6 7.97172 10.4517  -2
   6   4   6 7.97172 10.4517   1
   7   4   6 1086.67 29.4273  -3
   7   4   6 1086.67 29.4273   1
   7   4   6 1061.68 33.1769  -2
   7   4   6 1061.68 33.1769   1
   8   4   6 592.386 25.6302  -2
   8   4   6 592.386 25.6302   1
   9   4   6 320.212 17.5405  -2
   9   4   6 320.212 17.5405   1
  10   4   6 291.337 14.2201   1
  11   4   6 75.3556 7.71078   1
  13   3   6 227.734 18.8437  -2
  13   4   6 227.734 18.8437   1
   0   5   6 -5.0574 4.36327   1
   1   5   6 321.341 7.67237  -3
   1   5   6 321.341 7.67237   1
   1   5   6 309.265 12.2985  -2
   1   5   6 309.265 12.2985   1
   1   5   6 346.810 11.6852  -3
   1   5   6 346.810 11.6852  -2
   1   5   6 346.810 11.6852   1
   2   5   6 436.300 11.4355  -3
   2   5   6 436.300 11.4355  -2
   2   5   6 436.300 11.4355   1
   2   5   6 390.910 8.90628  -3
   2   5   6 390.910 8.90628   1
   2   5   6 366.372 10.2257  -2
   2   5   6 366.372 10.2257   1
   3   5   6 5666.93 166.131  -3
   3   5   6 5666.93 166.131   1
   4   5   6 1247.39 20.7385  -3
   4   5   6 1247.39 20.7385   1
   4   5   6 1174.16 43.0602  -2
   4   5   6 1174.16 43.0602   1
   5   5   6 128.624 10.6900  -2
   5   5   6 128.624 10.6900   1
   5   5   6 119.096 6.26210  -3
   5   5   6 119.096 6.26210   1
   6   5   6 718.914 16.9576  -3
   6   5   6 718.914 16.9576   1
   6   5   6 660.713 19.0423  -2
   6   5   6 660.713 19.0423   1
   7   5   6 29.5531 5.97132  -3
   7   5   6 29.5531 5.97132   1
   7   5   6 8.73351 6.35737  -2
   7   5   6 8.73351 6.35737   1
   8   5   6 388.462 14.4671  -2
   8   5   6 388.462 14.4671   1
   8   5   6 437.003 31.2432  -3
   8   5   6 437.003 31.2432   1
   9   5   6 413.503 29.8613  -2
   9   5   6 413.503 29.8613   1
  10   5   6 140.273 10.3157   1
  11   5   6 0.31010 5.34101   1
  12   5   6 8.64003 5.52151   1
   0   6   6 211.791 18.6083  -2
   0   6   6 211.791 18.6083   1
   0   6   6 211.280 13.5847  -3
   0   6   6 211.280 13.5847  -2
   0   6   6 211.280 13.5847   1
   0   6   6 160.994 10.0013  -3
   0   6   6 160.994 10.0013   1
   1   6   6 197.285 6.82474  -3
   1   6   6 197.285 6.82474   1
   1   6   6 206.618 8.12663  -2
   1   6   6 206.618 8.12663   1
   1   6   6 252.326 14.4232  -3
   1   6   6 252.326 14.4232  -2
   1   6   6 252.326 14.4232   1
   2   6   6 5299.90 155.977  -3
   2   6   6 5299.90 155.977  -2
   2   6   6 5299.90 155.977   1
   2   6   6 4752.74 98.9751  -3
   2   6   6 4752.74 98.9751   1
   2   6   6 4753.59 117.661  -2
   2   6   6 4753.59 117.661   1
   3   6   6 1423.49 22.3451  -3
   3   6   6 1423.49 22.3451   1
   3   6   6 1551.60 77.3064  -2
   3   6   6 1551.60 77.3064   1
   3   6   6 1650.74 89.8679  -3
   3   6   6 1650.74 89.8679  -2
   3   6   6 1650.74 89.8679   1
   4   6   6 61.9176 4.49793  -3
   4   6   6 61.9176 4.49793   1
   4   6   6 80.5064 6.79688  -2
   4   6   6 80.5064 6.79688   1
   5   6   6 27.6838 5.78337  -3
   5   6   6 27.6838 5.78337   1
   5   6   6 31.6484 10.7696  -2
   5   6   6 31.6484 10.7696   1
   6   6   6 141.420 8.66261  -2
   6   6   6 141.420 8.66261   1
   6   6   6 161.502 7.75458  -3
   6   6   6 161.502 7.75458   1
   7   6   6 445.175 13.3669  -3
   7   6   6 445.175 13.3669   1
   7   6   6 405.318 14.1482  -2
   7   6   6 405.318 14.1482   1
   8   6   6 15.4498 8.96826  -3
   8   6   6 15.4498 8.96826   1
   8   6   6 -9.1322 10.7505  -2
   8   6   6 -9.1322 10.7505   1
   9   6   6 370.901 29.3392  -3
   9   6   6 370.901 29.3392   1
  10   6   6 320.675 10.4923   1
  11   6   6 1299.79 49.4410   1
  12   6   6 31.0781 6.66565   1
  13   6   6 572.436 24.6686   1
   0   7   6 -4.7766 4.66800   1
   1   7   6 30.5563 5.15989  -3
   1   7   6 30.5563 5.15989   1
   1   7   6 34.0540 5.46160  -2
   1   7   6 34.0540 5.46160   1
   2   7   6 388.604 9.09425  -3
   2   7   6 388.604 9.09425   1
   2   7   6 397.955 9.49430  -2
   2   7   6 397.955 9.49430   1
   3   7   6 1295.09 19.8414  -3
   3   7   6 1295.09 19.8414   1
   3   7   6 1277.95 23.9983  -2
   3   7   6 1277.95 23.9983   1
   4   7   6 707.152 12.9841  -3
   4   7   6 707.152 12.9841   1
   4   7   6 761.127 18.0313  -2
   4   7   6 761.127 18.0313   1
   5   7   6 186.867 9.07218  -2
   5   7   6 186.867 9.07218   1
   5   7   6 178.905 7.23390  -3
   5   7   6 178.905 7.23390   1
   6   7   6 255.166 8.71689  -3
   6   7   6 255.166 8.71689   1
   6   7   6 270.210 12.0622  -2
   6   7   6 270.210 12.0622   1
   7   7   6 2141.16 64.6086  -2
   7   7   6 2141.16 64.6086   1
   7   7   6 2186.18 46.7579  -3
   7   7   6 2186.18 46.7579   1
   8   7   6 102.721 12.8389  -3
   8   7   6 102.721 12.8389   1
   8   7   6 121.483 15.2171  -2
   8   7   6 121.483 15.2171   1
   9   7   6 359.681 30.6964  -3
   9   7   6 359.681 30.6964   1
  10   7   6 2.86419 3.61206   1
  11   7   6 396.502 19.0470   1
  12   7   6 11.3812 6.59431   1
   0   8   6 2894.96 53.3259  -3
   0   8   6 2894.96 53.3259   1
   0   8   6 2801.82 137.960  -2
   0   8   6 2801.82 137.960   1
   1   8   6 353.509 7.99157  -3
   1   8   6 353.509 7.99157   1
   1   8   6 365.221 10.7895  -2
   1   8   6 365.221 10.7895   1
   2   8   6 3972.95 50.5491  -3
   2   8   6 3972.95 50.5491   1
   2   8   6 4026.80 98.9521  -2
   2   8   6 4026.80 98.9521   1
   4   8   6 654.690 12.7029  -3
   4   8   6 654.690 12.7029   1
   4   8   6 657.533 19.6915  -2
   4   8   6 657.533 19.6915   1
   5   8   6 163.274 5.50203  -3
   5   8   6 163.274 5.50203   1
   5   8   6 152.967 11.6317  -2
   5   8   6 152.967 11.6317   1
   6   8   6 953.460 31.9219  -2
   6   8   6 953.460 31.9219   1
   6   8   6 985.089 25.1557  -3
   6   8   6 985.089 25.1557   1
   7   8   6 -3.9039 8.04762  -3
   7   8   6 -3.9039 8.04762   1
   7   8   6 -11.862 15.1991  -2
   7   8   6 -11.862 15.1991   1
   8   8   6 10.8735 16.4986  -3
   8   8   6 10.8735 16.4986   1
   9   8   6 36.0022 14.6988  -3
   9   8   6 36.0022 14.6988   1
  10   8   6 8.82293 4.98597   1
  11   8   6 7.20617 4.77181   1
  12   8   6 1.31151 6.61954   1
   0   9   6 -10.438 5.16425   1
   1   9   6 6233.40 100.529  -3
   1   9   6 6233.40 100.529   1
   1   9   6 5809.27 200.909  -2
   1   9   6 5809.27 200.909   1
   2   9   6 331.046 7.12877  -3
   2   9   6 331.046 7.12877   1
   2   9   6 315.431 18.1644  -2
   2   9   6 315.431 18.1644   1
   3   9   6 7457.23 134.025  -3
   3   9   6 7457.23 134.025   1
   3   9   6 7156.58 246.911  -2
   3   9   6 7156.58 246.911   1
   4   9   6 274.033 7.29269  -3
   4   9   6 274.033 7.29269   1
   4   9   6 256.321 25.1780  -2
   4   9   6 256.321 25.1780   1
   5   9   6 16.8609 4.85645  -3
   5   9   6 16.8609 4.85645   1
   5   9   6 63.1045 21.9856  -2
   5   9   6 63.1045 21.9856   1
   6   9   6 46.8562 15.8786  -2
   6   9   6 46.8562 15.8786   1
   6   9   6 15.1586 6.75329  -3
   6   9   6 15.1586 6.75329   1
   7   9   6 948.787 54.7674  -3
   7   9   6 948.787 54.7674   1
   8   9   6 431.649 31.0012  -3
   8   9   6 431.649 31.0012   1
   9   9   6 279.944 21.5068  -2
   9   9   6 279.944 21.5068   1
  10   9   6 5.65734 3.53353   1
  11   9   6 109.489 8.25462   1
  12   9   6 301.428 16.9396   1
   0  10   6 3096.86 56.9444  -3
   0  10   6 3096.86 56.9444   1
   1  10   6 74.6737 5.22046  -3
   1  10   6 74.6737 5.22046   1
   2  10   6 600.904 9.86722  -3
   2  10   6 600.904 9.86722   1
   3  10   6 331.950 7.62824  -3
   3  10   6 331.950 7.62824   1
   4  10   6 8.36783 5.21117  -3
   4  10   6 8.36783 5.21117   1
   5  10   6 77.4640 7.67010  -3
   5  10   6 77.4640 7.67010   1
   5  10   6 60.5806 22.7617  -2
   5  10   6 60.5806 22.7617   1
   6  10   6 244.887 10.6317  -3
   6  10   6 244.887 10.6317   1
   6  10   6 193.494 27.5229  -2
   6  10   6 193.494 27.5229   1
   7  10   6 262.833 19.4761  -3
   7  10   6 262.833 19.4761   1
   8  10   6 26.3234 4.59901   1
   9  10   6 498.295 16.0321   1
  10  10   6 15.6903 4.54219   1
  11  10   6 107.393 6.77978   1
  12  10   6 8.06960 6.88898   1
   0  11   6 4.26572 5.11855   1
   1  11   6 6915.37 93.8861  -3
   1  11   6 6915.37 93.8861   1
   2  11   6 248.281 7.29435  -3
   2  11   6 248.281 7.29435   1
   3  11   6 492.893 9.95962  -3
   3  11   6 492.893 9.95962   1
   4  11   6 653.938 13.0159  -3
   4  11   6 653.938 13.0159   1
   5  11   6 56.9983 10.2899  -3
   5  11   6 56.9983 10.2899   1
   5  11   6 93.7039 25.9185  -2
   5  11   6 93.7039 25.9185   1
   6  11   6 102.412 23.5643  -3
   6  11   6 102.412 23.5643   1
   7  11   6 2494.26 45.3833   1
   8  11   6 11.9092 5.24894   1
   9  11   6 1.86555 4.68497   1
  10  11   6 17.6480 4.98439   1
  11  11   6 53.0055 5.58859   1
  12  11   6 257.370 18.3317   1
   0  12   6 616.022 17.7493  -3
   0  12   6 616.022 17.7493   1
   1  12   6 6848.47 105.605  -3
   1  12   6 6848.47 105.605   1
   2  12   6 1470.96 21.9184  -3
   2  12   6 1470.96 21.9184   1
   3  12   6 18.6028 6.52703  -3
   3  12   6 18.6028 6.52703   1
   4  12   6 71.5351 8.63738  -3
   4  12   6 71.5351 8.63738   1
   5  12   6 139.933 11.3567  -3
   5  12   6 139.933 11.3567   1
   6  12   6 84.7190 6.17299   1
   7  12   6 108.064 6.97381   1
   8  12   6 26.3167 4.44494   1
   9  12   6 24.1754 5.58155   1
  10  12   6 17.2577 5.24275   1
  11  12   6 212.594 9.92250   1
  12  12   6 358.530 16.3230   1
   0  13   6 -1.2666 4.60470   1
   1  13   6 163.723 8.17719  -3
   1  13   6 163.723 8.17719   1
   2  13   6 549.040 12.2813  -3
   2  13   6 549.040 12.2813   1
   3  13   6 522.917 15.7903  -3
   3  13   6 522.917 15.7903   1
   4  13   6 657.573 22.3085  -3
   4  13   6 657.573 22.3085   1
   5  13   6 416.529 26.1903  -3
   5  13   6 416.529 26.1903   1
   6  13   6 755.796 20.5515   1
   7  13   6 1573.90 38.0841   1
   8  13   6 5.75528 4.28966   1
   9  13   6 30.8739 6.08008   1
  10  13   6 73.5409 7.10381   1
  11  13   6 14.7016 5.39760   1
   0  14   6 44.8607 15.7818  -3
   0  14   6 44.8607 15.7818   1
   1  14   6 80.7522 11.4000  -3
   1  14   6 80.7522 11.4000   1
   2  14   6 281.216 11.2631  -3
   2  14   6 281.216 11.2631   1
   3  14   6 8.55512 15.0049  -3
   3  14   6 8.55512 15.0049   1
   4  14   6 94.3615 19.2404  -3
   4  14   6 94.3615 19.2404   1
   5  14   6 84.5710 4.74565   1
   6  14   6 24.4624 4.20881   1
   7  14   6 145.467 8.42753   1
   8  14   6 104.850 7.16906   1
   9  14   6 160.046 10.0002   1
  10  14   6 76.6879 7.92032   1
  11  14   6 20.8500 7.37119   1
   0  15   6 2.84611 4.16660   1
   1  15   6 183.968 14.3451  -3
   1  15   6 183.968 14.3451   1
   2  15   6 584.106 46.2433  -3
   2  15   6 584.106 46.2433   1
   3  15   6 623.562 49.0391  -3
   3  15   6 623.562 49.0391   1
   4  15   6 1702.73 93.1525  -3
   4  15   6 1702.73 93.1525   1
   5  15   6 88.9139 4.98396   1
   6  15   6 45.4894 3.66771   1
   7  15   6 170.861 9.08770   1
   8  15   6 256.728 10.3091   1
   9  15   6 20.4567 4.93796   1
  10  15   6 265.951 12.3324   1
   0  16   6 163.448 7.45090   1
   1  16   6 1086.96 15.2523   1
   2  16   6 41.5189 31.0549  -3
   2  16   6 41.5189 31.0549   1
   3  16   6 105.884 4.65676   1
   4  16   6 253.520 7.58107   1
   5  16   6 484.129 10.8465   1
   6  16   6 334.110 9.11204   1
   7  16   6 244.232 10.6538   1
   8  16   6 211.829 9.90955   1
   9  16   6 398.676 11.3944   1
  10  16   6 17.6984 6.46974   1
   0  17   6 -0.9772 4.32187   1
   1  17   6 441.090 8.59647   1
   2  17   6 136.191 5.62618   1
   3  17   6 201.427 5.97227   1
   4  17   6 245.732 7.32829   1
   5  17   6 414.138 11.0688   1
   6  17   6 90.0012 5.23758   1
   7  17   6 12.4287 6.59614   1
   8  17   6 97.9977 7.69753   1
   9  17   6 301.652 11.4751   1
   0  18   6 376.729 10.8535   1
   1  18   6 41.6848 4.05410   1
   2  18   6 1787.73 26.8888   1
   3  18   6 308.170 7.62239   1
   4  18   6 19.5516 4.26619   1
   5  18   6 8.62412 4.50730   1
   6  18   6 494.850 12.4406   1
   7  18   6 344.010 12.0894   1
   8  18   6 96.5417 7.96086   1
   9  18   6 10.3311 5.68309   1
  10  18   6 67.4421 10.6764   1
   0  19   6 5.42177 4.83123   1
   1  19   6 235.793 7.07290   1
   2  19   6 377.049 8.87541   1
   3  19   6 381.824 8.68441   1
   4  19   6 -0.9014 4.10034   1
   5  19   6 18.8853 5.23100   1
   6  19   6 102.166 5.92120   1
   7  19   6 53.1141 5.74463   1
   8  19   6 95.9527 8.32119   1
   9  19   6 75.7153 9.82513   1
  10  19   6 27.3123 6.36934   1
   0  20   6 70.1320 7.02026   1
   1  20   6 185.790 6.66526   1
   2  20   6 3.21731 4.14956   1
   3  20   6 139.908 6.24652   1
   4  20   6 40.0060 4.81487   1
   5  20   6 24.3912 5.52490   1
   6  20   6 184.271 7.70921   1
   7  20   6 11.2273 3.94376   1
   8  20   6 143.651 10.0168   1
   9  20   6 20.6146 11.4798   1
   0  21   6 -2.2176 5.60623   1
   1  21   6 37.7497 4.93852   1
   2  21   6 329.332 8.84802   1
   3  21   6 70.2870 5.91750   1
   4  21   6 12.5614 4.52595   1
   5  21   6 89.7937 7.23016   1
   6  21   6 59.0604 5.40157   1
   7  21   6 64.4404 5.02818   1
   8  21   6 10.4227 11.7154   1
   0  22   6 8.51383 5.85981   1
   1  22   6 83.6909 5.89534   1
   2  22   6 373.341 10.3064   1
   3  22   6 575.527 14.5512   1
   4  22   6 205.039 8.17408   1
   5  22   6 30.8456 6.14569   1
   6  22   6 9.05783 4.67581   1
   7  22   6 49.5711 4.88018   1
   8  22   6 45.1873 14.7324   1
   0  23   6 -2.3199 7.20876   1
   1  23   6 22.0368 4.94542   1
   2  23   6 66.8987 5.76849   1
   3  23   6 40.9200 6.51560   1
   4  23   6 557.268 13.2880   1
   5  23   6 40.9695 5.90114   1
   6  23   6 24.1610 5.22067   1
   7  23   6 32.2403 5.06364   1
   8  23   6 231.842 22.3661   1
   0  24   6 725.229 26.7360   1
   1  24   6 388.507 10.8458   1
   2  24   6 29.8111 5.21651   1
   3  24   6 745.987 19.8121   1
   4  24   6 58.3118 6.25267   1
   5  24   6 188.264 9.26979   1
   6  24   6 853.580 22.4747   1
   7  24   6 23.7541 6.06466   1
   0  25   6 0.77709 8.24570   1
   1  25   6 10.8312 5.49054   1
   2  25   6 20.5657 5.25345   1
   3  25   6 315.767 12.3787   1
   4  25   6 18.4584 5.87371   1
   5  25   6 106.279 15.9018   1
   6  25   6 90.7669 17.6534   1
   7  25   6 44.6643 15.7184   1
   0  26   6 450.352 20.1493   1
   1  26   6 44.5815 6.34275   1
   2  26   6 9.60711 5.42591   1
   3  26   6 260.752 13.3163   1
   4  26   6 181.044 13.6923   1
   5  26   6 259.961 23.2555   1
   7  26   6 35.7887 15.5706   1
   0  27   6 1.13661 11.7531   1
   1  27   6 315.769 13.6832   1
   2  27   6 59.9212 10.0956   1
   3  27   6 -2.9956 8.03660   1
   4  27   6 485.885 19.9989   1
   0  28   6 132.692 16.7805   1
   1  28   6 81.5090 12.8351   1
   3  28   6 177.695 15.9131   1
   4  28   6 55.0778 10.0921   1
   0  29   6 -4.6001 17.9190   1
   1  29   6 40.1506 15.1103   1
   1  30   6 8.03740 19.6215   1
   1   0   7 3.46883 2.87735   1
   2   0   7 1.19942 2.47657   1
   3   0   7 2.84223 4.15469   1
   4   0   7 4.71417 5.71196   1
   5   0   7 25.9716 4.61954   1
   6   0   7 0.21564 5.95427   1
   7   0   7 3.22747 6.02204   1
   8   0   7 37.0629 5.02191   1
   9   0   7 -1.0704 6.59691   1
  10   0   7 -3.0266 6.40274   1
  11   0   7 3.07137 5.50736   1
   0   1   7 -5.0594 7.07350   1
   1   1   7 1020.22 15.5547  -3
   1   1   7 1020.22 15.5547  -2
   1   1   7 1020.22 15.5547   1
   1   1   7 966.198 13.0601  -3
   1   1   7 966.198 13.0601   1
   2   1   7 343.798 9.08433  -3
   2   1   7 343.798 9.08433  -2
   2   1   7 343.798 9.08433   1
   2   1   7 352.762 5.82674  -3
   2   1   7 352.762 5.82674   1
   2   1   7 319.855 12.7985  -2
   2   1   7 319.855 12.7985   1
   3   1   7 2344.78 68.5464  -2
   3   1   7 2344.78 68.5464   1
   3   1   7 2445.02 56.2579  -3
   3   1   7 2445.02 56.2579   1
   3   1   7 2481.86 62.5772  -3
   3   1   7 2481.86 62.5772  -2
   3   1   7 2481.86 62.5772   1
   4   1   7 967.781 52.4362  -3
   4   1   7 967.781 52.4362  -2
   4   1   7 967.781 52.4362   1
   4   1   7 978.543 36.9974  -2
   4   1   7 978.543 36.9974   1
   4   1   7 981.292 23.8087  -3
   4   1   7 981.292 23.8087   1
   5   1   7 34.9870 7.47572  -2
   5   1   7 34.9870 7.47572   1
   5   1   7 36.6169 4.95861  -3
   5   1   7 36.6169 4.95861   1
   6   1   7 1092.51 29.3287  -3
   6   1   7 1092.51 29.3287   1
   6   1   7 1018.12 31.1746  -2
   6   1   7 1018.12 31.1746   1
   7   1   7 10.8801 5.25654  -2
   7   1   7 10.8801 5.25654   1
   7   1   7 7.73857 7.73673  -3
   7   1   7 7.73857 7.73673   1
   8   1   7 1164.71 61.5650  -2
   8   1   7 1164.71 61.5650   1
   9   1   7 181.118 10.2140   1
  10   1   7 54.6216 4.23602   1
  11   1   7 278.609 18.3687   1
   1   2   7 662.929 14.0499  -3
   1   2   7 662.929 14.0499  -2
   1   2   7 662.929 14.0499   1
   1   2   7 636.102 10.3072  -3
   1   2   7 636.102 10.3072   1
   3   2   7 558.051 11.3524  -3
   3   2   7 558.051 11.3524   1
   3   2   7 608.449 25.9214  -3
   3   2   7 608.449 25.9214  -2
   3   2   7 608.449 25.9214   1
   3   2   7 551.176 15.0395  -2
   3   2   7 551.176 15.0395   1
   4   2   7 50.6955 5.47656  -3
   4   2   7 50.6955 5.47656   1
   4   2   7 45.8144 5.58508  -2
   4   2   7 45.8144 5.58508   1
   4   2   7 41.8939 15.8204  -3
   4   2   7 41.8939 15.8204  -2
   4   2   7 41.8939 15.8204   1
   5   2   7 1057.65 21.4377  -3
   5   2   7 1057.65 21.4377   1
   5   2   7 990.020 26.0061  -2
   5   2   7 990.020 26.0061   1
   6   2   7 120.180 6.72530  -3
   6   2   7 120.180 6.72530   1
   6   2   7 108.284 8.84179  -2
   6   2   7 108.284 8.84179   1
   7   2   7 20.3204 6.73738  -3
   7   2   7 20.3204 6.73738   1
   7   2   7 16.9022 7.27302  -2
   7   2   7 16.9022 7.27302   1
   8   2   7 130.713 8.81680  -2
   8   2   7 130.713 8.81680   1
   9   3   7 587.935 35.8355  -3
   9   2   7 587.935 35.8355  -2
   9   2   7 587.935 35.8355   1
  10   3   7 82.6510 16.1244  -3
  10   2   7 82.6510 16.1244  -2
  10   2   7 82.6510 16.1244   1
  13   1   7 243.503 16.4341  -2
  13   2   7 243.503 16.4341   1
   0   3   7 4.76131 3.62633   1
   1   3   7 578.329 9.78841  -3
   1   3   7 578.329 9.78841   1
   1   3   7 598.348 10.6001  -3
   1   3   7 598.348 10.6001  -2
   1   3   7 598.348 10.6001   1
   2   3   7 1988.63 28.1662  -3
   2   3   7 1988.63 28.1662   1
   2   3   7 2134.10 32.8867  -3
   2   3   7 2134.10 32.8867  -2
   2   3   7 2134.10 32.8867   1
   2   3   7 2034.39 57.6749  -2
   2   3   7 2034.39 57.6749   1
   3   3   7 132.495 9.46604  -3
   3   3   7 132.495 9.46604  -2
   3   3   7 132.495 9.46604   1
   3   3   7 116.180 5.67739  -3
   3   3   7 116.180 5.67739   1
   3   3   7 117.486 5.27725  -2
   3   3   7 117.486 5.27725   1
   4   3   7 3214.59 67.2173  -3
   4   3   7 3214.59 67.2173   1
   4   3   7 3445.81 124.717  -3
   4   3   7 3445.81 124.717  -2
   4   3   7 3445.81 124.717   1
   4   3   7 3345.17 164.728  -2
   4   3   7 3345.17 164.728   1
   5   3   7 247.165 6.60035  -3
   5   3   7 247.165 6.60035   1
   5   3   7 263.136 12.6110  -2
   5   3   7 263.136 12.6110   1
   6   3   7 344.461 9.59028  -3
   6   3   7 344.461 9.59028   1
   6   3   7 323.232 20.8390  -2
   6   3   7 323.232 20.8390   1
   7   3   7 314.708 11.2049  -3
   7   3   7 314.708 11.2049   1
   8   3   7 380.294 18.5373  -2
   8   3   7 380.294 18.5373   1
   9   4   7 141.963 22.3975  -3
   9   3   7 141.963 22.3975  -2
   9   3   7 141.963 22.3975   1
  10   3   7 224.922 11.5797   1
  11   3   7 21.9190 4.91715   1
  13   2   7 14.3572 11.7056  -2
  13   3   7 14.3572 11.7056   1
   0   4   7 534.904 18.7742  -3
   0   4   7 534.904 18.7742   1
   0   4   7 524.390 32.7127  -3
   0   4   7 524.390 32.7127  -2
   0   4   7 524.390 32.7127   1
   1   4   7 1378.99 23.1481  -3
   1   4   7 1378.99 23.1481  -2
   1   4   7 1378.99 23.1481   1
   1   4   7 1340.41 21.3706  -3
   1   4   7 1340.41 21.3706   1
   1   4   7 1400.47 70.2643  -2
   1   4   7 1400.47 70.2643   1
   2   4   7 2402.17 36.9428  -3
   2   4   7 2402.17 36.9428  -2
   2   4   7 2402.17 36.9428   1
   2   4   7 2275.21 35.1451  -3
   2   4   7 2275.21 35.1451   1
   2   4   7 2353.94 81.1670  -2
   2   4   7 2353.94 81.1670   1
   3   4   7 96.7119 5.76579  -3
   3   4   7 96.7119 5.76579   1
   3   4   7 104.627 9.23964  -3
   3   4   7 104.627 9.23964  -2
   3   4   7 104.627 9.23964   1
   3   4   7 119.051 7.41315  -2
   3   4   7 119.051 7.41315   1
   4   4   7 101.761 4.19355  -3
   4   4   7 101.761 4.19355   1
   4   4   7 114.500 6.57548  -2
   4   4   7 114.500 6.57548   1
   4   4   7 120.227 21.7661  -3
   4   4   7 120.227 21.7661  -2
   4   4   7 120.227 21.7661   1
   5   4   7 66.5210 5.55544  -3
   5   4   7 66.5210 5.55544   1
   5   4   7 78.7599 9.51580  -2
   5   4   7 78.7599 9.51580   1
   6   4   7 171.734 7.15984  -3
   6   4   7 171.734 7.15984   1
   6   4   7 162.830 8.03514  -2
   6   4   7 162.830 8.03514   1
   7   4   7 53.9687 7.16080  -3
   7   4   7 53.9687 7.16080   1
   7   4   7 55.2928 8.51796  -2
   7   4   7 55.2928 8.51796   1
   8   4   7 180.697 11.7387  -2
   8   4   7 180.697 11.7387   1
   8   4   7 197.193 18.2548  -3
   8   4   7 197.193 18.2548   1
   9   4   7 587.778 36.2218  -2
   9   4   7 587.778 36.2218   1
  10   4   7 57.8073 5.43971   1
  11   4   7 58.7093 7.39083   1
  12   4   7 62.2753 9.81017   1
  13   3   7 22.5019 13.9520  -2
  13   4   7 22.5019 13.9520   1
   0   5   7 -1.9566 4.49952   1
   1   5   7 610.332 13.9539  -3
   1   5   7 610.332 13.9539  -2
   1   5   7 610.332 13.9539   1
   1   5   7 579.748 11.3205  -3
   1   5   7 579.748 11.3205   1
   1   5   7 613.607 23.9491  -2
   1   5   7 613.607 23.9491   1
   2   5   7 21.0817 4.83501  -3
   2   5   7 21.0817 4.83501   1
   2   5   7 18.7593 8.73462  -3
   2   5   7 18.7593 8.73462  -2
   2   5   7 18.7593 8.73462   1
   2   5   7 34.2497 6.83897  -2
   2   5   7 34.2497 6.83897   1
   3   5   7 96.9624 12.5214  -3
   3   5   7 96.9624 12.5214  -2
   3   5   7 96.9624 12.5214   1
   3   5   7 74.4280 3.80310  -3
   3   5   7 74.4280 3.80310   1
   3   5   7 77.6613 5.90337  -2
   3   5   7 77.6613 5.90337   1
   4   5   7 2205.23 35.6447  -3
   4   5   7 2205.23 35.6447   1
   4   5   7 2223.50 110.204  -2
   4   5   7 2223.50 110.204   1
   5   5   7 1032.21 21.4810  -3
   5   5   7 1032.21 21.4810   1
   5   5   7 1019.32 55.2115  -2
   5   5   7 1019.32 55.2115   1
   6   5   7 8.96958 5.79677  -3
   6   5   7 8.96958 5.79677   1
   6   5   7 14.4831 8.16628  -2
   6   5   7 14.4831 8.16628   1
   7   5   7 274.836 9.19760  -3
   7   5   7 274.836 9.19760   1
   7   5   7 280.086 10.9070  -2
   7   5   7 280.086 10.9070   1
   8   5   7 1220.44 67.7095  -3
   8   5   7 1220.44 67.7095   1
   8   5   7 1070.78 33.9357  -2
   8   5   7 1070.78 33.9357   1
   9   5   7 112.291 13.9357  -2
   9   5   7 112.291 13.9357   1
  10   5   7 60.0317 4.76023   1
  11   5   7 32.5307 6.56860   1
  12   5   7 9.50121 5.67449   1
   1   6   7 8425.38 301.397  -3
   1   6   7 8425.38 301.397   1
   2   6   7 1339.32 33.1812  -3
   2   6   7 1339.32 33.1812  -2
   2   6   7 1339.32 33.1812   1
   2   6   7 1185.83 21.1399  -3
   2   6   7 1185.83 21.1399   1
   2   6   7 1208.75 31.2005  -2
   2   6   7 1208.75 31.2005   1
   3   6   7 1452.31 28.9129  -2
   3   6   7 1452.31 28.9129   1
   3   6   7 1499.69 21.5873  -3
   3   6   7 1499.69 21.5873   1
   4   6   7 573.660 10.9706  -3
   4   6   7 573.660 10.9706   1
   4   6   7 550.044 13.6754  -2
   4   6   7 550.044 13.6754   1
   5   6   7 111.833 5.16187  -3
   5   6   7 111.833 5.16187   1
   5   6   7 110.436 9.07997  -2
   5   6   7 110.436 9.07997   1
   6   6   7 836.383 18.1487  -3
   6   6   7 836.383 18.1487   1
   6   6   7 807.269 23.5162  -2
   6   6   7 807.269 23.5162   1
   7   6   7 87.0119 7.01270  -2
   7   6   7 87.0119 7.01270   1
   7   6   7 93.7007 7.26757  -3
   7   6   7 93.7007 7.26757   1
   8   6   7 58.5255 11.4486  -3
   8   6   7 58.5255 11.4486   1
   8   6   7 36.8592 10.4651  -2
   8   6   7 36.8592 10.4651   1
   9   6   7 93.3317 20.7791  -3
   9   6   7 93.3317 20.7791   1
  10   6   7 65.2167 5.17449   1
  11   6   7 26.2109 6.84763   1
  12   6   7 139.444 10.4363   1
  13   6   7 99.8552 12.6792   1
   0   7   7 2.74235 4.68637   1
   1   7   7 136.232 7.14756  -2
   1   7   7 136.232 7.14756   1
   1   7   7 105.535 5.27321  -3
   1   7   7 105.535 5.27321   1
   2   7   7 2959.40 41.6249  -3
   2   7   7 2959.40 41.6249   1
   2   7   7 2912.50 55.2458  -2
   2   7   7 2912.50 55.2458   1
   3   7   7 1593.16 22.9781  -3
   3   7   7 1593.16 22.9781   1
   3   7   7 1547.11 35.7404  -2
   3   7   7 1547.11 35.7404   1
   5   7   7 117.039 11.4084  -2
   5   7   7 117.039 11.4084   1
   5   7   7 138.043 5.62111  -3
   5   7   7 138.043 5.62111   1
   6   7   7 95.7015 6.95895  -3
   6   7   7 95.7015 6.95895   1
   6   7   7 90.4964 9.36008  -2
   6   7   7 90.4964 9.36008   1
   7   7   7 428.675 13.9930  -3
   7   7   7 428.675 13.9930   1
   7   7   7 414.978 17.9579  -2
   7   7   7 414.978 17.9579   1
   8   7   7 95.5338 12.7584  -3
   8   7   7 95.5338 12.7584   1
   8   7   7 114.516 22.6481  -2
   8   7   7 114.516 22.6481   1
   9   7   7 49.8294 11.4212  -3
   9   7   7 49.8294 11.4212   1
  10   7   7 1.86897 3.94396   1
  11   7   7 66.0713 8.48870   1
  12   7   7 138.384 11.0375   1
   0   8   7 993.145 19.2506  -3
   0   8   7 993.145 19.2506   1
   0   8   7 914.865 51.0814  -2
   0   8   7 914.865 51.0814   1
   1   8   7 18.8666 5.11275  -3
   1   8   7 18.8666 5.11275   1
   1   8   7 38.2930 7.64443  -2
   1   8   7 38.2930 7.64443   1
   2   8   7 298.486 6.68765  -3
   2   8   7 298.486 6.68765   1
   2   8   7 297.745 11.4573  -2
   2   8   7 297.745 11.4573   1
   3   8   7 1127.76 16.4487  -3
   3   8   7 1127.76 16.4487   1
   3   8   7 1089.90 26.0671  -2
   3   8   7 1089.90 26.0671   1
   4   8   7 1735.23 27.3824  -3
   4   8   7 1735.23 27.3824   1
   4   8   7 1724.67 51.7343  -2
   4   8   7 1724.67 51.7343   1
   5   8   7 39.3322 10.9118  -2
   5   8   7 39.3322 10.9118   1
   5   8   7 35.6666 5.20885  -3
   5   8   7 35.6666 5.20885   1
   6   8   7 634.446 23.4206  -2
   6   8   7 634.446 23.4206   1
   6   8   7 609.132 16.0353  -3
   6   8   7 609.132 16.0353   1
   7   8   7 7.00262 9.19434  -3
   7   8   7 7.00262 9.19434   1
   7   8   7 3.11633 15.7010  -2
   7   8   7 3.11633 15.7010   1
   8   8   7 1199.48 47.7409  -3
   8   8   7 1199.48 47.7409   1
   9   8   7 20.8625 13.1261  -2
   9   8   7 20.8625 13.1261   1
  10   8   7 25.3908 3.72933   1
  11   8   7 5.46033 4.83736   1
  12   8   7 82.3831 10.2361   1
   0   9   7 -8.1601 5.02289   1
   1   9   7 193.196 6.16355  -3
   1   9   7 193.196 6.16355   1
   1   9   7 196.020 15.6252  -2
   1   9   7 196.020 15.6252   1
   2   9   7 96.0550 5.10909  -3
   2   9   7 96.0550 5.10909   1
   2   9   7 145.578 14.4617  -2
   2   9   7 145.578 14.4617   1
   3   9   7 5665.72 78.9918  -3
   3   9   7 5665.72 78.9918   1
   3   9   7 5805.08 201.167  -2
   3   9   7 5805.08 201.167   1
   4   9   7 279.517 6.35632  -3
   4   9   7 279.517 6.35632   1
   5   9   7 160.975 6.37012  -3
   5   9   7 160.975 6.37012   1
   5   9   7 206.562 26.8340  -2
   5   9   7 206.562 26.8340   1
   6   9   7 1051.28 24.8061  -3
   6   9   7 1051.28 24.8061   1
   6   9   7 1039.13 43.4290  -2
   6   9   7 1039.13 43.4290   1
   7   9   7 214.769 17.6293  -3
   7   9   7 214.769 17.6293   1
   7   9   7 209.877 28.1725  -2
   7   9   7 209.877 28.1725   1
   8   9   7 848.934 21.6155   1
   9   9   7 7.98446 14.0703  -2
   9   9   7 7.98446 14.0703   1
  10   9   7 115.926 7.08222   1
  11   9   7 11.3297 5.28757   1
  12   9   7 5.18558 7.24378   1
   0  10   7 3413.34 66.8630  -3
   0  10   7 3413.34 66.8630   1
   1  10   7 64.0783 5.75901  -3
   1  10   7 64.0783 5.75901   1
   2  10   7 2745.11 36.8350  -3
   2  10   7 2745.11 36.8350   1
   3  10   7 3630.25 48.2776  -3
   3  10   7 3630.25 48.2776   1
   4  10   7 57.9527 5.85423  -3
   4  10   7 57.9527 5.85423   1
   5  10   7 66.3050 6.49037  -3
   5  10   7 66.3050 6.49037   1
   5  10   7 122.147 24.6135  -2
   5  10   7 122.147 24.6135   1
   6  10   7 211.941 28.3244  -2
   6  10   7 211.941 28.3244   1
   6  10   7 195.135 12.4003  -3
   6  10   7 195.135 12.4003   1
   7  10   7 76.0275 21.8431  -3
   7  10   7 76.0275 21.8431   1
   8  10   7 153.104 8.75455   1
   9  10   7 31.3965 5.23769   1
  10  10   7 53.5401 5.82831   1
  11  10   7 23.2794 4.71717   1
  12  10   7 266.725 18.5916   1
   0  11   7 -3.3271 5.63138   1
   1  11   7 467.852 10.7158  -3
   1  11   7 467.852 10.7158   1
   2  11   7 129.815 6.40207  -3
   2  11   7 129.815 6.40207   1
   3  11   7 32.7122 5.68180  -3
   3  11   7 32.7122 5.68180   1
   4  11   7 534.770 12.6495  -3
   4  11   7 534.770 12.6495   1
   5  11   7 366.181 16.0490  -3
   5  11   7 366.181 16.0490   1
   6  11   7 851.770 37.6244  -3
   6  11   7 851.770 37.6244   1
   7  11   7 1491.55 84.8793  -3
   7  11   7 1491.55 84.8793   1
   8  11   7 31.3149 5.81271   1
   9  11   7 7.65056 4.87835   1
  10  11   7 969.044 27.5981   1
  11  11   7 69.2864 6.39403   1
  12  11   7 512.345 30.6486   1
   0  12   7 172.043 11.1182  -3
   0  12   7 172.043 11.1182   1
   1  12   7 893.602 16.9771  -3
   1  12   7 893.602 16.9771   1
   2  12   7 14.1703 6.52327  -3
   2  12   7 14.1703 6.52327   1
   3  12   7 887.383 15.1792  -3
   3  12   7 887.383 15.1792   1
   4  12   7 411.234 14.0514  -3
   4  12   7 411.234 14.0514   1
   5  12   7 516.508 19.8226  -3
   5  12   7 516.508 19.8226   1
   6  12   7 119.789 7.82805   1
   7  12   7 173.983 8.40989   1
   8  12   7 13.4249 4.37616   1
   9  12   7 251.012 11.1685   1
  10  12   7 772.590 22.9761   1
  11  12   7 31.5274 5.44555   1
  12  12   7 358.680 22.7005   1
   0  13   7 -2.5286 5.03763   1
   1  13   7 17.3060 8.94763  -3
   1  13   7 17.3060 8.94763   1
   2  13   7 257.724 9.11375  -3
   2  13   7 257.724 9.11375   1
   3  13   7 73.8842 10.2892  -3
   3  13   7 73.8842 10.2892   1
   4  13   7 63.5224 11.6963  -3
   4  13   7 63.5224 11.6963   1
   5  13   7 240.555 22.2236  -3
   5  13   7 240.555 22.2236   1
   6  13   7 1076.28 27.4950   1
   7  13   7 1146.05 28.7532   1
   8  13   7 147.140 7.74422   1
   9  13   7 246.720 11.4006   1
  10  13   7 574.085 18.6989   1
  11  13   7 134.091 8.77479   1
   0  14   7 183.347 14.8171  -3
   0  14   7 183.347 14.8171   1
   1  14   7 180.492 11.4761  -3
   1  14   7 180.492 11.4761   1
   2  14   7 744.381 19.5734  -3
   2  14   7 744.381 19.5734   1
   3  14   7 347.101 17.1895  -3
   3  14   7 347.101 17.1895   1
   4  14   7 756.793 35.9525  -3
   4  14   7 756.793 35.9525   1
   5  14   7 4607.08 76.9762   1
   6  14   7 22.5320 3.35579   1
   7  14   7 249.940 10.3149   1
   8  14   7 56.5720 5.94248   1
   9  14   7 60.0258 7.08548   1
  10  14   7 14.3867 5.84588   1
  11  14   7 113.967 11.8857   1
   0  15   7 9.21034 5.31145   1
   1  15   7 115.912 15.3231  -3
   1  15   7 115.912 15.3231   1
   2  15   7 69.3465 21.9118  -3
   2  15   7 69.3465 21.9118   1
   3  15   7 86.7880 32.3562  -3
   3  15   7 86.7880 32.3562   1
   4  15   7 696.294 48.1215  -3
   4  15   7 696.294 48.1215   1
   5  15   7 3794.66 68.1222   1
   6  15   7 82.7585 4.50990   1
   7  15   7 87.8068 7.25103   1
   8  15   7 380.146 12.9228   1
   9  15   7 136.277 7.70841   1
  10  15   7 291.454 12.9941   1
   0  16   7 778.134 56.6265  -3
   0  16   7 778.134 56.6265   1
   1  16   7 863.049 12.6451   1
   2  16   7 18.0878 3.41327   1
   3  16   7 1288.74 19.1025   1
   4  16   7 773.657 14.9387   1
   5  16   7 78.5926 5.20322   1
   6  16   7 1179.02 24.4919   1
   7  16   7 170.045 9.48193   1
   8  16   7 125.446 8.32504   1
   9  16   7 72.6475 6.60672   1
  10  16   7 45.6443 7.31461   1
   0  17   7 -0.5741 5.02336   1
   1  17   7 1883.20 26.2359   1
   2  17   7 356.976 8.12283   1
   3  17   7 3017.49 43.1285   1
   4  17   7 372.531 9.86161   1
   5  17   7 536.324 13.6999   1
   6  17   7 101.830 5.48592   1
   7  17   7 318.400 12.5716   1
   8  17   7 6.20371 5.42435   1
   9  17   7 72.4024 6.79070   1
   0  18   7 139.398 8.32612   1
   1  18   7 21.8441 3.90923   1
   2  18   7 591.283 11.1795   1
   3  18   7 84.0859 4.70568   1
   4  18   7 9.70091 4.28674   1
   5  18   7 110.626 6.81617   1
   6  18   7 43.0335 4.48958   1
   7  18   7 433.952 14.0084   1
   8  18   7 40.2343 6.55414   1
   9  18   7 90.4990 7.74320   1
  10  18   7 177.379 14.9667   1
   0  19   7 -4.0233 5.79777   1
   1  19   7 304.538 7.88397   1
   2  19   7 72.6191 4.90422   1
   3  19   7 332.065 8.02966   1
   4  19   7 114.877 6.21559   1
   5  19   7 15.4444 5.32161   1
   6  19   7 40.0253 4.68030   1
   7  19   7 322.107 12.1152   1
   8  19   7 69.2424 7.50402   1
   9  19   7 253.337 14.6727   1
  10  19   7 66.8881 7.97696   1
   0  20   7 18.9594 6.44152   1
   1  20   7 413.607 9.52252   1
   2  20   7 16.9846 4.43327   1
   3  20   7 120.256 5.61658   1
   4  20   7 129.488 6.73973   1
   5  20   7 150.141 8.41798   1
   6  20   7 260.776 8.97354   1
   7  20   7 3.47065 3.60610   1
   8  20   7 32.8133 6.89426   1
   9  20   7 14.8625 13.1368   1
   0  21   7 7.56596 6.62600   1
   1  21   7 225.369 7.95463   1
   2  21   7 27.3188 4.53864   1
   3  21   7 67.8340 4.86005   1
   4  21   7 56.9966 5.42091   1
   5  21   7 83.2015 7.33680   1
   6  21   7 70.5017 5.79410   1
   7  21   7 72.1346 5.20036   1
   8  21   7 16.2245 12.3977   1
   0  22   7 2.05564 6.85610   1
   1  22   7 13.5326 4.73308   1
   2  22   7 167.456 7.68045   1
   3  22   7 110.480 6.08434   1
   4  22   7 119.449 6.63482   1
   5  22   7 3.83256 5.63891   1
   6  22   7 29.4595 4.95693   1
   7  22   7 231.941 8.23606   1
   8  22   7 17.9825 13.2611   1
   0  23   7 -0.4864 7.56776   1
   1  23   7 588.229 13.6169   1
   2  23   7 15.9253 5.07609   1
   3  23   7 64.6221 6.12618   1
   4  23   7 40.6200 5.34728   1
   5  23   7 22.2114 6.11913   1
   6  23   7 100.094 6.72418   1
   7  23   7 22.1063 4.99503   1
   8  23   7 92.4559 16.5353   1
   0  24   7 96.6643 11.1302   1
   1  24   7 15.2467 5.08776   1
   2  24   7 15.3691 5.21710   1
   3  24   7 518.311 15.6748   1
   4  24   7 92.4979 7.15138   1
   5  24   7 91.8980 7.88781   1
   6  24   7 85.6227 8.31118   1
   7  24   7 88.0100 7.91253   1
   0  25   7 -2.7953 8.28242   1
   1  25   7 96.0768 7.19092   1
   2  25   7 96.9466 6.78678   1
   3  25   7 154.196 9.64445   1
   4  25   7 147.695 11.5806   1
   5  25   7 69.6195 14.8904   1
   6  25   7 118.237 18.1358   1
   7  25   7 33.5340 16.4743   1
   0  26   7 13.1101 9.15881   1
   1  26   7 13.0191 5.85750   1
   2  26   7 0.38974 5.54372   1
   3  26   7 53.9110 9.14884   1
   4  26   7 462.154 19.3922   1
   5  26   7 166.675 21.0264   1
   7  26   7 66.9236 16.7395   1
   0  27   7 -0.3160 10.9769   1
   1  27   7 111.702 10.8106   1
   2  27   7 76.2464 11.2861   1
   3  27   7 33.2834 8.84644   1
   4  27   7 540.311 21.2953   1
   0  28   7 31.4441 12.3644   1
   1  28   7 20.2192 11.1347   1
   3  28   7 213.401 19.1417   1
   4  28   7 85.6307 10.7416   1
   0  29   7 -19.377 18.3036   1
   1  29   7 202.378 20.6991   1
   1  30   7 35.2015 24.3593   1
   1   0   8 164.996 5.73885  -3
   1   0   8 164.996 5.73885   1
   1   0   8 175.394 6.75962  -3
   1   0   8 175.394 6.75962  -2
   1   0   8 175.394 6.75962   1
   3   0   8 211.626 6.12463  -3
   3   0   8 211.626 6.12463   1
   3   0   8 203.460 10.2410  -2
   3   0   8 203.460 10.2410   1
   3   0   8 205.596 11.9486  -3
   3   0   8 205.596 11.9486  -2
   3   0   8 205.596 11.9486   1
   5   0   8 434.423 13.3134  -3
   5   0   8 434.423 13.3134   1
   5   0   8 391.168 24.2926  -2
   5   0   8 391.168 24.2926   1
   6   0   8 1352.17 41.4618  -3
   6   0   8 1352.17 41.4618   1
   6   0   8 1117.04 59.2196  -2
   6   0   8 1117.04 59.2196   1
   8   0   8 370.243 23.5513  -2
   8   0   8 370.243 23.5513   1
   9   0   8 289.755 13.3383   1
  10   0   8 86.3604 11.2648   1
   0   1   8 -3.6824 7.67624   1
   1   1   8 268.793 4.98908  -3
   1   1   8 268.793 4.98908   1
   1   1   8 290.994 6.06447  -3
   1   1   8 290.994 6.06447  -2
   1   1   8 290.994 6.06447   1
   2   1   8 622.034 13.6885  -3
   2   1   8 622.034 13.6885  -2
   2   1   8 622.034 13.6885   1
   2   1   8 567.278 8.51854  -3
   2   1   8 567.278 8.51854   1
   3   1   8 1213.50 18.8441  -3
   3   1   8 1213.50 18.8441   1
   3   1   8 1224.03 37.8613  -3
   3   1   8 1224.03 37.8613  -2
   3   1   8 1224.03 37.8613   1
   3   1   8 1192.17 35.9639  -2
   3   1   8 1192.17 35.9639   1
   4   1   8 203.048 8.75861  -2
   4   1   8 203.048 8.75861   1
   4   1   8 201.476 5.83325  -3
   4   1   8 201.476 5.83325   1
   4   1   8 192.392 18.8950  -3
   4   1   8 192.392 18.8950  -2
   4   1   8 192.392 18.8950   1
   5   1   8 47.9717 4.45279  -3
   5   1   8 47.9717 4.45279   1
   5   1   8 43.9258 8.32088  -2
   5   1   8 43.9258 8.32088   1
   6   1   8 1112.29 41.8797  -2
   6   1   8 1112.29 41.8797   1
   6   1   8 1140.19 27.4442  -3
   6   1   8 1140.19 27.4442   1
   7   1   8 92.1833 9.45105  -3
   7   1   8 92.1833 9.45105   1
   7   1   8 83.8255 8.24543  -2
   7   1   8 83.8255 8.24543   1
   8   1   8 300.583 14.1551  -2
   8   1   8 300.583 14.1551   1
   9   1   8 37.6638 9.48434  -2
   9   1   8 37.6638 9.48434   1
  10   2   8 90.1421 14.9717  -3
  10   1   8 90.1421 14.9717  -2
  10   1   8 90.1421 14.9717   1
  11   1   8 37.6137 6.95633   1
   0   2   8 57.8325 6.82647  -3
   0   2   8 57.8325 6.82647   1
   1   2   8 767.225 14.1429  -3
   1   2   8 767.225 14.1429  -2
   1   2   8 767.225 14.1429   1
   1   2   8 727.811 11.7477  -3
   1   2   8 727.811 11.7477   1
   2   2   8 271.873 5.14775  -3
   2   2   8 271.873 5.14775   1
   2   2   8 280.792 8.25296  -3
   2   2   8 280.792 8.25296  -2
   2   2   8 280.792 8.25296   1
   2   2   8 264.279 9.24191  -2
   2   2   8 264.279 9.24191   1
   3   2   8 570.788 10.2316  -3
   3   2   8 570.788 10.2316   1
   3   2   8 607.443 21.1536  -3
   3   2   8 607.443 21.1536  -2
   3   2   8 607.443 21.1536   1
   3   2   8 569.087 15.2804  -2
   3   2   8 569.087 15.2804   1
   4   2   8 1518.49 27.8938  -3
   4   2   8 1518.49 27.8938   1
   4   2   8 1499.22 38.8698  -2
   4   2   8 1499.22 38.8698   1
   4   2   8 1605.12 59.8834  -3
   4   2   8 1605.12 59.8834  -2
   4   2   8 1605.12 59.8834   1
   5   2   8 1489.64 44.3434  -2
   5   2   8 1489.64 44.3434   1
   5   2   8 1562.04 28.7826  -3
   5   2   8 1562.04 28.7826   1
   5   2   8 1450.95 77.0733  -3
   5   2   8 1450.95 77.0733  -2
   5   2   8 1450.95 77.0733   1
   6   2   8 101.853 9.61582  -2
   6   2   8 101.853 9.61582   1
   6   2   8 112.748 5.61630  -3
   6   2   8 112.748 5.61630   1
   7   2   8 141.443 8.13596  -2
   7   2   8 141.443 8.13596   1
   7   2   8 153.061 10.9523  -3
   7   2   8 153.061 10.9523   1
   8   2   8 814.886 25.5275  -2
   8   2   8 814.886 25.5275   1
   9   2   8 81.1159 9.44182  -2
   9   2   8 81.1159 9.44182   1
  10   3   8 200.938 19.8546  -3
  10   2   8 200.938 19.8546  -2
  10   2   8 200.938 19.8546   1
  13   1   8 69.2295 11.9689  -2
  13   2   8 69.2295 11.9689   1
   0   3   8 -3.0777 3.60688   1
   1   3   8 864.983 15.8280  -3
   1   3   8 864.983 15.8280  -2
   1   3   8 864.983 15.8280   1
   1   3   8 803.830 12.3377  -3
   1   3   8 803.830 12.3377   1
   2   3   8 3038.69 46.4609  -3
   2   3   8 3038.69 46.4609   1
   2   3   8 3367.24 56.9012  -3
   2   3   8 3367.24 56.9012  -2
   2   3   8 3367.24 56.9012   1
   2   3   8 3261.69 158.406  -2
   2   3   8 3261.69 158.406   1
   3   3   8 7050.69 356.701  -3
   3   3   8 7050.69 356.701   1
   4   3   8 2660.58 51.5961  -3
   4   3   8 2660.58 51.5961   1
   4   3   8 2803.61 102.315  -3
   4   3   8 2803.61 102.315  -2
   4   3   8 2803.61 102.315   1
   4   3   8 2766.80 98.5597  -2
   4   3   8 2766.80 98.5597   1
   5   3   8 385.820 9.74901  -3
   5   3   8 385.820 9.74901   1
   5   3   8 365.592 16.1654  -2
   5   3   8 365.592 16.1654   1
   6   3   8 692.951 15.0885  -3
   6   3   8 692.951 15.0885   1
   6   3   8 680.652 27.5346  -2
   6   3   8 680.652 27.5346   1
   7   3   8 233.779 11.4708  -3
   7   3   8 233.779 11.4708   1
   7   3   8 230.118 12.8355  -2
   7   3   8 230.118 12.8355   1
   8   3   8 93.4189 8.51844  -2
   8   3   8 93.4189 8.51844   1
   9   4   8 818.142 48.6486  -3
   9   3   8 818.142 48.6486  -2
   9   3   8 818.142 48.6486   1
  10   4   8 -13.561 17.7673  -3
  10   3   8 -13.561 17.7673  -2
  10   3   8 -13.561 17.7673   1
  11   3   8 127.776 12.0887   1
  13   2   8 140.727 16.1123  -2
  13   3   8 140.727 16.1123   1
   3   4   8 3169.60 57.0371  -3
   3   4   8 3169.60 57.0371   1
   3   4   8 3253.34 68.2799  -3
   3   4   8 3253.34 68.2799  -2
   3   4   8 3253.34 68.2799   1
   3   4   8 3196.91 78.7579  -2
   3   4   8 3196.91 78.7579   1
   4   4   8 404.347 8.16564  -3
   4   4   8 404.347 8.16564   1
   4   4   8 397.254 13.7403  -2
   4   4   8 397.254 13.7403   1
   4   4   8 465.152 33.3581  -3
   4   4   8 465.152 33.3581  -2
   4   4   8 465.152 33.3581   1
   5   4   8 773.945 16.6866  -3
   5   4   8 773.945 16.6866   1
   5   4   8 753.933 42.6440  -2
   5   4   8 753.933 42.6440   1
   6   4   8 63.3887 5.72412  -3
   6   4   8 63.3887 5.72412   1
   6   4   8 48.2731 8.98204  -2
   6   4   8 48.2731 8.98204   1
   7   4   8 272.179 19.2293  -2
   7   4   8 272.179 19.2293   1
   7   4   8 301.628 9.40654  -3
   7   4   8 301.628 9.40654   1
   8   4   8 578.132 35.0411  -3
   8   4   8 578.132 35.0411   1
   8   4   8 625.652 26.0431  -2
   8   4   8 625.652 26.0431   1
   9   4   8 671.364 26.3630   1
  10   4   8 70.7059 5.07417   1
  11   4   8 24.1583 6.18859   1
  12   4   8 119.144 11.8321   1
  13   3   8 80.6842 16.4075  -2
  13   4   8 80.6842 16.4075   1
   0   5   8 3.64825 4.74797   1
   1   5   8 1613.94 32.0292  -3
   1   5   8 1613.94 32.0292  -2
   1   5   8 1613.94 32.0292   1
   1   5   8 1506.90 23.9840  -3
   1   5   8 1506.90 23.9840   1
   1   5   8 1476.76 52.4685  -2
   1   5   8 1476.76 52.4685   1
   2   5   8 2310.47 66.0536  -2
   2   5   8 2310.47 66.0536   1
   2   5   8 2381.68 40.6869  -3
   2   5   8 2381.68 40.6869   1
   2   5   8 2474.33 52.8147  -3
   2   5   8 2474.33 52.8147  -2
   2   5   8 2474.33 52.8147   1
   3   5   8 2141.61 53.6043  -2
   3   5   8 2141.61 53.6043   1
   3   5   8 2134.57 31.3303  -3
   3   5   8 2134.57 31.3303   1
   3   5   8 2307.81 49.3963  -3
   3   5   8 2307.81 49.3963  -2
   3   5   8 2307.81 49.3963   1
   4   5   8 2807.49 45.0736  -3
   4   5   8 2807.49 45.0736   1
   4   5   8 2658.17 76.5585  -2
   4   5   8 2658.17 76.5585   1
   5   5   8 312.013 7.44852  -3
   5   5   8 312.013 7.44852   1
   5   5   8 309.481 22.6092  -2
   5   5   8 309.481 22.6092   1
   6   5   8 6.74548 8.77017  -2
   6   5   8 6.74548 8.77017   1
   6   5   8 -12.731 5.46026  -3
   6   5   8 -12.731 5.46026   1
   7   5   8 31.0368 9.13567  -2
   7   5   8 31.0368 9.13567   1
   7   5   8 50.9501 6.61661  -3
   7   5   8 50.9501 6.61661   1
   8   5   8 371.443 12.7726  -2
   8   5   8 371.443 12.7726   1
   8   5   8 354.426 13.0468  -3
   8   5   8 354.426 13.0468   1
   9   5   8 184.438 12.5952  -2
   9   5   8 184.438 12.5952   1
  10   5   8 249.842 9.08994   1
  11   5   8 135.900 10.6634   1
  12   5   8 2.22284 5.65323   1
  13   5   8 120.467 12.4478   1
   0   6   8 1087.04 26.9633  -3
   0   6   8 1087.04 26.9633   1
   0   6   8 1170.46 63.3315  -3
   0   6   8 1170.46 63.3315  -2
   0   6   8 1170.46 63.3315   1
   1   6   8 296.120 8.46590  -3
   1   6   8 296.120 8.46590   1
   1   6   8 316.064 16.2601  -3
   1   6   8 316.064 16.2601  -2
   1   6   8 316.064 16.2601   1
   1   6   8 291.248 14.7832  -2
   1   6   8 291.248 14.7832   1
   2   6   8 2814.81 70.3268  -2
   2   6   8 2814.81 70.3268   1
   2   6   8 2855.31 48.5782  -3
   2   6   8 2855.31 48.5782   1
   2   6   8 3110.84 65.5047  -3
   2   6   8 3110.84 65.5047  -2
   2   6   8 3110.84 65.5047   1
   3   6   8 205.268 5.15501  -3
   3   6   8 205.268 5.15501   1
   3   6   8 211.077 7.00355  -2
   3   6   8 211.077 7.00355   1
   3   6   8 212.432 28.4938  -3
   3   6   8 212.432 28.4938  -2
   3   6   8 212.432 28.4938   1
   4   6   8 3505.93 53.3414  -3
   4   6   8 3505.93 53.3414   1
   4   6   8 3443.55 78.2619  -2
   4   6   8 3443.55 78.2619   1
   5   6   8 114.292 5.38134  -3
   5   6   8 114.292 5.38134   1
   5   6   8 79.3944 20.8249  -2
   5   6   8 79.3944 20.8249   1
   6   6   8 88.9838 6.56735  -3
   6   6   8 88.9838 6.56735   1
   6   6   8 101.705 12.6262  -2
   6   6   8 101.705 12.6262   1
   7   6   8 -7.4317 6.81202  -3
   7   6   8 -7.4317 6.81202   1
   7   6   8 4.87108 7.31729  -2
   7   6   8 4.87108 7.31729   1
   8   6   8 58.0233 9.86508  -2
   8   6   8 58.0233 9.86508   1
   8   6   8 52.6035 11.6083  -3
   8   6   8 52.6035 11.6083   1
   9   6   8 33.7626 9.65737  -2
   9   6   8 33.7626 9.65737   1
  10   6   8 2.20493 3.77456   1
  11   6   8 203.023 9.69799   1
  12   6   8 8.41067 6.35806   1
  13   6   8 324.261 21.9039   1
   0   7   8 -6.0357 4.21071   1
   1   7   8 3121.62 44.6020  -3
   1   7   8 3121.62 44.6020   1
   1   7   8 3128.09 89.1704  -2
   1   7   8 3128.09 89.1704   1
   2   7   8 7198.32 147.484  -3
   2   7   8 7198.32 147.484   1
   2   7   8 7077.49 245.822  -2
   2   7   8 7077.49 245.822   1
   3   7   8 802.333 12.5752  -3
   3   7   8 802.333 12.5752   1
   3   7   8 837.976 20.8319  -2
   3   7   8 837.976 20.8319   1
   4   7   8 445.673 12.3743  -2
   4   7   8 445.673 12.3743   1
   4   7   8 421.480 8.63350  -3
   4   7   8 421.480 8.63350   1
   5   7   8 1178.06 29.3587  -2
   5   7   8 1178.06 29.3587   1
   5   7   8 1209.35 21.9485  -3
   5   7   8 1209.35 21.9485   1
   6   7   8 313.164 13.0527  -2
   6   7   8 313.164 13.0527   1
   6   7   8 316.854 9.95208  -3
   6   7   8 316.854 9.95208   1
   7   7   8 1266.76 28.6244  -3
   7   7   8 1266.76 28.6244   1
   7   7   8 1195.14 26.9790  -2
   7   7   8 1195.14 26.9790   1
   8   7   8 205.857 12.7241  -3
   8   7   8 205.857 12.7241   1
   8   7   8 180.212 25.6240  -2
   8   7   8 180.212 25.6240   1
   9   7   8 98.7961 12.1706  -2
   9   7   8 98.7961 12.1706   1
   9   7   8 119.298 23.3428  -3
   9   7   8 119.298 23.3428   1
  10   7   8 8.88993 5.04538   1
  11   7   8 29.7959 5.35731   1
  12   7   8 80.4838 10.0474   1
   1   8   8 28.3850 5.14361  -3
   1   8   8 28.3850 5.14361   1
   1   8   8 37.0605 8.63128  -2
   1   8   8 37.0605 8.63128   1
   2   8   8 13.7645 7.30110  -2
   2   8   8 13.7645 7.30110   1
   2   8   8 10.7089 4.27725  -3
   2   8   8 10.7089 4.27725   1
   3   8   8 183.332 9.89891  -2
   3   8   8 183.332 9.89891   1
   3   8   8 161.644 5.35775  -3
   3   8   8 161.644 5.35775   1
   4   8   8 1087.97 18.0402  -3
   4   8   8 1087.97 18.0402   1
   4   8   8 1093.73 25.0923  -2
   4   8   8 1093.73 25.0923   1
   5   8   8 61.3896 5.31260  -3
   5   8   8 61.3896 5.31260   1
   5   8   8 105.104 12.5918  -2
   5   8   8 105.104 12.5918   1
   6   8   8 823.516 29.3066  -2
   6   8   8 823.516 29.3066   1
   6   8   8 822.598 17.3414  -3
   6   8   8 822.598 17.3414   1
   7   8   8 921.670 55.5840  -2
   7   8   8 921.670 55.5840   1
   7   8   8 970.790 32.5285  -3
   7   8   8 970.790 32.5285   1
   8   8   8 117.807 15.2466  -3
   8   8   8 117.807 15.2466   1
   8   8   8 66.4969 23.5513  -2
   8   8   8 66.4969 23.5513   1
   9   8   8 141.299 24.6312  -3
   9   8   8 141.299 24.6312   1
   9   8   8 105.678 15.8882  -2
   9   8   8 105.678 15.8882   1
  10   8   8 9.23965 3.50545   1
  11   8   8 64.5557 6.92861   1
  12   8   8 3.08591 4.69424   1
   0   9   8 -5.1201 4.63941   1
   1   9   8 169.567 5.90489  -3
   1   9   8 169.567 5.90489   1
   1   9   8 184.934 15.5663  -2
   1   9   8 184.934 15.5663   1
   2   9   8 200.768 5.86674  -3
   2   9   8 200.768 5.86674   1
   2   9   8 211.124 16.0802  -2
   2   9   8 211.124 16.0802   1
   3   9   8 3522.24 46.4312  -3
   3   9   8 3522.24 46.4312   1
   3   9   8 3506.60 101.998  -2
   3   9   8 3506.60 101.998   1
   4   9   8 29.7456 4.61808  -3
   4   9   8 29.7456 4.61808   1
   4   9   8 37.4653 10.6241  -2
   4   9   8 37.4653 10.6241   1
   5   9   8 62.9290 5.94964  -3
   5   9   8 62.9290 5.94964   1
   5   9   8 73.4840 15.4439  -2
   5   9   8 73.4840 15.4439   1
   6   9   8 328.107 21.9219  -2
   6   9   8 328.107 21.9219   1
   6   9   8 350.493 11.3562  -3
   6   9   8 350.493 11.3562   1
   7   9   8 129.323 11.1398  -3
   7   9   8 129.323 11.1398   1
   7   9   8 179.619 27.4640  -2
   7   9   8 179.619 27.4640   1
   8   9   8 81.6629 5.99993   1
   9   9   8 22.8317 5.03929   1
  10   9   8 85.6297 6.74060   1
  11   9   8 36.4542 6.21988   1
  12   9   8 42.9462 6.81334   1
   0  10   8 877.575 20.3010  -3
   0  10   8 877.575 20.3010   1
   1  10   8 999.818 14.6991  -3
   1  10   8 999.818 14.6991   1
   2  10   8 802.213 12.6641  -3
   2  10   8 802.213 12.6641   1
   3  10   8 126.815 5.70696  -3
   3  10   8 126.815 5.70696   1
   3  10   8 107.345 19.6604  -2
   3  10   8 107.345 19.6604   1
   4  10   8 218.298 6.69119  -3
   4  10   8 218.298 6.69119   1
   5  10   8 237.164 7.97287  -3
   5  10   8 237.164 7.97287   1
   5  10   8 255.210 30.2100  -2
   5  10   8 255.210 30.2100   1
   6  10   8 137.827 10.8160  -3
   6  10   8 137.827 10.8160   1
   6  10   8 162.206 27.5353  -2
   6  10   8 162.206 27.5353   1
   7  10   8 196.147 6.66736   1
   8  10   8 576.558 18.3089   1
   9  10   8 6.71050 4.72704   1
  10  10   8 280.890 10.8292   1
  11  10   8 47.9162 5.47477   1
  12  10   8 132.971 13.7607   1
   0  11   8 -4.5757 4.98699   1
   1  11   8 1695.56 27.1383  -3
   1  11   8 1695.56 27.1383   1
   2  11   8 81.8043 5.51292  -3
   2  11   8 81.8043 5.51292   1
   3  11   8 542.711 10.7528  -3
   3  11   8 542.711 10.7528   1
   4  11   8 979.344 16.6079  -3
   4  11   8 979.344 16.6079   1
   5  11   8 328.048 10.3596  -3
   5  11   8 328.048 10.3596   1
   6  11   8 444.625 25.4338  -3
   6  11   8 444.625 25.4338   1
   7  11   8 810.734 19.0012   1
   8  11   8 175.511 9.60731   1
   9  11   8 19.2614 5.31573   1
  10  11   8 22.1462 5.21343   1
  11  11   8 3.01887 4.66915   1
  12  11   8 97.1157 13.3213   1
   0  12   8 40.6740 9.00218  -3
   0  12   8 40.6740 9.00218   1
   1  12   8 332.232 9.39300  -3
   1  12   8 332.232 9.39300   1
   2  12   8 461.513 10.3693  -3
   2  12   8 461.513 10.3693   1
   3  12   8 953.471 16.0579  -3
   3  12   8 953.471 16.0579   1
   4  12   8 100.763 9.79801  -3
   4  12   8 100.763 9.79801   1
   5  12   8 388.485 17.2896  -3
   5  12   8 388.485 17.2896   1
   6  12   8 1363.71 33.5918   1
   7  12   8 343.274 11.7704   1
   8  12   8 61.0311 5.57788   1
   9  12   8 11.0028 5.35951   1
  10  12   8 65.7532 6.58193   1
  11  12   8 262.910 11.0736   1
  12  12   8 161.883 14.3168   1
   0  13   8 -2.0429 4.87021   1
   1  13   8 26.0436 8.61850  -3
   1  13   8 26.0436 8.61850   1
   2  13   8 567.811 13.5459  -3
   2  13   8 567.811 13.5459   1
   3  13   8 411.286 11.7537  -3
   3  13   8 411.286 11.7537   1
   4  13   8 421.729 17.8608  -3
   4  13   8 421.729 17.8608   1
   5  13   8 95.5794 16.0207  -3
   5  13   8 95.5794 16.0207   1
   6  13   8 572.027 16.8215   1
   7  13   8 247.402 10.1999   1
   8  13   8 3.39031 4.44511   1
   9  13   8 144.738 9.44964   1
  10  13   8 20.6742 5.82697   1
  11  13   8 273.500 14.9984   1
   0  14   8 30.0781 16.2604  -3
   0  14   8 30.0781 16.2604   1
   1  14   8 697.740 17.6591  -3
   1  14   8 697.740 17.6591   1
   2  14   8 161.784 12.6808  -3
   2  14   8 161.784 12.6808   1
   3  14   8 459.750 15.7095  -3
   3  14   8 459.750 15.7095   1
   4  14   8 42.4236 32.2416  -3
   4  14   8 42.4236 32.2416   1
   5  14   8 289.028 8.44182   1
   6  14   8 109.933 5.30132   1
   7  14   8 567.285 16.7208   1
   8  14   8 11.9721 5.00667   1
   9  14   8 57.0473 5.49792   1
  10  14   8 83.9321 7.65295   1
  11  14   8 239.568 20.1990   1
   0  15   8 8.82468 5.26813   1
   1  15   8 370.976 22.1016  -3
   1  15   8 370.976 22.1016   1
   2  15   8 59.1744 21.6489  -3
   2  15   8 59.1744 21.6489   1
   3  15   8 690.091 52.5406  -3
   3  15   8 690.091 52.5406   1
   4  15   8 56.7962 4.49370   1
   5  15   8 435.367 10.8780   1
   6  15   8 517.607 12.2662   1
   7  15   8 11.2132 5.39894   1
   8  15   8 97.3197 7.41452   1
   9  15   8 120.559 7.54152   1
  10  15   8 0.65578 5.74475   1
   0  16   8 1021.96 67.4471  -3
   0  16   8 1021.96 67.4471   1
   1  16   8 59.0517 3.80058   1
   2  16   8 82.9466 4.26587   1
   3  16   8 733.135 12.1372   1
   4  16   8 91.9941 5.30042   1
   5  16   8 204.173 7.60534   1
   6  16   8 68.0960 4.78092   1
   7  16   8 113.607 8.29001   1
   8  16   8 25.2077 5.64966   1
   9  16   8 112.022 7.68960   1
  10  16   8 117.678 9.89701   1
   0  17   8 4.10935 5.21495   1
   1  17   8 488.433 9.20362   1
   2  17   8 413.850 8.82168   1
   3  17   8 118.443 5.30392   1
   4  17   8 343.923 9.54812   1
   5  17   8 146.059 7.34111   1
   6  17   8 1.92286 3.60510   1
   7  17   8 115.379 8.55001   1
   8  17   8 2.12647 5.35032   1
   9  17   8 52.6118 6.33143   1
  10  17   8 297.848 18.3541   1
   0  18   8 202.286 9.43348   1
   1  18   8 34.1037 4.12593   1
   2  18   8 691.638 12.4798   1
   3  18   8 1691.51 27.3774   1
   4  18   8 97.2160 6.19480   1
   5  18   8 33.5176 5.06335   1
   6  18   8 12.5525 4.00304   1
   7  18   8 19.1118 4.30041   1
   8  18   8 19.7438 5.93312   1
   9  18   8 96.1947 7.99225   1
  10  18   8 26.5391 9.50734   1
   0  19   8 -8.9397 5.79585   1
   1  19   8 376.211 8.72061   1
   2  19   8 145.112 6.43199   1
   3  19   8 460.327 9.77506   1
   4  19   8 345.159 9.58245   1
   5  19   8 276.092 10.5205   1
   6  19   8 19.0640 4.29358   1
   7  19   8 184.708 7.73284   1
   8  19   8 18.9840 6.10847   1
   9  19   8 207.521 13.5666   1
  10  19   8 1.85926 7.81687   1
   0  20   8 48.0618 7.36979   1
   1  20   8 92.0319 5.45006   1
   2  20   8 460.609 10.6067   1
   3  20   8 890.279 15.4599   1
   4  20   8 70.4406 5.50430   1
   5  20   8 29.4075 5.78249   1
   6  20   8 1.13364 4.15975   1
   7  20   8 476.325 12.1615   1
   8  20   8 16.4070 6.44241   1
   9  20   8 122.597 23.4377   1
   0  21   8 2.95103 6.21806   1
   1  21   8 63.3385 5.35707   1
   2  21   8 264.484 8.39341   1
   3  21   8 147.282 6.47057   1
   4  21   8 238.817 8.47650   1
   5  21   8 34.7710 6.24417   1
   6  21   8 94.1508 6.20194   1
   7  21   8 160.299 6.79350   1
   8  21   8 5.05751 11.2968   1
   0  22   8 34.8746 7.23521   1
   1  22   8 14.4607 4.79761   1
   2  22   8 222.783 8.36325   1
   3  22   8 22.0440 4.48767   1
   4  22   8 27.9825 4.99284   1
   5  22   8 29.9548 6.09875   1
   6  22   8 14.8438 4.86096   1
   7  22   8 14.1903 4.20146   1
   8  22   8 -1.9579 12.5172   1
   0  23   8 -3.0414 7.87627   1
   1  23   8 457.375 11.7172   1
   2  23   8 83.9000 6.09064   1
   3  23   8 108.525 6.60968   1
   4  23   8 273.014 9.36265   1
   5  23   8 8.71309 5.78449   1
   6  23   8 1.13557 4.80395   1
   7  23   8 122.031 7.37636   1
   8  23   8 87.7096 19.1294   1
   0  24   8 328.344 16.8763   1
   1  24   8 33.1549 5.37642   1
   2  24   8 23.8661 5.25279   1
   3  24   8 249.315 9.02719   1
   4  24   8 281.080 10.4663   1
   5  24   8 14.3938 6.51388   1
   6  24   8 28.7592 7.62789   1
   7  24   8 160.979 9.57882   1
   0  25   8 -5.2281 8.24597   1
   1  25   8 14.6004 5.71848   1
   2  25   8 5.54975 5.32563   1
   3  25   8 1037.23 21.6535   1
   4  25   8 32.2845 8.93033   1
   5  25   8 16.4169 11.9581   1
   6  25   8 241.264 25.0122   1
   7  25   8 62.7053 16.0281   1
   0  26   8 156.652 13.7101   1
   1  26   8 73.3451 7.02539   1
   2  26   8 22.4883 6.54081   1
   3  26   8 40.6472 8.98726   1
   4  26   8 28.3471 8.90622   1
   5  26   8 25.8803 12.8669   1
   7  26   8 29.1067 18.4598   1
   0  27   8 9.54281 11.6071   1
   1  27   8 73.6287 10.2535   1
   2  27   8 19.0287 10.3102   1
   3  27   8 26.2861 8.91179   1
   4  27   8 111.634 11.5740   1
   0  28   8 55.4191 13.7219   1
   1  28   8 96.1343 16.5966   1
   3  28   8 19.5572 16.1593   1
   4  28   8 152.887 13.4368   1
   1  29   8 294.260 23.4664   1
   1   0   9 2.29067 3.35677   1
   2   0   9 7.18592 3.51497   1
   3   0   9 -0.7482 3.84016   1
   4   0   9 0.46903 3.12315   1
   5   0   9 11.3566 4.77867   1
   6   0   9 7.25207 5.25099   1
   7   0   9 8.49276 12.7209   1
   9   0   9 0.73758 9.38632   1
   1   1   9 34.5518 4.47720  -3
   1   1   9 34.5518 4.47720  -2
   1   1   9 34.5518 4.47720   1
   1   1   9 32.2012 3.41619  -3
   1   1   9 32.2012 3.41619   1
   2   1   9 454.740 9.45764  -3
   2   1   9 454.740 9.45764  -2
   2   1   9 454.740 9.45764   1
   2   1   9 422.170 7.20685  -3
   2   1   9 422.170 7.20685   1
   3   1   9 1738.30 50.4097  -2
   3   1   9 1738.30 50.4097   1
   3   1   9 1784.14 32.3903  -3
   3   1   9 1784.14 32.3903   1
   3   1   9 1870.13 48.9615  -3
   3   1   9 1870.13 48.9615  -2
   3   1   9 1870.13 48.9615   1
   4   1   9 155.417 13.0072  -3
   4   1   9 155.417 13.0072  -2
   4   1   9 155.417 13.0072   1
   4   1   9 135.984 3.69047  -3
   4   1   9 135.984 3.69047   1
   4   1   9 139.958 7.88079  -2
   4   1   9 139.958 7.88079   1
   5   1   9 179.557 8.31319  -2
   5   1   9 179.557 8.31319   1
   5   1   9 186.377 6.29261  -3
   5   1   9 186.377 6.29261   1
   5   1   9 172.547 18.5949  -3
   5   1   9 172.547 18.5949  -2
   5   1   9 172.547 18.5949   1
   6   1   9 543.557 13.3119  -3
   6   1   9 543.557 13.3119   1
   6   1   9 504.229 30.2469  -2
   6   1   9 504.229 30.2469   1
   7   1   9 33.7541 8.40535  -2
   7   1   9 33.7541 8.40535   1
   8   1   9 -4.3366 6.62222  -2
   8   1   9 -4.3366 6.62222   1
   9   1   9 72.5896 10.6855  -2
   9   1   9 72.5896 10.6855   1
  10   1   9 58.0723 5.58226   1
  13   1   9 513.231 29.6471   1
   0   2   9 639.880 20.1955  -3
   0   2   9 639.880 20.1955   1
   2   2   9 613.838 10.6995  -3
   2   2   9 613.838 10.6995   1
   2   2   9 665.055 14.9588  -3
   2   2   9 665.055 14.9588  -2
   2   2   9 665.055 14.9588   1
   2   2   9 620.175 31.6440  -2
   2   2   9 620.175 31.6440   1
   3   2   9 62.1658 3.11280  -3
   3   2   9 62.1658 3.11280   1
   3   2   9 78.2550 5.99945  -2
   3   2   9 78.2550 5.99945   1
   3   2   9 77.8823 10.2660  -3
   3   2   9 77.8823 10.2660  -2
   3   2   9 77.8823 10.2660   1
   4   2   9 2329.25 37.4536  -3
   4   2   9 2329.25 37.4536   1
   4   2   9 2438.76 72.9043  -3
   4   2   9 2438.76 72.9043  -2
   4   2   9 2438.76 72.9043   1
   4   2   9 2274.29 67.0232  -2
   4   2   9 2274.29 67.0232   1
   5   2   9 63.5338 6.84426  -2
   5   2   9 63.5338 6.84426   1
   5   2   9 62.1570 5.33686  -3
   5   2   9 62.1570 5.33686   1
   5   2   9 66.4540 16.8330  -3
   5   2   9 66.4540 16.8330  -2
   5   2   9 66.4540 16.8330   1
   6   2   9 651.287 15.4350  -3
   6   2   9 651.287 15.4350   1
   7   2   9 26.3288 8.22224  -2
   7   2   9 26.3288 8.22224   1
   7   2   9 49.8375 9.73012  -3
   7   2   9 49.8375 9.73012   1
   8   2   9 26.4824 6.86550  -2
   8   2   9 26.4824 6.86550   1
   9   2   9 7.53071 9.69707  -2
   9   2   9 7.53071 9.69707   1
  10   3   9 864.214 49.1635  -3
  10   2   9 864.214 49.1635  -2
  10   2   9 864.214 49.1635   1
  13   2   9 8.19108 7.51191   1
   0   3   9 0.79269 3.71782   1
   1   3   9 863.988 13.2213  -3
   1   3   9 863.988 13.2213   1
   1   3   9 945.827 17.1166  -3
   1   3   9 945.827 17.1166  -2
   1   3   9 945.827 17.1166   1
   2   3   9 8.03517 3.72081  -3
   2   3   9 8.03517 3.72081   1
   2   3   9 14.5934 6.59188  -2
   2   3   9 14.5934 6.59188   1
   2   3   9 5.47132 6.02442  -3
   2   3   9 5.47132 6.02442  -2
   2   3   9 5.47132 6.02442   1
   3   3   9 112.175 3.52425  -3
   3   3   9 112.175 3.52425   1
   3   3   9 108.451 7.87173  -3
   3   3   9 108.451 7.87173  -2
   3   3   9 108.451 7.87173   1
   3   3   9 112.446 7.12852  -2
   3   3   9 112.446 7.12852   1
   4   3   9 2449.92 35.7540  -3
   4   3   9 2449.92 35.7540   1
   4   3   9 2520.92 75.5106  -3
   4   3   9 2520.92 75.5106  -2
   4   3   9 2520.92 75.5106   1
   5   3   9 2399.96 61.4087  -2
   5   3   9 2399.96 61.4087   1
   5   3   9 2515.56 49.0102  -3
   5   3   9 2515.56 49.0102   1
   6   3   9 341.076 9.29557  -3
   6   3   9 341.076 9.29557   1
   6   3   9 312.303 15.1795  -2
   6   3   9 312.303 15.1795   1
   7   3   9 242.547 13.7830  -2
   7   3   9 242.547 13.7830   1
   7   3   9 251.477 15.1174  -3
   7   3   9 251.477 15.1174   1
   8   3   9 141.329 10.7570  -2
   8   3   9 141.329 10.7570   1
   9   3   9 6.47461 10.3169  -2
   9   3   9 6.47461 10.3169   1
  10   4   9 140.619 22.5026  -3
  10   3   9 140.619 22.5026  -2
  10   3   9 140.619 22.5026   1
  11   3   9 93.5637 7.68243   1
  13   2   9 -9.8380 13.6211  -2
  13   3   9 -9.8380 13.6211   1
   0   4   9 294.948 13.8672  -3
   0   4   9 294.948 13.8672   1
   1   4   9 224.707 7.98029  -3
   1   4   9 224.707 7.98029  -2
   1   4   9 224.707 7.98029   1
   1   4   9 207.851 6.06715  -3
   1   4   9 207.851 6.06715   1
   2   4   9 323.666 8.82400  -3
   2   4   9 323.666 8.82400  -2
   2   4   9 323.666 8.82400   1
   2   4   9 296.344 7.47892  -3
   2   4   9 296.344 7.47892   1
   2   4   9 322.616 12.0849  -2
   2   4   9 322.616 12.0849   1
   3   4   9 732.383 11.2469  -3
   3   4   9 732.383 11.2469   1
   3   4   9 772.230 18.9852  -3
   3   4   9 772.230 18.9852  -2
   3   4   9 772.230 18.9852   1
   3   4   9 722.923 22.4497  -2
   3   4   9 722.923 22.4497   1
   4   4   9 114.967 3.78195  -3
   4   4   9 114.967 3.78195   1
   4   4   9 121.957 14.3829  -3
   4   4   9 121.957 14.3829  -2
   4   4   9 121.957 14.3829   1
   4   4   9 112.253 6.10861  -2
   4   4   9 112.253 6.10861   1
   5   4   9 125.444 4.74134  -3
   5   4   9 125.444 4.74134   1
   5   4   9 121.797 16.2335  -2
   5   4   9 121.797 16.2335   1
   6   4   9 15.7801 5.57005  -3
   6   4   9 15.7801 5.57005   1
   6   4   9 9.34386 12.3099  -2
   6   4   9 9.34386 12.3099   1
   7   4   9 569.566 14.4110  -3
   7   4   9 569.566 14.4110   1
   7   4   9 545.666 23.7382  -2
   7   4   9 545.666 23.7382   1
   8   4   9 11.0646 8.21369  -2
   8   4   9 11.0646 8.21369   1
   8   4   9 19.3271 12.9265  -3
   8   4   9 19.3271 12.9265   1
   9   5   9 554.689 38.7093  -3
   9   4   9 554.689 38.7093  -2
   9   4   9 554.689 38.7093   1
  10   5   9 -30.713 22.4431  -3
  10   4   9 -30.713 22.4431  -2
  10   4   9 -30.713 22.4431   1
  11   4   9 382.668 13.9022   1
  12   4   9 57.8373 10.6009   1
  13   3   9 13.5089 15.9604  -2
  13   4   9 13.5089 15.9604   1
   0   5   9 -0.6141 3.66550   1
   1   5   9 822.865 13.5637  -3
   1   5   9 822.865 13.5637   1
   1   5   9 872.774 22.6686  -3
   1   5   9 872.774 22.6686  -2
   1   5   9 872.774 22.6686   1
   2   5   9 928.170 16.0968  -3
   2   5   9 928.170 16.0968   1
   2   5   9 925.112 28.1702  -2
   2   5   9 925.112 28.1702   1
   2   5   9 957.067 21.0025  -3
   2   5   9 957.067 21.0025  -2
   2   5   9 957.067 21.0025   1
   3   5   9 435.558 14.4333  -2
   3   5   9 435.558 14.4333   1
   3   5   9 424.626 7.50442  -3
   3   5   9 424.626 7.50442   1
   3   5   9 479.223 17.5502  -3
   3   5   9 479.223 17.5502  -2
   3   5   9 479.223 17.5502   1
   4   5   9 98.4298 4.46719  -3
   4   5   9 98.4298 4.46719   1
   4   5   9 112.047 6.94826  -2
   4   5   9 112.047 6.94826   1
   5   5   9 252.851 6.29489  -3
   5   5   9 252.851 6.29489   1
   5   5   9 240.453 13.2244  -2
   5   5   9 240.453 13.2244   1
   6   5   9 121.052 6.77685  -3
   6   5   9 121.052 6.77685   1
   6   5   9 109.156 10.1862  -2
   6   5   9 109.156 10.1862   1
   7   5   9 21.4988 9.55952  -2
   7   5   9 21.4988 9.55952   1
   7   5   9 19.3602 6.61970  -3
   7   5   9 19.3602 6.61970   1
   8   5   9 440.036 17.4205  -3
   8   5   9 440.036 17.4205   1
   8   5   9 403.363 15.7861  -2
   8   5   9 403.363 15.7861   1
   9   5   9 36.8022 19.8605  -2
   9   5   9 36.8022 19.8605   1
  10   5   9 -0.9746 5.42656   1
  11   5   9 605.023 20.2578   1
  12   5   9 71.4416 10.9463   1
  13   5   9 108.199 12.4367   1
   0   6   9 194.522 23.6932  -3
   0   6   9 194.522 23.6932  -2
   0   6   9 194.522 23.6932   1
   0   6   9 133.997 8.96708  -3
   0   6   9 133.997 8.96708   1
   1   6   9 1586.00 26.6313  -3
   1   6   9 1586.00 26.6313   1
   1   6   9 1573.26 46.1913  -2
   1   6   9 1573.26 46.1913   1
   1   6   9 1798.99 67.5866  -3
   1   6   9 1798.99 67.5866  -2
   1   6   9 1798.99 67.5866   1
   2   6   9 5889.70 121.662  -3
   2   6   9 5889.70 121.662   1
   2   6   9 5540.45 273.136  -2
   2   6   9 5540.45 273.136   1
   2   6   9 5896.73 122.697  -3
   2   6   9 5896.73 122.697  -2
   2   6   9 5896.73 122.697   1
   3   6   9 8113.99 411.655  -3
   3   6   9 8113.99 411.655  -2
   3   6   9 8113.99 411.655   1
   3   6   9 8240.85 295.225  -2
   3   6   9 8240.85 295.225   1
   3   6   9 8141.45 286.588  -3
   3   6   9 8141.45 286.588   1
   4   6   9 170.772 5.48650  -3
   4   6   9 170.772 5.48650   1
   4   6   9 196.030 13.5188  -2
   4   6   9 196.030 13.5188   1
   5   6   9 1543.10 25.6714  -3
   5   6   9 1543.10 25.6714   1
   5   6   9 1217.38 46.3528  -2
   5   6   9 1217.38 46.3528   1
   6   6   9 61.8669 6.63485  -3
   6   6   9 61.8669 6.63485   1
   6   6   9 78.0002 9.31455  -2
   6   6   9 78.0002 9.31455   1
   7   6   9 545.783 14.7025  -3
   7   6   9 545.783 14.7025   1
   7   6   9 504.146 17.1864  -2
   7   6   9 504.146 17.1864   1
   8   6   9 67.3282 12.6727  -3
   8   6   9 67.3282 12.6727   1
   8   6   9 72.1811 9.85274  -2
   8   6   9 72.1811 9.85274   1
   9   6   9 188.224 18.4994  -3
   9   6   9 188.224 18.4994   1
   9   6   9 214.146 25.1378  -2
   9   6   9 214.146 25.1378   1
  10   6   9 27.8114 5.53681   1
  11   6   9 19.7683 5.00072   1
  12   6   9 76.7909 8.75143   1
   0   7   9 -4.5795 4.11328   1
   1   7   9 427.818 8.51085  -3
   1   7   9 427.818 8.51085   1
   1   7   9 418.002 13.9054  -2
   1   7   9 418.002 13.9054   1
   2   7   9 214.638 8.72500  -2
   2   7   9 214.638 8.72500   1
   2   7   9 198.060 5.65702  -3
   2   7   9 198.060 5.65702   1
   3   7   9 712.367 11.4826  -3
   3   7   9 712.367 11.4826   1
   3   7   9 745.266 18.8630  -2
   3   7   9 745.266 18.8630   1
   4   7   9 126.651 5.35416  -3
   4   7   9 126.651 5.35416   1
   4   7   9 133.007 8.03478  -2
   4   7   9 133.007 8.03478   1
   5   7   9 381.217 14.0310  -2
   5   7   9 381.217 14.0310   1
   5   7   9 412.051 9.04547  -3
   5   7   9 412.051 9.04547   1
   6   7   9 32.8074 6.87236  -3
   6   7   9 32.8074 6.87236   1
   6   7   9 37.7496 9.53211  -2
   6   7   9 37.7496 9.53211   1
   7   7   9 42.3428 8.16543  -2
   7   7   9 42.3428 8.16543   1
   7   7   9 36.1496 8.49103  -3
   7   7   9 36.1496 8.49103   1
   8   7   9 1272.72 50.1080  -3
   8   7   9 1272.72 50.1080   1
   8   7   9 1166.83 66.8141  -2
   8   7   9 1166.83 66.8141   1
   9   7   9 331.896 29.9264  -3
   9   7   9 331.896 29.9264   1
   9   7   9 313.577 29.9341  -2
   9   7   9 313.577 29.9341   1
  10   7   9 301.811 10.1808   1
  11   7   9 16.5142 5.19605   1
  12   7   9 11.5486 4.77893   1
   0   8   9 2805.64 48.7873  -3
   0   8   9 2805.64 48.7873   1
   0   8   9 2650.47 133.869  -2
   0   8   9 2650.47 133.869   1
   1   8   9 225.386 16.3020  -2
   1   8   9 225.386 16.3020   1
   1   8   9 202.049 5.57128  -3
   1   8   9 202.049 5.57128   1
   2   8   9 404.944 16.5564  -2
   2   8   9 404.944 16.5564   1
   2   8   9 399.738 7.38646  -3
   2   8   9 399.738 7.38646   1
   3   8   9 5579.83 138.418  -2
   3   8   9 5579.83 138.418   1
   3   8   9 5486.89 83.3785  -3
   3   8   9 5486.89 83.3785   1
   4   8   9 672.629 12.2883  -3
   4   8   9 672.629 12.2883   1
   4   8   9 656.422 17.8170  -2
   4   8   9 656.422 17.8170   1
   5   8   9 740.901 13.9862  -3
   5   8   9 740.901 13.9862   1
   5   8   9 746.400 18.1981  -2
   5   8   9 746.400 18.1981   1
   6   8   9 -0.0113 6.56855  -3
   6   8   9 -0.0113 6.56855   1
   6   8   9 -9.4293 11.8861  -2
   6   8   9 -9.4293 11.8861   1
   7   8   9 63.3436 11.3381  -3
   7   8   9 63.3436 11.3381   1
   7   8   9 99.5510 23.7052  -2
   7   8   9 99.5510 23.7052   1
   8   8   9 660.705 44.4912  -3
   8   8   9 660.705 44.4912   1
   8   8   9 635.158 43.2224  -2
   8   8   9 635.158 43.2224   1
   9   8   9 922.834 55.7719  -2
   9   8   9 922.834 55.7719   1
   9   8   9 925.703 56.5231  -3
   9   8   9 925.703 56.5231   1
  10   8   9 47.3407 5.31908   1
  11   8   9 19.4755 5.54566   1
  12   8   9 68.8132 7.03166   1
   0   9   9 -2.0140 5.39108   1
   1   9   9 1029.83 14.4537  -3
   1   9   9 1029.83 14.4537   1
   1   9   9 1017.39 54.8155  -2
   1   9   9 1017.39 54.8155   1
   2   9   9 20.6151 4.78433  -3
   2   9   9 20.6151 4.78433   1
   2   9   9 19.3545 13.0042  -2
   2   9   9 19.3545 13.0042   1
   3   9   9 2461.82 33.0253  -3
   3   9   9 2461.82 33.0253   1
   3   9   9 2441.66 72.4142  -2
   3   9   9 2441.66 72.4142   1
   4   9   9 1583.93 48.4028  -2
   4   9   9 1583.93 48.4028   1
   4   9   9 1576.12 24.3638  -3
   4   9   9 1576.12 24.3638   1
   5   9   9 515.568 11.0048  -3
   5   9   9 515.568 11.0048   1
   5   9   9 555.618 28.8611  -2
   5   9   9 555.618 28.8611   1
   6   9   9 148.885 7.80966  -3
   6   9   9 148.885 7.80966   1
   6   9   9 175.042 18.6307  -2
   6   9   9 175.042 18.6307   1
   7   9   9 364.663 32.5286  -2
   7   9   9 364.663 32.5286   1
   7   9   9 355.833 21.3252  -3
   7   9   9 355.833 21.3252   1
   8   9   9 27.8023 24.8988  -2
   8   9   9 27.8023 24.8988   1
   9   9   9 37.6646 5.42372   1
  10   9   9 169.903 8.67158   1
  11   9   9 22.4556 4.63708   1
  12   9   9 66.6399 8.98401   1
   0  10   9 450.120 13.2349  -3
   0  10   9 450.120 13.2349   1
   1  10   9 51.7982 5.42725  -3
   1  10   9 51.7982 5.42725   1
   2  10   9 310.833 7.15173  -3
   2  10   9 310.833 7.15173   1
   3  10   9 74.5926 5.12748  -3
   3  10   9 74.5926 5.12748   1
   3  10   9 60.1818 19.0389  -2
   3  10   9 60.1818 19.0389   1
   4  10   9 567.122 10.2002  -3
   4  10   9 567.122 10.2002   1
   4  10   9 542.530 40.6842  -2
   4  10   9 542.530 40.6842   1
   5  10   9 139.353 7.17419  -3
   5  10   9 139.353 7.17419   1
   5  10   9 137.021 26.8809  -2
   5  10   9 137.021 26.8809   1
   6  10   9 33.0670 9.64337  -3
   6  10   9 33.0670 9.64337   1
   6  10   9 31.6393 24.1220  -2
   6  10   9 31.6393 24.1220   1
   7  10   9 62.2726 3.81015   1
   8  10   9 166.539 28.9798  -2
   8  10   9 166.539 28.9798   1
   9  10   9 12.5960 5.11929   1
  10  10   9 3.73973 4.56374   1
  11  10   9 7.11924 4.70959   1
  12  10   9 36.9451 9.41624   1
   0  11   9 -1.1393 5.25273   1
   1  11   9 2326.01 32.9938  -3
   1  11   9 2326.01 32.9938   1
   2  11   9 2417.80 31.9121  -3
   2  11   9 2417.80 31.9121   1
   3  11   9 320.962 8.38365  -3
   3  11   9 320.962 8.38365   1
   4  11   9 742.081 13.5795  -3
   4  11   9 742.081 13.5795   1
   5  11   9 914.405 17.4188  -3
   5  11   9 914.405 17.4188   1
   5  11   9 822.022 54.3528  -2
   5  11   9 822.022 54.3528   1
   6  11   9 46.0230 16.6422  -3
   6  11   9 46.0230 16.6422   1
   7  11   9 189.275 7.28405   1
   8  11   9 273.252 9.67192   1
   9  11   9 23.0306 5.34695   1
  10  11   9 170.842 9.19147   1
  11  11   9 25.6833 5.32289   1
  12  11   9 -3.2852 5.20741   1
   0  12   9 948.350 24.1606  -3
   0  12   9 948.350 24.1606   1
   1  12   9 228.999 10.0162  -3
   1  12   9 228.999 10.0162   1
   2  12   9 22.9826 5.91199  -3
   2  12   9 22.9826 5.91199   1
   3  12   9 221.642 7.65665  -3
   3  12   9 221.642 7.65665   1
   4  12   9 156.153 9.45157  -3
   4  12   9 156.153 9.45157   1
   5  12   9 1475.13 40.8324  -3
   5  12   9 1475.13 40.8324   1
   6  12   9 602.448 17.2976   1
   7  12   9 271.508 10.3981   1
   8  12   9 104.863 6.72159   1
   9  12   9 167.188 9.65964   1
  10  12   9 39.3675 6.13242   1
  11  12   9 309.942 12.1294   1
  12  12   9 134.276 14.1802   1
   0  13   9 3.12457 5.55273   1
   1  13   9 96.8674 9.27771  -3
   1  13   9 96.8674 9.27771   1
   2  13   9 45.2126 7.23035  -3
   2  13   9 45.2126 7.23035   1
   3  13   9 139.825 9.44382  -3
   3  13   9 139.825 9.44382   1
   4  13   9 1654.07 46.2376  -3
   4  13   9 1654.07 46.2376   1
   5  13   9 738.231 36.0282  -3
   5  13   9 738.231 36.0282   1
   6  13   9 91.2669 4.64290   1
   7  13   9 19.1737 5.24591   1
   8  13   9 69.7965 6.06280   1
   9  13   9 146.613 9.52753   1
  10  13   9 28.0592 5.94552   1
  11  13   9 446.135 20.6734   1
   0  14   9 201.027 16.2792  -3
   0  14   9 201.027 16.2792   1
   1  14   9 930.393 21.4300  -3
   1  14   9 930.393 21.4300   1
   2  14   9 -1.9456 9.76609  -3
   2  14   9 -1.9456 9.76609   1
   3  14   9 1230.19 27.2200  -3
   3  14   9 1230.19 27.2200   1
   4  14   9 590.502 47.6172  -3
   4  14   9 590.502 47.6172   1
   5  14   9 57.5710 4.69087   1
   6  14   9 1456.90 29.6248   1
   7  14   9 33.4050 5.78247   1
   8  14   9 552.148 16.3030   1
   9  14   9 44.5410 5.42998   1
  10  14   9 54.4524 7.04676   1
   0  15   9 -2.4865 5.78184   1
   1  15   9 173.001 14.5235  -3
   1  15   9 173.001 14.5235   1
   2  15   9 32.8848 15.2544  -3
   2  15   9 32.8848 15.2544   1
   3  15   9 89.3860 34.7594  -3
   3  15   9 89.3860 34.7594   1
   4  15   9 528.973 11.2890   1
   5  15   9 135.173 6.56386   1
   6  15   9 137.125 5.30224   1
   7  15   9 53.5127 6.56930   1
   8  15   9 124.063 8.05876   1
   9  15   9 197.161 9.26983   1
  10  15   9 12.0921 6.03725   1
   0  16   9 9999.99 361.068  -3
   0  16   9 9999.99 361.068   1
   1  16   9 307.462 39.1799  -3
   1  16   9 307.462 39.1799   1
   2  16   9 1101.77 71.2677  -3
   2  16   9 1101.77 71.2677   1
   3  16   9 79.2365 4.38223   1
   4  16   9 225.645 7.45434   1
   5  16   9 267.262 9.15388   1
   6  16   9 32.9679 3.94693   1
   7  16   9 8.08209 5.61256   1
   8  16   9 49.6750 6.46140   1
   9  16   9 436.245 14.0485   1
  10  16   9 31.2457 9.48613   1
   0  17   9 5.01530 5.14694   1
   1  17   9 49.8989 4.04817   1
   2  17   9 789.880 13.0079   1
   3  17   9 62.1338 4.34550   1
   4  17   9 43.6534 4.83694   1
   5  17   9 585.039 14.6943   1
   6  17   9 13.3624 3.83911   1
   7  17   9 16.9444 5.88711   1
   8  17   9 17.6090 5.85389   1
   9  17   9 115.783 8.21051   1
  10  17   9 65.4191 10.0345   1
   0  18   9 164.667 8.63294   1
   1  18   9 157.806 6.17376   1
   2  18   9 21.3123 4.01683   1
   3  18   9 1282.39 20.6729   1
   4  18   9 1287.21 25.7247   1
   5  18   9 37.5994 5.33430   1
   6  18   9 590.917 14.2656   1
   7  18   9 49.3591 4.49658   1
   8  18   9 71.9102 7.45462   1
   9  18   9 35.5874 6.32524   1
  10  18   9 -4.2590 8.12537   1
   0  19   9 7.04912 6.35080   1
   1  19   9 151.523 6.32188   1
   2  19   9 190.040 7.09103   1
   3  19   9 14.0930 3.77051   1
   4  19   9 19.8167 4.88226   1
   5  19   9 12.4027 5.23103   1
   6  19   9 65.1360 5.27135   1
   7  19   9 127.703 6.65462   1
   8  19   9 13.5457 6.12125   1
   9  19   9 90.7867 11.2821   1
   0  20   9 0.53432 6.31418   1
   1  20   9 1.31724 4.10051   1
   2  20   9 4230.69 65.1332   1
   3  20   9 406.243 9.21175   1
   4  20   9 68.6224 6.13606   1
   5  20   9 164.145 9.09104   1
   6  20   9 24.6496 4.65005   1
   7  20   9 97.0839 5.44827   1
   8  20   9 8.21023 6.23188   1
   0  21   9 -0.0245 6.53714   1
   1  21   9 75.8420 5.99234   1
   2  21   9 286.268 8.75873   1
   3  21   9 425.546 9.95691   1
   4  21   9 1145.65 22.2649   1
   5  21   9 8.75877 5.68863   1
   6  21   9 13.4427 4.57473   1
   7  21   9 294.784 9.24087   1
   8  21   9 67.7383 14.1903   1
   0  22   9 32.0050 7.74859   1
   1  22   9 70.2141 5.95888   1
   2  22   9 498.735 12.2250   1
   3  22   9 275.021 8.76961   1
   4  22   9 358.971 10.3673   1
   5  22   9 61.6281 7.03079   1
   6  22   9 72.7915 5.88037   1
   7  22   9 72.0148 5.75859   1
   8  22   9 23.5059 12.3577   1
   0  23   9 2.52677 7.88861   1
   1  23   9 69.9766 6.15801   1
   2  23   9 37.9180 5.41440   1
   3  23   9 451.577 11.8747   1
   4  23   9 144.812 7.90924   1
   5  23   9 34.9459 6.71154   1
   6  23   9 8.08183 5.78366   1
   7  23   9 41.0364 5.72399   1
   8  23   9 11.0308 17.9391   1
   0  24   9 124.433 12.2617   1
   1  24   9 87.2459 7.05113   1
   2  24   9 640.711 14.6028   1
   3  24   9 130.522 7.44854   1
   4  24   9 8.18260 5.38298   1
   5  24   9 169.052 14.8804   1
   6  24   9 32.7473 9.36147   1
   7  24   9 11.8626 7.62924   1
   0  25   9 -4.0905 8.66780   1
   1  25   9 63.5955 7.21421   1
   2  25   9 0.90900 5.31319   1
   3  25   9 142.207 7.69789   1
   4  25   9 151.833 12.3683   1
   5  25   9 521.030 30.8785   1
   6  25   9 163.926 20.8249   1
   7  25   9 99.5936 17.4855   1
   0  26   9 70.6029 10.9595   1
   1  26   9 157.374 11.1528   1
   2  26   9 11.2087 7.02330   1
   3  26   9 135.784 12.0509   1
   4  26   9 203.903 13.9344   1
   5  26   9 85.7380 15.5984   1
   7  26   9 46.0880 23.3095   1
   0  27   9 -15.046 11.7306   1
   1  27   9 173.061 13.5045   1
   2  27   9 5.58375 10.4587   1
   3  27   9 54.0700 9.64729   1
   4  27   9 43.4817 9.39722   1
   0  28   9 68.1154 15.1254   1
   1  28   9 16.6484 13.4091   1
   3  28   9 -1.6355 18.6978   1
   4  28   9 57.8366 11.1648   1
   1  29   9 28.8550 13.6154   1
   3   0  10 1303.23 30.5484  -3
   3   0  10 1303.23 30.5484   1
   3   0  10 1411.84 53.5820  -3
   3   0  10 1411.84 53.5820  -2
   3   0  10 1411.84 53.5820   1
   4   0  10 31.5033 3.65334  -3
   4   0  10 31.5033 3.65334   1
   4   0  10 28.6458 6.39822  -2
   4   0  10 28.6458 6.39822   1
   4   0  10 43.3127 15.9779  -3
   4   0  10 43.3127 15.9779  -2
   4   0  10 43.3127 15.9779   1
   5   0  10 1931.11 50.1114  -3
   5   0  10 1931.11 50.1114   1
   5   0  10 1824.69 95.1372  -2
   5   0  10 1824.69 95.1372   1
   6   0  10 500.337 15.4174  -3
   6   0  10 500.337 15.4174   1
   6   0  10 463.830 28.5511  -2
   6   0  10 463.830 28.5511   1
   7   0  10 97.7250 15.2608  -3
   7   0  10 97.7250 15.2608   1
   8   0  10 721.714 41.0162  -2
   8   0  10 721.714 41.0162   1
   1   1  10 124.700 5.37322  -3
   1   1  10 124.700 5.37322  -2
   1   1  10 124.700 5.37322   1
   1   1  10 108.346 4.45912  -3
   1   1  10 108.346 4.45912   1
   2   1  10 1272.45 20.1248  -3
   2   1  10 1272.45 20.1248   1
   2   1  10 1353.68 29.1920  -3
   2   1  10 1353.68 29.1920  -2
   2   1  10 1353.68 29.1920   1
   3   1  10 477.144 8.24204  -3
   3   1  10 477.144 8.24204   1
   3   1  10 518.293 16.9075  -3
   3   1  10 518.293 16.9075  -2
   3   1  10 518.293 16.9075   1
   3   1  10 480.066 18.9046  -2
   3   1  10 480.066 18.9046   1
   4   1  10 100.016 10.0399  -3
   4   1  10 100.016 10.0399  -2
   4   1  10 100.016 10.0399   1
   4   1  10 121.414 3.36117  -3
   4   1  10 121.414 3.36117   1
   4   1  10 132.412 7.84262  -2
   4   1  10 132.412 7.84262   1
   5   1  10 332.365 12.4634  -2
   5   1  10 332.365 12.4634   1
   5   1  10 362.007 26.7247  -3
   5   1  10 362.007 26.7247  -2
   5   1  10 362.007 26.7247   1
   5   1  10 335.708 9.71326  -3
   5   1  10 335.708 9.71326   1
   6   1  10 181.533 6.15325  -3
   6   1  10 181.533 6.15325   1
   6   1  10 136.162 14.5244  -2
   6   1  10 136.162 14.5244   1
   7   1  10 36.0025 9.01616  -2
   7   1  10 36.0025 9.01616   1
   8   1  10 871.690 27.7277  -2
   8   1  10 871.690 27.7277   1
  10   1  10 135.535 13.8078   1
  12   1  10 205.154 16.6013   1
   0   2  10 66.9160 8.92090  -3
   0   2  10 66.9160 8.92090   1
   1   2  10 270.628 8.89299  -3
   1   2  10 270.628 8.89299  -2
   1   2  10 270.628 8.89299   1
   1   2  10 260.439 6.29242  -3
   1   2  10 260.439 6.29242   1
   2   2  10 150.166 7.73560  -3
   2   2  10 150.166 7.73560  -2
   2   2  10 150.166 7.73560   1
   2   2  10 126.576 4.72847  -3
   2   2  10 126.576 4.72847   1
   3   2  10 1007.17 16.1247  -3
   3   2  10 1007.17 16.1247   1
   3   2  10 995.829 49.7842  -2
   3   2  10 995.829 49.7842   1
   3   2  10 1048.22 23.5012  -3
   3   2  10 1048.22 23.5012  -2
   3   2  10 1048.22 23.5012   1
   4   2  10 59.9838 3.21605  -3
   4   2  10 59.9838 3.21605   1
   4   2  10 79.7788 10.0871  -3
   4   2  10 79.7788 10.0871  -2
   4   2  10 79.7788 10.0871   1
   4   2  10 69.0966 7.30569  -2
   4   2  10 69.0966 7.30569   1
   5   2  10 13.6012 3.36839  -3
   5   2  10 13.6012 3.36839   1
   5   2  10 14.6648 6.25592  -2
   5   2  10 14.6648 6.25592   1
   5   2  10 -0.8126 17.1755  -3
   5   2  10 -0.8126 17.1755  -2
   5   2  10 -0.8126 17.1755   1
   6   2  10 846.072 17.8245  -3
   6   2  10 846.072 17.8245   1
   6   2  10 775.091 29.9203  -2
   6   2  10 775.091 29.9203   1
   7   2  10 317.751 16.0626  -2
   7   2  10 317.751 16.0626   1
   7   2  10 289.567 21.9222  -3
   7   2  10 289.567 21.9222   1
   8   2  10 4288.57 125.925  -2
   8   2  10 4288.57 125.925   1
  10   2  10 65.6110 11.3398   1
  11   2  10 380.433 23.4625   1
  13   1  10 95.8319 15.5927  -2
  13   2  10 95.8319 15.5927   1
   0   3  10 -2.1356 3.92387   1
   1   3  10 28.3461 6.43787  -3
   1   3  10 28.3461 6.43787  -2
   1   3  10 28.3461 6.43787   1
   1   3  10 27.9836 3.95003  -3
   1   3  10 27.9836 3.95003   1
   2   3  10 135.411 5.21769  -3
   2   3  10 135.411 5.21769   1
   2   3  10 150.437 7.51610  -3
   2   3  10 150.437 7.51610  -2
   2   3  10 150.437 7.51610   1
   2   3  10 139.133 14.3781  -2
   2   3  10 139.133 14.3781   1
   3   3  10 302.475 13.0064  -3
   3   3  10 302.475 13.0064  -2
   3   3  10 302.475 13.0064   1
   3   3  10 287.406 5.61268  -3
   3   3  10 287.406 5.61268   1
   3   3  10 268.601 12.4240  -2
   3   3  10 268.601 12.4240   1
   4   3  10 175.007 4.46568  -3
   4   3  10 175.007 4.46568   1
   4   3  10 164.786 7.27363  -2
   4   3  10 164.786 7.27363   1
   4   3  10 220.587 13.1415  -3
   4   3  10 220.587 13.1415  -2
   4   3  10 220.587 13.1415   1
   5   3  10 898.555 15.3630  -3
   5   3  10 898.555 15.3630   1
   5   3  10 951.282 53.2324  -3
   5   3  10 951.282 53.2324  -2
   5   3  10 951.282 53.2324   1
   5   3  10 934.700 36.9008  -2
   5   3  10 934.700 36.9008   1
   6   3  10 1104.32 22.9040  -3
   6   3  10 1104.32 22.9040   1
   6   3  10 1044.63 32.4622  -2
   6   3  10 1044.63 32.4622   1
   7   3  10 64.9495 7.88334  -3
   7   3  10 64.9495 7.88334   1
   7   3  10 52.0560 8.26723  -2
   7   3  10 52.0560 8.26723   1
   8   3  10 252.198 14.5161  -2
   8   3  10 252.198 14.5161   1
   9   3  10 22.8802 7.70114  -2
   9   3  10 22.8802 7.70114   1
  10   3  10 82.9816 18.6341  -3
  10   2  10 82.9816 18.6341  -2
  10   3  10 82.9816 18.6341   1
  10   4  10 99.1216 22.3881  -3
  10   3  10 99.1216 22.3881  -2
  10   3  10 99.1216 22.3881   1
  11   3  10 32.8598 6.10207   1
  12   3  10 114.375 12.3050   1
  13   2  10 15.4772 15.3887  -2
  13   3  10 15.4772 15.3887   1
   0   4  10 4538.20 157.000  -3
   0   4  10 4538.20 157.000   1
   1   4  10 3929.62 66.4840  -3
   1   4  10 3929.62 66.4840   1
   1   4  10 4168.52 70.4484  -3
   1   4  10 4168.52 70.4484  -2
   1   4  10 4168.52 70.4484   1
   2   4  10 1392.67 23.1297  -3
   2   4  10 1392.67 23.1297   1
   2   4  10 1493.61 30.6321  -3
   2   4  10 1493.61 30.6321  -2
   2   4  10 1493.61 30.6321   1
   2   4  10 1386.51 69.0040  -2
   2   4  10 1386.51 69.0040   1
   3   4  10 89.5982 3.76581  -3
   3   4  10 89.5982 3.76581   1
   3   4  10 102.320 8.67898  -3
   3   4  10 102.320 8.67898  -2
   3   4  10 102.320 8.67898   1
   3   4  10 86.4666 5.60951  -2
   3   4  10 86.4666 5.60951   1
   4   4  10 849.865 25.7108  -2
   4   4  10 849.865 25.7108   1
   4   4  10 856.233 29.1830  -3
   4   4  10 856.233 29.1830  -2
   4   4  10 856.233 29.1830   1
   4   4  10 883.695 14.6424  -3
   4   4  10 883.695 14.6424   1
   5   4  10 3007.43 48.2127  -3
   5   4  10 3007.43 48.2127   1
   5   4  10 3006.66 154.662  -2
   5   4  10 3006.66 154.662   1
   6   4  10 245.693 8.31357  -3
   6   4  10 245.693 8.31357   1
   6   4  10 225.354 14.9391  -2
   6   4  10 225.354 14.9391   1
   7   4  10 308.746 10.1789  -3
   7   4  10 308.746 10.1789   1
   7   4  10 304.225 16.9393  -2
   7   4  10 304.225 16.9393   1
   8   4  10 425.378 16.6854  -2
   8   4  10 425.378 16.6854   1
   8   4  10 409.883 27.5002  -3
   8   4  10 409.883 27.5002   1
   9   4  10 22.7438 6.92763  -2
   9   4  10 22.7438 6.92763   1
  10   5  10 9.91575 23.4767  -3
  10   4  10 9.91575 23.4767  -2
  10   4  10 9.91575 23.4767   1
  11   4  10 765.396 30.0513   1
  12   4  10 16.4506 5.31072   1
  13   4  10 0.22889 6.78035   1
   0   5  10 2.77550 3.77119   1
   1   5  10 132.547 6.01791  -3
   1   5  10 132.547 6.01791   1
   1   5  10 151.313 10.1115  -3
   1   5  10 151.313 10.1115  -2
   1   5  10 151.313 10.1115   1
   2   5  10 58.0342 7.67164  -3
   2   5  10 58.0342 7.67164  -2
   2   5  10 58.0342 7.67164   1
   2   5  10 31.4876 9.10706  -2
   2   5  10 31.4876 9.10706   1
   2   5  10 52.5912 4.32934  -3
   2   5  10 52.5912 4.32934   1
   3   5  10 390.037 7.21120  -3
   3   5  10 390.037 7.21120   1
   3   5  10 413.719 12.5314  -2
   3   5  10 413.719 12.5314   1
   3   5  10 445.369 13.7418  -3
   3   5  10 445.369 13.7418  -2
   3   5  10 445.369 13.7418   1
   4   5  10 571.866 27.1560  -3
   4   5  10 571.866 27.1560  -2
   4   5  10 571.866 27.1560   1
   4   5  10 552.792 10.1477  -3
   4   5  10 552.792 10.1477   1
   4   5  10 559.903 16.2886  -2
   4   5  10 559.903 16.2886   1
   5   5  10 474.938 9.52423  -3
   5   5  10 474.938 9.52423   1
   5   5  10 433.547 19.3284  -2
   5   5  10 433.547 19.3284   1
   6   5  10 17.3716 6.13732  -3
   6   5  10 17.3716 6.13732   1
   6   5  10 34.1838 15.4389  -2
   6   5  10 34.1838 15.4389   1
   7   5  10 86.7381 7.55484  -3
   7   5  10 86.7381 7.55484   1
   7   5  10 102.415 11.1677  -2
   7   5  10 102.415 11.1677   1
   8   5  10 2048.50 61.8121  -2
   8   5  10 2048.50 61.8121   1
   8   5  10 2050.26 62.4717  -3
   8   5  10 2050.26 62.4717   1
   9   5  10 5.34870 7.50615  -2
   9   5  10 5.34870 7.50615   1
  10   6  10 456.863 36.8621  -3
  10   5  10 456.863 36.8621  -2
  10   5  10 456.863 36.8621   1
  11   5  10 96.1490 8.82677   1
  12   5  10 162.006 15.3691   1
  13   5  10 65.8100 10.4678   1
   0   6  10 2885.10 66.3887  -3
   0   6  10 2885.10 66.3887   1
   0   6  10 3266.85 163.519  -3
   0   6  10 3266.85 163.519  -2
   0   6  10 3266.85 163.519   1
   1   6  10 966.650 18.3701  -3
   1   6  10 966.650 18.3701   1
   1   6  10 1044.73 42.7235  -3
   1   6  10 1044.73 42.7235  -2
   1   6  10 1044.73 42.7235   1
   1   6  10 895.568 24.4366  -2
   1   6  10 895.568 24.4366   1
   2   6  10 35.9442 9.03681  -3
   2   6  10 35.9442 9.03681  -2
   2   6  10 35.9442 9.03681   1
   2   6  10 31.6901 4.29263  -3
   2   6  10 31.6901 4.29263   1
   2   6  10 30.1696 7.98678  -2
   2   6  10 30.1696 7.98678   1
   3   6  10 621.095 14.9222  -2
   3   6  10 621.095 14.9222   1
   3   6  10 622.539 10.2049  -3
   3   6  10 622.539 10.2049   1
   3   6  10 645.323 31.1969  -3
   3   6  10 645.323 31.1969  -2
   3   6  10 645.323 31.1969   1
   4   6  10 41.2353 4.59214  -3
   4   6  10 41.2353 4.59214   1
   4   6  10 48.3954 9.16319  -2
   4   6  10 48.3954 9.16319   1
   4   6  10 48.4427 23.2707  -3
   4   6  10 48.4427 23.2707  -2
   4   6  10 48.4427 23.2707   1
   5   6  10 202.705 6.20736  -3
   5   6  10 202.705 6.20736   1
   5   6  10 189.032 8.30878  -2
   5   6  10 189.032 8.30878   1
   6   6  10 16.3466 6.52462  -3
   6   6  10 16.3466 6.52462   1
   6   6  10 23.3959 9.07609  -2
   6   6  10 23.3959 9.07609   1
   7   6  10 174.580 9.79673  -3
   7   6  10 174.580 9.79673   1
   7   6  10 179.494 9.72758  -2
   7   6  10 179.494 9.72758   1
   8   6  10 24.8359 12.2103  -2
   8   6  10 24.8359 12.2103   1
   8   6  10 8.11023 9.97304  -3
   8   6  10 8.11023 9.97304   1
   9   6  10 126.955 12.5808  -2
   9   6  10 126.955 12.5808   1
  10   6  10 50.3698 21.9212  -2
  10   6  10 50.3698 21.9212   1
  11   6  10 6.27811 4.87861   1
  12   6  10 44.9788 5.73118   1
   0   7  10 5.87444 3.97317   1
   1   7  10 835.737 13.1914  -3
   1   7  10 835.737 13.1914   1
   1   7  10 840.216 23.4927  -2
   1   7  10 840.216 23.4927   1
   2   7  10 4948.99 66.6648  -3
   2   7  10 4948.99 66.6648   1
   2   7  10 4807.23 106.401  -2
   2   7  10 4807.23 106.401   1
   3   7  10 1379.10 20.3412  -3
   3   7  10 1379.10 20.3412   1
   3   7  10 1344.26 32.0948  -2
   3   7  10 1344.26 32.0948   1
   4   7  10 4767.31 107.338  -2
   4   7  10 4767.31 107.338   1
   4   7  10 4934.42 74.8255  -3
   4   7  10 4934.42 74.8255   1
   5   7  10 348.291 8.31439  -3
   5   7  10 348.291 8.31439   1
   5   7  10 347.946 11.7046  -2
   5   7  10 347.946 11.7046   1
   6   7  10 64.2317 7.22874  -3
   6   7  10 64.2317 7.22874   1
   6   7  10 47.6936 10.0466  -2
   6   7  10 47.6936 10.0466   1
   7   7  10 10.2621 10.4135  -3
   7   7  10 10.2621 10.4135   1
   7   7  10 3.57739 10.9506  -2
   7   7  10 3.57739 10.9506   1
   8   7  10 2175.29 80.9972  -2
   8   7  10 2175.29 80.9972   1
   8   7  10 2125.81 113.873  -3
   8   7  10 2125.81 113.873   1
   9   7  10 253.480 27.5005  -3
   9   7  10 253.480 27.5005   1
   9   7  10 288.784 29.0351  -2
   9   7  10 288.784 29.0351   1
  10   7  10 177.543 25.8410  -3
  10   7  10 177.543 25.8410   1
  11   7  10 120.451 8.64649   1
  12   7  10 17.9890 5.26606   1
   1   8  10 743.282 11.5599  -3
   1   8  10 743.282 11.5599   1
   1   8  10 733.852 30.2881  -2
   1   8  10 733.852 30.2881   1
   2   8  10 1683.56 22.3393  -3
   2   8  10 1683.56 22.3393   1
   2   8  10 1636.59 49.5783  -2
   2   8  10 1636.59 49.5783   1
   3   8  10 846.209 13.1969  -3
   3   8  10 846.209 13.1969   1
   3   8  10 842.432 21.4617  -2
   3   8  10 842.432 21.4617   1
   4   8  10 19.5062 4.96144  -3
   4   8  10 19.5062 4.96144   1
   4   8  10 15.8107 6.86420  -2
   4   8  10 15.8107 6.86420   1
   5   8  10 122.136 7.53239  -2
   5   8  10 122.136 7.53239   1
   5   8  10 123.497 6.12005  -3
   5   8  10 123.497 6.12005   1
   6   8  10 39.8979 7.51801  -3
   6   8  10 39.8979 7.51801   1
   6   8  10 66.9079 10.7967  -2
   6   8  10 66.9079 10.7967   1
   7   8  10 91.7205 12.2100  -3
   7   8  10 91.7205 12.2100   1
   7   8  10 62.3303 14.3038  -2
   7   8  10 62.3303 14.3038   1
   8   8  10 58.8064 14.9597  -3
   8   8  10 58.8064 14.9597   1
   8   8  10 60.0897 24.1777  -2
   8   8  10 60.0897 24.1777   1
   9   8  10 72.2687 24.5536  -2
   9   8  10 72.2687 24.5536   1
  10   8  10 144.632 7.93496   1
  11   8  10 85.8635 8.02047   1
  12   8  10 28.1117 6.13943   1
   0   9  10 -1.5019 5.60295   1
   1   9  10 4780.16 63.0700  -3
   1   9  10 4780.16 63.0700   1
   2   9  10 1769.66 23.7936  -3
   2   9  10 1769.66 23.7936   1
   2   9  10 1690.08 61.9753  -2
   2   9  10 1690.08 61.9753   1
   3   9  10 1057.38 14.9745  -3
   3   9  10 1057.38 14.9745   1
   3   9  10 1032.59 29.4920  -2
   3   9  10 1032.59 29.4920   1
   4   9  10 423.844 8.92852  -3
   4   9  10 423.844 8.92852   1
   4   9  10 396.705 15.6398  -2
   4   9  10 396.705 15.6398   1
   5   9  10 17.9385 5.33898  -3
   5   9  10 17.9385 5.33898   1
   5   9  10 14.0045 22.8715  -2
   5   9  10 14.0045 22.8715   1
   6   9  10 432.947 12.7835  -3
   6   9  10 432.947 12.7835   1
   6   9  10 408.581 20.1885  -2
   6   9  10 408.581 20.1885   1
   7   9  10 496.351 26.0144  -3
   7   9  10 496.351 26.0144   1
   7   9  10 415.439 35.4775  -2
   7   9  10 415.439 35.4775   1
   8   9  10 352.627 32.3830  -2
   8   9  10 352.627 32.3830   1
   8   9  10 371.895 33.5422  -3
   8   9  10 371.895 33.5422   1
   9   9  10 154.342 27.4475  -2
   9   9  10 154.342 27.4475   1
  10   9  10 70.2511 6.70764   1
  11   9  10 16.5771 4.83443   1
  12   9  10 4.47155 7.93814   1
   0  10  10 3687.43 72.2190  -3
   0  10  10 3687.43 72.2190   1
   1  10  10 -0.1822 5.54098  -3
   1  10  10 -0.1822 5.54098   1
   2  10  10 105.796 5.60790  -3
   2  10  10 105.796 5.60790   1
   3  10  10 51.0785 14.1378  -2
   3  10  10 51.0785 14.1378   1
   3  10  10 49.7058 5.01389  -3
   3  10  10 49.7058 5.01389   1
   4  10  10 15.2510 4.97709  -3
   4  10  10 15.2510 4.97709   1
   5  10  10 182.877 7.15201  -3
   5  10  10 182.877 7.15201   1
   5  10  10 148.603 18.8477  -2
   5  10  10 148.603 18.8477   1
   6  10  10 648.547 25.3875  -3
   6  10  10 648.547 25.3875   1
   6  10  10 624.372 43.9378  -2
   6  10  10 624.372 43.9378   1
   7  10  10 194.117 16.1036  -3
   7  10  10 194.117 16.1036   1
   7  10  10 250.003 30.2764  -2
   7  10  10 250.003 30.2764   1
   8  10  10 180.009 28.7112  -2
   8  10  10 180.009 28.7112   1
   9  10  10 24.5455 5.61954   1
  10  10  10 251.763 10.7704   1
  11  10  10 53.7160 5.87256   1
  12  10  10 72.5014 11.5836   1
   0  11  10 1.90872 6.03626   1
   1  11  10 558.430 10.7231  -3
   1  11  10 558.430 10.7231   1
   2  11  10 1316.67 19.3740  -3
   2  11  10 1316.67 19.3740   1
   3  11  10 177.959 6.81354  -3
   3  11  10 177.959 6.81354   1
   4  11  10 4581.63 64.7002  -3
   4  11  10 4581.63 64.7002   1
   5  11  10 1014.70 21.1582  -3
   5  11  10 1014.70 21.1582   1
   5  11  10 1002.53 62.8381  -2
   5  11  10 1002.53 62.8381   1
   6  11  10 182.919 20.3724  -3
   6  11  10 182.919 20.3724   1
   7  11  10 133.239 7.66656   1
   8  11  10 14.5220 4.52234   1
   9  11  10 22.1088 5.70527   1
  10  11  10 55.9122 6.36841   1
  11  11  10 22.3673 5.29891   1
  12  11  10 3.99114 7.60263   1
   0  12  10 327.375 13.2684  -3
   0  12  10 327.375 13.2684   1
   1  12  10 296.071 8.95708  -3
   1  12  10 296.071 8.95708   1
   2  12  10 316.696 8.56156  -3
   2  12  10 316.696 8.56156   1
   3  12  10 262.499 8.20045  -3
   3  12  10 262.499 8.20045   1
   4  12  10 134.870 8.44976  -3
   4  12  10 134.870 8.44976   1
   5  12  10 508.917 19.1562  -3
   5  12  10 508.917 19.1562   1
   6  12  10 2.56057 26.7386  -3
   6  12  10 2.56057 26.7386   1
   7  12  10 998.299 25.6938   1
   8  12  10 56.6127 5.60296   1
   9  12  10 55.4895 6.84648   1
  10  12  10 41.8121 6.24966   1
  11  12  10 117.511 8.27641   1
   0  13  10 6.89233 5.09729   1
   1  13  10 326.573 11.6250  -3
   1  13  10 326.573 11.6250   1
   2  13  10 29.3736 8.10753  -3
   2  13  10 29.3736 8.10753   1
   3  13  10 35.2924 8.73160  -3
   3  13  10 35.2924 8.73160   1
   4  13  10 793.838 31.3609  -3
   4  13  10 793.838 31.3609   1
   5  13  10 312.864 24.4819  -3
   5  13  10 312.864 24.4819   1
   6  13  10 1304.70 26.7798   1
   7  13  10 317.685 11.6847   1
   8  13  10 240.221 9.76383   1
   9  13  10 408.471 15.2012   1
  10  13  10 407.111 14.9976   1
  11  13  10 73.6727 9.13305   1
   0  14  10 23.3000 14.1597  -3
   0  14  10 23.3000 14.1597   1
   1  14  10 -7.2897 9.16392  -3
   1  14  10 -7.2897 9.16392   1
   2  14  10 175.485 10.2121  -3
   2  14  10 175.485 10.2121   1
   3  14  10 138.247 13.2077  -3
   3  14  10 138.247 13.2077   1
   4  14  10 1104.57 48.7025  -3
   4  14  10 1104.57 48.7025   1
   5  14  10 61.7072 4.78697   1
   6  14  10 305.698 8.81490   1
   7  14  10 20.3828 5.69769   1
   8  14  10 358.761 12.4119   1
   9  14  10 3.42362 4.51004   1
  10  14  10 72.4494 7.81464   1
   0  15  10 0.20921 5.54817   1
   1  15  10 659.548 22.6682  -3
   1  15  10 659.548 22.6682   1
   2  15  10 242.698 17.9092  -3
   2  15  10 242.698 17.9092   1
   3  15  10 1075.06 69.5765  -3
   3  15  10 1075.06 69.5765   1
   4  15  10 176.749 6.68069   1
   5  15  10 1371.44 26.6119   1
   6  15  10 48.5997 3.82928   1
   7  15  10 63.9802 6.82028   1
   8  15  10 102.112 7.62129   1
   9  15  10 232.403 9.94376   1
  10  15  10 9.87953 6.11926   1
   0  16  10 465.811 25.7493  -3
   0  16  10 465.811 25.7493   1
   1  16  10 634.029 37.0474  -3
   1  16  10 634.029 37.0474   1
   2  16  10 52.6230 32.6763  -3
   2  16  10 52.6230 32.6763   1
   3  16  10 215.963 6.39554   1
   4  16  10 30.2535 4.57820   1
   5  16  10 0.99545 4.31149   1
   6  16  10 885.219 18.0587   1
   7  16  10 172.115 9.64276   1
   8  16  10 22.4687 5.73233   1
   9  16  10 25.3043 5.60578   1
  10  16  10 135.624 23.9064   1
   0  17  10 -12.387 5.39973   1
   1  17  10 117.375 36.9957  -3
   1  17  10 117.375 36.9957   1
   2  17  10 22.1619 3.69752   1
   3  17  10 353.169 8.18046   1
   4  17  10 158.078 7.35863   1
   5  17  10 268.586 9.42647   1
   6  17  10 22.9797 4.01806   1
   7  17  10 246.621 9.07913   1
   8  17  10 19.1329 6.06607   1
   9  17  10 84.2994 7.39499   1
  10  17  10 9.10185 7.51602   1
   0  18  10 2245.69 45.6470   1
   1  18  10 54.2054 4.94698   1
   2  18  10 143.141 5.71444   1
   3  18  10 49.2257 4.29828   1
   4  18  10 140.916 7.35030   1
   5  18  10 56.2849 5.82889   1
   6  18  10 50.0982 4.77316   1
   7  18  10 24.4069 4.03681   1
   8  18  10 32.6396 6.50616   1
   9  18  10 69.8088 9.30841   1
  10  18  10 44.9250 10.9259   1
   0  19  10 6.08038 6.40898   1
   1  19  10 185.517 7.12158   1
   2  19  10 34.1636 4.27640   1
   3  19  10 78.6571 4.90417   1
   4  19  10 215.501 8.62384   1
   5  19  10 10.1017 5.20018   1
   6  19  10 37.1202 4.73483   1
   7  19  10 456.100 12.0156   1
   8  19  10 182.612 10.5805   1
   9  19  10 44.1115 12.3570   1
   0  20  10 175.164 10.7703   1
   1  20  10 24.9024 5.01009   1
   2  20  10 399.756 9.82038   1
   3  20  10 196.713 7.02956   1
   4  20  10 525.719 13.3923   1
   5  20  10 201.519 9.84207   1
   6  20  10 187.867 7.96370   1
   7  20  10 243.080 8.07646   1
   8  20  10 123.005 11.3126   1
   0  21  10 6.27675 6.61995   1
   1  21  10 23.9408 5.49433   1
   2  21  10 210.305 7.90597   1
   3  21  10 18.4677 4.35992   1
   4  21  10 52.8357 5.89844   1
   5  21  10 94.8051 7.77639   1
   6  21  10 78.9225 7.06096   1
   7  21  10 257.098 8.69952   1
   8  21  10 169.010 19.5928   1
   0  22  10 49.6530 8.84757   1
   1  22  10 32.3658 5.62775   1
   2  22  10 1493.67 27.6505   1
   3  22  10 447.045 11.2434   1
   4  22  10 60.3578 6.24130   1
   5  22  10 125.856 8.86682   1
   6  22  10 14.1317 5.61846   1
   7  22  10 15.3981 4.46607   1
   8  22  10 2.64110 11.5373   1
   0  23  10 4.27640 8.32869   1
   1  23  10 222.759 9.23058   1
   2  23  10 266.415 9.26307   1
   3  23  10 14.9913 4.81554   1
   4  23  10 155.286 8.05669   1
   5  23  10 113.985 8.74466   1
   6  23  10 29.8477 6.87352   1
   7  23  10 106.254 7.82098   1
   8  23  10 141.203 28.1872   1
   0  24  10 4.72983 8.19760   1
   1  24  10 66.3552 6.89696   1
   2  24  10 576.681 13.7372   1
   3  24  10 52.3286 5.71546   1
   4  24  10 390.601 12.1121   1
   5  24  10 7.61548 10.3224   1
   6  24  10 3.48532 8.52498   1
   7  24  10 81.4443 9.93402   1
   0  25  10 -5.8185 8.41914   1
   1  25  10 139.265 8.93126   1
   2  25  10 262.364 9.83513   1
   3  25  10 45.1117 5.70454   1
   4  25  10 269.805 15.2868   1
   5  25  10 44.4842 14.0530   1
   6  25  10 173.809 31.4605   1
   7  25  10 186.495 22.6004   1
   0  26  10 134.317 13.2575   1
   1  26  10 192.950 11.7568   1
   2  26  10 27.1304 7.52109   1
   3  26  10 433.776 18.5111   1
   4  26  10 16.4171 8.99338   1
   5  26  10 65.2448 18.5085   1
   7  26  10 60.7067 29.6610   1
   0  27  10 -0.4052 12.1771   1
   1  27  10 204.600 13.9723   1
   2  27  10 130.283 22.6106   1
   3  27  10 91.0773 10.8637   1
   4  27  10 92.0679 10.8546   1
   0  28  10 27.0812 13.6621   1
   1  28  10 51.2525 14.6517   1
   3  28  10 57.6997 22.8404   1
   4  28  10 41.1353 13.6740   1
   1  29  10 169.507 20.1949   1
   1   0  11 4.94127 3.84003   1
   2   0  11 3.59056 3.56214   1
   3   0  11 8.79121 2.68076   1
   4   0  11 -2.3880 3.11975   1
   5   0  11 -0.4196 5.39778   1
   6   0  11 2.38931 5.63928   1
   8   0  11 4.71489 13.8575   1
   1   1  11 372.432 7.87679  -3
   1   1  11 372.432 7.87679  -2
   1   1  11 372.432 7.87679   1
   1   1  11 384.714 7.53015  -3
   1   1  11 384.714 7.53015   1
   2   1  11 165.213 5.12784  -3
   2   1  11 165.213 5.12784   1
   2   1  11 174.890 6.62276  -3
   2   1  11 174.890 6.62276  -2
   2   1  11 174.890 6.62276   1
   3   1  11 1000.44 28.2031  -3
   3   1  11 1000.44 28.2031  -2
   3   1  11 1000.44 28.2031   1
   3   1  11 978.225 14.1699  -3
   3   1  11 978.225 14.1699   1
   4   1  11 2252.24 66.6825  -2
   4   1  11 2252.24 66.6825   1
   4   1  11 2331.09 37.3640  -3
   4   1  11 2331.09 37.3640   1
   4   1  11 2339.61 70.3396  -3
   4   1  11 2339.61 70.3396  -2
   4   1  11 2339.61 70.3396   1
   5   1  11 53.7675 3.59838  -3
   5   1  11 53.7675 3.59838   1
   5   1  11 67.5071 6.76371  -2
   5   1  11 67.5071 6.76371   1
   5   1  11 78.3272 18.0007  -3
   5   1  11 78.3272 18.0007  -2
   5   1  11 78.3272 18.0007   1
   6   1  11 139.131 9.34025  -2
   6   1  11 139.131 9.34025   1
   6   1  11 150.633 6.02993  -3
   6   1  11 150.633 6.02993   1
   7   1  11 30.1517 13.0243  -2
   7   1  11 30.1517 13.0243   1
   8   1  11 932.510 29.7672  -2
   8   1  11 932.510 29.7672   1
   9   1  11 102.019 17.7385  -3
   9   1  11 102.019 17.7385   1
  10   1  11 63.7364 17.0249  -3
  10   1  11 63.7364 17.0249   1
  11   1  11 67.6494 16.0996  -3
  11   2  11 67.6494 16.0996  -2
  11   1  11 67.6494 16.0996   1
   1   2  11 764.820 13.0675  -3
   1   2  11 764.820 13.0675   1
   1   2  11 757.828 15.0313  -3
   1   2  11 757.828 15.0313  -2
   1   2  11 757.828 15.0313   1
   2   2  11 1234.90 20.6186  -3
   2   2  11 1234.90 20.6186   1
   2   2  11 1290.96 26.2140  -3
   2   2  11 1290.96 26.2140  -2
   2   2  11 1290.96 26.2140   1
   3   2  11 536.586 8.74119  -3
   3   2  11 536.586 8.74119   1
   3   2  11 563.975 14.5577  -3
   3   2  11 563.975 14.5577  -2
   3   2  11 563.975 14.5577   1
   3   2  11 577.540 30.7188  -2
   3   2  11 577.540 30.7188   1
   4   2  11 130.868 4.16004  -3
   4   2  11 130.868 4.16004   1
   4   2  11 146.881 6.69352  -2
   4   2  11 146.881 6.69352   1
   4   2  11 138.106 11.4118  -3
   4   2  11 138.106 11.4118  -2
   4   2  11 138.106 11.4118   1
   5   2  11 850.918 15.4389  -3
   5   2  11 850.918 15.4389   1
   5   2  11 807.818 25.8996  -2
   5   2  11 807.818 25.8996   1
   5   2  11 843.357 49.1928  -3
   5   2  11 843.357 49.1928  -2
   5   2  11 843.357 49.1928   1
   6   2  11 609.346 24.6264  -2
   6   2  11 609.346 24.6264   1
   6   2  11 667.971 16.1912  -3
   6   2  11 667.971 16.1912   1
   7   2  11 427.480 28.2824  -2
   7   2  11 427.480 28.2824   1
   7   2  11 473.736 29.4399  -3
   7   2  11 473.736 29.4399   1
   8   2  11 31.7071 9.83879  -2
   8   2  11 31.7071 9.83879   1
  10   2  11 393.621 28.3759  -3
  10   3  11 393.621 28.3759  -2
  10   2  11 393.621 28.3759   1
  10   2  11 379.297 29.1300  -3
  10   1  11 379.297 29.1300  -2
  10   2  11 379.297 29.1300   1
   0   3  11 -8.5994 3.96326   1
   1   3  11 77.1903 7.11596  -3
   1   3  11 77.1903 7.11596  -2
   1   3  11 77.1903 7.11596   1
   1   3  11 74.1904 4.81518  -3
   1   3  11 74.1904 4.81518   1
   2   3  11 3049.62 48.8587  -3
   2   3  11 3049.62 48.8587   1
   2   3  11 3231.08 67.7661  -3
   2   3  11 3231.08 67.7661  -2
   2   3  11 3231.08 67.7661   1
   3   3  11 614.130 22.2813  -2
   3   3  11 614.130 22.2813   1
   3   3  11 623.037 9.80604  -3
   3   3  11 623.037 9.80604   1
   3   3  11 626.740 17.8886  -3
   3   3  11 626.740 17.8886  -2
   3   3  11 626.740 17.8886   1
   4   3  11 181.887 4.73163  -3
   4   3  11 181.887 4.73163   1
   4   3  11 176.880 10.9322  -3
   4   3  11 176.880 10.9322  -2
   4   3  11 176.880 10.9322   1
   4   3  11 186.037 8.28780  -2
   4   3  11 186.037 8.28780   1
   5   3  11 16.0091 3.68877  -3
   5   3  11 16.0091 3.68877   1
   5   3  11 14.4787 8.17092  -2
   5   3  11 14.4787 8.17092   1
   5   3  11 35.9735 12.7136  -3
   5   3  11 35.9735 12.7136  -2
   5   3  11 35.9735 12.7136   1
   6   3  11 7519.74 190.749  -3
   6   3  11 7519.74 190.749   1
   7   3  11 56.2843 8.73108  -2
   7   3  11 56.2843 8.73108   1
   7   3  11 65.4245 7.39248  -3
   7   3  11 65.4245 7.39248   1
   8   3  11 25.2976 8.08429  -2
   8   3  11 25.2976 8.08429   1
   9   3  11 33.4041 11.6096  -2
   9   3  11 33.4041 11.6096   1
  10   3  11 13.3035 18.4053  -3
  10   2  11 13.3035 18.4053  -2
  10   3  11 13.3035 18.4053   1
  12   3  11 188.228 15.1948   1
   0   4  11 827.400 25.6757  -3
   0   4  11 827.400 25.6757   1
   1   4  11 1355.99 21.8118  -3
   1   4  11 1355.99 21.8118   1
   1   4  11 1435.44 25.9994  -3
   1   4  11 1435.44 25.9994  -2
   1   4  11 1435.44 25.9994   1
   2   4  11 110.959 8.69433  -3
   2   4  11 110.959 8.69433  -2
   2   4  11 110.959 8.69433   1
   2   4  11 110.602 4.34664  -3
   2   4  11 110.602 4.34664   1
   2   4  11 113.441 12.3418  -2
   2   4  11 113.441 12.3418   1
   3   4  11 272.233 5.50816  -3
   3   4  11 272.233 5.50816   1
   3   4  11 309.822 11.5592  -3
   3   4  11 309.822 11.5592  -2
   3   4  11 309.822 11.5592   1
   3   4  11 284.242 10.4020  -2
   3   4  11 284.242 10.4020   1
   4   4  11 602.524 10.7783  -3
   4   4  11 602.524 10.7783   1
   4   4  11 578.520 18.6637  -2
   4   4  11 578.520 18.6637   1
   4   4  11 653.252 24.2936  -3
   4   4  11 653.252 24.2936  -2
   4   4  11 653.252 24.2936   1
   5   4  11 441.851 8.92473  -3
   5   4  11 441.851 8.92473   1
   5   4  11 416.292 14.5852  -2
   5   4  11 416.292 14.5852   1
   5   4  11 436.945 22.8442  -3
   5   4  11 436.945 22.8442  -2
   5   4  11 436.945 22.8442   1
   6   4  11 1717.65 34.5248  -3
   6   4  11 1717.65 34.5248   1
   6   4  11 1700.89 63.9945  -2
   6   4  11 1700.89 63.9945   1
   7   4  11 1818.95 43.1798  -3
   7   4  11 1818.95 43.1798   1
   7   4  11 1762.38 66.5432  -2
   7   4  11 1762.38 66.5432   1
   8   4  11 1264.04 68.8814  -3
   8   4  11 1264.04 68.8814   1
   8   4  11 1297.67 49.7473  -2
   8   4  11 1297.67 49.7473   1
   9   4  11 75.4919 9.35800  -2
   9   4  11 75.4919 9.35800   1
  10   5  11 23.8647 24.4065  -3
  10   4  11 23.8647 24.4065  -2
  10   4  11 23.8647 24.4065   1
  10   4  11 0.13357 11.1355  -2
  10   4  11 0.13357 11.1355   1
  11   5  11 38.2060 23.0959  -3
  11   4  11 38.2060 23.0959  -2
  11   4  11 38.2060 23.0959   1
  12   4  11 15.0722 8.21834   1
  13   4  11 31.8954 8.40950   1
   0   5  11 4.60957 4.16090   1
   1   5  11 60.3894 8.82094  -3
   1   5  11 60.3894 8.82094  -2
   1   5  11 60.3894 8.82094   1
   1   5  11 49.2877 5.11420  -3
   1   5  11 49.2877 5.11420   1
   2   5  11 89.2342 7.99348  -3
   2   5  11 89.2342 7.99348  -2
   2   5  11 89.2342 7.99348   1
   2   5  11 59.4783 4.46455  -3
   2   5  11 59.4783 4.46455   1
   2   5  11 53.6815 7.90156  -2
   2   5  11 53.6815 7.90156   1
   3   5  11 158.897 8.30484  -2
   3   5  11 158.897 8.30484   1
   3   5  11 153.410 4.28773  -3
   3   5  11 153.410 4.28773   1
   3   5  11 169.191 9.29182  -3
   3   5  11 169.191 9.29182  -2
   3   5  11 169.191 9.29182   1
   4   5  11 7164.31 127.499  -3
   4   5  11 7164.31 127.499   1
   4   5  11 7728.48 277.291  -3
   4   5  11 7728.48 277.291  -2
   4   5  11 7728.48 277.291   1
   4   5  11 7284.37 254.718  -2
   4   5  11 7284.37 254.718   1
   5   5  11 45.8566 4.53679  -3
   5   5  11 45.8566 4.53679   1
   5   5  11 44.8553 5.52806  -2
   5   5  11 44.8553 5.52806   1
   6   5  11 224.492 14.8901  -2
   6   5  11 224.492 14.8901   1
   6   5  11 213.005 7.26757  -3
   6   5  11 213.005 7.26757   1
   7   5  11 1065.88 34.7817  -2
   7   5  11 1065.88 34.7817   1
   7   5  11 1044.77 24.2464  -3
   7   5  11 1044.77 24.2464   1
   8   5  11 688.622 29.2881  -2
   8   5  11 688.622 29.2881   1
   8   5  11 705.672 42.5651  -3
   8   5  11 705.672 42.5651   1
   9   5  11 29.3446 9.56240  -2
   9   5  11 29.3446 9.56240   1
   9   6  11 49.5678 27.6786  -3
   9   5  11 49.5678 27.6786  -2
   9   5  11 49.5678 27.6786   1
  10   6  11 127.842 27.0372  -3
  10   5  11 127.842 27.0372  -2
  10   5  11 127.842 27.0372   1
  11   5  11 25.3406 6.73321   1
  12   5  11 17.6795 5.81925   1
   0   6  11 5859.12 288.991  -3
   0   6  11 5859.12 288.991  -2
   0   6  11 5859.12 288.991   1
   0   6  11 5896.00 148.225  -3
   0   6  11 5896.00 148.225   1
   1   6  11 173.842 29.5054  -3
   1   6  11 173.842 29.5054  -2
   1   6  11 173.842 29.5054   1
   1   6  11 140.812 6.40815  -3
   1   6  11 140.812 6.40815   1
   1   6  11 184.365 21.2405  -2
   1   6  11 184.365 21.2405   1
   2   6  11 2028.40 41.0420  -3
   2   6  11 2028.40 41.0420  -2
   2   6  11 2028.40 41.0420   1
   2   6  11 1885.85 66.4625  -2
   2   6  11 1885.85 66.4625   1
   2   6  11 1873.04 28.0419  -3
   2   6  11 1873.04 28.0419   1
   3   6  11 1266.17 29.9738  -2
   3   6  11 1266.17 29.9738   1
   3   6  11 1383.22 44.2571  -3
   3   6  11 1383.22 44.2571  -2
   3   6  11 1383.22 44.2571   1
   3   6  11 1259.45 17.8809  -3
   3   6  11 1259.45 17.8809   1
   4   6  11 9758.74 493.960  -3
   4   6  11 9758.74 493.960  -2
   4   6  11 9758.74 493.960   1
   4   6  11 8848.67 317.473  -3
   4   6  11 8848.67 317.473   1
   5   6  11 219.429 5.68186  -3
   5   6  11 219.429 5.68186   1
   5   6  11 192.297 8.22850  -2
   5   6  11 192.297 8.22850   1
   6   6  11 231.073 8.85701  -3
   6   6  11 231.073 8.85701   1
   6   6  11 163.667 11.2062  -2
   6   6  11 163.667 11.2062   1
   7   6  11 410.907 15.4390  -3
   7   6  11 410.907 15.4390   1
   7   6  11 392.522 17.8106  -2
   7   6  11 392.522 17.8106   1
   8   6  11 276.169 14.2657  -2
   8   6  11 276.169 14.2657   1
   8   6  11 293.614 14.9995  -3
   8   6  11 293.614 14.9995   1
   9   6  11 170.743 11.0488  -2
   9   6  11 170.743 11.0488   1
  10   6  11 30.0476 21.6534  -2
  10   6  11 30.0476 21.6534   1
  11   6  11 17.5013 6.47827   1
  12   6  11 2.05417 5.69023   1
   0   7  11 -0.7070 4.77923   1
   1   7  11 542.603 10.1652  -3
   1   7  11 542.603 10.1652   1
   1   7  11 514.222 19.2246  -2
   1   7  11 514.222 19.2246   1
   2   7  11 2571.28 36.4443  -3
   2   7  11 2571.28 36.4443   1
   2   7  11 2555.88 74.4489  -2
   2   7  11 2555.88 74.4489   1
   3   7  11 1450.57 37.6910  -2
   3   7  11 1450.57 37.6910   1
   3   7  11 1450.25 21.3383  -3
   3   7  11 1450.25 21.3383   1
   4   7  11 1007.65 16.1714  -3
   4   7  11 1007.65 16.1714   1
   4   7  11 971.081 24.1983  -2
   4   7  11 971.081 24.1983   1
   5   7  11 562.611 11.4160  -3
   5   7  11 562.611 11.4160   1
   5   7  11 534.198 13.9955  -2
   5   7  11 534.198 13.9955   1
   6   7  11 130.712 8.19083  -3
   6   7  11 130.712 8.19083   1
   6   7  11 133.678 9.87820  -2
   6   7  11 133.678 9.87820   1
   7   7  11 13.4841 10.5093  -3
   7   7  11 13.4841 10.5093   1
   7   7  11 11.0116 13.3144  -2
   7   7  11 11.0116 13.3144   1
   8   7  11 2973.61 89.1343  -2
   8   7  11 2973.61 89.1343   1
   8   7  11 3051.21 160.194  -3
   8   7  11 3051.21 160.194   1
   9   7  11 49.2029 21.9868  -3
   9   7  11 49.2029 21.9868   1
   9   7  11 -4.8875 13.1298  -2
   9   7  11 -4.8875 13.1298   1
  10   7  11 105.346 22.2674  -3
  10   7  11 105.346 22.2674   1
  10   7  11 59.2987 23.9615  -2
  10   7  11 59.2987 23.9615   1
  11   7  11 27.8695 4.56930   1
  12   7  11 81.3249 7.37530   1
   0   8  11 4117.49 70.1401  -3
   0   8  11 4117.49 70.1401   1
   1   8  11 1531.25 20.9301  -3
   1   8  11 1531.25 20.9301   1
   1   8  11 1498.81 79.2558  -2
   1   8  11 1498.81 79.2558   1
   2   8  11 1214.92 16.7522  -3
   2   8  11 1214.92 16.7522   1
   2   8  11 1209.55 32.4592  -2
   2   8  11 1209.55 32.4592   1
   3   8  11 83.3549 4.69957  -3
   3   8  11 83.3549 4.69957   1
   3   8  11 92.4998 8.04302  -2
   3   8  11 92.4998 8.04302   1
   4   8  11 308.699 7.21390  -3
   4   8  11 308.699 7.21390   1
   4   8  11 311.731 10.8636  -2
   4   8  11 311.731 10.8636   1
   5   8  11 325.263 8.45639  -3
   5   8  11 325.263 8.45639   1
   5   8  11 306.172 9.99156  -2
   5   8  11 306.172 9.99156   1
   6   8  11 484.428 21.3764  -2
   6   8  11 484.428 21.3764   1
   6   8  11 487.086 13.3961  -3
   6   8  11 487.086 13.3961   1
   7   8  11 352.476 21.1933  -2
   7   8  11 352.476 21.1933   1
   7   8  11 359.062 21.8649  -3
   7   8  11 359.062 21.8649   1
   8   8  11 178.152 25.6670  -2
   8   8  11 178.152 25.6670   1
   8   8  11 221.665 18.4614  -3
   8   8  11 221.665 18.4614   1
   9   8  11 -24.564 21.4770  -3
   9   8  11 -24.564 21.4770   1
   9   8  11 55.4261 23.9513  -2
   9   8  11 55.4261 23.9513   1
  10   8  11 27.0860 5.24514   1
  11   8  11 22.3185 4.84845   1
  12   8  11 295.172 15.7164   1
   0   9  11 1.13112 5.54536   1
   1   9  11 4240.10 52.5446  -3
   1   9  11 4240.10 52.5446   1
   2   9  11 1048.09 15.0241  -3
   2   9  11 1048.09 15.0241   1
   2   9  11 1054.10 41.2658  -2
   2   9  11 1054.10 41.2658   1
   3   9  11 1282.49 17.6319  -3
   3   9  11 1282.49 17.6319   1
   3   9  11 1267.68 40.6775  -2
   3   9  11 1267.68 40.6775   1
   4   9  11 769.719 21.2828  -2
   4   9  11 769.719 21.2828   1
   4   9  11 750.477 13.1930  -3
   4   9  11 750.477 13.1930   1
   5   9  11 142.297 6.25031  -3
   5   9  11 142.297 6.25031   1
   5   9  11 151.520 14.7315  -2
   5   9  11 151.520 14.7315   1
   6   9  11 3206.57 74.9642  -3
   6   9  11 3206.57 74.9642   1
   6   9  11 3049.69 160.288  -2
   6   9  11 3049.69 160.288   1
   7   9  11 1470.17 57.8918  -2
   7   9  11 1470.17 57.8918   1
   7   9  11 1546.53 61.0021  -3
   7   9  11 1546.53 61.0021   1
   8   9  11 155.317 27.4920  -2
   8   9  11 155.317 27.4920   1
   8   9  11 189.149 27.1385  -3
   8   9  11 189.149 27.1385   1
   9   9  11 234.950 28.6664  -3
   9   9  11 234.950 28.6664   1
   9   9  11 253.875 30.3562  -2
   9   9  11 253.875 30.3562   1
  10   9  11 132.904 8.35680   1
  11   9  11 11.2723 4.93741   1
  12   9  11 10.7716 8.73187   1
   0  10  11 1300.85 30.5707  -3
   0  10  11 1300.85 30.5707   1
   1  10  11 203.692 6.60658  -3
   1  10  11 203.692 6.60658   1
   2  10  11 5270.11 67.0750  -3
   2  10  11 5270.11 67.0750   1
   3  10  11 121.560 5.33790  -3
   3  10  11 121.560 5.33790   1
   3  10  11 119.626 20.3391  -2
   3  10  11 119.626 20.3391   1
   4  10  11 37.8034 5.59908  -3
   4  10  11 37.8034 5.59908   1
   4  10  11 81.4174 26.6473  -2
   4  10  11 81.4174 26.6473   1
   5  10  11 101.500 6.40704  -3
   5  10  11 101.500 6.40704   1
   5  10  11 78.3151 26.8801  -2
   5  10  11 78.3151 26.8801   1
   6  10  11 472.773 32.5565  -3
   6  10  11 472.773 32.5565   1
   6  10  11 855.164 54.5984  -2
   6  10  11 855.164 54.5984   1
   7  10  11 313.460 32.3975  -2
   7  10  11 313.460 32.3975   1
   7  10  11 213.810 16.5435  -3
   7  10  11 213.810 16.5435   1
   8  10  11 109.729 27.0114  -2
   8  10  11 109.729 27.0114   1
   9  10  11 103.004 8.14509   1
  10  10  11 16.1805 5.35347   1
  11  10  11 947.699 27.1854   1
  12  10  11 7.64357 14.4581   1
   0  11  11 4.59955 5.47813   1
   1  11  11 232.303 7.24289  -3
   1  11  11 232.303 7.24289   1
   2  11  11 849.706 13.7811  -3
   2  11  11 849.706 13.7811   1
   3  11  11 161.695 6.51272  -3
   3  11  11 161.695 6.51272   1
   4  11  11 1746.05 28.5723  -3
   4  11  11 1746.05 28.5723   1
   5  11  11 299.224 11.2141  -3
   5  11  11 299.224 11.2141   1
   5  11  11 253.290 32.3570  -2
   5  11  11 253.290 32.3570   1
   6  11  11 559.517 29.3826  -3
   6  11  11 559.517 29.3826   1
   6  11  11 524.861 40.9613  -2
   6  11  11 524.861 40.9613   1
   7  11  11 32.9656 5.34148   1
   8  11  11 9.62906 4.50746   1
   9  11  11 95.7369 8.15453   1
  10  11  11 14.6937 5.39656   1
  11  11  11 13.9442 5.41362   1
  12  11  11 92.3277 12.6996   1
   0  12  11 121.137 12.2691  -3
   0  12  11 121.137 12.2691   1
   1  12  11 13.6733 6.47565  -3
   1  12  11 13.6733 6.47565   1
   2  12  11 16.5627 6.04537  -3
   2  12  11 16.5627 6.04537   1
   3  12  11 109.695 7.87821  -3
   3  12  11 109.695 7.87821   1
   4  12  11 2224.42 37.6622  -3
   4  12  11 2224.42 37.6622   1
   5  12  11 492.803 18.9354  -3
   5  12  11 492.803 18.9354   1
   6  12  11 430.974 38.9803  -3
   6  12  11 430.974 38.9803   1
   7  12  11 82.1833 6.94575   1
   8  12  11 13.3805 4.79402   1
   9  12  11 51.4076 6.85034   1
  10  12  11 182.067 10.0427   1
  11  12  11 14.6140 6.87847   1
   0  13  11 -2.6947 5.85688   1
   1  13  11 25.8753 7.86933  -3
   1  13  11 25.8753 7.86933   1
   2  13  11 91.7893 7.77181  -3
   2  13  11 91.7893 7.77181   1
   3  13  11 654.124 15.5005  -3
   3  13  11 654.124 15.5005   1
   4  13  11 402.129 18.8276  -3
   4  13  11 402.129 18.8276   1
   5  13  11 1175.35 50.6469  -3
   5  13  11 1175.35 50.6469   1
   6  13  11 472.393 11.6343   1
   7  13  11 21.9043 5.44241   1
   8  13  11 34.7360 5.61247   1
   9  13  11 133.273 9.79355   1
  10  13  11 -2.5353 5.50735   1
  11  13  11 19.4907 9.43061   1
   0  14  11 243.692 16.8449  -3
   0  14  11 243.692 16.8449   1
   1  14  11 7.43378 9.28773  -3
   1  14  11 7.43378 9.28773   1
   2  14  11 1648.75 31.1185  -3
   2  14  11 1648.75 31.1185   1
   3  14  11 15.1266 10.1391  -3
   3  14  11 15.1266 10.1391   1
   4  14  11 38.1402 30.5493  -3
   4  14  11 38.1402 30.5493   1
   5  14  11 2284.34 39.6782   1
   6  14  11 145.201 6.47658   1
   7  14  11 28.2954 5.88269   1
   8  14  11 58.2451 6.37618   1
   9  14  11 21.0000 5.01841   1
  10  14  11 40.3412 6.73856   1
   0  15  11 2.82334 5.79486   1
   1  15  11 866.984 29.8508  -3
   1  15  11 866.984 29.8508   1
   2  15  11 15.5752 17.8415  -3
   2  15  11 15.5752 17.8415   1
   3  15  11 279.563 27.4669  -3
   3  15  11 279.563 27.4669   1
   4  15  11 41.4509 4.45109   1
   5  15  11 250.187 8.84660   1
   6  15  11 739.354 15.4898   1
   7  15  11 90.1663 7.72187   1
   8  15  11 13.7325 5.48134   1
   9  15  11 87.1206 7.00809   1
  10  15  11 191.638 11.3193   1
   0  16  11 8.81541 31.8246  -3
   0  16  11 8.81541 31.8246   1
   1  16  11 2929.03 159.338  -3
   1  16  11 2929.03 159.338   1
   2  16  11 300.287 41.4677  -3
   2  16  11 300.287 41.4677   1
   3  16  11 538.278 10.6371   1
   4  16  11 783.877 16.0433   1
   5  16  11 305.673 9.91442   1
   6  16  11 338.329 9.00515   1
   7  16  11 68.6467 7.13726   1
   8  16  11 80.5671 7.41534   1
   9  16  11 -4.2342 5.06260   1
   0  17  11 -8.2002 5.70041   1
   1  17  11 225.432 39.3222  -3
   1  17  11 225.432 39.3222   1
   2  17  11 59.6671 4.29428   1
   3  17  11 170.756 6.44375   1
   4  17  11 1047.89 21.5956   1
   5  17  11 216.196 8.59603   1
   6  17  11 -1.8195 3.52908   1
   7  17  11 7.61771 3.58373   1
   8  17  11 246.889 11.1970   1
   9  17  11 191.058 9.69608   1
  10  17  11 39.6313 9.27976   1
   0  18  11 4332.53 84.5569   1
   1  18  11 376.823 9.29104   1
   2  18  11 44.7241 4.20089   1
   3  18  11 83.1552 5.04266   1
   4  18  11 652.840 15.2219   1
   5  18  11 78.7462 6.84788   1
   6  18  11 7.75588 4.14746   1
   7  18  11 341.415 9.90131   1
   8  18  11 3.15203 5.85437   1
   9  18  11 364.904 17.4614   1
  10  18  11 68.0648 11.7933   1
   0  19  11 11.0965 6.55072   1
   1  19  11 98.9472 5.58236   1
   2  19  11 57.5464 4.77558   1
   3  19  11 6.24780 3.83187   1
   4  19  11 19.2582 5.08688   1
   5  19  11 36.7885 5.78743   1
   6  19  11 369.519 12.1677   1
   7  19  11 89.7068 5.87198   1
   8  19  11 11.2868 6.17944   1
   9  19  11 -13.813 10.2677   1
   0  20  11 356.837 13.9256   1
   1  20  11 39.6040 5.37282   1
   2  20  11 255.017 7.60869   1
   3  20  11 20.8207 4.11910   1
   4  20  11 159.903 8.03767   1
   5  20  11 80.9756 7.23872   1
   6  20  11 54.5098 6.13910   1
   7  20  11 6.13855 3.61602   1
   8  20  11 101.898 13.9746   1
   0  21  11 4.23232 6.69484   1
   1  21  11 12.1731 5.25162   1
   2  21  11 1624.57 27.9895   1
   3  21  11 114.233 6.00983   1
   4  21  11 20.4855 5.15894   1
   5  21  11 13.6633 5.66486   1
   6  21  11 16.5629 5.55865   1
   7  21  11 17.6228 4.37839   1
   8  21  11 420.830 27.1319   1
   0  22  11 35.6825 8.23909   1
   1  22  11 32.8726 5.54253   1
   2  22  11 146.080 7.03030   1
   3  22  11 12.4451 4.53351   1
   4  22  11 129.805 7.57316   1
   5  22  11 447.636 14.5895   1
   6  22  11 45.7227 6.26628   1
   7  22  11 188.443 8.11737   1
   8  22  11 11.5781 11.7584   1
   0  23  11 -3.0701 8.24080   1
   1  23  11 26.4581 5.64558   1
   2  23  11 53.6753 5.27355   1
   3  23  11 113.174 6.90991   1
   4  23  11 40.2691 6.28716   1
   5  23  11 74.5550 7.69872   1
   6  23  11 43.5979 7.52367   1
   7  23  11 262.646 11.8097   1
   0  24  11 16.9493 8.64999   1
   1  24  11 886.221 20.8519   1
   2  24  11 553.199 13.6546   1
   3  24  11 63.0064 6.02525   1
   4  24  11 37.5554 6.57795   1
   5  24  11 21.8270 10.3154   1
   6  24  11 -3.8123 9.88576   1
   7  24  11 38.8518 8.61753   1
   0  25  11 -7.5379 8.36021   1
   1  25  11 225.519 10.6536   1
   2  25  11 154.984 8.28797   1
   3  25  11 388.480 11.4518   1
   4  25  11 13.3511 8.55387   1
   5  25  11 158.020 19.9297   1
   6  25  11 328.650 37.0410   1
   7  25  11 57.8872 15.2297   1
   0  26  11 22.1527 13.0706   1
   1  26  11 191.744 11.8555   1
   2  26  11 469.093 18.6481   1
   3  26  11 75.6807 10.1437   1
   4  26  11 170.591 13.5970   1
   5  26  11 20.7096 18.2100   1
   0  27  11 13.4637 12.9705   1
   1  27  11 18.4465 9.05464   1
   2  27  11 53.7198 24.1713   1
   3  27  11 239.854 14.9931   1
   4  27  11 15.4631 9.09327   1
   0  28  11 6.83846 13.2084   1
   1  28  11 77.9245 15.9181   1
   3  28  11 158.806 30.9629   1
   4  28  11 170.262 19.8730   1
   1  29  11 349.564 25.0710   1
   1   0  12 9317.19 471.189  -3
   1   0  12 9317.19 471.189   1
   2   0  12 4147.39 105.233  -3
   2   0  12 4147.39 105.233   1
   2   0  12 4548.17 92.8805  -3
   2   0  12 4548.17 92.8805  -2
   2   0  12 4548.17 92.8805   1
   4   0  12 1613.31 59.0487  -2
   4   0  12 1613.31 59.0487   1
   4   0  12 1678.42 63.3598  -3
   4   0  12 1678.42 63.3598  -2
   4   0  12 1678.42 63.3598   1
   4   0  12 1757.93 40.8045  -3
   4   0  12 1757.93 40.8045   1
   5   0  12 939.540 20.4520  -3
   5   0  12 939.540 20.4520   1
   5   0  12 857.320 32.8729  -2
   5   0  12 857.320 32.8729   1
   5   0  12 811.685 47.5029  -3
   5   0  12 811.685 47.5029  -2
   5   0  12 811.685 47.5029   1
   6   0  12 1187.59 32.3142  -3
   6   0  12 1187.59 32.3142   1
   6   0  12 1100.70 42.6292  -2
   6   0  12 1100.70 42.6292   1
   9   0  12 676.271 41.6287  -3
   9   1  12 676.271 41.6287  -2
   9   0  12 676.271 41.6287   1
  10   0  12 88.0806 17.9753  -3
  10   1  12 88.0806 17.9753  -2
  10   0  12 88.0806 17.9753   1
   1   1  12 707.867 12.4104  -3
   1   1  12 707.867 12.4104   1
   1   1  12 752.858 13.4159  -3
   1   1  12 752.858 13.4159  -2
   1   1  12 752.858 13.4159   1
   2   1  12 6171.43 139.243  -3
   2   1  12 6171.43 139.243   1
   2   1  12 7148.56 362.627  -3
   2   1  12 7148.56 362.627  -2
   2   1  12 7148.56 362.627   1
   3   1  12 697.543 10.6843  -3
   3   1  12 697.543 10.6843   1
   3   1  12 748.534 19.6950  -3
   3   1  12 748.534 19.6950  -2
   3   1  12 748.534 19.6950   1
   4   1  12 1215.76 20.4693  -3
   4   1  12 1215.76 20.4693   1
   4   1  12 1225.63 33.6985  -3
   4   1  12 1225.63 33.6985  -2
   4   1  12 1225.63 33.6985   1
   4   1  12 1167.06 42.5350  -2
   4   1  12 1167.06 42.5350   1
   5   1  12 1092.46 16.6802  -3
   5   1  12 1092.46 16.6802   1
   5   1  12 1070.11 40.3184  -2
   5   1  12 1070.11 40.3184   1
   5   1  12 1115.59 43.7081  -3
   5   1  12 1115.59 43.7081  -2
   5   1  12 1115.59 43.7081   1
   6   1  12 608.146 15.2097  -3
   6   1  12 608.146 15.2097   1
   6   1  12 565.008 23.1431  -2
   6   1  12 565.008 23.1431   1
   7   1  12 65.5108 14.0671  -2
   7   1  12 65.5108 14.0671   1
   8   1  12 2091.16 109.065  -2
   8   1  12 2091.16 109.065   1
   9   1  12 167.523 21.7357  -3
   9   0  12 167.523 21.7357  -2
   9   1  12 167.523 21.7357   1
  10   1  12 141.502 20.1437  -3
  10   2  12 141.502 20.1437  -2
  10   1  12 141.502 20.1437   1
  10   1  12 122.789 19.8245  -3
  10   0  12 122.789 19.8245  -2
  10   1  12 122.789 19.8245   1
  11   1  12 85.8254 17.6263  -3
  11   2  12 85.8254 17.6263  -2
  11   1  12 85.8254 17.6263   1
   0   2  12 2511.43 87.3911  -3
   0   2  12 2511.43 87.3911   1
   1   2  12 47.2041 6.34209  -3
   1   2  12 47.2041 6.34209  -2
   1   2  12 47.2041 6.34209   1
   1   2  12 50.6243 4.99617  -3
   1   2  12 50.6243 4.99617   1
   2   2  12 2212.12 35.8270  -3
   2   2  12 2212.12 35.8270   1
   2   2  12 2416.24 41.4923  -3
   2   2  12 2416.24 41.4923  -2
   2   2  12 2416.24 41.4923   1
   3   2  12 224.730 5.02567  -3
   3   2  12 224.730 5.02567   1
   3   2  12 251.003 9.61895  -3
   3   2  12 251.003 9.61895  -2
   3   2  12 251.003 9.61895   1
   4   2  12 401.371 8.06662  -3
   4   2  12 401.371 8.06662   1
   4   2  12 396.690 14.6988  -3
   4   2  12 396.690 14.6988  -2
   4   2  12 396.690 14.6988   1
   4   2  12 415.655 12.9001  -2
   4   2  12 415.655 12.9001   1
   5   2  12 17.2988 2.69311  -3
   5   2  12 17.2988 2.69311   1
   5   2  12 17.6559 7.15037  -2
   5   2  12 17.6559 7.15037   1
   5   2  12 9.38706 12.2278  -3
   5   2  12 9.38706 12.2278  -2
   5   2  12 9.38706 12.2278   1
   6   2  12 2230.80 43.4769  -3
   6   2  12 2230.80 43.4769   1
   6   2  12 2219.48 66.8909  -2
   6   2  12 2219.48 66.8909   1
   6   2  12 2443.66 127.656  -3
   6   2  12 2443.66 127.656  -2
   6   2  12 2443.66 127.656   1
   7   2  12 169.116 18.2333  -2
   7   2  12 169.116 18.2333   1
   8   2  12 1644.87 61.8809  -2
   8   2  12 1644.87 61.8809   1
   9   2  12 1865.67 99.8638  -3
   9   1  12 1865.67 99.8638  -2
   9   2  12 1865.67 99.8638   1
  10   2  12 27.1524 19.0698  -3
  10   1  12 27.1524 19.0698  -2
  10   2  12 27.1524 19.0698   1
  10   2  12 37.3097 17.9024  -3
  10   3  12 37.3097 17.9024  -2
  10   2  12 37.3097 17.9024   1
  12   2  12 12.5670 8.77580   1
   0   3  12 -0.5380 5.21773   1
   1   3  12 148.528 5.70739  -3
   1   3  12 148.528 5.70739   1
   1   3  12 180.162 8.87484  -3
   1   3  12 180.162 8.87484  -2
   1   3  12 180.162 8.87484   1
   2   3  12 2561.98 41.4185  -3
   2   3  12 2561.98 41.4185   1
   2   3  12 2835.17 59.9083  -3
   2   3  12 2835.17 59.9083  -2
   2   3  12 2835.17 59.9083   1
   3   3  12 574.576 15.4871  -3
   3   3  12 574.576 15.4871  -2
   3   3  12 574.576 15.4871   1
   3   3  12 548.888 9.33173  -3
   3   3  12 548.888 9.33173   1
   3   3  12 554.589 20.8610  -2
   3   3  12 554.589 20.8610   1
   4   3  12 138.109 4.79604  -3
   4   3  12 138.109 4.79604   1
   4   3  12 130.328 10.8005  -3
   4   3  12 130.328 10.8005  -2
   4   3  12 130.328 10.8005   1
   4   3  12 149.748 7.94215  -2
   4   3  12 149.748 7.94215   1
   5   3  12 1056.26 16.3106  -3
   5   3  12 1056.26 16.3106   1
   5   3  12 1130.72 44.7447  -3
   5   3  12 1130.72 44.7447  -2
   5   3  12 1130.72 44.7447   1
   5   3  12 1010.35 31.1962  -2
   5   3  12 1010.35 31.1962   1
   6   3  12 251.849 7.95717  -3
   6   3  12 251.849 7.95717   1
   6   3  12 259.847 16.0837  -2
   6   3  12 259.847 16.0837   1
   6   3  12 299.203 25.3104  -3
   6   3  12 299.203 25.3104  -2
   6   3  12 299.203 25.3104   1
   7   3  12 2247.66 67.2980  -3
   7   3  12 2247.66 67.2980   1
   7   3  12 2179.22 56.4286  -2
   7   3  12 2179.22 56.4286   1
   8   3  12 19.9379 10.3762  -2
   8   3  12 19.9379 10.3762   1
   9   3  12 196.455 17.6490  -2
   9   3  12 196.455 17.6490   1
  10   3  12 223.255 25.4872  -3
  10   2  12 223.255 25.4872  -2
  10   3  12 223.255 25.4872   1
  10   3  12 162.664 21.5872  -3
  10   4  12 162.664 21.5872  -2
  10   3  12 162.664 21.5872   1
  11   3  12 258.536 26.1811  -3
  11   2  12 258.536 26.1811  -2
  11   3  12 258.536 26.1811   1
  12   3  12 88.6608 13.3542   1
  13   4  12 1.75491 12.8378  -2
  13   3  12 1.75491 12.8378   1
   0   4  12 1091.86 33.0143  -3
   0   4  12 1091.86 33.0143   1
   1   4  12 2102.14 32.8804  -3
   1   4  12 2102.14 32.8804   1
   1   4  12 2356.82 46.5472  -3
   1   4  12 2356.82 46.5472  -2
   1   4  12 2356.82 46.5472   1
   2   4  12 4042.45 72.9050  -3
   2   4  12 4042.45 72.9050  -2
   2   4  12 4042.45 72.9050   1
   2   4  12 3847.79 58.4337  -3
   2   4  12 3847.79 58.4337   1
   3   4  12 6176.25 117.636  -3
   3   4  12 6176.25 117.636   1
   3   4  12 6603.27 136.340  -3
   3   4  12 6603.27 136.340  -2
   3   4  12 6603.27 136.340   1
   3   4  12 6344.82 306.906  -2
   3   4  12 6344.82 306.906   1
   4   4  12 1558.22 24.6951  -3
   4   4  12 1558.22 24.6951   1
   4   4  12 1599.27 50.2421  -3
   4   4  12 1599.27 50.2421  -2
   4   4  12 1599.27 50.2421   1
   4   4  12 1486.55 43.7070  -2
   4   4  12 1486.55 43.7070   1
   5   4  12 394.418 14.4932  -2
   5   4  12 394.418 14.4932   1
   5   4  12 404.215 7.50521  -3
   5   4  12 404.215 7.50521   1
   5   4  12 423.492 31.2924  -3
   5   4  12 423.492 31.2924  -2
   5   4  12 423.492 31.2924   1
   6   4  12 3219.86 58.2690  -3
   6   4  12 3219.86 58.2690   1
   6   4  12 3097.50 92.4953  -2
   6   4  12 3097.50 92.4953   1
   7   4  12 145.646 9.26969  -3
   7   4  12 145.646 9.26969   1
   7   4  12 133.920 10.0026  -2
   7   4  12 133.920 10.0026   1
   8   4  12 40.1218 9.19289  -2
   8   4  12 40.1218 9.19289   1
   9   4  12 194.318 13.1296  -2
   9   4  12 194.318 13.1296   1
  10   5  12 248.138 29.6054  -3
  10   4  12 248.138 29.6054  -2
  10   4  12 248.138 29.6054   1
  10   4  12 207.000 16.6354  -2
  10   4  12 207.000 16.6354   1
  11   5  12 247.736 28.5728  -3
  11   4  12 247.736 28.5728  -2
  11   4  12 247.736 28.5728   1
  11   4  12 284.380 28.4539  -3
  11   3  12 284.380 28.4539  -2
  11   4  12 284.380 28.4539   1
  12   4  12 36.0778 10.9836   1
  13   5  12 283.109 21.0464  -2
  13   4  12 283.109 21.0464   1
   0   5  12 -3.1552 5.31883   1
   1   5  12 1427.16 34.9756  -3
   1   5  12 1427.16 34.9756  -2
   1   5  12 1427.16 34.9756   1
   1   5  12 1377.74 22.3684  -3
   1   5  12 1377.74 22.3684   1
   2   5  12 655.382 11.1851  -3
   2   5  12 655.382 11.1851   1
   2   5  12 690.332 15.7421  -3
   2   5  12 690.332 15.7421  -2
   2   5  12 690.332 15.7421   1
   2   5  12 648.701 35.2686  -2
   2   5  12 648.701 35.2686   1
   3   5  12 2559.12 36.1180  -3
   3   5  12 2559.12 36.1180   1
   3   5  12 2636.36 75.1381  -2
   3   5  12 2636.36 75.1381   1
   3   5  12 2750.91 58.5286  -3
   3   5  12 2750.91 58.5286  -2
   3   5  12 2750.91 58.5286   1
   4   5  12 392.621 7.73047  -3
   4   5  12 392.621 7.73047   1
   4   5  12 388.677 14.6089  -2
   4   5  12 388.677 14.6089   1
   4   5  12 440.699 19.8554  -3
   4   5  12 440.699 19.8554  -2
   4   5  12 440.699 19.8554   1
   5   5  12 352.791 11.5353  -2
   5   5  12 352.791 11.5353   1
   5   5  12 394.370 7.55584  -3
   5   5  12 394.370 7.55584   1
   6   5  12 1966.86 32.3198  -3
   6   5  12 1966.86 32.3198   1
   6   5  12 1930.25 58.4675  -2
   6   5  12 1930.25 58.4675   1
   7   5  12 74.7196 9.82074  -2
   7   5  12 74.7196 9.82074   1
   7   5  12 53.9020 9.40344  -3
   7   5  12 53.9020 9.40344   1
   8   5  12 752.499 32.0202  -2
   8   5  12 752.499 32.0202   1
   9   5  12 407.205 16.5577  -2
   9   5  12 407.205 16.5577   1
  10   5  12 302.595 20.7797  -2
  10   5  12 302.595 20.7797   1
  10   6  12 313.384 32.4813  -3
  10   5  12 313.384 32.4813  -2
  10   5  12 313.384 32.4813   1
  11   6  12 640.394 44.2469  -3
  11   5  12 640.394 44.2469  -2
  11   5  12 640.394 44.2469   1
  12   5  12 18.8865 6.48653   1
  13   5  12 76.0797 10.6642   1
   0   6  12 1080.68 30.3492  -3
   0   6  12 1080.68 30.3492   1
   1   6  12 798.371 13.5290  -3
   1   6  12 798.371 13.5290   1
   1   6  12 845.898 29.5549  -3
   1   6  12 845.898 29.5549  -2
   1   6  12 845.898 29.5549   1
   2   6  12 180.005 5.70711  -3
   2   6  12 180.005 5.70711   1
   2   6  12 209.873 9.77469  -3
   2   6  12 209.873 9.77469  -2
   2   6  12 209.873 9.77469   1
   2   6  12 205.797 10.9110  -2
   2   6  12 205.797 10.9110   1
   3   6  12 160.665 4.94519  -3
   3   6  12 160.665 4.94519   1
   3   6  12 136.652 13.2899  -3
   3   6  12 136.652 13.2899  -2
   3   6  12 136.652 13.2899   1
   3   6  12 175.665 9.17260  -2
   3   6  12 175.665 9.17260   1
   4   6  12 23.7230 4.20346  -3
   4   6  12 23.7230 4.20346   1
   4   6  12 28.7420 10.4895  -2
   4   6  12 28.7420 10.4895   1
   4   6  12 -4.1340 23.7550  -3
   4   6  12 -4.1340 23.7550  -2
   4   6  12 -4.1340 23.7550   1
   5   6  12 374.910 8.07996  -3
   5   6  12 374.910 8.07996   1
   5   6  12 345.251 11.1109  -2
   5   6  12 345.251 11.1109   1
   6   6  12 1711.88 28.5928  -3
   6   6  12 1711.88 28.5928   1
   6   6  12 1128.28 61.7592  -2
   6   6  12 1128.28 61.7592   1
   7   6  12 403.851 22.0294  -2
   7   6  12 403.851 22.0294   1
   7   6  12 364.484 16.9605  -3
   7   6  12 364.484 16.9605   1
   8   6  12 4.06526 14.0580  -3
   8   6  12 4.06526 14.0580   1
   8   6  12 -2.0395 13.0146  -2
   8   6  12 -2.0395 13.0146   1
   9   6  12 135.350 14.4615  -2
   9   6  12 135.350 14.4615   1
  10   7  12 35.8491 28.6115  -3
  10   6  12 35.8491 28.6115  -2
  10   6  12 35.8491 28.6115   1
  10   6  12 39.5931 12.5596  -2
  10   6  12 39.5931 12.5596   1
  11   6  12 83.0204 7.05706   1
  12   6  12 17.9286 5.50834   1
   0   7  12 8.30039 4.68221   1
   1   7  12 246.859 7.62105  -3
   1   7  12 246.859 7.62105   1
   1   7  12 235.068 15.6840  -2
   1   7  12 235.068 15.6840   1
   1   7  12 301.062 35.0349  -3
   1   7  12 301.062 35.0349  -2
   1   7  12 301.062 35.0349   1
   2   7  12 1252.78 18.8101  -3
   2   7  12 1252.78 18.8101   1
   2   7  12 1180.08 32.0041  -2
   2   7  12 1180.08 32.0041   1
   2   7  12 1328.17 52.5927  -3
   2   7  12 1328.17 52.5927  -2
   2   7  12 1328.17 52.5927   1
   3   7  12 5086.19 77.2483  -3
   3   7  12 5086.19 77.2483   1
   3   7  12 5075.56 96.3474  -2
   3   7  12 5075.56 96.3474   1
   4   7  12 484.935 9.25151  -3
   4   7  12 484.935 9.25151   1
   4   7  12 488.048 16.0565  -2
   4   7  12 488.048 16.0565   1
   5   7  12 332.494 10.1538  -2
   5   7  12 332.494 10.1538   1
   5   7  12 353.885 8.13547  -3
   5   7  12 353.885 8.13547   1
   6   7  12 208.536 6.95312  -3
   6   7  12 208.536 6.95312   1
   6   7  12 189.784 11.1403  -2
   6   7  12 189.784 11.1403   1
   7   7  12 1294.95 51.2956  -2
   7   7  12 1294.95 51.2956   1
   7   7  12 1288.76 41.8594  -3
   7   7  12 1288.76 41.8594   1
   8   7  12 2059.05 63.1733  -2
   8   7  12 2059.05 63.1733   1
   8   7  12 2194.42 82.8283  -3
   8   7  12 2194.42 82.8283   1
   9   7  12 336.329 19.9557  -2
   9   7  12 336.329 19.9557   1
   9   7  12 371.847 32.0522  -3
   9   7  12 371.847 32.0522   1
  10   7  12 85.7163 24.4458  -2
  10   7  12 85.7163 24.4458   1
  10   7  12 105.314 23.7701  -3
  10   7  12 105.314 23.7701   1
  11   7  12 135.024 7.86093   1
  12   7  12 14.8175 6.78951   1
   0   8  12 172.607 7.96450  -3
   0   8  12 172.607 7.96450   1
   1   8  12 24.0209 4.85854  -3
   1   8  12 24.0209 4.85854   1
   2   8  12 59.0574 4.55945  -3
   2   8  12 59.0574 4.55945   1
   2   8  12 92.4019 9.82047  -2
   2   8  12 92.4019 9.82047   1
   3   8  12 3273.85 44.7354  -3
   3   8  12 3273.85 44.7354   1
   3   8  12 3226.43 73.5679  -2
   3   8  12 3226.43 73.5679   1
   4   8  12 42.6440 7.40635  -2
   4   8  12 42.6440 7.40635   1
   4   8  12 24.7957 4.76057  -3
   4   8  12 24.7957 4.76057   1
   5   8  12 622.990 11.8580  -3
   5   8  12 622.990 11.8580   1
   5   8  12 612.819 15.0457  -2
   5   8  12 612.819 15.0457   1
   6   8  12 58.2308 6.68033  -3
   6   8  12 58.2308 6.68033   1
   6   8  12 70.7332 13.9470  -2
   6   8  12 70.7332 13.9470   1
   7   8  12 692.913 31.8508  -2
   7   8  12 692.913 31.8508   1
   7   8  12 700.941 32.4070  -3
   7   8  12 700.941 32.4070   1
   8   8  12 213.990 28.8575  -2
   8   8  12 213.990 28.8575   1
   8   8  12 159.162 26.0458  -3
   8   8  12 159.162 26.0458   1
   9   8  12 12.5405 24.4692  -2
   9   8  12 12.5405 24.4692   1
   9   8  12 47.1460 23.0823  -3
   9   8  12 47.1460 23.0823   1
  10   8  12 26.1348 22.6405  -3
  10   8  12 26.1348 22.6405   1
  10   8  12 54.6869 25.7030  -2
  10   8  12 54.6869 25.7030   1
  11   8  12 6.98970 4.72659   1
  12   8  12 -0.1023 8.62342   1
   0   9  12 -6.9557 5.10562   1
   1   9  12 377.492 7.90949  -3
   1   9  12 377.492 7.90949   1
   2   9  12 47.2351 4.70151  -3
   2   9  12 47.2351 4.70151   1
   2   9  12 53.9904 19.1170  -2
   2   9  12 53.9904 19.1170   1
   3   9  12 2053.30 54.4850  -2
   3   9  12 2053.30 54.4850   1
   3   9  12 2069.70 27.9682  -3
   3   9  12 2069.70 27.9682   1
   4   9  12 3.55476 5.34289  -3
   4   9  12 3.55476 5.34289   1
   4   9  12 4.63936 13.0183  -2
   4   9  12 4.63936 13.0183   1
   5   9  12 896.791 27.9592  -2
   5   9  12 896.791 27.9592   1
   5   9  12 855.690 15.5453  -3
   5   9  12 855.690 15.5453   1
   6   9  12 92.2342 26.5117  -2
   6   9  12 92.2342 26.5117   1
   6   9  12 64.7824 9.32443  -3
   6   9  12 64.7824 9.32443   1
   7   9  12 321.860 32.4659  -3
   7   9  12 321.860 32.4659   1
   7   9  12 292.125 31.3501  -2
   7   9  12 292.125 31.3501   1
   8   9  12 14.2254 23.9537  -3
   8   9  12 14.2254 23.9537   1
   8   9  12 53.6861 25.8542  -2
   8   9  12 53.6861 25.8542   1
   9   9  12 20.9236 24.5304  -2
   9   9  12 20.9236 24.5304   1
   9   9  12 19.3514 23.2048  -3
   9   9  12 19.3514 23.2048   1
  10   9  12 88.4696 7.16407   1
  11   9  12 86.2913 7.06576   1
  12   9  12 235.016 12.7966   1
   0  10  12 87.1903 8.18028  -3
   0  10  12 87.1903 8.18028   1
   1  10  12 30.2744 6.00660  -3
   1  10  12 30.2744 6.00660   1
   2  10  12 139.294 6.47569  -3
   2  10  12 139.294 6.47569   1
   3  10  12 34.6816 4.77190  -3
   3  10  12 34.6816 4.77190   1
   3  10  12 54.6285 15.1099  -2
   3  10  12 54.6285 15.1099   1
   4  10  12 371.560 8.52860  -3
   4  10  12 371.560 8.52860   1
   4  10  12 399.322 20.5401  -2
   4  10  12 399.322 20.5401   1
   5  10  12 248.100 17.8791  -2
   5  10  12 248.100 17.8791   1
   5  10  12 245.014 7.57788  -3
   5  10  12 245.014 7.57788   1
   6  10  12 37.6223 13.6041  -3
   6  10  12 37.6223 13.6041   1
   6  10  12 16.3213 25.4835  -2
   6  10  12 16.3213 25.4835   1
   7  10  12 264.545 21.3837  -3
   7  10  12 264.545 21.3837   1
   7  10  12 252.994 31.8527  -2
   7  10  12 252.994 31.8527   1
   8  10  12 632.134 45.6563  -2
   8  10  12 632.134 45.6563   1
   8  10  12 628.021 44.8963  -3
   8  10  12 628.021 44.8963   1
   9  10  12 149.575 28.9771  -2
   9  10  12 149.575 28.9771   1
  10  10  12 186.624 9.93740   1
  11  10  12 24.9088 5.56896   1
  12  10  12 18.7409 8.40631   1
   0  11  12 -5.5459 5.48298   1
   1  11  12 132.968 6.76840  -3
   1  11  12 132.968 6.76840   1
   2  11  12 173.565 6.89042  -3
   2  11  12 173.565 6.89042   1
   3  11  12 84.0528 5.54509  -3
   3  11  12 84.0528 5.54509   1
   4  11  12 1975.16 32.0102  -3
   4  11  12 1975.16 32.0102   1
   5  11  12 1085.59 28.0462  -3
   5  11  12 1085.59 28.0462   1
   6  11  12 618.911 31.6539  -3
   6  11  12 618.911 31.6539   1
   6  11  12 597.194 45.8357  -2
   6  11  12 597.194 45.8357   1
   7  11  12 238.310 9.66091   1
   8  11  12 6.54619 28.2953  -2
   8  11  12 6.54619 28.2953   1
   9  11  12 160.633 9.70298   1
  10  11  12 316.917 12.7913   1
  11  11  12 -0.7644 5.22442   1
   0  12  12 95.1530 12.6579  -3
   0  12  12 95.1530 12.6579   1
   1  12  12 197.084 7.88233  -3
   1  12  12 197.084 7.88233   1
   2  12  12 96.3553 7.22616  -3
   2  12  12 96.3553 7.22616   1
   3  12  12 1153.95 19.7523  -3
   3  12  12 1153.95 19.7523   1
   4  12  12 89.0950 10.7159  -3
   4  12  12 89.0950 10.7159   1
   5  12  12 2634.28 68.7646  -3
   5  12  12 2634.28 68.7646   1
   6  12  12 329.267 24.0213  -3
   6  12  12 329.267 24.0213   1
   7  12  12 60.4799 6.28370   1
   8  12  12 284.553 10.7849   1
   9  12  12 36.1163 6.67676   1
  10  12  12 102.919 8.72420   1
  11  12  12 29.1090 7.58269   1
   0  13  12 -3.5336 5.86000   1
   1  13  12 76.0518 8.34277  -3
   1  13  12 76.0518 8.34277   1
   2  13  12 11.5808 8.19217  -3
   2  13  12 11.5808 8.19217   1
   3  13  12 1615.84 34.2976  -3
   3  13  12 1615.84 34.2976   1
   4  13  12 844.003 32.4377  -3
   4  13  12 844.003 32.4377   1
   5  13  12 290.235 18.3502  -3
   5  13  12 290.235 18.3502   1
   6  13  12 1331.50 27.3389   1
   7  13  12 341.723 12.3300   1
   8  13  12 34.7447 5.61340   1
   9  13  12 44.2558 5.45575   1
  10  13  12 169.164 10.2120   1
   0  14  12 54.9789 17.4539  -3
   0  14  12 54.9789 17.4539   1
   1  14  12 39.7948 9.67391  -3
   1  14  12 39.7948 9.67391   1
   2  14  12 48.7840 10.1743  -3
   2  14  12 48.7840 10.1743   1
   3  14  12 51.2968 14.0457  -3
   3  14  12 51.2968 14.0457   1
   4  14  12 315.234 25.3485  -3
   4  14  12 315.234 25.3485   1
   5  14  12 588.192 45.0329  -3
   5  14  12 588.192 45.0329   1
   6  14  12 318.758 9.31163   1
   7  14  12 143.474 8.98001   1
   8  14  12 125.745 8.04764   1
   9  14  12 77.3465 6.52519   1
  10  14  12 38.6402 6.80585   1
   0  15  12 -2.8820 5.80680   1
   1  15  12 38.4666 12.6476  -3
   1  15  12 38.4666 12.6476   1
   2  15  12 2049.31 50.9789  -3
   2  15  12 2049.31 50.9789   1
   3  15  12 488.240 32.8683  -3
   3  15  12 488.240 32.8683   1
   4  15  12 29.7183 32.1326  -3
   4  15  12 29.7183 32.1326   1
   5  15  12 427.865 11.0235   1
   6  15  12 880.382 17.8090   1
   7  15  12 103.647 8.12766   1
   8  15  12 143.519 8.97240   1
   9  15  12 37.5621 6.03093   1
  10  15  12 266.021 15.2559   1
   0  16  12 21.3872 31.3392  -3
   0  16  12 21.3872 31.3392   1
   1  16  12 134.800 5.47481   1
   2  16  12 161.551 5.74275   1
   3  16  12 997.167 17.4435   1
   4  16  12 19.5245 3.82608   1
   5  16  12 13.8199 4.48522   1
   6  16  12 629.787 13.8423   1
   7  16  12 10.2469 5.90479   1
   8  16  12 61.2191 6.86244   1
   9  16  12 27.4162 5.74123   1
  10  16  12 893.555 46.4093   1
   0  17  12 -1.1961 5.44461   1
   1  17  12 320.818 8.40854   1
   2  17  12 460.792 39.9340  -3
   2  17  12 460.792 39.9340   1
   3  17  12 200.210 6.88709   1
   4  17  12 84.0230 5.20846   1
   5  17  12 69.0347 5.84020   1
   6  17  12 8.90444 3.77414   1
   7  17  12 26.6817 3.95288   1
   8  17  12 22.4482 6.24809   1
   9  17  12 51.2493 6.65128   1
  10  17  12 71.5054 11.2801   1
   0  18  12 687.679 18.6719   1
   1  18  12 61.8110 5.08342   1
   2  18  12 105.130 5.30916   1
   3  18  12 25.6097 4.21783   1
   4  18  12 94.0996 5.49696   1
   5  18  12 25.9169 5.75351   1
   6  18  12 67.9709 5.78781   1
   7  18  12 584.076 14.2810   1
   8  18  12 5.92277 5.91059   1
   9  18  12 10.4066 7.69572   1
   0  19  12 -4.6644 6.45606   1
   1  19  12 125.199 6.49749   1
   2  19  12 326.993 8.38382   1
   3  19  12 10.7793 4.12772   1
   4  19  12 239.553 8.02687   1
   5  19  12 47.3234 6.11931   1
   6  19  12 811.389 20.4310   1
   7  19  12 2.21419 4.13645   1
   8  19  12 23.6017 6.57861   1
   9  19  12 149.977 24.5176   1
   0  20  12 68.1249 7.84848   1
   1  20  12 478.298 12.0746   1
   2  20  12 589.157 11.7814   1
   3  20  12 221.967 7.33770   1
   4  20  12 13.5800 4.29374   1
   5  20  12 69.4482 6.85899   1
   6  20  12 40.6901 5.72370   1
   7  20  12 22.4166 3.94942   1
   8  20  12 402.534 26.1500   1
   0  21  12 4.02220 6.74542   1
   1  21  12 15.8548 5.39639   1
   2  21  12 99.6466 5.98585   1
   3  21  12 12.5856 4.36932   1
   4  21  12 116.677 6.17202   1
   5  21  12 34.7387 6.32777   1
   6  21  12 169.312 9.17930   1
   7  21  12 20.6374 4.30884   1
   8  21  12 377.401 25.7690   1
   0  22  12 322.868 15.0467   1
   1  22  12 428.904 12.3171   1
   2  22  12 216.000 7.95285   1
   3  22  12 42.2418 5.31918   1
   4  22  12 307.811 10.5578   1
   5  22  12 37.7869 6.62259   1
   6  22  12 191.073 9.88872   1
   7  22  12 67.9862 6.10450   1
   8  22  12 19.6767 14.9718   1
   0  23  12 -1.5098 8.38676   1
   1  23  12 26.1592 5.75034   1
   2  23  12 1077.78 21.2978   1
   3  23  12 602.601 14.4162   1
   4  23  12 5.65493 5.56518   1
   5  23  12 9.54634 6.09414   1
   6  23  12 47.8468 10.0645   1
   7  23  12 5.45887 5.83192   1
   8  23  12 179.600 16.7731   1
   0  24  12 21.8252 9.21675   1
   1  24  12 18.5754 6.18852   1
   2  24  12 243.459 9.72431   1
   3  24  12 475.574 12.6751   1
   4  24  12 39.3042 6.63512   1
   5  24  12 19.2768 10.8293   1
   6  24  12 7.66054 10.4379   1
   7  24  12 37.5560 8.53631   1
   0  25  12 7.29956 8.86160   1
   1  25  12 25.1561 6.65761   1
   2  25  12 9.59662 5.37830   1
   3  25  12 55.5733 6.25455   1
   4  25  12 16.1742 8.78041   1
   5  25  12 23.5635 13.3214   1
   6  25  12 9.72037 18.7967   1
   7  25  12 153.648 20.3641   1
   0  26  12 196.151 19.1958   1
   1  26  12 101.434 9.83528   1
   2  26  12 84.1105 9.36565   1
   3  26  12 863.745 28.5418   1
   4  26  12 295.605 16.2034   1
   5  26  12 290.592 37.7929   1
   0  27  12 -8.5812 11.1003   1
   1  27  12 201.760 14.7127   1
   3  27  12 64.4950 10.6780   1
   4  27  12 6.65905 8.98489   1
   0  28  12 184.156 19.9644   1
   1  28  12 124.278 18.5236   1
   3  28  12 63.7342 27.7271   1
   4  28  12 376.752 51.4505   1
   1  29  12 14.0398 14.6513   1
   1   0  13 4.94006 4.33493   1
   2   0  13 7.39689 3.76512   1
   3   0  13 18.9683 3.84090   1
   4   0  13 7.14063 4.32836   1
   5   0  13 -4.6345 3.33914   1
   6   0  13 -11.101 4.63642   1
   8   0  13 12.6765 14.6296   1
   1   1  13 99.2939 5.06317  -3
   1   1  13 99.2939 5.06317   1
   1   1  13 119.561 6.32482  -3
   1   1  13 119.561 6.32482  -2
   1   1  13 119.561 6.32482   1
   2   1  13 96.0059 4.56980  -3
   2   1  13 96.0059 4.56980   1
   2   1  13 101.311 5.05309  -3
   2   1  13 101.311 5.05309  -2
   2   1  13 101.311 5.05309   1
   3   1  13 2500.09 52.3932  -3
   3   1  13 2500.09 52.3932  -2
   3   1  13 2500.09 52.3932   1
   3   1  13 2374.10 34.7983  -3
   3   1  13 2374.10 34.7983   1
   4   1  13 588.028 16.6483  -3
   4   1  13 588.028 16.6483  -2
   4   1  13 588.028 16.6483   1
   4   1  13 583.739 10.9589  -3
   4   1  13 583.739 10.9589   1
   4   1  13 536.743 28.2935  -2
   4   1  13 536.743 28.2935   1
   5   1  13 1092.89 41.3828  -2
   5   1  13 1092.89 41.3828   1
   5   1  13 1157.52 18.5378  -3
   5   1  13 1157.52 18.5378   1
   5   1  13 1107.05 43.8391  -3
   5   1  13 1107.05 43.8391  -2
   5   1  13 1107.05 43.8391   1
   6   1  13 3246.19 58.1259  -3
   6   1  13 3246.19 58.1259   1
   6   1  13 3126.89 111.819  -2
   6   1  13 3126.89 111.819   1
   6   1  13 3442.23 177.415  -3
   6   1  13 3442.23 177.415  -2
   6   1  13 3442.23 177.415   1
   7   1  13 24.8684 14.0539  -2
   7   1  13 24.8684 14.0539   1
   8   1  13 886.674 35.4262  -2
   8   1  13 886.674 35.4262   1
   9   1  13 21.0784 18.6162  -3
   9   2  13 21.0784 18.6162  -2
   9   1  13 21.0784 18.6162   1
   9   1  13 -17.936 18.3049  -3
   9   1  13 -17.936 18.3049   1
  10   1  13 71.2394 19.5169  -3
  10   2  13 71.2394 19.5169  -2
  10   1  13 71.2394 19.5169   1
  10   1  13 49.3423 18.9380  -3
  10   1  13 49.3423 18.9380   1
  11   1  13 45.0907 19.1270  -3
  11   2  13 45.0907 19.1270  -2
  11   1  13 45.0907 19.1270   1
   0   2  13 859.601 32.3321  -3
   0   2  13 859.601 32.3321   1
   1   2  13 19.1850 4.98476  -3
   1   2  13 19.1850 4.98476   1
   1   2  13 37.4457 6.57210  -3
   1   2  13 37.4457 6.57210  -2
   1   2  13 37.4457 6.57210   1
   2   2  13 81.7492 4.78109  -3
   2   2  13 81.7492 4.78109   1
   2   2  13 66.3720 6.24840  -3
   2   2  13 66.3720 6.24840  -2
   2   2  13 66.3720 6.24840   1
   3   2  13 8283.29 242.499  -3
   3   2  13 8283.29 242.499   1
   3   2  13 8693.47 254.292  -3
   3   2  13 8693.47 254.292  -2
   3   2  13 8693.47 254.292   1
   4   2  13 184.282 9.80460  -3
   4   2  13 184.282 9.80460  -2
   4   2  13 184.282 9.80460   1
   4   2  13 172.638 5.46637  -3
   4   2  13 172.638 5.46637   1
   4   2  13 177.423 13.0754  -2
   4   2  13 177.423 13.0754   1
   5   2  13 258.987 5.75731  -3
   5   2  13 258.987 5.75731   1
   5   2  13 242.955 11.9745  -3
   5   2  13 242.955 11.9745  -2
   5   2  13 242.955 11.9745   1
   5   2  13 231.023 8.70296  -2
   5   2  13 231.023 8.70296   1
   6   2  13 3903.31 115.608  -2
   6   2  13 3903.31 115.608   1
   6   2  13 4062.56 84.7786  -3
   6   2  13 4062.56 84.7786   1
   7   2  13 825.472 47.8860  -2
   7   2  13 825.472 47.8860   1
   8   2  13 270.965 16.4058  -2
   8   2  13 270.965 16.4058   1
   9   2  13 36.3331 20.2338  -3
   9   3  13 36.3331 20.2338  -2
   9   2  13 36.3331 20.2338   1
   9   2  13 49.4562 21.5226  -3
   9   1  13 49.4562 21.5226  -2
   9   2  13 49.4562 21.5226   1
   9   2  13 36.6853 14.1492  -2
   9   2  13 36.6853 14.1492   1
  10   2  13 55.7021 20.5263  -3
  10   1  13 55.7021 20.5263  -2
  10   2  13 55.7021 20.5263   1
  10   2  13 72.8994 20.1948  -3
  10   3  13 72.8994 20.1948  -2
  10   2  13 72.8994 20.1948   1
  11   2  13 22.4726 19.3214  -3
  11   1  13 22.4726 19.3214  -2
  11   2  13 22.4726 19.3214   1
  12   2  13 32.6015 10.6459   1
   0   3  13 -4.6115 5.23424   1
   1   3  13 222.004 6.61773  -3
   1   3  13 222.004 6.61773   1
   1   3  13 229.068 9.35879  -3
   1   3  13 229.068 9.35879  -2
   1   3  13 229.068 9.35879   1
   2   3  13 4945.27 102.757  -3
   2   3  13 4945.27 102.757  -2
   2   3  13 4945.27 102.757   1
   2   3  13 4488.12 71.5519  -3
   2   3  13 4488.12 71.5519   1
   3   3  13 803.225 12.9190  -3
   3   3  13 803.225 12.9190   1
   3   3  13 847.870 22.6312  -3
   3   3  13 847.870 22.6312  -2
   3   3  13 847.870 22.6312   1
   3   3  13 782.981 39.5094  -2
   3   3  13 782.981 39.5094   1
   4   3  13 2014.39 31.3610  -3
   4   3  13 2014.39 31.3610   1
   4   3  13 2135.02 56.5950  -3
   4   3  13 2135.02 56.5950  -2
   4   3  13 2135.02 56.5950   1
   4   3  13 2024.17 73.0286  -2
   4   3  13 2024.17 73.0286   1
   5   3  13 21.9917 13.8191  -3
   5   3  13 21.9917 13.8191  -2
   5   3  13 21.9917 13.8191   1
   5   3  13 8.53608 3.34492  -3
   5   3  13 8.53608 3.34492   1
   5   3  13 15.8391 6.23452  -2
   5   3  13 15.8391 6.23452   1
   6   3  13 901.822 52.5849  -3
   6   3  13 901.822 52.5849  -2
   6   3  13 901.822 52.5849   1
   6   3  13 900.154 15.4259  -3
   6   3  13 900.154 15.4259   1
   6   3  13 859.790 28.8292  -2
   6   3  13 859.790 28.8292   1
   7   3  13 5928.98 172.198  -2
   7   3  13 5928.98 172.198   1
   7   3  13 5978.49 215.493  -3
   7   3  13 5978.49 215.493   1
   8   3  13 156.744 13.5048  -2
   8   3  13 156.744 13.5048   1
   9   3  13 371.441 30.8124  -3
   9   4  13 371.441 30.8124  -2
   9   3  13 371.441 30.8124   1
   9   3  13 321.664 16.7729  -2
   9   3  13 321.664 16.7729   1
  10   3  13 286.884 20.9969  -2
  10   3  13 286.884 20.9969   1
  10   3  13 287.552 28.6627  -3
  10   2  13 287.552 28.6627  -2
  10   3  13 287.552 28.6627   1
  10   3  13 285.841 26.9443  -3
  10   4  13 285.841 26.9443  -2
  10   3  13 285.841 26.9443   1
  11   3  13 15.3908 21.1171  -3
  11   2  13 15.3908 21.1171  -2
  11   3  13 15.3908 21.1171   1
  12   3  13 86.0036 14.1855   1
  13   3  13 7.54646 7.56153   1
   0   4  13 5073.28 175.775  -3
   0   4  13 5073.28 175.775   1
   1   4  13 780.440 14.5388  -3
   1   4  13 780.440 14.5388   1
   1   4  13 815.231 22.2153  -3
   1   4  13 815.231 22.2153  -2
   1   4  13 815.231 22.2153   1
   2   4  13 1675.32 31.9532  -3
   2   4  13 1675.32 31.9532  -2
   2   4  13 1675.32 31.9532   1
   2   4  13 1551.82 25.9053  -3
   2   4  13 1551.82 25.9053   1
   3   4  13 117.533 10.7577  -2
   3   4  13 117.533 10.7577   1
   3   4  13 117.925 4.32970  -3
   3   4  13 117.925 4.32970   1
   3   4  13 137.713 9.63880  -3
   3   4  13 137.713 9.63880  -2
   3   4  13 137.713 9.63880   1
   4   4  13 607.362 19.8460  -2
   4   4  13 607.362 19.8460   1
   4   4  13 579.830 9.96241  -3
   4   4  13 579.830 9.96241   1
   4   4  13 598.391 18.0875  -3
   4   4  13 598.391 18.0875  -2
   4   4  13 598.391 18.0875   1
   5   4  13 3.78329 3.44572  -3
   5   4  13 3.78329 3.44572   1
   5   4  13 20.7695 5.24729  -2
   5   4  13 20.7695 5.24729   1
   5   4  13 23.1824 19.3364  -3
   5   4  13 23.1824 19.3364  -2
   5   4  13 23.1824 19.3364   1
   6   4  13 157.039 5.47466  -3
   6   4  13 157.039 5.47466   1
   6   4  13 157.991 11.9227  -2
   6   4  13 157.991 11.9227   1
   7   4  13 1047.47 29.7843  -2
   7   4  13 1047.47 29.7843   1
   7   4  13 1061.54 30.4318  -3
   7   4  13 1061.54 30.4318   1
   8   4  13 61.9522 11.5921  -2
   8   4  13 61.9522 11.5921   1
   9   4  13 817.830 33.3097  -2
   9   4  13 817.830 33.3097   1
  10   4  13 -1.9588 11.9370  -2
  10   4  13 -1.9588 11.9370   1
  11   5  13 613.941 42.3947  -3
  11   4  13 613.941 42.3947  -2
  11   4  13 613.941 42.3947   1
  11   4  13 656.832 44.1035  -3
  11   3  13 656.832 44.1035  -2
  11   4  13 656.832 44.1035   1
  12   5  13 204.229 21.2105  -2
  12   4  13 204.229 21.2105   1
   0   5  13 -3.7260 5.19168   1
   1   5  13 1936.43 46.0932  -3
   1   5  13 1936.43 46.0932  -2
   1   5  13 1936.43 46.0932   1
   1   5  13 1731.60 27.6028  -3
   1   5  13 1731.60 27.6028   1
   2   5  13 1302.15 27.8280  -3
   2   5  13 1302.15 27.8280  -2
   2   5  13 1302.15 27.8280   1
   2   5  13 1165.27 18.2493  -3
   2   5  13 1165.27 18.2493   1
   2   5  13 1144.46 58.7345  -2
   2   5  13 1144.46 58.7345   1
   3   5  13 862.765 13.3849  -3
   3   5  13 862.765 13.3849   1
   3   5  13 915.414 20.8729  -3
   3   5  13 915.414 20.8729  -2
   3   5  13 915.414 20.8729   1
   3   5  13 838.600 31.2123  -2
   3   5  13 838.600 31.2123   1
   4   5  13 261.591 5.84969  -3
   4   5  13 261.591 5.84969   1
   4   5  13 258.574 11.6571  -2
   4   5  13 258.574 11.6571   1
   4   5  13 268.143 16.6465  -3
   4   5  13 268.143 16.6465  -2
   4   5  13 268.143 16.6465   1
   5   5  13 14.1873 3.70825  -3
   5   5  13 14.1873 3.70825   1
   5   5  13 15.3515 6.22866  -2
   5   5  13 15.3515 6.22866   1
   6   5  13 1812.82 47.0517  -2
   6   5  13 1812.82 47.0517   1
   6   5  13 1821.06 30.2462  -3
   6   5  13 1821.06 30.2462   1
   7   5  13 633.007 23.4248  -2
   7   5  13 633.007 23.4248   1
   7   5  13 561.777 19.0132  -3
   7   5  13 561.777 19.0132   1
   8   5  13 1154.04 37.1867  -2
   8   5  13 1154.04 37.1867   1
   8   5  13 1113.21 64.5329  -3
   8   5  13 1113.21 64.5329   1
   9   5  13 98.8259 13.3709  -2
   9   5  13 98.8259 13.3709   1
  10   5  13 24.3752 12.5556  -2
  10   5  13 24.3752 12.5556   1
  11   6  13 83.3234 27.4129  -3
  11   5  13 83.3234 27.4129  -2
  11   5  13 83.3234 27.4129   1
  12   5  13 251.648 13.9408   1
   0   6  13 1434.59 31.5468  -3
   0   6  13 1434.59 31.5468   1
   1   6  13 2181.90 34.3642  -3
   1   6  13 2181.90 34.3642   1
   1   6  13 2442.17 90.0296  -3
   1   6  13 2442.17 90.0296  -2
   1   6  13 2442.17 90.0296   1
   1   6  13 2215.09 113.147  -2
   1   6  13 2215.09 113.147   1
   2   6  13 73.0991 4.77533  -3
   2   6  13 73.0991 4.77533   1
   2   6  13 76.0252 9.37043  -3
   2   6  13 76.0252 9.37043  -2
   2   6  13 76.0252 9.37043   1
   2   6  13 66.3963 10.4902  -2
   2   6  13 66.3963 10.4902   1
   3   6  13 71.9718 4.34704  -3
   3   6  13 71.9718 4.34704   1
   3   6  13 90.9539 11.6935  -3
   3   6  13 90.9539 11.6935  -2
   3   6  13 90.9539 11.6935   1
   3   6  13 77.5648 7.85068  -2
   3   6  13 77.5648 7.85068   1
   4   6  13 18.9784 3.78555  -3
   4   6  13 18.9784 3.78555   1
   4   6  13 3.13336 7.23829  -2
   4   6  13 3.13336 7.23829   1
   4   6  13 14.9418 24.5517  -3
   4   6  13 14.9418 24.5517  -2
   4   6  13 14.9418 24.5517   1
   5   6  13 87.1357 5.07882  -3
   5   6  13 87.1357 5.07882   1
   5   6  13 81.7922 7.30835  -2
   5   6  13 81.7922 7.30835   1
   6   6  13 87.8533 5.60183  -3
   6   6  13 87.8533 5.60183   1
   6   6  13 100.760 8.37654  -2
   6   6  13 100.760 8.37654   1
   7   6  13 13.9466 11.1678  -3
   7   6  13 13.9466 11.1678   1
   7   6  13 20.7353 13.9909  -2
   7   6  13 20.7353 13.9909   1
   8   6  13 542.428 26.0196  -2
   8   6  13 542.428 26.0196   1
   8   6  13 538.047 26.9576  -3
   8   6  13 538.047 26.9576   1
   9   6  13 18.2910 14.0628  -3
   9   6  13 18.2910 14.0628   1
   9   6  13 27.3650 12.8155  -2
   9   6  13 27.3650 12.8155   1
  10   7  13 41.8916 29.8422  -3
  10   6  13 41.8916 29.8422  -2
  10   6  13 41.8916 29.8422   1
  10   6  13 31.2114 14.4014  -2
  10   6  13 31.2114 14.4014   1
  11   7  13 108.656 29.5946  -3
  11   6  13 108.656 29.5946  -2
  11   6  13 108.656 29.5946   1
  12   6  13 201.833 13.0361   1
   0   7  13 0.79477 5.49046   1
   1   7  13 1052.21 17.2118  -3
   1   7  13 1052.21 17.2118   1
   1   7  13 980.746 55.3160  -2
   1   7  13 980.746 55.3160   1
   2   7  13 2260.50 32.4183  -3
   2   7  13 2260.50 32.4183   1
   2   7  13 2419.13 64.2158  -3
   2   7  13 2419.13 64.2158  -2
   2   7  13 2419.13 64.2158   1
   2   7  13 2226.86 78.5279  -2
   2   7  13 2226.86 78.5279   1
   3   7  13 1239.36 18.6493  -3
   3   7  13 1239.36 18.6493   1
   3   7  13 1232.00 73.2152  -3
   3   7  13 1232.00 73.2152  -2
   3   7  13 1232.00 73.2152   1
   3   7  13 1220.72 27.2997  -2
   3   7  13 1220.72 27.2997   1
   4   7  13 172.522 5.68293  -3
   4   7  13 172.522 5.68293   1
   4   7  13 178.728 9.91995  -2
   4   7  13 178.728 9.91995   1
   5   7  13 115.181 7.81657  -2
   5   7  13 115.181 7.81657   1
   5   7  13 120.882 5.66064  -3
   5   7  13 120.882 5.66064   1
   6   7  13 269.359 12.9078  -2
   6   7  13 269.359 12.9078   1
   6   7  13 294.792 8.15706  -3
   6   7  13 294.792 8.15706   1
   7   7  13 1815.15 69.9082  -3
   7   7  13 1815.15 69.9082   1
   7   7  13 1660.15 64.0794  -2
   7   7  13 1660.15 64.0794   1
   8   7  13 56.7413 14.7592  -2
   8   7  13 56.7413 14.7592   1
   8   7  13 10.2100 14.9867  -3
   8   7  13 10.2100 14.9867   1
   9   7  13 60.5889 22.6217  -3
   9   7  13 60.5889 22.6217   1
   9   7  13 77.5745 14.3916  -2
   9   7  13 77.5745 14.3916   1
  10   7  13 261.759 18.2052  -2
  10   7  13 261.759 18.2052   1
  10   7  13 304.015 30.0426  -3
  10   7  13 304.015 30.0426   1
  11   7  13 190.740 10.1684   1
  12   7  13 141.851 12.8202   1
   0   8  13 7326.84 152.565  -3
   0   8  13 7326.84 152.565   1
   1   8  13 142.667 5.48977  -3
   1   8  13 142.667 5.48977   1
   2   8  13 165.232 5.67503  -3
   2   8  13 165.232 5.67503   1
   2   8  13 183.470 12.3920  -2
   2   8  13 183.470 12.3920   1
   3   8  13 665.204 11.1425  -3
   3   8  13 665.204 11.1425   1
   3   8  13 676.571 18.4895  -2
   3   8  13 676.571 18.4895   1
   4   8  13 52.1487 7.48175  -2
   4   8  13 52.1487 7.48175   1
   4   8  13 44.0471 4.99173  -3
   4   8  13 44.0471 4.99173   1
   5   8  13 67.3353 5.73833  -3
   5   8  13 67.3353 5.73833   1
   5   8  13 68.0627 8.21118  -2
   5   8  13 68.0627 8.21118   1
   6   8  13 1311.20 32.0036  -3
   6   8  13 1311.20 32.0036   1
   6   8  13 1229.47 70.9938  -2
   6   8  13 1229.47 70.9938   1
   7   8  13 71.2826 16.3417  -3
   7   8  13 71.2826 16.3417   1
   7   8  13 89.9185 25.0096  -2
   7   8  13 89.9185 25.0096   1
   8   8  13 284.436 30.9618  -2
   8   8  13 284.436 30.9618   1
   8   8  13 237.846 28.2366  -3
   8   8  13 237.846 28.2366   1
   9   8  13 189.853 17.8984  -2
   9   8  13 189.853 17.8984   1
   9   8  13 190.570 27.1151  -3
   9   8  13 190.570 27.1151   1
  10   8  13 305.726 31.9786  -2
  10   8  13 305.726 31.9786   1
  10   8  13 282.691 29.6180  -3
  10   8  13 282.691 29.6180   1
  11   8  13 425.974 14.5195   1
  12   8  13 83.8636 8.62762   1
   0   9  13 2.32214 5.64726   1
   1   9  13 621.761 10.9528  -3
   1   9  13 621.761 10.9528   1
   2   9  13 821.394 12.9024  -3
   2   9  13 821.394 12.9024   1
   2   9  13 828.780 29.3372  -2
   2   9  13 828.780 29.3372   1
   3   9  13 99.5222 5.34889  -3
   3   9  13 99.5222 5.34889   1
   3   9  13 163.641 16.3905  -2
   3   9  13 163.641 16.3905   1
   4   9  13 272.072 7.60458  -3
   4   9  13 272.072 7.60458   1
   4   9  13 256.938 12.4735  -2
   4   9  13 256.938 12.4735   1
   5   9  13 161.148 6.57819  -3
   5   9  13 161.148 6.57819   1
   5   9  13 196.419 16.4903  -2
   5   9  13 196.419 16.4903   1
   6   9  13 949.946 32.2771  -3
   6   9  13 949.946 32.2771   1
   6   9  13 891.977 56.2008  -2
   6   9  13 891.977 56.2008   1
   7   9  13 716.399 33.7775  -3
   7   9  13 716.399 33.7775   1
   7   9  13 742.415 49.6465  -2
   7   9  13 742.415 49.6465   1
   8   9  13 1156.30 68.7113  -3
   8   9  13 1156.30 68.7113   1
   8   9  13 1157.46 68.5996  -2
   8   9  13 1157.46 68.5996   1
   9   9  13 -17.603 24.7180  -2
   9   9  13 -17.603 24.7180   1
   9   9  13 -2.0691 23.5827  -3
   9   9  13 -2.0691 23.5827   1
  10   9  13 60.7850 26.7158  -2
  10   9  13 60.7850 26.7158   1
  11   9  13 117.754 8.22095   1
  12   9  13 8.87347 7.97248   1
   0  10  13 1568.25 35.5952  -3
   0  10  13 1568.25 35.5952   1
   1  10  13 879.860 14.0549  -3
   1  10  13 879.860 14.0549   1
   2  10  13 736.856 11.4132  -3
   2  10  13 736.856 11.4132   1
   3  10  13 11.7477 5.02263  -3
   3  10  13 11.7477 5.02263   1
   3  10  13 15.6860 19.2577  -2
   3  10  13 15.6860 19.2577   1
   4  10  13 49.8978 5.72752  -3
   4  10  13 49.8978 5.72752   1
   4  10  13 26.6678 18.5119  -2
   4  10  13 26.6678 18.5119   1
   5  10  13 223.269 8.58671  -3
   5  10  13 223.269 8.58671   1
   5  10  13 161.394 30.5308  -2
   5  10  13 161.394 30.5308   1
   6  10  13 71.0998 18.3644  -3
   6  10  13 71.0998 18.3644   1
   6  10  13 51.7222 26.1912  -2
   6  10  13 51.7222 26.1912   1
   7  10  13 71.2176 17.8935  -3
   7  10  13 71.2176 17.8935   1
   7  10  13 85.9706 27.1941  -2
   7  10  13 85.9706 27.1941   1
   8  10  13 819.194 54.0023  -3
   8  10  13 819.194 54.0023   1
   9  10  13 72.3648 27.3631  -2
   9  10  13 72.3648 27.3631   1
  10  10  13 50.4871 6.70607   1
  11  10  13 31.9256 5.95239   1
  12  10  13 92.2254 12.8355   1
   0  11  13 5.44675 5.36513   1
   1  11  13 16.4146 6.45591  -3
   1  11  13 16.4146 6.45591   1
   2  11  13 896.881 15.0232  -3
   2  11  13 896.881 15.0232   1
   3  11  13 1091.85 66.8084  -2
   3  11  13 1091.85 66.8084   1
   3  11  13 1127.44 16.8296  -3
   3  11  13 1127.44 16.8296   1
   4  11  13 74.0817 6.01606  -3
   4  11  13 74.0817 6.01606   1
   4  11  13 65.9869 26.6087  -2
   4  11  13 65.9869 26.6087   1
   5  11  13 280.441 12.8961  -3
   5  11  13 280.441 12.8961   1
   6  11  13 123.018 29.0589  -2
   6  11  13 123.018 29.0589   1
   6  11  13 66.3456 18.3952  -3
   6  11  13 66.3456 18.3952   1
   7  11  13 333.323 34.3924  -3
   7  11  13 333.323 34.3924   1
   8  11  13 130.675 30.7720  -2
   8  11  13 130.675 30.7720   1
   9  11  13 165.605 10.0317   1
  10  11  13 239.960 11.4917   1
  11  11  13 70.6029 8.45975   1
   0  12  13 148.660 12.9802  -3
   0  12  13 148.660 12.9802   1
   1  12  13 99.6724 7.23950  -3
   1  12  13 99.6724 7.23950   1
   2  12  13 85.4807 8.26694  -3
   2  12  13 85.4807 8.26694   1
   3  12  13 414.368 10.1130  -3
   3  12  13 414.368 10.1130   1
   4  12  13 35.0768 9.79428  -3
   4  12  13 35.0768 9.79428   1
   5  12  13 569.602 23.9268  -3
   5  12  13 569.602 23.9268   1
   6  12  13 35.9683 18.4698  -3
   6  12  13 35.9683 18.4698   1
   7  12  13 1041.02 26.8758   1
   8  12  13 372.653 12.4622   1
   9  12  13 349.149 14.0558   1
  10  12  13 32.1838 6.56825   1
  11  12  13 251.178 20.7019   1
   0  13  13 -4.0731 5.74342   1
   1  13  13 403.249 11.5567  -3
   1  13  13 403.249 11.5567   1
   2  13  13 1230.22 25.7602  -3
   2  13  13 1230.22 25.7602   1
   3  13  13 134.165 10.4328  -3
   3  13  13 134.165 10.4328   1
   4  13  13 315.671 18.7336  -3
   4  13  13 315.671 18.7336   1
   5  13  13 559.520 24.2838  -3
   5  13  13 559.520 24.2838   1
   6  13  13 225.850 34.0189  -3
   6  13  13 225.850 34.0189   1
   7  13  13 24.1362 5.75911   1
   8  13  13 162.394 8.85176   1
   9  13  13 442.034 13.7897   1
  10  13  13 35.5670 6.79506   1
   0  14  13 245.866 17.6339  -3
   0  14  13 245.866 17.6339   1
   1  14  13 1395.46 27.8956  -3
   1  14  13 1395.46 27.8956   1
   2  14  13 233.064 14.3583  -3
   2  14  13 233.064 14.3583   1
   3  14  13 140.667 14.3447  -3
   3  14  13 140.667 14.3447   1
   4  14  13 -6.8997 30.5509  -3
   4  14  13 -6.8997 30.5509   1
   5  14  13 377.436 10.0239   1
   6  14  13 739.440 16.8170   1
   7  14  13 35.0767 6.17780   1
   8  14  13 174.175 9.25892   1
   9  14  13 14.7772 5.18424   1
  10  14  13 217.890 11.8680   1
   0  15  13 -9.3580 6.28455   1
   1  15  13 310.494 15.7258  -3
   1  15  13 310.494 15.7258   1
   2  15  13 1204.89 43.9133  -3
   2  15  13 1204.89 43.9133   1
   3  15  13 141.906 18.5571  -3
   3  15  13 141.906 18.5571   1
   4  15  13 521.690 46.8909  -3
   4  15  13 521.690 46.8909   1
   5  15  13 127.642 6.45010   1
   6  15  13 20.4445 3.64365   1
   7  15  13 198.374 10.2591   1
   8  15  13 9.34604 5.46923   1
   9  15  13 24.1252 5.61544   1
  10  15  13 42.1691 16.5568   1
   0  16  13 991.410 48.0963  -3
   0  16  13 991.410 48.0963   1
   1  16  13 251.819 38.9188  -3
   1  16  13 251.819 38.9188   1
   2  16  13 2216.60 86.1577  -3
   2  16  13 2216.60 86.1577   1
   3  16  13 57.6135 27.3975  -3
   3  16  13 57.6135 27.3975   1
   4  16  13 1.86401 3.70870   1
   5  16  13 122.883 6.92367   1
   6  16  13 416.622 10.3948   1
   7  16  13 276.948 9.92466   1
   8  16  13 73.8520 7.49276   1
   9  16  13 28.3995 6.08966   1
  10  16  13 91.1976 11.1018   1
   0  17  13 23.1135 5.94232   1
   1  17  13 194.683 6.70921   1
   2  17  13 2944.87 42.6366   1
   3  17  13 20.1636 29.9929  -3
   3  17  13 20.1636 29.9929   1
   4  17  13 57.1889 4.76062   1
   5  17  13 42.8007 5.44018   1
   6  17  13 159.935 7.40638   1
   7  17  13 365.869 10.3465   1
   8  17  13 88.9215 8.03528   1
   9  17  13 4.78134 5.93100   1
  10  17  13 60.3906 10.8733   1
   0  18  13 97.4714 8.65297   1
   1  18  13 73.8253 4.93147   1
   2  18  13 880.822 16.1957   1
   3  18  13 65.0484 29.8103  -3
   3  18  13 65.0484 29.8103   1
   4  18  13 57.5889 4.85892   1
   5  18  13 9.24754 5.25270   1
   6  18  13 787.867 18.4045   1
   7  18  13 176.882 7.42345   1
   8  18  13 41.0143 6.91666   1
   9  18  13 204.552 19.7050   1
   0  19  13 16.0366 6.87382   1
   1  19  13 6.20383 4.49863   1
   2  19  13 510.986 11.3087   1
   3  19  13 68.9828 5.30571   1
   4  19  13 611.250 13.5696   1
   5  19  13 89.8278 7.35400   1
   6  19  13 192.578 8.51710   1
   7  19  13 110.150 6.33036   1
   8  19  13 32.4388 7.15899   1
   9  19  13 15.4540 24.4529   1
   0  20  13 76.9201 8.39323   1
   1  20  13 215.816 8.91105   1
   2  20  13 317.611 9.09340   1
   3  20  13 242.933 8.09144   1
   4  20  13 189.227 7.52274   1
   5  20  13 44.1056 6.28622   1
   6  20  13 98.2578 7.32096   1
   7  20  13 23.3886 3.92386   1
   8  20  13 44.0680 13.4534   1
   0  21  13 -1.1651 6.79324   1
   1  21  13 108.616 7.14080   1
   2  21  13 249.036 8.76502   1
   3  21  13 134.330 7.22403   1
   4  21  13 40.4334 5.03464   1
   5  21  13 59.9094 6.96815   1
   6  21  13 26.7914 5.78457   1
   7  21  13 240.106 8.54069   1
   8  21  13 21.8591 12.2592   1
   0  22  13 49.1721 9.48704   1
   1  22  13 57.6088 6.27854   1
   2  22  13 264.532 9.08850   1
   3  22  13 287.570 9.42389   1
   4  22  13 30.2976 4.83497   1
   5  22  13 206.684 10.7955   1
   6  22  13 271.995 11.2586   1
   7  22  13 28.8496 5.93958   1
   8  22  13 211.138 14.0250   1
   0  23  13 -4.4193 8.05821   1
   1  23  13 133.689 7.90167   1
   2  23  13 534.926 13.0893   1
   3  23  13 41.7035 5.45729   1
   4  23  13 117.824 7.02400   1
   5  23  13 37.5498 7.44644   1
   6  23  13 23.9633 9.41599   1
   7  23  13 207.385 11.1463   1
   0  24  13 141.586 12.9580   1
   1  24  13 83.4443 7.74433   1
   2  24  13 121.517 7.51386   1
   3  24  13 43.5196 5.64852   1
   4  24  13 33.4887 8.99597   1
   5  24  13 148.643 16.1700   1
   6  24  13 16.2779 15.4218   1
   7  24  13 104.442 13.7718   1
   0  25  13 20.2179 9.15713   1
   1  25  13 49.5372 7.45039   1
   2  25  13 14.1882 6.63982   1
   3  25  13 237.975 11.0907   1
   4  25  13 162.274 13.3727   1
   5  25  13 23.1065 13.1723   1
   6  25  13 6.59632 21.6527   1
   7  25  13 62.1861 21.8309   1
   0  26  13 43.4905 13.7413   1
   1  26  13 15.6925 7.68689   1
   2  26  13 67.7329 10.7746   1
   3  26  13 48.0117 9.82844   1
   4  26  13 59.2069 10.0035   1
   0  27  13 0.21390 11.8032   1
   1  27  13 37.5039 11.8057   1
   3  27  13 110.750 16.5743   1
   4  27  13 46.5676 9.92334   1
   0  28  13 504.892 41.8727   1
   1  28  13 129.564 18.6879   1
   1   0  14 352.595 11.7064  -3
   1   0  14 352.595 11.7064   1
   1   0  14 408.215 13.4531  -3
   1   0  14 408.215 13.4531  -2
   1   0  14 408.215 13.4531   1
   2   0  14 1214.47 24.6597  -3
   2   0  14 1214.47 24.6597  -2
   2   0  14 1214.47 24.6597   1
   2   0  14 1164.24 28.1413  -3
   2   0  14 1164.24 28.1413   1
   3   0  14 3447.03 101.651  -3
   3   0  14 3447.03 101.651  -2
   3   0  14 3447.03 101.651   1
   3   0  14 3165.92 65.1114  -3
   3   0  14 3165.92 65.1114   1
   4   0  14 116.262 11.2902  -3
   4   0  14 116.262 11.2902  -2
   4   0  14 116.262 11.2902   1
   4   0  14 123.617 6.54461  -3
   4   0  14 123.617 6.54461   1
   5   0  14 503.879 13.9138  -3
   5   0  14 503.879 13.9138   1
   5   0  14 486.353 20.8627  -2
   5   0  14 486.353 20.8627   1
   5   0  14 550.546 25.8118  -3
   5   0  14 550.546 25.8118  -2
   5   0  14 550.546 25.8118   1
   6   0  14 517.100 18.4495  -3
   6   0  14 517.100 18.4495   1
   6   0  14 495.710 17.7763  -2
   6   0  14 495.710 17.7763   1
   7   0  14 1030.91 57.5880  -2
   7   0  14 1030.91 57.5880   1
   8   0  14 437.107 29.7359  -2
   8   0  14 437.107 29.7359   1
   9   0  14 321.407 28.4033  -3
   9   1  14 321.407 28.4033  -2
   9   0  14 321.407 28.4033   1
  10   0  14 111.314 21.1575  -3
  10   1  14 111.314 21.1575  -2
  10   0  14 111.314 21.1575   1
   1   1  14 308.630 9.36302  -3
   1   1  14 308.630 9.36302  -2
   1   1  14 308.630 9.36302   1
   1   1  14 300.090 7.66748  -3
   1   1  14 300.090 7.66748   1
   2   1  14 270.237 6.74830  -3
   2   1  14 270.237 6.74830   1
   2   1  14 272.911 6.67809  -3
   2   1  14 272.911 6.67809  -2
   2   1  14 272.911 6.67809   1
   3   1  14 35.2750 6.73402  -3
   3   1  14 35.2750 6.73402  -2
   3   1  14 35.2750 6.73402   1
   3   1  14 28.4192 3.37471  -3
   3   1  14 28.4192 3.37471   1
   4   1  14 146.108 5.00096  -3
   4   1  14 146.108 5.00096   1
   4   1  14 150.221 10.9471  -3
   4   1  14 150.221 10.9471  -2
   4   1  14 150.221 10.9471   1
   4   1  14 129.861 11.5277  -2
   4   1  14 129.861 11.5277   1
   5   1  14 39.7703 4.52062  -2
   5   1  14 39.7703 4.52062   1
   5   1  14 38.9624 10.8154  -3
   5   1  14 38.9624 10.8154  -2
   5   1  14 38.9624 10.8154   1
   5   1  14 32.4903 3.75544  -3
   5   1  14 32.4903 3.75544   1
   6   1  14 3566.04 127.524  -2
   6   1  14 3566.04 127.524   1
   6   1  14 3709.47 76.5499  -3
   6   1  14 3709.47 76.5499   1
   6   1  14 3830.96 197.289  -3
   6   1  14 3830.96 197.289  -2
   6   1  14 3830.96 197.289   1
   7   1  14 901.451 51.5647  -2
   7   1  14 901.451 51.5647   1
   8   1  14 691.154 29.0874  -2
   8   1  14 691.154 29.0874   1
   9   1  14 236.590 25.2132  -3
   9   2  14 236.590 25.2132  -2
   9   1  14 236.590 25.2132   1
   9   1  14 251.224 26.3051  -3
   9   0  14 251.224 26.3051  -2
   9   1  14 251.224 26.3051   1
  10   1  14 186.159 23.3561  -3
  10   2  14 186.159 23.3561  -2
  10   1  14 186.159 23.3561   1
  10   1  14 49.9907 20.3570  -3
  10   0  14 49.9907 20.3570  -2
  10   1  14 49.9907 20.3570   1
  11   1  14 203.418 24.9345  -3
  11   0  14 203.418 24.9345  -2
  11   1  14 203.418 24.9345   1
  11   1  14 117.658 22.1526  -3
  11   2  14 117.658 22.1526  -2
  11   1  14 117.658 22.1526   1
   0   2  14 397.501 18.1054  -3
   0   2  14 397.501 18.1054   1
   1   2  14 971.307 18.3826  -3
   1   2  14 971.307 18.3826   1
   1   2  14 1082.79 22.9226  -3
   1   2  14 1082.79 22.9226  -2
   1   2  14 1082.79 22.9226   1
   2   2  14 3370.76 54.3284  -3
   2   2  14 3370.76 54.3284  -2
   2   2  14 3370.76 54.3284   1
   2   2  14 3092.15 52.3230  -3
   2   2  14 3092.15 52.3230   1
   3   2  14 213.327 7.34669  -3
   3   2  14 213.327 7.34669  -2
   3   2  14 213.327 7.34669   1
   3   2  14 185.191 4.86758  -3
   3   2  14 185.191 4.86758   1
   4   2  14 465.502 8.89321  -3
   4   2  14 465.502 8.89321   1
   4   2  14 476.801 13.7248  -3
   4   2  14 476.801 13.7248  -2
   4   2  14 476.801 13.7248   1
   4   2  14 457.918 25.6094  -2
   4   2  14 457.918 25.6094   1
   5   2  14 352.829 7.48870  -3
   5   2  14 352.829 7.48870   1
   5   2  14 329.751 11.1001  -2
   5   2  14 329.751 11.1001   1
   5   2  14 359.812 16.8090  -3
   5   2  14 359.812 16.8090  -2
   5   2  14 359.812 16.8090   1
   6   2  14 378.047 8.55100  -3
   6   2  14 378.047 8.55100   1
   6   2  14 363.483 13.1340  -2
   6   2  14 363.483 13.1340   1
   6   2  14 390.102 30.1192  -3
   6   2  14 390.102 30.1192  -2
   6   2  14 390.102 30.1192   1
   7   2  14 1262.50 48.9519  -2
   7   2  14 1262.50 48.9519   1
   8   2  14 292.650 16.3367  -2
   8   2  14 292.650 16.3367   1
   9   2  14 51.1090 21.6418  -3
   9   3  14 51.1090 21.6418  -2
   9   2  14 51.1090 21.6418   1
   9   2  14 36.4985 14.9472  -2
   9   2  14 36.4985 14.9472   1
   9   2  14 53.3792 22.5247  -3
   9   1  14 53.3792 22.5247  -2
   9   2  14 53.3792 22.5247   1
  10   2  14 2253.73 119.922  -3
  10   1  14 2253.73 119.922  -2
  10   2  14 2253.73 119.922   1
  10   2  14 2536.02 133.262  -3
  10   3  14 2536.02 133.262  -2
  10   2  14 2536.02 133.262   1
  11   2  14 177.231 24.0253  -3
  11   1  14 177.231 24.0253  -2
  11   2  14 177.231 24.0253   1
  13   2  14 62.2591 10.8834   1
   0   3  14 -3.2488 9.00368   1
   1   3  14 1456.96 27.7881  -3
   1   3  14 1456.96 27.7881   1
   1   3  14 1536.88 34.0986  -3
   1   3  14 1536.88 34.0986  -2
   1   3  14 1536.88 34.0986   1
   2   3  14 21.5789 7.65316  -3
   2   3  14 21.5789 7.65316  -2
   2   3  14 21.5789 7.65316   1
   2   3  14 25.8855 4.53329  -3
   2   3  14 25.8855 4.53329   1
   3   3  14 5024.64 84.6929  -3
   3   3  14 5024.64 84.6929   1
   3   3  14 5427.77 111.593  -3
   3   3  14 5427.77 111.593  -2
   3   3  14 5427.77 111.593   1
   4   3  14 90.5465 3.99836  -3
   4   3  14 90.5465 3.99836   1
   4   3  14 92.9663 9.48611  -3
   4   3  14 92.9663 9.48611  -2
   4   3  14 92.9663 9.48611   1
   4   3  14 100.559 10.1879  -2
   4   3  14 100.559 10.1879   1
   5   3  14 201.281 10.1084  -2
   5   3  14 201.281 10.1084   1
   5   3  14 204.808 14.3020  -3
   5   3  14 204.808 14.3020  -2
   5   3  14 204.808 14.3020   1
   5   3  14 195.760 5.33925  -3
   5   3  14 195.760 5.33925   1
   6   3  14 1833.80 31.8050  -3
   6   3  14 1833.80 31.8050   1
   6   3  14 1702.90 51.0498  -2
   6   3  14 1702.90 51.0498   1
   6   3  14 1925.87 102.852  -3
   6   3  14 1925.87 102.852  -2
   6   3  14 1925.87 102.852   1
   7   3  14 2219.75 82.6830  -2
   7   3  14 2219.75 82.6830   1
   8   3  14 344.560 18.1601  -2
   8   3  14 344.560 18.1601   1
   9   3  14 54.0611 21.6355  -3
   9   4  14 54.0611 21.6355  -2
   9   3  14 54.0611 21.6355   1
   9   3  14 32.4433 10.4355  -2
   9   3  14 32.4433 10.4355   1
   9   3  14 27.9996 23.4997  -3
   9   2  14 27.9996 23.4997  -2
   9   3  14 27.9996 23.4997   1
  10   3  14 -18.661 21.1618  -3
  10   4  14 -18.661 21.1618  -2
  10   3  14 -18.661 21.1618   1
  10   3  14 135.847 24.2482  -3
  10   2  14 135.847 24.2482  -2
  10   3  14 135.847 24.2482   1
  10   3  14 73.4492 14.6468  -2
  10   3  14 73.4492 14.6468   1
  11   3  14 -29.772 22.5785  -3
  11   2  14 -29.772 22.5785  -2
  11   3  14 -29.772 22.5785   1
  12   3  14 25.7588 21.4857  -3
  12   2  14 25.7588 21.4857  -2
  12   3  14 25.7588 21.4857   1
   1   4  14 1079.63 18.1164  -3
   1   4  14 1079.63 18.1164   1
   1   4  14 1167.10 29.5617  -3
   1   4  14 1167.10 29.5617  -2
   1   4  14 1167.10 29.5617   1
   3   4  14 562.463 9.85701  -3
   3   4  14 562.463 9.85701   1
   3   4  14 560.338 29.9691  -2
   3   4  14 560.338 29.9691   1
   3   4  14 601.302 16.7591  -3
   3   4  14 601.302 16.7591  -2
   3   4  14 601.302 16.7591   1
   4   4  14 2417.75 57.2316  -3
   4   4  14 2417.75 57.2316  -2
   4   4  14 2417.75 57.2316   1
   4   4  14 2369.23 35.0212  -3
   4   4  14 2369.23 35.0212   1
   4   4  14 2290.05 80.6261  -2
   4   4  14 2290.05 80.6261   1
   5   4  14 230.166 8.71597  -2
   5   4  14 230.166 8.71597   1
   5   4  14 223.304 5.67808  -3
   5   4  14 223.304 5.67808   1
   5   4  14 255.704 19.8295  -3
   5   4  14 255.704 19.8295  -2
   5   4  14 255.704 19.8295   1
   6   4  14 2048.76 33.7614  -3
   6   4  14 2048.76 33.7614   1
   6   4  14 1927.35 50.2333  -2
   6   4  14 1927.35 50.2333   1
   6   4  14 2032.49 108.626  -3
   6   4  14 2032.49 108.626  -2
   6   4  14 2032.49 108.626   1
   7   4  14 70.3759 13.6411  -2
   7   4  14 70.3759 13.6411   1
   7   4  14 46.2580 13.0516  -3
   7   4  14 46.2580 13.0516   1
   8   4  14 86.3177 12.2510  -2
   8   4  14 86.3177 12.2510   1
   9   5  14 63.9768 25.6737  -3
   9   4  14 63.9768 25.6737  -2
   9   4  14 63.9768 25.6737   1
   9   4  14 76.4654 15.9484  -2
   9   4  14 76.4654 15.9484   1
  10   4  14 104.727 15.4007  -2
  10   4  14 104.727 15.4007   1
  11   5  14 267.500 30.8268  -3
  11   4  14 267.500 30.8268  -2
  11   4  14 267.500 30.8268   1
  11   4  14 265.216 29.7919  -3
  11   3  14 265.216 29.7919  -2
  11   4  14 265.216 29.7919   1
  12   5  14 64.4033 25.0473  -3
  12   4  14 64.4033 25.0473  -2
  12   4  14 64.4033 25.0473   1
  12   5  14 61.0385 18.4061  -2
  12   4  14 61.0385 18.4061   1
   0   5  14 -5.2904 5.24269   1
   1   5  14 495.354 10.6941  -3
   1   5  14 495.354 10.6941   1
   1   5  14 518.166 21.7084  -3
   1   5  14 518.166 21.7084  -2
   1   5  14 518.166 21.7084   1
   2   5  14 5646.60 89.8191  -3
   2   5  14 5646.60 89.8191   1
   2   5  14 6059.65 116.533  -3
   2   5  14 6059.65 116.533  -2
   2   5  14 6059.65 116.533   1
   3   5  14 1015.50 21.1452  -3
   3   5  14 1015.50 21.1452  -2
   3   5  14 1015.50 21.1452   1
   3   5  14 966.503 35.6769  -2
   3   5  14 966.503 35.6769   1
   3   5  14 938.005 15.0597  -3
   3   5  14 938.005 15.0597   1
   4   5  14 1147.37 17.9824  -3
   4   5  14 1147.37 17.9824   1
   4   5  14 1212.90 34.9902  -3
   4   5  14 1212.90 34.9902  -2
   4   5  14 1212.90 34.9902   1
   4   5  14 1133.72 34.7067  -2
   4   5  14 1133.72 34.7067   1
   5   5  14 436.784 9.01555  -3
   5   5  14 436.784 9.01555   1
   5   5  14 446.525 14.3297  -2
   5   5  14 446.525 14.3297   1
   6   5  14 855.682 15.6477  -3
   6   5  14 855.682 15.6477   1
   6   5  14 791.875 20.5528  -2
   6   5  14 791.875 20.5528   1
   7   5  14 182.108 16.3008  -2
   7   5  14 182.108 16.3008   1
   7   5  14 139.673 16.4833  -3
   7   5  14 139.673 16.4833   1
   8   5  14 158.894 24.3660  -3
   8   5  14 158.894 24.3660   1
   8   5  14 147.458 15.1825  -2
   8   5  14 147.458 15.1825   1
   9   6  14 205.685 31.3460  -3
   9   5  14 205.685 31.3460  -2
   9   5  14 205.685 31.3460   1
   9   5  14 208.519 20.9309  -2
   9   5  14 208.519 20.9309   1
  10   5  14 263.402 22.0873  -2
  10   5  14 263.402 22.0873   1
  11   6  14 12.3596 27.6137  -3
  11   5  14 12.3596 27.6137  -2
  11   5  14 12.3596 27.6137   1
  12   6  14 224.780 22.5346  -2
  12   5  14 224.780 22.5346   1
   0   6  14 310.184 11.1098  -3
   0   6  14 310.184 11.1098   1
   1   6  14 1057.43 17.9322  -3
   1   6  14 1057.43 17.9322   1
   1   6  14 1151.22 46.8957  -3
   1   6  14 1151.22 46.8957  -2
   1   6  14 1151.22 46.8957   1
   2   6  14 93.7205 5.03506  -3
   2   6  14 93.7205 5.03506   1
   2   6  14 108.871 14.7209  -2
   2   6  14 108.871 14.7209   1
   2   6  14 104.006 9.20125  -3
   2   6  14 104.006 9.20125  -2
   2   6  14 104.006 9.20125   1
   3   6  14 117.890 4.79287  -3
   3   6  14 117.890 4.79287   1
   3   6  14 152.243 11.2554  -3
   3   6  14 152.243 11.2554  -2
   3   6  14 152.243 11.2554   1
   3   6  14 138.119 9.05224  -2
   3   6  14 138.119 9.05224   1
   4   6  14 6.37248 4.12321  -3
   4   6  14 6.37248 4.12321   1
   4   6  14 16.6922 8.06692  -2
   4   6  14 16.6922 8.06692   1
   4   6  14 -1.5613 25.3122  -3
   4   6  14 -1.5613 25.3122  -2
   4   6  14 -1.5613 25.3122   1
   5   6  14 143.139 5.80729  -3
   5   6  14 143.139 5.80729   1
   5   6  14 156.080 9.26978  -2
   5   6  14 156.080 9.26978   1
   6   6  14 132.086 6.20650  -3
   6   6  14 132.086 6.20650   1
   6   6  14 124.851 8.81329  -2
   6   6  14 124.851 8.81329   1
   7   6  14 46.9867 15.4794  -3
   7   6  14 46.9867 15.4794   1
   7   6  14 47.4516 14.3147  -2
   7   6  14 47.4516 14.3147   1
   8   6  14 723.923 32.1796  -2
   8   6  14 723.923 32.1796   1
   8   6  14 707.950 32.5558  -3
   8   6  14 707.950 32.5558   1
   9   6  14 326.236 20.8406  -3
   9   6  14 326.236 20.8406   1
   9   6  14 318.043 19.7063  -2
   9   6  14 318.043 19.7063   1
  10   7  14 25.6882 29.8284  -3
  10   6  14 25.6882 29.8284  -2
  10   6  14 25.6882 29.8284   1
  10   6  14 39.2396 16.0687  -2
  10   6  14 39.2396 16.0687   1
  11   6  14 20.4425 12.8505  -2
  11   6  14 20.4425 12.8505   1
  11   7  14 6.07038 28.4865  -3
  11   6  14 6.07038 28.4865  -2
  11   6  14 6.07038 28.4865   1
  12   7  14 35.8082 20.2071  -2
  12   6  14 35.8082 20.2071   1
   0   7  14 2.88005 5.04849   1
   1   7  14 336.833 27.8798  -2
   1   7  14 336.833 27.8798   1
   1   7  14 400.739 8.84674  -3
   1   7  14 400.739 8.84674   1
   2   7  14 98.5359 13.6734  -3
   2   7  14 98.5359 13.6734  -2
   2   7  14 98.5359 13.6734   1
   2   7  14 78.6696 5.00610  -3
   2   7  14 78.6696 5.00610   1
   2   7  14 81.3462 11.0438  -2
   2   7  14 81.3462 11.0438   1
   3   7  14 1227.42 18.5382  -3
   3   7  14 1227.42 18.5382   1
   3   7  14 1311.26 54.2303  -3
   3   7  14 1311.26 54.2303  -2
   3   7  14 1311.26 54.2303   1
   3   7  14 1172.21 32.0166  -2
   3   7  14 1172.21 32.0166   1
   4   7  14 35.6587 4.62445  -3
   4   7  14 35.6587 4.62445   1
   4   7  14 44.6071 9.15561  -2
   4   7  14 44.6071 9.15561   1
   5   7  14 59.5735 8.14055  -2
   5   7  14 59.5735 8.14055   1
   5   7  14 55.1206 5.34067  -3
   5   7  14 55.1206 5.34067   1
   6   7  14 186.410 8.17564  -3
   6   7  14 186.410 8.17564   1
   6   7  14 122.404 13.1158  -2
   6   7  14 122.404 13.1158   1
   7   7  14 22.3439 15.7100  -3
   7   7  14 22.3439 15.7100   1
   7   7  14 13.8726 11.8960  -2
   7   7  14 13.8726 11.8960   1
   8   7  14 1042.66 43.6525  -3
   8   7  14 1042.66 43.6525   1
   8   7  14 1019.91 42.1800  -2
   8   7  14 1019.91 42.1800   1
   9   7  14 110.328 15.4096  -2
   9   7  14 110.328 15.4096   1
   9   7  14 99.2719 23.9909  -3
   9   7  14 99.2719 23.9909   1
  10   7  14 26.0980 13.7086  -2
  10   7  14 26.0980 13.7086   1
  10   7  14 -3.2676 21.8960  -3
  10   7  14 -3.2676 21.8960   1
  11   8  14 35.4801 30.8546  -3
  11   7  14 35.4801 30.8546  -2
  11   7  14 35.4801 30.8546   1
  12   7  14 110.686 9.61155   1
   0   8  14 149.381 8.43082  -3
   0   8  14 149.381 8.43082   1
   1   8  14 221.806 6.34925  -3
   1   8  14 221.806 6.34925   1
   2   8  14 2847.28 36.7153  -3
   2   8  14 2847.28 36.7153   1
   2   8  14 2788.61 99.2946  -2
   2   8  14 2788.61 99.2946   1
   3   8  14 17.3341 4.86779  -3
   3   8  14 17.3341 4.86779   1
   3   8  14 30.7391 10.3951  -2
   3   8  14 30.7391 10.3951   1
   4   8  14 339.110 7.97466  -3
   4   8  14 339.110 7.97466   1
   4   8  14 337.762 11.9534  -2
   4   8  14 337.762 11.9534   1
   5   8  14 41.3355 5.65917  -3
   5   8  14 41.3355 5.65917   1
   5   8  14 35.1989 7.82246  -2
   5   8  14 35.1989 7.82246   1
   6   8  14 229.199 14.0303  -3
   6   8  14 229.199 14.0303   1
   6   8  14 229.459 28.7989  -2
   6   8  14 229.459 28.7989   1
   7   8  14 1658.91 92.3870  -2
   7   8  14 1658.91 92.3870   1
   7   8  14 1548.38 61.2782  -3
   7   8  14 1548.38 61.2782   1
   8   8  14 213.312 27.7742  -2
   8   8  14 213.312 27.7742   1
   8   8  14 268.400 29.3689  -3
   8   8  14 268.400 29.3689   1
   9   8  14 164.834 26.2573  -3
   9   8  14 164.834 26.2573   1
   9   8  14 155.400 17.1309  -2
   9   8  14 155.400 17.1309   1
  10   8  14 7.47094 25.6944  -2
  10   8  14 7.47094 25.6944   1
  10   8  14 -16.409 23.1971  -3
  10   8  14 -16.409 23.1971   1
  11   8  14 165.856 9.09067   1
  12   8  14 295.560 20.3457   1
   0   9  14 -3.5208 5.91762   1
   1   9  14 46.9434 5.73315  -3
   1   9  14 46.9434 5.73315   1
   2   9  14 896.489 13.4023  -3
   2   9  14 896.489 13.4023   1
   2   9  14 964.569 40.1957  -2
   2   9  14 964.569 40.1957   1
   3   9  14 88.5309 5.24245  -3
   3   9  14 88.5309 5.24245   1
   3   9  14 101.922 15.3271  -2
   3   9  14 101.922 15.3271   1
   4   9  14 221.541 12.0557  -2
   4   9  14 221.541 12.0557   1
   4   9  14 224.319 7.44494  -3
   4   9  14 224.319 7.44494   1
   5   9  14 804.555 14.8638  -3
   5   9  14 804.555 14.8638   1
   5   9  14 783.859 29.9294  -2
   5   9  14 783.859 29.9294   1
   6   9  14 176.333 13.8120  -3
   6   9  14 176.333 13.8120   1
   6   9  14 206.901 29.3242  -2
   6   9  14 206.901 29.3242   1
   7   9  14 770.644 51.5020  -2
   7   9  14 770.644 51.5020   1
   7   9  14 805.375 36.6683  -3
   7   9  14 805.375 36.6683   1
   8   9  14 639.349 45.5308  -2
   8   9  14 639.349 45.5308   1
   8   9  14 656.278 46.0731  -3
   8   9  14 656.278 46.0731   1
   9   9  14 91.3642 25.3812  -3
   9   9  14 91.3642 25.3812   1
   9   9  14 93.1307 26.7346  -2
   9   9  14 93.1307 26.7346   1
  10   9  14 121.401 28.4578  -2
  10   9  14 121.401 28.4578   1
  11   9  14 -2.5697 5.25689   1
  12   9  14 66.6405 10.7882   1
   0  10  14 786.775 20.7195  -3
   0  10  14 786.775 20.7195   1
   1  10  14 452.377 9.73369  -3
   1  10  14 452.377 9.73369   1
   2  10  14 214.717 6.66905  -3
   2  10  14 214.717 6.66905   1
   3  10  14 19.5790 5.02093  -3
   3  10  14 19.5790 5.02093   1
   4  10  14 1239.57 18.8888  -3
   4  10  14 1239.57 18.8888   1
   4  10  14 1230.60 51.8947  -2
   4  10  14 1230.60 51.8947   1
   5  10  14 112.479 9.70256  -3
   5  10  14 112.479 9.70256   1
   6  10  14 368.152 18.3809  -3
   6  10  14 368.152 18.3809   1
   6  10  14 386.087 37.0920  -2
   6  10  14 386.087 37.0920   1
   7  10  14 103.982 26.9919  -2
   7  10  14 103.982 26.9919   1
   7  10  14 118.963 18.8849  -3
   7  10  14 118.963 18.8849   1
   8  10  14 38.3855 27.5633  -2
   8  10  14 38.3855 27.5633   1
   8  10  14 49.3287 25.7188  -3
   8  10  14 49.3287 25.7188   1
   9  10  14 50.7683 25.7452  -3
   9  10  14 50.7683 25.7452   1
   9  10  14 40.9206 25.4853  -2
   9  10  14 40.9206 25.4853   1
  10  10  14 96.9338 8.20802   1
  11  10  14 40.2094 6.38593   1
   0  11  14 -2.0631 5.57843   1
   1  11  14 473.415 10.5245  -3
   1  11  14 473.415 10.5245   1
   2  11  14 96.3643 6.24127  -3
   2  11  14 96.3643 6.24127   1
   3  11  14 52.4632 5.45029  -3
   3  11  14 52.4632 5.45029   1
   4  11  14 20.7949 7.06897  -3
   4  11  14 20.7949 7.06897   1
   4  11  14 32.6796 26.7333  -2
   4  11  14 32.6796 26.7333   1
   5  11  14 1355.75 37.7511  -3
   5  11  14 1355.75 37.7511   1
   6  11  14 100.460 28.7345  -2
   6  11  14 100.460 28.7345   1
   6  11  14 64.8225 18.7306  -3
   6  11  14 64.8225 18.7306   1
   7  11  14 1338.57 79.0811  -3
   7  11  14 1338.57 79.0811   1
   7  11  14 1152.95 70.2033  -2
   7  11  14 1152.95 70.2033   1
   8  11  14 111.432 7.51209   1
   9  11  14 27.8833 6.31777   1
  10  11  14 5.83293 5.68744   1
  11  11  14 10.1185 7.36294   1
   0  12  14 36.1685 13.6056  -3
   0  12  14 36.1685 13.6056   1
   1  12  14 61.3198 7.12124  -3
   1  12  14 61.3198 7.12124   1
   2  12  14 2668.78 41.0803  -3
   2  12  14 2668.78 41.0803   1
   3  12  14 306.638 8.75270  -3
   3  12  14 306.638 8.75270   1
   4  12  14 75.7043 9.04558  -3
   4  12  14 75.7043 9.04558   1
   5  12  14 462.568 18.2718  -3
   5  12  14 462.568 18.2718   1
   6  12  14 377.081 25.8779  -3
   6  12  14 377.081 25.8779   1
   7  12  14 239.949 10.3181   1
   8  12  14 66.3326 6.22930   1
   9  12  14 101.902 6.86720   1
  10  12  14 80.2323 7.80850   1
   0  13  14 3.28298 5.16684   1
   1  13  14 246.640 10.5552  -3
   1  13  14 246.640 10.5552   1
   2  13  14 41.6358 9.90675  -3
   2  13  14 41.6358 9.90675   1
   3  13  14 960.841 22.9939  -3
   3  13  14 960.841 22.9939   1
   4  13  14 423.647 21.3611  -3
   4  13  14 423.647 21.3611   1
   5  13  14 648.954 32.1184  -3
   5  13  14 648.954 32.1184   1
   6  13  14 194.469 32.7834  -3
   6  13  14 194.469 32.7834   1
   7  13  14 24.9156 5.90164   1
   8  13  14 104.607 7.73989   1
   9  13  14 21.5904 5.23861   1
  10  13  14 20.2550 6.51544   1
   0  14  14 43.9869 15.9265  -3
   0  14  14 43.9869 15.9265   1
   1  14  14 298.929 12.1756  -3
   1  14  14 298.929 12.1756   1
   2  14  14 38.0540 12.1162  -3
   2  14  14 38.0540 12.1162   1
   3  14  14 35.2245 14.8314  -3
   3  14  14 35.2245 14.8314   1
   4  14  14 548.373 31.6036  -3
   4  14  14 548.373 31.6036   1
   5  14  14 21.4295 21.0008  -3
   5  14  14 21.4295 21.0008   1
   6  14  14 1747.72 32.6722   1
   7  14  14 -4.3289 5.40848   1
   8  14  14 242.474 10.5755   1
   9  14  14 -2.1288 5.10080   1
  10  14  14 153.713 10.8150   1
   0  15  14 5.83545 6.53793   1
   1  15  14 27.5416 14.5829  -3
   1  15  14 27.5416 14.5829   1
   2  15  14 27.6840 19.2020  -3
   2  15  14 27.6840 19.2020   1
   3  15  14 424.820 45.0551  -3
   3  15  14 424.820 45.0551   1
   4  15  14 114.008 33.9909  -3
   4  15  14 114.008 33.9909   1
   5  15  14 24.0331 4.45399   1
   6  15  14 19.3820 3.60364   1
   7  15  14 11.6096 4.51043   1
   8  15  14 236.661 10.8236   1
   9  15  14 7.68518 5.32889   1
   0  16  14 667.588 37.7481  -3
   0  16  14 667.588 37.7481   1
   1  16  14 1140.32 52.6309  -3
   1  16  14 1140.32 52.6309   1
   2  16  14 105.912 37.8931  -3
   2  16  14 105.912 37.8931   1
   3  16  14 969.101 61.4048  -3
   3  16  14 969.101 61.4048   1
   4  16  14 138.152 6.11716   1
   5  16  14 236.891 8.29335   1
   6  16  14 206.285 8.12413   1
   7  16  14 16.2827 3.74748   1
   8  16  14 18.8675 5.95724   1
   9  16  14 29.7443 6.23765   1
  10  16  14 72.1511 11.2778   1
   0  17  14 3.13514 5.55359   1
   1  17  14 2050.76 117.955  -3
   1  17  14 2050.76 117.955   1
   2  17  14 201.877 32.4484  -3
   2  17  14 201.877 32.4484   1
   3  17  14 26.6311 30.3192  -3
   3  17  14 26.6311 30.3192   1
   4  17  14 18.6946 4.15273   1
   5  17  14 359.811 12.0105   1
   6  17  14 46.6972 5.23063   1
   7  17  14 445.091 11.9118   1
   8  17  14 171.906 10.2386   1
   9  17  14 81.5795 9.81579   1
  10  17  14 -3.6872 8.34365   1
   0  18  14 75.3082 8.22066   1
   1  18  14 559.683 10.9567   1
   2  18  14 62.4396 4.97152   1
   3  18  14 1214.51 20.8809   1
   4  18  14 72.8797 5.34212   1
   5  18  14 199.777 9.40687   1
   6  18  14 99.2556 6.62618   1
   7  18  14 11.0485 4.21350   1
   8  18  14 45.5830 7.19010   1
   9  18  14 9.05676 13.1667   1
   0  19  14 5.95319 6.47462   1
   1  19  14 23.2346 4.55505   1
   2  19  14 1992.75 32.4139   1
   3  19  14 26.9791 4.53973   1
   4  19  14 20.9479 4.29268   1
   5  19  14 39.0332 6.23861   1
   6  19  14 45.5732 5.57581   1
   7  19  14 26.2002 4.69612   1
   8  19  14 645.266 26.9414   1
   0  20  14 231.768 12.0760   1
   1  20  14 15.2910 4.88558   1
   2  20  14 186.810 7.56225   1
   3  20  14 138.831 6.79795   1
   4  20  14 182.022 7.41475   1
   5  20  14 5.33511 5.45622   1
   6  20  14 6.80419 4.86042   1
   7  20  14 38.0565 4.38703   1
   8  20  14 20.3300 12.2246   1
   0  21  14 -0.6756 7.11937   1
   1  21  14 305.559 9.55144   1
   2  21  14 399.242 10.7912   1
   3  21  14 18.8891 4.97076   1
   4  21  14 6.44620 4.43265   1
   5  21  14 53.2757 6.82279   1
   6  21  14 66.1150 6.65171   1
   7  21  14 21.5109 4.45413   1
   8  21  14 174.448 20.4500   1
   0  22  14 340.986 17.4144   1
   1  22  14 8.75844 5.40159   1
   2  22  14 16.3441 5.10649   1
   3  22  14 104.065 7.24762   1
   4  22  14 98.2761 6.44521   1
   5  22  14 3.49927 5.93956   1
   6  22  14 163.443 10.5591   1
   7  22  14 242.658 11.4116   1
   8  22  14 326.629 17.7314   1
   0  23  14 -7.1024 8.19138   1
   1  23  14 71.8048 6.96729   1
   2  23  14 189.531 8.82057   1
   3  23  14 119.995 7.80426   1
   4  23  14 -3.1275 4.81971   1
   5  23  14 81.3222 12.5217   1
   6  23  14 27.3216 8.92648   1
   7  23  14 55.9000 8.88407   1
   0  24  14 16.2183 8.82732   1
   1  24  14 94.2794 8.06865   1
   2  24  14 26.2283 5.78851   1
   3  24  14 32.6874 5.42038   1
   4  24  14 36.8073 6.89057   1
   5  24  14 244.158 22.3199   1
   6  24  14 255.659 25.8803   1
   7  24  14 482.109 31.3127   1
   0  25  14 9.67911 9.14355   1
   1  25  14 727.156 21.7103   1
   2  25  14 33.0894 7.21708   1
   3  25  14 28.7693 10.7377   1
   4  25  14 29.9341 6.84075   1
   5  25  14 501.813 30.7976   1
   6  25  14 135.361 33.5598   1
   7  25  14 -13.392 18.7015   1
   0  26  14 12.3734 12.8783   1
   1  26  14 122.772 11.6123   1
   2  26  14 -7.4847 14.3651   1
   3  26  14 655.238 28.5312   1
   4  26  14 -1.0205 8.67634   1
   0  27  14 5.86320 12.7825   1
   1  27  14 524.220 25.0228   1
   3  27  14 -7.4072 13.2623   1
   4  27  14 83.7516 11.2592   1
   0  28  14 402.248 37.1587   1
   1  28  14 118.626 17.4624   1
   1   0  15 13.5052 6.10787   1
   2   0  15 13.6049 4.30207   1
   3   0  15 3.82924 4.68733   1
   4   0  15 7.40749 2.43560   1
   5   0  15 0.10317 4.17254   1
   6   0  15 -4.4736 3.99240   1
   7   0  15 4.48282 9.08944   1
   8   0  15 10.1272 15.7933   1
   1   1  15 305.410 9.43512  -3
   1   1  15 305.410 9.43512  -2
   1   1  15 305.410 9.43512   1
   1   1  15 286.686 7.60601  -3
   1   1  15 286.686 7.60601   1
   2   1  15 387.226 8.51747  -3
   2   1  15 387.226 8.51747   1
   2   1  15 413.423 8.43452  -3
   2   1  15 413.423 8.43452  -2
   2   1  15 413.423 8.43452   1
   3   1  15 2684.36 52.5712  -3
   3   1  15 2684.36 52.5712  -2
   3   1  15 2684.36 52.5712   1
   3   1  15 2511.78 40.7383  -3
   3   1  15 2511.78 40.7383   1
   4   1  15 659.092 10.8851  -3
   4   1  15 659.092 10.8851   1
   4   1  15 667.607 21.5759  -3
   4   1  15 667.607 21.5759  -2
   4   1  15 667.607 21.5759   1
   5   1  15 12.2225 9.85190  -3
   5   1  15 12.2225 9.85190  -2
   5   1  15 12.2225 9.85190   1
   5   1  15 10.8507 6.29443  -2
   5   1  15 10.8507 6.29443   1
   5   1  15 14.8032 3.84150  -3
   5   1  15 14.8032 3.84150   1
   6   1  15 93.4192 14.8345  -3
   6   1  15 93.4192 14.8345  -2
   6   1  15 93.4192 14.8345   1
   6   1  15 70.1400 4.87248  -3
   6   1  15 70.1400 4.87248   1
   6   1  15 78.9188 9.56089  -2
   6   1  15 78.9188 9.56089   1
   7   1  15 1272.06 49.4366  -2
   7   1  15 1272.06 49.4366   1
   7   1  15 1303.43 72.0819  -3
   7   1  15 1303.43 72.0819  -2
   7   1  15 1303.43 72.0819   1
   8   1  15 440.480 35.4752  -3
   8   1  15 440.480 35.4752   1
   8   1  15 469.123 36.0201  -3
   8   2  15 469.123 36.0201  -2
   8   1  15 469.123 36.0201   1
   8   1  15 505.699 33.0693  -2
   8   1  15 505.699 33.0693   1
   9   1  15 74.6054 16.3038  -2
   9   1  15 74.6054 16.3038   1
   9   1  15 100.165 22.1171  -3
   9   2  15 100.165 22.1171  -2
   9   1  15 100.165 22.1171   1
   9   1  15 33.9178 20.7471  -3
   9   1  15 33.9178 20.7471   1
  10   1  15 24.2716 21.0324  -3
  10   2  15 24.2716 21.0324  -2
  10   1  15 24.2716 21.0324   1
  10   1  15 6.21056 20.5865  -3
  10   1  15 6.21056 20.5865   1
  11   1  15 88.5681 22.7579  -3
  11   1  15 88.5681 22.7579   1
  11   1  15 71.1820 21.8643  -3
  11   2  15 71.1820 21.8643  -2
  11   1  15 71.1820 21.8643   1
  12   1  15 345.245 29.6900  -3
  12   1  15 345.245 29.6900   1
  13   1  15 16.0025 14.5333   1
   1   2  15 3981.78 71.5913  -3
   1   2  15 3981.78 71.5913  -2
   1   2  15 3981.78 71.5913   1
   1   2  15 3724.92 67.3041  -3
   1   2  15 3724.92 67.3041   1
   2   2  15 1024.32 18.3834  -3
   2   2  15 1024.32 18.3834  -2
   2   2  15 1024.32 18.3834   1
   2   2  15 927.256 17.3277  -3
   2   2  15 927.256 17.3277   1
   3   2  15 293.575 8.19310  -3
   3   2  15 293.575 8.19310  -2
   3   2  15 293.575 8.19310   1
   3   2  15 287.496 6.38260  -3
   3   2  15 287.496 6.38260   1
   4   2  15 1083.51 17.5757  -3
   4   2  15 1083.51 17.5757   1
   4   2  15 1140.84 26.4152  -3
   4   2  15 1140.84 26.4152  -2
   4   2  15 1140.84 26.4152   1
   4   2  15 1075.39 55.0132  -2
   4   2  15 1075.39 55.0132   1
   5   2  15 357.395 8.30559  -3
   5   2  15 357.395 8.30559   1
   5   2  15 365.348 15.0041  -3
   5   2  15 365.348 15.0041  -2
   5   2  15 365.348 15.0041   1
   5   2  15 333.178 15.3589  -2
   5   2  15 333.178 15.3589   1
   6   2  15 470.624 14.4811  -2
   6   2  15 470.624 14.4811   1
   6   2  15 499.573 11.1201  -3
   6   2  15 499.573 11.1201   1
   6   2  15 533.362 21.7579  -3
   6   2  15 533.362 21.7579  -2
   6   2  15 533.362 21.7579   1
   7   2  15 188.919 19.8970  -2
   7   2  15 188.919 19.8970   1
   8   2  15 15.6673 10.6890  -2
   8   2  15 15.6673 10.6890   1
   9   2  15 85.8830 11.2917  -2
   9   2  15 85.8830 11.2917   1
   9   2  15 26.5722 22.6574  -3
   9   1  15 26.5722 22.6574  -2
   9   2  15 26.5722 22.6574   1
   9   2  15 126.950 23.5483  -3
   9   3  15 126.950 23.5483  -2
   9   2  15 126.950 23.5483   1
  10   2  15 35.0455 22.3809  -3
  10   1  15 35.0455 22.3809  -2
  10   2  15 35.0455 22.3809   1
  10   2  15 28.1952 22.7421  -3
  10   3  15 28.1952 22.7421  -2
  10   2  15 28.1952 22.7421   1
  11   2  15 208.431 26.0571  -3
  11   1  15 208.431 26.0571  -2
  11   2  15 208.431 26.0571   1
   0   3  15 -5.2270 9.17914   1
   1   3  15 652.064 17.5892  -3
   1   3  15 652.064 17.5892  -2
   1   3  15 652.064 17.5892   1
   1   3  15 608.587 14.6046  -3
   1   3  15 608.587 14.6046   1
   2   3  15 33.5713 7.99946  -3
   2   3  15 33.5713 7.99946  -2
   2   3  15 33.5713 7.99946   1
   2   3  15 26.9693 4.83541  -3
   2   3  15 26.9693 4.83541   1
   3   3  15 133.155 4.50941  -3
   3   3  15 133.155 4.50941   1
   3   3  15 139.101 8.46034  -3
   3   3  15 139.101 8.46034  -2
   3   3  15 139.101 8.46034   1
   4   3  15 410.877 8.41293  -3
   4   3  15 410.877 8.41293   1
   4   3  15 392.763 14.0751  -3
   4   3  15 392.763 14.0751  -2
   4   3  15 392.763 14.0751   1
   5   3  15 20.0299 7.37842  -2
   5   3  15 20.0299 7.37842   1
   5   3  15 17.8843 10.6753  -3
   5   3  15 17.8843 10.6753  -2
   5   3  15 17.8843 10.6753   1
   5   3  15 17.4655 4.24837  -3
   5   3  15 17.4655 4.24837   1
   6   3  15 168.187 6.04052  -3
   6   3  15 168.187 6.04052   1
   6   3  15 185.728 17.8646  -3
   6   3  15 185.728 17.8646  -2
   6   3  15 185.728 17.8646   1
   6   3  15 171.253 9.81987  -2
   6   3  15 171.253 9.81987   1
   7   3  15 564.351 25.9656  -2
   7   3  15 564.351 25.9656   1
   8   3  15 21.8412 11.0842  -2
   8   3  15 21.8412 11.0842   1
   9   3  15 145.705 25.8069  -3
   9   4  15 145.705 25.8069  -2
   9   3  15 145.705 25.8069   1
   9   3  15 95.9195 11.9665  -2
   9   3  15 95.9195 11.9665   1
   9   3  15 133.609 25.8557  -3
   9   2  15 133.609 25.8557  -2
   9   3  15 133.609 25.8557   1
  10   3  15 6.46021 10.2387  -2
  10   3  15 6.46021 10.2387   1
  10   3  15 -8.4210 23.3060  -3
  10   2  15 -8.4210 23.3060  -2
  10   3  15 -8.4210 23.3060   1
  10   3  15 23.2850 23.0234  -3
  10   4  15 23.2850 23.0234  -2
  10   3  15 23.2850 23.0234   1
  11   3  15 73.5228 23.3476  -3
  11   4  15 73.5228 23.3476  -2
  11   3  15 73.5228 23.3476   1
  11   3  15 94.5433 24.7304  -3
  11   2  15 94.5433 24.7304  -2
  11   3  15 94.5433 24.7304   1
  12   3  15 174.537 25.2288  -3
  12   2  15 174.537 25.2288  -2
  12   3  15 174.537 25.2288   1
   0   4  15 1397.32 41.6724  -3
   0   4  15 1397.32 41.6724   1
   1   4  15 2736.42 50.1662  -3
   1   4  15 2736.42 50.1662   1
   1   4  15 2984.81 89.4565  -3
   1   4  15 2984.81 89.4565  -2
   1   4  15 2984.81 89.4565   1
   2   4  15 886.061 22.2282  -3
   2   4  15 886.061 22.2282  -2
   2   4  15 886.061 22.2282   1
   2   4  15 806.866 14.1308  -3
   2   4  15 806.866 14.1308   1
   3   4  15 29.9969 7.16530  -3
   3   4  15 29.9969 7.16530  -2
   3   4  15 29.9969 7.16530   1
   3   4  15 25.5044 3.84495  -3
   3   4  15 25.5044 3.84495   1
   3   4  15 39.9821 9.67381  -2
   3   4  15 39.9821 9.67381   1
   4   4  15 55.9558 9.12319  -3
   4   4  15 55.9558 9.12319  -2
   4   4  15 55.9558 9.12319   1
   4   4  15 52.9106 4.00441  -3
   4   4  15 52.9106 4.00441   1
   4   4  15 39.7842 12.5813  -2
   4   4  15 39.7842 12.5813   1
   5   4  15 153.944 5.37831  -3
   5   4  15 153.944 5.37831   1
   5   4  15 136.592 14.7877  -3
   5   4  15 136.592 14.7877  -2
   5   4  15 136.592 14.7877   1
   5   4  15 149.250 7.30880  -2
   5   4  15 149.250 7.30880   1
   6   4  15 43.6464 4.94930  -3
   6   4  15 43.6464 4.94930   1
   6   4  15 26.8199 6.48475  -2
   6   4  15 26.8199 6.48475   1
   6   4  15 12.8066 22.0720  -3
   6   4  15 12.8066 22.0720  -2
   6   4  15 12.8066 22.0720   1
   7   4  15 432.163 22.4328  -2
   7   4  15 432.163 22.4328   1
   8   4  15 1018.22 41.2603  -2
   8   4  15 1018.22 41.2603   1
   9   4  15 494.289 23.0703  -2
   9   4  15 494.289 23.0703   1
  10   4  15 221.166 28.0851  -3
  10   5  15 221.166 28.0851  -2
  10   4  15 221.166 28.0851   1
  10   4  15 163.965 18.5188  -2
  10   4  15 163.965 18.5188   1
  11   4  15 39.3877 24.6697  -3
  11   3  15 39.3877 24.6697  -2
  11   4  15 39.3877 24.6697   1
  12   5  15 272.348 30.5899  -3
  12   4  15 272.348 30.5899  -2
  12   4  15 272.348 30.5899   1
  12   5  15 252.661 25.2829  -2
  12   4  15 252.661 25.2829   1
   0   5  15 1.44658 6.03732   1
   1   5  15 1039.80 18.4619  -3
   1   5  15 1039.80 18.4619   1
   1   5  15 1073.44 43.9679  -3
   1   5  15 1073.44 43.9679  -2
   1   5  15 1073.44 43.9679   1
   2   5  15 27.3240 4.67121  -3
   2   5  15 27.3240 4.67121   1
   2   5  15 35.0293 9.43305  -3
   2   5  15 35.0293 9.43305  -2
   2   5  15 35.0293 9.43305   1
   3   5  15 311.267 6.82183  -3
   3   5  15 311.267 6.82183   1
   3   5  15 341.726 12.3721  -3
   3   5  15 341.726 12.3721  -2
   3   5  15 341.726 12.3721   1
   3   5  15 318.635 15.4906  -2
   3   5  15 318.635 15.4906   1
   4   5  15 309.732 6.88926  -3
   4   5  15 309.732 6.88926   1
   4   5  15 329.231 16.1963  -3
   4   5  15 329.231 16.1963  -2
   4   5  15 329.231 16.1963   1
   4   5  15 326.071 16.1489  -2
   4   5  15 326.071 16.1489   1
   5   5  15 102.908 5.38286  -3
   5   5  15 102.908 5.38286   1
   5   5  15 96.2197 8.64934  -2
   5   5  15 96.2197 8.64934   1
   6   5  15 1501.20 24.1317  -3
   6   5  15 1501.20 24.1317   1
   6   5  15 1422.62 34.1814  -2
   6   5  15 1422.62 34.1814   1
   7   5  15 808.460 34.8351  -2
   7   5  15 808.460 34.8351   1
   7   5  15 807.690 35.7637  -3
   7   5  15 807.690 35.7637   1
   8   5  15 117.095 15.0283  -2
   8   5  15 117.095 15.0283   1
   9   5  15 276.324 18.0414  -2
   9   5  15 276.324 18.0414   1
  10   5  15 -28.692 26.1266  -3
  10   6  15 -28.692 26.1266  -2
  10   5  15 -28.692 26.1266   1
  10   6  15 30.6398 27.4020  -3
  10   5  15 30.6398 27.4020  -2
  10   5  15 30.6398 27.4020   1
  10   5  15 -0.3725 16.1785  -2
  10   5  15 -0.3725 16.1785   1
  11   5  15 60.8841 14.4686  -2
  11   5  15 60.8841 14.4686   1
  11   6  15 86.9487 28.8782  -3
  11   5  15 86.9487 28.8782  -2
  11   5  15 86.9487 28.8782   1
  12   5  15 15.3288 8.69189   1
   0   6  15 4870.62 124.186  -3
   0   6  15 4870.62 124.186   1
   1   6  15 14.2300 5.30507  -3
   1   6  15 14.2300 5.30507   1
   1   6  15 37.7147 13.8153  -3
   1   6  15 37.7147 13.8153  -2
   1   6  15 37.7147 13.8153   1
   2   6  15 28.6422 4.76717  -3
   2   6  15 28.6422 4.76717   1
   2   6  15 42.4814 9.50462  -3
   2   6  15 42.4814 9.50462  -2
   2   6  15 42.4814 9.50462   1
   2   6  15 21.8974 13.3632  -2
   2   6  15 21.8974 13.3632   1
   3   6  15 1259.50 19.7307  -3
   3   6  15 1259.50 19.7307   1
   3   6  15 1362.47 31.6784  -3
   3   6  15 1362.47 31.6784  -2
   3   6  15 1362.47 31.6784   1
   3   6  15 1293.21 46.9340  -2
   3   6  15 1293.21 46.9340   1
   4   6  15 148.254 13.8851  -3
   4   6  15 148.254 13.8851  -2
   4   6  15 148.254 13.8851   1
   4   6  15 122.124 11.8234  -2
   4   6  15 122.124 11.8234   1
   4   6  15 112.939 4.94160  -3
   4   6  15 112.939 4.94160   1
   5   6  15 72.2824 8.53438  -2
   5   6  15 72.2824 8.53438   1
   5   6  15 81.3386 5.51278  -3
   5   6  15 81.3386 5.51278   1
   6   6  15 82.9172 9.74679  -2
   6   6  15 82.9172 9.74679   1
   6   6  15 80.4815 5.23695  -3
   6   6  15 80.4815 5.23695   1
   7   6  15 962.952 40.3645  -2
   7   6  15 962.952 40.3645   1
   7   6  15 884.238 38.4520  -3
   7   6  15 884.238 38.4520   1
   8   6  15 34.0925 15.7135  -3
   8   6  15 34.0925 15.7135   1
   8   6  15 24.7835 14.5418  -2
   8   6  15 24.7835 14.5418   1
   9   6  15 42.4197 14.3636  -2
   9   6  15 42.4197 14.3636   1
   9   6  15 43.5284 21.5567  -3
   9   6  15 43.5284 21.5567   1
  10   6  15 -7.6788 16.4416  -2
  10   6  15 -7.6788 16.4416   1
  11   7  15 135.515 31.1274  -3
  11   6  15 135.515 31.1274  -2
  11   6  15 135.515 31.1274   1
  11   6  15 174.291 18.4392  -2
  11   6  15 174.291 18.4392   1
  12   6  15 291.094 20.2438   1
   0   7  15 5.46669 5.27907   1
   1   7  15 47.5952 5.01680  -3
   1   7  15 47.5952 5.01680   1
   2   7  15 44.4299 14.8307  -2
   2   7  15 44.4299 14.8307   1
   2   7  15 31.2071 4.56311  -3
   2   7  15 31.2071 4.56311   1
   2   7  15 19.8210 20.9370  -3
   2   7  15 19.8210 20.9370  -2
   2   7  15 19.8210 20.9370   1
   3   7  15 122.146 5.14289  -3
   3   7  15 122.146 5.14289   1
   3   7  15 131.408 8.94511  -2
   3   7  15 131.408 8.94511   1
   3   7  15 133.044 14.8522  -3
   3   7  15 133.044 14.8522  -2
   3   7  15 133.044 14.8522   1
   4   7  15 184.178 6.00529  -3
   4   7  15 184.178 6.00529   1
   4   7  15 154.509 9.26912  -2
   4   7  15 154.509 9.26912   1
   5   7  15 84.7340 5.78969  -3
   5   7  15 84.7340 5.78969   1
   5   7  15 86.4034 8.26673  -2
   5   7  15 86.4034 8.26673   1
   6   7  15 1046.39 25.7534  -3
   6   7  15 1046.39 25.7534   1
   6   7  15 976.932 38.6805  -2
   6   7  15 976.932 38.6805   1
   7   7  15 1973.36 75.7181  -3
   7   7  15 1973.36 75.7181   1
   7   7  15 1746.46 66.4349  -2
   7   7  15 1746.46 66.4349   1
   8   7  15 9.35497 15.0117  -2
   8   7  15 9.35497 15.0117   1
   8   7  15 17.8449 16.1031  -3
   8   7  15 17.8449 16.1031   1
   9   7  15 8.60801 14.8641  -2
   9   7  15 8.60801 14.8641   1
   9   7  15 45.1062 23.0664  -3
   9   7  15 45.1062 23.0664   1
  10   7  15 21.6505 14.4129  -2
  10   7  15 21.6505 14.4129   1
  11   8  15 42.1944 31.7736  -3
  11   7  15 42.1944 31.7736  -2
  11   7  15 42.1944 31.7736   1
  12   7  15 201.183 16.4946   1
   0   8  15 2837.34 60.7640  -3
   0   8  15 2837.34 60.7640   1
   1   8  15 73.4435 5.36012  -3
   1   8  15 73.4435 5.36012   1
   2   8  15 238.894 6.44361  -3
   2   8  15 238.894 6.44361   1
   2   8  15 209.015 18.8214  -2
   2   8  15 209.015 18.8214   1
   3   8  15 1.12700 4.52910  -3
   3   8  15 1.12700 4.52910   1
   3   8  15 15.6806 8.73706  -2
   3   8  15 15.6806 8.73706   1
   4   8  15 197.422 8.98247  -2
   4   8  15 197.422 8.98247   1
   4   8  15 198.185 6.44559  -3
   4   8  15 198.185 6.44559   1
   5   8  15 350.727 8.85053  -3
   5   8  15 350.727 8.85053   1
   5   8  15 334.518 11.2960  -2
   5   8  15 334.518 11.2960   1
   6   8  15 30.8686 12.7929  -2
   6   8  15 30.8686 12.7929   1
   6   8  15 21.6617 11.4476  -3
   6   8  15 21.6617 11.4476   1
   7   8  15 215.395 29.0180  -2
   7   8  15 215.395 29.0180   1
   7   8  15 288.938 21.7183  -3
   7   8  15 288.938 21.7183   1
   8   8  15 875.987 38.9693  -3
   8   8  15 875.987 38.9693   1
   8   8  15 852.824 54.6621  -2
   8   8  15 852.824 54.6621   1
   9   8  15 95.2591 24.9961  -3
   9   8  15 95.2591 24.9961   1
   9   8  15 157.369 17.3243  -2
   9   8  15 157.369 17.3243   1
  10   8  15 82.8049 16.6006  -2
  10   8  15 82.8049 16.6006   1
  11   8  15 -14.198 23.8345  -3
  11   8  15 -14.198 23.8345   1
  11   8  15 33.9466 25.3762  -2
  11   8  15 33.9466 25.3762   1
  12   8  15 82.4976 13.1278   1
   0   9  15 5.36823 6.30857   1
   1   9  15 517.745 9.50383  -3
   1   9  15 517.745 9.50383   1
   2   9  15 468.093 8.50991  -3
   2   9  15 468.093 8.50991   1
   2   9  15 460.145 32.6070  -2
   2   9  15 460.145 32.6070   1
   3   9  15 571.931 18.4700  -2
   3   9  15 571.931 18.4700   1
   3   9  15 573.185 10.0903  -3
   3   9  15 573.185 10.0903   1
   4   9  15 38.5851 5.94971  -3
   4   9  15 38.5851 5.94971   1
   4   9  15 43.2215 12.4638  -2
   4   9  15 43.2215 12.4638   1
   5   9  15 111.853 8.25581  -3
   5   9  15 111.853 8.25581   1
   5   9  15 101.877 18.1581  -2
   5   9  15 101.877 18.1581   1
   6   9  15 402.151 18.9208  -3
   6   9  15 402.151 18.9208   1
   6   9  15 374.355 35.1462  -2
   6   9  15 374.355 35.1462   1
   7   9  15 65.2174 17.7245  -3
   7   9  15 65.2174 17.7245   1
   7   9  15 74.0888 27.3206  -2
   7   9  15 74.0888 27.3206   1
   8   9  15 135.083 17.9630  -3
   8   9  15 135.083 17.9630   1
   8   9  15 145.223 27.5624  -2
   8   9  15 145.223 27.5624   1
   9   9  15 411.800 36.1429  -3
   9   9  15 411.800 36.1429   1
   9   9  15 380.045 35.1708  -2
   9   9  15 380.045 35.1708   1
  10   9  15 186.436 30.3232  -2
  10   9  15 186.436 30.3232   1
  11   9  15 70.0852 7.01902   1
   0  10  15 2823.59 56.0710  -3
   0  10  15 2823.59 56.0710   1
   1  10  15 268.632 7.86646  -3
   1  10  15 268.632 7.86646   1
   2  10  15 102.765 5.56578  -3
   2  10  15 102.765 5.56578   1
   3  10  15 1172.19 15.9471  -3
   3  10  15 1172.19 15.9471   1
   3  10  15 1135.48 68.2452  -2
   3  10  15 1135.48 68.2452   1
   4  10  15 56.3692 6.16027  -3
   4  10  15 56.3692 6.16027   1
   4  10  15 -6.7583 23.9698  -2
   4  10  15 -6.7583 23.9698   1
   5  10  15 10.1954 9.54421  -3
   5  10  15 10.1954 9.54421   1
   6  10  15 817.221 29.7431  -3
   6  10  15 817.221 29.7431   1
   6  10  15 782.984 52.7533  -2
   6  10  15 782.984 52.7533   1
   7  10  15 1180.76 71.3130  -2
   7  10  15 1180.76 71.3130   1
   7  10  15 1450.32 83.9234  -3
   7  10  15 1450.32 83.9234   1
   8  10  15 66.8760 26.4868  -3
   8  10  15 66.8760 26.4868   1
   8  10  15 -44.674 25.7480  -2
   8  10  15 -44.674 25.7480   1
   9  10  15 183.722 30.6027  -2
   9  10  15 183.722 30.6027   1
   9  10  15 216.789 30.3031  -3
   9  10  15 216.789 30.3031   1
  10  10  15 9.30426 28.3377  -2
  10  10  15 9.30426 28.3377   1
  10  10  15 39.4551 26.2038  -3
  10  10  15 39.4551 26.2038   1
  11  10  15 145.534 12.2666   1
   0  11  15 7.99096 6.05033   1
   1  11  15 188.686 7.91043  -3
   1  11  15 188.686 7.91043   1
   2  11  15 375.151 9.35927  -3
   2  11  15 375.151 9.35927   1
   3  11  15 205.238 6.58007  -3
   3  11  15 205.238 6.58007   1
   4  11  15 115.855 9.85335  -3
   4  11  15 115.855 9.85335   1
   4  11  15 77.8472 30.4166  -2
   4  11  15 77.8472 30.4166   1
   5  11  15 134.204 14.5718  -3
   5  11  15 134.204 14.5718   1
   6  11  15 72.4030 29.4807  -2
   6  11  15 72.4030 29.4807   1
   6  11  15 64.6741 13.5712  -3
   6  11  15 64.6741 13.5712   1
   7  11  15 50.4224 18.6831  -3
   7  11  15 50.4224 18.6831   1
   8  11  15 442.240 39.9039  -3
   8  11  15 442.240 39.9039   1
   8  11  15 535.221 43.6995  -2
   8  11  15 535.221 43.6995   1
   9  11  15 148.014 10.1751   1
  10  11  15 37.4210 6.60562   1
  11  11  15 129.636 16.6487   1
   0  12  15 138.288 13.0594  -3
   0  12  15 138.288 13.0594   1
   1  12  15 -3.0529 7.22030  -3
   1  12  15 -3.0529 7.22030   1
   2  12  15 22.1219 7.04063  -3
   2  12  15 22.1219 7.04063   1
   3  12  15 190.994 7.83616  -3
   3  12  15 190.994 7.83616   1
   4  12  15 79.8542 11.1213  -3
   4  12  15 79.8542 11.1213   1
   5  12  15 143.645 15.5632  -3
   5  12  15 143.645 15.5632   1
   6  12  15 284.250 24.2093  -3
   6  12  15 284.250 24.2093   1
   7  12  15 47.6070 28.6320  -3
   7  12  15 47.6070 28.6320   1
   8  12  15 19.7081 5.28389   1
   9  12  15 236.263 9.71970   1
  10  12  15 104.908 8.74145   1
   0  13  15 -0.7381 5.16296   1
   1  13  15 912.746 18.0748  -3
   1  13  15 912.746 18.0748   1
   2  13  15 180.195 11.6810  -3
   2  13  15 180.195 11.6810   1
   3  13  15 31.7006 11.4326  -3
   3  13  15 31.7006 11.4326   1
   4  13  15 978.813 30.4044  -3
   4  13  15 978.813 30.4044   1
   5  13  15 70.9719 20.9310  -3
   5  13  15 70.9719 20.9310   1
   6  13  15 832.080 58.3416  -3
   6  13  15 832.080 58.3416   1
   7  13  15 69.8076 6.99491   1
   8  13  15 13.5285 5.53228   1
   9  13  15 51.7487 6.05951   1
  10  13  15 5.04243 6.09867   1
   0  14  15 863.830 30.1356  -3
   0  14  15 863.830 30.1356   1
   1  14  15 756.354 19.3777  -3
   1  14  15 756.354 19.3777   1
   2  14  15 76.3236 11.5943  -3
   2  14  15 76.3236 11.5943   1
   3  14  15 428.299 17.6954  -3
   3  14  15 428.299 17.6954   1
   4  14  15 378.958 21.1306  -3
   4  14  15 378.958 21.1306   1
   5  14  15 1150.27 65.7759  -3
   5  14  15 1150.27 65.7759   1
   6  14  15 147.278 5.82388   1
   7  14  15 204.543 8.34838   1
   8  14  15 78.8688 7.26399   1
   9  14  15 174.747 9.29669   1
  10  14  15 73.3735 18.7975   1
   0  15  15 -0.8659 5.18552   1
   1  15  15 274.597 15.3328  -3
   1  15  15 274.597 15.3328   1
   2  15  15 -1.7509 19.6103  -3
   2  15  15 -1.7509 19.6103   1
   3  15  15 2099.11 119.735  -3
   3  15  15 2099.11 119.735   1
   4  15  15 182.958 36.7248  -3
   4  15  15 182.958 36.7248   1
   5  15  15 112.384 6.34785   1
   6  15  15 59.9795 5.43992   1
   7  15  15 257.908 9.77451   1
   8  15  15 8.20615 5.65813   1
   9  15  15 136.142 8.66493   1
  10  15  15 116.228 11.2406   1
   0  16  15 475.757 46.2451  -3
   0  16  15 475.757 46.2451   1
   1  16  15 2597.82 101.852  -3
   1  16  15 2597.82 101.852   1
   2  16  15 -73.647 34.4961  -3
   2  16  15 -73.647 34.4961   1
   3  16  15 27.0560 28.8419  -3
   3  16  15 27.0560 28.8419   1
   4  16  15 -52.269 32.8836  -3
   4  16  15 -52.269 32.8836   1
   5  16  15 430.692 11.4510   1
   6  16  15 314.181 10.0385   1
   7  16  15 26.4978 4.21578   1
   8  16  15 31.8546 6.54332   1
   9  16  15 15.1827 6.00492   1
  10  16  15 243.736 17.7770   1
   0  17  15 -7.4391 5.71063   1
   1  17  15 549.248 51.5571  -3
   1  17  15 549.248 51.5571   1
   2  17  15 60.2637 5.15838   1
   3  17  15 364.053 9.05091   1
   4  17  15 346.228 9.34770   1
   5  17  15 630.966 15.7937   1
   6  17  15 9.03236 4.54338   1
   7  17  15 12.3028 4.17701   1
   8  17  15 152.406 9.84733   1
   9  17  15 36.2887 8.35611   1
   0  18  15 362.677 13.8619   1
   1  18  15 104.149 5.75282   1
   2  18  15 1464.69 25.9131   1
   3  18  15 66.8311 5.07320   1
   4  18  15 261.110 8.26883   1
   5  18  15 23.2625 5.73719   1
   6  18  15 293.291 10.0047   1
   7  18  15 355.095 10.5000   1
   8  18  15 247.998 11.9978   1
   9  18  15 623.562 45.3367   1
   0  19  15 -4.4238 6.41145   1
   1  19  15 316.794 9.09031   1
   2  19  15 55.9377 5.37420   1
   3  19  15 236.078 8.56895   1
   4  19  15 346.303 9.54334   1
   5  19  15 66.0535 6.86358   1
   6  19  15 25.6524 5.23663   1
   7  19  15 95.2549 6.31030   1
   8  19  15 513.255 29.7497   1
   0  20  15 41.3596 7.82289   1
   1  20  15 159.168 7.64300   1
   2  20  15 48.4661 5.27444   1
   3  20  15 8.80760 4.83254   1
   4  20  15 162.128 7.23403   1
   5  20  15 16.7378 5.85765   1
   6  20  15 2.17623 4.89802   1
   7  20  15 0.84905 3.95821   1
   8  20  15 48.6411 13.5763   1
   0  21  15 5.33493 7.74472   1
   1  21  15 665.757 14.9101   1
   2  21  15 360.052 10.3095   1
   3  21  15 387.002 11.9839   1
   4  21  15 50.4861 5.23068   1
   5  21  15 234.599 10.9415   1
   6  21  15 52.0633 6.15740   1
   7  21  15 155.624 7.71809   1
   8  21  15 31.2137 7.45845   1
   0  22  15 41.3675 9.24988   1
   1  22  15 8.40796 4.92670   1
   2  22  15 740.785 16.0912   1
   3  22  15 68.2090 6.86570   1
   4  22  15 10.4246 4.78254   1
   5  22  15 7.80596 6.01317   1
   6  22  15 440.165 16.4132   1
   7  22  15 193.124 10.4238   1
   0  23  15 -5.2215 8.59778   1
   1  23  15 137.193 7.96963   1
   2  23  15 58.1742 6.30907   1
   3  23  15 202.164 10.0442   1
   4  23  15 -2.5606 4.82443   1
   5  23  15 175.188 16.4555   1
   6  23  15 182.001 18.0124   1
   7  23  15 7.48732 7.64760   1
   0  24  15 435.426 20.0921   1
   1  24  15 193.025 9.35352   1
   2  24  15 26.8631 5.73442   1
   3  24  15 467.055 14.5785   1
   4  24  15 304.424 13.0399   1
   5  24  15 243.290 22.5155   1
   6  24  15 108.573 26.7411   1
   7  24  15 227.639 24.2596   1
   0  25  15 -7.3802 8.86208   1
   1  25  15 165.100 10.0983   1
   2  25  15 84.8058 8.68191   1
   3  25  15 23.1245 10.8310   1
   4  25  15 115.346 9.09214   1
   5  25  15 57.9578 21.7213   1
   0  26  15 574.150 30.6524   1
   1  26  15 64.9473 8.73757   1
   2  26  15 100.231 20.6423   1
   3  26  15 187.897 16.2898   1
   4  26  15 83.9389 10.8745   1
   0  27  15 -7.2821 12.7553   1
   1  27  15 148.057 18.4889   1
   3  27  15 412.557 43.1672   1
   4  27  15 47.7255 14.7810   1
   1  28  15 179.855 24.2382   1
   1   0  16 367.416 22.6857  -3
   1   0  16 367.416 22.6857  -2
   1   0  16 367.416 22.6857   1
   1   0  16 316.841 11.4261  -3
   1   0  16 316.841 11.4261   1
   2   0  16 3729.31 70.9795  -3
   2   0  16 3729.31 70.9795  -2
   2   0  16 3729.31 70.9795   1
   2   0  16 3579.87 81.3220  -3
   2   0  16 3579.87 81.3220   1
   3   0  16 2840.06 65.0318  -3
   3   0  16 2840.06 65.0318   1
   3   0  16 2932.92 76.0410  -3
   3   0  16 2932.92 76.0410  -2
   3   0  16 2932.92 76.0410   1
   4   0  16 2717.81 51.9537  -3
   4   0  16 2717.81 51.9537   1
   4   0  16 2908.83 107.778  -3
   4   0  16 2908.83 107.778  -2
   4   0  16 2908.83 107.778   1
   5   0  16 228.248 8.99973  -3
   5   0  16 228.248 8.99973   1
   5   0  16 175.759 12.7564  -2
   5   0  16 175.759 12.7564   1
   5   0  16 231.045 17.9562  -3
   5   0  16 231.045 17.9562  -2
   5   0  16 231.045 17.9562   1
   6   0  16 64.6099 20.9016  -3
   6   0  16 64.6099 20.9016  -2
   6   0  16 64.6099 20.9016   1
   6   0  16 33.1322 7.09999  -3
   6   0  16 33.1322 7.09999   1
   7   0  16 177.133 19.7341  -2
   7   0  16 177.133 19.7341   1
   8   0  16 99.6008 24.3516  -3
   8   1  16 99.6008 24.3516  -2
   8   0  16 99.6008 24.3516   1
   8   0  16 103.527 17.2146  -2
   8   0  16 103.527 17.2146   1
   9   0  16 45.5558 21.5261  -3
   9   1  16 45.5558 21.5261  -2
   9   0  16 45.5558 21.5261   1
  10   0  16 1354.35 76.1448  -3
  10   1  16 1354.35 76.1448  -2
  10   0  16 1354.35 76.1448   1
  11   0  16 96.0094 22.9759  -3
  11   1  16 96.0094 22.9759  -2
  11   0  16 96.0094 22.9759   1
  12   0  16 412.031 32.6585  -3
  12   1  16 412.031 32.6585  -2
  12   0  16 412.031 32.6585   1
   1   1  16 80.5610 7.68865  -3
   1   1  16 80.5610 7.68865  -2
   1   1  16 80.5610 7.68865   1
   1   1  16 73.6348 6.36648  -3
   1   1  16 73.6348 6.36648   1
   2   1  16 2633.53 38.8269  -3
   2   1  16 2633.53 38.8269  -2
   2   1  16 2633.53 38.8269   1
   2   1  16 2410.35 39.3262  -3
   2   1  16 2410.35 39.3262   1
   3   1  16 1805.56 29.8593  -3
   3   1  16 1805.56 29.8593   1
   3   1  16 1938.30 31.9249  -3
   3   1  16 1938.30 31.9249  -2
   3   1  16 1938.30 31.9249   1
   4   1  16 149.950 3.73820  -3
   4   1  16 149.950 3.73820   1
   4   1  16 139.311 11.7779  -3
   4   1  16 139.311 11.7779  -2
   4   1  16 139.311 11.7779   1
   5   1  16 669.763 12.5712  -3
   5   1  16 669.763 12.5712   1
   5   1  16 654.142 21.2978  -3
   5   1  16 654.142 21.2978  -2
   5   1  16 654.142 21.2978   1
   5   1  16 622.544 33.1118  -2
   5   1  16 622.544 33.1118   1
   6   1  16 -0.2472 3.90052  -3
   6   1  16 -0.2472 3.90052   1
   6   1  16 -5.8370 10.7252  -3
   6   1  16 -5.8370 10.7252  -2
   6   1  16 -5.8370 10.7252   1
   6   1  16 -7.5272 5.98847  -2
   6   1  16 -7.5272 5.98847   1
   7   1  16 321.216 28.3135  -3
   7   1  16 321.216 28.3135  -2
   7   1  16 321.216 28.3135   1
   7   1  16 334.237 31.9292  -3
   7   0  16 334.237 31.9292  -2
   7   1  16 334.237 31.9292   1
   7   1  16 308.501 17.5642  -2
   7   1  16 308.501 17.5642   1
   8   1  16 185.241 13.9475  -2
   8   1  16 185.241 13.9475   1
   8   1  16 222.852 28.0357  -3
   8   0  16 222.852 28.0357  -2
   8   1  16 222.852 28.0357   1
   8   1  16 244.674 28.0673  -3
   8   2  16 244.674 28.0673  -2
   8   1  16 244.674 28.0673   1
   9   1  16 35.4306 21.5129  -3
   9   0  16 35.4306 21.5129  -2
   9   1  16 35.4306 21.5129   1
   9   1  16 51.1515 22.4618  -3
   9   2  16 51.1515 22.4618  -2
   9   1  16 51.1515 22.4618   1
   9   1  16 45.4665 15.9129  -2
   9   1  16 45.4665 15.9129   1
  10   1  16 83.0668 22.6139  -3
  10   0  16 83.0668 22.6139  -2
  10   1  16 83.0668 22.6139   1
  10   1  16 10.1845 21.6973  -3
  10   2  16 10.1845 21.6973  -2
  10   1  16 10.1845 21.6973   1
  11   1  16 88.5070 23.1886  -3
  11   0  16 88.5070 23.1886  -2
  11   1  16 88.5070 23.1886   1
  11   1  16 82.1543 22.6488  -3
  11   2  16 82.1543 22.6488  -2
  11   1  16 82.1543 22.6488   1
   1   2  16 1062.72 23.3759  -3
   1   2  16 1062.72 23.3759  -2
   1   2  16 1062.72 23.3759   1
   1   2  16 993.375 20.1408  -3
   1   2  16 993.375 20.1408   1
   2   2  16 2797.62 47.5573  -3
   2   2  16 2797.62 47.5573   1
   2   2  16 2878.76 46.9044  -3
   2   2  16 2878.76 46.9044  -2
   2   2  16 2878.76 46.9044   1
   3   2  16 939.066 18.2318  -3
   3   2  16 939.066 18.2318  -2
   3   2  16 939.066 18.2318   1
   3   2  16 822.687 14.6994  -3
   3   2  16 822.687 14.6994   1
   4   2  16 13.8984 2.51679  -3
   4   2  16 13.8984 2.51679   1
   4   2  16 18.3241 8.55758  -3
   4   2  16 18.3241 8.55758  -2
   4   2  16 18.3241 8.55758   1
   5   2  16 54.0627 4.31418  -3
   5   2  16 54.0627 4.31418   1
   5   2  16 52.6373 9.22436  -3
   5   2  16 52.6373 9.22436  -2
   5   2  16 52.6373 9.22436   1
   5   2  16 50.3282 8.17153  -2
   5   2  16 50.3282 8.17153   1
   6   2  16 303.346 11.2035  -2
   6   2  16 303.346 11.2035   1
   6   2  16 328.178 17.4555  -3
   6   2  16 328.178 17.4555  -2
   6   2  16 328.178 17.4555   1
   6   2  16 320.467 8.40366  -3
   6   2  16 320.467 8.40366   1
   7   2  16 90.1666 21.2305  -3
   7   2  16 90.1666 21.2305  -2
   7   2  16 90.1666 21.2305   1
   8   2  16 45.7885 24.8556  -3
   8   1  16 45.7885 24.8556  -2
   8   2  16 45.7885 24.8556   1
   8   2  16 24.1055 11.4656  -2
   8   2  16 24.1055 11.4656   1
   9   2  16 98.1151 12.0008  -2
   9   2  16 98.1151 12.0008   1
   9   2  16 93.6736 24.8114  -3
   9   1  16 93.6736 24.8114  -2
   9   2  16 93.6736 24.8114   1
   9   2  16 111.472 24.6123  -3
   9   3  16 111.472 24.6123  -2
   9   2  16 111.472 24.6123   1
  10   2  16 54.9702 23.3289  -3
  10   1  16 54.9702 23.3289  -2
  10   2  16 54.9702 23.3289   1
  10   2  16 85.6176 23.9283  -3
  10   3  16 85.6176 23.9283  -2
  10   2  16 85.6176 23.9283   1
  11   2  16 133.561 25.1977  -3
  11   1  16 133.561 25.1977  -2
  11   2  16 133.561 25.1977   1
  11   2  16 212.711 27.3188  -3
  11   3  16 212.711 27.3188  -2
  11   2  16 212.711 27.3188   1
   0   3  16 1.98090 14.3810   1
   1   3  16 822.710 19.8826  -3
   1   3  16 822.710 19.8826   1
   1   3  16 882.004 23.8318  -3
   1   3  16 882.004 23.8318  -2
   1   3  16 882.004 23.8318   1
   2   3  16 1206.00 25.8487  -3
   2   3  16 1206.00 25.8487  -2
   2   3  16 1206.00 25.8487   1
   2   3  16 1105.33 20.3335  -3
   2   3  16 1105.33 20.3335   1
   3   3  16 504.583 9.16758  -3
   3   3  16 504.583 9.16758   1
   3   3  16 571.241 13.6164  -3
   3   3  16 571.241 13.6164  -2
   3   3  16 571.241 13.6164   1
   4   3  16 52.1610 2.93715  -3
   4   3  16 52.1610 2.93715   1
   4   3  16 55.4058 9.14912  -3
   4   3  16 55.4058 9.14912  -2
   4   3  16 55.4058 9.14912   1
   5   3  16 112.431 12.1010  -3
   5   3  16 112.431 12.1010  -2
   5   3  16 112.431 12.1010   1
   5   3  16 120.020 5.45728  -3
   5   3  16 120.020 5.45728   1
   5   3  16 117.614 10.8236  -2
   5   3  16 117.614 10.8236   1
   6   3  16 917.972 16.8820  -3
   6   3  16 917.972 16.8820   1
   6   3  16 854.126 24.2965  -2
   6   3  16 854.126 24.2965   1
   6   3  16 934.271 32.7733  -3
   6   3  16 934.271 32.7733  -2
   6   3  16 934.271 32.7733   1
   7   3  16 375.831 20.7352  -2
   7   3  16 375.831 20.7352   1
   8   3  16 153.650 27.9550  -3
   8   2  16 153.650 27.9550  -2
   8   3  16 153.650 27.9550   1
   8   3  16 145.317 13.9798  -2
   8   3  16 145.317 13.9798   1
   9   3  16 274.879 30.0424  -3
   9   4  16 274.879 30.0424  -2
   9   3  16 274.879 30.0424   1
   9   3  16 213.236 14.6294  -2
   9   3  16 213.236 14.6294   1
   9   3  16 241.395 30.3917  -3
   9   2  16 241.395 30.3917  -2
   9   3  16 241.395 30.3917   1
  10   3  16 -1.1814 10.3652  -2
  10   3  16 -1.1814 10.3652   1
  10   3  16 -11.318 23.8780  -3
  10   2  16 -11.318 23.8780  -2
  10   3  16 -11.318 23.8780   1
  10   3  16 -23.034 23.2984  -3
  10   4  16 -23.034 23.2984  -2
  10   3  16 -23.034 23.2984   1
  11   3  16 183.427 26.6949  -3
  11   2  16 183.427 26.6949  -2
  11   3  16 183.427 26.6949   1
  11   3  16 222.883 28.1321  -3
  11   4  16 222.883 28.1321  -2
  11   3  16 222.883 28.1321   1
   0   4  16 346.808 18.4106  -3
   0   4  16 346.808 18.4106   1
   1   4  16 819.659 17.3556  -3
   1   4  16 819.659 17.3556   1
   1   4  16 916.073 36.1270  -3
   1   4  16 916.073 36.1270  -2
   1   4  16 916.073 36.1270   1
   2   4  16 124.183 9.16082  -3
   2   4  16 124.183 9.16082  -2
   2   4  16 124.183 9.16082   1
   2   4  16 108.962 5.24816  -3
   2   4  16 108.962 5.24816   1
   3   4  16 557.511 30.5776  -2
   3   4  16 557.511 30.5776   1
   3   4  16 561.377 10.0662  -3
   3   4  16 561.377 10.0662   1
   3   4  16 625.618 17.0849  -3
   3   4  16 625.618 17.0849  -2
   3   4  16 625.618 17.0849   1
   4   4  16 90.3948 11.0176  -3
   4   4  16 90.3948 11.0176  -2
   4   4  16 90.3948 11.0176   1
   4   4  16 119.041 4.24201  -3
   4   4  16 119.041 4.24201   1
   4   4  16 137.866 15.7512  -2
   4   4  16 137.866 15.7512   1
   5   4  16 36.7096 5.56268  -3
   5   4  16 36.7096 5.56268   1
   5   4  16 47.8286 14.1633  -3
   5   4  16 47.8286 14.1633  -2
   5   4  16 47.8286 14.1633   1
   5   4  16 27.8404 6.87155  -2
   5   4  16 27.8404 6.87155   1
   6   4  16 25.5364 6.62160  -2
   6   4  16 25.5364 6.62160   1
   6   4  16 22.1924 3.99657  -3
   6   4  16 22.1924 3.99657   1
   6   4  16 -1.1432 23.5399  -3
   6   4  16 -1.1432 23.5399  -2
   6   4  16 -1.1432 23.5399   1
   7   4  16 200.840 23.4303  -2
   7   4  16 200.840 23.4303   1
   8   4  16 81.6335 14.4450  -2
   8   4  16 81.6335 14.4450   1
   9   4  16 262.834 16.5515  -2
   9   4  16 262.834 16.5515   1
   9   4  16 267.218 30.5615  -3
   9   5  16 267.218 30.5615  -2
   9   4  16 267.218 30.5615   1
  10   4  16 67.8352 11.8297  -2
  10   4  16 67.8352 11.8297   1
  10   4  16 107.481 25.9840  -3
  10   5  16 107.481 25.9840  -2
  10   4  16 107.481 25.9840   1
  10   4  16 63.9328 26.6565  -3
  10   3  16 63.9328 26.6565  -2
  10   4  16 63.9328 26.6565   1
  11   4  16 52.6401 25.2297  -3
  11   3  16 52.6401 25.2297  -2
  11   4  16 52.6401 25.2297   1
   0   5  16 3.45634 6.15286   1
   1   5  16 77.3709 5.89792  -3
   1   5  16 77.3709 5.89792   1
   1   5  16 96.9588 17.4692  -3
   1   5  16 96.9588 17.4692  -2
   1   5  16 96.9588 17.4692   1
   2   5  16 1687.29 25.7562  -3
   2   5  16 1687.29 25.7562   1
   2   5  16 1866.75 35.8037  -3
   2   5  16 1866.75 35.8037  -2
   2   5  16 1866.75 35.8037   1
   3   5  16 34.7988 4.22009  -3
   3   5  16 34.7988 4.22009   1
   3   5  16 52.0644 11.6820  -2
   3   5  16 52.0644 11.6820   1
   3   5  16 56.6038 9.18029  -3
   3   5  16 56.6038 9.18029  -2
   3   5  16 56.6038 9.18029   1
   4   5  16 194.038 5.85258  -3
   4   5  16 194.038 5.85258   1
   4   5  16 203.580 11.6065  -3
   4   5  16 203.580 11.6065  -2
   4   5  16 203.580 11.6065   1
   4   5  16 207.141 13.6335  -2
   4   5  16 207.141 13.6335   1
   5   5  16 49.6485 5.52858  -3
   5   5  16 49.6485 5.52858   1
   5   5  16 65.7287 8.49749  -2
   5   5  16 65.7287 8.49749   1
   6   5  16 447.265 18.6944  -2
   6   5  16 447.265 18.6944   1
   6   5  16 533.331 13.1127  -3
   6   5  16 533.331 13.1127   1
   7   5  16 173.677 16.7804  -2
   7   5  16 173.677 16.7804   1
   7   5  16 188.413 11.6527  -3
   7   5  16 188.413 11.6527   1
   8   5  16 1078.25 44.0182  -2
   8   5  16 1078.25 44.0182   1
   8   5  16 1091.13 63.8140  -3
   8   5  16 1091.13 63.8140   1
   9   5  16 238.806 23.2706  -2
   9   5  16 238.806 23.2706   1
   9   6  16 232.684 31.8098  -3
   9   5  16 232.684 31.8098  -2
   9   5  16 232.684 31.8098   1
  10   5  16 1086.80 65.1407  -3
  10   6  16 1086.80 65.1407  -2
  10   5  16 1086.80 65.1407   1
  10   5  16 970.486 55.0344  -2
  10   5  16 970.486 55.0344   1
  11   5  16 38.5217 15.7949  -2
  11   5  16 38.5217 15.7949   1
   0   6  16 2963.33 68.4599  -3
   0   6  16 2963.33 68.4599   1
   1   6  16 282.936 7.33183  -3
   1   6  16 282.936 7.33183   1
   1   6  16 325.161 22.6484  -3
   1   6  16 325.161 22.6484  -2
   1   6  16 325.161 22.6484   1
   2   6  16 104.160 5.25652  -3
   2   6  16 104.160 5.25652   1
   2   6  16 101.059 10.1560  -3
   2   6  16 101.059 10.1560  -2
   2   6  16 101.059 10.1560   1
   2   6  16 100.273 15.2869  -2
   2   6  16 100.273 15.2869   1
   3   6  16 109.210 10.0354  -3
   3   6  16 109.210 10.0354  -2
   3   6  16 109.210 10.0354   1
   3   6  16 79.1716 4.75019  -3
   3   6  16 79.1716 4.75019   1
   3   6  16 101.369 9.33917  -2
   3   6  16 101.369 9.33917   1
   4   6  16 37.5968 13.5103  -3
   4   6  16 37.5968 13.5103  -2
   4   6  16 37.5968 13.5103   1
   4   6  16 40.9487 4.55759  -3
   4   6  16 40.9487 4.55759   1
   4   6  16 35.1793 10.9451  -2
   4   6  16 35.1793 10.9451   1
   5   6  16 252.055 11.7340  -2
   5   6  16 252.055 11.7340   1
   5   6  16 247.614 7.67312  -3
   5   6  16 247.614 7.67312   1
   6   6  16 153.740 6.86063  -3
   6   6  16 153.740 6.86063   1
   6   6  16 128.919 11.2845  -2
   6   6  16 128.919 11.2845   1
   7   6  16 114.793 10.6920  -3
   7   6  16 114.793 10.6920   1
   7   6  16 107.527 13.5838  -2
   7   6  16 107.527 13.5838   1
   8   6  16 240.024 18.4035  -2
   8   6  16 240.024 18.4035   1
   8   6  16 283.223 29.6954  -3
   8   6  16 283.223 29.6954   1
   9   6  16 23.7616 14.1739  -2
   9   6  16 23.7616 14.1739   1
   9   6  16 46.0224 21.8295  -3
   9   6  16 46.0224 21.8295   1
  10   6  16 152.355 20.7362  -2
  10   6  16 152.355 20.7362   1
  10   6  16 164.817 25.5906  -3
  10   6  16 164.817 25.5906   1
  10   7  16 138.534 31.4195  -3
  10   6  16 138.534 31.4195  -2
  10   6  16 138.534 31.4195   1
  11   6  16 208.962 21.0385  -2
  11   6  16 208.962 21.0385   1
  12   6  16 -1.4645 8.67601   1
   0   7  16 -1.7678 5.63319   1
   1   7  16 40.2308 5.45179  -3
   1   7  16 40.2308 5.45179   1
   1   7  16 22.4162 26.3625  -3
   1   7  16 22.4162 26.3625  -2
   1   7  16 22.4162 26.3625   1
   2   7  16 23.4425 5.15341  -3
   2   7  16 23.4425 5.15341   1
   2   7  16 23.4125 21.3250  -3
   2   7  16 23.4125 21.3250  -2
   2   7  16 23.4125 21.3250   1
   2   7  16 5.73759 14.0180  -2
   2   7  16 5.73759 14.0180   1
   3   7  16 2.26543 4.46479  -3
   3   7  16 2.26543 4.46479   1
   3   7  16 -9.4283 7.00384  -2
   3   7  16 -9.4283 7.00384   1
   3   7  16 2.11988 16.7268  -3
   3   7  16 2.11988 16.7268  -2
   3   7  16 2.11988 16.7268   1
   4   7  16 1170.64 18.7443  -3
   4   7  16 1170.64 18.7443   1
   4   7  16 1153.95 29.1922  -2
   4   7  16 1153.95 29.1922   1
   5   7  16 2119.13 35.5011  -3
   5   7  16 2119.13 35.5011   1
   5   7  16 2094.29 49.0004  -2
   5   7  16 2094.29 49.0004   1
   6   7  16 50.6465 11.6535  -2
   6   7  16 50.6465 11.6535   1
   6   7  16 84.5236 7.66866  -3
   6   7  16 84.5236 7.66866   1
   7   7  16 1317.62 72.6798  -2
   7   7  16 1317.62 72.6798   1
   7   7  16 2261.30 68.4920  -3
   7   7  16 2261.30 68.4920   1
   8   7  16 587.090 28.9165  -2
   8   7  16 587.090 28.9165   1
   8   7  16 593.208 29.8663  -3
   8   7  16 593.208 29.8663   1
   9   7  16 10.2635 16.2153  -3
   9   7  16 10.2635 16.2153   1
   9   7  16 11.0652 14.9899  -2
   9   7  16 11.0652 14.9899   1
  10   7  16 299.578 20.3303  -2
  10   7  16 299.578 20.3303   1
  10   7  16 267.553 29.7294  -3
  10   7  16 267.553 29.7294   1
  11   8  16 -3.1558 32.2776  -3
  11   7  16 -3.1558 32.2776  -2
  11   7  16 -3.1558 32.2776   1
  11   7  16 -7.3170 16.5810  -2
  11   7  16 -7.3170 16.5810   1
  12   7  16 175.521 16.1252   1
   0   8  16 85.9432 9.74360  -3
   0   8  16 85.9432 9.74360   1
   1   8  16 1279.48 17.5879  -3
   1   8  16 1279.48 17.5879   1
   2   8  16 39.9583 5.06420  -3
   2   8  16 39.9583 5.06420   1
   2   8  16 29.8008 26.1802  -2
   2   8  16 29.8008 26.1802   1
   3   8  16 64.6109 4.85119  -3
   3   8  16 64.6109 4.85119   1
   3   8  16 53.4203 9.50982  -2
   3   8  16 53.4203 9.50982   1
   4   8  16 144.385 6.11353  -3
   4   8  16 144.385 6.11353   1
   4   8  16 155.573 10.1130  -2
   4   8  16 155.573 10.1130   1
   5   8  16 1033.73 26.6652  -2
   5   8  16 1033.73 26.6652   1
   5   8  16 1069.39 21.7990  -3
   5   8  16 1069.39 21.7990   1
   6   8  16 183.416 14.3505  -3
   6   8  16 183.416 14.3505   1
   6   8  16 179.419 27.4084  -2
   6   8  16 179.419 27.4084   1
   7   8  16 597.311 30.7289  -3
   7   8  16 597.311 30.7289   1
   7   8  16 546.501 41.3469  -2
   7   8  16 546.501 41.3469   1
   8   8  16 213.852 29.2887  -2
   8   8  16 213.852 29.2887   1
   8   8  16 230.084 20.2677  -3
   8   8  16 230.084 20.2677   1
   9   8  16 61.4591 16.0561  -2
   9   8  16 61.4591 16.0561   1
   9   8  16 47.4413 24.4320  -3
   9   8  16 47.4413 24.4320   1
  10   8  16 663.508 46.7369  -2
  10   8  16 663.508 46.7369   1
  10   8  16 812.738 53.5167  -3
  10   8  16 812.738 53.5167   1
  11   8  16 37.0631 25.1986  -3
  11   8  16 37.0631 25.1986   1
  11   9  16 -1.6802 32.8074  -3
  11   8  16 -1.6802 32.8074  -2
  11   8  16 -1.6802 32.8074   1
   0   9  16 -5.6745 5.76356   1
   1   9  16 469.918 9.15178  -3
   1   9  16 469.918 9.15178   1
   2   9  16 107.311 5.92089  -3
   2   9  16 107.311 5.92089   1
   2   9  16 57.8099 27.0660  -2
   2   9  16 57.8099 27.0660   1
   3   9  16 110.793 5.43036  -3
   3   9  16 110.793 5.43036   1
   3   9  16 113.895 14.3710  -2
   3   9  16 113.895 14.3710   1
   4   9  16 982.506 15.5480  -3
   4   9  16 982.506 15.5480   1
   4   9  16 982.653 29.6868  -2
   4   9  16 982.653 29.6868   1
   5   9  16 1159.24 26.6017  -3
   5   9  16 1159.24 26.6017   1
   5   9  16 1138.65 68.7343  -2
   5   9  16 1138.65 68.7343   1
   6   9  16 489.988 21.2580  -3
   6   9  16 489.988 21.2580   1
   6   9  16 509.368 40.7090  -2
   6   9  16 509.368 40.7090   1
   7   9  16 75.2702 18.5002  -3
   7   9  16 75.2702 18.5002   1
   7   9  16 121.730 27.8233  -2
   7   9  16 121.730 27.8233   1
   8   9  16 21.8048 16.9463  -3
   8   9  16 21.8048 16.9463   1
   8   9  16 -6.6114 25.5745  -2
   8   9  16 -6.6114 25.5745   1
   9   9  16 164.489 27.4256  -3
   9   9  16 164.489 27.4256   1
   9   9  16 141.514 27.3720  -2
   9   9  16 141.514 27.3720   1
  10   9  16 443.726 38.3028  -2
  10   9  16 443.726 38.3028   1
  10   9  16 413.185 37.1390  -3
  10   9  16 413.185 37.1390   1
  11   9  16 136.766 10.8580   1
   0  10  16 44.7202 9.68528  -3
   0  10  16 44.7202 9.68528   1
   1  10  16 38.7376 6.36768  -3
   1  10  16 38.7376 6.36768   1
   2  10  16 226.117 6.58016  -3
   2  10  16 226.117 6.58016   1
   3  10  16 260.781 6.91211  -3
   3  10  16 260.781 6.91211   1
   3  10  16 232.348 22.2872  -2
   3  10  16 232.348 22.2872   1
   4  10  16 48.7909 8.14481  -3
   4  10  16 48.7909 8.14481   1
   4  10  16 77.9238 30.6605  -2
   4  10  16 77.9238 30.6605   1
   5  10  16 641.439 17.7179  -3
   5  10  16 641.439 17.7179   1
   6  10  16 -3.3340 17.9997  -3
   6  10  16 -3.3340 17.9997   1
   6  10  16 27.0476 27.6927  -2
   6  10  16 27.0476 27.6927   1
   7  10  16 103.336 28.9557  -2
   7  10  16 103.336 28.9557   1
   7  10  16 67.2819 26.8374  -3
   7  10  16 67.2819 26.8374   1
   8  10  16 441.430 38.3968  -2
   8  10  16 441.430 38.3968   1
   8  10  16 418.819 25.8234  -3
   8  10  16 418.819 25.8234   1
   9  10  16 57.4206 25.3412  -3
   9  10  16 57.4206 25.3412   1
   9  10  16 24.7375 26.4465  -2
   9  10  16 24.7375 26.4465   1
  10  10  16 114.222 28.2826  -3
  10  10  16 114.222 28.2826   1
  10  10  16 147.362 30.1564  -2
  10  10  16 147.362 30.1564   1
  11  10  16 34.4707 11.3862   1
   0  11  16 1.22094 6.38650   1
   1  11  16 180.726 7.54115  -3
   1  11  16 180.726 7.54115   1
   2  11  16 13.7383 6.52581  -3
   2  11  16 13.7383 6.52581   1
   3  11  16 34.8841 5.71343  -3
   3  11  16 34.8841 5.71343   1
   4  11  16 1934.50 39.9200  -3
   4  11  16 1934.50 39.9200   1
   5  11  16 1298.89 36.8692  -3
   5  11  16 1298.89 36.8692   1
   6  11  16 162.450 32.0171  -2
   6  11  16 162.450 32.0171   1
   6  11  16 151.112 15.0830  -3
   6  11  16 151.112 15.0830   1
   7  11  16 48.4471 19.1307  -3
   7  11  16 48.4471 19.1307   1
   8  11  16 666.835 48.6561  -2
   8  11  16 666.835 48.6561   1
   8  11  16 642.997 48.1941  -3
   8  11  16 642.997 48.1941   1
   9  11  16 137.313 7.70347   1
  10  11  16 -5.3064 29.0909  -2
  10  11  16 -5.3064 29.0909   1
   0  12  16 1237.50 37.7680  -3
   0  12  16 1237.50 37.7680   1
   1  12  16 325.646 10.5226  -3
   1  12  16 325.646 10.5226   1
   2  12  16 2386.67 35.9674  -3
   2  12  16 2386.67 35.9674   1
   3  12  16 138.012 9.71695  -3
   3  12  16 138.012 9.71695   1
   4  12  16 283.471 13.9028  -3
   4  12  16 283.471 13.9028   1
   5  12  16 2107.07 66.0534  -3
   5  12  16 2107.07 66.0534   1
   6  12  16 158.336 21.6903  -3
   6  12  16 158.336 21.6903   1
   7  12  16 66.9271 30.2544  -3
   7  12  16 66.9271 30.2544   1
   8  12  16 63.0433 6.39166   1
   9  12  16 29.8407 30.1543  -2
   9  12  16 29.8407 30.1543   1
  10  12  16 32.3403 6.94697   1
   0  13  16 43.2202 5.94351   1
   1  13  16 289.330 11.8330  -3
   1  13  16 289.330 11.8330   1
   2  13  16 3026.57 56.8779  -3
   2  13  16 3026.57 56.8779   1
   3  13  16 116.108 10.8041  -3
   3  13  16 116.108 10.8041   1
   4  13  16 1424.96 41.0640  -3
   4  13  16 1424.96 41.0640   1
   5  13  16 2556.76 98.7593  -3
   5  13  16 2556.76 98.7593   1
   6  13  16 1056.01 68.7253  -3
   6  13  16 1056.01 68.7253   1
   7  13  16 88.7064 5.91632   1
   8  13  16 6.92882 5.37464   1
   9  13  16 58.6079 6.62388   1
  10  13  16 14.7043 6.64760   1
   0  14  16 6381.44 165.171  -3
   0  14  16 6381.44 165.171   1
   1  14  16 174.251 11.9994  -3
   1  14  16 174.251 11.9994   1
   2  14  16 241.893 14.1505  -3
   2  14  16 241.893 14.1505   1
   3  14  16 52.7820 17.5461  -3
   3  14  16 52.7820 17.5461   1
   4  14  16 950.046 42.8680  -3
   4  14  16 950.046 42.8680   1
   5  14  16 31.9825 22.0104  -3
   5  14  16 31.9825 22.0104   1
   6  14  16 144.241 6.91370   1
   7  14  16 36.0763 5.22212   1
   8  14  16 28.7891 6.02862   1
   9  14  16 166.987 9.32425   1
   0  15  16 6.19427 5.39582   1
   1  15  16 141.686 18.2476  -3
   1  15  16 141.686 18.2476   1
   2  15  16 57.6707 16.2078  -3
   2  15  16 57.6707 16.2078   1
   3  15  16 133.347 35.9904  -3
   3  15  16 133.347 35.9904   1
   4  15  16 53.7450 33.8155  -3
   4  15  16 53.7450 33.8155   1
   5  15  16 270.128 8.79496   1
   6  15  16 124.239 6.74219   1
   7  15  16 23.6690 3.97549   1
   8  15  16 76.0386 7.53050   1
   9  15  16 38.7800 6.40274   1
  10  15  16 142.700 12.7214   1
   0  16  16 1038.06 21.8814   1
   1  16  16 677.046 35.7276  -3
   1  16  16 677.046 35.7276   1
   2  16  16 31.9031 18.6616  -3
   2  16  16 31.9031 18.6616   1
   3  16  16 351.268 38.1548  -3
   3  16  16 351.268 38.1548   1
   4  16  16 74.8757 35.1883  -3
   4  16  16 74.8757 35.1883   1
   5  16  16 181.554 8.25118   1
   6  16  16 1.04998 4.33295   1
   7  16  16 31.8476 4.46595   1
   8  16  16 181.848 10.3225   1
   9  16  16 12.3250 7.05146   1
  10  16  16 50.3262 10.5887   1
   0  17  16 11.8836 5.45432   1
   1  17  16 297.099 7.93086   1
   2  17  16 82.7765 5.72996   1
   3  17  16 52.6498 4.95542   1
   4  17  16 13.6146 4.10407   1
   5  17  16 486.536 13.3505   1
   6  17  16 107.018 6.62511   1
   7  17  16 64.6125 5.42622   1
   8  17  16 92.0696 8.34014   1
   9  17  16 26.4543 12.8655   1
   0  18  16 4344.94 90.2616   1
   1  18  16 61.9828 5.18569   1
   2  18  16 1326.22 23.8897   1
   3  18  16 102.739 6.40115   1
   4  18  16 133.874 6.54980   1
   5  18  16 84.2139 6.58430   1
   6  18  16 127.276 7.25182   1
   7  18  16 61.2330 5.31971   1
   8  18  16 130.948 9.39959   1
   0  19  16 -1.2486 6.57841   1
   1  19  16 275.979 9.08743   1
   2  19  16 18.5831 4.93049   1
   3  19  16 210.115 8.30736   1
   4  19  16 480.950 11.6461   1
   5  19  16 24.6842 5.84582   1
   6  19  16 108.180 6.97726   1
   7  19  16 186.879 8.22557   1
   8  19  16 576.008 31.8214   1
   0  20  16 131.020 11.0687   1
   1  20  16 105.780 6.42236   1
   2  20  16 70.6365 6.05685   1
   3  20  16 45.5867 5.61976   1
   4  20  16 -1.6598 4.10960   1
   5  20  16 2.33145 5.65597   1
   6  20  16 15.3870 5.32781   1
   7  20  16 26.1243 4.45021   1
   8  20  16 64.0247 14.5320   1
   0  21  16 3.05554 7.57086   1
   1  21  16 14.9633 4.98047   1
   2  21  16 69.8878 6.28879   1
   3  21  16 15.5478 5.58213   1
   4  21  16 132.991 6.83126   1
   5  21  16 50.7066 6.78493   1
   6  21  16 360.080 11.8933   1
   7  21  16 6.32933 5.11412   1
   8  21  16 397.715 20.3326   1
   0  22  16 95.7887 11.0571   1
   1  22  16 39.5723 5.96472   1
   2  22  16 888.127 19.3730   1
   3  22  16 151.574 8.95007   1
   4  22  16 81.3705 6.19807   1
   5  22  16 6.22658 5.98835   1
   6  22  16 51.7761 10.1980   1
   7  22  16 9.71294 5.73439   1
   0  23  16 -3.4099 8.55846   1
   1  23  16 53.6483 6.14342   1
   2  23  16 296.024 10.3226   1
   3  23  16 406.820 13.5143   1
   4  23  16 5.25916 5.25630   1
   5  23  16 70.9703 12.2351   1
   6  23  16 490.290 25.2791   1
   7  23  16 97.5836 10.7107   1
   0  24  16 382.943 18.9494   1
   1  24  16 29.4978 6.14122   1
   2  24  16 22.8537 6.07982   1
   3  24  16 141.721 9.10115   1
   4  24  16 249.182 11.7147   1
   5  24  16 -8.1547 11.6751   1
   6  24  16 23.5012 21.1644   1
   7  24  16 29.0416 19.6811   1
   0  25  16 26.9207 13.1556   1
   1  25  16 85.3754 8.28596   1
   2  25  16 78.4453 8.89083   1
   3  25  16 -1.7379 10.1862   1
   4  25  16 613.333 20.0198   1
   5  25  16 71.2119 22.6018   1
   0  26  16 102.539 16.9766   1
   1  26  16 3.17808 7.48942   1
   2  26  16 558.824 43.7817   1
   3  26  16 3.63902 13.0552   1
   4  26  16 255.791 18.9431   1
   0  27  16 -23.512 11.8285   1
   1  27  16 39.4176 15.3697   1
   3  27  16 268.096 38.3238   1
   4  27  16 28.9449 14.0309   1
   1  28  16 197.971 28.9891   1
   1   0  17 36.9640 8.07887   1
   2   0  17 34.7419 4.80108   1
   3   0  17 1.11815 4.61386   1
   4   0  17 0.89587 3.50898   1
   5   0  17 4.81735 4.43077   1
   6   0  17 3.01509 4.88642   1
   8   0  17 -0.1429 15.0739   1
   1   1  17 2178.63 40.5433  -3
   1   1  17 2178.63 40.5433   1
   1   1  17 2379.99 56.3365  -3
   1   1  17 2379.99 56.3365  -2
   1   1  17 2379.99 56.3365   1
   2   1  17 58.9433 5.23506  -3
   2   1  17 58.9433 5.23506  -2
   2   1  17 58.9433 5.23506   1
   2   1  17 49.5124 4.97781  -3
   2   1  17 49.5124 4.97781   1
   3   1  17 947.343 17.1316  -3
   3   1  17 947.343 17.1316  -2
   3   1  17 947.343 17.1316   1
   3   1  17 840.052 15.2619  -3
   3   1  17 840.052 15.2619   1
   4   1  17 64.6085 9.70354  -3
   4   1  17 64.6085 9.70354  -2
   4   1  17 64.6085 9.70354   1
   4   1  17 67.4108 3.15037  -3
   4   1  17 67.4108 3.15037   1
   5   1  17 82.6369 4.72475  -3
   5   1  17 82.6369 4.72475   1
   5   1  17 78.0370 9.70369  -3
   5   1  17 78.0370 9.70369  -2
   5   1  17 78.0370 9.70369   1
   5   1  17 63.5363 7.33933  -2
   5   1  17 63.5363 7.33933   1
   6   1  17 72.4608 13.3510  -3
   6   1  17 72.4608 13.3510  -2
   6   1  17 72.4608 13.3510   1
   6   1  17 57.2535 6.82997  -2
   6   1  17 57.2535 6.82997   1
   6   1  17 66.9577 6.10882  -3
   6   1  17 66.9577 6.10882   1
   7   1  17 302.311 31.6690  -3
   7   1  17 302.311 31.6690   1
   7   1  17 322.850 25.4895  -2
   7   1  17 322.850 25.4895   1
   8   1  17 707.865 47.5553  -3
   8   1  17 707.865 47.5553   1
   8   1  17 726.373 31.0181  -2
   8   1  17 726.373 31.0181   1
   8   1  17 756.511 49.5271  -3
   8   2  17 756.511 49.5271  -2
   8   1  17 756.511 49.5271   1
   9   1  17 307.713 30.3161  -3
   9   1  17 307.713 30.3161   1
   9   1  17 277.749 28.6151  -3
   9   2  17 277.749 28.6151  -2
   9   1  17 277.749 28.6151   1
  10   1  17 34.5608 22.4639  -3
  10   1  17 34.5608 22.4639   1
  10   1  17 86.4974 23.0046  -3
  10   2  17 86.4974 23.0046  -2
  10   1  17 86.4974 23.0046   1
  11   1  17 43.9549 22.8505  -3
  11   2  17 43.9549 22.8505  -2
  11   1  17 43.9549 22.8505   1
  11   1  17 57.2206 23.6154  -3
  11   1  17 57.2206 23.6154   1
   1   2  17 730.114 15.9642  -3
   1   2  17 730.114 15.9642   1
   1   2  17 852.234 19.9675  -3
   1   2  17 852.234 19.9675  -2
   1   2  17 852.234 19.9675   1
   2   2  17 749.893 13.8138  -3
   2   2  17 749.893 13.8138  -2
   2   2  17 749.893 13.8138   1
   2   2  17 711.980 13.5446  -3
   2   2  17 711.980 13.5446   1
   3   2  17 312.500 7.52744  -3
   3   2  17 312.500 7.52744   1
   3   2  17 360.098 10.4917  -3
   3   2  17 360.098 10.4917  -2
   3   2  17 360.098 10.4917   1
   4   2  17 23.4233 2.93426  -3
   4   2  17 23.4233 2.93426   1
   4   2  17 37.2399 8.99084  -3
   4   2  17 37.2399 8.99084  -2
   4   2  17 37.2399 8.99084   1
   5   2  17 112.389 10.3994  -3
   5   2  17 112.389 10.3994  -2
   5   2  17 112.389 10.3994   1
   5   2  17 124.178 13.1899  -2
   5   2  17 124.178 13.1899   1
   5   2  17 123.281 5.20373  -3
   5   2  17 123.281 5.20373   1
   6   2  17 72.6197 6.95746  -2
   6   2  17 72.6197 6.95746   1
   6   2  17 93.3353 5.71113  -3
   6   2  17 93.3353 5.71113   1
   6   2  17 85.0125 16.4452  -3
   6   2  17 85.0125 16.4452  -2
   6   2  17 85.0125 16.4452   1
   8   2  17 145.431 27.3448  -3
   8   1  17 145.431 27.3448  -2
   8   2  17 145.431 27.3448   1
   8   2  17 171.975 14.3514  -2
   8   2  17 171.975 14.3514   1
   8   2  17 280.316 30.7272  -3
   8   3  17 280.316 30.7272  -2
   8   2  17 280.316 30.7272   1
   9   2  17 -2.8874 23.4299  -3
   9   3  17 -2.8874 23.4299  -2
   9   2  17 -2.8874 23.4299   1
   9   2  17 8.30821 10.8167  -2
   9   2  17 8.30821 10.8167   1
   9   2  17 42.3900 24.1905  -3
   9   1  17 42.3900 24.1905  -2
   9   2  17 42.3900 24.1905   1
  10   2  17 239.864 29.1561  -3
  10   3  17 239.864 29.1561  -2
  10   2  17 239.864 29.1561   1
  10   2  17 215.982 28.2254  -3
  10   1  17 215.982 28.2254  -2
  10   2  17 215.982 28.2254   1
  10   2  17 179.904 19.0556  -2
  10   2  17 179.904 19.0556   1
  11   2  17 41.9759 22.9482  -3
  11   1  17 41.9759 22.9482  -2
  11   2  17 41.9759 22.9482   1
  11   1  17 21.9929 20.0194  -3
  11   2  17 21.9929 20.0194  -2
  11   2  17 21.9929 20.0194   1
  11   2  17 18.4712 24.4679  -3
  11   3  17 18.4712 24.4679  -2
  11   2  17 18.4712 24.4679   1
  12   1  17 293.145 25.2929  -3
  12   2  17 293.145 25.2929  -2
  12   2  17 293.145 25.2929   1
   0   3  17 12.6423 15.4324   1
   1   3  17 160.935 11.5974  -3
   1   3  17 160.935 11.5974  -2
   1   3  17 160.935 11.5974   1
   1   3  17 154.524 8.72662  -3
   1   3  17 154.524 8.72662   1
   2   3  17 376.941 11.4919  -3
   2   3  17 376.941 11.4919  -2
   2   3  17 376.941 11.4919   1
   2   3  17 356.801 8.92457  -3
   2   3  17 356.801 8.92457   1
   3   3  17 20.0818 4.11620  -3
   3   3  17 20.0818 4.11620   1
   3   3  17 17.2048 6.75781  -3
   3   3  17 17.2048 6.75781  -2
   3   3  17 17.2048 6.75781   1
   4   3  17 212.707 9.00395  -3
   4   3  17 212.707 9.00395  -2
   4   3  17 212.707 9.00395   1
   4   3  17 208.913 5.39956  -3
   4   3  17 208.913 5.39956   1
   5   3  17 60.1506 5.03301  -3
   5   3  17 60.1506 5.03301   1
   5   3  17 53.2238 11.6526  -3
   5   3  17 53.2238 11.6526  -2
   5   3  17 53.2238 11.6526   1
   5   3  17 70.9653 13.0442  -2
   5   3  17 70.9653 13.0442   1
   6   3  17 445.134 18.6529  -2
   6   3  17 445.134 18.6529   1
   6   3  17 493.561 22.0990  -3
   6   3  17 493.561 22.0990  -2
   6   3  17 493.561 22.0990   1
   6   3  17 478.734 13.9371  -3
   6   3  17 478.734 13.9371   1
   7   3  17 129.333 20.6651  -2
   7   3  17 129.333 20.6651   1
   7   3  17 134.406 13.4878  -3
   7   2  17 134.406 13.4878  -2
   7   3  17 134.406 13.4878   1
   8   3  17 1521.43 58.5895  -2
   8   3  17 1521.43 58.5895   1
   8   3  17 1669.47 93.4328  -3
   8   2  17 1669.47 93.4328  -2
   8   3  17 1669.47 93.4328   1
   9   3  17 87.7831 12.4822  -2
   9   3  17 87.7831 12.4822   1
   9   3  17 65.4306 25.8515  -3
   9   2  17 65.4306 25.8515  -2
   9   3  17 65.4306 25.8515   1
   9   3  17 102.401 26.2147  -3
   9   4  17 102.401 26.2147  -2
   9   3  17 102.401 26.2147   1
  10   3  17 464.818 38.5189  -3
  10   2  17 464.818 38.5189  -2
  10   3  17 464.818 38.5189   1
  10   3  17 394.337 20.3037  -2
  10   3  17 394.337 20.3037   1
  10   3  17 473.304 37.5911  -3
  10   4  17 473.304 37.5911  -2
  10   3  17 473.304 37.5911   1
  11   3  17 84.8978 25.2788  -3
  11   4  17 84.8978 25.2788  -2
  11   3  17 84.8978 25.2788   1
  11   3  17 140.365 26.7334  -3
  11   2  17 140.365 26.7334  -2
  11   3  17 140.365 26.7334   1
  12   2  17 400.877 29.4429  -3
  12   3  17 400.877 29.4429  -2
  12   3  17 400.877 29.4429   1
   0   4  17 2907.14 102.868  -3
   0   4  17 2907.14 102.868   1
   1   4  17 156.596 17.8316  -3
   1   4  17 156.596 17.8316  -2
   1   4  17 156.596 17.8316   1
   1   4  17 113.968 7.69715  -3
   1   4  17 113.968 7.69715   1
   2   4  17 26.5012 8.61648  -3
   2   4  17 26.5012 8.61648  -2
   2   4  17 26.5012 8.61648   1
   2   4  17 12.6538 4.99251  -3
   2   4  17 12.6538 4.99251   1
   3   4  17 210.591 9.83863  -3
   3   4  17 210.591 9.83863  -2
   3   4  17 210.591 9.83863   1
   3   4  17 175.163 5.45730  -3
   3   4  17 175.163 5.45730   1
   3   4  17 163.154 14.4487  -2
   3   4  17 163.154 14.4487   1
   4   4  17 23.2398 3.79034  -3
   4   4  17 23.2398 3.79034   1
   4   4  17 15.6274 9.91937  -3
   4   4  17 15.6274 9.91937  -2
   4   4  17 15.6274 9.91937   1
   4   4  17 26.0176 6.55685  -2
   4   4  17 26.0176 6.55685   1
   5   4  17 490.228 19.1135  -3
   5   4  17 490.228 19.1135  -2
   5   4  17 490.228 19.1135   1
   5   4  17 511.513 12.1026  -3
   5   4  17 511.513 12.1026   1
   5   4  17 462.255 17.1914  -2
   5   4  17 462.255 17.1914   1
   6   4  17 965.101 40.2649  -2
   6   4  17 965.101 40.2649   1
   6   4  17 953.018 23.0386  -3
   6   4  17 953.018 23.0386   1
   6   4  17 1041.73 62.8954  -3
   6   4  17 1041.73 62.8954  -2
   6   4  17 1041.73 62.8954   1
   7   4  17 399.080 31.2552  -2
   7   4  17 399.080 31.2552   1
   7   4  17 390.200 23.3511  -3
   7   4  17 390.200 23.3511   1
   8   4  17 167.931 16.2403  -2
   8   4  17 167.931 16.2403   1
   8   4  17 137.253 29.0949  -3
   8   5  17 137.253 29.0949  -2
   8   4  17 137.253 29.0949   1
   9   4  17 551.736 41.6753  -3
   9   5  17 551.736 41.6753  -2
   9   4  17 551.736 41.6753   1
   9   4  17 426.238 21.4103  -2
   9   4  17 426.238 21.4103   1
  10   4  17 38.1587 11.9737  -2
  10   4  17 38.1587 11.9737   1
  10   4  17 74.3184 26.8093  -3
  10   5  17 74.3184 26.8093  -2
  10   4  17 74.3184 26.8093   1
  10   4  17 33.7366 27.7424  -3
  10   3  17 33.7366 27.7424  -2
  10   4  17 33.7366 27.7424   1
  11   4  17 64.4191 26.9587  -3
  11   3  17 64.4191 26.9587  -2
  11   4  17 64.4191 26.9587   1
   0   5  17 -12.214 6.44999   1
   1   5  17 534.933 10.8720  -3
   1   5  17 534.933 10.8720   1
   1   5  17 549.153 43.2843  -3
   1   5  17 549.153 43.2843  -2
   1   5  17 549.153 43.2843   1
   2   5  17 431.940 12.9624  -3
   2   5  17 431.940 12.9624  -2
   2   5  17 431.940 12.9624   1
   2   5  17 361.781 8.35633  -3
   2   5  17 361.781 8.35633   1
   3   5  17 567.732 17.1938  -3
   3   5  17 567.732 17.1938  -2
   3   5  17 567.732 17.1938   1
   3   5  17 506.045 9.52843  -3
   3   5  17 506.045 9.52843   1
   3   5  17 531.002 30.5219  -2
   3   5  17 531.002 30.5219   1
   4   5  17 579.914 17.4372  -3
   4   5  17 579.914 17.4372  -2
   4   5  17 579.914 17.4372   1
   4   5  17 544.782 10.0265  -3
   4   5  17 544.782 10.0265   1
   4   5  17 515.831 27.5846  -2
   4   5  17 515.831 27.5846   1
   5   5  17 124.525 6.73797  -3
   5   5  17 124.525 6.73797   1
   5   5  17 113.271 9.10474  -2
   5   5  17 113.271 9.10474   1
   5   5  17 100.597 19.8432  -3
   5   5  17 100.597 19.8432  -2
   5   5  17 100.597 19.8432   1
   6   5  17 133.056 6.60340  -3
   6   5  17 133.056 6.60340   1
   6   5  17 86.0042 17.2943  -2
   6   5  17 86.0042 17.2943   1
   7   5  17 658.194 29.5224  -2
   7   5  17 658.194 29.5224   1
   7   5  17 695.813 29.3648  -3
   7   5  17 695.813 29.3648   1
   8   5  17 16.9128 13.9492  -2
   8   5  17 16.9128 13.9492   1
   8   5  17 -28.113 22.2317  -3
   8   5  17 -28.113 22.2317   1
   9   5  17 13.4419 13.3375  -2
   9   5  17 13.4419 13.3375   1
   9   5  17 -17.059 26.4712  -3
   9   6  17 -17.059 26.4712  -2
   9   5  17 -17.059 26.4712   1
  10   6  17 1106.09 66.8640  -3
  10   5  17 1106.09 66.8640  -2
  10   5  17 1106.09 66.8640   1
  10   5  17 1084.61 65.4597  -3
  10   6  17 1084.61 65.4597  -2
  10   5  17 1084.61 65.4597   1
  10   5  17 1125.89 62.9470  -2
  10   5  17 1125.89 62.9470   1
  11   5  17 23.4353 16.1022  -2
  11   5  17 23.4353 16.1022   1
   0   6  17 2099.50 55.1606  -3
   0   6  17 2099.50 55.1606   1
   1   6  17 2915.61 45.2502  -3
   1   6  17 2915.61 45.2502   1
   1   6  17 3152.36 167.238  -3
   1   6  17 3152.36 167.238  -2
   1   6  17 3152.36 167.238   1
   2   6  17 899.848 15.9479  -3
   2   6  17 899.848 15.9479   1
   2   6  17 928.612 49.9904  -2
   2   6  17 928.612 49.9904   1
   2   6  17 958.859 24.5264  -3
   2   6  17 958.859 24.5264  -2
   2   6  17 958.859 24.5264   1
   3   6  17 2397.83 35.8801  -3
   3   6  17 2397.83 35.8801   1
   3   6  17 2324.32 82.0278  -2
   3   6  17 2324.32 82.0278   1
   3   6  17 2471.70 53.9811  -3
   3   6  17 2471.70 53.9811  -2
   3   6  17 2471.70 53.9811   1
   4   6  17 23.2570 7.43030  -2
   4   6  17 23.2570 7.43030   1
   4   6  17 19.0998 12.3348  -3
   4   6  17 19.0998 12.3348  -2
   4   6  17 19.0998 12.3348   1
   4   6  17 22.5951 4.71650  -3
   4   6  17 22.5951 4.71650   1
   5   6  17 1695.34 28.9807  -3
   5   6  17 1695.34 28.9807   1
   5   6  17 1563.50 37.6985  -2
   5   6  17 1563.50 37.6985   1
   6   6  17 153.170 7.87227  -3
   6   6  17 153.170 7.87227   1
   6   6  17 144.944 12.7516  -2
   6   6  17 144.944 12.7516   1
   7   6  17 123.198 11.3238  -3
   7   6  17 123.198 11.3238   1
   7   6  17 97.5798 14.1118  -2
   7   6  17 97.5798 14.1118   1
   8   6  17 338.443 21.3326  -2
   8   6  17 338.443 21.3326   1
   8   6  17 361.546 31.7351  -3
   8   6  17 361.546 31.7351   1
   9   6  17 51.6022 15.2457  -2
   9   6  17 51.6022 15.2457   1
   9   6  17 39.8407 23.3717  -3
   9   6  17 39.8407 23.3717   1
  10   6  17 51.1263 23.4211  -3
  10   6  17 51.1263 23.4211   1
  10   7  17 18.7466 31.2718  -3
  10   6  17 18.7466 31.2718  -2
  10   6  17 18.7466 31.2718   1
  10   6  17 76.1221 19.1070  -2
  10   6  17 76.1221 19.1070   1
  11   6  17 80.1797 18.9675  -2
  11   6  17 80.1797 18.9675   1
  11   7  17 36.4496 29.8103  -3
  11   6  17 36.4496 29.8103  -2
  11   6  17 36.4496 29.8103   1
  11   7  17 85.7558 23.7833  -2
  11   6  17 85.7558 23.7833   1
   0   7  17 16.3068 6.31217   1
   1   7  17 154.563 6.76924  -3
   1   7  17 154.563 6.76924   1
   1   7  17 183.258 26.8670  -3
   1   7  17 183.258 26.8670  -2
   1   7  17 183.258 26.8670   1
   2   7  17 82.9614 22.8156  -3
   2   7  17 82.9614 22.8156  -2
   2   7  17 82.9614 22.8156   1
   2   7  17 46.5600 5.18539  -3
   2   7  17 46.5600 5.18539   1
   2   7  17 37.2082 20.0224  -2
   2   7  17 37.2082 20.0224   1
   3   7  17 174.664 9.10770  -2
   3   7  17 174.664 9.10770   1
   3   7  17 190.063 6.03061  -3
   3   7  17 190.063 6.03061   1
   3   7  17 218.582 19.3329  -3
   3   7  17 218.582 19.3329  -2
   3   7  17 218.582 19.3329   1
   4   7  17 33.8841 6.84417  -2
   4   7  17 33.8841 6.84417   1
   4   7  17 22.0111 5.08498  -3
   4   7  17 22.0111 5.08498   1
   4   7  17 24.6773 27.3682  -3
   4   7  17 24.6773 27.3682  -2
   4   7  17 24.6773 27.3682   1
   5   7  17 30.3004 7.43514  -3
   5   7  17 30.3004 7.43514   1
   5   7  17 19.8920 8.81331  -2
   5   7  17 19.8920 8.81331   1
   6   7  17 178.951 10.7333  -3
   6   7  17 178.951 10.7333   1
   6   7  17 237.268 28.2986  -2
   6   7  17 237.268 28.2986   1
   7   7  17 1235.85 40.1497  -3
   7   7  17 1235.85 40.1497   1
   7   7  17 1016.47 41.6826  -2
   7   7  17 1016.47 41.6826   1
   8   7  17 196.516 18.2278  -2
   8   7  17 196.516 18.2278   1
   8   7  17 204.533 19.5449  -3
   8   7  17 204.533 19.5449   1
   9   7  17 108.601 18.0006  -3
   9   7  17 108.601 18.0006   1
   9   7  17 102.310 16.5533  -2
   9   7  17 102.310 16.5533   1
  10   7  17 5.06568 15.0894  -2
  10   7  17 5.06568 15.0894   1
  11   7  17 3.14715 17.8683  -2
  11   7  17 3.14715 17.8683   1
  11   8  17 -32.059 31.4900  -3
  11   7  17 -32.059 31.4900  -2
  11   7  17 -32.059 31.4900   1
   0   8  17 5239.45 94.1245  -3
   0   8  17 5239.45 94.1245   1
   1   8  17 134.905 5.86529  -3
   1   8  17 134.905 5.86529   1
   2   8  17 365.460 7.56780  -3
   2   8  17 365.460 7.56780   1
   2   8  17 374.965 35.4655  -2
   2   8  17 374.965 35.4655   1
   3   8  17 7.35944 4.94136  -3
   3   8  17 7.35944 4.94136   1
   3   8  17 8.86193 10.0023  -2
   3   8  17 8.86193 10.0023   1
   4   8  17 660.734 12.2604  -3
   4   8  17 660.734 12.2604   1
   4   8  17 675.571 20.4013  -2
   4   8  17 675.571 20.4013   1
   5   8  17 497.143 16.0100  -3
   5   8  17 497.143 16.0100   1
   5   8  17 477.325 20.8361  -2
   5   8  17 477.325 20.8361   1
   6   8  17 33.9305 12.2094  -3
   6   8  17 33.9305 12.2094   1
   6   8  17 71.1694 25.4883  -2
   6   8  17 71.1694 25.4883   1
   7   8  17 1133.39 37.5968  -3
   7   8  17 1133.39 37.5968   1
   7   8  17 1081.10 65.2006  -2
   7   8  17 1081.10 65.2006   1
   8   8  17 387.543 35.3387  -2
   8   8  17 387.543 35.3387   1
   8   8  17 396.333 24.9037  -3
   8   8  17 396.333 24.9037   1
   9   8  17 -28.569 15.6346  -2
   9   8  17 -28.569 15.6346   1
   9   8  17 11.5454 24.0080  -3
   9   8  17 11.5454 24.0080   1
  10   8  17 208.346 19.3347  -2
  10   8  17 208.346 19.3347   1
  10   8  17 238.464 30.6763  -3
  10   8  17 238.464 30.6763   1
  11   8  17 43.6392 8.63355   1
   0   9  17 -9.6181 6.41801   1
   1   9  17 3508.07 46.9341  -3
   1   9  17 3508.07 46.9341   1
   2   9  17 50.6340 5.30648  -3
   2   9  17 50.6340 5.30648   1
   2   9  17 56.0430 27.3817  -2
   2   9  17 56.0430 27.3817   1
   3   9  17 1026.54 16.0558  -3
   3   9  17 1026.54 16.0558   1
   3   9  17 1040.21 35.8356  -2
   3   9  17 1040.21 35.8356   1
   4   9  17 396.750 17.3001  -2
   4   9  17 396.750 17.3001   1
   4   9  17 375.533 10.2032  -3
   4   9  17 375.533 10.2032   1
   5   9  17 110.194 28.1137  -2
   5   9  17 110.194 28.1137   1
   5   9  17 87.6589 10.8548  -3
   5   9  17 87.6589 10.8548   1
   6   9  17 38.5769 12.8904  -3
   6   9  17 38.5769 12.8904   1
   6   9  17 -8.8007 25.6634  -2
   6   9  17 -8.8007 25.6634   1
   7   9  17 1124.97 37.4695  -3
   7   9  17 1124.97 37.4695   1
   7   9  17 1157.76 69.6841  -2
   7   9  17 1157.76 69.6841   1
   8   9  17 291.493 32.3004  -3
   8   9  17 291.493 32.3004   1
   8   9  17 289.839 33.2104  -2
   8   9  17 289.839 33.2104   1
   9   9  17 61.9979 25.1880  -3
   9   9  17 61.9979 25.1880   1
   9   9  17 70.0109 26.0161  -2
   9   9  17 70.0109 26.0161   1
  10   9  17 235.245 31.5285  -2
  10   9  17 235.245 31.5285   1
  10   9  17 195.015 30.2188  -3
  10   9  17 195.015 30.2188   1
  11   9  17 20.8033 10.7976   1
   0  10  17 1312.76 30.9368  -3
   0  10  17 1312.76 30.9368   1
   1  10  17 111.176 6.87236  -3
   1  10  17 111.176 6.87236   1
   2  10  17 1943.44 29.4679  -3
   2  10  17 1943.44 29.4679   1
   3  10  17 510.588 9.34346  -3
   3  10  17 510.588 9.34346   1
   3  10  17 548.385 42.3796  -2
   3  10  17 548.385 42.3796   1
   4  10  17 1221.76 28.8350  -3
   4  10  17 1221.76 28.8350   1
   5  10  17 367.750 15.9711  -3
   5  10  17 367.750 15.9711   1
   6  10  17 214.664 15.9536  -3
   6  10  17 214.664 15.9536   1
   6  10  17 143.486 29.9662  -2
   6  10  17 143.486 29.9662   1
   7  10  17 48.1632 27.9716  -2
   7  10  17 48.1632 27.9716   1
   7  10  17 91.5594 28.4366  -3
   7  10  17 91.5594 28.4366   1
   8  10  17 58.1627 26.9731  -3
   8  10  17 58.1627 26.9731   1
   8  10  17 -11.575 26.3792  -2
   8  10  17 -11.575 26.3792   1
   9  10  17 288.069 33.0237  -2
   9  10  17 288.069 33.0237   1
   9  10  17 363.425 35.7405  -3
   9  10  17 363.425 35.7405   1
  10  10  17 2.33670 28.3410  -2
  10  10  17 2.33670 28.3410   1
  10  10  17 4.61113 25.7125  -3
  10  10  17 4.61113 25.7125   1
   0  11  17 11.7553 7.41829   1
   1  11  17 5.79070 6.62839  -3
   1  11  17 5.79070 6.62839   1
   2  11  17 59.9702 7.18817  -3
   2  11  17 59.9702 7.18817   1
   3  11  17 232.829 8.59946  -3
   3  11  17 232.829 8.59946   1
   4  11  17 98.6376 11.0240  -3
   4  11  17 98.6376 11.0240   1
   5  11  17 9.56852 13.6373  -3
   5  11  17 9.56852 13.6373   1
   6  11  17 887.424 32.2719  -3
   6  11  17 887.424 32.2719   1
   7  11  17 428.660 27.3357  -3
   7  11  17 428.660 27.3357   1
   8  11  17 127.619 30.2576  -3
   8  11  17 127.619 30.2576   1
   8  11  17 152.258 29.5480  -2
   8  11  17 152.258 29.5480   1
   9  11  17 66.9737 6.45460   1
  10  11  17 99.8475 29.2959  -2
  10  11  17 99.8475 29.2959   1
   0  12  17 1603.55 46.7349  -3
   0  12  17 1603.55 46.7349   1
   1  12  17 23.5315 8.79341  -3
   1  12  17 23.5315 8.79341   1
   2  12  17 96.6701 9.27787  -3
   2  12  17 96.6701 9.27787   1
   3  12  17 602.538 16.2196  -3
   3  12  17 602.538 16.2196   1
   4  12  17 241.722 13.4022  -3
   4  12  17 241.722 13.4022   1
   5  12  17 109.264 15.8664  -3
   5  12  17 109.264 15.8664   1
   6  12  17 31.5642 14.5058  -3
   6  12  17 31.5642 14.5058   1
   7  12  17 160.853 32.2710  -3
   7  12  17 160.853 32.2710   1
   8  12  17 152.504 8.95201   1
   9  12  17 5.56912 5.00190   1
  10  12  17 30.9144 7.00584   1
   0  13  17 4.07870 6.49938   1
   1  13  17 368.558 13.7507  -3
   1  13  17 368.558 13.7507   1
   2  13  17 2659.25 47.8491  -3
   2  13  17 2659.25 47.8491   1
   3  13  17 180.596 11.7585  -3
   3  13  17 180.596 11.7585   1
   4  13  17 925.328 29.8744  -3
   4  13  17 925.328 29.8744   1
   5  13  17 81.6255 15.8307  -3
   5  13  17 81.6255 15.8307   1
   6  13  17 21.9102 29.4789  -3
   6  13  17 21.9102 29.4789   1
   7  13  17 31.1121 4.88345   1
   8  13  17 51.1424 6.54315   1
   9  13  17 125.908 8.20514   1
  10  13  17 14.7254 15.5028   1
   0  14  17 1196.21 38.0654  -3
   0  14  17 1196.21 38.0654   1
   1  14  17 273.587 13.3447  -3
   1  14  17 273.587 13.3447   1
   2  14  17 374.876 15.9167  -3
   2  14  17 374.876 15.9167   1
   3  14  17 77.4289 14.9019  -3
   3  14  17 77.4289 14.9019   1
   4  14  17 152.572 21.0564  -3
   4  14  17 152.572 21.0564   1
   5  14  17 304.832 27.1621  -3
   5  14  17 304.832 27.1621   1
   6  14  17 724.321 55.7121  -3
   6  14  17 724.321 55.7121   1
   7  14  17 124.155 7.42748   1
   8  14  17 9.97654 5.71395   1
   9  14  17 0.85446 5.53349   1
   0  15  17 0.38146 5.17583   1
   1  15  17 177.387 16.5124  -3
   1  15  17 177.387 16.5124   1
   2  15  17 252.410 21.6110  -3
   2  15  17 252.410 21.6110   1
   3  15  17 77.9814 35.6481  -3
   3  15  17 77.9814 35.6481   1
   4  15  17 412.431 43.7057  -3
   4  15  17 412.431 43.7057   1
   5  15  17 191.015 7.86636   1
   6  15  17 4.89438 4.49731   1
   7  15  17 137.258 6.41049   1
   8  15  17 56.2972 7.02745   1
   9  15  17 105.689 8.16697   1
  10  15  17 12.5673 8.45955   1
   0  16  17 908.237 20.8952   1
   1  16  17 2090.56 120.491  -3
   1  16  17 2090.56 120.491   1
   2  16  17 75.0770 22.6312  -3
   2  16  17 75.0770 22.6312   1
   3  16  17 704.160 14.2881   1
   4  16  17 1557.61 94.6964  -3
   4  16  17 1557.61 94.6964   1
   5  16  17 14.9371 4.88973   1
   6  16  17 147.279 7.46969   1
   7  16  17 13.8318 4.16634   1
   8  16  17 21.1599 6.44570   1
   9  16  17 6.59753 7.58191   1
  10  16  17 69.9610 11.9228   1
   0  17  17 0.38076 5.35356   1
   1  17  17 263.724 7.95301   1
   2  17  17 23.3844 30.4296  -3
   2  17  17 23.3844 30.4296   1
   3  17  17 132.223 6.88932   1
   4  17  17 207.630 7.49101   1
   5  17  17 129.590 7.58796   1
   6  17  17 33.3000 5.27159   1
   7  17  17 2.45194 4.23368   1
   8  17  17 674.522 20.2649   1
   9  17  17 70.0024 19.3445   1
   0  18  17 601.896 16.9211   1
   1  18  17 184.880 7.31814   1
   2  18  17 113.486 6.49717   1
   3  18  17 137.182 6.78849   1
   4  18  17 43.5835 4.85504   1
   5  18  17 60.2809 5.96693   1
   6  18  17 3.39594 4.84139   1
   7  18  17 8.52026 4.29818   1
   8  18  17 351.062 19.4947   1
   0  19  17 1.33101 5.59775   1
   1  19  17 10.2636 4.78034   1
   2  19  17 142.037 7.39277   1
   3  19  17 290.249 9.87206   1
   4  19  17 13.3558 4.42977   1
   5  19  17 383.102 12.1956   1
   6  19  17 205.685 9.04743   1
   7  19  17 191.526 8.32201   1
   8  19  17 36.3041 13.5079   1
   0  20  17 25.7391 6.71327   1
   1  20  17 139.433 7.30110   1
   2  20  17 40.2459 5.79342   1
   3  20  17 115.667 7.37358   1
   4  20  17 28.8327 4.75043   1
   5  20  17 130.483 8.56148   1
   6  20  17 249.111 9.88836   1
   7  20  17 12.7205 4.43152   1
   8  20  17 781.818 28.9578   1
   0  21  17 -3.3624 6.54536   1
   1  21  17 29.2118 5.43602   1
   2  21  17 90.3871 6.79882   1
   3  21  17 275.353 11.0067   1
   4  21  17 42.5031 5.56332   1
   5  21  17 87.3474 7.99657   1
   6  21  17 63.1700 6.77561   1
   7  21  17 9.20824 5.17429   1
   8  21  17 265.588 18.4611   1
   0  22  17 2.67019 8.56467   1
   1  22  17 34.1955 5.71441   1
   2  22  17 157.938 8.75035   1
   3  22  17 460.284 14.3150   1
   4  22  17 33.3774 5.77906   1
   5  22  17 187.500 14.9908   1
   6  22  17 683.876 25.0170   1
   7  22  17 50.6230 8.56651   1
   0  23  17 12.5778 9.33008   1
   1  23  17 32.2929 6.07186   1
   2  23  17 402.102 12.6847   1
   3  23  17 578.979 16.5989   1
   4  23  17 27.9114 7.66238   1
   5  23  17 9.77914 10.3041   1
   6  23  17 49.4108 15.7043   1
   7  23  17 17.3093 7.72653   1
   0  24  17 165.899 14.4142   1
   1  24  17 5.86767 5.73380   1
   2  24  17 85.8161 8.26763   1
   3  24  17 15.8179 8.93800   1
   4  24  17 153.782 10.7158   1
   5  24  17 9.74954 12.8302   1
   6  24  17 39.1534 20.7364   1
   7  24  17 118.522 28.7722   1
   0  25  17 13.1913 12.3580   1
   1  25  17 320.597 12.6474   1
   2  25  17 31.7843 10.5407   1
   3  25  17 187.865 17.0669   1
   4  25  17 37.7203 11.0694   1
   5  25  17 52.1862 26.3877   1
   0  26  17 699.518 34.5788   1
   1  26  17 19.1684 8.94912   1
   3  26  17 535.121 30.4582   1
   4  26  17 19.7359 10.9822   1
   0  27  17 -13.169 18.7818   1
   1  27  17 485.370 30.8659   1
   3  27  17 348.593 59.0713   1
   4  27  17 120.171 21.1986   1
   1   0  18 441.559 14.0942  -3
   1   0  18 441.559 14.0942   1
   1   0  18 474.914 38.8857  -3
   1   0  18 474.914 38.8857  -2
   1   0  18 474.914 38.8857   1
   3   0  18 38.1907 6.32651  -3
   3   0  18 38.1907 6.32651   1
   3   0  18 45.7118 9.64901  -3
   3   0  18 45.7118 9.64901  -2
   3   0  18 45.7118 9.64901   1
   4   0  18 190.134 14.2054  -3
   4   0  18 190.134 14.2054  -2
   4   0  18 190.134 14.2054   1
   4   0  18 183.021 6.74404  -3
   4   0  18 183.021 6.74404   1
   5   0  18 495.957 14.5289  -3
   5   0  18 495.957 14.5289   1
   5   0  18 473.950 26.1213  -3
   5   0  18 473.950 26.1213  -2
   5   0  18 473.950 26.1213   1
   5   0  18 494.632 28.4718  -2
   5   0  18 494.632 28.4718   1
   6   0  18 59.5012 22.8947  -3
   6   0  18 59.5012 22.8947  -2
   6   0  18 59.5012 22.8947   1
   6   0  18 56.2673 11.4334  -3
   6   0  18 56.2673 11.4334   1
   8   0  18 109.958 18.2155  -2
   8   0  18 109.958 18.2155   1
   8   0  18 120.441 25.1324  -3
   8   1  18 120.441 25.1324  -2
   8   0  18 120.441 25.1324   1
   9   0  18 148.291 24.8773  -3
   9   1  18 148.291 24.8773  -2
   9   0  18 148.291 24.8773   1
  10   0  18 341.184 31.8835  -3
  10   1  18 341.184 31.8835  -2
  10   0  18 341.184 31.8835   1
  11   1  18 300.149 28.4165  -3
  11   0  18 300.149 28.4165  -2
  11   0  18 300.149 28.4165   1
  11   0  18 321.377 31.0325  -3
  11   1  18 321.377 31.0325  -2
  11   0  18 321.377 31.0325   1
   1   1  18 346.677 15.2872  -3
   1   1  18 346.677 15.2872  -2
   1   1  18 346.677 15.2872   1
   1   1  18 325.588 9.72579  -3
   1   1  18 325.588 9.72579   1
   2   1  18 3131.17 53.7925  -3
   2   1  18 3131.17 53.7925  -2
   2   1  18 3131.17 53.7925   1
   2   1  18 2921.02 47.5157  -3
   2   1  18 2921.02 47.5157   1
   3   1  18 69.3067 6.09964  -3
   3   1  18 69.3067 6.09964  -2
   3   1  18 69.3067 6.09964   1
   3   1  18 72.1854 4.82424  -3
   3   1  18 72.1854 4.82424   1
   4   1  18 12.2576 2.95119  -3
   4   1  18 12.2576 2.95119   1
   4   1  18 -1.4599 9.69744  -3
   4   1  18 -1.4599 9.69744  -2
   4   1  18 -1.4599 9.69744   1
   5   1  18 102.366 12.2753  -3
   5   1  18 102.366 12.2753  -2
   5   1  18 102.366 12.2753   1
   5   1  18 93.9481 5.19239  -3
   5   1  18 93.9481 5.19239   1
   6   1  18 669.810 25.7838  -3
   6   1  18 669.810 25.7838   1
   6   1  18 746.465 34.1624  -3
   6   1  18 746.465 34.1624  -2
   6   1  18 746.465 34.1624   1
   6   1  18 590.290 38.2527  -2
   6   1  18 590.290 38.2527   1
   7   1  18 856.429 52.6383  -3
   7   1  18 856.429 52.6383  -2
   7   1  18 856.429 52.6383   1
   7   1  18 910.888 57.7353  -3
   7   0  18 910.888 57.7353  -2
   7   1  18 910.888 57.7353   1
   8   1  18 323.450 31.9465  -3
   8   2  18 323.450 31.9465  -2
   8   1  18 323.450 31.9465   1
   8   1  18 335.717 18.9631  -2
   8   1  18 335.717 18.9631   1
   8   1  18 370.024 34.0899  -3
   8   0  18 370.024 34.0899  -2
   8   1  18 370.024 34.0899   1
   9   1  18 0.32488 14.5759  -2
   9   1  18 0.32488 14.5759   1
   9   1  18 -11.615 22.7669  -3
   9   2  18 -11.615 22.7669  -2
   9   1  18 -11.615 22.7669   1
   9   1  18 29.7178 22.9714  -3
   9   0  18 29.7178 22.9714  -2
   9   1  18 29.7178 22.9714   1
  10   1  18 36.6185 23.2837  -3
  10   2  18 36.6185 23.2837  -2
  10   1  18 36.6185 23.2837   1
  10   1  18 46.5721 23.2839  -3
  10   0  18 46.5721 23.2839  -2
  10   1  18 46.5721 23.2839   1
  11   1  18 21.0656 22.7548  -3
  11   2  18 21.0656 22.7548  -2
  11   1  18 21.0656 22.7548   1
  11   0  18 52.9195 20.9686  -3
  11   1  18 52.9195 20.9686  -2
  11   1  18 52.9195 20.9686   1
  11   1  18 59.7878 24.2499  -3
  11   0  18 59.7878 24.2499  -2
  11   1  18 59.7878 24.2499   1
  11   2  18 53.5654 22.9169  -3
  11   1  18 53.5654 22.9169  -2
  11   1  18 53.5654 22.9169   1
  12   0  18 14.1439 20.8618  -3
  12   1  18 14.1439 20.8618  -2
  12   1  18 14.1439 20.8618   1
   1   2  18 92.5334 7.46594  -3
   1   2  18 92.5334 7.46594   1
   1   2  18 87.8252 16.0970  -3
   1   2  18 87.8252 16.0970  -2
   1   2  18 87.8252 16.0970   1
   2   2  18 131.100 5.64075  -3
   2   2  18 131.100 5.64075   1
   2   2  18 139.194 7.07797  -3
   2   2  18 139.194 7.07797  -2
   2   2  18 139.194 7.07797   1
   3   2  18 89.8351 4.94686  -3
   3   2  18 89.8351 4.94686   1
   3   2  18 99.9722 7.74322  -3
   3   2  18 99.9722 7.74322  -2
   3   2  18 99.9722 7.74322   1
   4   2  18 30.6802 9.34986  -3
   4   2  18 30.6802 9.34986  -2
   4   2  18 30.6802 9.34986   1
   4   2  18 39.5824 3.59747  -3
   4   2  18 39.5824 3.59747   1
   5   2  18 23.3265 10.3796  -3
   5   2  18 23.3265 10.3796  -2
   5   2  18 23.3265 10.3796   1
   5   2  18 33.7101 4.59197  -3
   5   2  18 33.7101 4.59197   1
   5   2  18 42.0044 8.16154  -2
   5   2  18 42.0044 8.16154   1
   6   2  18 1238.26 71.9419  -3
   6   2  18 1238.26 71.9419  -2
   6   2  18 1238.26 71.9419   1
   6   2  18 1118.05 33.4240  -3
   6   2  18 1118.05 33.4240   1
   7   2  18 547.827 24.8079  -3
   7   1  18 547.827 24.8079  -2
   7   2  18 547.827 24.8079   1
   7   2  18 435.824 31.4280  -2
   7   2  18 435.824 31.4280   1
   7   2  18 676.905 47.2724  -3
   7   3  18 676.905 47.2724  -2
   7   2  18 676.905 47.2724   1
   8   2  18 457.116 37.6893  -3
   8   3  18 457.116 37.6893  -2
   8   2  18 457.116 37.6893   1
   8   2  18 427.395 37.2740  -3
   8   1  18 427.395 37.2740  -2
   8   2  18 427.395 37.2740   1
   8   2  18 411.915 30.5282  -2
   8   2  18 411.915 30.5282   1
   9   2  18 38.0020 24.5690  -3
   9   3  18 38.0020 24.5690  -2
   9   2  18 38.0020 24.5690   1
   9   2  18 11.0090 24.5904  -3
   9   1  18 11.0090 24.5904  -2
   9   2  18 11.0090 24.5904   1
   9   2  18 37.4560 11.5725  -2
   9   2  18 37.4560 11.5725   1
  10   2  18 46.6735 15.7623  -2
  10   2  18 46.6735 15.7623   1
  10   2  18 144.333 26.4287  -3
  10   3  18 144.333 26.4287  -2
  10   2  18 144.333 26.4287   1
  10   2  18 67.7267 25.1095  -3
  10   1  18 67.7267 25.1095  -2
  10   2  18 67.7267 25.1095   1
  11   3  18 59.8302 23.5269  -3
  11   2  18 59.8302 23.5269  -2
  11   2  18 59.8302 23.5269   1
  11   2  18 58.2497 25.3861  -3
  11   3  18 58.2497 25.3861  -2
  11   2  18 58.2497 25.3861   1
  11   2  18 64.9045 24.7178  -3
  11   1  18 64.9045 24.7178  -2
  11   2  18 64.9045 24.7178   1
  12   1  18 481.762 33.9665  -3
  12   2  18 481.762 33.9665  -2
  12   2  18 481.762 33.9665   1
   0   3  18 2.15071 15.8338   1
   1   3  18 2713.23 57.6163  -3
   1   3  18 2713.23 57.6163   1
   1   3  18 3047.33 111.191  -3
   1   3  18 3047.33 111.191  -2
   1   3  18 3047.33 111.191   1
   2   3  18 253.932 7.75713  -3
   2   3  18 253.932 7.75713   1
   2   3  18 251.717 10.1262  -3
   2   3  18 251.717 10.1262  -2
   2   3  18 251.717 10.1262   1
   3   3  18 1500.05 27.4354  -3
   3   3  18 1500.05 27.4354  -2
   3   3  18 1500.05 27.4354   1
   3   3  18 1319.16 21.4785  -3
   3   3  18 1319.16 21.4785   1
   4   3  18 996.519 15.9366  -3
   4   3  18 996.519 15.9366   1
   4   3  18 1053.29 23.3463  -3
   4   3  18 1053.29 23.3463  -2
   4   3  18 1053.29 23.3463   1
   5   3  18 49.3340 10.8998  -3
   5   3  18 49.3340 10.8998  -2
   5   3  18 49.3340 10.8998   1
   5   3  18 40.1485 11.2856  -2
   5   3  18 40.1485 11.2856   1
   5   3  18 34.0351 5.68267  -3
   5   3  18 34.0351 5.68267   1
   6   3  18 84.4834 6.49007  -3
   6   3  18 84.4834 6.49007   1
   6   3  18 92.6060 27.3526  -3
   6   3  18 92.6060 27.3526  -2
   6   3  18 92.6060 27.3526   1
   7   3  18 3008.36 149.067  -3
   7   2  18 3008.36 149.067  -2
   7   3  18 3008.36 149.067   1
   7   3  18 2597.60 96.6354  -2
   7   3  18 2597.60 96.6354   1
   8   3  18 494.723 39.4985  -3
   8   4  18 494.723 39.4985  -2
   8   3  18 494.723 39.4985   1
   8   3  18 367.374 20.4209  -2
   8   3  18 367.374 20.4209   1
   8   3  18 474.686 39.2046  -3
   8   2  18 474.686 39.2046  -2
   8   3  18 474.686 39.2046   1
   9   3  18 67.4318 26.3865  -3
   9   4  18 67.4318 26.3865  -2
   9   3  18 67.4318 26.3865   1
   9   4  18 17.6548 24.7975  -3
   9   3  18 17.6548 24.7975  -2
   9   3  18 17.6548 24.7975   1
   9   3  18 11.3285 17.2650  -2
   9   3  18 11.3285 17.2650   1
   9   3  18 -27.468 24.7724  -3
   9   2  18 -27.468 24.7724  -2
   9   3  18 -27.468 24.7724   1
  10   3  18 592.418 43.3925  -3
  10   4  18 592.418 43.3925  -2
  10   3  18 592.418 43.3925   1
  10   3  18 481.089 23.1661  -2
  10   3  18 481.089 23.1661   1
  10   3  18 566.753 43.5471  -3
  10   2  18 566.753 43.5471  -2
  10   3  18 566.753 43.5471   1
  11   3  18 12.8303 24.7387  -3
  11   2  18 12.8303 24.7387  -2
  11   3  18 12.8303 24.7387   1
  11   4  18 -16.936 24.8040  -3
  11   3  18 -16.936 24.8040  -2
  11   3  18 -16.936 24.8040   1
  11   3  18 -13.054 25.2703  -3
  11   4  18 -13.054 25.2703  -2
  11   3  18 -13.054 25.2703   1
   0   4  18 3890.52 191.114  -3
   0   4  18 3890.52 191.114   1
   1   4  18 132.117 15.2904  -3
   1   4  18 132.117 15.2904  -2
   1   4  18 132.117 15.2904   1
   1   4  18 116.327 7.87020  -3
   1   4  18 116.327 7.87020   1
   2   4  18 2919.38 50.0087  -3
   2   4  18 2919.38 50.0087   1
   2   4  18 3237.16 63.6754  -3
   2   4  18 3237.16 63.6754  -2
   2   4  18 3237.16 63.6754   1
   3   4  18 65.4868 4.87544  -3
   3   4  18 65.4868 4.87544   1
   3   4  18 44.1607 8.81916  -3
   3   4  18 44.1607 8.81916  -2
   3   4  18 44.1607 8.81916   1
   3   4  18 68.3335 12.3138  -2
   3   4  18 68.3335 12.3138   1
   4   4  18 65.4537 4.28381  -3
   4   4  18 65.4537 4.28381   1
   4   4  18 60.0396 7.83124  -2
   4   4  18 60.0396 7.83124   1
   4   4  18 65.2655 9.25413  -3
   4   4  18 65.2655 9.25413  -2
   4   4  18 65.2655 9.25413   1
   5   4  18 26.3754 4.53505  -3
   5   4  18 26.3754 4.53505   1
   5   4  18 14.1593 12.5892  -3
   5   4  18 14.1593 12.5892  -2
   5   4  18 14.1593 12.5892   1
   5   4  18 27.7457 8.47576  -2
   5   4  18 27.7457 8.47576   1
   6   4  18 314.869 12.3143  -3
   6   4  18 314.869 12.3143   1
   6   4  18 258.960 23.8309  -2
   6   4  18 258.960 23.8309   1
   7   4  18 1632.21 63.1502  -2
   7   4  18 1632.21 63.1502   1
   8   4  18 3.88035 26.3291  -3
   8   5  18 3.88035 26.3291  -2
   8   4  18 3.88035 26.3291   1
   8   4  18 7.98181 13.5714  -2
   8   4  18 7.98181 13.5714   1
   9   4  18 118.359 20.4016  -2
   9   4  18 118.359 20.4016   1
   9   4  18 10.7773 26.1838  -3
   9   5  18 10.7773 26.1838  -2
   9   4  18 10.7773 26.1838   1
  10   4  18 218.225 30.9842  -3
  10   5  18 218.225 30.9842  -2
  10   4  18 218.225 30.9842   1
  10   4  18 172.893 14.7425  -2
  10   4  18 172.893 14.7425   1
  10   4  18 271.836 33.4313  -3
  10   3  18 271.836 33.4313  -2
  10   4  18 271.836 33.4313   1
  11   4  18 44.7094 26.9036  -3
  11   5  18 44.7094 26.9036  -2
  11   4  18 44.7094 26.9036   1
  11   4  18 45.1489 28.4885  -3
  11   3  18 45.1489 28.4885  -2
  11   4  18 45.1489 28.4885   1
  11   4  18 37.4865 17.0009  -2
  11   4  18 37.4865 17.0009   1
   0   5  18 -0.4684 6.85837   1
   1   5  18 114.468 5.73907  -3
   1   5  18 114.468 5.73907   1
   1   5  18 120.813 30.0202  -3
   1   5  18 120.813 30.0202  -2
   1   5  18 120.813 30.0202   1
   2   5  18 74.2946 10.0203  -3
   2   5  18 74.2946 10.0203  -2
   2   5  18 74.2946 10.0203   1
   2   5  18 77.6393 5.36234  -3
   2   5  18 77.6393 5.36234   1
   3   5  18 319.738 13.6335  -3
   3   5  18 319.738 13.6335  -2
   3   5  18 319.738 13.6335   1
   3   5  18 296.015 7.04199  -3
   3   5  18 296.015 7.04199   1
   3   5  18 292.581 20.9318  -2
   3   5  18 292.581 20.9318   1
   4   5  18 639.836 20.7016  -3
   4   5  18 639.836 20.7016  -2
   4   5  18 639.836 20.7016   1
   4   5  18 627.561 11.0991  -3
   4   5  18 627.561 11.0991   1
   4   5  18 565.698 30.3600  -2
   4   5  18 565.698 30.3600   1
   5   5  18 265.603 13.0822  -2
   5   5  18 265.603 13.0822   1
   5   5  18 287.963 24.3113  -3
   5   5  18 287.963 24.3113  -2
   5   5  18 287.963 24.3113   1
   5   5  18 274.782 7.94954  -3
   5   5  18 274.782 7.94954   1
   6   5  18 3392.83 122.116  -2
   6   5  18 3392.83 122.116   1
   6   5  18 3879.64 97.0383  -3
   6   5  18 3879.64 97.0383   1
   7   5  18 142.406 13.1249  -3
   7   5  18 142.406 13.1249   1
   7   5  18 124.576 14.3830  -2
   7   5  18 124.576 14.3830   1
   8   5  18 86.7103 15.2854  -2
   8   5  18 86.7103 15.2854   1
   9   5  18 24.4941 14.1067  -2
   9   5  18 24.4941 14.1067   1
   9   5  18 15.6075 27.7348  -3
   9   6  18 15.6075 27.7348  -2
   9   5  18 15.6075 27.7348   1
  10   5  18 907.344 58.1786  -3
  10   6  18 907.344 58.1786  -2
  10   5  18 907.344 58.1786   1
  10   5  18 726.303 44.5432  -2
  10   5  18 726.303 44.5432   1
  10   6  18 857.828 56.2083  -3
  10   5  18 857.828 56.2083  -2
  10   5  18 857.828 56.2083   1
  11   5  18 34.2801 28.0299  -3
  11   6  18 34.2801 28.0299  -2
  11   5  18 34.2801 28.0299   1
  11   5  18 91.9616 19.4367  -2
  11   5  18 91.9616 19.4367   1
  11   5  18 97.3367 30.4193  -3
  11   4  18 97.3367 30.4193  -2
  11   5  18 97.3367 30.4193   1
   0   6  18 653.648 21.0969  -3
   0   6  18 653.648 21.0969   1
   1   6  18 216.367 7.68714  -3
   1   6  18 216.367 7.68714   1
   1   6  18 224.005 34.6238  -3
   1   6  18 224.005 34.6238  -2
   1   6  18 224.005 34.6238   1
   2   6  18 53.3020 11.7215  -3
   2   6  18 53.3020 11.7215  -2
   2   6  18 53.3020 11.7215   1
   2   6  18 50.8025 5.04381  -3
   2   6  18 50.8025 5.04381   1
   3   6  18 59.0639 4.85272  -3
   3   6  18 59.0639 4.85272   1
   3   6  18 82.5408 11.9605  -3
   3   6  18 82.5408 11.9605  -2
   3   6  18 82.5408 11.9605   1
   3   6  18 55.7193 9.59395  -2
   3   6  18 55.7193 9.59395   1
   4   6  18 55.8982 4.66982  -3
   4   6  18 55.8982 4.66982   1
   4   6  18 56.9962 13.2256  -3
   4   6  18 56.9962 13.2256  -2
   4   6  18 56.9962 13.2256   1
   4   6  18 65.3268 8.36148  -2
   4   6  18 65.3268 8.36148   1
   5   6  18 541.361 14.4863  -3
   5   6  18 541.361 14.4863   1
   5   6  18 563.289 20.8709  -2
   5   6  18 563.289 20.8709   1
   6   6  18 406.242 15.1938  -3
   6   6  18 406.242 15.1938   1
   6   6  18 402.055 34.1944  -2
   6   6  18 402.055 34.1944   1
   7   6  18 400.195 21.7841  -2
   7   6  18 400.195 21.7841   1
   7   6  18 490.215 19.9657  -3
   7   6  18 490.215 19.9657   1
   8   6  18 100.429 25.4046  -3
   8   6  18 100.429 25.4046   1
   8   6  18 118.216 16.5542  -2
   8   6  18 118.216 16.5542   1
   9   6  18 67.3644 15.5535  -2
   9   6  18 67.3644 15.5535   1
   9   6  18 107.754 32.2713  -3
   9   7  18 107.754 32.2713  -2
   9   6  18 107.754 32.2713   1
  10   6  18 1039.30 59.7261  -2
  10   6  18 1039.30 59.7261   1
  10   6  18 1009.39 64.6636  -3
  10   7  18 1009.39 64.6636  -2
  10   6  18 1009.39 64.6636   1
  11   7  18 62.4438 29.9672  -3
  11   6  18 62.4438 29.9672  -2
  11   6  18 62.4438 29.9672   1
  11   6  18 19.2587 18.6487  -2
  11   6  18 19.2587 18.6487   1
  11   7  18 49.0147 24.3574  -2
  11   6  18 49.0147 24.3574   1
   0   7  18 7.31337 6.03110   1
   1   7  18 366.731 8.67175  -3
   1   7  18 366.731 8.67175   1
   2   7  18 1023.52 15.8794  -3
   2   7  18 1023.52 15.8794   1
   2   7  18 1029.07 44.8673  -2
   2   7  18 1029.07 44.8673   1
   2   7  18 1190.37 73.3609  -3
   2   7  18 1190.37 73.3609  -2
   2   7  18 1190.37 73.3609   1
   3   7  18 115.313 5.54483  -3
   3   7  18 115.313 5.54483   1
   3   7  18 111.526 8.47562  -2
   3   7  18 111.526 8.47562   1
   3   7  18 108.585 18.0991  -3
   3   7  18 108.585 18.0991  -2
   3   7  18 108.585 18.0991   1
   4   7  18 564.835 16.5742  -2
   4   7  18 564.835 16.5742   1
   4   7  18 671.684 46.6550  -3
   4   7  18 671.684 46.6550  -2
   4   7  18 671.684 46.6550   1
   4   7  18 575.809 11.5237  -3
   4   7  18 575.809 11.5237   1
   5   7  18 283.098 10.1292  -3
   5   7  18 283.098 10.1292   1
   5   7  18 285.121 16.6091  -2
   5   7  18 285.121 16.6091   1
   6   7  18 910.171 26.7195  -3
   6   7  18 910.171 26.7195   1
   6   7  18 893.408 55.5317  -2
   6   7  18 893.408 55.5317   1
   7   7  18 53.5477 11.2765  -3
   7   7  18 53.5477 11.2765   1
   7   7  18 50.6548 13.5185  -2
   7   7  18 50.6548 13.5185   1
   8   7  18 1202.92 49.2099  -2
   8   7  18 1202.92 49.2099   1
   8   7  18 1118.60 47.4293  -3
   8   7  18 1118.60 47.4293   1
   9   7  18 392.645 23.4960  -2
   9   7  18 392.645 23.4960   1
   9   7  18 424.122 35.7023  -3
   9   7  18 424.122 35.7023   1
  10   7  18 158.643 17.5744  -2
  10   7  18 158.643 17.5744   1
  10   7  18 198.200 28.5909  -3
  10   7  18 198.200 28.5909   1
  11   7  18 86.9659 20.1155  -2
  11   7  18 86.9659 20.1155   1
   0   8  18 285.695 11.1884  -3
   0   8  18 285.695 11.1884   1
   1   8  18 109.374 6.12544  -3
   1   8  18 109.374 6.12544   1
   2   8  18 26.4340 5.16036  -3
   2   8  18 26.4340 5.16036   1
   2   8  18 67.6312 24.4803  -2
   2   8  18 67.6312 24.4803   1
   3   8  18 22.0764 5.25266  -3
   3   8  18 22.0764 5.25266   1
   3   8  18 26.2157 10.6979  -2
   3   8  18 26.2157 10.6979   1
   4   8  18 888.035 28.1175  -2
   4   8  18 888.035 28.1175   1
   4   8  18 895.915 19.1731  -3
   4   8  18 895.915 19.1731   1
   5   8  18 24.6465 7.74915  -3
   5   8  18 24.6465 7.74915   1
   5   8  18 8.80199 15.5857  -2
   5   8  18 8.80199 15.5857   1
   6   8  18 174.073 11.4549  -3
   6   8  18 174.073 11.4549   1
   6   8  18 202.751 29.8725  -2
   6   8  18 202.751 29.8725   1
   7   8  18 494.396 21.1544  -3
   7   8  18 494.396 21.1544   1
   7   8  18 406.099 36.2640  -2
   7   8  18 406.099 36.2640   1
   8   8  18 514.579 28.7640  -3
   8   8  18 514.579 28.7640   1
   8   8  18 437.165 37.1155  -2
   8   8  18 437.165 37.1155   1
   9   8  18 592.134 29.9800  -2
   9   8  18 592.134 29.9800   1
   9   8  18 495.843 39.7876  -3
   9   8  18 495.843 39.7876   1
  10   8  18 194.068 19.4307  -2
  10   8  18 194.068 19.4307   1
  10   8  18 200.620 29.2866  -3
  10   8  18 200.620 29.2866   1
  11   8  18 -2.7487 10.9465   1
   0   9  18 0.76684 5.96370   1
   1   9  18 2925.39 39.6182  -3
   1   9  18 2925.39 39.6182   1
   2   9  18 1989.62 27.6718  -3
   2   9  18 1989.62 27.6718   1
   2   9  18 1604.63 91.6443  -2
   2   9  18 1604.63 91.6443   1
   3   9  18 284.938 7.61201  -3
   3   9  18 284.938 7.61201   1
   3   9  18 291.989 15.8649  -2
   3   9  18 291.989 15.8649   1
   4   9  18 103.853 8.65380  -3
   4   9  18 103.853 8.65380   1
   4   9  18 122.907 13.6574  -2
   4   9  18 122.907 13.6574   1
   5   9  18 74.0643 11.1054  -3
   5   9  18 74.0643 11.1054   1
   5   9  18 95.3163 27.1053  -2
   5   9  18 95.3163 27.1053   1
   6   9  18 43.0380 12.8353  -3
   6   9  18 43.0380 12.8353   1
   6   9  18 27.1804 26.9225  -2
   6   9  18 27.1804 26.9225   1
   7   9  18 136.872 13.9057  -3
   7   9  18 136.872 13.9057   1
   7   9  18 101.216 26.9814  -2
   7   9  18 101.216 26.9814   1
   8   9  18 933.680 58.9528  -2
   8   9  18 933.680 58.9528   1
   8   9  18 962.967 43.0191  -3
   8   9  18 962.967 43.0191   1
   9   9  18 46.2095 25.7913  -3
   9   9  18 46.2095 25.7913   1
   9   9  18 126.372 28.3708  -2
   9   9  18 126.372 28.3708   1
  10   9  18 -2.2224 25.8666  -3
  10   9  18 -2.2224 25.8666   1
  10   9  18 2.29232 26.1636  -2
  10   9  18 2.29232 26.1636   1
  11   9  18 98.5023 17.9521   1
   0  10  18 350.681 15.0958  -3
   0  10  18 350.681 15.0958   1
   1  10  18 899.865 15.3050  -3
   1  10  18 899.865 15.3050   1
   2  10  18 26.6752 6.35228  -3
   2  10  18 26.6752 6.35228   1
   3  10  18 957.538 61.3539  -2
   3  10  18 957.538 61.3539   1
   3  10  18 972.929 16.4792  -3
   3  10  18 972.929 16.4792   1
   4  10  18 1254.78 26.9529  -3
   4  10  18 1254.78 26.9529   1
   5  10  18 29.3629 10.8379  -3
   5  10  18 29.3629 10.8379   1
   6  10  18 164.650 30.0941  -2
   6  10  18 164.650 30.0941   1
   6  10  18 181.471 15.2580  -3
   6  10  18 181.471 15.2580   1
   7  10  18 114.480 14.1630  -3
   7  10  18 114.480 14.1630   1
   7  10  18 118.762 29.4492  -2
   7  10  18 118.762 29.4492   1
   8  10  18 52.6750 27.2989  -3
   8  10  18 52.6750 27.2989   1
   8  10  18 109.248 29.4997  -2
   8  10  18 109.248 29.4997   1
   9  10  18 12.4241 25.2257  -3
   9  10  18 12.4241 25.2257   1
   9  10  18 26.2031 27.5427  -2
   9  10  18 26.2031 27.5427   1
  10  10  18 9.69522 26.7851  -3
  10  10  18 9.69522 26.7851   1
  10  10  18 -14.077 26.6463  -2
  10  10  18 -14.077 26.6463   1
   0  11  18 -7.2022 5.82783   1
   1  11  18 26.6490 7.44569  -3
   1  11  18 26.6490 7.44569   1
   2  11  18 288.898 9.53563  -3
   2  11  18 288.898 9.53563   1
   3  11  18 473.632 13.3494  -3
   3  11  18 473.632 13.3494   1
   3  11  18 525.072 46.3833  -2
   3  11  18 525.072 46.3833   1
   4  11  18 246.925 12.7141  -3
   4  11  18 246.925 12.7141   1
   5  11  18 50.5934 14.5073  -3
   5  11  18 50.5934 14.5073   1
   6  11  18 418.057 20.6447  -3
   6  11  18 418.057 20.6447   1
   6  11  18 428.939 40.3116  -2
   6  11  18 428.939 40.3116   1
   7  11  18 328.211 25.2197  -3
   7  11  18 328.211 25.2197   1
   8  11  18 549.327 44.9698  -2
   8  11  18 549.327 44.9698   1
   8  11  18 668.370 50.1844  -3
   8  11  18 668.370 50.1844   1
   9  11  18 26.7978 28.0824  -3
   9  11  18 26.7978 28.0824   1
  10  11  18 28.6462 30.2332  -2
  10  11  18 28.6462 30.2332   1
   0  12  18 986.409 32.3724  -3
   0  12  18 986.409 32.3724   1
   1  12  18 54.1332 9.27216  -3
   1  12  18 54.1332 9.27216   1
   2  12  18 266.591 11.0088  -3
   2  12  18 266.591 11.0088   1
   3  12  18 348.729 13.5442  -3
   3  12  18 348.729 13.5442   1
   4  12  18 62.0827 11.7945  -3
   4  12  18 62.0827 11.7945   1
   5  12  18 141.170 16.6215  -3
   5  12  18 141.170 16.6215   1
   6  12  18 11.2746 16.4267  -3
   6  12  18 11.2746 16.4267   1
   7  12  18 221.549 34.1050  -3
   7  12  18 221.549 34.1050   1
   8  12  18 20.2615 5.62031   1
   9  12  18 679.792 19.2484   1
  10  12  18 27.9241 9.53246   1
   0  13  18 32.9981 7.05927   1
   1  13  18 860.160 19.7524  -3
   1  13  18 860.160 19.7524   1
   2  13  18 240.102 15.6894  -3
   2  13  18 240.102 15.6894   1
   3  13  18 43.1971 11.6410  -3
   3  13  18 43.1971 11.6410   1
   4  13  18 1193.89 41.7911  -3
   4  13  18 1193.89 41.7911   1
   5  13  18 766.893 30.5776  -3
   5  13  18 766.893 30.5776   1
   6  13  18 41.8752 21.0724  -3
   6  13  18 41.8752 21.0724   1
   7  13  18 33.8596 30.9036  -3
   7  13  18 33.8596 30.9036   1
   8  13  18 8.31147 5.53908   1
   9  13  18 40.5868 6.39950   1
   0  14  18 412.311 22.0088  -3
   0  14  18 412.311 22.0088   1
   1  14  18 3348.70 67.6343  -3
   1  14  18 3348.70 67.6343   1
   2  14  18 480.668 18.1208  -3
   2  14  18 480.668 18.1208   1
   3  14  18 369.511 19.3249  -3
   3  14  18 369.511 19.3249   1
   4  14  18 466.999 28.9052  -3
   4  14  18 466.999 28.9052   1
   5  14  18 183.607 24.8629  -3
   5  14  18 183.607 24.8629   1
   6  14  18 492.223 45.5052  -3
   6  14  18 492.223 45.5052   1
   7  14  18 36.9049 5.49839   1
   8  14  18 0.31817 5.67459   1
   9  14  18 72.6731 7.35397   1
  10  14  18 64.3862 10.6924   1
   0  15  18 -1.7577 5.77497   1
   1  15  18 226.770 22.6916  -3
   1  15  18 226.770 22.6916   1
   2  15  18 62.8261 21.8126  -3
   2  15  18 62.8261 21.8126   1
   3  15  18 74.6983 22.6491  -3
   3  15  18 74.6983 22.6491   1
   4  15  18 46.6560 34.3037  -3
   4  15  18 46.6560 34.3037   1
   5  15  18 28.3711 5.17358   1
   6  15  18 70.5264 5.92481   1
   7  15  18 68.5555 5.31689   1
   8  15  18 -0.2703 5.57186   1
   9  15  18 10.7159 6.80944   1
  10  15  18 332.737 21.5359   1
   0  16  18 700.222 17.3008   1
   1  16  18 36.1290 25.6143  -3
   1  16  18 36.1290 25.6143   1
   2  16  18 117.277 24.0011  -3
   2  16  18 117.277 24.0011   1
   3  16  18 11.9517 30.7217  -3
   3  16  18 11.9517 30.7217   1
   4  16  18 798.146 61.2074  -3
   4  16  18 798.146 61.2074   1
   5  16  18 106.322 7.04644   1
   6  16  18 23.0612 4.90085   1
   7  16  18 59.4422 5.26526   1
   8  16  18 63.8001 7.62516   1
   9  16  18 152.161 13.4274   1
   0  17  18 5.55899 5.70595   1
   1  17  18 27.7095 4.83130   1
   2  17  18 -35.098 27.4801  -3
   2  17  18 -35.098 27.4801   1
   3  17  18 43.7521 30.0786  -3
   3  17  18 43.7521 30.0786   1
   4  17  18 421.896 10.7384   1
   5  17  18 26.8882 5.46638   1
   6  17  18 98.3278 6.61379   1
   7  17  18 170.110 7.56973   1
   8  17  18 127.041 9.07817   1
   9  17  18 44.9466 20.5771   1
   0  18  18 36.3271 6.45001   1
   1  18  18 221.201 8.58495   1
   2  18  18 9.45217 4.55447   1
   3  18  18 166.474 7.50749   1
   4  18  18 0.61706 4.47928   1
   5  18  18 13.1446 5.21870   1
   6  18  18 1.00520 4.73705   1
   7  18  18 48.8505 5.48483   1
   8  18  18 161.599 19.8184   1
   0  19  18 -7.4130 5.60109   1
   1  19  18 6.42931 5.01845   1
   2  19  18 9.83682 4.91947   1
   3  19  18 103.509 6.98204   1
   4  19  18 29.6064 5.00975   1
   5  19  18 857.390 20.4281   1
   6  19  18 76.4168 6.62704   1
   7  19  18 590.278 15.1796   1
   8  19  18 24.5633 7.04111   1
   0  20  18 209.484 11.0092   1
   1  20  18 16.4273 5.07654   1
   2  20  18 45.9302 5.94530   1
   3  20  18 74.3485 6.55480   1
   4  20  18 83.0537 6.17977   1
   5  20  18 82.5173 6.97297   1
   6  20  18 37.0256 5.92722   1
   7  20  18 123.117 6.94134   1
   8  20  18 8.00488 7.83108   1
   0  21  18 3.52385 6.78671   1
   1  21  18 10.6559 5.19074   1
   2  21  18 10.3189 5.68846   1
   3  21  18 365.913 12.5394   1
   4  21  18 142.919 8.08011   1
   5  21  18 17.8123 6.03024   1
   6  21  18 7.84163 6.06284   1
   7  21  18 612.108 19.7629   1
   0  22  18 9.70200 7.38082   1
   1  22  18 10.1003 5.38034   1
   2  22  18 31.6819 6.16585   1
   3  22  18 630.886 17.5823   1
   4  22  18 17.8381 5.43201   1
   5  22  18 -2.2026 10.0527   1
   6  22  18 228.460 19.2088   1
   7  22  18 121.807 18.1011   1
   0  23  18 2.88509 7.37161   1
   1  23  18 472.282 13.7024   1
   2  23  18 187.761 9.67662   1
   3  23  18 415.995 13.8303   1
   4  23  18 6.34823 6.96631   1
   5  23  18 172.364 20.8622   1
   6  23  18 4.38414 20.0998   1
   7  23  18 163.327 21.3612   1
   0  24  18 1427.71 39.8816   1
   1  24  18 7.17535 6.52829   1
   2  24  18 174.342 11.9242   1
   3  24  18 148.515 14.0054   1
   4  24  18 15.2419 7.60547   1
   5  24  18 40.6723 14.6083   1
   6  24  18 32.8643 21.2966   1
   7  24  18 -2.2347 20.4336   1
   0  25  18 1.20329 8.95158   1
   1  25  18 9.58756 7.38471   1
   2  25  18 104.478 19.8144   1
   3  25  18 246.984 18.6351   1
   4  25  18 47.6113 11.5865   1
   0  26  18 146.002 14.3053   1
   1  26  18 584.929 25.7029   1
   3  26  18 99.3502 16.4308   1
   4  26  18 124.207 14.9659   1
   0  27  18 -7.7743 11.3410   1
   1  27  18 94.0581 22.4472   1
   1   0  19 6.13145 7.90481   1
   2   0  19 10.6645 5.02506   1
   3   0  19 1.78057 4.95073   1
   4   0  19 -3.1408 4.25200   1
   5   0  19 -0.4749 5.64781   1
   6   0  19 3.79925 9.86641   1
   7   0  19 3.33684 22.8084   1
   8   0  19 -2.2060 15.0533   1
   1   1  19 1928.45 41.8687  -3
   1   1  19 1928.45 41.8687   1
   1   1  19 2073.17 79.9542  -3
   1   1  19 2073.17 79.9542  -2
   1   1  19 2073.17 79.9542   1
   2   1  19 68.3023 5.50466  -3
   2   1  19 68.3023 5.50466   1
   2   1  19 68.1807 6.18220  -3
   2   1  19 68.1807 6.18220  -2
   2   1  19 68.1807 6.18220   1
   3   1  19 34.3178 5.96643  -3
   3   1  19 34.3178 5.96643  -2
   3   1  19 34.3178 5.96643   1
   3   1  19 28.0915 4.58742  -3
   3   1  19 28.0915 4.58742   1
   4   1  19 905.392 25.0314  -3
   4   1  19 905.392 25.0314  -2
   4   1  19 905.392 25.0314   1
   4   1  19 873.072 14.2896  -3
   4   1  19 873.072 14.2896   1
   5   1  19 35.5842 4.93248  -3
   5   1  19 35.5842 4.93248   1
   5   1  19 41.8322 10.6059  -3
   5   1  19 41.8322 10.6059  -2
   5   1  19 41.8322 10.6059   1
   6   1  19 49.7571 9.13231  -3
   6   1  19 49.7571 9.13231   1
   6   1  19 85.8797 17.3900  -3
   6   1  19 85.8797 17.3900  -2
   6   1  19 85.8797 17.3900   1
   7   1  19 19.5615 22.3159  -3
   7   1  19 19.5615 22.3159  -2
   7   1  19 19.5615 22.3159   1
   7   1  19 21.0305 25.8276  -3
   7   2  19 21.0305 25.8276  -2
   7   1  19 21.0305 25.8276   1
   7   1  19 -18.402 6.06071  -3
   7   1  19 -18.402 6.06071   1
   8   1  19 98.5639 12.4527  -2
   8   1  19 98.5639 12.4527   1
   8   1  19 108.065 26.0651  -3
   8   2  19 108.065 26.0651  -2
   8   1  19 108.065 26.0651   1
   8   1  19 132.476 26.2721  -3
   8   1  19 132.476 26.2721   1
   9   1  19 847.976 35.3081  -2
   9   1  19 847.976 35.3081   1
   9   1  19 942.441 58.3421  -3
   9   2  19 942.441 58.3421  -2
   9   1  19 942.441 58.3421   1
   9   1  19 894.187 55.8604  -3
   9   1  19 894.187 55.8604   1
  10   1  19 23.8310 22.3897  -2
  10   1  19 23.8310 22.3897   1
  10   1  19 19.0862 23.9471  -3
  10   1  19 19.0862 23.9471   1
  10   1  19 114.679 25.7449  -3
  10   2  19 114.679 25.7449  -2
  10   1  19 114.679 25.7449   1
  11   1  19 415.223 32.9528  -2
  11   1  19 415.223 32.9528   1
  11   1  19 432.079 36.7117  -3
  11   1  19 432.079 36.7117   1
  11   1  19 425.357 35.6973  -3
  11   2  19 425.357 35.6973  -2
  11   1  19 425.357 35.6973   1
  11   2  19 428.989 34.3534  -3
  11   1  19 428.989 34.3534  -2
  11   1  19 428.989 34.3534   1
   1   2  19 897.894 20.1384  -3
   1   2  19 897.894 20.1384   1
   1   2  19 972.936 41.1634  -3
   1   2  19 972.936 41.1634  -2
   1   2  19 972.936 41.1634   1
   2   2  19 2084.81 34.7366  -3
   2   2  19 2084.81 34.7366   1
   2   2  19 2271.48 37.8046  -3
   2   2  19 2271.48 37.8046  -2
   2   2  19 2271.48 37.8046   1
   3   2  19 366.236 8.60474  -3
   3   2  19 366.236 8.60474   1
   3   2  19 378.265 10.5936  -3
   3   2  19 378.265 10.5936  -2
   3   2  19 378.265 10.5936   1
   4   2  19 32.5229 3.75725  -3
   4   2  19 32.5229 3.75725   1
   4   2  19 40.9405 7.56801  -3
   4   2  19 40.9405 7.56801  -2
   4   2  19 40.9405 7.56801   1
   5   2  19 196.464 11.4550  -3
   5   2  19 196.464 11.4550  -2
   5   2  19 196.464 11.4550   1
   5   2  19 185.531 4.82964  -3
   5   2  19 185.531 4.82964   1
   6   2  19 78.1956 10.3971  -3
   6   2  19 78.1956 10.3971   1
   6   2  19 137.706 18.7107  -3
   6   3  19 137.706 18.7107  -2
   6   2  19 137.706 18.7107   1
   6   2  19 110.907 26.9173  -3
   6   2  19 110.907 26.9173  -2
   6   2  19 110.907 26.9173   1
   7   2  19 393.929 33.8860  -3
   7   2  19 393.929 33.8860  -2
   7   2  19 393.929 33.8860   1
   7   2  19 370.957 29.6573  -2
   7   2  19 370.957 29.6573   1
   7   2  19 483.558 39.9722  -3
   7   3  19 483.558 39.9722  -2
   7   2  19 483.558 39.9722   1
   7   2  19 339.008 35.9831  -3
   7   1  19 339.008 35.9831  -2
   7   2  19 339.008 35.9831   1
   8   2  19 38.5510 26.8125  -3
   8   1  19 38.5510 26.8125  -2
   8   2  19 38.5510 26.8125   1
   8   2  19 18.5332 11.9900  -2
   8   2  19 18.5332 11.9900   1
   8   2  19 13.3699 25.4566  -3
   8   3  19 13.3699 25.4566  -2
   8   2  19 13.3699 25.4566   1
   9   2  19 42.6057 10.4590  -2
   9   2  19 42.6057 10.4590   1
   9   2  19 51.8499 25.9272  -3
   9   1  19 51.8499 25.9272  -2
   9   2  19 51.8499 25.9272   1
   9   2  19 15.8218 24.5713  -3
   9   3  19 15.8218 24.5713  -2
   9   2  19 15.8218 24.5713   1
  10   2  19 63.4187 25.5658  -3
  10   3  19 63.4187 25.5658  -2
  10   2  19 63.4187 25.5658   1
  10   3  19 28.9163 24.6405  -3
  10   2  19 28.9163 24.6405  -2
  10   2  19 28.9163 24.6405   1
  10   2  19 -20.185 24.0045  -3
  10   1  19 -20.185 24.0045  -2
  10   2  19 -20.185 24.0045   1
  11   3  19 85.8521 24.9472  -3
  11   2  19 85.8521 24.9472  -2
  11   2  19 85.8521 24.9472   1
  11   2  19 97.7174 26.7313  -3
  11   3  19 97.7174 26.7313  -2
  11   2  19 97.7174 26.7313   1
  11   2  19 117.356 26.5385  -3
  11   1  19 117.356 26.5385  -2
  11   2  19 117.356 26.5385   1
  11   1  19 135.424 23.5475  -3
  11   2  19 135.424 23.5475  -2
  11   2  19 135.424 23.5475   1
   0   3  19 10.1481 16.4694   1
   1   3  19 131.351 8.01413  -3
   1   3  19 131.351 8.01413   1
   1   3  19 132.372 18.4338  -3
   1   3  19 132.372 18.4338  -2
   1   3  19 132.372 18.4338   1
   2   3  19 593.825 12.7893  -3
   2   3  19 593.825 12.7893   1
   2   3  19 612.303 14.2670  -3
   2   3  19 612.303 14.2670  -2
   2   3  19 612.303 14.2670   1
   3   3  19 78.2460 7.77599  -3
   3   3  19 78.2460 7.77599  -2
   3   3  19 78.2460 7.77599   1
   3   3  19 84.4330 5.12084  -3
   3   3  19 84.4330 5.12084   1
   4   3  19 73.1322 7.64465  -3
   4   3  19 73.1322 7.64465  -2
   4   3  19 73.1322 7.64465   1
   4   3  19 62.7038 4.27955  -3
   4   3  19 62.7038 4.27955   1
   4   3  19 53.3163 8.56402  -2
   4   3  19 53.3163 8.56402   1
   5   3  19 41.8424 3.70391  -3
   5   3  19 41.8424 3.70391   1
   5   3  19 11.7262 10.3983  -3
   5   3  19 11.7262 10.3983  -2
   5   3  19 11.7262 10.3983   1
   5   3  19 39.6912 12.6195  -2
   5   3  19 39.6912 12.6195   1
   6   3  19 72.7799 7.44217  -3
   6   3  19 72.7799 7.44217   1
   6   3  19 91.4896 28.0589  -3
   6   3  19 91.4896 28.0589  -2
   6   3  19 91.4896 28.0589   1
   7   3  19 1762.62 66.4176  -3
   7   2  19 1762.62 66.4176  -2
   7   3  19 1762.62 66.4176   1
   7   3  19 1522.57 83.3040  -2
   7   3  19 1522.57 83.3040   1
   7   3  19 1906.68 94.4845  -3
   7   4  19 1906.68 94.4845  -2
   7   3  19 1906.68 94.4845   1
   8   3  19 -4.2694 12.9866  -2
   8   3  19 -4.2694 12.9866   1
   8   3  19 -1.4732 26.1194  -3
   8   4  19 -1.4732 26.1194  -2
   8   3  19 -1.4732 26.1194   1
   8   3  19 44.3915 27.9801  -3
   8   2  19 44.3915 27.9801  -2
   8   3  19 44.3915 27.9801   1
   9   3  19 146.006 28.9105  -3
   9   4  19 146.006 28.9105  -2
   9   3  19 146.006 28.9105   1
   9   3  19 107.682 28.4087  -3
   9   2  19 107.682 28.4087  -2
   9   3  19 107.682 28.4087   1
   9   3  19 120.663 13.8177  -2
   9   3  19 120.663 13.8177   1
  10   3  19 23.3201 11.7692  -2
  10   3  19 23.3201 11.7692   1
  10   3  19 -0.0189 27.4204  -3
  10   2  19 -0.0189 27.4204  -2
  10   3  19 -0.0189 27.4204   1
  10   3  19 86.5092 27.5781  -3
  10   4  19 86.5092 27.5781  -2
  10   3  19 86.5092 27.5781   1
  11   3  19 32.7462 25.7188  -3
  11   2  19 32.7462 25.7188  -2
  11   3  19 32.7462 25.7188   1
  11   3  19 -5.9967 26.4948  -3
  11   4  19 -5.9967 26.4948  -2
  11   3  19 -5.9967 26.4948   1
  11   4  19 -10.370 25.4363  -3
  11   3  19 -10.370 25.4363  -2
  11   3  19 -10.370 25.4363   1
  11   2  19 -1.4351 21.8077  -3
  11   3  19 -1.4351 21.8077  -2
  11   3  19 -1.4351 21.8077   1
   0   4  19 668.003 39.3498  -3
   0   4  19 668.003 39.3498   1
   1   4  19 131.912 7.46033  -3
   1   4  19 131.912 7.46033   1
   1   4  19 159.287 23.8788  -3
   1   4  19 159.287 23.8788  -2
   1   4  19 159.287 23.8788   1
   2   4  19 67.5910 5.99096  -3
   2   4  19 67.5910 5.99096   1
   2   4  19 88.4377 9.69072  -3
   2   4  19 88.4377 9.69072  -2
   2   4  19 88.4377 9.69072   1
   3   4  19 0.14939 8.34033  -3
   3   4  19 0.14939 8.34033  -2
   3   4  19 0.14939 8.34033   1
   3   4  19 14.2921 4.49600  -3
   3   4  19 14.2921 4.49600   1
   4   4  19 139.835 9.89438  -3
   4   4  19 139.835 9.89438  -2
   4   4  19 139.835 9.89438   1
   4   4  19 135.203 10.9926  -2
   4   4  19 135.203 10.9926   1
   4   4  19 136.766 5.18361  -3
   4   4  19 136.766 5.18361   1
   5   4  19 767.436 16.6896  -3
   5   4  19 767.436 16.6896   1
   5   4  19 887.592 28.4328  -3
   5   4  19 887.592 28.4328  -2
   5   4  19 887.592 28.4328   1
   5   4  19 811.673 31.9159  -2
   5   4  19 811.673 31.9159   1
   6   4  19 473.725 16.7197  -3
   6   4  19 473.725 16.7197   1
   6   4  19 457.750 39.9714  -3
   6   4  19 457.750 39.9714  -2
   6   4  19 457.750 39.9714   1
   6   4  19 422.008 33.8084  -2
   6   4  19 422.008 33.8084   1
   7   4  19 112.595 6.63187  -3
   7   4  19 112.595 6.63187   1
   7   4  19 106.069 14.0229  -2
   7   4  19 106.069 14.0229   1
   8   4  19 249.170 18.5654  -2
   8   4  19 249.170 18.5654   1
   8   4  19 274.488 33.9824  -3
   8   5  19 274.488 33.9824  -2
   8   4  19 274.488 33.9824   1
   9   4  19 492.861 35.0738  -2
   9   4  19 492.861 35.0738   1
   9   4  19 459.363 39.5408  -3
   9   5  19 459.363 39.5408  -2
   9   4  19 459.363 39.5408   1
   9   4  19 516.300 43.3653  -3
   9   3  19 516.300 43.3653  -2
   9   4  19 516.300 43.3653   1
  10   4  19 453.065 23.0548  -2
  10   4  19 453.065 23.0548   1
  10   4  19 455.974 39.3912  -3
  10   5  19 455.974 39.3912  -2
  10   4  19 455.974 39.3912   1
  10   4  19 447.654 40.2073  -3
  10   3  19 447.654 40.2073  -2
  10   4  19 447.654 40.2073   1
  11   4  19 72.2410 28.2290  -3
  11   5  19 72.2410 28.2290  -2
  11   4  19 72.2410 28.2290   1
  11   4  19 125.547 30.3201  -3
  11   3  19 125.547 30.3201  -2
  11   4  19 125.547 30.3201   1
  11   4  19 96.0303 18.4152  -2
  11   4  19 96.0303 18.4152   1
   0   5  19 11.6086 7.45623   1
   1   5  19 388.656 9.11916  -3
   1   5  19 388.656 9.11916   1
   2   5  19 26.9489 5.09706  -3
   2   5  19 26.9489 5.09706   1
   2   5  19 49.2361 8.63354  -3
   2   5  19 49.2361 8.63354  -2
   2   5  19 49.2361 8.63354   1
   3   5  19 245.242 6.50892  -3
   3   5  19 245.242 6.50892   1
   3   5  19 275.463 12.2164  -3
   3   5  19 275.463 12.2164  -2
   3   5  19 275.463 12.2164   1
   3   5  19 263.576 20.4056  -2
   3   5  19 263.576 20.4056   1
   4   5  19 183.673 11.7929  -3
   4   5  19 183.673 11.7929  -2
   4   5  19 183.673 11.7929   1
   4   5  19 136.841 5.21744  -3
   4   5  19 136.841 5.21744   1
   4   5  19 133.026 12.6552  -2
   4   5  19 133.026 12.6552   1
   5   5  19 131.273 6.74335  -3
   5   5  19 131.273 6.74335   1
   5   5  19 150.582 13.1307  -2
   5   5  19 150.582 13.1307   1
   5   5  19 180.523 32.9068  -3
   5   5  19 180.523 32.9068  -2
   5   5  19 180.523 32.9068   1
   6   5  19 154.577 11.4203  -3
   6   5  19 154.577 11.4203   1
   6   5  19 140.095 24.4037  -2
   6   5  19 140.095 24.4037   1
   7   5  19 58.9285 12.3474  -2
   7   5  19 58.9285 12.3474   1
   7   5  19 59.8153 7.14610  -3
   7   5  19 59.8153 7.14610   1
   8   5  19 13.3194 14.5539  -2
   8   5  19 13.3194 14.5539   1
   9   5  19 4.59705 28.2834  -3
   9   6  19 4.59705 28.2834  -2
   9   5  19 4.59705 28.2834   1
   9   5  19 11.1532 14.2829  -2
   9   5  19 11.1532 14.2829   1
  10   6  19 203.498 32.1118  -3
  10   5  19 203.498 32.1118  -2
  10   5  19 203.498 32.1118   1
  10   5  19 218.226 33.2496  -3
  10   6  19 218.226 33.2496  -2
  10   5  19 218.226 33.2496   1
  10   5  19 155.818 22.2085  -2
  10   5  19 155.818 22.2085   1
  11   5  19 106.139 20.1386  -2
  11   5  19 106.139 20.1386   1
  11   5  19 107.084 30.7684  -3
  11   6  19 107.084 30.7684  -2
  11   5  19 107.084 30.7684   1
  11   5  19 106.725 31.4364  -3
  11   4  19 106.725 31.4364  -2
  11   5  19 106.725 31.4364   1
   0   6  19 285.166 14.2136  -3
   0   6  19 285.166 14.2136   1
   1   6  19 113.880 6.59894  -3
   1   6  19 113.880 6.59894   1
   1   6  19 167.449 34.9220  -3
   1   6  19 167.449 34.9220  -2
   1   6  19 167.449 34.9220   1
   2   6  19 21.0578 5.04183  -3
   2   6  19 21.0578 5.04183   1
   2   6  19 17.8056 11.0572  -3
   2   6  19 17.8056 11.0572  -2
   2   6  19 17.8056 11.0572   1
   3   6  19 53.7322 4.96682  -3
   3   6  19 53.7322 4.96682   1
   3   6  19 51.1653 11.7557  -3
   3   6  19 51.1653 11.7557  -2
   3   6  19 51.1653 11.7557   1
   3   6  19 80.0339 14.8293  -2
   3   6  19 80.0339 14.8293   1
   4   6  19 271.642 7.02333  -3
   4   6  19 271.642 7.02333   1
   4   6  19 246.935 11.2137  -2
   4   6  19 246.935 11.2137   1
   4   6  19 280.921 17.8299  -3
   4   6  19 280.921 17.8299  -2
   4   6  19 280.921 17.8299   1
   5   6  19 268.408 10.7345  -3
   5   6  19 268.408 10.7345   1
   5   6  19 268.699 19.1054  -2
   5   6  19 268.699 19.1054   1
   6   6  19 343.996 14.1700  -3
   6   6  19 343.996 14.1700   1
   6   6  19 338.478 23.2483  -2
   6   6  19 338.478 23.2483   1
   7   6  19 1347.26 53.0970  -2
   7   6  19 1347.26 53.0970   1
   7   6  19 1691.16 44.7662  -3
   7   6  19 1691.16 44.7662   1
   8   6  19 -0.5115 15.3485  -2
   8   6  19 -0.5115 15.3485   1
   8   6  19 26.0408 23.7951  -3
   8   6  19 26.0408 23.7951   1
   9   6  19 15.5270 15.0938  -2
   9   6  19 15.5270 15.0938   1
   9   6  19 7.02304 29.4587  -3
   9   7  19 7.02304 29.4587  -2
   9   6  19 7.02304 29.4587   1
  10   6  19 61.0371 20.6288  -2
  10   6  19 61.0371 20.6288   1
  10   7  19 30.4630 29.9648  -3
  10   6  19 30.4630 29.9648  -2
  10   6  19 30.4630 29.9648   1
  10   6  19 37.3464 33.3585  -3
  10   7  19 37.3464 33.3585  -2
  10   6  19 37.3464 33.3585   1
  11   6  19 598.450 39.2869  -2
  11   6  19 598.450 39.2869   1
   0   7  19 -6.3904 6.16855   1
   1   7  19 497.619 10.3296  -3
   1   7  19 497.619 10.3296   1
   2   7  19 317.569 8.34814  -3
   2   7  19 317.569 8.34814   1
   2   7  19 392.066 26.3680  -3
   2   7  19 392.066 26.3680  -2
   2   7  19 392.066 26.3680   1
   3   7  19 167.331 6.09943  -3
   3   7  19 167.331 6.09943   1
   3   7  19 182.508 13.3263  -2
   3   7  19 182.508 13.3263   1
   3   7  19 132.138 24.2733  -3
   3   7  19 132.138 24.2733  -2
   3   7  19 132.138 24.2733   1
   4   7  19 616.526 14.5535  -3
   4   7  19 616.526 14.5535   1
   4   7  19 573.267 37.4168  -2
   4   7  19 573.267 37.4168   1
   5   7  19 2867.64 65.7746  -3
   5   7  19 2867.64 65.7746   1
   5   7  19 2791.56 148.303  -2
   5   7  19 2791.56 148.303   1
   6   7  19 542.329 18.6127  -3
   6   7  19 542.329 18.6127   1
   6   7  19 499.365 28.0196  -2
   6   7  19 499.365 28.0196   1
   7   7  19 43.8522 6.76003  -3
   7   7  19 43.8522 6.76003   1
   7   7  19 56.8570 13.5307  -2
   7   7  19 56.8570 13.5307   1
   8   7  19 417.557 25.9924  -3
   8   7  19 417.557 25.9924   1
   8   7  19 214.132 21.6566  -2
   8   7  19 214.132 21.6566   1
   9   7  19 45.7723 16.3504  -2
   9   7  19 45.7723 16.3504   1
   9   7  19 67.6503 25.4545  -3
   9   7  19 67.6503 25.4545   1
  10   7  19 244.931 20.4108  -2
  10   7  19 244.931 20.4108   1
  11   7  19 33.6710 20.7339  -2
  11   7  19 33.6710 20.7339   1
   0   8  19 55.8081 8.91524  -3
   0   8  19 55.8081 8.91524   1
   1   8  19 166.111 6.68044  -3
   1   8  19 166.111 6.68044   1
   2   8  19 189.906 6.33854  -3
   2   8  19 189.906 6.33854   1
   2   8  19 136.233 31.3910  -2
   2   8  19 136.233 31.3910   1
   3   8  19 218.797 6.94338  -3
   3   8  19 218.797 6.94338   1
   3   8  19 321.081 41.5317  -3
   3   8  19 321.081 41.5317  -2
   3   8  19 321.081 41.5317   1
   3   8  19 267.571 18.6135  -2
   3   8  19 267.571 18.6135   1
   4   8  19 46.4472 14.3342  -2
   4   8  19 46.4472 14.3342   1
   4   8  19 29.2881 8.20952  -3
   4   8  19 29.2881 8.20952   1
   5   8  19 366.358 13.1114  -3
   5   8  19 366.358 13.1114   1
   5   8  19 278.295 32.9157  -2
   5   8  19 278.295 32.9157   1
   6   8  19 1422.30 39.4270  -3
   6   8  19 1422.30 39.4270   1
   6   8  19 1269.39 73.8078  -2
   6   8  19 1269.39 73.8078   1
   7   8  19 799.120 28.9993  -3
   7   8  19 799.120 28.9993   1
   7   8  19 763.400 51.5687  -2
   7   8  19 763.400 51.5687   1
   8   8  19 172.904 20.3201  -3
   8   8  19 172.904 20.3201   1
   8   8  19 193.764 28.7366  -2
   8   8  19 193.764 28.7366   1
   9   8  19 26.2148 25.3226  -3
   9   8  19 26.2148 25.3226   1
   9   8  19 19.9498 25.8025  -2
   9   8  19 19.9498 25.8025   1
   9   8  19 64.0843 34.3914  -3
   9   9  18 64.0843 34.3914  -2
   9   8  19 64.0843 34.3914   1
  10   8  19 77.3863 17.4871  -2
  10   8  19 77.3863 17.4871   1
  10   8  19 104.453 26.9656  -3
  10   8  19 104.453 26.9656   1
   0   9  19 7.46331 6.16047   1
   1   9  19 332.591 8.82336  -3
   1   9  19 332.591 8.82336   1
   2   9  19 118.522 6.34916  -3
   2   9  19 118.522 6.34916   1
   2   9  19 116.267 20.1716  -2
   2   9  19 116.267 20.1716   1
   3   9  19 1115.73 19.5973  -3
   3   9  19 1115.73 19.5973   1
   3   9  19 1143.62 50.6289  -2
   3   9  19 1143.62 50.6289   1
   4   9  19 322.079 13.1555  -3
   4   9  19 322.079 13.1555   1
   4   9  19 312.677 32.8093  -2
   4   9  19 312.677 32.8093   1
   5   9  19 272.137 13.9784  -3
   5   9  19 272.137 13.9784   1
   5   9  19 323.305 34.3440  -2
   5   9  19 323.305 34.3440   1
   6   9  19 389.166 37.4451  -2
   6   9  19 389.166 37.4451   1
   6   9  19 424.318 20.2900  -3
   6   9  19 424.318 20.2900   1
   7   9  19 799.385 29.4036  -3
   7   9  19 799.385 29.4036   1
   7   9  19 748.460 51.4574  -2
   7   9  19 748.460 51.4574   1
   8   9  19 610.306 32.3600  -3
   8   9  19 610.306 32.3600   1
   8   9  19 525.848 42.0938  -2
   8   9  19 525.848 42.0938   1
   9   9  19 65.8804 26.3192  -3
   9   9  19 65.8804 26.3192   1
   9   9  19 82.1730 28.1552  -2
   9   9  19 82.1730 28.1552   1
  10   9  19 211.217 31.4599  -2
  10   9  19 211.217 31.4599   1
  10   9  19 198.544 30.8271  -3
  10   9  19 198.544 30.8271   1
   0  10  19 1994.71 44.3917  -3
   0  10  19 1994.71 44.3917   1
   1  10  19 1108.66 18.5654  -3
   1  10  19 1108.66 18.5654   1
   2  10  19 628.916 11.8353  -3
   2  10  19 628.916 11.8353   1
   3  10  19 118.137 8.60676  -3
   3  10  19 118.137 8.60676   1
   4  10  19 118.086 9.25245  -3
   4  10  19 118.086 9.25245   1
   5  10  19 23.8090 11.2949  -3
   5  10  19 23.8090 11.2949   1
   6  10  19 84.9990 14.2201  -3
   6  10  19 84.9990 14.2201   1
   6  10  19 101.903 29.9550  -2
   6  10  19 101.903 29.9550   1
   7  10  19 123.710 14.5381  -3
   7  10  19 123.710 14.5381   1
   7  10  19 145.202 29.8595  -2
   7  10  19 145.202 29.8595   1
   8  10  19 24.3353 27.6353  -2
   8  10  19 24.3353 27.6353   1
   8  10  19 27.6832 26.9545  -3
   8  10  19 27.6832 26.9545   1
   9  10  19 513.593 42.4563  -2
   9  10  19 513.593 42.4563   1
   9  10  19 533.633 42.8368  -3
   9  10  19 533.633 42.8368   1
  10  10  19 134.932 30.2732  -2
  10  10  19 134.932 30.2732   1
  10  10  19 102.409 29.1496  -3
  10  10  19 102.409 29.1496   1
   0  11  19 -12.889 6.04413   1
   1  11  19 619.570 12.2739  -3
   1  11  19 619.570 12.2739   1
   2  11  19 47.7708 8.13157  -3
   2  11  19 47.7708 8.13157   1
   3  11  19 657.262 18.1188  -3
   3  11  19 657.262 18.1188   1
   3  11  19 640.595 51.6633  -2
   3  11  19 640.595 51.6633   1
   4  11  19 192.739 12.8310  -3
   4  11  19 192.739 12.8310   1
   5  11  19 848.464 26.8031  -3
   5  11  19 848.464 26.8031   1
   6  11  19 24.5420 13.9634  -3
   6  11  19 24.5420 13.9634   1
   6  11  19 52.1478 29.1363  -2
   6  11  19 52.1478 29.1363   1
   7  11  19 69.5256 20.9699  -3
   7  11  19 69.5256 20.9699   1
   8  11  19 -14.060 28.8073  -3
   8  11  19 -14.060 28.8073   1
   8  11  19 83.6738 31.1215  -2
   8  11  19 83.6738 31.1215   1
   9  11  19 55.9448 28.7993  -3
   9  11  19 55.9448 28.7993   1
   9  11  19 45.7695 28.5641  -2
   9  11  19 45.7695 28.5641   1
  10  11  19 32.8755 28.8129  -2
  10  11  19 32.8755 28.8129   1
   0  12  19 1906.21 48.0976  -3
   0  12  19 1906.21 48.0976   1
   1  12  19 99.2013 10.4910  -3
   1  12  19 99.2013 10.4910   1
   2  12  19 1512.18 31.1021  -3
   2  12  19 1512.18 31.1021   1
   3  12  19 233.330 12.1010  -3
   3  12  19 233.330 12.1010   1
   4  12  19 31.9169 11.9652  -3
   4  12  19 31.9169 11.9652   1
   5  12  19 72.3041 15.2937  -3
   5  12  19 72.3041 15.2937   1
   6  12  19 59.7526 17.1665  -3
   6  12  19 59.7526 17.1665   1
   7  12  19 382.043 27.3396  -3
   7  12  19 382.043 27.3396   1
   8  12  19 73.5119 30.6194  -3
   8  12  19 73.5119 30.6194   1
   9  12  19 101.865 7.59197   1
  10  12  19 29.7303 20.4348   1
   0  13  19 10.0121 6.49965   1
   1  13  19 271.333 12.3815  -3
   1  13  19 271.333 12.3815   1
   2  13  19 2291.83 47.2217  -3
   2  13  19 2291.83 47.2217   1
   3  13  19 313.133 14.5402  -3
   3  13  19 313.133 14.5402   1
   4  13  19 2838.51 87.6345  -3
   4  13  19 2838.51 87.6345   1
   5  13  19 23.7118 15.7720  -3
   5  13  19 23.7118 15.7720   1
   6  13  19 -14.243 14.4869  -3
   6  13  19 -14.243 14.4869   1
   7  13  19 73.7351 32.0561  -3
   7  13  19 73.7351 32.0561   1
   8  13  19 160.968 9.65126   1
   9  13  19 13.6600 33.0706  -2
   9  13  19 13.6600 33.0706   1
   0  14  19 565.753 21.7747  -3
   0  14  19 565.753 21.7747   1
   1  14  19 982.559 25.0785  -3
   1  14  19 982.559 25.0785   1
   2  14  19 226.149 19.3074  -3
   2  14  19 226.149 19.3074   1
   3  14  19 1027.97 28.9326  -3
   3  14  19 1027.97 28.9326   1
   4  14  19 38.1083 19.4899  -3
   4  14  19 38.1083 19.4899   1
   5  14  19 505.574 25.1114  -3
   5  14  19 505.574 25.1114   1
   6  14  19 9.28332 32.6241  -3
   6  14  19 9.28332 32.6241   1
   7  14  19 177.983 7.04637   1
   8  14  19 26.2842 6.33928   1
   9  14  19 57.1088 7.07872   1
  10  14  19 307.302 20.4738   1
   0  15  19 8.48754 5.99582   1
   1  15  19 850.793 31.3460  -3
   1  15  19 850.793 31.3460   1
   2  15  19 1042.74 50.0713  -3
   2  15  19 1042.74 50.0713   1
   3  15  19 915.367 45.2002  -3
   3  15  19 915.367 45.2002   1
   4  15  19 506.615 49.8328  -3
   4  15  19 506.615 49.8328   1
   5  15  19 673.921 16.6073   1
   6  15  19 127.801 38.1547  -3
   6  15  19 127.801 38.1547   1
   7  15  19 58.1047 5.31875   1
   8  15  19 63.1314 7.54224   1
   9  15  19 106.804 10.7076   1
  10  15  19 72.1871 12.2789   1
   0  16  19 132.684 9.46773   1
   1  16  19 1453.34 52.6066  -3
   1  16  19 1453.34 52.6066   1
   2  16  19 138.099 31.0618  -3
   2  16  19 138.099 31.0618   1
   3  16  19 49.5386 30.6379  -3
   3  16  19 49.5386 30.6379   1
   4  16  19 181.374 38.9620  -3
   4  16  19 181.374 38.9620   1
   5  16  19 150.820 6.59674   1
   6  16  19 172.527 8.20747   1
   7  16  19 0.64312 4.20989   1
   8  16  19 14.5556 6.09550   1
   9  16  19 8.69949 16.1280   1
   0  17  19 9.65626 5.64743   1
   1  17  19 65.0724 5.02600   1
   2  17  19 151.531 7.18301   1
   3  17  19 412.682 11.4461   1
   4  17  19 169.548 7.24804   1
   5  17  19 59.9459 4.94031   1
   6  17  19 107.817 6.95736   1
   7  17  19 188.560 8.14956   1
   8  17  19 438.081 15.2809   1
   0  18  19 44.3378 6.56914   1
   1  18  19 36.2030 5.02241   1
   2  18  19 56.7544 5.52007   1
   3  18  19 59.7300 5.73204   1
   4  18  19 61.0660 5.31298   1
   5  18  19 44.6651 4.68750   1
   6  18  19 290.553 10.1567   1
   7  18  19 97.0928 6.66008   1
   8  18  19 286.095 14.6421   1
   0  19  19 -5.2234 5.95376   1
   1  19  19 9.78424 5.14439   1
   2  19  19 129.749 7.63267   1
   3  19  19 32.3111 5.74204   1
   4  19  19 12.2870 4.79917   1
   5  19  19 52.4938 4.92963   1
   6  19  19 712.258 17.5895   1
   7  19  19 243.829 10.2915   1
   8  19  19 5.08086 7.26586   1
   0  20  19 833.059 25.3812   1
   1  20  19 130.205 7.51122   1
   2  20  19 10.8163 5.24851   1
   3  20  19 213.668 9.39239   1
   4  20  19 3.43266 4.86668   1
   5  20  19 524.453 13.2882   1
   6  20  19 194.295 9.23608   1
   7  20  19 36.4010 6.19197   1
   8  20  19 1.39015 9.60813   1
   0  21  19 -5.3478 6.90552   1
   1  21  19 30.5288 6.15762   1
   2  21  19 29.0212 6.04003   1
   3  21  19 263.304 10.8749   1
   4  21  19 197.533 8.96849   1
   5  21  19 -0.9035 5.54709   1
   6  21  19 8.43947 8.81561   1
   7  21  19 245.154 15.2176   1
   0  22  19 23.3506 7.61584   1
   1  22  19 6.67421 5.41847   1
   2  22  19 383.610 12.4541   1
   3  22  19 -0.4384 5.85715   1
   4  22  19 247.609 10.6355   1
   5  22  19 134.201 14.7862   1
   6  22  19 243.442 19.2127   1
   7  22  19 173.895 20.8746   1
   0  23  19 -8.8671 7.18392   1
   1  23  19 112.553 7.64614   1
   2  23  19 174.882 10.1443   1
   3  23  19 45.3327 6.83828   1
   4  23  19 104.191 9.60788   1
   5  23  19 452.398 28.8845   1
   6  23  19 161.194 29.0623   1
   7  23  19 185.947 33.9019   1
   0  24  19 59.3118 9.41402   1
   1  24  19 39.3585 7.23497   1
   2  24  19 65.1311 9.52334   1
   3  24  19 20.9114 10.6542   1
   4  24  19 13.8888 10.7616   1
   5  24  19 169.344 30.8774   1
   0  25  19 -12.184 8.88621   1
   1  25  19 9.84103 7.58539   1
   2  25  19 721.482 47.0174   1
   3  25  19 636.985 33.0236   1
   4  25  19 80.2111 13.1513   1
   0  26  19 53.3733 10.7559   1
   1  26  19 11.9720 13.8489   1
   3  26  19 636.282 52.6730   1
   4  26  19 194.535 21.2291   1
   0  27  19 19.1452 29.8925   1
   1  27  19 60.2283 20.5645   1
   1   0  20 4033.46 210.834  -3
   1   0  20 4033.46 210.834  -2
   1   0  20 4033.46 210.834   1
   1   0  20 3684.93 131.970  -3
   1   0  20 3684.93 131.970   1
   2   0  20 191.446 9.22694  -3
   2   0  20 191.446 9.22694  -2
   2   0  20 191.446 9.22694   1
   2   0  20 184.591 9.58356  -3
   2   0  20 184.591 9.58356   1
   3   0  20 144.932 8.21346  -3
   3   0  20 144.932 8.21346  -2
   3   0  20 144.932 8.21346   1
   3   0  20 136.631 8.15888  -3
   3   0  20 136.631 8.15888   1
   4   0  20 603.221 24.8400  -3
   4   0  20 603.221 24.8400  -2
   4   0  20 603.221 24.8400   1
   4   0  20 547.861 14.0211  -3
   4   0  20 547.861 14.0211   1
   5   0  20 1312.80 48.7129  -3
   5   0  20 1312.80 48.7129   1
   5   0  20 1437.60 58.2927  -3
   5   0  20 1437.60 58.2927  -2
   5   0  20 1437.60 58.2927   1
   6   0  20 5188.86 255.809  -3
   6   0  20 5188.86 255.809   1
   6   0  20 5497.72 282.714  -3
   6   0  20 5497.72 282.714  -2
   6   0  20 5497.72 282.714   1
   6   0  20 5618.58 289.646  -3
   6   1  20 5618.58 289.646  -2
   6   0  20 5618.58 289.646   1
   7   0  20 244.297 16.9427  -3
   7   1  20 244.297 16.9427  -2
   7   0  20 244.297 16.9427   1
   8   0  20 20.6145 23.4140  -3
   8   1  20 20.6145 23.4140  -2
   8   0  20 20.6145 23.4140   1
   8   0  20 28.4464 16.2068  -2
   8   0  20 28.4464 16.2068   1
   9   0  20 394.502 34.8530  -3
   9   1  20 394.502 34.8530  -2
   9   0  20 394.502 34.8530   1
  10   1  20 815.297 51.2080  -3
  10   0  20 815.297 51.2080  -2
  10   0  20 815.297 51.2080   1
  10   0  20 865.794 55.2266  -3
  10   1  20 865.794 55.2266  -2
  10   0  20 865.794 55.2266   1
  11   0  20 -4.8226 23.7297  -3
  11   1  20 -4.8226 23.7297  -2
  11   0  20 -4.8226 23.7297   1
  11   1  20 61.3649 22.8880  -3
  11   0  20 61.3649 22.8880  -2
  11   0  20 61.3649 22.8880   1
   1   1  20 399.398 12.7810  -3
   1   1  20 399.398 12.7810   1
   1   1  20 466.602 27.7891  -3
   1   1  20 466.602 27.7891  -2
   1   1  20 466.602 27.7891   1
   2   1  20 664.332 13.5988  -3
   2   1  20 664.332 13.5988  -2
   2   1  20 664.332 13.5988   1
   2   1  20 630.874 12.6856  -3
   2   1  20 630.874 12.6856   1
   3   1  20 79.1371 5.27572  -3
   3   1  20 79.1371 5.27572   1
   3   1  20 83.1977 6.36983  -3
   3   1  20 83.1977 6.36983  -2
   3   1  20 83.1977 6.36983   1
   4   1  20 129.532 4.34948  -3
   4   1  20 129.532 4.34948   1
   4   1  20 159.806 9.93194  -3
   4   1  20 159.806 9.93194  -2
   4   1  20 159.806 9.93194   1
   5   1  20 2413.99 64.1450  -3
   5   1  20 2413.99 64.1450  -2
   5   1  20 2413.99 64.1450   1
   5   1  20 2341.09 41.9494  -3
   5   1  20 2341.09 41.9494   1
   6   1  20 161.823 19.5756  -3
   6   1  20 161.823 19.5756  -2
   6   1  20 161.823 19.5756   1
   6   1  20 198.057 21.2972  -3
   6   2  20 198.057 21.2972  -2
   6   1  20 198.057 21.2972   1
   6   1  20 429.411 39.7193  -3
   6   0  20 429.411 39.7193  -2
   6   1  20 429.411 39.7193   1
   7   1  20 257.835 17.2102  -3
   7   2  20 257.835 17.2102  -2
   7   1  20 257.835 17.2102   1
   7   1  20 207.253 15.8202  -3
   7   0  20 207.253 15.8202  -2
   7   1  20 207.253 15.8202   1
   7   1  20 234.454 28.9556  -3
   7   1  20 234.454 28.9556  -2
   7   1  20 234.454 28.9556   1
   8   1  20 21.7019 24.5969  -3
   8   0  20 21.7019 24.5969  -2
   8   1  20 21.7019 24.5969   1
   8   1  20 21.1539 11.0765  -2
   8   1  20 21.1539 11.0765   1
   8   1  20 -25.477 24.4561  -3
   8   2  20 -25.477 24.4561  -2
   8   1  20 -25.477 24.4561   1
   9   1  20 1029.61 63.1087  -3
   9   0  20 1029.61 63.1087  -2
   9   1  20 1029.61 63.1087   1
   9   1  20 1006.34 58.1676  -2
   9   1  20 1006.34 58.1676   1
   9   1  20 1059.41 64.2254  -3
   9   2  20 1059.41 64.2254  -2
   9   1  20 1059.41 64.2254   1
   9   2  20 982.600 59.2995  -3
   9   1  20 982.600 59.2995  -2
   9   1  20 982.600 59.2995   1
  10   0  20 297.436 30.2495  -3
  10   1  20 297.436 30.2495  -2
  10   1  20 297.436 30.2495   1
  10   1  20 314.094 32.9611  -3
  10   0  20 314.094 32.9611  -2
  10   1  20 314.094 32.9611   1
  10   1  20 273.964 31.2100  -3
  10   2  20 273.964 31.2100  -2
  10   1  20 273.964 31.2100   1
  10   1  20 172.599 20.4175  -2
  10   1  20 172.599 20.4175   1
  11   2  20 26.8517 23.1574  -3
  11   1  20 26.8517 23.1574  -2
  11   1  20 26.8517 23.1574   1
  11   1  20 4.51167 24.4444  -3
  11   2  20 4.51167 24.4444  -2
  11   1  20 4.51167 24.4444   1
  11   1  20 14.7212 24.4789  -3
  11   0  20 14.7212 24.4789  -2
  11   1  20 14.7212 24.4789   1
  11   0  20 15.3209 21.9719  -3
  11   1  20 15.3209 21.9719  -2
  11   1  20 15.3209 21.9719   1
   0   2  20 140.954 18.9075  -3
   0   2  20 140.954 18.9075   1
   1   2  20 817.826 18.8827  -3
   1   2  20 817.826 18.8827   1
   1   2  20 826.070 55.9116  -3
   1   2  20 826.070 55.9116  -2
   1   2  20 826.070 55.9116   1
   2   2  20 55.3095 5.70324  -3
   2   2  20 55.3095 5.70324   1
   2   2  20 49.7397 6.46634  -3
   2   2  20 49.7397 6.46634  -2
   2   2  20 49.7397 6.46634   1
   3   2  20 22.4203 6.90086  -3
   3   2  20 22.4203 6.90086  -2
   3   2  20 22.4203 6.90086   1
   3   2  20 30.5434 5.04966  -3
   3   2  20 30.5434 5.04966   1
   4   2  20 305.613 6.89333  -3
   4   2  20 305.613 6.89333   1
   4   2  20 333.647 11.3086  -3
   4   2  20 333.647 11.3086  -2
   4   2  20 333.647 11.3086   1
   5   2  20 104.501 5.01331  -3
   5   2  20 104.501 5.01331   1
   5   2  20 118.556 19.8694  -3
   5   2  20 118.556 19.8694  -2
   5   2  20 118.556 19.8694   1
   6   2  20 540.443 31.6266  -3
   6   2  20 540.443 31.6266   1
   6   2  20 628.473 46.1143  -3
   6   2  20 628.473 46.1143  -2
   6   2  20 628.473 46.1143   1
   7   2  20 958.735 60.2462  -3
   7   3  20 958.735 60.2462  -2
   7   2  20 958.735 60.2462   1
   7   2  20 843.603 43.7046  -3
   7   2  20 843.603 43.7046   1
   7   2  20 885.292 37.1026  -3
   7   1  20 885.292 37.1026  -2
   7   2  20 885.292 37.1026   1
   8   2  20 -9.0053 25.3351  -3
   8   3  20 -9.0053 25.3351  -2
   8   2  20 -9.0053 25.3351   1
   8   2  20 -3.1693 10.9971  -2
   8   2  20 -3.1693 10.9971   1
   8   2  20 -13.234 25.3731  -3
   8   1  20 -13.234 25.3731  -2
   8   2  20 -13.234 25.3731   1
   9   2  20 243.158 30.8793  -3
   9   3  20 243.158 30.8793  -2
   9   2  20 243.158 30.8793   1
   9   2  20 251.137 16.8124  -2
   9   2  20 251.137 16.8124   1
   9   2  20 334.367 34.9822  -3
   9   1  20 334.367 34.9822  -2
   9   2  20 334.367 34.9822   1
  10   3  20 341.135 32.5848  -3
  10   2  20 341.135 32.5848  -2
  10   2  20 341.135 32.5848   1
  10   2  20 319.933 33.2897  -3
  10   3  20 319.933 33.2897  -2
  10   2  20 319.933 33.2897   1
  10   2  20 320.347 33.8903  -3
  10   1  20 320.347 33.8903  -2
  10   2  20 320.347 33.8903   1
  11   1  20 49.6868 22.3381  -3
  11   2  20 49.6868 22.3381  -2
  11   2  20 49.6868 22.3381   1
  11   2  20 41.5042 25.6965  -3
  11   1  20 41.5042 25.6965  -2
  11   2  20 41.5042 25.6965   1
  11   3  20 -14.142 24.0482  -3
  11   2  20 -14.142 24.0482  -2
  11   2  20 -14.142 24.0482   1
  11   2  20 53.7431 26.6247  -3
  11   3  20 53.7431 26.6247  -2
  11   2  20 53.7431 26.6247   1
   0   3  20 -11.596 16.0427   1
   1   3  20 541.997 28.9364  -3
   1   3  20 541.997 28.9364  -2
   1   3  20 541.997 28.9364   1
   1   3  20 471.389 14.2682  -3
   1   3  20 471.389 14.2682   1
   2   3  20 16.0204 5.77447  -3
   2   3  20 16.0204 5.77447   1
   2   3  20 32.5832 7.77488  -3
   2   3  20 32.5832 7.77488  -2
   2   3  20 32.5832 7.77488   1
   3   3  20 39.3674 5.44156  -3
   3   3  20 39.3674 5.44156   1
   3   3  20 51.9224 7.92079  -3
   3   3  20 51.9224 7.92079  -2
   3   3  20 51.9224 7.92079   1
   4   3  20 1194.41 19.6381  -3
   4   3  20 1194.41 19.6381   1
   4   3  20 1282.34 24.4419  -3
   4   3  20 1282.34 24.4419  -2
   4   3  20 1282.34 24.4419   1
   5   3  20 134.742 6.21456  -3
   5   3  20 134.742 6.21456   1
   5   3  20 133.549 20.6433  -3
   5   3  20 133.549 20.6433  -2
   5   3  20 133.549 20.6433   1
   6   3  20 1269.02 46.8152  -3
   6   3  20 1269.02 46.8152   1
   6   3  20 1478.25 85.1073  -3
   6   3  20 1478.25 85.1073  -2
   6   3  20 1478.25 85.1073   1
   7   3  20 1088.10 44.6976  -3
   7   2  20 1088.10 44.6976  -2
   7   3  20 1088.10 44.6976   1
   7   3  20 1088.44 43.2155  -3
   7   4  20 1088.44 43.2155  -2
   7   3  20 1088.44 43.2155   1
   7   3  20 828.494 49.5740  -2
   7   3  20 828.494 49.5740   1
   8   3  20 15.0379 11.5775  -2
   8   3  20 15.0379 11.5775   1
   8   3  20 13.5803 26.7952  -3
   8   4  20 13.5803 26.7952  -2
   8   3  20 13.5803 26.7952   1
   8   3  20 35.3527 27.4255  -3
   8   2  20 35.3527 27.4255  -2
   8   3  20 35.3527 27.4255   1
   9   3  20 203.661 16.0700  -2
   9   3  20 203.661 16.0700   1
   9   3  20 238.880 32.8922  -3
   9   2  20 238.880 32.8922  -2
   9   3  20 238.880 32.8922   1
   9   3  20 203.257 30.4646  -3
   9   4  20 203.257 30.4646  -2
   9   3  20 203.257 30.4646   1
  10   3  20 321.272 35.2644  -3
  10   2  20 321.272 35.2644  -2
  10   3  20 321.272 35.2644   1
  10   3  20 299.229 18.4894  -2
  10   3  20 299.229 18.4894   1
  10   3  20 324.014 33.8306  -3
  10   4  20 324.014 33.8306  -2
  10   3  20 324.014 33.8306   1
  11   4  20 38.9888 26.3047  -3
  11   3  20 38.9888 26.3047  -2
  11   3  20 38.9888 26.3047   1
  11   2  20 23.0645 23.0693  -3
  11   3  20 23.0645 23.0693  -2
  11   3  20 23.0645 23.0693   1
  11   3  20 45.9320 27.6390  -3
  11   4  20 45.9320 27.6390  -2
  11   3  20 45.9320 27.6390   1
  11   3  20 4.87573 26.1541  -3
  11   2  20 4.87573 26.1541  -2
  11   3  20 4.87573 26.1541   1
   0   4  20 111.389 14.2802  -3
   0   4  20 111.389 14.2802   1
   1   4  20 3177.84 61.8279  -3
   1   4  20 3177.84 61.8279   1
   1   4  20 3449.37 174.439  -3
   1   4  20 3449.37 174.439  -2
   1   4  20 3449.37 174.439   1
   2   4  20 10.0444 5.82618  -3
   2   4  20 10.0444 5.82618   1
   2   4  20 32.3038 9.54516  -3
   2   4  20 32.3038 9.54516  -2
   2   4  20 32.3038 9.54516   1
   3   4  20 187.408 6.69651  -3
   3   4  20 187.408 6.69651   1
   3   4  20 193.116 9.67259  -3
   3   4  20 193.116 9.67259  -2
   3   4  20 193.116 9.67259   1
   4   4  20 1327.22 21.7060  -3
   4   4  20 1327.22 21.7060   1
   4   4  20 1407.94 29.9786  -3
   4   4  20 1407.94 29.9786  -2
   4   4  20 1407.94 29.9786   1
   4   4  20 1259.95 63.3743  -2
   4   4  20 1259.95 63.3743   1
   5   4  20 163.550 21.7053  -3
   5   4  20 163.550 21.7053  -2
   5   4  20 163.550 21.7053   1
   5   4  20 154.726 19.4144  -2
   5   4  20 154.726 19.4144   1
   5   4  20 137.652 8.42983  -3
   5   4  20 137.652 8.42983   1
   6   4  20 116.354 23.7381  -2
   6   4  20 116.354 23.7381   1
   6   4  20 135.130 20.7431  -3
   6   5  20 135.130 20.7431  -2
   6   4  20 135.130 20.7431   1
   6   4  20 146.600 17.3371  -3
   6   4  20 146.600 17.3371   1
   7   4  20 25.6627 13.1329  -3
   7   5  20 25.6627 13.1329  -2
   7   4  20 25.6627 13.1329   1
   7   4  20 8.73524 12.1992  -2
   7   4  20 8.73524 12.1992   1
   8   4  20 46.9884 14.4002  -2
   8   4  20 46.9884 14.4002   1
   8   4  20 44.7461 29.0596  -3
   8   5  20 44.7461 29.0596  -2
   8   4  20 44.7461 29.0596   1
   9   4  20 110.752 31.0470  -3
   9   3  20 110.752 31.0470  -2
   9   4  20 110.752 31.0470   1
   9   5  20 67.9579 27.8904  -3
   9   4  20 67.9579 27.8904  -2
   9   4  20 67.9579 27.8904   1
   9   4  20 83.3573 28.4371  -3
   9   5  20 83.3573 28.4371  -2
   9   4  20 83.3573 28.4371   1
   9   4  20 107.824 21.5292  -2
   9   4  20 107.824 21.5292   1
  10   4  20 95.8369 30.0022  -3
  10   3  20 95.8369 30.0022  -2
  10   4  20 95.8369 30.0022   1
  10   4  20 57.0051 29.2023  -3
  10   5  20 57.0051 29.2023  -2
  10   4  20 57.0051 29.2023   1
  10   4  20 34.0459 12.8250  -2
  10   4  20 34.0459 12.8250   1
  11   4  20 -13.165 12.0423  -2
  11   4  20 -13.165 12.0423   1
   0   5  20 -1.5522 7.45948   1
   1   5  20 646.221 13.8992  -3
   1   5  20 646.221 13.8992   1
   2   5  20 1304.27 28.3542  -3
   2   5  20 1304.27 28.3542  -2
   2   5  20 1304.27 28.3542   1
   2   5  20 1225.14 22.9609  -3
   2   5  20 1225.14 22.9609   1
   3   5  20 1203.78 21.2333  -3
   3   5  20 1203.78 21.2333   1
   3   5  20 1301.28 34.4476  -3
   3   5  20 1301.28 34.4476  -2
   3   5  20 1301.28 34.4476   1
   3   5  20 1164.42 60.7963  -2
   3   5  20 1164.42 60.7963   1
   4   5  20 308.760 12.7125  -3
   4   5  20 308.760 12.7125  -2
   4   5  20 308.760 12.7125   1
   4   5  20 287.694 7.32571  -3
   4   5  20 287.694 7.32571   1
   4   5  20 258.194 15.5318  -2
   4   5  20 258.194 15.5318   1
   5   5  20 46.7378 7.59094  -3
   5   5  20 46.7378 7.59094   1
   5   5  20 53.9341 31.5327  -3
   5   5  20 53.9341 31.5327  -2
   5   5  20 53.9341 31.5327   1
   6   5  20 538.340 28.3822  -2
   6   5  20 538.340 28.3822   1
   6   5  20 598.695 22.1696  -3
   6   5  20 598.695 22.1696   1
   7   5  20 422.884 24.5832  -3
   7   5  20 422.884 24.5832   1
   7   5  20 302.551 19.3752  -2
   7   5  20 302.551 19.3752   1
   8   5  20 161.795 17.1709  -2
   8   5  20 161.795 17.1709   1
   8   5  20 244.783 34.4029  -3
   8   6  20 244.783 34.4029  -2
   8   5  20 244.783 34.4029   1
   9   5  20 134.804 16.2492  -2
   9   5  20 134.804 16.2492   1
   9   5  20 141.919 30.9528  -3
   9   6  20 141.919 30.9528  -2
   9   5  20 141.919 30.9528   1
  10   5  20 0.12413 29.4170  -3
  10   6  20 0.12413 29.4170  -2
  10   5  20 0.12413 29.4170   1
  10   5  20 52.9867 20.9095  -2
  10   5  20 52.9867 20.9095   1
  10   5  20 66.0851 31.5959  -3
  10   4  20 66.0851 31.5959  -2
  10   5  20 66.0851 31.5959   1
  11   4  20 205.141 28.5262  -3
  11   5  20 205.141 28.5262  -2
  11   5  20 205.141 28.5262   1
   0   6  20 2410.74 63.2639  -3
   0   6  20 2410.74 63.2639   1
   1   6  20 320.624 8.79748  -3
   1   6  20 320.624 8.79748   1
   1   6  20 322.979 40.6976  -3
   1   6  20 322.979 40.6976  -2
   1   6  20 322.979 40.6976   1
   2   6  20 24.8257 5.65226  -3
   2   6  20 24.8257 5.65226   1
   2   6  20 35.7653 13.8621  -3
   2   6  20 35.7653 13.8621  -2
   2   6  20 35.7653 13.8621   1
   3   6  20 4.01758 13.8086  -2
   3   6  20 4.01758 13.8086   1
   3   6  20 1.94973 4.87642  -3
   3   6  20 1.94973 4.87642   1
   3   6  20 -2.3324 12.0461  -3
   3   6  20 -2.3324 12.0461  -2
   3   6  20 -2.3324 12.0461   1
   4   6  20 27.8571 15.9519  -3
   4   6  20 27.8571 15.9519  -2
   4   6  20 27.8571 15.9519   1
   4   6  20 46.1496 6.05035  -3
   4   6  20 46.1496 6.05035   1
   5   6  20 1724.09 40.8882  -3
   5   6  20 1724.09 40.8882   1
   5   6  20 1660.37 94.4719  -3
   5   6  20 1660.37 94.4719  -2
   5   6  20 1660.37 94.4719   1
   6   6  20 186.000 11.7603  -3
   6   6  20 186.000 11.7603   1
   6   6  20 185.557 20.2242  -2
   6   6  20 185.557 20.2242   1
   7   6  20 170.593 16.5840  -2
   7   6  20 170.593 16.5840   1
   7   6  20 215.229 16.3280  -3
   7   6  20 215.229 16.3280   1
   8   6  20 4.83453 12.9072  -2
   8   6  20 4.83453 12.9072   1
   8   6  20 23.8450 24.4586  -3
   8   6  20 23.8450 24.4586   1
   9   6  20 178.612 18.1029  -2
   9   6  20 178.612 18.1029   1
   9   6  20 180.009 33.2931  -3
   9   7  20 180.009 33.2931  -2
   9   6  20 180.009 33.2931   1
  10   7  20 85.8649 32.1273  -3
  10   6  20 85.8649 32.1273  -2
  10   6  20 85.8649 32.1273   1
  10   6  20 48.5484 32.2641  -3
  10   7  20 48.5484 32.2641  -2
  10   6  20 48.5484 32.2641   1
  10   6  20 52.6339 21.2140  -2
  10   6  20 52.6339 21.2140   1
  11   6  20 500.006 35.8048  -2
  11   6  20 500.006 35.8048   1
   0   7  20 2.35267 6.56197   1
   1   7  20 4399.26 64.9444  -3
   1   7  20 4399.26 64.9444   1
   2   7  20 89.1726 5.80136  -3
   2   7  20 89.1726 5.80136   1
   2   7  20 124.721 22.7677  -3
   2   7  20 124.721 22.7677  -2
   2   7  20 124.721 22.7677   1
   3   7  20 138.154 16.6684  -3
   3   7  20 138.154 16.6684  -2
   3   7  20 138.154 16.6684   1
   3   7  20 110.246 5.91492  -3
   3   7  20 110.246 5.91492   1
   3   7  20 108.387 14.4394  -2
   3   7  20 108.387 14.4394   1
   4   7  20 53.1941 6.72141  -3
   4   7  20 53.1941 6.72141   1
   4   7  20 48.2279 14.1490  -2
   4   7  20 48.2279 14.1490   1
   4   7  20 -2.1378 29.4553  -3
   4   7  20 -2.1378 29.4553  -2
   4   7  20 -2.1378 29.4553   1
   5   7  20 1205.35 30.0435  -3
   5   7  20 1205.35 30.0435   1
   5   7  20 1144.08 69.7213  -2
   5   7  20 1144.08 69.7213   1
   6   7  20 45.0750 10.0571  -3
   6   7  20 45.0750 10.0571   1
   6   7  20 61.8668 25.6200  -2
   6   7  20 61.8668 25.6200   1
   7   7  20 102.396 15.0260  -2
   7   7  20 102.396 15.0260   1
   7   7  20 101.274 12.8924  -3
   7   7  20 101.274 12.8924   1
   8   7  20 72.4132 14.2918  -2
   8   7  20 72.4132 14.2918   1
   8   7  20 50.6509 17.9051  -3
   8   7  20 50.6509 17.9051   1
   9   7  20 197.938 30.0703  -3
   9   7  20 197.938 30.0703   1
   9   7  20 168.889 18.6176  -2
   9   7  20 168.889 18.6176   1
  10   7  20 4.50700 16.6579  -2
  10   7  20 4.50700 16.6579   1
   0   8  20 1898.92 39.1444  -3
   0   8  20 1898.92 39.1444   1
   1   8  20 4223.96 57.9360  -3
   1   8  20 4223.96 57.9360   1
   2   8  20 24.9591 5.99985  -3
   2   8  20 24.9591 5.99985   1
   2   8  20 5.07877 18.7973  -2
   2   8  20 5.07877 18.7973   1
   3   8  20 1155.37 19.0863  -3
   3   8  20 1155.37 19.0863   1
   3   8  20 1137.05 49.6609  -2
   3   8  20 1137.05 49.6609   1
   3   8  20 1308.99 81.4146  -3
   3   8  20 1308.99 81.4146  -2
   3   8  20 1308.99 81.4146   1
   4   8  20 187.497 10.8419  -3
   4   8  20 187.497 10.8419   1
   4   8  20 189.755 16.3934  -2
   4   8  20 189.755 16.3934   1
   5   8  20 43.2767 8.52569  -3
   5   8  20 43.2767 8.52569   1
   5   8  20 5.60924 26.4580  -2
   5   8  20 5.60924 26.4580   1
   6   8  20 305.653 23.6411  -2
   6   8  20 305.653 23.6411   1
   6   8  20 268.444 13.9073  -3
   6   8  20 268.444 13.9073   1
   7   8  20 699.114 26.9367  -3
   7   8  20 699.114 26.9367   1
   7   8  20 709.587 49.3628  -2
   7   8  20 709.587 49.3628   1
   8   8  20 512.568 40.9872  -2
   8   8  20 512.568 40.9872   1
   8   8  20 533.256 29.9147  -3
   8   8  20 533.256 29.9147   1
   9   8  20 6.65160 25.1708  -2
   9   8  20 6.65160 25.1708   1
   9   8  20 24.4999 18.1366  -3
   9   8  20 24.4999 18.1366   1
  10   9  19 56.3052 28.2127  -2
  10   8  20 56.3052 28.2127   1
  10   8  20 13.6632 17.2596  -2
  10   8  20 13.6632 17.2596   1
   0   9  20 -2.2237 6.63105   1
   1   9  20 2228.18 32.1162  -3
   1   9  20 2228.18 32.1162   1
   2   9  20 425.452 9.44637  -3
   2   9  20 425.452 9.44637   1
   2   9  20 342.766 36.5655  -2
   2   9  20 342.766 36.5655   1
   3   9  20 368.170 10.7997  -3
   3   9  20 368.170 10.7997   1
   3   9  20 336.497 22.8253  -2
   3   9  20 336.497 22.8253   1
   4   9  20 122.761 10.1994  -3
   4   9  20 122.761 10.1994   1
   4   9  20 122.681 27.8869  -2
   4   9  20 122.681 27.8869   1
   5   9  20 -2.2080 8.55631  -3
   5   9  20 -2.2080 8.55631   1
   5   9  20 27.8545 28.0889  -2
   5   9  20 27.8545 28.0889   1
   6   9  20 49.1243 10.4409  -3
   6   9  20 49.1243 10.4409   1
   6   9  20 82.0721 28.0074  -2
   6   9  20 82.0721 28.0074   1
   7   9  20 314.689 18.0333  -3
   7   9  20 314.689 18.0333   1
   7   9  20 241.128 32.4028  -2
   7   9  20 241.128 32.4028   1
   8   9  20 26.0560 18.7420  -3
   8   9  20 26.0560 18.7420   1
   8   9  20 4.36016 26.0845  -2
   8   9  20 4.36016 26.0845   1
   9  10  19 76.6579 27.5188  -2
   9   9  20 76.6579 27.5188   1
   9   9  20 110.746 28.3766  -2
   9   9  20 110.746 28.3766   1
   9   9  20 100.799 27.8201  -3
   9   9  20 100.799 27.8201   1
  10   9  20 161.582 30.7752  -2
  10   9  20 161.582 30.7752   1
  10   9  20 159.722 30.0270  -3
  10   9  20 159.722 30.0270   1
  10  10  19 129.105 29.2733  -2
  10   9  20 129.105 29.2733   1
   0  10  20 5215.96 109.094  -3
   0  10  20 5215.96 109.094   1
   1  10  20 164.524 8.11033  -3
   1  10  20 164.524 8.11033   1
   2  10  20 187.388 8.48719  -3
   2  10  20 187.388 8.48719   1
   3  10  20 320.822 11.5796  -3
   3  10  20 320.822 11.5796   1
   4  10  20 206.025 11.2116  -3
   4  10  20 206.025 11.2116   1
   5  10  20 28.1047 11.5893  -3
   5  10  20 28.1047 11.5893   1
   6  10  20 1305.69 43.8508  -3
   6  10  20 1305.69 43.8508   1
   7  10  20 1088.45 37.6220  -3
   7  10  20 1088.45 37.6220   1
   7  10  20 1033.23 65.4545  -2
   7  10  20 1033.23 65.4545   1
   8  10  20 107.889 29.3859  -2
   8  10  20 107.889 29.3859   1
   8  10  20 77.0869 28.8689  -3
   8  10  20 77.0869 28.8689   1
   9  10  20 690.435 51.1336  -2
   9  10  20 690.435 51.1336   1
   9  10  20 724.966 52.2511  -3
   9  10  20 724.966 52.2511   1
  10  10  20 2.41236 26.9686  -3
  10  10  20 2.41236 26.9686   1
  10  10  20 58.8969 28.9552  -2
  10  10  20 58.8969 28.9552   1
   0  11  20 -1.2227 6.42424   1
   1  11  20 2402.94 35.8478  -3
   1  11  20 2402.94 35.8478   1
   2  11  20 1341.26 24.9960  -3
   2  11  20 1341.26 24.9960   1
   3  11  20 273.310 11.2448  -3
   3  11  20 273.310 11.2448   1
   4  11  20 34.8235 13.0468  -3
   4  11  20 34.8235 13.0468   1
   5  11  20 399.594 17.7226  -3
   5  11  20 399.594 17.7226   1
   6  11  20 10.9392 13.8440  -3
   6  11  20 10.9392 13.8440   1
   6  11  20 -8.7530 29.3160  -2
   6  11  20 -8.7530 29.3160   1
   7  11  20 403.029 20.8810  -3
   7  11  20 403.029 20.8810   1
   7  11  20 338.065 37.7194  -2
   7  11  20 338.065 37.7194   1
   8  11  20 129.782 21.7509  -3
   8  11  20 129.782 21.7509   1
   8  11  20 71.2704 30.8736  -2
   8  11  20 71.2704 30.8736   1
   9  11  20 337.746 38.1922  -2
   9  11  20 337.746 38.1922   1
   9  11  20 308.417 36.8274  -3
   9  11  20 308.417 36.8274   1
   0  12  20 181.445 15.3125  -3
   0  12  20 181.445 15.3125   1
   1  12  20 64.8239 10.1443  -3
   1  12  20 64.8239 10.1443   1
   2  12  20 303.155 12.9387  -3
   2  12  20 303.155 12.9387   1
   3  12  20 149.115 10.7364  -3
   3  12  20 149.115 10.7364   1
   4  12  20 155.346 14.4773  -3
   4  12  20 155.346 14.4773   1
   5  12  20 100.062 15.8949  -3
   5  12  20 100.062 15.8949   1
   6  12  20 96.2360 18.1655  -3
   6  12  20 96.2360 18.1655   1
   7  12  20 25.3585 20.0851  -3
   7  12  20 25.3585 20.0851   1
   8  12  20 1751.34 101.847  -3
   8  12  20 1751.34 101.847   1
   9  12  20 78.8117 7.37643   1
   0  13  20 20.7492 6.68260   1
   1  13  20 37.3122 11.5285  -3
   1  13  20 37.3122 11.5285   1
   2  13  20 346.012 14.2770  -3
   2  13  20 346.012 14.2770   1
   3  13  20 431.188 17.9665  -3
   3  13  20 431.188 17.9665   1
   4  13  20 102.995 14.1975  -3
   4  13  20 102.995 14.1975   1
   5  13  20 648.654 28.0457  -3
   5  13  20 648.654 28.0457   1
   6  13  20 12.0539 15.0941  -3
   6  13  20 12.0539 15.0941   1
   7  13  20 36.8841 31.7506  -3
   7  13  20 36.8841 31.7506   1
   8  13  20 80.1186 7.42740   1
   9  13  20 20.6668 6.19029   1
  10  13  20 361.923 22.1404   1
   0  14  20 5411.60 200.149  -3
   0  14  20 5411.60 200.149   1
   1  14  20 44.5255 13.6213  -3
   1  14  20 44.5255 13.6213   1
   2  14  20 220.273 14.7949  -3
   2  14  20 220.273 14.7949   1
   3  14  20 480.861 18.6367  -3
   3  14  20 480.861 18.6367   1
   4  14  20 254.232 24.0081  -3
   4  14  20 254.232 24.0081   1
   5  14  20 294.635 20.9555  -3
   5  14  20 294.635 20.9555   1
   6  14  20 218.780 37.7431  -3
   6  14  20 218.780 37.7431   1
   7  14  20 14.5050 4.20627   1
   8  14  20 96.3041 8.36305   1
   9  14  20 77.3897 9.44531   1
  10  14  20 3.44467 9.88705   1
   0  15  20 9.52073 5.68339   1
   1  15  20 590.074 22.8981  -3
   1  15  20 590.074 22.8981   1
   2  15  20 165.324 27.8368  -3
   2  15  20 165.324 27.8368   1
   3  15  20 225.018 26.2727  -3
   3  15  20 225.018 26.2727   1
   4  15  20 170.828 38.9364  -3
   4  15  20 170.828 38.9364   1
   5  15  20 81.6024 37.0416  -3
   5  15  20 81.6024 37.0416   1
   6  15  20 162.602 39.1895  -3
   6  15  20 162.602 39.1895   1
   7  15  20 8.12511 4.30625   1
   8  15  20 355.844 13.7963   1
   9  15  20 140.513 13.2981   1
   0  16  20 38.9694 7.09568   1
   1  16  20 160.585 39.5447  -3
   1  16  20 160.585 39.5447   1
   2  16  20 145.307 41.3217  -3
   2  16  20 145.307 41.3217   1
   3  16  20 -11.539 30.4918  -3
   3  16  20 -11.539 30.4918   1
   4  16  20 203.213 41.0937  -3
   4  16  20 203.213 41.0937   1
   5  16  20 17.9102 4.20897   1
   6  16  20 205.239 8.68887   1
   7  16  20 4.39326 4.46547   1
   8  16  20 51.7028 7.28283   1
   9  16  20 37.5854 22.6126   1
   0  17  20 -1.1839 6.09760   1
   1  17  20 372.951 9.82308   1
   2  17  20 40.0074 5.22396   1
   3  17  20 89.6431 41.2130  -3
   3  17  20 89.6431 41.2130   1
   4  17  20 306.441 9.19012   1
   5  17  20 4.92065 4.07072   1
   6  17  20 196.270 8.75729   1
   7  17  20 14.4247 4.77480   1
   8  17  20 206.212 12.0357   1
   0  18  20 97.9210 9.30418   1
   1  18  20 134.752 7.13643   1
   2  18  20 46.1076 5.51152   1
   3  18  20 81.4167 6.11601   1
   4  18  20 16.3421 4.43165   1
   5  18  20 105.282 6.14978   1
   6  18  20 153.786 8.13843   1
   7  18  20 8.33967 4.91782   1
   8  18  20 11.9934 7.88029   1
   0  19  20 1.18338 6.24365   1
   1  19  20 4.40758 4.61715   1
   2  19  20 254.837 9.45015   1
   3  19  20 18.2376 5.55412   1
   4  19  20 34.2502 4.97121   1
   5  19  20 24.1408 4.65928   1
   6  19  20 762.048 18.3737   1
   7  19  20 10.8304 5.72067   1
   8  19  20 108.529 12.1368   1
   0  20  20 108.498 9.50608   1
   1  20  20 252.537 9.02482   1
   2  20  20 14.9891 5.63180   1
   3  20  20 380.570 12.7063   1
   4  20  20 103.800 7.19791   1
   5  20  20 17.6639 4.55293   1
   6  20  20 5.43337 5.88737   1
   7  20  20 3.76777 7.19348   1
   8  20  20 294.857 49.7354   1
   0  21  20 -11.591 7.55614   1
   1  21  20 2.75680 4.96205   1
   2  21  20 128.958 8.35383   1
   3  21  20 147.954 9.09251   1
   4  21  20 338.935 11.4978   1
   5  21  20 31.4834 6.31097   1
   6  21  20 330.257 17.3633   1
   7  21  20 43.8927 14.8275   1
   0  22  20 20.5458 7.83675   1
   1  22  20 12.6325 5.56117   1
   2  22  20 173.035 9.37848   1
   3  22  20 -6.9350 5.75634   1
   4  22  20 11.2581 6.90022   1
   5  22  20 14.9115 6.00171   1
   6  22  20 116.774 15.4782   1
   7  22  20 8.46777 13.8467   1
   0  23  20 -8.7296 7.31854   1
   1  23  20 60.5657 6.58466   1
   2  23  20 8.73858 7.07560   1
   3  23  20 30.2223 9.33105   1
   4  23  20 49.1036 8.54442   1
   5  23  20 37.0984 13.8402   1
   6  23  20 654.434 52.5415   1
   7  23  20 75.3050 25.1257   1
   0  24  20 45.4447 10.2988   1
   1  24  20 11.4600 7.34143   1
   2  24  20 75.9428 12.4225   1
   3  24  20 988.104 37.1498   1
   4  24  20 51.1962 12.4329   1
   5  24  20 421.593 41.0614   1
   0  25  20 -5.5503 9.23308   1
   1  25  20 77.1722 10.3622   1
   3  25  20 282.145 22.3955   1
   4  25  20 24.4917 11.9552   1
   0  26  20 449.213 22.1329   1
   1  26  20 86.1203 21.7343   1
   3  26  20 180.472 35.6131   1
   4  26  20 34.9568 14.1173   1
   1  27  20 13.7114 20.4818   1
   1   0  21 -10.210 13.7016   1
   2   0  21 0.90211 4.83308   1
   3   0  21 6.13314 5.50692   1
   4   0  21 1.13614 4.69879   1
   5   0  21 4.47346 4.26074   1
   6   0  21 12.7698 24.9327   1
   8   0  21 -4.8948 11.3902   1
   9   0  21 13.2956 15.7041   1
   1   1  21 81.9664 10.7731  -3
   1   1  21 81.9664 10.7731   1
   1   1  21 58.4374 27.6888  -3
   1   1  21 58.4374 27.6888  -2
   1   1  21 58.4374 27.6888   1
   2   1  21 28.8145 5.60596  -3
   2   1  21 28.8145 5.60596   1
   2   1  21 16.3159 7.04285  -3
   2   1  21 16.3159 7.04285  -2
   2   1  21 16.3159 7.04285   1
   3   1  21 94.9794 7.52153  -3
   3   1  21 94.9794 7.52153  -2
   3   1  21 94.9794 7.52153   1
   3   1  21 81.3807 5.50744  -3
   3   1  21 81.3807 5.50744   1
   4   1  21 224.034 6.90441  -3
   4   1  21 224.034 6.90441   1
   4   1  21 232.391 12.2932  -3
   4   1  21 232.391 12.2932  -2
   4   1  21 232.391 12.2932   1
   5   1  21 729.428 15.6078  -3
   5   1  21 729.428 15.6078   1
   5   1  21 751.945 36.0216  -3
   5   1  21 751.945 36.0216  -2
   5   1  21 751.945 36.0216   1
   6   1  21 1198.95 48.6474  -3
   6   1  21 1198.95 48.6474   1
   6   1  21 1216.57 65.2992  -3
   6   2  21 1216.57 65.2992  -2
   6   1  21 1216.57 65.2992   1
   6   1  21 1244.80 51.7203  -3
   6   1  21 1244.80 51.7203  -2
   6   1  21 1244.80 51.7203   1
   7   1  21 13.7894 12.9023  -3
   7   1  21 13.7894 12.9023   1
   7   1  21 11.9750 12.4637  -3
   7   2  21 11.9750 12.4637  -2
   7   1  21 11.9750 12.4637   1
   8   1  21 90.5167 12.1041  -2
   8   1  21 90.5167 12.1041   1
   8   1  21 76.0857 26.6406  -3
   8   2  21 76.0857 26.6406  -2
   8   1  21 76.0857 26.6406   1
   8   1  21 122.715 28.1446  -3
   8   1  21 122.715 28.1446   1
   9   1  21 67.2814 12.6325  -2
   9   1  21 67.2814 12.6325   1
   9   1  21 37.3884 25.1051  -3
   9   2  21 37.3884 25.1051  -2
   9   1  21 37.3884 25.1051   1
   9   1  21 44.8192 25.5479  -3
   9   1  21 44.8192 25.5479   1
  10   2  21 62.3621 24.5442  -3
  10   1  21 62.3621 24.5442  -2
  10   1  21 62.3621 24.5442   1
  10   1  21 61.4535 25.5131  -3
  10   2  21 61.4535 25.5131  -2
  10   1  21 61.4535 25.5131   1
  10   1  21 93.6604 26.5836  -3
  10   1  21 93.6604 26.5836   1
  11   2  21 295.378 30.0265  -3
  11   1  21 295.378 30.0265  -2
  11   1  21 295.378 30.0265   1
  11   1  21 355.201 31.5957  -2
  11   1  21 355.201 31.5957   1
   0   2  21 82.5258 18.1628  -3
   0   2  21 82.5258 18.1628   1
   1   2  21 319.239 11.7190  -3
   1   2  21 319.239 11.7190   1
   1   2  21 248.918 33.4085  -3
   1   2  21 248.918 33.4085  -2
   1   2  21 248.918 33.4085   1
   2   2  21 66.8977 6.81447  -3
   2   2  21 66.8977 6.81447  -2
   2   2  21 66.8977 6.81447   1
   2   2  21 73.4576 6.05408  -3
   2   2  21 73.4576 6.05408   1
   3   2  21 1101.76 20.5083  -3
   3   2  21 1101.76 20.5083  -2
   3   2  21 1101.76 20.5083   1
   3   2  21 1055.69 19.1382  -3
   3   2  21 1055.69 19.1382   1
   4   2  21 1874.74 28.5176  -3
   4   2  21 1874.74 28.5176   1
   4   2  21 1995.16 35.9545  -3
   4   2  21 1995.16 35.9545  -2
   4   2  21 1995.16 35.9545   1
   5   2  21 107.625 20.5714  -3
   5   2  21 107.625 20.5714  -2
   5   2  21 107.625 20.5714   1
   5   2  21 103.242 4.63681  -3
   5   2  21 103.242 4.63681   1
   6   2  21 674.958 33.6074  -3
   6   2  21 674.958 33.6074  -2
   6   2  21 674.958 33.6074   1
   6   2  21 718.417 52.2552  -3
   6   1  21 718.417 52.2552  -2
   6   2  21 718.417 52.2552   1
   6   2  21 561.913 32.9796  -3
   6   2  21 561.913 32.9796   1
   6   2  21 810.544 55.3483  -3
   6   3  21 810.544 55.3483  -2
   6   2  21 810.544 55.3483   1
   7   2  21 26.8523 13.1265  -3
   7   3  21 26.8523 13.1265  -2
   7   2  21 26.8523 13.1265   1
   7   2  21 20.0331 14.1492  -3
   7   1  21 20.0331 14.1492  -2
   7   2  21 20.0331 14.1492   1
   8   2  21 26.8098 11.5331  -2
   8   2  21 26.8098 11.5331   1
   8   2  21 70.2397 27.6327  -3
   8   1  21 70.2397 27.6327  -2
   8   2  21 70.2397 27.6327   1
   8   2  21 33.9701 26.4486  -3
   8   3  21 33.9701 26.4486  -2
   8   2  21 33.9701 26.4486   1
   9   2  21 191.335 29.5090  -3
   9   3  21 191.335 29.5090  -2
   9   2  21 191.335 29.5090   1
   9   2  21 137.032 29.4148  -3
   9   1  21 137.032 29.4148  -2
   9   2  21 137.032 29.4148   1
   9   2  21 174.348 15.1952  -2
   9   2  21 174.348 15.1952   1
  10   2  21 91.1189 27.0506  -3
  10   3  21 91.1189 27.0506  -2
  10   2  21 91.1189 27.0506   1
  10   3  21 65.6960 25.6003  -3
  10   2  21 65.6960 25.6003  -2
  10   2  21 65.6960 25.6003   1
  10   2  21 78.9757 27.4159  -3
  10   1  21 78.9757 27.4159  -2
  10   2  21 78.9757 27.4159   1
  11   1  21 135.995 25.6863  -3
  11   2  21 135.995 25.6863  -2
  11   2  21 135.995 25.6863   1
   0   3  21 4.43324 16.7795   1
   1   3  21 246.058 21.4485  -3
   1   3  21 246.058 21.4485  -2
   1   3  21 246.058 21.4485   1
   1   3  21 236.032 10.1196  -3
   1   3  21 236.032 10.1196   1
   2   3  21 823.301 17.5638  -3
   2   3  21 823.301 17.5638  -2
   2   3  21 823.301 17.5638   1
   2   3  21 754.665 14.8483  -3
   2   3  21 754.665 14.8483   1
   3   3  21 182.799 8.83139  -3
   3   3  21 182.799 8.83139  -2
   3   3  21 182.799 8.83139   1
   3   3  21 169.310 6.81632  -3
   3   3  21 169.310 6.81632   1
   4   3  21 1554.29 24.0922  -3
   4   3  21 1554.29 24.0922   1
   4   3  21 1704.56 38.9236  -3
   4   3  21 1704.56 38.9236  -2
   4   3  21 1704.56 38.9236   1
   4   3  21 1528.16 76.1206  -2
   4   3  21 1528.16 76.1206   1
   5   3  21 810.892 17.8382  -3
   5   3  21 810.892 17.8382   1
   5   3  21 910.346 41.7720  -3
   5   3  21 910.346 41.7720  -2
   5   3  21 910.346 41.7720   1
   6   3  21 2404.48 122.606  -3
   6   2  21 2404.48 122.606  -2
   6   3  21 2404.48 122.606   1
   6   3  21 2322.80 126.309  -3
   6   3  21 2322.80 126.309  -2
   6   3  21 2322.80 126.309   1
   6   3  21 2313.36 117.614  -3
   6   4  21 2313.36 117.614  -2
   6   3  21 2313.36 117.614   1
   7   3  21 25.1842 13.2945  -3
   7   4  21 25.1842 13.2945  -2
   7   3  21 25.1842 13.2945   1
   7   3  21 10.6186 14.8631  -3
   7   2  21 10.6186 14.8631  -2
   7   3  21 10.6186 14.8631   1
   7   3  21 4.55917 20.2778  -2
   7   3  21 4.55917 20.2778   1
   8   3  21 77.3365 11.0528  -3
   8   2  21 77.3365 11.0528  -2
   8   3  21 77.3365 11.0528   1
   8   3  21 96.1085 13.4872  -2
   8   3  21 96.1085 13.4872   1
   8   3  21 104.710 29.0878  -3
   8   4  21 104.710 29.0878  -2
   8   3  21 104.710 29.0878   1
   9   3  21 109.145 20.8681  -2
   9   3  21 109.145 20.8681   1
   9   3  21 173.199 29.5975  -3
   9   4  21 173.199 29.5975  -2
   9   3  21 173.199 29.5975   1
   9   4  21 168.772 29.1627  -3
   9   3  21 168.772 29.1627  -2
   9   3  21 168.772 29.1627   1
   9   3  21 145.882 30.3857  -3
   9   2  21 145.882 30.3857  -2
   9   3  21 145.882 30.3857   1
  10   3  21 238.705 32.6661  -3
  10   4  21 238.705 32.6661  -2
  10   3  21 238.705 32.6661   1
  10   3  21 162.940 30.8992  -3
  10   2  21 162.940 30.8992  -2
  10   3  21 162.940 30.8992   1
  10   3  21 133.877 14.6546  -2
  10   3  21 133.877 14.6546   1
  11   2  21 -11.402 23.3602  -3
  11   3  21 -11.402 23.3602  -2
  11   3  21 -11.402 23.3602   1
   0   4  21 97.8833 18.8604  -3
   0   4  21 97.8833 18.8604   1
   1   4  21 1350.66 28.5792  -3
   1   4  21 1350.66 28.5792   1
   1   4  21 1435.93 78.6559  -3
   1   4  21 1435.93 78.6559  -2
   1   4  21 1435.93 78.6559   1
   2   4  21 45.8763 6.39943  -3
   2   4  21 45.8763 6.39943   1
   2   4  21 82.7829 11.2957  -3
   2   4  21 82.7829 11.2957  -2
   2   4  21 82.7829 11.2957   1
   3   4  21 1272.16 24.8803  -3
   3   4  21 1272.16 24.8803  -2
   3   4  21 1272.16 24.8803   1
   3   4  21 1089.13 19.6291  -3
   3   4  21 1089.13 19.6291   1
   4   4  21 72.2725 11.4308  -3
   4   4  21 72.2725 11.4308  -2
   4   4  21 72.2725 11.4308   1
   4   4  21 65.9174 6.38468  -3
   4   4  21 65.9174 6.38468   1
   4   4  21 58.8739 11.6966  -2
   4   4  21 58.8739 11.6966   1
   5   4  21 185.158 9.75871  -3
   5   4  21 185.158 9.75871   1
   5   4  21 155.464 22.5234  -3
   5   4  21 155.464 22.5234  -2
   5   4  21 155.464 22.5234   1
   6   4  21 204.976 20.2062  -3
   6   4  21 204.976 20.2062   1
   6   4  21 287.349 26.3705  -3
   6   5  21 287.349 26.3705  -2
   6   4  21 287.349 26.3705   1
   6   4  21 142.237 25.3953  -2
   6   4  21 142.237 25.3953   1
   6   4  21 186.476 32.4848  -3
   6   4  21 186.476 32.4848  -2
   6   4  21 186.476 32.4848   1
   7   4  21 192.125 16.2021  -2
   7   4  21 192.125 16.2021   1
   7   4  21 221.110 22.8631  -3
   7   3  21 221.110 22.8631  -2
   7   4  21 221.110 22.8631   1
   7   4  21 257.940 20.8022  -3
   7   5  21 257.940 20.8022  -2
   7   4  21 257.940 20.8022   1
   8   4  21 381.287 20.9190  -3
   8   3  21 381.287 20.9190  -2
   8   4  21 381.287 20.9190   1
   8   4  21 368.260 21.0464  -2
   8   4  21 368.260 21.0464   1
   8   4  21 338.710 37.1157  -3
   8   5  21 338.710 37.1157  -2
   8   4  21 338.710 37.1157   1
   9   4  21 917.753 39.1877  -2
   9   4  21 917.753 39.1877   1
   9   4  21 967.765 62.0025  -3
   9   5  21 967.765 62.0025  -2
   9   4  21 967.765 62.0025   1
   9   4  21 990.816 63.9912  -3
   9   3  21 990.816 63.9912  -2
   9   4  21 990.816 63.9912   1
  10   4  21 282.952 35.6744  -3
  10   3  21 282.952 35.6744  -2
  10   4  21 282.952 35.6744   1
  10   4  21 304.280 36.0153  -3
  10   5  21 304.280 36.0153  -2
  10   4  21 304.280 36.0153   1
  10   4  21 267.175 18.1157  -2
  10   4  21 267.175 18.1157   1
   0   5  21 4.24445 7.76589   1
   1   5  21 192.819 8.31691  -3
   1   5  21 192.819 8.31691   1
   2   5  21 121.815 10.4696  -3
   2   5  21 121.815 10.4696  -2
   2   5  21 121.815 10.4696   1
   2   5  21 118.824 7.16036  -3
   2   5  21 118.824 7.16036   1
   3   5  21 63.0992 5.56824  -3
   3   5  21 63.0992 5.56824   1
   3   5  21 57.3428 15.0211  -2
   3   5  21 57.3428 15.0211   1
   3   5  21 94.1424 13.6093  -3
   3   5  21 94.1424 13.6093  -2
   3   5  21 94.1424 13.6093   1
   4   5  21 228.394 12.9019  -3
   4   5  21 228.394 12.9019  -2
   4   5  21 228.394 12.9019   1
   4   5  21 179.888 7.84094  -3
   4   5  21 179.888 7.84094   1
   4   5  21 178.513 21.9407  -2
   4   5  21 178.513 21.9407   1
   5   5  21 79.3117 8.35978  -3
   5   5  21 79.3117 8.35978   1
   5   5  21 6.62824 21.7707  -3
   5   5  21 6.62824 21.7707  -2
   5   5  21 6.62824 21.7707   1
   6   5  21 2435.55 72.6713  -3
   6   5  21 2435.55 72.6713   1
   6   5  21 2345.92 126.196  -2
   6   5  21 2345.92 126.196   1
   7   5  21 -7.3743 15.0026  -3
   7   6  21 -7.3743 15.0026  -2
   7   5  21 -7.3743 15.0026   1
   7   5  21 -28.512 13.1210  -2
   7   5  21 -28.512 13.1210   1
   8   5  21 70.5312 30.8026  -3
   8   6  21 70.5312 30.8026  -2
   8   5  21 70.5312 30.8026   1
   8   5  21 100.991 13.9108  -2
   8   5  21 100.991 13.9108   1
   8   5  21 120.581 17.7291  -3
   8   4  21 120.581 17.7291  -2
   8   5  21 120.581 17.7291   1
   9   5  21 2.05284 30.1983  -3
   9   6  21 2.05284 30.1983  -2
   9   5  21 2.05284 30.1983   1
   9   5  21 29.4310 14.8946  -2
   9   5  21 29.4310 14.8946   1
  10   6  21 806.793 54.4751  -3
  10   5  21 806.793 54.4751  -2
  10   5  21 806.793 54.4751   1
  10   5  21 786.010 49.1487  -2
  10   5  21 786.010 49.1487   1
  10   5  21 866.690 59.3398  -3
  10   4  21 866.690 59.3398  -2
  10   5  21 866.690 59.3398   1
  10   5  21 835.313 56.9051  -3
  10   6  21 835.313 56.9051  -2
  10   5  21 835.313 56.9051   1
   0   6  21 28.1216 10.9215  -3
   0   6  21 28.1216 10.9215   1
   1   6  21 1672.70 28.5566  -3
   1   6  21 1672.70 28.5566   1
   2   6  21 707.606 25.1722  -3
   2   6  21 707.606 25.1722  -2
   2   6  21 707.606 25.1722   1
   2   6  21 658.522 13.0737  -3
   2   6  21 658.522 13.0737   1
   3   6  21 322.044 19.4179  -3
   3   6  21 322.044 19.4179  -2
   3   6  21 322.044 19.4179   1
   3   6  21 331.641 8.60545  -3
   3   6  21 331.641 8.60545   1
   4   6  21 256.332 8.85008  -3
   4   6  21 256.332 8.85008   1
   4   6  21 225.554 20.6079  -3
   4   6  21 225.554 20.6079  -2
   4   6  21 225.554 20.6079   1
   4   6  21 228.065 24.4234  -2
   4   6  21 228.065 24.4234   1
   5   6  21 126.983 8.86343  -3
   5   6  21 126.983 8.86343   1
   6   6  21 364.559 16.9401  -3
   6   6  21 364.559 16.9401   1
   6   6  21 345.183 24.3651  -2
   6   6  21 345.183 24.3651   1
   7   6  21 117.100 10.1131  -3
   7   6  21 117.100 10.1131   1
   7   6  21 67.9054 14.5934  -2
   7   6  21 67.9054 14.5934   1
   8   6  21 97.2927 14.4792  -2
   8   6  21 97.2927 14.4792   1
   8   6  21 106.278 26.8695  -3
   8   6  21 106.278 26.8695   1
   9   6  21 144.609 17.6530  -2
   9   6  21 144.609 17.6530   1
   9   6  21 174.546 33.6749  -3
   9   7  21 174.546 33.6749  -2
   9   6  21 174.546 33.6749   1
  10   6  21 18.0600 15.3332  -2
  10   6  21 18.0600 15.3332   1
  10   6  21 26.1386 31.9311  -3
  10   7  21 26.1386 31.9311  -2
  10   6  21 26.1386 31.9311   1
   0   7  21 1.22943 6.80151   1
   1   7  21 2425.42 36.9116  -3
   1   7  21 2425.42 36.9116   1
   2   7  21 74.9305 6.09003  -3
   2   7  21 74.9305 6.09003   1
   2   7  21 91.6746 23.0829  -3
   2   7  21 91.6746 23.0829  -2
   2   7  21 91.6746 23.0829   1
   3   7  21 221.710 7.22147  -3
   3   7  21 221.710 7.22147   1
   3   7  21 305.527 29.2376  -3
   3   7  21 305.527 29.2376  -2
   3   7  21 305.527 29.2376   1
   4   7  21 1854.34 39.8438  -3
   4   7  21 1854.34 39.8438   1
   4   7  21 1772.58 92.4253  -2
   4   7  21 1772.58 92.4253   1
   4   7  21 1942.67 109.934  -3
   4   7  21 1942.67 109.934  -2
   4   7  21 1942.67 109.934   1
   5   7  21 677.784 19.2665  -3
   5   7  21 677.784 19.2665   1
   5   7  21 677.110 49.9420  -2
   5   7  21 677.110 49.9420   1
   6   7  21 110.611 19.6570  -2
   6   7  21 110.611 19.6570   1
   6   7  21 164.076 11.9779  -3
   6   7  21 164.076 11.9779   1
   7   7  21 38.4187 17.2915  -2
   7   7  21 38.4187 17.2915   1
   7   7  21 16.9203 12.1457  -3
   7   7  21 16.9203 12.1457   1
   8   7  21 854.151 36.2081  -3
   8   7  21 854.151 36.2081   1
   8   7  21 537.223 36.5028  -2
   8   7  21 537.223 36.5028   1
   9   7  21 77.0015 17.3931  -2
   9   7  21 77.0015 17.3931   1
   9   7  21 83.1790 27.4726  -3
   9   7  21 83.1790 27.4726   1
  10   7  21 56.5864 17.2259  -2
  10   7  21 56.5864 17.2259   1
  10   7  21 42.2642 27.3273  -3
  10   7  21 42.2642 27.3273   1
   0   8  21 72.5737 9.55724  -3
   0   8  21 72.5737 9.55724   1
   1   8  21 74.3907 6.98758  -3
   1   8  21 74.3907 6.98758   1
   2   8  21 26.0273 5.52929  -3
   2   8  21 26.0273 5.52929   1
   3   8  21 492.424 48.5758  -3
   3   8  21 492.424 48.5758  -2
   3   8  21 492.424 48.5758   1
   3   8  21 407.201 11.2317  -3
   3   8  21 407.201 11.2317   1
   4   8  21 844.184 37.9576  -2
   4   8  21 844.184 37.9576   1
   4   8  21 786.182 21.8846  -3
   4   8  21 786.182 21.8846   1
   5   8  21 80.6995 9.13244  -3
   5   8  21 80.6995 9.13244   1
   5   8  21 110.545 29.2513  -2
   5   8  21 110.545 29.2513   1
   6   8  21 148.102 21.0099  -2
   6   8  21 148.102 21.0099   1
   6   8  21 233.386 13.2544  -3
   6   8  21 233.386 13.2544   1
   7   8  21 235.010 16.1933  -3
   7   8  21 235.010 16.1933   1
   7   8  21 256.211 32.0248  -2
   7   8  21 256.211 32.0248   1
   8   8  21 16.9414 25.6549  -2
   8   8  21 16.9414 25.6549   1
   8   8  21 -31.441 25.0685  -3
   8   8  21 -31.441 25.0685   1
   9   8  21 86.0476 26.6338  -2
   9   8  21 86.0476 26.6338   1
   9   8  21 138.548 28.5255  -3
   9   8  21 138.548 28.5255   1
  10   8  21 47.1436 17.8107  -2
  10   8  21 47.1436 17.8107   1
   0   9  21 -0.6127 7.05717   1
   1   9  21 1242.22 19.6305  -3
   1   9  21 1242.22 19.6305   1
   2   9  21 31.6001 6.54261  -3
   2   9  21 31.6001 6.54261   1
   2   9  21 24.7960 25.6733  -2
   2   9  21 24.7960 25.6733   1
   3   9  21 152.244 9.80300  -3
   3   9  21 152.244 9.80300   1
   3   9  21 156.184 32.8869  -2
   3   9  21 156.184 32.8869   1
   4   9  21 677.809 20.1413  -3
   4   9  21 677.809 20.1413   1
   5   9  21 48.2545 8.75637  -3
   5   9  21 48.2545 8.75637   1
   6   9  21 1.62822 27.4457  -2
   6   9  21 1.62822 27.4457   1
   6   9  21 19.7221 10.6838  -3
   6   9  21 19.7221 10.6838   1
   7   9  21 725.040 28.0771  -3
   7   9  21 725.040 28.0771   1
   7   9  21 697.750 50.4482  -2
   7   9  21 697.750 50.4482   1
   8   9  21 95.8157 28.6318  -3
   8   9  21 95.8157 28.6318   1
   8   9  21 26.1234 35.9550  -3
   8  10  20 26.1234 35.9550  -2
   8   9  21 26.1234 35.9550   1
   8   9  21 52.6990 26.4674  -2
   8   9  21 52.6990 26.4674   1
   9   9  21 221.493 31.8218  -3
   9   9  21 221.493 31.8218   1
   9   9  21 183.383 30.5286  -2
   9   9  21 183.383 30.5286   1
  10   9  21 35.0573 26.8221  -3
  10   9  21 35.0573 26.8221   1
  10   9  21 26.6338 29.2161  -2
  10   9  21 26.6338 29.2161   1
  10  10  20 21.5783 28.9594  -2
  10   9  21 21.5783 28.9594   1
   0  10  21 54.1706 11.2634  -3
   0  10  21 54.1706 11.2634   1
   1  10  21 319.582 9.16691  -3
   1  10  21 319.582 9.16691   1
   2  10  21 765.074 15.1154  -3
   2  10  21 765.074 15.1154   1
   3  10  21 40.0131 9.30641  -3
   3  10  21 40.0131 9.30641   1
   4  10  21 565.662 17.0669  -3
   4  10  21 565.662 17.0669   1
   5  10  21 430.839 17.9256  -3
   5  10  21 430.839 17.9256   1
   6  10  21 105.058 14.3878  -3
   6  10  21 105.058 14.3878   1
   6  10  21 126.914 31.0223  -2
   6  10  21 126.914 31.0223   1
   7  10  21 13.6978 28.3966  -2
   7  10  21 13.6978 28.3966   1
   7  10  21 59.8239 14.4473  -3
   7  10  21 59.8239 14.4473   1
   8  10  21 46.7525 20.4272  -3
   8  10  21 46.7525 20.4272   1
   8  10  21 96.2560 29.3959  -2
   8  10  21 96.2560 29.3959   1
   9  11  20 103.471 29.4151  -2
   9  10  21 103.471 29.4151   1
   9  10  21 89.6469 29.8534  -2
   9  10  21 89.6469 29.8534   1
   9  10  21 45.3834 28.8423  -3
   9  10  21 45.3834 28.8423   1
   0  11  21 -2.8582 6.08493   1
   1  11  21 3973.34 66.0069  -3
   1  11  21 3973.34 66.0069   1
   2  11  21 1166.04 22.4712  -3
   2  11  21 1166.04 22.4712   1
   3  11  21 182.771 11.0663  -3
   3  11  21 182.771 11.0663   1
   4  11  21 928.511 26.4452  -3
   4  11  21 928.511 26.4452   1
   5  11  21 213.552 14.5663  -3
   5  11  21 213.552 14.5663   1
   6  11  21 -9.3004 13.6055  -3
   6  11  21 -9.3004 13.6055   1
   6  11  21 19.8043 30.7113  -2
   6  11  21 19.8043 30.7113   1
   7  11  21 -12.281 28.6312  -2
   7  11  21 -12.281 28.6312   1
   7  11  21 1.52434 13.5784  -3
   7  11  21 1.52434 13.5784   1
   8  11  21 22.0822 20.6145  -3
   8  11  21 22.0822 20.6145   1
   8  11  21 26.6200 29.3588  -2
   8  11  21 26.6200 29.3588   1
   9  11  21 47.4941 32.2263  -2
   9  11  21 47.4941 32.2263   1
   9  11  21 92.0528 30.9578  -3
   9  11  21 92.0528 30.9578   1
   0  12  21 1060.98 30.8380  -3
   0  12  21 1060.98 30.8380   1
   1  12  21 144.475 11.7119  -3
   1  12  21 144.475 11.7119   1
   2  12  21 111.469 11.7090  -3
   2  12  21 111.469 11.7090   1
   3  12  21 237.074 11.8744  -3
   3  12  21 237.074 11.8744   1
   4  12  21 1665.07 46.9736  -3
   4  12  21 1665.07 46.9736   1
   5  12  21 287.049 19.7486  -3
   5  12  21 287.049 19.7486   1
   6  12  21 -14.419 15.9900  -3
   6  12  21 -14.419 15.9900   1
   7  12  21 92.7648 32.9176  -3
   7  12  21 92.7648 32.9176   1
   8  12  21 667.949 51.9937  -3
   8  12  21 667.949 51.9937   1
   8  12  21 512.747 46.0123  -2
   8  12  21 512.747 46.0123   1
   9  12  21 245.623 36.3965  -2
   9  12  21 245.623 36.3965   1
  10  12  21 45.1316 9.50833   1
   0  13  21 2.67294 6.47557   1
   1  13  21 807.141 22.9570  -3
   1  13  21 807.141 22.9570   1
   2  13  21 -12.294 11.7975  -3
   2  13  21 -12.294 11.7975   1
   3  13  21 129.840 13.5534  -3
   3  13  21 129.840 13.5534   1
   4  13  21 37.1247 13.3591  -3
   4  13  21 37.1247 13.3591   1
   5  13  21 2655.57 82.6822  -3
   5  13  21 2655.57 82.6822   1
   6  13  21 20.7072 15.4541  -3
   6  13  21 20.7072 15.4541   1
   7  13  21 56.8567 31.8623  -3
   7  13  21 56.8567 31.8623   1
   8  13  21 472.262 15.7837   1
   9  13  21 92.6551 8.16779   1
  10  13  21 205.459 16.4206   1
   0  14  21 403.172 44.4480  -3
   0  14  21 403.172 44.4480   1
   1  14  21 21.8655 14.0005  -3
   1  14  21 21.8655 14.0005   1
   2  14  21 376.043 16.1763  -3
   2  14  21 376.043 16.1763   1
   3  14  21 250.249 15.6966  -3
   3  14  21 250.249 15.6966   1
   4  14  21 483.351 30.0409  -3
   4  14  21 483.351 30.0409   1
   5  14  21 36.2897 19.4349  -3
   5  14  21 36.2897 19.4349   1
   6  14  21 19.4218 33.5319  -3
   6  14  21 19.4218 33.5319   1
   7  14  21 8.35847 4.16182   1
   8  14  21 32.7759 6.57629   1
   9  14  21 3.73133 8.11127   1
  10  14  21 86.7310 15.0320   1
   0  15  21 -0.2343 5.89849   1
   1  15  21 110.439 19.4063  -3
   1  15  21 110.439 19.4063   1
   2  15  21 19.5490 27.0241  -3
   2  15  21 19.5490 27.0241   1
   3  15  21 222.550 41.6189  -3
   3  15  21 222.550 41.6189   1
   4  15  21 1176.31 78.8769  -3
   4  15  21 1176.31 78.8769   1
   5  15  21 157.260 39.4872  -3
   5  15  21 157.260 39.4872   1
   6  15  21 57.7882 37.9942  -3
   6  15  21 57.7882 37.9942   1
   7  15  21 32.3954 5.02258   1
   8  15  21 28.2534 6.71644   1
   9  15  21 15.4486 16.4411   1
   0  16  21 195.636 10.8587   1
   1  16  21 631.731 39.9783  -3
   1  16  21 631.731 39.9783   1
   2  16  21 61.4531 37.6849  -3
   2  16  21 61.4531 37.6849   1
   3  16  21 23.9472 4.72087   1
   4  16  21 18.7014 36.0563  -3
   4  16  21 18.7014 36.0563   1
   5  16  21 290.049 8.99785   1
   6  16  21 2.32167 4.91168   1
   7  16  21 29.2987 5.04092   1
   8  16  21 40.6756 6.93358   1
   0  17  21 -0.7328 6.07213   1
   1  17  21 523.434 12.4686   1
   2  17  21 10.2890 4.40372   1
   3  17  21 5.64895 4.48380   1
   4  17  21 227.989 8.13427   1
   5  17  21 29.0612 4.58535   1
   6  17  21 164.965 8.29633   1
   7  17  21 5.61474 4.63523   1
   8  17  21 59.1371 8.59378   1
   0  18  21 154.881 11.1387   1
   1  18  21 12.4764 4.71165   1
   2  18  21 144.935 7.83622   1
   3  18  21 144.646 7.91003   1
   4  18  21 145.079 7.11305   1
   5  18  21 282.761 9.13033   1
   6  18  21 17.6456 5.41486   1
   7  18  21 41.1881 6.16454   1
   8  18  21 57.4480 8.92196   1
   0  19  21 -1.7774 7.28502   1
   1  19  21 22.5185 5.06733   1
   2  19  21 140.794 8.15863   1
   3  19  21 6.73626 5.11243   1
   4  19  21 79.7841 5.87214   1
   5  19  21 85.0430 6.13226   1
   6  19  21 195.019 9.17728   1
   7  19  21 87.3727 9.04343   1
   8  19  21 35.9589 20.9685   1
   0  20  21 424.368 18.8785   1
   1  20  21 370.740 11.1361   1
   2  20  21 51.8333 6.61983   1
   3  20  21 118.783 8.12173   1
   4  20  21 2.34758 4.88446   1
   5  20  21 12.9431 4.66333   1
   6  20  21 131.265 10.3592   1
   7  20  21 28.0124 8.56766   1
   0  21  21 -1.3485 6.94950   1
   1  21  21 64.4628 6.26529   1
   2  21  21 409.268 12.8938   1
   3  21  21 48.2773 6.74610   1
   4  21  21 31.2838 6.14302   1
   5  21  21 134.201 8.78803   1
   6  21  21 65.3575 13.1230   1
   7  21  21 409.953 28.7954   1
   0  22  21 569.888 20.1074   1
   1  22  21 25.5078 5.92708   1
   2  22  21 46.3269 7.10879   1
   3  22  21 8.41455 5.96147   1
   4  22  21 21.6619 7.61963   1
   5  22  21 213.080 12.2564   1
   6  22  21 16.3467 19.2284   1
   7  22  21 244.236 35.1260   1
   0  23  21 11.0524 8.04623   1
   1  23  21 17.3203 6.54299   1
   2  23  21 362.755 16.2876   1
   3  23  21 90.6725 12.9917   1
   4  23  21 22.1861 14.1256   1
   5  23  21 50.1438 8.78966   1
   6  23  21 77.0827 22.3729   1
   7  23  21 88.6627 34.1770   1
   0  24  21 31.8568 10.3698   1
   1  24  21 59.5402 8.51991   1
   2  24  21 18.3771 12.2879   1
   3  24  21 481.273 28.3352   1
   4  24  21 348.962 27.1008   1
   0  25  21 1.82993 9.76147   1
   1  25  21 49.4302 11.1255   1
   3  25  21 100.489 15.2892   1
   4  25  21 39.4667 14.7393   1
   0  26  21 43.1697 12.8458   1
   1  26  21 285.230 31.6131   1
   1   0  22 249.226 32.4486  -3
   1   0  22 249.226 32.4486  -2
   1   0  22 249.226 32.4486   1
   1   0  22 241.784 23.1077  -3
   1   0  22 241.784 23.1077   1
   2   0  22 5554.17 125.603  -3
   2   0  22 5554.17 125.603   1
   2   0  22 6116.95 154.643  -3
   2   0  22 6116.95 154.643  -2
   2   0  22 6116.95 154.643   1
   3   0  22 1932.79 46.1285  -3
   3   0  22 1932.79 46.1285   1
   3   0  22 2109.10 49.9828  -3
   3   0  22 2109.10 49.9828  -2
   3   0  22 2109.10 49.9828   1
   4   0  22 76.0201 8.39943  -3
   4   0  22 76.0201 8.39943   1
   4   0  22 97.0829 15.4575  -3
   4   0  22 97.0829 15.4575  -2
   4   0  22 97.0829 15.4575   1
   5   0  22 3061.44 106.698  -3
   5   0  22 3061.44 106.698   1
   5   0  22 3393.03 178.818  -3
   5   0  22 3393.03 178.818  -2
   5   0  22 3393.03 178.818   1
   5   0  22 3441.09 182.187  -3
   5   1  22 3441.09 182.187  -2
   5   0  22 3441.09 182.187   1
   6   0  22 -22.004 16.1861  -3
   6   1  22 -22.004 16.1861  -2
   6   0  22 -22.004 16.1861   1
   6   0  22 14.5605 26.6767  -3
   6   0  22 14.5605 26.6767  -2
   6   0  22 14.5605 26.6767   1
   7   0  22 1725.24 64.8600  -3
   7   1  22 1725.24 64.8600  -2
   7   0  22 1725.24 64.8600   1
   8   0  22 40.5304 25.5434  -3
   8   1  22 40.5304 25.5434  -2
   8   0  22 40.5304 25.5434   1
   9   0  22 267.828 32.0118  -3
   9   1  22 267.828 32.0118  -2
   9   0  22 267.828 32.0118   1
   9   0  22 268.363 23.9129  -2
   9   0  22 268.363 23.9129   1
  10   0  22 114.520 26.9576  -3
  10   1  22 114.520 26.9576  -2
  10   0  22 114.520 26.9576   1
  10   1  22 152.689 26.9575  -3
  10   0  22 152.689 26.9575  -2
  10   0  22 152.689 26.9575   1
   1   1  22 18.8650 12.7117  -3
   1   1  22 18.8650 12.7117   1
   1   1  22 -8.2633 27.6472  -3
   1   1  22 -8.2633 27.6472  -2
   1   1  22 -8.2633 27.6472   1
   2   1  22 314.319 9.97246  -3
   2   1  22 314.319 9.97246  -2
   2   1  22 314.319 9.97246   1
   2   1  22 333.318 9.02920  -3
   2   1  22 333.318 9.02920   1
   3   1  22 36.2842 7.50643  -3
   3   1  22 36.2842 7.50643  -2
   3   1  22 36.2842 7.50643   1
   3   1  22 44.2913 5.51737  -3
   3   1  22 44.2913 5.51737   1
   4   1  22 301.948 17.6803  -3
   4   1  22 301.948 17.6803  -2
   4   1  22 301.948 17.6803   1
   4   1  22 274.324 8.55091  -3
   4   1  22 274.324 8.55091   1
   5   1  22 1352.70 34.6116  -3
   5   1  22 1352.70 34.6116   1
   5   1  22 1483.39 86.8861  -3
   5   0  22 1483.39 86.8861  -2
   5   1  22 1483.39 86.8861   1
   5   1  22 1427.36 58.4117  -3
   5   1  22 1427.36 58.4117  -2
   5   1  22 1427.36 58.4117   1
   6   1  22 322.925 21.3738  -3
   6   2  22 322.925 21.3738  -2
   6   1  22 322.925 21.3738   1
   6   1  22 160.648 18.5481  -3
   6   0  22 160.648 18.5481  -2
   6   1  22 160.648 18.5481   1
   6   1  22 246.251 22.5198  -3
   6   1  22 246.251 22.5198  -2
   6   1  22 246.251 22.5198   1
   7   1  22 112.136 14.8739  -3
   7   2  22 112.136 14.8739  -2
   7   1  22 112.136 14.8739   1
   7   1  22 182.156 16.6582  -3
   7   0  22 182.156 16.6582  -2
   7   1  22 182.156 16.6582   1
   7   1  22 133.220 27.7310  -3
   7   1  22 133.220 27.7310  -2
   7   1  22 133.220 27.7310   1
   8   1  22 80.6412 27.2492  -3
   8   0  22 80.6412 27.2492  -2
   8   1  22 80.6412 27.2492   1
   8   1  22 -67.775 25.2790  -3
   8   2  22 -67.775 25.2790  -2
   8   1  22 -67.775 25.2790   1
   8   1  22 19.5837 11.5673  -2
   8   1  22 19.5837 11.5673   1
   9   1  22 92.0795 12.2681  -2
   9   1  22 92.0795 12.2681   1
   9   1  22 120.590 27.4183  -3
   9   2  22 120.590 27.4183  -2
   9   1  22 120.590 27.4183   1
   9   1  22 101.113 26.8517  -3
   9   0  22 101.113 26.8517  -2
   9   1  22 101.113 26.8517   1
  10   2  22 465.009 36.5628  -3
  10   1  22 465.009 36.5628  -2
  10   1  22 465.009 36.5628   1
  10   1  22 367.803 36.0166  -3
  10   0  22 367.803 36.0166  -2
  10   1  22 367.803 36.0166   1
  10   1  22 426.873 37.3517  -3
  10   2  22 426.873 37.3517  -2
  10   1  22 426.873 37.3517   1
  10   0  22 358.811 33.9858  -3
  10   1  22 358.811 33.9858  -2
  10   1  22 358.811 33.9858   1
   0   2  22 22.2349 17.8139  -3
   0   2  22 22.2349 17.8139   1
   1   2  22 460.873 42.3658  -3
   1   2  22 460.873 42.3658  -2
   1   2  22 460.873 42.3658   1
   1   2  22 471.612 16.0127  -3
   1   2  22 471.612 16.0127   1
   2   2  22 432.417 11.9254  -3
   2   2  22 432.417 11.9254  -2
   2   2  22 432.417 11.9254   1
   2   2  22 430.257 10.4104  -3
   2   2  22 430.257 10.4104   1
   3   2  22 81.6203 7.85033  -3
   3   2  22 81.6203 7.85033  -2
   3   2  22 81.6203 7.85033   1
   3   2  22 98.7539 6.25081  -3
   3   2  22 98.7539 6.25081   1
   4   2  22 1129.59 22.3640  -3
   4   2  22 1129.59 22.3640   1
   4   2  22 1275.93 33.9400  -3
   4   2  22 1275.93 33.9400  -2
   4   2  22 1275.93 33.9400   1
   5   2  22 1117.54 48.3821  -3
   5   2  22 1117.54 48.3821  -2
   5   2  22 1117.54 48.3821   1
   5   2  22 1077.45 32.0898  -3
   5   2  22 1077.45 32.0898   1
   6   2  22 1780.80 68.2502  -3
   6   3  22 1780.80 68.2502  -2
   6   2  22 1780.80 68.2502   1
   6   2  22 1721.34 68.4025  -3
   6   2  22 1721.34 68.4025  -2
   6   2  22 1721.34 68.4025   1
   6   2  22 1562.89 61.3364  -3
   6   1  22 1562.89 61.3364  -2
   6   2  22 1562.89 61.3364   1
   7   2  22 78.7049 15.5627  -3
   7   1  22 78.7049 15.5627  -2
   7   2  22 78.7049 15.5627   1
   7   2  22 86.9248 14.8024  -3
   7   3  22 86.9248 14.8024  -2
   7   2  22 86.9248 14.8024   1
   8   2  22 120.588 21.0852  -2
   8   2  22 120.588 21.0852   1
   8   2  22 66.9277 27.9296  -3
   8   3  22 66.9277 27.9296  -2
   8   2  22 66.9277 27.9296   1
   8   2  22 114.748 12.2474  -3
   8   1  22 114.748 12.2474  -2
   8   2  22 114.748 12.2474   1
   9   2  22 521.708 43.2099  -3
   9   1  22 521.708 43.2099  -2
   9   2  22 521.708 43.2099   1
   9   2  22 467.637 23.3334  -2
   9   2  22 467.637 23.3334   1
   9   2  22 605.578 45.4950  -3
   9   3  22 605.578 45.4950  -2
   9   2  22 605.578 45.4950   1
  10   3  22 437.146 36.9282  -3
  10   2  22 437.146 36.9282  -2
  10   2  22 437.146 36.9282   1
  10   2  22 504.716 41.8167  -3
  10   1  22 504.716 41.8167  -2
  10   2  22 504.716 41.8167   1
  10   1  22 443.985 37.0669  -3
  10   2  22 443.985 37.0669  -2
  10   2  22 443.985 37.0669   1
  10   2  22 519.173 41.6563  -3
  10   3  22 519.173 41.6563  -2
  10   2  22 519.173 41.6563   1
   0   3  22 8.59751 17.3718   1
   1   3  22 37.9982 18.0209  -3
   1   3  22 37.9982 18.0209  -2
   1   3  22 37.9982 18.0209   1
   1   3  22 18.5057 8.62272  -3
   1   3  22 18.5057 8.62272   1
   2   3  22 65.1061 6.35657  -3
   2   3  22 65.1061 6.35657   1
   2   3  22 53.0538 8.79065  -3
   2   3  22 53.0538 8.79065  -2
   2   3  22 53.0538 8.79065   1
   3   3  22 1262.83 22.5304  -3
   3   3  22 1262.83 22.5304   1
   3   3  22 1413.16 27.0024  -3
   3   3  22 1413.16 27.0024  -2
   3   3  22 1413.16 27.0024   1
   4   3  22 477.314 23.5901  -3
   4   3  22 477.314 23.5901  -2
   4   3  22 477.314 23.5901   1
   4   3  22 445.996 11.1484  -3
   4   3  22 445.996 11.1484   1
   5   3  22 53.2775 20.8084  -3
   5   3  22 53.2775 20.8084  -2
   5   3  22 53.2775 20.8084   1
   5   3  22 78.3718 5.83212  -3
   5   3  22 78.3718 5.83212   1
   6   3  22 136.556 21.2672  -3
   6   3  22 136.556 21.2672  -2
   6   3  22 136.556 21.2672   1
   6   3  22 233.527 20.8522  -3
   6   2  22 233.527 20.8522  -2
   6   3  22 233.527 20.8522   1
   6   3  22 160.589 23.5517  -3
   6   4  22 160.589 23.5517  -2
   6   3  22 160.589 23.5517   1
   7   3  22 637.058 30.7981  -3
   7   2  22 637.058 30.7981  -2
   7   3  22 637.058 30.7981   1
   7   3  22 531.870 26.6843  -3
   7   4  22 531.870 26.6843  -2
   7   3  22 531.870 26.6843   1
   7   3  22 501.330 37.5384  -2
   7   3  22 501.330 37.5384   1
   8   3  22 15.8401 10.0814  -2
   8   3  22 15.8401 10.0814   1
   8   3  22 -40.584 27.1862  -3
   8   4  22 -40.584 27.1862  -2
   8   3  22 -40.584 27.1862   1
   8   3  22 9.69886 11.1748  -3
   8   2  22 9.69886 11.1748  -2
   8   3  22 9.69886 11.1748   1
   9   3  22 489.255 43.5602  -3
   9   2  22 489.255 43.5602  -2
   9   3  22 489.255 43.5602   1
   9   3  22 466.520 40.4198  -3
   9   4  22 466.520 40.4198  -2
   9   3  22 466.520 40.4198   1
   9   3  22 478.909 35.3549  -2
   9   3  22 478.909 35.3549   1
   9   4  22 403.027 37.5462  -3
   9   3  22 403.027 37.5462  -2
   9   3  22 403.027 37.5462   1
  10   4  22 12.5164 26.4121  -3
  10   3  22 12.5164 26.4121  -2
  10   3  22 12.5164 26.4121   1
  10   2  22 103.797 27.7700  -3
  10   3  22 103.797 27.7700  -2
  10   3  22 103.797 27.7700   1
  10   3  22 22.1145 28.5686  -3
  10   2  22 22.1145 28.5686  -2
  10   3  22 22.1145 28.5686   1
  10   3  22 22.4258 27.9646  -3
  10   4  22 22.4258 27.9646  -2
  10   3  22 22.4258 27.9646   1
   0   4  22 417.024 30.2180  -3
   0   4  22 417.024 30.2180   1
   1   4  22 714.038 18.8140  -3
   1   4  22 714.038 18.8140   1
   2   4  22 2167.93 44.7749  -3
   2   4  22 2167.93 44.7749  -2
   2   4  22 2167.93 44.7749   1
   2   4  22 1853.03 33.2868  -3
   2   4  22 1853.03 33.2868   1
   3   4  22 932.854 17.3769  -3
   3   4  22 932.854 17.3769   1
   3   4  22 1028.40 21.3515  -3
   3   4  22 1028.40 21.3515  -2
   3   4  22 1028.40 21.3515   1
   4   4  22 164.478 15.0355  -3
   4   4  22 164.478 15.0355  -2
   4   4  22 164.478 15.0355   1
   4   4  22 129.504 7.42160  -3
   4   4  22 129.504 7.42160   1
   5   4  22 63.2143 21.1655  -3
   5   4  22 63.2143 21.1655  -2
   5   4  22 63.2143 21.1655   1
   5   4  22 60.1566 5.53182  -3
   5   4  22 60.1566 5.53182   1
   6   4  22 1338.63 79.7277  -3
   6   4  22 1338.63 79.7277  -2
   6   4  22 1338.63 79.7277   1
   6   4  22 1084.46 65.0453  -2
   6   4  22 1084.46 65.0453   1
   6   4  22 1138.23 61.6808  -3
   6   4  22 1138.23 61.6808   1
   6   4  22 1272.98 69.0058  -3
   6   5  22 1272.98 69.0058  -2
   6   4  22 1272.98 69.0058   1
   7   4  22 19.4237 14.5353  -3
   7   5  22 19.4237 14.5353  -2
   7   4  22 19.4237 14.5353   1
   7   4  22 45.2635 15.7652  -2
   7   4  22 45.2635 15.7652   1
   7   4  22 26.3870 15.9466  -3
   7   3  22 26.3870 15.9466  -2
   7   4  22 26.3870 15.9466   1
   8   4  22 67.4763 14.0998  -3
   8   3  22 67.4763 14.0998  -2
   8   4  22 67.4763 14.0998   1
   8   4  22 37.6017 12.8501  -2
   8   4  22 37.6017 12.8501   1
   8   4  22 88.9123 31.4646  -3
   8   5  22 88.9123 31.4646  -2
   8   4  22 88.9123 31.4646   1
   9   4  22 38.4953 31.4340  -3
   9   3  22 38.4953 31.4340  -2
   9   4  22 38.4953 31.4340   1
   9   4  22 30.6971 20.4522  -2
   9   4  22 30.6971 20.4522   1
   9   4  22 -42.247 28.1144  -3
   9   5  22 -42.247 28.1144  -2
   9   4  22 -42.247 28.1144   1
  10   4  22 9.21830 30.9346  -3
  10   3  22 9.21830 30.9346  -2
  10   4  22 9.21830 30.9346   1
  10   4  22 -17.549 20.2981  -2
  10   4  22 -17.549 20.2981   1
  10   5  22 67.8662 29.1898  -3
  10   4  22 67.8662 29.1898  -2
  10   4  22 67.8662 29.1898   1
  10   4  22 107.743 31.4249  -3
  10   5  22 107.743 31.4249  -2
  10   4  22 107.743 31.4249   1
   0   5  22 4.59125 7.92127   1
   1   5  22 1207.59 25.8770  -3
   1   5  22 1207.59 25.8770   1
   2   5  22 2421.59 58.2817  -3
   2   5  22 2421.59 58.2817  -2
   2   5  22 2421.59 58.2817   1
   2   5  22 2257.18 39.7523  -3
   2   5  22 2257.18 39.7523   1
   3   5  22 203.090 7.40785  -3
   3   5  22 203.090 7.40785   1
   3   5  22 248.144 18.0811  -3
   3   5  22 248.144 18.0811  -2
   3   5  22 248.144 18.0811   1
   4   5  22 21.3354 6.93032  -3
   4   5  22 21.3354 6.93032   1
   4   5  22 38.1490 16.1674  -3
   4   5  22 38.1490 16.1674  -2
   4   5  22 38.1490 16.1674   1
   5   5  22 506.288 16.8755  -3
   5   5  22 506.288 16.8755   1
   5   5  22 578.539 48.4593  -3
   5   5  22 578.539 48.4593  -2
   5   5  22 578.539 48.4593   1
   6   5  22 33.0036 11.7914  -3
   6   5  22 33.0036 11.7914   1
   6   5  22 31.1154 17.8381  -2
   6   5  22 31.1154 17.8381   1
   7   5  22 23.0125 19.5713  -3
   7   4  22 23.0125 19.5713  -2
   7   5  22 23.0125 19.5713   1
   7   5  22 65.8825 15.7709  -3
   7   6  22 65.8825 15.7709  -2
   7   5  22 65.8825 15.7709   1
   7   5  22 -6.3615 16.3439  -2
   7   5  22 -6.3615 16.3439   1
   8   5  22 612.553 28.7745  -2
   8   5  22 612.553 28.7745   1
   8   5  22 679.785 50.9165  -3
   8   6  22 679.785 50.9165  -2
   8   5  22 679.785 50.9165   1
   8   5  22 766.074 43.4780  -3
   8   4  22 766.074 43.4780  -2
   8   5  22 766.074 43.4780   1
   9   5  22 74.1502 15.9408  -2
   9   5  22 74.1502 15.9408   1
   9   5  22 97.4378 32.2207  -3
   9   6  22 97.4378 32.2207  -2
   9   5  22 97.4378 32.2207   1
   9   5  22 65.4154 32.6738  -3
   9   4  22 65.4154 32.6738  -2
   9   5  22 65.4154 32.6738   1
  10   5  22 361.984 31.5174  -2
  10   5  22 361.984 31.5174   1
  10   5  22 432.935 41.7672  -3
  10   6  22 432.935 41.7672  -2
  10   5  22 432.935 41.7672   1
  10   6  22 433.727 39.3317  -3
  10   5  22 433.727 39.3317  -2
  10   5  22 433.727 39.3317   1
  10   5  22 411.569 42.2875  -3
  10   4  22 411.569 42.2875  -2
  10   5  22 411.569 42.2875   1
   0   6  22 815.806 29.2493  -3
   0   6  22 815.806 29.2493   1
   1   6  22 240.490 9.66576  -3
   1   6  22 240.490 9.66576   1
   2   6  22 158.807 8.65529  -3
   2   6  22 158.807 8.65529   1
   2   6  22 191.913 16.4974  -3
   2   6  22 191.913 16.4974  -2
   2   6  22 191.913 16.4974   1
   3   6  22 14.0383 5.99485  -3
   3   6  22 14.0383 5.99485   1
   3   6  22 4.49507 20.3173  -3
   3   6  22 4.49507 20.3173  -2
   3   6  22 4.49507 20.3173   1
   4   6  22 739.176 39.1551  -3
   4   6  22 739.176 39.1551  -2
   4   6  22 739.176 39.1551   1
   4   6  22 598.850 16.6348  -3
   4   6  22 598.850 16.6348   1
   4   6  22 633.248 40.9484  -2
   4   6  22 633.248 40.9484   1
   5   6  22 209.765 11.2065  -3
   5   6  22 209.765 11.2065   1
   5   6  22 208.857 37.9154  -3
   5   6  22 208.857 37.9154  -2
   5   6  22 208.857 37.9154   1
   5   6  22 250.128 32.2015  -2
   5   6  22 250.128 32.2015   1
   6   6  22 1290.81 41.2685  -3
   6   6  22 1290.81 41.2685   1
   6   6  22 1167.91 49.7691  -2
   6   6  22 1167.91 49.7691   1
   7   6  22 85.7709 18.2083  -2
   7   6  22 85.7709 18.2083   1
   7   6  22 77.7893 10.0902  -3
   7   6  22 77.7893 10.0902   1
   8   6  22 56.4926 27.1319  -3
   8   6  22 56.4926 27.1319   1
   8   6  22 47.1426 13.6949  -2
   8   6  22 47.1426 13.6949   1
   8   6  22 48.0673 18.4891  -3
   8   5  22 48.0673 18.4891  -2
   8   6  22 48.0673 18.4891   1
   9   6  22 9.92283 15.9885  -2
   9   6  22 9.92283 15.9885   1
   9   6  22 0.17824 31.7449  -3
   9   7  22 0.17824 31.7449  -2
   9   6  22 0.17824 31.7449   1
  10   6  22 249.888 20.1268  -2
  10   6  22 249.888 20.1268   1
  10   6  22 285.632 37.8918  -3
  10   7  22 285.632 37.8918  -2
  10   6  22 285.632 37.8918   1
   0   7  22 -0.4690 7.27237   1
   1   7  22 3088.24 46.3132  -3
   1   7  22 3088.24 46.3132   1
   2   7  22 622.232 12.0667  -3
   2   7  22 622.232 12.0667   1
   2   7  22 718.185 30.2541  -3
   2   7  22 718.185 30.2541  -2
   2   7  22 718.185 30.2541   1
   2   7  22 594.852 48.3703  -2
   2   7  22 594.852 48.3703   1
   3   7  22 290.124 9.51646  -3
   3   7  22 290.124 9.51646   1
   3   7  22 272.647 29.5336  -3
   3   7  22 272.647 29.5336  -2
   3   7  22 272.647 29.5336   1
   4   7  22 481.397 27.1180  -2
   4   7  22 481.397 27.1180   1
   4   7  22 473.850 13.6092  -3
   4   7  22 473.850 13.6092   1
   4   7  22 431.751 46.3405  -3
   4   7  22 431.751 46.3405  -2
   4   7  22 431.751 46.3405   1
   5   7  22 213.348 10.4992  -3
   5   7  22 213.348 10.4992   1
   5   7  22 174.976 31.7498  -2
   5   7  22 174.976 31.7498   1
   6   7  22 118.783 20.2355  -2
   6   7  22 118.783 20.2355   1
   6   7  22 132.457 11.7610  -3
   6   7  22 132.457 11.7610   1
   7   7  22 13.0547 17.6243  -2
   7   7  22 13.0547 17.6243   1
   7   7  22 4.15458 9.91191  -3
   7   7  22 4.15458 9.91191   1
   8   7  22 1051.65 42.3024  -3
   8   7  22 1051.65 42.3024   1
   8   7  22 805.379 35.3491  -2
   8   7  22 805.379 35.3491   1
   9   7  22 52.8734 17.5139  -2
   9   7  22 52.8734 17.5139   1
   9   6  22 39.6880 13.7234  -2
   9   7  22 39.6880 13.7234   1
   9   7  22 51.8941 26.9202  -3
   9   7  22 51.8941 26.9202   1
  10   7  22 -7.4140 16.6798  -2
  10   7  22 -7.4140 16.6798   1
  10   7  22 2.27325 36.6800  -3
  10   8  22 2.27325 36.6800  -2
  10   7  22 2.27325 36.6800   1
   0   8  22 198.092 11.0321  -3
   0   8  22 198.092 11.0321   1
   1   8  22 78.2007 7.51521  -3
   1   8  22 78.2007 7.51521   1
   2   8  22 49.6714 6.82279  -3
   2   8  22 49.6714 6.82279   1
   3   8  22 265.865 9.63671  -3
   3   8  22 265.865 9.63671   1
   3   8  22 276.038 42.7745  -3
   3   8  22 276.038 42.7745  -2
   3   8  22 276.038 42.7745   1
   4   8  22 1056.20 27.7589  -3
   4   8  22 1056.20 27.7589   1
   4   8  22 1032.91 44.1351  -2
   4   8  22 1032.91 44.1351   1
   5   8  22 110.054 9.16674  -3
   5   8  22 110.054 9.16674   1
   5   8  22 139.843 31.4279  -2
   5   8  22 139.843 31.4279   1
   6   8  22 503.998 29.9175  -2
   6   8  22 503.998 29.9175   1
   6   8  22 520.091 18.9103  -3
   6   8  22 520.091 18.9103   1
   7   8  22 414.091 20.4591  -3
   7   8  22 414.091 20.4591   1
   7   8  22 395.968 37.6231  -2
   7   8  22 395.968 37.6231   1
   8   8  22 7.68878 11.8415  -3
   8   8  22 7.68878 11.8415   1
   8   8  22 24.7372 25.7892  -2
   8   8  22 24.7372 25.7892   1
   9   8  22 1152.53 70.1146  -2
   9   8  22 1152.53 70.1146   1
  10   8  22 18.8738 17.4637  -2
  10   8  22 18.8738 17.4637   1
   0   9  22 -1.9300 7.00517   1
   1   9  22 889.065 15.3758  -3
   1   9  22 889.065 15.3758   1
   2   9  22 1999.59 28.1047  -3
   2   9  22 1999.59 28.1047   1
   3   9  22 280.466 10.6097  -3
   3   9  22 280.466 10.6097   1
   4   9  22 135.955 10.8672  -3
   4   9  22 135.955 10.8672   1
   4   9  22 64.7514 30.5563  -2
   4   9  22 64.7514 30.5563   1
   5   9  22 34.5357 27.0538  -2
   5   9  22 34.5357 27.0538   1
   5   9  22 57.4600 9.24488  -3
   5   9  22 57.4600 9.24488   1
   6   9  22 83.9313 11.5567  -3
   6   9  22 83.9313 11.5567   1
   6   9  22 121.084 31.1590  -2
   6   9  22 121.084 31.1590   1
   7   9  22 523.871 43.2236  -2
   7   9  22 523.871 43.2236   1
   7   9  22 557.445 24.2430  -3
   7   9  22 557.445 24.2430   1
   8   9  22 20.0112 27.2346  -3
   8   9  22 20.0112 27.2346   1
   8   9  22 35.8671 27.2877  -2
   8   9  22 35.8671 27.2877   1
   9   9  22 109.582 29.3713  -2
   9   9  22 109.582 29.3713   1
   9   9  22 135.787 29.8653  -3
   9   9  22 135.787 29.8653   1
   0  10  22 462.378 15.2944  -3
   0  10  22 462.378 15.2944   1
   1  10  22 522.106 11.4205  -3
   1  10  22 522.106 11.4205   1
   2  10  22 310.995 10.2520  -3
   2  10  22 310.995 10.2520   1
   3  10  22 193.926 11.0504  -3
   3  10  22 193.926 11.0504   1
   4  10  22 1355.22 34.2221  -3
   4  10  22 1355.22 34.2221   1
   5  10  22 83.5735 10.1062  -3
   5  10  22 83.5735 10.1062   1
   6  10  22 109.224 29.4276  -2
   6  10  22 109.224 29.4276   1
   6  10  22 185.521 16.3842  -3
   6  10  22 185.521 16.3842   1
   7  10  22 504.733 43.8413  -2
   7  10  22 504.733 43.8413   1
   7  10  22 504.629 23.4387  -3
   7  10  22 504.629 23.4387   1
   8  10  22 635.640 34.9515  -3
   8  10  22 635.640 34.9515   1
   8  10  22 614.364 47.7090  -2
   8  10  22 614.364 47.7090   1
   9  10  22 330.349 26.3679  -3
   9  10  22 330.349 26.3679   1
   9  10  22 300.135 36.9440  -2
   9  10  22 300.135 36.9440   1
   0  11  22 -11.484 6.32221   1
   1  11  22 2082.63 34.8668  -3
   1  11  22 2082.63 34.8668   1
   2  11  22 1884.57 37.0735  -3
   2  11  22 1884.57 37.0735   1
   3  11  22 1094.88 25.4014  -3
   3  11  22 1094.88 25.4014   1
   4  11  22 163.311 14.6093  -3
   4  11  22 163.311 14.6093   1
   5  11  22 490.213 19.5697  -3
   5  11  22 490.213 19.5697   1
   6  11  22 23.9802 14.2420  -3
   6  11  22 23.9802 14.2420   1
   7  11  22 24.7095 14.3021  -3
   7  11  22 24.7095 14.3021   1
   8  11  22 825.945 57.5691  -2
   8  11  22 825.945 57.5691   1
   8  11  22 951.789 44.8539  -3
   8  11  22 951.789 44.8539   1
   9  11  22 104.900 33.0242  -2
   9  11  22 104.900 33.0242   1
   9  11  22 131.156 32.4286  -3
   9  11  22 131.156 32.4286   1
   0  12  22 997.317 26.7900  -3
   0  12  22 997.317 26.7900   1
   1  12  22 171.465 12.0991  -3
   1  12  22 171.465 12.0991   1
   2  12  22 1115.03 26.6613  -3
   2  12  22 1115.03 26.6613   1
   3  12  22 927.614 27.0036  -3
   3  12  22 927.614 27.0036   1
   4  12  22 329.634 17.4180  -3
   4  12  22 329.634 17.4180   1
   5  12  22 35.1322 18.5993  -3
   5  12  22 35.1322 18.5993   1
   6  12  22 116.388 16.1121  -3
   6  12  22 116.388 16.1121   1
   7  12  22 35.5751 17.2499  -3
   7  12  22 35.5751 17.2499   1
   8  12  22 38.4712 30.6915  -3
   8  12  22 38.4712 30.6915   1
   9  12  22 257.547 37.2610  -2
   9  12  22 257.547 37.2610   1
   9  12  22 322.765 39.5533  -3
   9  12  22 322.765 39.5533   1
  10  12  22 10.8024 9.20698   1
   0  13  22 -7.4024 6.85176   1
   1  13  22 301.398 14.1519  -3
   1  13  22 301.398 14.1519   1
   2  13  22 85.1001 13.3083  -3
   2  13  22 85.1001 13.3083   1
   3  13  22 141.686 15.3328  -3
   3  13  22 141.686 15.3328   1
   4  13  22 106.662 14.4698  -3
   4  13  22 106.662 14.4698   1
   5  13  22 120.960 20.5358  -3
   5  13  22 120.960 20.5358   1
   6  13  22 22.0084 17.8131  -3
   6  13  22 22.0084 17.8131   1
   7  13  22 36.4940 33.8533  -3
   7  13  22 36.4940 33.8533   1
   8  13  22 654.573 19.9270   1
   9  13  22 47.8988 9.35397   1
  10  13  22 822.348 44.6081   1
   0  14  22 854.174 62.7537  -3
   0  14  22 854.174 62.7537   1
   1  14  22 496.434 18.4922  -3
   1  14  22 496.434 18.4922   1
   2  14  22 41.1122 13.0006  -3
   2  14  22 41.1122 13.0006   1
   3  14  22 38.7605 13.1121  -3
   3  14  22 38.7605 13.1121   1
   4  14  22 566.985 32.6474  -3
   4  14  22 566.985 32.6474   1
   5  14  22 254.580 23.8620  -3
   5  14  22 254.580 23.8620   1
   6  14  22 86.6622 35.0049  -3
   6  14  22 86.6622 35.0049   1
   7  14  22 97.5498 34.7702  -3
   7  14  22 97.5498 34.7702   1
   8  14  22 140.726 7.76568   1
   9  14  22 28.2591 18.3810   1
   0  15  22 10.5315 6.41824   1
   1  15  22 -0.8728 24.9067  -3
   1  15  22 -0.8728 24.9067   1
   2  15  22 -4.1764 17.4382  -3
   2  15  22 -4.1764 17.4382   1
   3  15  22 -25.030 37.5571  -3
   3  15  22 -25.030 37.5571   1
   4  15  22 103.595 38.9599  -3
   4  15  22 103.595 38.9599   1
   5  15  22 -13.651 35.5978  -3
   5  15  22 -13.651 35.5978   1
   6  15  22 -9.9551 36.9133  -3
   6  15  22 -9.9551 36.9133   1
   7  15  22 199.878 8.22844   1
   8  15  22 81.9715 6.65386   1
   0  16  22 102.478 8.92896   1
   1  16  22 408.352 50.4873  -3
   1  16  22 408.352 50.4873   1
   2  16  22 37.7299 4.67051   1
   3  16  22 20.5803 41.4887  -3
   3  16  22 20.5803 41.4887   1
   4  16  22 9.60204 38.5471  -3
   4  16  22 9.60204 38.5471   1
   5  16  22 299.737 9.24077   1
   6  16  22 58.5925 6.12797   1
   7  16  22 5.44337 4.54154   1
   8  16  22 18.3683 7.46235   1
   0  17  22 -4.9247 6.37273   1
   1  17  22 419.636 11.6091   1
   2  17  22 12.5169 4.58023   1
   3  17  22 11.9250 4.73075   1
   4  17  22 59.1241 5.38550   1
   5  17  22 3.63430 4.20639   1
   6  17  22 355.927 11.5111   1
   7  17  22 653.880 16.5283   1
   8  17  22 52.8201 8.70055   1
   0  18  22 28.3379 7.36215   1
   1  18  22 21.0774 5.02834   1
   2  18  22 21.1140 5.30326   1
   3  18  22 25.8896 5.29480   1
   4  18  22 356.874 10.2621   1
   5  18  22 262.769 9.13886   1
   6  18  22 366.211 11.8215   1
   7  18  22 159.154 9.55085   1
   8  18  22 306.179 17.9707   1
   0  19  22 -10.517 7.36187   1
   1  19  22 57.2265 6.01295   1
   2  19  22 843.407 19.9986   1
   3  19  22 93.1440 7.23278   1
   4  19  22 26.8847 5.13156   1
   5  19  22 157.180 7.46523   1
   6  19  22 43.3372 6.63226   1
   7  19  22 478.295 21.0302   1
   8  19  22 64.9453 26.9179   1
   0  20  22 148.136 12.8771   1
   1  20  22 3.21699 5.04827   1
   2  20  22 11.2947 5.64263   1
   3  20  22 26.6496 6.16725   1
   4  20  22 42.3801 6.00040   1
   5  20  22 76.0054 7.32699   1
   6  20  22 0.02965 8.87030   1
   7  20  22 96.8847 17.8366   1
   0  21  22 -6.7275 7.96090   1
   1  21  22 78.9642 6.92807   1
   2  21  22 154.459 9.05381   1
   3  21  22 101.277 7.83623   1
   4  21  22 40.5378 7.11481   1
   5  21  22 3.62768 5.88137   1
   6  21  22 862.542 35.1078   1
   7  21  22 80.7821 17.3828   1
   0  22  22 137.322 12.8836   1
   1  22  22 325.438 11.3248   1
   2  22  22 8.36002 6.99999   1
   3  22  22 11.8372 8.65167   1
   4  22  22 2.51561 7.03711   1
   5  22  22 8.59979 7.26554   1
   6  22  22 512.069 46.6546   1
   7  22  22 37.4120 22.0183   1
   0  23  22 0.67801 9.18708   1
   1  23  22 45.0670 7.11384   1
   2  23  22 273.270 14.9075   1
   3  23  22 69.4285 12.5744   1
   4  23  22 175.724 21.9712   1
   5  23  22 20.1263 7.98551   1
   6  23  22 2.16139 22.8893   1
   0  24  22 141.729 14.2953   1
   1  24  22 47.4940 8.59065   1
   2  24  22 51.9841 17.3915   1
   3  24  22 119.727 16.2241   1
   4  24  22 301.922 26.1745   1
   5  24  22 197.159 19.2090   1
   0  25  22 -7.6729 9.38224   1
   1  25  22 32.8016 18.8874   1
   3  25  22 252.959 27.6896   1
   4  25  22 154.308 29.6886   1
   0  26  22 22.8120 21.0185   1
   1  26  22 107.566 24.8537   1
   1   0  23 -6.2906 17.0174   1
   2   0  23 1.14058 5.24729   1
   3   0  23 11.2122 5.59741   1
   4   0  23 4.56069 7.80653   1
   5   0  23 9.94920 7.60862   1
   6   0  23 -6.8357 25.6748   1
   9   0  23 -0.8508 11.9882   1
   1   1  23 215.400 16.6252  -3
   1   1  23 215.400 16.6252   1
   2   1  23 548.497 14.5732  -3
   2   1  23 548.497 14.5732  -2
   2   1  23 548.497 14.5732   1
   2   1  23 524.610 11.7812  -3
   2   1  23 524.610 11.7812   1
   3   1  23 40.0527 5.83942  -3
   3   1  23 40.0527 5.83942   1
   3   1  23 46.5861 6.48597  -3
   3   1  23 46.5861 6.48597  -2
   3   1  23 46.5861 6.48597   1
   4   1  23 1147.03 25.8887  -3
   4   1  23 1147.03 25.8887   1
   4   1  23 1307.65 44.1036  -3
   4   1  23 1307.65 44.1036  -2
   4   1  23 1307.65 44.1036   1
   5   1  23 40.6943 5.97702  -3
   5   1  23 40.6943 5.97702   1
   5   1  23 62.5456 20.8289  -3
   5   1  23 62.5456 20.8289  -2
   5   1  23 62.5456 20.8289   1
   5   1  23 126.440 18.9990  -3
   5   2  23 126.440 18.9990  -2
   5   1  23 126.440 18.9990   1
   6   1  23 180.024 19.0919  -3
   6   2  23 180.024 19.0919  -2
   6   1  23 180.024 19.0919   1
   6   1  23 135.215 20.9680  -3
   6   1  23 135.215 20.9680  -2
   6   1  23 135.215 20.9680   1
   6   1  23 67.5423 17.3230  -3
   6   1  23 67.5423 17.3230   1
   7   1  23 93.9885 14.7842  -3
   7   1  23 93.9885 14.7842   1
   7   1  23 81.6890 14.9222  -3
   7   2  23 81.6890 14.9222  -2
   7   1  23 81.6890 14.9222   1
   8   1  23 301.908 17.5364  -3
   8   1  23 301.908 17.5364   1
   8   1  23 286.342 18.7382  -2
   8   1  23 286.342 18.7382   1
   8   1  23 361.865 18.8478  -3
   8   2  23 361.865 18.8478  -2
   8   1  23 361.865 18.8478   1
   9   1  23 5.40584 11.5482  -2
   9   1  23 5.40584 11.5482   1
   9   1  23 -27.556 25.8597  -3
   9   1  23 -27.556 25.8597   1
   9   1  23 16.9107 25.9462  -3
   9   2  23 16.9107 25.9462  -2
   9   1  23 16.9107 25.9462   1
  10   1  23 455.276 39.5147  -3
  10   1  23 455.276 39.5147   1
  10   1  23 370.816 34.5685  -2
  10   1  23 370.816 34.5685   1
  10   1  23 442.176 38.5364  -3
  10   2  23 442.176 38.5364  -2
  10   1  23 442.176 38.5364   1
  10   2  23 378.266 33.8536  -3
  10   1  23 378.266 33.8536  -2
  10   1  23 378.266 33.8536   1
   0   2  23 89.5547 19.5351  -3
   0   2  23 89.5547 19.5351   1
   1   2  23 88.1343 11.2248  -3
   1   2  23 88.1343 11.2248   1
   2   2  23 61.2475 7.99911  -3
   2   2  23 61.2475 7.99911  -2
   2   2  23 61.2475 7.99911   1
   2   2  23 49.1302 6.41140  -3
   2   2  23 49.1302 6.41140   1
   3   2  23 1034.26 22.6868  -3
   3   2  23 1034.26 22.6868  -2
   3   2  23 1034.26 22.6868   1
   3   2  23 962.739 18.0321  -3
   3   2  23 962.739 18.0321   1
   4   2  23 115.790 7.79225  -3
   4   2  23 115.790 7.79225   1
   4   2  23 131.480 15.9533  -3
   4   2  23 131.480 15.9533  -2
   4   2  23 131.480 15.9533   1
   5   2  23 679.416 25.3399  -3
   5   2  23 679.416 25.3399   1
   5   2  23 690.294 33.8287  -3
   5   1  23 690.294 33.8287  -2
   5   2  23 690.294 33.8287   1
   5   2  23 776.807 37.5498  -3
   5   2  23 776.807 37.5498  -2
   5   2  23 776.807 37.5498   1
   5   2  23 816.688 49.3488  -3
   5   3  23 816.688 49.3488  -2
   5   2  23 816.688 49.3488   1
   6   2  23 695.648 48.9317  -3
   6   2  23 695.648 48.9317  -2
   6   2  23 695.648 48.9317   1
   6   2  23 791.655 35.5854  -3
   6   3  23 791.655 35.5854  -2
   6   2  23 791.655 35.5854   1
   6   2  23 733.392 34.5138  -3
   6   1  23 733.392 34.5138  -2
   6   2  23 733.392 34.5138   1
   7   2  23 13.0312 15.2488  -3
   7   1  23 13.0312 15.2488  -2
   7   2  23 13.0312 15.2488   1
   7   2  23 -2.7941 14.2404  -3
   7   3  23 -2.7941 14.2404  -2
   7   2  23 -2.7941 14.2404   1
   8   2  23 376.198 30.8691  -2
   8   2  23 376.198 30.8691   1
   8   2  23 414.727 21.7098  -3
   8   1  23 414.727 21.7098  -2
   8   2  23 414.727 21.7098   1
   8   2  23 433.652 20.7099  -3
   8   3  23 433.652 20.7099  -2
   8   2  23 433.652 20.7099   1
   9   2  23 51.5140 27.7226  -3
   9   3  23 51.5140 27.7226  -2
   9   2  23 51.5140 27.7226   1
   9   2  23 -33.805 27.7261  -3
   9   1  23 -33.805 27.7261  -2
   9   2  23 -33.805 27.7261   1
   9   2  23 20.7274 16.0174  -2
   9   2  23 20.7274 16.0174   1
   9   3  23 40.7435 25.7002  -3
   9   2  23 40.7435 25.7002  -2
   9   2  23 40.7435 25.7002   1
  10   3  23 208.347 30.0417  -3
  10   2  23 208.347 30.0417  -2
  10   2  23 208.347 30.0417   1
  10   1  23 115.930 28.3620  -3
  10   2  23 115.930 28.3620  -2
  10   2  23 115.930 28.3620   1
  10   2  23 145.762 30.0345  -3
  10   1  23 145.762 30.0345  -2
  10   2  23 145.762 30.0345   1
  10   2  23 148.773 29.3702  -3
  10   3  23 148.773 29.3702  -2
  10   2  23 148.773 29.3702   1
   0   3  23 0.79658 17.7426   1
   1   3  23 145.341 35.1692  -3
   1   3  23 145.341 35.1692  -2
   1   3  23 145.341 35.1692   1
   1   3  23 133.912 10.6791  -3
   1   3  23 133.912 10.6791   1
   2   3  23 151.289 7.42218  -3
   2   3  23 151.289 7.42218   1
   2   3  23 148.067 11.5717  -3
   2   3  23 148.067 11.5717  -2
   2   3  23 148.067 11.5717   1
   3   3  23 262.335 8.32917  -3
   3   3  23 262.335 8.32917   1
   3   3  23 297.451 14.5310  -3
   3   3  23 297.451 14.5310  -2
   3   3  23 297.451 14.5310   1
   4   3  23 162.484 16.7975  -3
   4   3  23 162.484 16.7975  -2
   4   3  23 162.484 16.7975   1
   4   3  23 118.049 7.46248  -3
   4   3  23 118.049 7.46248   1
   5   3  23 295.875 25.6281  -3
   5   3  23 295.875 25.6281  -2
   5   3  23 295.875 25.6281   1
   5   3  23 307.694 12.1462  -3
   5   3  23 307.694 12.1462   1
   6   3  23 1123.98 47.1910  -3
   6   2  23 1123.98 47.1910  -2
   6   3  23 1123.98 47.1910   1
   6   3  23 1127.48 47.0010  -3
   6   4  23 1127.48 47.0010  -2
   6   3  23 1127.48 47.0010   1
   6   3  23 1148.01 70.5965  -3
   6   3  23 1148.01 70.5965  -2
   6   3  23 1148.01 70.5965   1
   7   3  23 34.6008 15.0105  -3
   7   4  23 34.6008 15.0105  -2
   7   3  23 34.6008 15.0105   1
   7   3  23 12.2017 15.5571  -3
   7   2  23 12.2017 15.5571  -2
   7   3  23 12.2017 15.5571   1
   8   3  23 196.753 32.2032  -3
   8   4  23 196.753 32.2032  -2
   8   3  23 196.753 32.2032   1
   8   3  23 203.189 16.4814  -3
   8   2  23 203.189 16.4814  -2
   8   3  23 203.189 16.4814   1
   8   3  23 161.827 15.7338  -2
   8   3  23 161.827 15.7338   1
   9   3  23 84.2505 18.0412  -2
   9   3  23 84.2505 18.0412   1
   9   3  23 77.0301 29.2776  -3
   9   4  23 77.0301 29.2776  -2
   9   3  23 77.0301 29.2776   1
   9   3  23 51.6899 31.4860  -3
   9   2  23 51.6899 31.4860  -2
   9   3  23 51.6899 31.4860   1
  10   3  23 473.878 41.4398  -3
  10   4  23 473.878 41.4398  -2
  10   3  23 473.878 41.4398   1
  10   2  23 486.230 40.5959  -3
  10   3  23 486.230 40.5959  -2
  10   3  23 486.230 40.5959   1
  10   3  23 454.103 41.5996  -3
  10   2  23 454.103 41.5996  -2
  10   3  23 454.103 41.5996   1
  10   4  23 409.078 37.7131  -3
  10   3  23 409.078 37.7131  -2
  10   3  23 409.078 37.7131   1
   0   4  23 764.632 45.4916  -3
   0   4  23 764.632 45.4916   1
   1   4  23 56.9990 10.1986  -3
   1   4  23 56.9990 10.1986   1
   2   4  23 3093.20 61.7249  -3
   2   4  23 3093.20 61.7249  -2
   2   4  23 3093.20 61.7249   1
   2   4  23 2763.57 50.7451  -3
   2   4  23 2763.57 50.7451   1
   3   4  23 996.450 20.6238  -3
   3   4  23 996.450 20.6238   1
   3   4  23 1028.67 26.8265  -3
   3   4  23 1028.67 26.8265  -2
   3   4  23 1028.67 26.8265   1
   4   4  23 179.015 18.0741  -3
   4   4  23 179.015 18.0741  -2
   4   4  23 179.015 18.0741   1
   4   4  23 191.823 8.93068  -3
   4   4  23 191.823 8.93068   1
   5   4  23 274.696 25.4798  -3
   5   4  23 274.696 25.4798  -2
   5   4  23 274.696 25.4798   1
   5   4  23 225.937 9.86679  -3
   5   4  23 225.937 9.86679   1
   5   4  23 253.772 29.5100  -3
   5   3  23 253.772 29.5100  -2
   5   4  23 253.772 29.5100   1
   6   4  23 59.7335 31.3309  -3
   6   4  23 59.7335 31.3309  -2
   6   4  23 59.7335 31.3309   1
   6   4  23 152.936 19.9785  -3
   6   3  23 152.936 19.9785  -2
   6   4  23 152.936 19.9785   1
   6   4  23 119.508 19.4520  -3
   6   5  23 119.508 19.4520  -2
   6   4  23 119.508 19.4520   1
   7   4  23 65.2109 15.5656  -3
   7   5  23 65.2109 15.5656  -2
   7   4  23 65.2109 15.5656   1
   7   4  23 24.0464 15.9955  -3
   7   3  23 24.0464 15.9955  -2
   7   4  23 24.0464 15.9955   1
   7   4  23 18.1639 15.5854  -2
   7   4  23 18.1639 15.5854   1
   8   4  23 150.607 15.1523  -2
   8   4  23 150.607 15.1523   1
   8   4  23 227.539 18.1972  -3
   8   3  23 227.539 18.1972  -2
   8   4  23 227.539 18.1972   1
   8   4  23 241.954 34.7863  -3
   8   5  23 241.954 34.7863  -2
   8   4  23 241.954 34.7863   1
   9   4  23 115.712 31.1387  -3
   9   5  23 115.712 31.1387  -2
   9   4  23 115.712 31.1387   1
   9   5  23 118.059 30.7350  -3
   9   4  23 118.059 30.7350  -2
   9   4  23 118.059 30.7350   1
   9   4  23 60.3776 16.9573  -2
   9   4  23 60.3776 16.9573   1
   9   4  23 89.7222 32.2566  -3
   9   3  23 89.7222 32.2566  -2
   9   4  23 89.7222 32.2566   1
  10   5  23 63.5230 29.5636  -3
  10   4  23 63.5230 29.5636  -2
  10   4  23 63.5230 29.5636   1
  10   4  23 -32.731 30.1773  -3
  10   3  23 -32.731 30.1773  -2
  10   4  23 -32.731 30.1773   1
  10   4  23 -17.714 20.4216  -2
  10   4  23 -17.714 20.4216   1
  10   4  23 12.7182 29.6538  -3
  10   5  23 12.7182 29.6538  -2
  10   4  23 12.7182 29.6538   1
   0   5  23 -1.2744 14.0278   1
   1   5  23 -1.5303 7.93613  -3
   1   5  23 -1.5303 7.93613   1
   2   5  23 84.3620 15.1780  -3
   2   5  23 84.3620 15.1780  -2
   2   5  23 84.3620 15.1780   1
   2   5  23 53.8488 7.11859  -3
   2   5  23 53.8488 7.11859   1
   3   5  23 331.244 10.7312  -3
   3   5  23 331.244 10.7312   1
   3   5  23 375.583 17.9027  -3
   3   5  23 375.583 17.9027  -2
   3   5  23 375.583 17.9027   1
   4   5  23 94.9116 7.45877  -3
   4   5  23 94.9116 7.45877   1
   4   5  23 92.0252 24.9184  -3
   4   5  23 92.0252 24.9184  -2
   4   5  23 92.0252 24.9184   1
   5   5  23 974.744 24.1353  -3
   5   5  23 974.744 24.1353   1
   5   5  23 892.924 61.9748  -3
   5   5  23 892.924 61.9748  -2
   5   5  23 892.924 61.9748   1
   6   5  23 80.1550 24.7730  -3
   6   4  23 80.1550 24.7730  -2
   6   5  23 80.1550 24.7730   1
   7   5  23 51.6644 17.4008  -2
   7   5  23 51.6644 17.4008   1
   7   5  23 11.5658 15.9578  -3
   7   6  23 11.5658 15.9578  -2
   7   5  23 11.5658 15.9578   1
   7   5  23 -7.5974 20.0026  -3
   7   4  23 -7.5974 20.0026  -2
   7   5  23 -7.5974 20.0026   1
   8   5  23 111.673 15.0292  -2
   8   5  23 111.673 15.0292   1
   8   5  23 128.731 19.2933  -3
   8   4  23 128.731 19.2933  -2
   8   5  23 128.731 19.2933   1
   8   5  23 182.137 34.7390  -3
   8   6  23 182.137 34.7390  -2
   8   5  23 182.137 34.7390   1
   9   5  23 102.387 14.1903  -2
   9   5  23 102.387 14.1903   1
   9   5  23 136.973 35.2935  -3
   9   4  23 136.973 35.2935  -2
   9   5  23 136.973 35.2935   1
   9   5  23 112.128 32.6308  -3
   9   6  23 112.128 32.6308  -2
   9   5  23 112.128 32.6308   1
  10   5  23 116.624 32.1740  -3
  10   6  23 116.624 32.1740  -2
  10   5  23 116.624 32.1740   1
  10   5  23 124.275 24.1684  -2
  10   5  23 124.275 24.1684   1
  10   5  23 96.2861 34.2479  -3
  10   4  23 96.2861 34.2479  -2
  10   5  23 96.2861 34.2479   1
  10   6  23 176.189 31.9738  -3
  10   5  23 176.189 31.9738  -2
  10   5  23 176.189 31.9738   1
   0   6  23 132.251 14.0770  -3
   0   6  23 132.251 14.0770   1
   1   6  23 1100.00 22.8446  -3
   1   6  23 1100.00 22.8446   1
   2   6  23 426.751 11.4726  -3
   2   6  23 426.751 11.4726   1
   2   6  23 535.090 31.9997  -3
   2   6  23 535.090 31.9997  -2
   2   6  23 535.090 31.9997   1
   3   6  23 2193.72 71.1765  -3
   3   6  23 2193.72 71.1765  -2
   3   6  23 2193.72 71.1765   1
   3   6  23 1987.53 43.5042  -3
   3   6  23 1987.53 43.5042   1
   4   6  23 257.705 27.9568  -3
   4   6  23 257.705 27.9568  -2
   4   6  23 257.705 27.9568   1
   4   6  23 182.156 9.13676  -3
   4   6  23 182.156 9.13676   1
   5   6  23 170.252 30.6550  -2
   5   6  23 170.252 30.6550   1
   5   6  23 106.377 36.8960  -3
   5   6  23 106.377 36.8960  -2
   5   6  23 106.377 36.8960   1
   5   6  23 144.697 10.4683  -3
   5   6  23 144.697 10.4683   1
   6   6  23 669.506 33.7994  -2
   6   6  23 669.506 33.7994   1
   6   6  23 649.587 24.1167  -3
   6   6  23 649.587 24.1167   1
   7   6  23 150.754 20.2518  -2
   7   6  23 150.754 20.2518   1
   7   6  23 132.641 12.6038  -3
   7   6  23 132.641 12.6038   1
   8   6  23 788.596 57.2549  -3
   8   7  23 788.596 57.2549  -2
   8   6  23 788.596 57.2549   1
   8   6  23 678.508 31.9680  -2
   8   6  23 678.508 31.9680   1
   8   6  23 843.199 48.2068  -3
   8   5  23 843.199 48.2068  -2
   8   6  23 843.199 48.2068   1
   9   6  23 -12.969 32.2015  -3
   9   7  23 -12.969 32.2015  -2
   9   6  23 -12.969 32.2015   1
   9   6  23 36.9235 16.8053  -2
   9   6  23 36.9235 16.8053   1
  10   6  23 475.979 26.4425  -2
  10   6  23 475.979 26.4425   1
   0   7  23 -7.5407 7.09097   1
   1   7  23 44.4594 6.95623  -3
   1   7  23 44.4594 6.95623   1
   2   7  23 1836.45 30.0669  -3
   2   7  23 1836.45 30.0669   1
   2   7  23 2011.37 79.3676  -3
   2   7  23 2011.37 79.3676  -2
   2   7  23 2011.37 79.3676   1
   3   7  23 17.9056 7.07185  -3
   3   7  23 17.9056 7.07185   1
   3   7  23 -54.542 37.3258  -3
   3   7  23 -54.542 37.3258  -2
   3   7  23 -54.542 37.3258   1
   4   7  23 57.0445 7.53910  -3
   4   7  23 57.0445 7.53910   1
   4   7  23 66.9965 38.3138  -3
   4   7  23 66.9965 38.3138  -2
   4   7  23 66.9965 38.3138   1
   4   7  23 7.20784 22.5215  -2
   4   7  23 7.20784 22.5215   1
   5   7  23 521.758 16.4947  -3
   5   7  23 521.758 16.4947   1
   5   7  23 520.336 43.9815  -2
   5   7  23 520.336 43.9815   1
   6   7  23 79.5536 20.1439  -2
   6   7  23 79.5536 20.1439   1
   6   7  23 81.5085 12.3500  -3
   6   7  23 81.5085 12.3500   1
   7   7  23 64.6331 18.9559  -2
   7   7  23 64.6331 18.9559   1
   7   7  23 57.8721 10.8515  -3
   7   7  23 57.8721 10.8515   1
   8   7  23 -0.7370 12.7043  -3
   8   7  23 -0.7370 12.7043   1
   8   7  23 8.69710 13.9431  -2
   8   7  23 8.69710 13.9431   1
   9   7  23 120.462 16.0322  -2
   9   7  23 120.462 16.0322   1
   9   7  23 261.192 32.7498  -3
   9   7  23 261.192 32.7498   1
   9   6  23 233.552 20.4336  -2
   9   7  23 233.552 20.4336   1
   0   8  23 530.884 16.0053  -3
   0   8  23 530.884 16.0053   1
   1   8  23 565.842 12.4733  -3
   1   8  23 565.842 12.4733   1
   2   8  23 1366.69 22.6013  -3
   2   8  23 1366.69 22.6013   1
   3   8  23 961.000 22.3939  -3
   3   8  23 961.000 22.3939   1
   3   8  23 1038.07 70.2592  -3
   3   8  23 1038.07 70.2592  -2
   3   8  23 1038.07 70.2592   1
   4   8  23 323.697 13.3263  -3
   4   8  23 323.697 13.3263   1
   4   8  23 322.561 36.9450  -2
   4   8  23 322.561 36.9450   1
   5   8  23 403.162 13.5853  -3
   5   8  23 403.162 13.5853   1
   5   8  23 402.617 40.1405  -2
   5   8  23 402.617 40.1405   1
   6   8  23 21.6551 20.6536  -2
   6   8  23 21.6551 20.6536   1
   6   8  23 33.4429 11.0968  -3
   6   8  23 33.4429 11.0968   1
   7   8  23 36.1411 27.6990  -2
   7   8  23 36.1411 27.6990   1
   7   8  23 29.0791 10.1829  -3
   7   8  23 29.0791 10.1829   1
   8   8  23 128.282 38.5548  -3
   8   9  22 128.282 38.5548  -2
   8   8  23 128.282 38.5548   1
   8   8  23 163.325 29.2296  -2
   8   8  23 163.325 29.2296   1
   8   8  23 102.628 17.8583  -3
   8   8  23 102.628 17.8583   1
   9   8  23 176.773 30.4625  -2
   9   8  23 176.773 30.4625   1
   9   8  23 158.342 31.2345  -3
   9   8  23 158.342 31.2345   1
   0   9  23 17.1305 7.70002   1
   1   9  23 2385.06 35.6812  -3
   1   9  23 2385.06 35.6812   1
   2   9  23 406.051 10.6739  -3
   2   9  23 406.051 10.6739   1
   3   9  23 2822.79 52.2991  -3
   3   9  23 2822.79 52.2991   1
   4   9  23 311.543 13.7215  -3
   4   9  23 311.543 13.7215   1
   5   9  23 167.210 10.8465  -3
   5   9  23 167.210 10.8465   1
   5   9  23 198.866 32.4870  -2
   5   9  23 198.866 32.4870   1
   6   9  23 59.0075 11.4156  -3
   6   9  23 59.0075 11.4156   1
   6   9  23 43.1289 29.8268  -2
   6   9  23 43.1289 29.8268   1
   7   9  23 18.6313 14.3844  -3
   7   9  23 18.6313 14.3844   1
   7   9  23 64.8400 29.2201  -2
   7   9  23 64.8400 29.2201   1
   8   9  23 118.471 31.4650  -3
   8   9  23 118.471 31.4650   1
   8   9  23 91.4822 29.3323  -2
   8   9  23 91.4822 29.3323   1
   9   9  23 52.4719 27.4301  -2
   9   9  23 52.4719 27.4301   1
   9   9  23 59.6510 29.0131  -3
   9   9  23 59.6510 29.0131   1
   9   9  23 53.7292 39.2534  -3
   9  10  22 53.7292 39.2534  -2
   9   9  23 53.7292 39.2534   1
   0  10  23 591.719 19.4013  -3
   0  10  23 591.719 19.4013   1
   1  10  23 1031.49 18.2134  -3
   1  10  23 1031.49 18.2134   1
   2  10  23 475.393 12.5114  -3
   2  10  23 475.393 12.5114   1
   3  10  23 1932.67 43.0397  -3
   3  10  23 1932.67 43.0397   1
   4  10  23 528.446 17.8729  -3
   4  10  23 528.446 17.8729   1
   5  10  23 41.3287 9.67684  -3
   5  10  23 41.3287 9.67684   1
   6  10  23 -12.647 13.1538  -3
   6  10  23 -12.647 13.1538   1
   6  10  23 22.3533 30.0728  -2
   6  10  23 22.3533 30.0728   1
   7  10  23 83.1733 30.9042  -2
   7  10  23 83.1733 30.9042   1
   7  10  23 99.0383 15.2435  -3
   7  10  23 99.0383 15.2435   1
   8  10  23 812.912 62.6173  -3
   8  11  22 812.912 62.6173  -2
   8  10  23 812.912 62.6173   1
   8  10  23 697.102 51.7895  -2
   8  10  23 697.102 51.7895   1
   8  10  23 833.699 58.9356  -3
   8  10  23 833.699 58.9356   1
   9  10  23 104.879 31.5196  -2
   9  10  23 104.879 31.5196   1
   9  10  23 251.239 34.6919  -3
   9  10  23 251.239 34.6919   1
   0  11  23 -19.169 7.69202   1
   1  11  23 4175.73 62.5247  -3
   1  11  23 4175.73 62.5247   1
   2  11  23 867.239 19.2438  -3
   2  11  23 867.239 19.2438   1
   3  11  23 831.444 20.9953  -3
   3  11  23 831.444 20.9953   1
   4  11  23 658.977 19.2686  -3
   4  11  23 658.977 19.2686   1
   5  11  23 168.792 14.3222  -3
   5  11  23 168.792 14.3222   1
   6  11  23 18.9997 13.9843  -3
   6  11  23 18.9997 13.9843   1
   7  11  23 125.708 15.8663  -3
   7  11  23 125.708 15.8663   1
   8  11  23 125.811 42.3116  -3
   8  12  22 125.811 42.3116  -2
   8  11  23 125.811 42.3116   1
   8  11  23 108.644 31.5834  -2
   8  11  23 108.644 31.5834   1
   8  11  23 108.319 33.6784  -3
   8  11  23 108.319 33.6784   1
   9  11  23 409.823 42.3336  -3
   9  11  23 409.823 42.3336   1
   9  11  23 398.904 41.1476  -2
   9  11  23 398.904 41.1476   1
  10  11  23 96.9938 11.9187   1
   0  12  23 699.255 21.7663  -3
   0  12  23 699.255 21.7663   1
   1  12  23 53.9356 12.8104  -3
   1  12  23 53.9356 12.8104   1
   2  12  23 167.594 12.4561  -3
   2  12  23 167.594 12.4561   1
   3  12  23 111.783 15.1200  -3
   3  12  23 111.783 15.1200   1
   4  12  23 192.781 15.4316  -3
   4  12  23 192.781 15.4316   1
   5  12  23 422.450 23.1967  -3
   5  12  23 422.450 23.1967   1
   6  12  23 -5.8660 14.9421  -3
   6  12  23 -5.8660 14.9421   1
   7  12  23 51.0208 17.0571  -3
   7  12  23 51.0208 17.0571   1
   8  12  23 43.6604 33.5086  -3
   8  12  23 43.6604 33.5086   1
   9  12  23 412.300 44.1376  -2
   9  12  23 412.300 44.1376   1
   9  12  23 431.024 44.7713  -3
   9  12  23 431.024 44.7713   1
  10  12  23 263.540 19.1431   1
   0  13  23 -5.5835 6.68487   1
   1  13  23 379.405 15.4256  -3
   1  13  23 379.405 15.4256   1
   2  13  23 14.2991 11.9724  -3
   2  13  23 14.2991 11.9724   1
   3  13  23 197.332 16.3461  -3
   3  13  23 197.332 16.3461   1
   4  13  23 428.172 19.7953  -3
   4  13  23 428.172 19.7953   1
   5  13  23 257.993 20.0248  -3
   5  13  23 257.993 20.0248   1
   6  13  23 -12.577 33.1885  -3
   6  13  23 -12.577 33.1885   1
   7  13  23 19.4667 33.4173  -3
   7  13  23 19.4667 33.4173   1
   8  13  23 40.8336 33.2801  -3
   8  13  23 40.8336 33.2801   1
   9  13  23 48.1363 11.6351   1
   0  14  23 502.614 49.4872  -3
   0  14  23 502.614 49.4872   1
   1  14  23 19.2748 14.4635  -3
   1  14  23 19.2748 14.4635   1
   2  14  23 28.0830 14.9649  -3
   2  14  23 28.0830 14.9649   1
   3  14  23 357.559 19.3800  -3
   3  14  23 357.559 19.3800   1
   4  14  23 263.047 24.8556  -3
   4  14  23 263.047 24.8556   1
   5  14  23 153.512 22.1940  -3
   5  14  23 153.512 22.1940   1
   6  14  23 -10.566 18.7387  -3
   6  14  23 -10.566 18.7387   1
   7  14  23 5.79841 34.1375  -3
   7  14  23 5.79841 34.1375   1
   8  14  23 10.8176 5.36882   1
   9  14  23 61.0648 20.0214   1
   0  15  23 5.12901 6.36792   1
   1  15  23 27.2294 4.91407   1
   2  15  23 149.023 18.7053  -3
   2  15  23 149.023 18.7053   1
   3  15  23 -23.446 37.4820  -3
   3  15  23 -23.446 37.4820   1
   4  15  23 151.550 40.5998  -3
   4  15  23 151.550 40.5998   1
   5  15  23 9.41158 37.3333  -3
   5  15  23 9.41158 37.3333   1
   6  15  23 161.793 8.21462   1
   7  15  23 118.790 6.99000   1
   8  15  23 53.8557 7.57529   1
   0  16  23 47.1058 38.5101  -3
   0  16  23 47.1058 38.5101   1
   1  16  23 54.4343 44.0354  -3
   1  16  23 54.4343 44.0354   1
   2  16  23 438.716 10.8869   1
   3  16  23 48.9627 43.1265  -3
   3  16  23 48.9627 43.1265   1
   4  16  23 15.7395 39.1855  -3
   4  16  23 15.7395 39.1855   1
   5  16  23 20.8661 4.50640   1
   6  16  23 269.050 45.7864  -3
   6  16  23 269.050 45.7864   1
   7  16  23 14.4502 4.90454   1
   8  16  23 11.0682 8.01475   1
   0  17  23 13.4491 7.07704   1
   1  17  23 26.3677 5.23890   1
   2  17  23 231.803 7.95706   1
   3  17  23 38.0543 5.47114   1
   4  17  23 320.508 9.95762   1
   5  17  23 246.811 8.73500   1
   6  17  23 470.015 13.5597   1
   7  17  23 39.7822 6.05943   1
   8  17  23 0.56620 7.35528   1
   0  18  23 370.382 17.2890   1
   1  18  23 75.0315 6.30592   1
   2  18  23 125.270 8.12251   1
   3  18  23 18.1803 5.22752   1
   4  18  23 140.602 7.63399   1
   5  18  23 49.1444 5.34631   1
   6  18  23 119.246 7.95995   1
   7  18  23 33.2905 7.42591   1
   8  18  23 693.992 51.9374   1
   0  19  23 6.19179 8.00613   1
   1  19  23 176.492 8.85626   1
   2  19  23 141.387 8.37160   1
   3  19  23 31.8381 5.85055   1
   4  19  23 37.2490 5.76069   1
   5  19  23 212.478 8.51970   1
   6  19  23 76.6893 8.80266   1
   7  19  23 37.8872 8.84671   1
   0  20  23 624.288 24.2588   1
   1  20  23 111.211 7.22543   1
   2  20  23 153.537 8.82576   1
   3  20  23 7.57946 5.37905   1
   4  20  23 8.53782 5.30756   1
   5  20  23 3.68543 5.66271   1
   6  20  23 70.2887 13.2186   1
   7  20  23 405.632 28.7635   1
   0  21  23 -13.397 7.66023   1
   1  21  23 254.089 10.2366   1
   2  21  23 137.403 9.21462   1
   3  21  23 22.6840 6.18379   1
   4  21  23 234.090 13.0814   1
   5  21  23 96.1073 8.68538   1
   6  21  23 83.8367 23.0515   1
   7  21  23 107.410 27.2534   1
   0  22  23 207.436 14.6329   1
   1  22  23 44.3463 7.06025   1
   2  22  23 76.0080 9.68776   1
   3  22  23 142.136 13.1896   1
   4  22  23 8.09852 10.0368   1
   5  22  23 301.218 15.8093   1
   6  22  23 334.107 38.4986   1
   7  22  23 25.5039 22.0258   1
   0  23  23 -3.4786 11.0863   1
   1  23  23 141.248 9.24995   1
   2  23  23 183.086 18.3989   1
   3  23  23 366.883 24.8112   1
   4  23  23 122.935 14.5885   1
   5  23  23 18.6573 8.43388   1
   0  24  23 135.170 16.7003   1
   1  24  23 72.2188 9.75186   1
   3  24  23 37.5298 13.6476   1
   4  24  23 31.5102 14.7626   1
   0  25  23 -18.160 10.8822   1
   1  25  23 284.060 32.3387   1
   1  26  23 525.432 51.3833   1
   1   0  24 132.826 20.8961  -3
   1   0  24 132.826 20.8961   1
   2   0  24 894.861 24.3610  -3
   2   0  24 894.861 24.3610   1
   2   0  24 936.215 34.3193  -3
   2   0  24 936.215 34.3193  -2
   2   0  24 936.215 34.3193   1
   3   0  24 703.888 22.4661  -3
   3   0  24 703.888 22.4661   1
   3   0  24 716.302 24.2809  -3
   3   0  24 716.302 24.2809  -2
   3   0  24 716.302 24.2809   1
   4   0  24 139.762 11.0116  -3
   4   0  24 139.762 11.0116   1
   4   0  24 174.003 30.7612  -3
   4   0  24 174.003 30.7612  -2
   4   0  24 174.003 30.7612   1
   5   0  24 74.4236 28.5050  -3
   5   0  24 74.4236 28.5050  -2
   5   0  24 74.4236 28.5050   1
   5   0  24 118.075 15.2523  -3
   5   1  24 118.075 15.2523  -2
   5   0  24 118.075 15.2523   1
   5   0  24 74.8676 16.9401  -3
   5   0  24 74.8676 16.9401   1
   6   0  24 56.3790 16.7505  -3
   6   1  24 56.3790 16.7505  -2
   6   0  24 56.3790 16.7505   1
   6   0  24 26.2621 26.6741  -3
   6   0  24 26.2621 26.6741  -2
   6   0  24 26.2621 26.6741   1
   7   0  24 611.478 28.8555  -3
   7   1  24 611.478 28.8555  -2
   7   0  24 611.478 28.8555   1
   8   0  24 30.5601 11.4326  -3
   8   1  24 30.5601 11.4326  -2
   8   0  24 30.5601 11.4326   1
   9   1  24 42.2530 26.7872  -3
   9   0  24 42.2530 26.7872  -2
   9   0  24 42.2530 26.7872   1
   9   0  24 24.4982 25.5954  -3
   9   1  24 24.4982 25.5954  -2
   9   0  24 24.4982 25.5954   1
  10   0  24 888.420 58.0814  -3
  10   1  24 888.420 58.0814  -2
  10   0  24 888.420 58.0814   1
  10   1  24 1061.81 64.7954  -3
  10   0  24 1061.81 64.7954  -2
  10   0  24 1061.81 64.7954   1
   1   1  24 111.297 14.7799  -3
   1   1  24 111.297 14.7799   1
   2   1  24 408.594 10.4526  -3
   2   1  24 408.594 10.4526   1
   2   1  24 454.211 13.4813  -3
   2   1  24 454.211 13.4813  -2
   2   1  24 454.211 13.4813   1
   3   1  24 262.904 9.22378  -3
   3   1  24 262.904 9.22378   1
   3   1  24 290.375 12.4688  -3
   3   1  24 290.375 12.4688  -2
   3   1  24 290.375 12.4688   1
   4   1  24 59.8548 6.92380  -3
   4   1  24 59.8548 6.92380   1
   4   1  24 80.7542 15.4525  -3
   4   1  24 80.7542 15.4525  -2
   4   1  24 80.7542 15.4525   1
   5   1  24 145.132 19.0801  -3
   5   2  24 145.132 19.0801  -2
   5   1  24 145.132 19.0801   1
   5   1  24 126.572 13.2306  -3
   5   1  24 126.572 13.2306   1
   5   1  24 117.764 21.0880  -3
   5   1  24 117.764 21.0880  -2
   5   1  24 117.764 21.0880   1
   5   1  24 105.853 19.4699  -3
   5   0  24 105.853 19.4699  -2
   5   1  24 105.853 19.4699   1
   6   1  24 245.061 20.2786  -3
   6   0  24 245.061 20.2786  -2
   6   1  24 245.061 20.2786   1
   6   1  24 242.566 20.5322  -3
   6   2  24 242.566 20.5322  -2
   6   1  24 242.566 20.5322   1
   6   1  24 273.849 23.8105  -3
   6   1  24 273.849 23.8105  -2
   6   1  24 273.849 23.8105   1
   7   1  24 267.866 19.4462  -3
   7   0  24 267.866 19.4462  -2
   7   1  24 267.866 19.4462   1
   7   1  24 213.245 17.7876  -3
   7   2  24 213.245 17.7876  -2
   7   1  24 213.245 17.7876   1
   8   1  24 36.1735 11.9952  -3
   8   0  24 36.1735 11.9952  -2
   8   1  24 36.1735 11.9952   1
   8   1  24 33.4711 11.3905  -3
   8   2  24 33.4711 11.3905  -2
   8   1  24 33.4711 11.3905   1
   8   1  24 26.6742 19.5267  -2
   8   1  24 26.6742 19.5267   1
   9   0  24 51.0102 27.9381  -3
   9   1  24 51.0102 27.9381  -2
   9   1  24 51.0102 27.9381   1
   9   1  24 54.9675 26.9042  -3
   9   0  24 54.9675 26.9042  -2
   9   1  24 54.9675 26.9042   1
   9   1  24 132.070 28.9620  -3
   9   2  24 132.070 28.9620  -2
   9   1  24 132.070 28.9620   1
   9   2  24 101.213 27.6670  -3
   9   1  24 101.213 27.6670  -2
   9   1  24 101.213 27.6670   1
  10   0  24 119.666 27.9768  -3
  10   1  24 119.666 27.9768  -2
  10   1  24 119.666 27.9768   1
  10   2  24 45.8672 25.2502  -3
  10   1  24 45.8672 25.2502  -2
  10   1  24 45.8672 25.2502   1
  10   1  24 17.9052 26.2661  -3
  10   0  24 17.9052 26.2661  -2
  10   1  24 17.9052 26.2661   1
  10   1  24 34.4062 26.2319  -3
  10   2  24 34.4062 26.2319  -2
  10   1  24 34.4062 26.2319   1
   0   2  24 1575.27 82.7087  -3
   0   2  24 1575.27 82.7087   1
   1   2  24 220.251 14.9256  -3
   1   2  24 220.251 14.9256   1
   2   2  24 390.640 11.9053  -3
   2   2  24 390.640 11.9053  -2
   2   2  24 390.640 11.9053   1
   2   2  24 399.109 10.4233  -3
   2   2  24 399.109 10.4233   1
   3   2  24 502.058 15.6064  -3
   3   2  24 502.058 15.6064  -2
   3   2  24 502.058 15.6064   1
   3   2  24 459.186 12.1354  -3
   3   2  24 459.186 12.1354   1
   4   2  24 205.004 17.5260  -3
   4   2  24 205.004 17.5260  -2
   4   2  24 205.004 17.5260   1
   4   2  24 171.907 21.8098  -3
   4   1  24 171.907 21.8098  -2
   4   2  24 171.907 21.8098   1
   4   2  24 166.344 9.39800  -3
   4   2  24 166.344 9.39800   1
   5   2  24 594.344 46.8233  -3
   5   2  24 594.344 46.8233  -2
   5   2  24 594.344 46.8233   1
   5   2  24 548.474 46.2946  -3
   5   3  24 548.474 46.2946  -2
   5   2  24 548.474 46.2946   1
   5   2  24 482.406 19.3610  -3
   5   2  24 482.406 19.3610   1
   5   2  24 550.540 30.2706  -3
   5   1  24 550.540 30.2706  -2
   5   2  24 550.540 30.2706   1
   6   2  24 162.352 19.0106  -3
   6   1  24 162.352 19.0106  -2
   6   2  24 162.352 19.0106   1
   6   2  24 235.640 20.4841  -3
   6   3  24 235.640 20.4841  -2
   6   2  24 235.640 20.4841   1
   6   2  24 163.136 31.1733  -3
   6   2  24 163.136 31.1733  -2
   6   2  24 163.136 31.1733   1
   7   2  24 74.0504 15.7184  -3
   7   3  24 74.0504 15.7184  -2
   7   2  24 74.0504 15.7184   1
   7   2  24 59.8336 15.7699  -3
   7   1  24 59.8336 15.7699  -2
   7   2  24 59.8336 15.7699   1
   8   2  24 63.4329 13.4775  -2
   8   2  24 63.4329 13.4775   1
   8   2  24 49.3416 11.8471  -3
   8   3  24 49.3416 11.8471  -2
   8   2  24 49.3416 11.8471   1
   8   2  24 38.1795 12.7433  -3
   8   1  24 38.1795 12.7433  -2
   8   2  24 38.1795 12.7433   1
   9   2  24 105.787 29.8833  -3
   9   1  24 105.787 29.8833  -2
   9   2  24 105.787 29.8833   1
   9   2  24 79.9045 18.0584  -2
   9   2  24 79.9045 18.0584   1
   9   2  24 135.348 29.6731  -3
   9   3  24 135.348 29.6731  -2
   9   2  24 135.348 29.6731   1
  10   2  24 202.331 30.8713  -3
  10   3  24 202.331 30.8713  -2
  10   2  24 202.331 30.8713   1
  10   2  24 198.297 32.2383  -3
  10   1  24 198.297 32.2383  -2
  10   2  24 198.297 32.2383   1
  10   3  24 157.387 28.8647  -3
  10   2  24 157.387 28.8647  -2
  10   2  24 157.387 28.8647   1
  10   1  24 178.180 30.5583  -3
  10   2  24 178.180 30.5583  -2
  10   2  24 178.180 30.5583   1
   0   3  24 6.29309 18.8708   1
   1   3  24 155.742 11.3819  -3
   1   3  24 155.742 11.3819   1
   2   3  24 101.462 7.66385  -3
   2   3  24 101.462 7.66385   1
   2   3  24 118.363 11.4247  -3
   2   3  24 118.363 11.4247  -2
   2   3  24 118.363 11.4247   1
   3   3  24 1546.22 30.0510  -3
   3   3  24 1546.22 30.0510   1
   3   3  24 1618.44 41.3147  -3
   3   3  24 1618.44 41.3147  -2
   3   3  24 1618.44 41.3147   1
   4   3  24 48.8708 6.93855  -3
   4   3  24 48.8708 6.93855   1
   4   3  24 57.2041 15.9001  -3
   4   3  24 57.2041 15.9001  -2
   4   3  24 57.2041 15.9001   1
   5   3  24 44.1235 7.60813  -3
   5   3  24 44.1235 7.60813   1
   5   3  24 96.9299 19.7903  -3
   5   4  24 96.9299 19.7903  -2
   5   3  24 96.9299 19.7903   1
   5   3  24 73.0751 20.0190  -3
   5   2  24 73.0751 20.0190  -2
   5   3  24 73.0751 20.0190   1
   5   3  24 59.1909 32.3346  -3
   5   3  24 59.1909 32.3346  -2
   5   3  24 59.1909 32.3346   1
   6   3  24 264.409 22.5188  -3
   6   2  24 264.409 22.5188  -2
   6   3  24 264.409 22.5188   1
   6   3  24 275.123 21.8456  -3
   6   4  24 275.123 21.8456  -2
   6   3  24 275.123 21.8456   1
   6   3  24 234.862 34.4807  -3
   6   3  24 234.862 34.4807  -2
   6   3  24 234.862 34.4807   1
   7   3  24 260.190 19.0978  -3
   7   4  24 260.190 19.0978  -2
   7   3  24 260.190 19.0978   1
   7   3  24 247.440 20.1549  -3
   7   2  24 247.440 20.1549  -2
   7   3  24 247.440 20.1549   1
   8   3  24 66.3394 11.6853  -3
   8   4  24 66.3394 11.6853  -2
   8   3  24 66.3394 11.6853   1
   8   3  24 47.6056 13.2919  -2
   8   3  24 47.6056 13.2919   1
   8   3  24 38.7592 14.1964  -3
   8   2  24 38.7592 14.1964  -2
   8   3  24 38.7592 14.1964   1
   9   4  24 108.788 28.7107  -3
   9   3  24 108.788 28.7107  -2
   9   3  24 108.788 28.7107   1
   9   3  24 62.4184 17.6887  -2
   9   3  24 62.4184 17.6887   1
   9   3  24 109.744 30.3720  -3
   9   4  24 109.744 30.3720  -2
   9   3  24 109.744 30.3720   1
   9   3  24 63.3914 31.2006  -3
   9   2  24 63.3914 31.2006  -2
   9   3  24 63.3914 31.2006   1
  10   2  24 77.7729 29.4195  -3
  10   3  24 77.7729 29.4195  -2
  10   3  24 77.7729 29.4195   1
  10   4  24 77.9378 29.0553  -3
  10   3  24 77.9378 29.0553  -2
  10   3  24 77.9378 29.0553   1
  10   3  24 34.2287 30.3525  -3
  10   2  24 34.2287 30.3525  -2
  10   3  24 34.2287 30.3525   1
  10   3  24 25.9464 28.4535  -3
  10   4  24 25.9464 28.4535  -2
  10   3  24 25.9464 28.4535   1
   0   4  24 581.056 37.9290  -3
   0   4  24 581.056 37.9290   1
   1   4  24 912.973 25.5264  -3
   1   4  24 912.973 25.5264   1
   2   4  24 448.405 16.8662  -3
   2   4  24 448.405 16.8662  -2
   2   4  24 448.405 16.8662   1
   2   4  24 421.119 12.0261  -3
   2   4  24 421.119 12.0261   1
   3   4  24 491.968 21.7123  -3
   3   4  24 491.968 21.7123  -2
   3   4  24 491.968 21.7123   1
   3   4  24 492.412 13.6605  -3
   3   4  24 492.412 13.6605   1
   4   4  24 2386.19 92.9818  -3
   4   4  24 2386.19 92.9818  -2
   4   4  24 2386.19 92.9818   1
   4   4  24 1998.71 42.8111  -3
   4   4  24 1998.71 42.8111   1
   5   4  24 443.601 15.3228  -3
   5   4  24 443.601 15.3228   1
   5   4  24 472.136 30.9260  -3
   5   4  24 472.136 30.9260  -2
   5   4  24 472.136 30.9260   1
   5   4  24 502.867 38.3236  -3
   5   3  24 502.867 38.3236  -2
   5   4  24 502.867 38.3236   1
   6   4  24 191.626 12.4252  -3
   6   4  24 191.626 12.4252   1
   6   4  24 241.165 21.2206  -3
   6   5  24 241.165 21.2206  -2
   6   4  24 241.165 21.2206   1
   6   4  24 221.009 21.8522  -3
   6   3  24 221.009 21.8522  -2
   6   4  24 221.009 21.8522   1
   7   4  24 30.9081 17.0682  -3
   7   3  24 30.9081 17.0682  -2
   7   4  24 30.9081 17.0682   1
   7   4  24 24.0139 15.7623  -3
   7   5  24 24.0139 15.7623  -2
   7   4  24 24.0139 15.7623   1
   8   4  24 112.911 14.8912  -2
   8   4  24 112.911 14.8912   1
   8   4  24 126.312 17.2722  -3
   8   3  24 126.312 17.2722  -2
   8   4  24 126.312 17.2722   1
   8   4  24 66.4295 31.7894  -3
   8   5  24 66.4295 31.7894  -2
   8   4  24 66.4295 31.7894   1
   9   4  24 172.220 34.8796  -3
   9   3  24 172.220 34.8796  -2
   9   4  24 172.220 34.8796   1
   9   4  24 120.055 32.4094  -3
   9   5  24 120.055 32.4094  -2
   9   4  24 120.055 32.4094   1
   9   4  24 62.2774 17.6714  -2
   9   4  24 62.2774 17.6714   1
  10   4  24 311.101 37.3532  -3
  10   5  24 311.101 37.3532  -2
  10   4  24 311.101 37.3532   1
  10   4  24 357.063 39.9873  -3
  10   3  24 357.063 39.9873  -2
  10   4  24 357.063 39.9873   1
  10   3  24 443.364 40.1391  -3
  10   4  24 443.364 40.1391  -2
  10   4  24 443.364 40.1391   1
  10   5  24 359.213 37.1706  -3
  10   4  24 359.213 37.1706  -2
  10   4  24 359.213 37.1706   1
   0   5  24 15.1066 14.6698   1
   1   5  24 16.0292 8.30648  -3
   1   5  24 16.0292 8.30648   1
   2   5  24 258.762 26.4146  -3
   2   5  24 258.762 26.4146  -2
   2   5  24 258.762 26.4146   1
   2   5  24 270.888 10.1001  -3
   2   5  24 270.888 10.1001   1
   3   5  24 786.047 19.7277  -3
   3   5  24 786.047 19.7277   1
   3   5  24 946.724 37.0631  -3
   3   5  24 946.724 37.0631  -2
   3   5  24 946.724 37.0631   1
   4   5  24 334.761 42.3751  -3
   4   5  24 334.761 42.3751  -2
   4   5  24 334.761 42.3751   1
   4   5  24 284.012 10.7671  -3
   4   5  24 284.012 10.7671   1
   5   5  24 48.8077 6.76272  -3
   5   5  24 48.8077 6.76272   1
   5   5  24 86.9216 35.0745  -3
   5   5  24 86.9216 35.0745  -2
   5   5  24 86.9216 35.0745   1
   6   5  24 150.602 28.5028  -2
   6   5  24 150.602 28.5028   1
   6   5  24 114.863 26.5475  -3
   6   4  24 114.863 26.5475  -2
   6   5  24 114.863 26.5475   1
   6   5  24 113.152 35.2391  -3
   6   6  24 113.152 35.2391  -2
   6   5  24 113.152 35.2391   1
   6   5  24 114.972 11.0152  -3
   6   5  24 114.972 11.0152   1
   7   5  24 62.9187 18.4787  -2
   7   5  24 62.9187 18.4787   1
   7   5  24 103.647 17.0409  -3
   7   6  24 103.647 17.0409  -2
   7   5  24 103.647 17.0409   1
   7   5  24 101.575 21.7415  -3
   7   4  24 101.575 21.7415  -2
   7   5  24 101.575 21.7415   1
   8   5  24 42.6004 17.2045  -3
   8   4  24 42.6004 17.2045  -2
   8   5  24 42.6004 17.2045   1
   8   5  24 125.521 34.7004  -3
   8   6  24 125.521 34.7004  -2
   8   5  24 125.521 34.7004   1
   8   5  24 82.1742 14.8341  -2
   8   5  24 82.1742 14.8341   1
   9   4  24 97.0639 13.0249  -2
   9   5  24 97.0639 13.0249   1
   9   5  24 120.972 33.6226  -3
   9   6  24 120.972 33.6226  -2
   9   5  24 120.972 33.6226   1
   9   5  24 75.1649 14.3356  -2
   9   5  24 75.1649 14.3356   1
   9   5  24 85.6702 34.4390  -3
   9   4  24 85.6702 34.4390  -2
   9   5  24 85.6702 34.4390   1
  10   5  24 412.866 34.5144  -2
  10   5  24 412.866 34.5144   1
  10   5  24 454.438 44.4193  -3
  10   4  24 454.438 44.4193  -2
  10   5  24 454.438 44.4193   1
   0   6  24 27.9620 13.1717  -3
   0   6  24 27.9620 13.1717   1
   1   6  24 122.049 8.73037  -3
   1   6  24 122.049 8.73037   1
   2   6  24 479.858 12.9414  -3
   2   6  24 479.858 12.9414   1
   2   6  24 552.835 34.3265  -3
   2   6  24 552.835 34.3265  -2
   2   6  24 552.835 34.3265   1
   3   6  24 2271.71 48.4853  -3
   3   6  24 2271.71 48.4853   1
   3   6  24 2450.14 95.9949  -3
   3   6  24 2450.14 95.9949  -2
   3   6  24 2450.14 95.9949   1
   4   6  24 314.516 11.4423  -3
   4   6  24 314.516 11.4423   1
   4   6  24 312.264 42.4625  -3
   4   6  24 312.264 42.4625  -2
   4   6  24 312.264 42.4625   1
   5   6  24 488.086 16.9181  -3
   5   6  24 488.086 16.9181   1
   5   6  24 509.569 42.9804  -2
   5   6  24 509.569 42.9804   1
   6   6  24 63.4238 15.1821  -3
   6   6  24 63.4238 15.1821   1
   6   6  24 94.4633 20.1876  -2
   6   6  24 94.4633 20.1876   1
   6   6  24 89.4101 25.3913  -3
   6   5  24 89.4101 25.3913  -2
   6   6  24 89.4101 25.3913   1
   7   6  24 54.7781 18.6416  -2
   7   6  24 54.7781 18.6416   1
   7   6  24 115.030 35.5786  -3
   7   7  24 115.030 35.5786  -2
   7   6  24 115.030 35.5786   1
   7   6  24 27.5570 11.3307  -3
   7   6  24 27.5570 11.3307   1
   8   6  24 251.004 38.6092  -3
   8   7  24 251.004 38.6092  -2
   8   6  24 251.004 38.6092   1
   8   6  24 230.834 18.8339  -2
   8   6  24 230.834 18.8339   1
   8   6  24 339.160 28.0890  -3
   8   5  24 339.160 28.0890  -2
   8   6  24 339.160 28.0890   1
   9   6  24 4.95422 13.9810  -2
   9   6  24 4.95422 13.9810   1
   9   5  24 6.11682 14.5634  -2
   9   6  24 6.11682 14.5634   1
   9   6  24 64.6876 34.5134  -3
   9   7  24 64.6876 34.5134  -2
   9   6  24 64.6876 34.5134   1
   0   7  24 -9.9850 7.55379   1
   1   7  24 119.163 7.90933  -3
   1   7  24 119.163 7.90933   1
   2   7  24 91.7654 7.93011  -3
   2   7  24 91.7654 7.93011   1
   2   7  24 94.3401 40.7903  -3
   2   7  24 94.3401 40.7903  -2
   2   7  24 94.3401 40.7903   1
   3   7  24 514.067 15.2183  -3
   3   7  24 514.067 15.2183   1
   3   7  24 747.838 59.9390  -3
   3   7  24 747.838 59.9390  -2
   3   7  24 747.838 59.9390   1
   4   7  24 223.086 10.4755  -3
   4   7  24 223.086 10.4755   1
   4   7  24 240.352 28.6094  -2
   4   7  24 240.352 28.6094   1
   4   7  24 160.557 39.8623  -3
   4   7  24 160.557 39.8623  -2
   4   7  24 160.557 39.8623   1
   5   7  24 1556.15 41.8459  -3
   5   7  24 1556.15 41.8459   1
   5   7  24 1496.97 62.2012  -2
   5   7  24 1496.97 62.2012   1
   6   7  24 9.68986 19.9402  -2
   6   7  24 9.68986 19.9402   1
   6   7  24 56.3589 12.1072  -3
   6   7  24 56.3589 12.1072   1
   7   7  24 39.2110 10.9576  -3
   7   7  24 39.2110 10.9576   1
   7   7  24 50.1629 19.1817  -2
   7   7  24 50.1629 19.1817   1
   8   7  24 19.0468 13.3876  -3
   8   7  24 19.0468 13.3876   1
   8   7  24 7.53955 13.8117  -2
   8   7  24 7.53955 13.8117   1
   9   6  24 231.830 21.4414  -2
   9   7  24 231.830 21.4414   1
   9   7  24 159.105 17.0629  -2
   9   7  24 159.105 17.0629   1
   9   7  24 230.198 32.5544  -3
   9   7  24 230.198 32.5544   1
   0   8  24 2436.81 53.2848  -3
   0   8  24 2436.81 53.2848   1
   1   8  24 96.6968 8.40716  -3
   1   8  24 96.6968 8.40716   1
   2   8  24 58.8671 7.69320  -3
   2   8  24 58.8671 7.69320   1
   3   8  24 41.8707 7.91895  -3
   3   8  24 41.8707 7.91895   1
   3   8  24 26.4107 39.0797  -3
   3   8  24 26.4107 39.0797  -2
   3   8  24 26.4107 39.0797   1
   4   8  24 284.860 12.3401  -3
   4   8  24 284.860 12.3401   1
   4   8  24 214.462 35.4479  -2
   4   8  24 214.462 35.4479   1
   5   8  24 22.5139 8.98990  -3
   5   8  24 22.5139 8.98990   1
   5   8  24 55.0867 31.4670  -2
   5   8  24 55.0867 31.4670   1
   6   8  24 33.8920 11.3636  -3
   6   8  24 33.8920 11.3636   1
   6   8  24 46.0845 21.1212  -2
   6   8  24 46.0845 21.1212   1
   7   8  24 141.407 11.8686  -3
   7   8  24 141.407 11.8686   1
   7   8  24 157.342 30.6154  -2
   7   8  24 157.342 30.6154   1
   8   8  24 381.137 22.6877  -3
   8   8  24 381.137 22.6877   1
   8   8  24 339.160 36.0559  -2
   8   8  24 339.160 36.0559   1
   9   8  24 388.162 37.7592  -2
   9   8  24 388.162 37.7592   1
   9   8  24 427.798 41.2200  -3
   9   8  24 427.798 41.2200   1
   0   9  24 24.4037 8.15392   1
   1   9  24 1223.50 20.5431  -3
   1   9  24 1223.50 20.5431   1
   2   9  24 614.542 15.1311  -3
   2   9  24 614.542 15.1311   1
   3   9  24 16.2073 7.57397  -3
   3   9  24 16.2073 7.57397   1
   4   9  24 811.763 23.1844  -3
   4   9  24 811.763 23.1844   1
   4   9  24 766.407 54.9856  -2
   4   9  24 766.407 54.9856   1
   5   9  24 20.7755 9.26761  -3
   5   9  24 20.7755 9.26761   1
   5   9  24 24.6639 28.7969  -2
   5   9  24 24.6639 28.7969   1
   6   9  24 15.3235 11.4312  -3
   6   9  24 15.3235 11.4312   1
   6   9  24 25.4747 29.3191  -2
   6   9  24 25.4747 29.3191   1
   7   9  24 89.1501 30.5720  -2
   7   9  24 89.1501 30.5720   1
   7   9  24 132.949 15.8699  -3
   7   9  24 132.949 15.8699   1
   8   9  24 156.984 17.4577  -3
   8   9  24 156.984 17.4577   1
   8   9  24 152.958 31.8358  -2
   8   9  24 152.958 31.8358   1
   8   9  24 164.032 42.1041  -3
   8  10  23 164.032 42.1041  -2
   8   9  24 164.032 42.1041   1
   9   9  24 31.6427 28.7330  -2
   9   9  24 31.6427 28.7330   1
   0  10  24 596.904 17.6985  -3
   0  10  24 596.904 17.6985   1
   1  10  24 438.051 12.4058  -3
   1  10  24 438.051 12.4058   1
   2  10  24 1050.95 20.6384  -3
   2  10  24 1050.95 20.6384   1
   3  10  24 307.436 13.5273  -3
   3  10  24 307.436 13.5273   1
   4  10  24 920.840 23.9865  -3
   4  10  24 920.840 23.9865   1
   5  10  24 59.6033 10.0538  -3
   5  10  24 59.6033 10.0538   1
   6  10  24 -13.598 29.1126  -2
   6  10  24 -13.598 29.1126   1
   6  10  24 -2.1205 11.4503  -3
   6  10  24 -2.1205 11.4503   1
   7  10  24 866.773 33.0047  -3
   7  10  24 866.773 33.0047   1
   7  10  24 828.862 58.2006  -2
   7  10  24 828.862 58.2006   1
   8  10  24 -10.402 29.2351  -2
   8  10  24 -10.402 29.2351   1
   8  10  24 33.4170 21.7915  -3
   8  10  24 33.4170 21.7915   1
   9  10  24 420.680 41.1764  -2
   9  10  24 420.680 41.1764   1
   9  11  23 475.651 45.0485  -2
   9  10  24 475.651 45.0485   1
   9  10  24 416.154 42.1005  -3
   9  10  24 416.154 42.1005   1
   0  11  24 -9.8391 6.79839   1
   1  11  24 1806.12 34.4167  -3
   1  11  24 1806.12 34.4167   1
   2  11  24 196.196 11.8454  -3
   2  11  24 196.196 11.8454   1
   3  11  24 976.309 23.4885  -3
   3  11  24 976.309 23.4885   1
   4  11  24 726.178 20.5033  -3
   4  11  24 726.178 20.5033   1
   5  11  24 4.48265 12.6421  -3
   5  11  24 4.48265 12.6421   1
   6  11  24 17.1215 14.7298  -3
   6  11  24 17.1215 14.7298   1
   7  11  24 62.4145 15.1882  -3
   7  11  24 62.4145 15.1882   1
   8  12  23 124.423 34.2518  -2
   8  11  24 124.423 34.2518   1
   8  11  24 209.025 36.2998  -3
   8  11  24 209.025 36.2998   1
   8  11  24 118.380 32.9362  -2
   8  11  24 118.380 32.9362   1
   9  11  24 294.644 38.3847  -3
   9  11  24 294.644 38.3847   1
   9  11  24 210.402 35.4583  -2
   9  11  24 210.402 35.4583   1
  10  11  24 41.2540 11.0436   1
   0  12  24 119.637 15.0390  -3
   0  12  24 119.637 15.0390   1
   1  12  24 181.756 13.1602  -3
   1  12  24 181.756 13.1602   1
   2  12  24 252.586 13.4738  -3
   2  12  24 252.586 13.4738   1
   3  12  24 76.4046 13.7208  -3
   3  12  24 76.4046 13.7208   1
   4  12  24 227.243 16.3087  -3
   4  12  24 227.243 16.3087   1
   5  12  24 105.488 17.3907  -3
   5  12  24 105.488 17.3907   1
   6  12  24 34.0316 14.4645  -3
   6  12  24 34.0316 14.4645   1
   7  12  24 209.747 20.2886  -3
   7  12  24 209.747 20.2886   1
   8  12  24 86.5615 33.7481  -3
   8  12  24 86.5615 33.7481   1
   9  12  24 22.3872 32.8659  -3
   9  12  24 22.3872 32.8659   1
  10  12  24 199.669 20.1553   1
   0  13  24 0.57134 6.76038   1
   1  13  24 361.483 16.0072  -3
   1  13  24 361.483 16.0072   1
   2  13  24 71.8372 13.8674  -3
   2  13  24 71.8372 13.8674   1
   3  13  24 25.8941 14.5249  -3
   3  13  24 25.8941 14.5249   1
   4  13  24 118.199 15.4005  -3
   4  13  24 118.199 15.4005   1
   5  13  24 155.960 18.9974  -3
   5  13  24 155.960 18.9974   1
   6  13  24 82.2411 18.8036  -3
   6  13  24 82.2411 18.8036   1
   7  13  24 -5.7488 32.7421  -3
   7  13  24 -5.7488 32.7421   1
   8  13  24 -31.264 32.4520  -3
   8  13  24 -31.264 32.4520   1
   9  13  24 324.844 33.4363   1
   0  14  24 -45.108 33.9029  -3
   0  14  24 -45.108 33.9029   1
   1  14  24 112.089 16.7723  -3
   1  14  24 112.089 16.7723   1
   2  14  24 33.2052 14.8235  -3
   2  14  24 33.2052 14.8235   1
   3  14  24 20.0314 14.9782  -3
   3  14  24 20.0314 14.9782   1
   4  14  24 23.4602 20.6628  -3
   4  14  24 23.4602 20.6628   1
   5  14  24 68.4712 20.5239  -3
   5  14  24 68.4712 20.5239   1
   6  14  24 31.5345 24.2941  -3
   6  14  24 31.5345 24.2941   1
   7  14  24 95.6548 35.6159  -3
   7  14  24 95.6548 35.6159   1
   8  14  24 32.3493 6.90831   1
   0  15  24 -4.5077 6.61436   1
   1  15  24 42.5532 22.4380  -3
   1  15  24 42.5532 22.4380   1
   2  15  24 186.706 35.3511  -3
   2  15  24 186.706 35.3511   1
   3  15  24 -17.008 39.3233  -3
   3  15  24 -17.008 39.3233   1
   4  15  24 633.785 57.6169  -3
   4  15  24 633.785 57.6169   1
   5  15  24 384.341 47.8205  -3
   5  15  24 384.341 47.8205   1
   6  15  24 165.729 8.64226   1
   7  15  24 324.886 10.4920   1
   8  15  24 84.2986 10.2485   1
   0  16  24 -1.7830 38.9909  -3
   0  16  24 -1.7830 38.9909   1
   1  16  24 243.089 8.79610   1
   2  16  24 4.76396 34.6044  -3
   2  16  24 4.76396 34.6044   1
   3  16  24 143.928 7.31713   1
   4  16  24 83.7679 6.52605   1
   5  16  24 119.580 6.54248   1
   6  16  24 237.491 9.63956   1
   7  16  24 122.640 7.93400   1
   8  16  24 11.2435 8.63078   1
   0  17  24 -3.1787 6.69814   1
   1  17  24 7.06270 4.98623   1
   2  17  24 523.314 14.4330   1
   3  17  24 229.009 9.05499   1
   4  17  24 4.09452 4.80225   1
   5  17  24 503.918 13.1368   1
   6  17  24 860.728 20.5721   1
   7  17  24 23.2186 7.05357   1
   8  17  24 197.366 30.4835   1
   0  18  24 377.421 17.7516   1
   1  18  24 64.5842 6.43889   1
   2  18  24 34.7268 5.75929   1
   3  18  24 67.4688 6.32535   1
   4  18  24 -1.4786 5.16625   1
   5  18  24 890.589 19.4006   1
   6  18  24 42.1439 6.65417   1
   7  18  24 6.28241 7.51086   1
   0  19  24 -4.2140 7.84399   1
   1  19  24 105.943 7.40607   1
   2  19  24 63.1415 6.87324   1
   3  19  24 54.3873 6.28356   1
   4  19  24 371.231 11.8330   1
   5  19  24 398.323 13.6021   1
   6  19  24 30.0863 9.65843   1
   7  19  24 369.079 19.9722   1
   0  20  24 149.804 12.8593   1
   1  20  24 11.8399 5.73484   1
   2  20  24 84.4209 7.32593   1
   3  20  24 21.4900 5.90612   1
   4  20  24 3.02215 6.43548   1
   5  20  24 208.471 10.9870   1
   6  20  24 358.453 22.2762   1
   7  20  24 42.7486 16.3241   1
   0  21  24 -12.678 8.00231   1
   1  21  24 97.8691 7.90343   1
   2  21  24 2.83562 6.30681   1
   3  21  24 11.3757 6.87985   1
   4  21  24 9.92217 7.28086   1
   5  21  24 651.117 23.6614   1
   6  21  24 360.742 39.8985   1
   7  21  24 95.2817 25.6265   1
   0  22  24 183.604 14.3613   1
   1  22  24 67.0654 8.04345   1
   2  22  24 63.2745 9.38866   1
   3  22  24 63.7720 12.6733   1
   4  22  24 11.9668 10.2989   1
   5  22  24 21.1101 8.16935   1
   6  22  24 57.6069 23.4249   1
   0  23  24 7.38435 11.3412   1
   1  23  24 225.333 13.6246   1
   2  23  24 572.847 40.4717   1
   3  23  24 13.6839 11.5740   1
   4  23  24 160.709 19.6806   1
   5  23  24 79.1786 12.9020   1
   0  24  24 517.047 28.0584   1
   1  24  24 144.473 15.2914   1
   3  24  24 346.209 24.5777   1
   4  24  24 93.8101 25.4996   1
   0  25  24 23.1180 13.4298   1
   1  25  24 121.961 25.0128   1
   1   0  25 13.9561 19.7052   1
   2   0  25 3.79272 4.70384   1
   3   0  25 15.1288 6.68129   1
   4   0  25 7.86867 10.1991   1
   5   0  25 12.4488 29.1372   1
   1   1  25 208.289 17.7192  -3
   1   1  25 208.289 17.7192   1
   2   1  25 143.470 8.41525  -3
   2   1  25 143.470 8.41525   1
   2   1  25 122.746 16.0764  -3
   2   1  25 122.746 16.0764  -2
   2   1  25 122.746 16.0764   1
   3   1  25 282.446 9.88744  -3
   3   1  25 282.446 9.88744   1
   3   1  25 329.265 15.0419  -3
   3   1  25 329.265 15.0419  -2
   3   1  25 329.265 15.0419   1
   4   1  25 654.907 20.9689  -3
   4   1  25 654.907 20.9689   1
   4   1  25 770.550 38.5536  -3
   4   1  25 770.550 38.5536  -2
   4   1  25 770.550 38.5536   1
   4   1  25 683.908 51.2296  -3
   4   2  25 683.908 51.2296  -2
   4   1  25 683.908 51.2296   1
   5   1  25 353.821 26.5645  -3
   5   1  25 353.821 26.5645  -2
   5   1  25 353.821 26.5645   1
   5   1  25 367.500 24.8107  -3
   5   2  25 367.500 24.8107  -2
   5   1  25 367.500 24.8107   1
   5   1  25 332.409 17.4473  -3
   5   1  25 332.409 17.4473   1
   6   1  25 521.187 27.9096  -3
   6   2  25 521.187 27.9096  -2
   6   1  25 521.187 27.9096   1
   6   1  25 474.901 26.4594  -3
   6   1  25 474.901 26.4594   1
   7   1  25 44.5270 15.0380  -3
   7   2  25 44.5270 15.0380  -2
   7   1  25 44.5270 15.0380   1
   7   1  25 25.6857 15.5329  -3
   7   1  25 25.6857 15.5329   1
   8   1  25 1067.19 43.4909  -3
   8   1  25 1067.19 43.4909   1
   8   1  25 1119.49 44.6330  -3
   8   2  25 1119.49 44.6330  -2
   8   1  25 1119.49 44.6330   1
   9   1  25 24.1947 15.3679  -2
   9   1  25 24.1947 15.3679   1
   9   1  25 80.6424 28.3401  -3
   9   2  25 80.6424 28.3401  -2
   9   1  25 80.6424 28.3401   1
   9   1  25 0.75546 27.3513  -3
   9   1  25 0.75546 27.3513   1
  10   1  25 47.9295 27.5314  -3
  10   2  25 47.9295 27.5314  -2
  10   1  25 47.9295 27.5314   1
  10   1  25 50.5995 28.9856  -3
  10   1  25 50.5995 28.9856   1
  10   1  25 53.7502 26.8482  -2
  10   1  25 53.7502 26.8482   1
   0   2  25 2596.51 131.149  -3
   0   2  25 2596.51 131.149   1
   1   2  25 138.837 12.7568  -3
   1   2  25 138.837 12.7568   1
   2   2  25 403.753 11.1882  -3
   2   2  25 403.753 11.1882   1
   2   2  25 423.142 21.1097  -3
   2   2  25 423.142 21.1097  -2
   2   2  25 423.142 21.1097   1
   3   2  25 300.363 10.1096  -3
   3   2  25 300.363 10.1096   1
   3   2  25 345.055 21.4328  -3
   3   2  25 345.055 21.4328  -2
   3   2  25 345.055 21.4328   1
   4   2  25 499.296 16.8243  -3
   4   2  25 499.296 16.8243   1
   4   2  25 552.055 32.7193  -3
   4   2  25 552.055 32.7193  -2
   4   2  25 552.055 32.7193   1
   4   2  25 502.830 30.6563  -3
   4   1  25 502.830 30.6563  -2
   4   2  25 502.830 30.6563   1
   5   2  25 276.117 22.6650  -3
   5   3  25 276.117 22.6650  -2
   5   2  25 276.117 22.6650   1
   5   2  25 264.528 25.0367  -3
   5   2  25 264.528 25.0367  -2
   5   2  25 264.528 25.0367   1
   5   2  25 226.319 35.9702  -3
   5   1  25 226.319 35.9702  -2
   5   2  25 226.319 35.9702   1
   5   2  25 189.914 12.3281  -3
   5   2  25 189.914 12.3281   1
   6   2  25 426.886 40.4935  -3
   6   2  25 426.886 40.4935  -2
   6   2  25 426.886 40.4935   1
   6   2  25 430.471 25.9000  -3
   6   3  25 430.471 25.9000  -2
   6   2  25 430.471 25.9000   1
   6   2  25 466.590 26.5440  -3
   6   1  25 466.590 26.5440  -2
   6   2  25 466.590 26.5440   1
   7   2  25 22.5191 16.0641  -3
   7   1  25 22.5191 16.0641  -2
   7   2  25 22.5191 16.0641   1
   7   2  25 53.1698 15.5071  -3
   7   3  25 53.1698 15.5071  -2
   7   2  25 53.1698 15.5071   1
   8   2  25 373.400 21.7299  -3
   8   1  25 373.400 21.7299  -2
   8   2  25 373.400 21.7299   1
   8   2  25 315.047 30.4161  -2
   8   2  25 315.047 30.4161   1
   8   2  25 357.045 19.9459  -3
   8   3  25 357.045 19.9459  -2
   8   2  25 357.045 19.9459   1
   9   2  25 83.5236 29.0561  -3
   9   3  25 83.5236 29.0561  -2
   9   2  25 83.5236 29.0561   1
   9   2  25 96.1784 30.3210  -3
   9   1  25 96.1784 30.3210  -2
   9   2  25 96.1784 30.3210   1
   9   2  25 55.9366 14.8938  -2
   9   2  25 55.9366 14.8938   1
   9   3  25 36.5152 27.7269  -3
   9   2  25 36.5152 27.7269  -2
   9   2  25 36.5152 27.7269   1
  10   2  25 202.895 33.0248  -3
  10   1  25 202.895 33.0248  -2
  10   2  25 202.895 33.0248   1
   0   3  25 16.4992 19.3001   1
   1   3  25 647.855 22.4453  -3
   1   3  25 647.855 22.4453   1
   2   3  25 113.554 7.95675  -3
   2   3  25 113.554 7.95675   1
   2   3  25 123.444 17.6235  -3
   2   3  25 123.444 17.6235  -2
   2   3  25 123.444 17.6235   1
   3   3  25 528.865 14.2972  -3
   3   3  25 528.865 14.2972   1
   3   3  25 581.185 22.3797  -3
   3   3  25 581.185 22.3797  -2
   3   3  25 581.185 22.3797   1
   4   3  25 2133.48 45.6140  -3
   4   3  25 2133.48 45.6140   1
   4   3  25 2310.99 90.4030  -3
   4   3  25 2310.99 90.4030  -2
   4   3  25 2310.99 90.4030   1
   5   3  25 543.699 30.7751  -3
   5   2  25 543.699 30.7751  -2
   5   3  25 543.699 30.7751   1
   5   3  25 548.968 32.7011  -3
   5   3  25 548.968 32.7011  -2
   5   3  25 548.968 32.7011   1
   5   3  25 535.438 31.0882  -3
   5   3  25 535.438 31.0882   1
   5   3  25 512.256 29.6817  -3
   5   4  25 512.256 29.6817  -2
   5   3  25 512.256 29.6817   1
   6   3  25 62.4942 18.1000  -3
   6   4  25 62.4942 18.1000  -2
   6   3  25 62.4942 18.1000   1
   6   3  25 118.629 19.6111  -3
   6   2  25 118.629 19.6111  -2
   6   3  25 118.629 19.6111   1
   7   3  25 57.3475 16.5076  -3
   7   4  25 57.3475 16.5076  -2
   7   3  25 57.3475 16.5076   1
   7   3  25 19.4303 16.2428  -3
   7   2  25 19.4303 16.2428  -2
   7   3  25 19.4303 16.2428   1
   8   3  25 213.342 18.7366  -3
   8   2  25 213.342 18.7366  -2
   8   3  25 213.342 18.7366   1
   8   3  25 192.847 26.9031  -2
   8   3  25 192.847 26.9031   1
   8   3  25 256.003 17.7477  -3
   8   4  25 256.003 17.7477  -2
   8   3  25 256.003 17.7477   1
   9   3  25 37.1543 31.1469  -3
   9   2  25 37.1543 31.1469  -2
   9   3  25 37.1543 31.1469   1
   9   3  25 -8.4511 11.9074  -2
   9   3  25 -8.4511 11.9074   1
   9   4  25 9.95197 27.3885  -3
   9   3  25 9.95197 27.3885  -2
   9   3  25 9.95197 27.3885   1
   9   3  25 3.62316 29.2687  -3
   9   4  25 3.62316 29.2687  -2
   9   3  25 3.62316 29.2687   1
  10   3  25 136.482 33.1891  -3
  10   2  25 136.482 33.1891  -2
  10   3  25 136.482 33.1891   1
   0   4  25 275.714 26.1161  -3
   0   4  25 275.714 26.1161   1
   1   4  25 925.501 23.4137  -3
   1   4  25 925.501 23.4137   1
   2   4  25 11.9353 7.78313  -3
   2   4  25 11.9353 7.78313   1
   2   4  25 -1.4986 24.9118  -3
   2   4  25 -1.4986 24.9118  -2
   2   4  25 -1.4986 24.9118   1
   3   4  25 122.840 8.61229  -3
   3   4  25 122.840 8.61229   1
   3   4  25 134.536 17.1260  -3
   3   4  25 134.536 17.1260  -2
   3   4  25 134.536 17.1260   1
   4   4  25 503.672 13.9930  -3
   4   4  25 503.672 13.9930   1
   4   4  25 550.561 34.2425  -3
   4   4  25 550.561 34.2425  -2
   4   4  25 550.561 34.2425   1
   5   4  25 70.3937 8.77381  -3
   5   4  25 70.3937 8.77381   1
   5   4  25 89.9859 21.1673  -3
   5   3  25 89.9859 21.1673  -2
   5   4  25 89.9859 21.1673   1
   5   4  25 93.4500 34.0800  -3
   5   5  25 93.4500 34.0800  -2
   5   4  25 93.4500 34.0800   1
   5   4  25 182.673 36.6876  -3
   5   4  25 182.673 36.6876  -2
   5   4  25 182.673 36.6876   1
   6   4  25 352.018 40.6647  -3
   6   4  25 352.018 40.6647  -2
   6   4  25 352.018 40.6647   1
   6   4  25 321.244 19.4117  -3
   6   4  25 321.244 19.4117   1
   6   4  25 335.883 23.7672  -3
   6   5  25 335.883 23.7672  -2
   6   4  25 335.883 23.7672   1
   6   4  25 362.147 25.4300  -3
   6   3  25 362.147 25.4300  -2
   6   4  25 362.147 25.4300   1
   7   4  25 48.6261 17.4726  -3
   7   3  25 48.6261 17.4726  -2
   7   4  25 48.6261 17.4726   1
   7   4  25 31.5549 16.4399  -3
   7   5  25 31.5549 16.4399  -2
   7   4  25 31.5549 16.4399   1
   8   4  25 876.974 38.0157  -3
   8   3  25 876.974 38.0157  -2
   8   4  25 876.974 38.0157   1
   8   4  25 760.618 35.5822  -2
   8   4  25 760.618 35.5822   1
   8   4  25 906.683 37.6107  -3
   8   5  25 906.683 37.6107  -2
   8   4  25 906.683 37.6107   1
   9   4  25 1.74716 31.2808  -3
   9   5  25 1.74716 31.2808  -2
   9   4  25 1.74716 31.2808   1
   9   4  25 25.5270 32.5867  -3
   9   3  25 25.5270 32.5867  -2
   9   4  25 25.5270 32.5867   1
   9   3  25 5.86450 11.7006  -2
   9   4  25 5.86450 11.7006   1
   9   4  25 7.50351 12.8220  -2
   9   4  25 7.50351 12.8220   1
   0   5  25 6.23641 15.0310   1
   1   5  25 2.35299 8.89489  -3
   1   5  25 2.35299 8.89489   1
   2   5  25 581.592 37.3354  -3
   2   5  25 581.592 37.3354  -2
   2   5  25 581.592 37.3354   1
   2   5  25 513.782 14.6719  -3
   2   5  25 513.782 14.6719   1
   3   5  25 353.204 13.0016  -3
   3   5  25 353.204 13.0016   1
   3   5  25 376.530 31.3257  -3
   3   5  25 376.530 31.3257  -2
   3   5  25 376.530 31.3257   1
   4   5  25 1757.87 41.1882  -3
   4   5  25 1757.87 41.1882   1
   4   5  25 2153.79 85.7895  -3
   4   5  25 2153.79 85.7895  -2
   4   5  25 2153.79 85.7895   1
   5   5  25 212.451 10.9885  -3
   5   5  25 212.451 10.9885   1
   5   5  25 311.103 41.3165  -3
   5   5  25 311.103 41.3165  -2
   5   5  25 311.103 41.3165   1
   5   5  25 187.629 29.9533  -3
   5   4  25 187.629 29.9533  -2
   5   5  25 187.629 29.9533   1
   6   5  25 267.355 30.7726  -3
   6   4  25 267.355 30.7726  -2
   6   5  25 267.355 30.7726   1
   6   5  25 242.168 16.6802  -3
   6   5  25 242.168 16.6802   1
   6   5  25 296.692 40.7654  -3
   6   6  25 296.692 40.7654  -2
   6   5  25 296.692 40.7654   1
   6   5  25 230.360 32.0720  -2
   6   5  25 230.360 32.0720   1
   7   5  25 85.2249 18.8190  -2
   7   5  25 85.2249 18.8190   1
   7   5  25 97.6837 17.5210  -3
   7   6  25 97.6837 17.5210  -2
   7   5  25 97.6837 17.5210   1
   7   5  25 42.4578 18.8025  -3
   7   4  25 42.4578 18.8025  -2
   7   5  25 42.4578 18.8025   1
   8   5  25 149.890 17.1074  -2
   8   5  25 149.890 17.1074   1
   8   5  25 241.515 38.4657  -3
   8   6  25 241.515 38.4657  -2
   8   5  25 241.515 38.4657   1
   8   5  25 240.297 20.4353  -3
   8   4  25 240.297 20.4353  -2
   8   5  25 240.297 20.4353   1
   9   5  25 70.4743 34.0488  -3
   9   6  25 70.4743 34.0488  -2
   9   5  25 70.4743 34.0488   1
   9   5  25 33.1433 33.6809  -3
   9   4  25 33.1433 33.6809  -2
   9   5  25 33.1433 33.6809   1
   9   4  25 8.97315 12.9829  -2
   9   5  25 8.97315 12.9829   1
   9   5  25 49.6658 14.6338  -2
   9   5  25 49.6658 14.6338   1
   0   6  25 76.0683 14.3081  -3
   0   6  25 76.0683 14.3081   1
   1   6  25 40.1669 8.32715  -3
   1   6  25 40.1669 8.32715   1
   2   6  25 437.000 49.1567  -3
   2   6  25 437.000 49.1567  -2
   2   6  25 437.000 49.1567   1
   2   6  25 381.558 11.7840  -3
   2   6  25 381.558 11.7840   1
   3   6  25 3656.91 111.262  -3
   3   6  25 3656.91 111.262  -2
   3   6  25 3656.91 111.262   1
   3   6  25 3051.70 69.8562  -3
   3   6  25 3051.70 69.8562   1
   4   6  25 283.879 11.1214  -3
   4   6  25 283.879 11.1214   1
   4   6  25 353.710 46.0943  -3
   4   6  25 353.710 46.0943  -2
   4   6  25 353.710 46.0943   1
   5   6  25 606.688 19.5840  -3
   5   6  25 606.688 19.5840   1
   5   6  25 607.897 48.4280  -2
   5   6  25 607.897 48.4280   1
   5   6  25 671.098 54.6695  -3
   5   6  25 671.098 54.6695  -2
   5   6  25 671.098 54.6695   1
   6   6  25 637.119 43.8652  -3
   6   5  25 637.119 43.8652  -2
   6   6  25 637.119 43.8652   1
   6   6  25 596.656 26.5065  -3
   6   6  25 596.656 26.5065   1
   6   6  25 592.728 32.4916  -2
   6   6  25 592.728 32.4916   1
   7   6  25 501.177 27.8515  -3
   7   7  25 501.177 27.8515  -2
   7   6  25 501.177 27.8515   1
   7   6  25 494.159 28.7026  -2
   7   6  25 494.159 28.7026   1
   7   6  25 519.649 37.6192  -3
   7   5  25 519.649 37.6192  -2
   7   6  25 519.649 37.6192   1
   8   6  25 -15.490 19.6967  -3
   8   5  25 -15.490 19.6967  -2
   8   6  25 -15.490 19.6967   1
   8   6  25 24.3341 14.9985  -2
   8   6  25 24.3341 14.9985   1
   8   6  25 4.99489 33.9417  -3
   8   7  25 4.99489 33.9417  -2
   8   6  25 4.99489 33.9417   1
   9   5  25 303.690 23.5627  -2
   9   6  25 303.690 23.5627   1
   9   6  25 358.985 42.2450  -3
   9   7  25 358.985 42.2450  -2
   9   6  25 358.985 42.2450   1
   9   6  25 277.068 20.0179  -2
   9   6  25 277.068 20.0179   1
   0   7  25 0.13647 8.09490   1
   1   7  25 2219.14 37.5794  -3
   1   7  25 2219.14 37.5794   1
   2   7  25 2192.13 37.1464  -3
   2   7  25 2192.13 37.1464   1
   3   7  25 2974.14 69.1355  -3
   3   7  25 2974.14 69.1355   1
   3   7  25 2877.98 157.874  -3
   3   7  25 2877.98 157.874  -2
   3   7  25 2877.98 157.874   1
   4   7  25 2457.89 51.8675  -3
   4   7  25 2457.89 51.8675   1
   4   7  25 2681.59 148.580  -3
   4   7  25 2681.59 148.580  -2
   4   7  25 2681.59 148.580   1
   4   7  25 2619.99 133.933  -2
   4   7  25 2619.99 133.933   1
   5   7  25 454.969 16.6263  -3
   5   7  25 454.969 16.6263   1
   5   7  25 436.535 29.7047  -2
   5   7  25 436.535 29.7047   1
   6   7  25 -12.363 8.21891  -3
   6   7  25 -12.363 8.21891   1
   6   7  25 -16.529 19.5689  -2
   6   7  25 -16.529 19.5689   1
   7   7  25 -12.382 13.8345  -3
   7   7  25 -12.382 13.8345   1
   7   7  25 1.06175 27.8332  -2
   7   7  25 1.06175 27.8332   1
   7   7  25 31.9973 25.0373  -3
   7   6  25 31.9973 25.0373  -2
   7   7  25 31.9973 25.0373   1
   8   7  25 117.380 15.7498  -3
   8   7  25 117.380 15.7498   1
   8   7  25 118.779 20.1242  -2
   8   7  25 118.779 20.1242   1
   9   6  25 93.8875 18.4280  -2
   9   7  25 93.8875 18.4280   1
   9   7  25 60.9378 15.1138  -2
   9   7  25 60.9378 15.1138   1
   9   7  25 49.5041 29.7985  -3
   9   7  25 49.5041 29.7985   1
   0   8  25 227.801 12.8378  -3
   0   8  25 227.801 12.8378   1
   1   8  25 1964.79 31.1484  -3
   1   8  25 1964.79 31.1484   1
   2   8  25 227.948 9.40851  -3
   2   8  25 227.948 9.40851   1
   3   8  25 55.3144 8.10729  -3
   3   8  25 55.3144 8.10729   1
   3   8  25 52.7213 38.5255  -3
   3   8  25 52.7213 38.5255  -2
   3   8  25 52.7213 38.5255   1
   4   8  25 1219.87 29.2300  -3
   4   8  25 1219.87 29.2300   1
   4   8  25 1213.60 76.0459  -2
   4   8  25 1213.60 76.0459   1
   5   8  25 185.947 10.2376  -3
   5   8  25 185.947 10.2376   1
   5   8  25 160.334 32.5868  -2
   5   8  25 160.334 32.5868   1
   6   8  25 40.7944 12.4886  -3
   6   8  25 40.7944 12.4886   1
   6   8  25 59.4337 21.4485  -2
   6   8  25 59.4337 21.4485   1
   7   8  25 17.0491 11.7450  -3
   7   8  25 17.0491 11.7450   1
   7   8  25 -11.512 27.7685  -2
   7   8  25 -11.512 27.7685   1
   8   8  25 232.490 19.4889  -3
   8   8  25 232.490 19.4889   1
   8   8  25 286.807 35.2656  -2
   8   8  25 286.807 35.2656   1
   9   8  25 40.1394 27.9156  -2
   9   8  25 40.1394 27.9156   1
   9   8  25 50.7948 30.8975  -3
   9   8  25 50.7948 30.8975   1
   0   9  25 -10.151 7.58495   1
   1   9  25 35.1055 8.11205  -3
   1   9  25 35.1055 8.11205   1
   2   9  25 188.569 9.61901  -3
   2   9  25 188.569 9.61901   1
   3   9  25 286.590 10.4234  -3
   3   9  25 286.590 10.4234   1
   4   9  25 50.1592 10.1518  -3
   4   9  25 50.1592 10.1518   1
   5   9  25 967.444 24.1495  -3
   5   9  25 967.444 24.1495   1
   5   9  25 947.506 64.7325  -2
   5   9  25 947.506 64.7325   1
   6   9  25 434.047 41.2203  -2
   6   9  25 434.047 41.2203   1
   6   9  25 437.950 18.3292  -3
   6   9  25 437.950 18.3292   1
   7   9  25 230.033 34.8569  -2
   7   9  25 230.033 34.8569   1
   7   9  25 240.427 18.2726  -3
   7   9  25 240.427 18.2726   1
   8   9  25 750.947 53.9693  -2
   8   9  25 750.947 53.9693   1
   8   9  25 788.979 36.3686  -3
   8   9  25 788.979 36.3686   1
   9   9  25 36.8876 29.3395  -2
   9   9  25 36.8876 29.3395   1
   0  10  25 4596.71 89.6965  -3
   0  10  25 4596.71 89.6965   1
   1  10  25 385.414 12.5564  -3
   1  10  25 385.414 12.5564   1
   2  10  25 41.2502 8.79285  -3
   2  10  25 41.2502 8.79285   1
   3  10  25 63.4556 10.7317  -3
   3  10  25 63.4556 10.7317   1
   4  10  25 177.635 11.6808  -3
   4  10  25 177.635 11.6808   1
   5  10  25 337.826 14.0143  -3
   5  10  25 337.826 14.0143   1
   6  10  25 79.6567 12.4391  -3
   6  10  25 79.6567 12.4391   1
   6  10  25 41.6839 29.2367  -2
   6  10  25 41.6839 29.2367   1
   7  10  25 17.7210 15.2634  -3
   7  10  25 17.7210 15.2634   1
   7  10  25 -1.7166 29.5984  -2
   7  10  25 -1.7166 29.5984   1
   8  10  25 11.9822 14.4549  -3
   8  10  25 11.9822 14.4549   1
   8  10  25 38.5457 31.5883  -2
   8  10  25 38.5457 31.5883   1
   9  10  25 447.584 42.1070  -2
   9  10  25 447.584 42.1070   1
   9  10  25 400.880 42.0130  -3
   9  10  25 400.880 42.0130   1
  10  10  25 32.0463 9.98937   1
   0  11  25 -9.0908 6.72981   1
   1  11  25 142.953 12.8110  -3
   1  11  25 142.953 12.8110   1
   2  11  25 5.38991 12.3877  -3
   2  11  25 5.38991 12.3877   1
   3  11  25 46.0945 10.2939  -3
   3  11  25 46.0945 10.2939   1
   4  11  25 38.3268 10.2738  -3
   4  11  25 38.3268 10.2738   1
   5  11  25 217.081 12.6399  -3
   5  11  25 217.081 12.6399   1
   6  11  25 0.94974 14.8143  -3
   6  11  25 0.94974 14.8143   1
   7  11  25 255.292 19.2720  -3
   7  11  25 255.292 19.2720   1
   8  11  25 422.709 43.0887  -2
   8  11  25 422.709 43.0887   1
   8  11  25 470.983 46.0318  -3
   8  11  25 470.983 46.0318   1
   9  11  25 14.5605 32.8781  -3
   9  11  25 14.5605 32.8781   1
  10  11  25 1335.09 68.8712   1
   0  12  25 113.912 15.3044  -3
   0  12  25 113.912 15.3044   1
   1  12  25 1399.50 30.0471  -3
   1  12  25 1399.50 30.0471   1
   2  12  25 11.5722 12.2743  -3
   2  12  25 11.5722 12.2743   1
   3  12  25 390.218 17.9382  -3
   3  12  25 390.218 17.9382   1
   4  12  25 56.7336 14.1035  -3
   4  12  25 56.7336 14.1035   1
   5  12  25 1.55068 16.1518  -3
   5  12  25 1.55068 16.1518   1
   6  12  25 20.5578 14.8461  -3
   6  12  25 20.5578 14.8461   1
   7  12  25 148.666 19.5629  -3
   7  12  25 148.666 19.5629   1
   8  12  25 281.441 41.1507  -3
   8  12  25 281.441 41.1507   1
   0  13  25 -3.2902 6.71035   1
   1  13  25 41.9651 13.6114  -3
   1  13  25 41.9651 13.6114   1
   2  13  25 16.0249 13.6728  -3
   2  13  25 16.0249 13.6728   1
   3  13  25 34.6685 14.4979  -3
   3  13  25 34.6685 14.4979   1
   4  13  25 29.3402 13.3338  -3
   4  13  25 29.3402 13.3338   1
   5  13  25 22.7545 17.3526  -3
   5  13  25 22.7545 17.3526   1
   6  13  25 8.87212 17.3024  -3
   6  13  25 8.87212 17.3024   1
   7  13  25 -24.722 17.6307  -3
   7  13  25 -24.722 17.6307   1
   8  14  24 38.7974 36.2604  -2
   8  13  25 38.7974 36.2604   1
   8  13  25 -15.542 33.9526  -3
   8  13  25 -15.542 33.9526   1
   0  14  25 315.377 28.3264  -3
   0  14  25 315.377 28.3264   1
   1  14  25 0.06706 16.1956  -3
   1  14  25 0.06706 16.1956   1
   2  14  25 200.123 20.8224  -3
   2  14  25 200.123 20.8224   1
   3  14  25 17.1187 15.1696  -3
   3  14  25 17.1187 15.1696   1
   4  14  25 37.8017 21.6211  -3
   4  14  25 37.8017 21.6211   1
   5  14  25 46.9667 21.3755  -3
   5  14  25 46.9667 21.3755   1
   6  14  25 86.9973 20.9955  -3
   6  14  25 86.9973 20.9955   1
   7  14  25 11.8605 34.2835  -3
   7  14  25 11.8605 34.2835   1
   8  14  25 49.9279 8.44439   1
   0  15  25 15.0427 6.57927   1
   1  15  25 29.0487 18.5800  -3
   1  15  25 29.0487 18.5800   1
   2  15  25 39.8613 5.05326   1
   3  15  25 189.086 44.9385  -3
   3  15  25 189.086 44.9385   1
   4  15  25 232.952 42.6617  -3
   4  15  25 232.952 42.6617   1
   5  15  25 26.1288 37.2549  -3
   5  15  25 26.1288 37.2549   1
   6  15  25 179.331 8.85116   1
   7  15  25 66.7181 6.27308   1
   8  15  25 17.6502 8.34488   1
   0  16  25 34.8058 8.48828   1
   1  16  25 1571.22 28.9056   1
   2  16  25 16.3268 4.81263   1
   3  16  25 32.2468 5.39365   1
   4  16  25 126.393 7.38046   1
   5  16  25 320.745 10.1340   1
   6  16  25 433.022 12.9275   1
   7  16  25 32.3380 6.30492   1
   8  16  25 84.3518 23.9327   1
   0  17  25 8.42606 7.38791   1
   1  17  25 109.061 7.21081   1
   2  17  25 29.9891 5.76231   1
   3  17  25 33.6954 5.60132   1
   4  17  25 57.8132 5.99456   1
   5  17  25 1001.74 21.1545   1
   6  17  25 14.0098 5.98793   1
   7  17  25 95.7930 9.40246   1
   8  17  25 -15.604 16.4372   1
   0  18  25 227.855 14.4420   1
   1  18  25 7.21584 5.26816   1
   2  18  25 154.580 8.74747   1
   3  18  25 9.56382 5.54254   1
   4  18  25 206.524 9.44743   1
   5  18  25 227.754 8.84943   1
   6  18  25 35.6215 8.03641   1
   7  18  25 50.6297 8.85929   1
   0  19  25 -3.1021 7.61143   1
   1  19  25 1.92778 5.19613   1
   2  19  25 11.3679 5.88885   1
   3  19  25 54.8175 6.45105   1
   4  19  25 142.229 8.43265   1
   5  19  25 49.4626 6.86331   1
   6  19  25 82.0074 13.2874   1
   7  19  25 219.015 23.1164   1
   0  20  25 75.3000 10.3495   1
   1  20  25 139.167 8.95605   1
   2  20  25 182.400 10.0690   1
   3  20  25 -1.4899 5.36899   1
   4  20  25 20.2941 7.62190   1
   5  20  25 26.2065 7.05581   1
   6  20  25 136.775 18.5428   1
   7  20  25 -6.2324 17.9809   1
   0  21  25 -4.0147 8.31396   1
   1  21  25 288.951 11.9836   1
   2  21  25 9.34921 7.62052   1
   3  21  25 11.6049 7.41215   1
   4  21  25 20.6752 10.8059   1
   5  21  25 397.532 18.5251   1
   6  21  25 227.063 34.9228   1
   7  21  25 169.451 32.0487   1
   0  22  25 125.670 15.7849   1
   1  22  25 45.0234 7.83464   1
   2  22  25 7.96487 10.9850   1
   3  22  25 82.4038 11.7294   1
   4  22  25 32.7457 11.1461   1
   5  22  25 112.209 12.4137   1
   6  22  25 251.914 52.2053   1
   0  23  25 6.22866 11.3341   1
   1  23  25 131.608 13.1094   1
   2  23  25 52.4230 17.4299   1
   3  23  25 240.937 21.6012   1
   4  23  25 17.1931 15.0072   1
   0  24  25 112.453 15.3158   1
   3  24  25 799.567 71.0598   1
   0  25  25 -3.9455 19.6627   1
   1   0  26 1097.16 61.1946  -3
   1   0  26 1097.16 61.1946   1
   2   0  26 1524.86 42.3594  -3
   2   0  26 1524.86 42.3594   1
   2   0  26 1571.05 65.8469  -3
   2   0  26 1571.05 65.8469  -2
   2   0  26 1571.05 65.8469   1
   3   0  26 9.86411 17.9307  -3
   3   0  26 9.86411 17.9307  -2
   3   0  26 9.86411 17.9307   1
   3   0  26 15.7093 10.9724  -3
   3   0  26 15.7093 10.9724   1
   4   0  26 5692.29 296.069  -3
   4   1  26 5692.29 296.069  -2
   4   0  26 5692.29 296.069   1
   4   0  26 6070.51 313.751  -3
   4   0  26 6070.51 313.751  -2
   4   0  26 6070.51 313.751   1
   4   0  26 6288.05 305.521  -3
   4   0  26 6288.05 305.521   1
   5   0  26 44.9610 12.3633  -3
   5   1  26 44.9610 12.3633  -2
   5   0  26 44.9610 12.3633   1
   5   0  26 55.3161 29.2903  -3
   5   0  26 55.3161 29.2903  -2
   5   0  26 55.3161 29.2903   1
   6   0  26 113.234 17.9605  -3
   6   1  26 113.234 17.9605  -2
   6   0  26 113.234 17.9605   1
   7   0  26 363.158 22.6206  -3
   7   1  26 363.158 22.6206  -2
   7   0  26 363.158 22.6206   1
   8   0  26 1970.41 74.1586  -3
   8   1  26 1970.41 74.1586  -2
   8   0  26 1970.41 74.1586   1
   9   0  26 25.1839 27.0288  -3
   9   1  26 25.1839 27.0288  -2
   9   0  26 25.1839 27.0288   1
   9   1  26 40.4479 28.7341  -3
   9   0  26 40.4479 28.7341  -2
   9   0  26 40.4479 28.7341   1
   1   1  26 28.5573 20.3510  -3
   1   1  26 28.5573 20.3510   1
   2   1  26 55.0880 15.7455  -3
   2   1  26 55.0880 15.7455  -2
   2   1  26 55.0880 15.7455   1
   2   1  26 56.4491 7.96062  -3
   2   1  26 56.4491 7.96062   1
   3   1  26 66.6537 13.5855  -3
   3   1  26 66.6537 13.5855  -2
   3   1  26 66.6537 13.5855   1
   3   1  26 47.3021 8.17659  -3
   3   1  26 47.3021 8.17659   1
   4   1  26 251.222 16.2140  -3
   4   1  26 251.222 16.2140   1
   4   1  26 261.139 35.1540  -3
   4   2  26 261.139 35.1540  -2
   4   1  26 261.139 35.1540   1
   4   1  26 270.847 26.2110  -3
   4   1  26 270.847 26.2110  -2
   4   1  26 270.847 26.2110   1
   4   1  26 513.171 45.6066  -3
   4   0  26 513.171 45.6066  -2
   4   1  26 513.171 45.6066   1
   5   1  26 403.959 25.6889  -3
   5   2  26 403.959 25.6889  -2
   5   1  26 403.959 25.6889   1
   5   1  26 281.767 36.9972  -3
   5   1  26 281.767 36.9972  -2
   5   1  26 281.767 36.9972   1
   5   1  26 351.147 25.0967  -3
   5   0  26 351.147 25.0967  -2
   5   1  26 351.147 25.0967   1
   5   1  26 267.097 18.7967  -3
   5   1  26 267.097 18.7967   1
   6   1  26 303.133 22.1609  -3
   6   2  26 303.133 22.1609  -2
   6   1  26 303.133 22.1609   1
   6   1  26 296.008 21.8944  -3
   6   0  26 296.008 21.8944  -2
   6   1  26 296.008 21.8944   1
   7   1  26 69.0480 15.9058  -3
   7   2  26 69.0480 15.9058  -2
   7   1  26 69.0480 15.9058   1
   7   1  26 100.930 16.6411  -3
   7   0  26 100.930 16.6411  -2
   7   1  26 100.930 16.6411   1
   8   1  26 385.412 21.1440  -3
   8   2  26 385.412 21.1440  -2
   8   1  26 385.412 21.1440   1
   8   1  26 385.409 21.5850  -3
   8   0  26 385.409 21.5850  -2
   8   1  26 385.409 21.5850   1
   9   1  26 72.0237 28.8083  -3
   9   2  26 72.0237 28.8083  -2
   9   1  26 72.0237 28.8083   1
   9   0  26 95.5266 29.9114  -3
   9   1  26 95.5266 29.9114  -2
   9   1  26 95.5266 29.9114   1
   9   1  26 43.0802 27.9954  -3
   9   0  26 43.0802 27.9954  -2
   9   1  26 43.0802 27.9954   1
   0   2  26 728.760 44.7237  -3
   0   2  26 728.760 44.7237   1
   1   2  26 2173.22 66.5119  -3
   1   2  26 2173.22 66.5119   1
   2   2  26 500.076 13.4339  -3
   2   2  26 500.076 13.4339   1
   2   2  26 528.511 20.6194  -3
   2   2  26 528.511 20.6194  -2
   2   2  26 528.511 20.6194   1
   3   2  26 100.272 10.1838  -3
   3   2  26 100.272 10.1838   1
   3   2  26 119.296 15.0423  -3
   3   2  26 119.296 15.0423  -2
   3   2  26 119.296 15.0423   1
   4   2  26 234.731 24.1177  -3
   4   1  26 234.731 24.1177  -2
   4   2  26 234.731 24.1177   1
   4   2  26 263.204 26.5593  -3
   4   2  26 263.204 26.5593  -2
   4   2  26 263.204 26.5593   1
   4   2  26 241.284 17.1465  -3
   4   2  26 241.284 17.1465   1
   5   2  26 522.046 22.3157  -3
   5   1  26 522.046 22.3157  -2
   5   2  26 522.046 22.3157   1
   5   2  26 541.232 22.1483  -3
   5   3  26 541.232 22.1483  -2
   5   2  26 541.232 22.1483   1
   5   2  26 533.185 32.2965  -3
   5   2  26 533.185 32.2965  -2
   5   2  26 533.185 32.2965   1
   6   2  26 96.3449 9.50059  -3
   6   1  26 96.3449 9.50059  -2
   6   2  26 96.3449 9.50059   1
   6   2  26 122.439 19.4099  -3
   6   3  26 122.439 19.4099  -2
   6   2  26 122.439 19.4099   1
   6   2  26 -9.7892 31.7787  -3
   6   2  26 -9.7892 31.7787  -2
   6   2  26 -9.7892 31.7787   1
   7   2  26 73.3422 16.8852  -3
   7   1  26 73.3422 16.8852  -2
   7   2  26 73.3422 16.8852   1
   7   2  26 80.2275 16.5886  -3
   7   3  26 80.2275 16.5886  -2
   7   2  26 80.2275 16.5886   1
   8   2  26 607.513 28.5862  -3
   8   3  26 607.513 28.5862  -2
   8   2  26 607.513 28.5862   1
   8   2  26 646.553 30.3735  -3
   8   1  26 646.553 30.3735  -2
   8   2  26 646.553 30.3735   1
   9   2  26 -8.1412 29.3756  -3
   9   1  26 -8.1412 29.3756  -2
   9   2  26 -8.1412 29.3756   1
   9   1  26 20.6536 29.0674  -3
   9   2  26 20.6536 29.0674  -2
   9   2  26 20.6536 29.0674   1
   9   2  26 74.4281 30.0071  -3
   9   3  26 74.4281 30.0071  -2
   9   2  26 74.4281 30.0071   1
   0   3  26 -6.1865 19.0260   1
   1   3  26 1310.76 38.0225  -3
   1   3  26 1310.76 38.0225   1
   2   3  26 462.119 26.2759  -3
   2   3  26 462.119 26.2759  -2
   2   3  26 462.119 26.2759   1
   2   3  26 448.076 12.7675  -3
   2   3  26 448.076 12.7675   1
   3   3  26 211.332 10.2389  -3
   3   3  26 211.332 10.2389   1
   3   3  26 212.065 20.5151  -3
   3   3  26 212.065 20.5151  -2
   3   3  26 212.065 20.5151   1
   4   3  26 2843.01 155.277  -3
   4   4  26 2843.01 155.277  -2
   4   3  26 2843.01 155.277   1
   4   3  26 2959.51 107.669  -3
   4   3  26 2959.51 107.669   1
   4   3  26 3445.19 184.011  -3
   4   3  26 3445.19 184.011  -2
   4   3  26 3445.19 184.011   1
   4   3  26 2863.69 147.765  -3
   4   2  26 2863.69 147.765  -2
   4   3  26 2863.69 147.765   1
   5   3  26 61.4842 20.1011  -3
   5   4  26 61.4842 20.1011  -2
   5   3  26 61.4842 20.1011   1
   5   3  26 32.1180 20.2254  -3
   5   2  26 32.1180 20.2254  -2
   5   3  26 32.1180 20.2254   1
   5   3  26 49.1511 22.5789  -3
   5   3  26 49.1511 22.5789  -2
   5   3  26 49.1511 22.5789   1
   6   3  26 288.017 15.0917  -3
   6   2  26 288.017 15.0917  -2
   6   3  26 288.017 15.0917   1
   6   3  26 246.369 21.9393  -3
   6   4  26 246.369 21.9393  -2
   6   3  26 246.369 21.9393   1
   6   3  26 296.751 38.6892  -3
   6   3  26 296.751 38.6892  -2
   6   3  26 296.751 38.6892   1
   7   3  26 160.591 19.3898  -3
   7   2  26 160.591 19.3898  -2
   7   3  26 160.591 19.3898   1
   7   3  26 178.152 18.9961  -3
   7   4  26 178.152 18.9961  -2
   7   3  26 178.152 18.9961   1
   8   3  26 174.687 16.3751  -3
   8   4  26 174.687 16.3751  -2
   8   3  26 174.687 16.3751   1
   8   3  26 223.967 19.3790  -3
   8   2  26 223.967 19.3790  -2
   8   3  26 223.967 19.3790   1
   8   3  26 148.883 26.0963  -2
   8   3  26 148.883 26.0963   1
   9   3  26 255.964 25.4475  -2
   9   3  26 255.964 25.4475   1
   9   3  26 317.283 17.6129  -3
   9   2  26 317.283 17.6129  -2
   9   3  26 317.283 17.6129   1
   9   3  26 324.993 37.8823  -3
   9   4  26 324.993 37.8823  -2
   9   3  26 324.993 37.8823   1
   0   4  26 174.160 23.6066  -3
   0   4  26 174.160 23.6066   1
   1   4  26 20.6676 9.70101  -3
   1   4  26 20.6676 9.70101   1
   2   4  26 686.676 16.6318  -3
   2   4  26 686.676 16.6318   1
   2   4  26 828.722 61.1959  -3
   2   4  26 828.722 61.1959  -2
   2   4  26 828.722 61.1959   1
   3   4  26 1066.87 25.4438  -3
   3   4  26 1066.87 25.4438   1
   3   4  26 1114.55 51.3917  -3
   3   4  26 1114.55 51.3917  -2
   3   4  26 1114.55 51.3917   1
   4   4  26 84.1396 25.5347  -3
   4   4  26 84.1396 25.5347  -2
   4   4  26 84.1396 25.5347   1
   4   4  26 79.0005 10.3602  -3
   4   4  26 79.0005 10.3602   1
   5   4  26 21.6687 20.6490  -3
   5   3  26 21.6687 20.6490  -2
   5   4  26 21.6687 20.6490   1
   5   4  26 47.7881 11.6421  -3
   5   4  26 47.7881 11.6421   1
   5   4  26 45.2268 34.6142  -3
   5   4  26 45.2268 34.6142  -2
   5   4  26 45.2268 34.6142   1
   5   4  26 11.9285 33.6754  -3
   5   5  26 11.9285 33.6754  -2
   5   4  26 11.9285 33.6754   1
   6   4  26 241.628 14.0492  -3
   6   3  26 241.628 14.0492  -2
   6   4  26 241.628 14.0492   1
   6   4  26 203.395 36.9220  -3
   6   4  26 203.395 36.9220  -2
   6   4  26 203.395 36.9220   1
   6   4  26 201.038 21.7034  -3
   6   5  26 201.038 21.7034  -2
   6   4  26 201.038 21.7034   1
   7   4  26 98.0090 17.8688  -3
   7   5  26 98.0090 17.8688  -2
   7   4  26 98.0090 17.8688   1
   7   4  26 129.502 19.2189  -3
   7   3  26 129.502 19.2189  -2
   7   4  26 129.502 19.2189   1
   7   4  26 109.217 26.9524  -2
   7   4  26 109.217 26.9524   1
   8   4  26 34.2300 17.0238  -3
   8   3  26 34.2300 17.0238  -2
   8   4  26 34.2300 17.0238   1
   8   4  26 71.3427 14.2764  -3
   8   5  26 71.3427 14.2764  -2
   8   4  26 71.3427 14.2764   1
   8   4  26 91.7930 17.8746  -2
   8   4  26 91.7930 17.8746   1
   9   4  26 55.6806 12.8293  -3
   9   3  26 55.6806 12.8293  -2
   9   4  26 55.6806 12.8293   1
   9   4  26 32.1516 33.0801  -3
   9   5  26 32.1516 33.0801  -2
   9   4  26 32.1516 33.0801   1
   9   4  26 23.7991 16.7962  -2
   9   4  26 23.7991 16.7962   1
   0   5  26 3.75252 16.1208   1
   1   5  26 18.4666 8.93126  -3
   1   5  26 18.4666 8.93126   1
   2   5  26 1105.52 24.6952  -3
   2   5  26 1105.52 24.6952   1
   3   5  26 1534.44 65.6448  -3
   3   5  26 1534.44 65.6448  -2
   3   5  26 1534.44 65.6448   1
   3   5  26 1417.14 34.7880  -3
   3   5  26 1417.14 34.7880   1
   4   5  26 139.055 9.02370  -3
   4   5  26 139.055 9.02370   1
   4   5  26 145.027 38.4544  -3
   4   5  26 145.027 38.4544  -2
   4   5  26 145.027 38.4544   1
   5   5  26 169.883 38.2567  -3
   5   5  26 169.883 38.2567  -2
   5   5  26 169.883 38.2567   1
   5   5  26 250.117 31.5667  -3
   5   4  26 250.117 31.5667  -2
   5   5  26 250.117 31.5667   1
   5   5  26 232.887 13.2390  -3
   5   5  26 232.887 13.2390   1
   6   5  26 179.377 22.7186  -3
   6   4  26 179.377 22.7186  -2
   6   5  26 179.377 22.7186   1
   6   5  26 104.150 20.6586  -3
   6   6  26 104.150 20.6586  -2
   6   5  26 104.150 20.6586   1
   6   5  26 171.688 14.9823  -3
   6   5  26 171.688 14.9823   1
   6   5  26 159.819 37.1568  -3
   6   5  26 159.819 37.1568  -2
   6   5  26 159.819 37.1568   1
   7   5  26 48.7340 18.6339  -3
   7   4  26 48.7340 18.6339  -2
   7   5  26 48.7340 18.6339   1
   7   5  26 44.4967 17.6149  -3
   7   6  26 44.4967 17.6149  -2
   7   5  26 44.4967 17.6149   1
   7   5  26 47.2399 19.1907  -2
   7   5  26 47.2399 19.1907   1
   8   5  26 18.6312 16.9700  -3
   8   4  26 18.6312 16.9700  -2
   8   5  26 18.6312 16.9700   1
   8   5  26 -21.475 17.0585  -2
   8   5  26 -21.475 17.0585   1
   8   5  26 -9.3827 33.1871  -3
   8   6  26 -9.3827 33.1871  -2
   8   5  26 -9.3827 33.1871   1
   9   5  26 1.81771 13.6959  -3
   9   4  26 1.81771 13.6959  -2
   9   5  26 1.81771 13.6959   1
   9   5  26 9.06839 13.1482  -2
   9   5  26 9.06839 13.1482   1
   9   5  26 47.7729 33.9956  -3
   9   6  26 47.7729 33.9956  -2
   9   5  26 47.7729 33.9956   1
   0   6  26 400.117 20.3554  -3
   0   6  26 400.117 20.3554   1
   1   6  26 111.725 9.12769  -3
   1   6  26 111.725 9.12769   1
   2   6  26 919.319 21.3121  -3
   2   6  26 919.319 21.3121   1
   3   6  26 178.759 10.4394  -3
   3   6  26 178.759 10.4394   1
   3   6  26 225.330 28.5772  -3
   3   6  26 225.330 28.5772  -2
   3   6  26 225.330 28.5772   1
   4   6  26 117.354 8.39689  -3
   4   6  26 117.354 8.39689   1
   4   6  26 114.319 40.4798  -3
   4   6  26 114.319 40.4798  -2
   4   6  26 114.319 40.4798   1
   5   6  26 695.987 20.3422  -3
   5   6  26 695.987 20.3422   1
   5   6  26 786.919 60.7122  -3
   5   6  26 786.919 60.7122  -2
   5   6  26 786.919 60.7122   1
   5   6  26 758.733 54.8552  -2
   5   6  26 758.733 54.8552   1
   6   6  26 110.543 13.5418  -3
   6   6  26 110.543 13.5418   1
   6   6  26 153.572 28.1964  -3
   6   5  26 153.572 28.1964  -2
   6   6  26 153.572 28.1964   1
   6   6  26 139.649 21.9886  -2
   6   6  26 139.649 21.9886   1
   6   6  26 155.791 38.1869  -3
   6   7  26 155.791 38.1869  -2
   6   6  26 155.791 38.1869   1
   7   6  26 11.3353 18.0761  -3
   7   7  26 11.3353 18.0761  -2
   7   6  26 11.3353 18.0761   1
   7   6  26 -0.8331 18.8115  -2
   7   6  26 -0.8331 18.8115   1
   7   6  26 10.8534 22.9333  -3
   7   5  26 10.8534 22.9333  -2
   7   6  26 10.8534 22.9333   1
   8   6  26 22.7274 18.6494  -2
   8   6  26 22.7274 18.6494   1
   8   6  26 -15.107 20.3306  -3
   8   5  26 -15.107 20.3306  -2
   8   6  26 -15.107 20.3306   1
   8   6  26 54.6842 36.6780  -3
   8   7  26 54.6842 36.6780  -2
   8   6  26 54.6842 36.6780   1
   9   6  26 52.5048 14.9787  -2
   9   6  26 52.5048 14.9787   1
   9   6  26 73.7995 16.1671  -3
   9   5  26 73.7995 16.1671  -2
   9   6  26 73.7995 16.1671   1
   9   6  26 9.92980 35.4114  -3
   9   7  26 9.92980 35.4114  -2
   9   6  26 9.92980 35.4114   1
   0   7  26 14.6609 8.41145   1
   1   7  26 2186.78 37.2349  -3
   1   7  26 2186.78 37.2349   1
   2   7  26 378.127 13.0583  -3
   2   7  26 378.127 13.0583   1
   3   7  26 1660.82 45.1432  -3
   3   7  26 1660.82 45.1432   1
   3   7  26 1744.91 73.0727  -3
   3   7  26 1744.91 73.0727  -2
   3   7  26 1744.91 73.0727   1
   4   7  26 1201.93 29.8680  -3
   4   7  26 1201.93 29.8680   1
   4   7  26 1380.17 87.6173  -3
   4   7  26 1380.17 87.6173  -2
   4   7  26 1380.17 87.6173   1
   4   7  26 1194.83 74.9883  -2
   4   7  26 1194.83 74.9883   1
   5   7  26 316.032 13.9072  -3
   5   7  26 316.032 13.9072   1
   5   7  26 308.694 26.3206  -2
   5   7  26 308.694 26.3206   1
   6   7  26 109.509 9.70257  -3
   6   7  26 109.509 9.70257   1
   6   7  26 44.9564 21.5213  -2
   6   7  26 44.9564 21.5213   1
   7   7  26 1.52265 19.7462  -2
   7   7  26 1.52265 19.7462   1
   7   7  26 20.8554 15.3333  -3
   7   7  26 20.8554 15.3333   1
   7   7  26 -1.2477 26.2050  -3
   7   6  26 -1.2477 26.2050  -2
   7   7  26 -1.2477 26.2050   1
   8   7  26 68.1160 19.9283  -2
   8   7  26 68.1160 19.9283   1
   8   7  26 109.853 23.8192  -3
   8   6  26 109.853 23.8192  -2
   8   7  26 109.853 23.8192   1
   8   7  26 48.8525 30.6111  -3
   8   7  26 48.8525 30.6111   1
   9   6  26 16.7704 18.4553  -2
   9   7  26 16.7704 18.4553   1
   9   7  26 16.5291 14.4237  -2
   9   7  26 16.5291 14.4237   1
   9   7  26 23.5276 30.0791  -3
   9   7  26 23.5276 30.0791   1
   0   8  26 7655.48 171.879  -3
   0   8  26 7655.48 171.879   1
   1   8  26 843.446 16.7640  -3
   1   8  26 843.446 16.7640   1
   2   8  26 10.6454 8.44914  -3
   2   8  26 10.6454 8.44914   1
   3   8  26 38.6597 7.93353  -3
   3   8  26 38.6597 7.93353   1
   3   8  26 18.6568 38.7448  -3
   3   8  26 18.6568 38.7448  -2
   3   8  26 18.6568 38.7448   1
   4   8  26 141.258 11.3913  -3
   4   8  26 141.258 11.3913   1
   5   8  26 530.095 18.2853  -3
   5   8  26 530.095 18.2853   1
   5   8  26 509.290 32.6700  -2
   5   8  26 509.290 32.6700   1
   6   8  26 96.2785 9.99016  -3
   6   8  26 96.2785 9.99016   1
   6   8  26 99.4735 22.5160  -2
   6   8  26 99.4735 22.5160   1
   7   8  26 28.1895 12.1931  -3
   7   8  26 28.1895 12.1931   1
   7   8  26 26.1308 29.3580  -2
   7   8  26 26.1308 29.3580   1
   8   8  26 109.671 31.0856  -2
   8   8  26 109.671 31.0856   1
   8   8  26 149.811 17.6546  -3
   8   8  26 149.811 17.6546   1
   9   7  26 193.206 23.3379  -2
   9   8  26 193.206 23.3379   1
   9   8  26 236.335 32.5369  -2
   9   8  26 236.335 32.5369   1
   9   8  26 252.410 36.3235  -3
   9   8  26 252.410 36.3235   1
   0   9  26 -8.9124 8.01384   1
   1   9  26 346.729 11.2850  -3
   1   9  26 346.729 11.2850   1
   2   9  26 53.9820 9.32124  -3
   2   9  26 53.9820 9.32124   1
   3   9  26 156.840 9.12827  -3
   3   9  26 156.840 9.12827   1
   4   9  26 196.869 11.6758  -3
   4   9  26 196.869 11.6758   1
   5   9  26 25.3768 9.32199  -3
   5   9  26 25.3768 9.32199   1
   5   9  26 28.0818 31.7846  -2
   5   9  26 28.0818 31.7846   1
   6   9  26 95.1932 12.8390  -3
   6   9  26 95.1932 12.8390   1
   6   9  26 41.2770 31.1776  -2
   6   9  26 41.2770 31.1776   1
   7   9  26 109.963 16.4100  -3
   7   9  26 109.963 16.4100   1
   7   9  26 67.8401 31.3197  -2
   7   9  26 67.8401 31.3197   1
   8   9  26 79.6973 17.6935  -3
   8   9  26 79.6973 17.6935   1
   8   9  26 80.9078 31.2135  -2
   8   9  26 80.9078 31.2135   1
   9   9  26 19.5145 12.3543   1
  10   9  26 28.5479 10.1865   1
   0  10  26 341.711 15.1668  -3
   0  10  26 341.711 15.1668   1
   1  10  26 165.754 10.7697  -3
   1  10  26 165.754 10.7697   1
   2  10  26 862.398 19.9993  -3
   2  10  26 862.398 19.9993   1
   3  10  26 18.3360 10.4400  -3
   3  10  26 18.3360 10.4400   1
   4  10  26 66.6340 11.0729  -3
   4  10  26 66.6340 11.0729   1
   5  10  26 94.5925 10.5977  -3
   5  10  26 94.5925 10.5977   1
   6  10  26 95.1704 12.8859  -3
   6  10  26 95.1704 12.8859   1
   6  10  26 33.9444 31.0328  -2
   6  10  26 33.9444 31.0328   1
   7  10  26 232.050 18.9082  -3
   7  10  26 232.050 18.9082   1
   7  10  26 280.492 37.9775  -2
   7  10  26 280.492 37.9775   1
   8  10  26 30.5320 17.1376  -3
   8  10  26 30.5320 17.1376   1
   8  10  26 109.807 33.1109  -2
   8  10  26 109.807 33.1109   1
   9  10  26 8.99421 12.8081   1
  10  10  26 962.659 50.9965   1
   0  11  26 2.88827 6.78468   1
   1  11  26 88.6151 11.5827  -3
   1  11  26 88.6151 11.5827   1
   2  11  26 -5.3935 12.1726  -3
   2  11  26 -5.3935 12.1726   1
   3  11  26 68.0352 10.7451  -3
   3  11  26 68.0352 10.7451   1
   4  11  26 68.2585 11.7335  -3
   4  11  26 68.2585 11.7335   1
   5  11  26 193.283 12.3606  -3
   5  11  26 193.283 12.3606   1
   6  11  26 86.8008 16.1383  -3
   6  11  26 86.8008 16.1383   1
   7  11  26 146.133 17.1557  -3
   7  11  26 146.133 17.1557   1
   8  11  26 81.6122 34.3337  -2
   8  11  26 81.6122 34.3337   1
   8  11  26 53.0590 43.1554  -3
   8  12  25 53.0590 43.1554  -2
   8  11  26 53.0590 43.1554   1
   8  11  26 51.2759 33.2132  -3
   8  11  26 51.2759 33.2132   1
   0  12  26 243.538 18.5715  -3
   0  12  26 243.538 18.5715   1
   1  12  26 114.977 13.8478  -3
   1  12  26 114.977 13.8478   1
   2  12  26 200.304 14.4028  -3
   2  12  26 200.304 14.4028   1
   3  12  26 252.812 16.4514  -3
   3  12  26 252.812 16.4514   1
   4  12  26 207.496 16.4467  -3
   4  12  26 207.496 16.4467   1
   5  12  26 16.2746 13.5803  -3
   5  12  26 16.2746 13.5803   1
   6  12  26 43.9761 15.6409  -3
   6  12  26 43.9761 15.6409   1
   7  12  26 -5.5055 17.5820  -3
   7  12  26 -5.5055 17.5820   1
   8  12  26 64.8699 34.4324  -3
   8  12  26 64.8699 34.4324   1
   8  13  25 67.7903 37.1121  -2
   8  12  26 67.7903 37.1121   1
   0  13  26 -12.223 6.77645   1
   1  13  26 72.1058 16.7122  -3
   1  13  26 72.1058 16.7122   1
   2  13  26 -3.4140 12.9815  -3
   2  13  26 -3.4140 12.9815   1
   3  13  26 164.385 16.1417  -3
   3  13  26 164.385 16.1417   1
   4  13  26 224.958 16.9435  -3
   4  13  26 224.958 16.9435   1
   5  13  26 25.4602 17.5662  -3
   5  13  26 25.4602 17.5662   1
   6  13  26 30.7996 18.4444  -3
   6  13  26 30.7996 18.4444   1
   7  13  26 78.4843 18.7908  -3
   7  13  26 78.4843 18.7908   1
   8  13  26 281.799 41.4334  -3
   8  13  26 281.799 41.4334   1
   0  14  26 74.2873 23.7735  -3
   0  14  26 74.2873 23.7735   1
   1  14  26 0.10581 16.6584  -3
   1  14  26 0.10581 16.6584   1
   2  14  26 27.6025 21.4719  -3
   2  14  26 27.6025 21.4719   1
   3  14  26 52.9600 15.6096  -3
   3  14  26 52.9600 15.6096   1
   4  14  26 91.8777 19.5964  -3
   4  14  26 91.8777 19.5964   1
   5  14  26 161.728 23.0325  -3
   5  14  26 161.728 23.0325   1
   6  14  26 -5.9739 18.6830  -3
   6  14  26 -5.9739 18.6830   1
   7  14  26 11.9417 35.2892  -3
   7  14  26 11.9417 35.2892   1
   8  14  26 47.8597 9.34002   1
   0  15  26 -6.3087 6.34989   1
   1  15  26 123.486 24.8389  -3
   1  15  26 123.486 24.8389   1
   2  15  26 32.7455 5.10238   1
   3  15  26 48.8380 28.2826  -3
   3  15  26 48.8380 28.2826   1
   4  15  26 76.5927 40.8019  -3
   4  15  26 76.5927 40.8019   1
   5  15  26 79.6014 39.7658  -3
   5  15  26 79.6014 39.7658   1
   6  15  26 250.980 10.1495   1
   7  15  26 16.4207 5.77353   1
   8  15  26 59.4138 14.2073   1
   0  16  26 398.568 18.1210   1
   1  16  26 17.5175 5.04713   1
   2  16  26 29.5793 5.69097   1
   3  16  26 29.9661 5.45918   1
   4  16  26 9.39165 5.13934   1
   5  16  26 822.321 18.3839   1
   6  16  26 254.980 10.2971   1
   7  16  26 7.68348 6.70921   1
   8  16  26 162.534 30.6473   1
   0  17  26 -13.093 7.29465   1
   1  17  26 209.550 8.81283   1
   2  17  26 110.469 7.76195   1
   3  17  26 43.4638 5.85326   1
   4  17  26 433.974 12.9291   1
   5  17  26 147.706 7.50896   1
   6  17  26 277.248 13.2116   1
   7  17  26 396.297 18.9744   1
   0  18  26 7.27650 8.10171   1
   1  18  26 81.7558 6.54507   1
   2  18  26 53.5342 6.50461   1
   3  18  26 21.4526 5.78610   1
   4  18  26 12.7311 5.42741   1
   5  18  26 45.1703 6.68768   1
   6  18  26 41.2102 10.0356   1
   7  18  26 16.9541 13.4129   1
   0  19  26 6.35905 7.91626   1
   1  19  26 26.8087 6.11968   1
   2  19  26 177.433 9.77892   1
   3  19  26 173.872 9.07483   1
   4  19  26 43.0714 7.59606   1
   5  19  26 29.9483 6.60451   1
   6  19  26 210.282 19.1278   1
   7  19  26 -0.9614 17.9306   1
   0  20  26 23.1976 9.00117   1
   1  20  26 3.94018 6.00557   1
   2  20  26 11.3113 6.99728   1
   3  20  26 5.07466 7.72965   1
   4  20  26 144.447 11.3986   1
   5  20  26 241.428 13.3924   1
   6  20  26 241.913 33.8712   1
   7  20  26 -12.658 18.7227   1
   0  21  26 10.6831 8.47993   1
   1  21  26 187.332 11.2205   1
   2  21  26 100.825 10.5873   1
   3  21  26 11.2775 9.98980   1
   4  21  26 23.4969 10.3659   1
   5  21  26 141.660 13.0563   1
   6  21  26 13.9283 21.0010   1
   0  22  26 174.784 18.1336   1
   1  22  26 20.7608 9.00660   1
   2  22  26 -5.4571 11.3435   1
   3  22  26 246.641 17.2942   1
   4  22  26 30.7285 15.4312   1
   5  22  26 186.925 37.3229   1
   0  23  26 -7.9006 11.2784   1
   1  23  26 166.227 18.4839   1
   3  23  26 0.74283 9.92733   1
   4  23  26 -3.2411 20.9340   1
   0  24  26 309.447 22.5776   1
   2   0  27 11.8624 6.54377   1
   3   0  27 -7.0040 7.69197   1
   4   0  27 6.43893 30.8028   1
   1   1  27 359.250 26.6409   1
   2   1  27 342.361 27.8568  -3
   2   1  27 342.361 27.8568  -2
   2   1  27 342.361 27.8568   1
   2   1  27 338.322 11.3301  -3
   2   1  27 338.322 11.3301   1
   3   1  27 14.2402 9.96812  -3
   3   1  27 14.2402 9.96812   1
   3   1  27 20.4022 15.4290  -3
   3   1  27 20.4022 15.4290  -2
   3   1  27 20.4022 15.4290   1
   4   1  27 650.761 35.3129  -3
   4   1  27 650.761 35.3129  -2
   4   1  27 650.761 35.3129   1
   4   1  27 766.819 37.4152  -3
   4   2  27 766.819 37.4152  -2
   4   1  27 766.819 37.4152   1
   4   1  27 603.304 49.6413  -3
   4   1  27 603.304 49.6413   1
   5   1  27 1432.57 45.6782  -3
   5   1  27 1432.57 45.6782   1
   5   1  27 1372.20 83.0865  -3
   5   1  27 1372.20 83.0865  -2
   5   1  27 1372.20 83.0865   1
   5   1  27 1417.37 45.3328  -3
   5   2  27 1417.37 45.3328  -2
   5   1  27 1417.37 45.3328   1
   6   1  27 164.540 10.9890  -3
   6   1  27 164.540 10.9890   1
   6   1  27 164.032 20.0451  -3
   6   2  27 164.032 20.0451  -2
   6   1  27 164.032 20.0451   1
   7   1  27 50.7434 16.7574  -3
   7   1  27 50.7434 16.7574   1
   7   1  27 16.6565 15.9802  -3
   7   2  27 16.6565 15.9802  -2
   7   1  27 16.6565 15.9802   1
   8   1  27 297.630 19.7317  -3
   8   2  27 297.630 19.7317  -2
   8   1  27 297.630 19.7317   1
   8   1  27 295.196 19.3974  -3
   8   1  27 295.196 19.3974   1
   9   1  27 25.1524 9.96551  -3
   9   1  27 25.1524 9.96551   1
   9   1  27 31.0361 28.2814  -3
   9   2  27 31.0361 28.2814  -2
   9   1  27 31.0361 28.2814   1
   1   2  27 57.7069 13.7443  -3
   1   2  27 57.7069 13.7443   1
   2   2  27 57.9018 8.34344  -3
   2   2  27 57.9018 8.34344   1
   2   2  27 49.7011 23.4195  -3
   2   2  27 49.7011 23.4195  -2
   2   2  27 49.7011 23.4195   1
   3   2  27 505.454 17.8674  -3
   3   2  27 505.454 17.8674   1
   3   2  27 493.536 49.6346  -3
   3   1  27 493.536 49.6346  -2
   3   2  27 493.536 49.6346   1
   3   2  27 556.330 33.3275  -3
   3   2  27 556.330 33.3275  -2
   3   2  27 556.330 33.3275   1
   4   2  27 2022.43 76.4354  -3
   4   1  27 2022.43 76.4354  -2
   4   2  27 2022.43 76.4354   1
   4   2  27 2374.03 131.996  -3
   4   3  27 2374.03 131.996  -2
   4   2  27 2374.03 131.996   1
   4   2  27 2076.43 82.8799  -3
   4   2  27 2076.43 82.8799  -2
   4   2  27 2076.43 82.8799   1
   5   2  27 1327.08 43.1898  -3
   5   3  27 1327.08 43.1898  -2
   5   2  27 1327.08 43.1898   1
   5   2  27 1439.35 46.2883  -3
   5   1  27 1439.35 46.2883  -2
   5   2  27 1439.35 46.2883   1
   5   2  27 1316.79 80.6104  -3
   5   2  27 1316.79 80.6104  -2
   5   2  27 1316.79 80.6104   1
   6   2  27 51.0478 10.2550  -3
   6   1  27 51.0478 10.2550  -2
   6   2  27 51.0478 10.2550   1
   6   2  27 45.9409 31.7984  -3
   6   2  27 45.9409 31.7984  -2
   6   2  27 45.9409 31.7984   1
   6   2  27 55.0375 18.9307  -3
   6   3  27 55.0375 18.9307  -2
   6   2  27 55.0375 18.9307   1
   7   2  27 573.033 29.5577  -3
   7   1  27 573.033 29.5577  -2
   7   2  27 573.033 29.5577   1
   7   2  27 547.651 28.3281  -3
   7   3  27 547.651 28.3281  -2
   7   2  27 547.651 28.3281   1
   8   2  27 148.224 16.2122  -3
   8   3  27 148.224 16.2122  -2
   8   2  27 148.224 16.2122   1
   8   2  27 115.453 15.6745  -3
   8   1  27 115.453 15.6745  -2
   8   2  27 115.453 15.6745   1
   9   2  27 103.895 31.3825  -3
   9   3  27 103.895 31.3825  -2
   9   2  27 103.895 31.3825   1
   9   2  27 58.6633 11.0853  -3
   9   1  27 58.6633 11.0853  -2
   9   2  27 58.6633 11.0853   1
   0   3  27 -17.154 20.3099   1
   1   3  27 12.8544 11.9611  -3
   1   3  27 12.8544 11.9611   1
   2   3  27 412.955 12.5009  -3
   2   3  27 412.955 12.5009   1
   3   3  27 198.629 12.1902  -3
   3   3  27 198.629 12.1902   1
   3   3  27 172.741 40.6408  -3
   3   2  27 172.741 40.6408  -2
   3   3  27 172.741 40.6408   1
   3   3  27 244.642 26.8788  -3
   3   3  27 244.642 26.8788  -2
   3   3  27 244.642 26.8788   1
   4   3  27 6109.86 217.505  -3
   4   2  27 6109.86 217.505  -2
   4   3  27 6109.86 217.505   1
   4   3  27 5892.42 216.323  -3
   4   3  27 5892.42 216.323  -2
   4   3  27 5892.42 216.323   1
   4   3  27 5288.30 276.537  -3
   4   4  27 5288.30 276.537  -2
   4   3  27 5288.30 276.537   1
   4   3  27 5394.44 262.973  -3
   4   3  27 5394.44 262.973   1
   5   3  27 122.386 14.3075  -3
   5   2  27 122.386 14.3075  -2
   5   3  27 122.386 14.3075   1
   5   3  27 -0.7770 11.7949  -3
   5   4  27 -0.7770 11.7949  -2
   5   3  27 -0.7770 11.7949   1
   5   3  27 41.3305 33.4050  -3
   5   3  27 41.3305 33.4050  -2
   5   3  27 41.3305 33.4050   1
   6   3  27 550.298 21.7280  -3
   6   2  27 550.298 21.7280  -2
   6   3  27 550.298 21.7280   1
   6   3  27 502.915 28.6390  -3
   6   4  27 502.915 28.6390  -2
   6   3  27 502.915 28.6390   1
   6   3  27 500.511 46.6561  -3
   6   3  27 500.511 46.6561  -2
   6   3  27 500.511 46.6561   1
   7   3  27 20.2109 17.3798  -3
   7   4  27 20.2109 17.3798  -2
   7   3  27 20.2109 17.3798   1
   7   3  27 30.7109 17.5448  -3
   7   2  27 30.7109 17.5448  -2
   7   3  27 30.7109 17.5448   1
   8   3  27 688.201 31.8001  -3
   8   4  27 688.201 31.8001  -2
   8   3  27 688.201 31.8001   1
   8   3  27 667.230 46.4470  -2
   8   3  27 667.230 46.4470   1
   8   3  27 684.439 32.5117  -3
   8   2  27 684.439 32.5117  -2
   8   3  27 684.439 32.5117   1
   9   4  27 33.3859 30.0965  -3
   9   3  27 33.3859 30.0965  -2
   9   3  27 33.3859 30.0965   1
   9   3  27 -2.0546 11.9104  -3
   9   2  27 -2.0546 11.9104  -2
   9   3  27 -2.0546 11.9104   1
   9   3  27 20.9764 17.8535  -2
   9   3  27 20.9764 17.8535   1
   9   3  27 50.7716 31.8785  -3
   9   4  27 50.7716 31.8785  -2
   9   3  27 50.7716 31.8785   1
   0   4  27 3579.01 130.126  -3
   0   4  27 3579.01 130.126   1
   1   4  27 239.450 12.1569  -3
   1   4  27 239.450 12.1569   1
   2   4  27 338.865 12.4228  -3
   2   4  27 338.865 12.4228   1
   3   4  27 363.061 30.4386  -3
   3   4  27 363.061 30.4386  -2
   3   4  27 363.061 30.4386   1
   3   4  27 265.472 11.3871  -3
   3   4  27 265.472 11.3871   1
   4   4  27 180.052 13.0108  -3
   4   4  27 180.052 13.0108   1
   4   4  27 253.962 28.1046  -3
   4   4  27 253.962 28.1046  -2
   4   4  27 253.962 28.1046   1
   4   4  27 496.884 48.0432  -3
   4   3  27 496.884 48.0432  -2
   4   4  27 496.884 48.0432   1
   5   4  27 9.34448 13.7371  -3
   5   3  27 9.34448 13.7371  -2
   5   4  27 9.34448 13.7371   1
   5   4  27 16.7987 33.3034  -3
   5   4  27 16.7987 33.3034  -2
   5   4  27 16.7987 33.3034   1
   5   4  27 2.79056 20.6067  -3
   5   5  27 2.79056 20.6067  -2
   5   4  27 2.79056 20.6067   1
   6   4  27 39.4494 19.3103  -3
   6   5  27 39.4494 19.3103  -2
   6   4  27 39.4494 19.3103   1
   6   4  27 78.4367 12.1875  -3
   6   3  27 78.4367 12.1875  -2
   6   4  27 78.4367 12.1875   1
   7   4  27 19.8516 17.3290  -3
   7   5  27 19.8516 17.3290  -2
   7   4  27 19.8516 17.3290   1
   7   4  27 -22.589 18.0045  -3
   7   3  27 -22.589 18.0045  -2
   7   4  27 -22.589 18.0045   1
   8   4  27 5.53098 15.0544  -3
   8   5  27 5.53098 15.0544  -2
   8   4  27 5.53098 15.0544   1
   8   4  27 60.2363 16.9034  -3
   8   3  27 60.2363 16.9034  -2
   8   4  27 60.2363 16.9034   1
   8   4  27 7.57637 23.1204  -2
   8   4  27 7.57637 23.1204   1
   9   4  27 298.205 38.6669  -3
   9   5  27 298.205 38.6669  -2
   9   4  27 298.205 38.6669   1
   9   4  27 285.045 19.5395  -3
   9   3  27 285.045 19.5395  -2
   9   4  27 285.045 19.5395   1
   9   4  27 251.437 25.6124  -2
   9   4  27 251.437 25.6124   1
   0   5  27 1.48607 14.3331   1
   1   5  27 631.413 17.0684  -3
   1   5  27 631.413 17.0684   1
   2   5  27 405.538 14.1070  -3
   2   5  27 405.538 14.1070   1
   3   5  27 103.238 9.94406  -3
   3   5  27 103.238 9.94406   1
   3   5  27 126.733 27.3753  -3
   3   5  27 126.733 27.3753  -2
   3   5  27 126.733 27.3753   1
   4   5  27 -7.4091 35.0131  -3
   4   5  27 -7.4091 35.0131  -2
   4   5  27 -7.4091 35.0131   1
   4   5  27 14.6072 7.98834  -3
   4   5  27 14.6072 7.98834   1
   5   5  27 80.6202 35.3227  -3
   5   5  27 80.6202 35.3227  -2
   5   5  27 80.6202 35.3227   1
   5   5  27 90.9525 10.1890  -3
   5   5  27 90.9525 10.1890   1
   5   5  27 83.4984 21.6161  -3
   5   4  27 83.4984 21.6161  -2
   5   5  27 83.4984 21.6161   1
   5   5  27 121.447 37.3307  -3
   5   6  27 121.447 37.3307  -2
   5   5  27 121.447 37.3307   1
   6   5  27 31.3070 20.3871  -3
   6   6  27 31.3070 20.3871  -2
   6   5  27 31.3070 20.3871   1
   6   5  27 36.1378 12.5062  -3
   6   4  27 36.1378 12.5062  -2
   6   5  27 36.1378 12.5062   1
   7   5  27 66.9268 18.5217  -3
   7   6  27 66.9268 18.5217  -2
   7   5  27 66.9268 18.5217   1
   7   5  27 31.8985 18.9682  -3
   7   4  27 31.8985 18.9682  -2
   7   5  27 31.8985 18.9682   1
   7   5  27 58.4443 27.9927  -2
   7   5  27 58.4443 27.9927   1
   8   5  27 61.8461 18.1091  -3
   8   4  27 61.8461 18.1091  -2
   8   5  27 61.8461 18.1091   1
   8   5  27 60.3986 18.9503  -2
   8   5  27 60.3986 18.9503   1
   8   5  27 68.4050 35.7769  -3
   8   6  27 68.4050 35.7769  -2
   8   5  27 68.4050 35.7769   1
   9   5  27 131.331 16.8372  -3
   9   4  27 131.331 16.8372  -2
   9   5  27 131.331 16.8372   1
   9   5  27 67.5725 18.3156  -2
   9   5  27 67.5725 18.3156   1
   9   5  27 83.7193 36.3486  -3
   9   6  27 83.7193 36.3486  -2
   9   5  27 83.7193 36.3486   1
   0   6  27 275.112 18.2374  -3
   0   6  27 275.112 18.2374   1
   1   6  27 714.594 17.1630  -3
   1   6  27 714.594 17.1630   1
   2   6  27 129.229 9.79559  -3
   2   6  27 129.229 9.79559   1
   3   6  27 20.9621 9.45868  -3
   3   6  27 20.9621 9.45868   1
   3   6  27 29.0308 27.5381  -3
   3   6  27 29.0308 27.5381  -2
   3   6  27 29.0308 27.5381   1
   4   6  27 38.9573 7.67391  -3
   4   6  27 38.9573 7.67391   1
   4   6  27 51.2423 39.7285  -3
   4   6  27 51.2423 39.7285  -2
   4   6  27 51.2423 39.7285   1
   5   6  27 200.154 39.1120  -3
   5   7  27 200.154 39.1120  -2
   5   6  27 200.154 39.1120   1
   5   6  27 114.781 9.57320  -3
   5   6  27 114.781 9.57320   1
   5   6  27 117.950 30.8250  -2
   5   6  27 117.950 30.8250   1
   5   6  27 136.257 39.5074  -3
   5   6  27 136.257 39.5074  -2
   5   6  27 136.257 39.5074   1
   6   6  27 36.3446 21.1351  -2
   6   6  27 36.3446 21.1351   1
   6   6  27 19.2295 26.7095  -3
   6   5  27 19.2295 26.7095  -2
   6   6  27 19.2295 26.7095   1
   6   6  27 0.54852 34.8998  -3
   6   7  27 0.54852 34.8998  -2
   6   6  27 0.54852 34.8998   1
   6   6  27 11.4445 11.8435  -3
   6   6  27 11.4445 11.8435   1
   7   6  27 127.399 20.7477  -2
   7   6  27 127.399 20.7477   1
   7   6  27 165.972 26.5064  -3
   7   5  27 165.972 26.5064  -2
   7   6  27 165.972 26.5064   1
   7   6  27 183.950 21.5602  -3
   7   7  27 183.950 21.5602  -2
   7   6  27 183.950 21.5602   1
   8   6  27 351.239 25.8111  -2
   8   6  27 351.239 25.8111   1
   8   6  27 493.582 48.6389  -3
   8   7  27 493.582 48.6389  -2
   8   6  27 493.582 48.6389   1
   8   6  27 438.729 27.3561  -3
   8   5  27 438.729 27.3561  -2
   8   6  27 438.729 27.3561   1
   9   6  27 59.4628 17.5218  -3
   9   5  27 59.4628 17.5218  -2
   9   6  27 59.4628 17.5218   1
   9   6  27 33.2460 14.8632  -2
   9   6  27 33.2460 14.8632   1
   9   6  27 61.3828 37.4183  -3
   9   7  27 61.3828 37.4183  -2
   9   6  27 61.3828 37.4183   1
   0   7  27 -3.0005 8.58630   1
   1   7  27 46.8704 8.27405  -3
   1   7  27 46.8704 8.27405   1
   2   7  27 460.517 16.1845  -3
   2   7  27 460.517 16.1845   1
   3   7  27 508.657 51.5979  -3
   3   7  27 508.657 51.5979  -2
   3   7  27 508.657 51.5979   1
   3   7  27 410.427 14.0116  -3
   3   7  27 410.427 14.0116   1
   4   7  27 -0.4596 7.69868  -3
   4   7  27 -0.4596 7.69868   1
   4   7  27 130.350 41.7636  -3
   4   7  27 130.350 41.7636  -2
   4   7  27 130.350 41.7636   1
   5   7  27 341.289 14.4912  -3
   5   7  27 341.289 14.4912   1
   5   7  27 381.775 29.1662  -2
   5   7  27 381.775 29.1662   1
   6   7  27 19.9535 8.92796  -3
   6   7  27 19.9535 8.92796   1
   6   7  27 -14.089 20.3573  -2
   6   7  27 -14.089 20.3573   1
   7   7  27 687.272 36.5917  -2
   7   7  27 687.272 36.5917   1
   7   7  27 770.313 50.1352  -3
   7   6  27 770.313 50.1352  -2
   7   7  27 770.313 50.1352   1
   7   7  27 749.170 34.4296  -3
   7   7  27 749.170 34.4296   1
   8   7  27 557.655 26.1986  -3
   8   7  27 557.655 26.1986   1
   8   7  27 514.019 30.3610  -2
   8   7  27 514.019 30.3610   1
   8   7  27 565.421 39.3972  -3
   8   6  27 565.421 39.3972  -2
   8   7  27 565.421 39.3972   1
   9   7  27 72.8129 20.9086  -3
   9   6  27 72.8129 20.9086  -2
   9   7  27 72.8129 20.9086   1
   9   7  27 29.6181 31.2373  -3
   9   7  27 29.6181 31.2373   1
   9   7  27 49.0616 28.1665  -2
   9   7  27 49.0616 28.1665   1
   0   8  27 509.573 18.9615  -3
   0   8  27 509.573 18.9615   1
   1   8  27 44.8312 8.77475  -3
   1   8  27 44.8312 8.77475   1
   2   8  27 220.253 12.0761  -3
   2   8  27 220.253 12.0761   1
   3   8  27 412.269 13.8916  -3
   3   8  27 412.269 13.8916   1
   3   8  27 489.884 53.1392  -3
   3   8  27 489.884 53.1392  -2
   3   8  27 489.884 53.1392   1
   4   8  27 -14.751 9.08149  -3
   4   8  27 -14.751 9.08149   1
   4   8  27 -51.291 31.6753  -2
   4   8  27 -51.291 31.6753   1
   5   8  27 64.9779 9.94766  -3
   5   8  27 64.9779 9.94766   1
   5   8  27 64.2089 23.6866  -2
   5   8  27 64.2089 23.6866   1
   6   8  27 10.0126 9.39408  -3
   6   8  27 10.0126 9.39408   1
   6   8  27 -4.1864 21.9997  -2
   6   8  27 -4.1864 21.9997   1
   7   8  27 1180.63 38.9759  -3
   7   8  27 1180.63 38.9759   1
   7   8  27 1233.93 76.9956  -2
   7   8  27 1233.93 76.9956   1
   8   8  27 -25.179 31.8496  -3
   8   8  27 -25.179 31.8496   1
   8   8  27 -11.450 25.1529  -3
   8   7  27 -11.450 25.1529  -2
   8   8  27 -11.450 25.1529   1
   8   8  27 -0.5627 28.4989  -2
   8   8  27 -0.5627 28.4989   1
  10   8  27 14.6974 8.48977   1
   0   9  27 1.69343 8.34524   1
   1   9  27 253.263 10.9106  -3
   1   9  27 253.263 10.9106   1
   2   9  27 3.56032 9.14959  -3
   2   9  27 3.56032 9.14959   1
   3   9  27 15.6345 7.98239  -3
   3   9  27 15.6345 7.98239   1
   4   9  27 -10.557 8.90755  -3
   4   9  27 -10.557 8.90755   1
   5   9  27 363.990 42.0262  -2
   5   9  27 363.990 42.0262   1
   5   9  27 332.234 13.9454  -3
   5   9  27 332.234 13.9454   1
   6   9  27 176.280 15.2594  -3
   6   9  27 176.280 15.2594   1
   6   9  27 130.867 34.6198  -2
   6   9  27 130.867 34.6198   1
   7   9  27 25.0395 16.5843  -3
   7   9  27 25.0395 16.5843   1
   7   9  27 16.7347 30.8700  -2
   7   9  27 16.7347 30.8700   1
   8   9  27 5.43875 16.6693  -3
   8   9  27 5.43875 16.6693   1
   8   9  27 62.1921 31.9055  -2
   8   9  27 62.1921 31.9055   1
   9   9  27 58.0265 13.7265   1
  10   9  27 255.405 19.1152   1
   0  10  27 39.8987 12.1526  -3
   0  10  27 39.8987 12.1526   1
   1  10  27 16.5052 9.86001  -3
   1  10  27 16.5052 9.86001   1
   2  10  27 47.8765 10.6471  -3
   2  10  27 47.8765 10.6471   1
   3  10  27 15.5166 9.49808  -3
   3  10  27 15.5166 9.49808   1
   4  10  27 -4.3267 10.7915  -3
   4  10  27 -4.3267 10.7915   1
   5  10  27 86.9708 10.8911  -3
   5  10  27 86.9708 10.8911   1
   6  10  27 42.9897 12.6661  -3
   6  10  27 42.9897 12.6661   1
   7  10  27 -0.4959 32.2463  -2
   7  10  27 -0.4959 32.2463   1
   7  10  27 28.9957 16.0654  -3
   7  10  27 28.9957 16.0654   1
   8  10  27 20.4206 17.2992  -3
   8  10  27 20.4206 17.2992   1
   8  10  27 31.8581 32.2658  -2
   8  10  27 31.8581 32.2658   1
   0  11  27 -10.171 6.79944   1
   1  11  27 70.0073 13.1678  -3
   1  11  27 70.0073 13.1678   1
   2  11  27 154.552 13.8975  -3
   2  11  27 154.552 13.8975   1
   3  11  27 9.64823 11.6088  -3
   3  11  27 9.64823 11.6088   1
   4  11  27 63.9807 11.7468  -3
   4  11  27 63.9807 11.7468   1
   5  11  27 19.1668 10.4530  -3
   5  11  27 19.1668 10.4530   1
   6  11  27 -2.7088 15.1755  -3
   6  11  27 -2.7088 15.1755   1
   7  11  27 9.65890 18.4484  -3
   7  11  27 9.65890 18.4484   1
   7  11  27 -34.025 32.3402  -2
   7  11  27 -34.025 32.3402   1
   8  11  27 28.8767 33.5436  -3
   8  11  27 28.8767 33.5436   1
   8  11  27 70.3082 34.8838  -2
   8  11  27 70.3082 34.8838   1
   0  12  27 84.0424 18.8166  -3
   0  12  27 84.0424 18.8166   1
   1  12  27 -6.2768 14.7178  -3
   1  12  27 -6.2768 14.7178   1
   2  12  27 127.221 13.9998  -3
   2  12  27 127.221 13.9998   1
   3  12  27 176.394 16.6309  -3
   3  12  27 176.394 16.6309   1
   4  12  27 219.553 16.7822  -3
   4  12  27 219.553 16.7822   1
   5  12  27 219.292 16.2420  -3
   5  12  27 219.292 16.2420   1
   6  12  27 87.9511 16.6648  -3
   6  12  27 87.9511 16.6648   1
   7  12  27 69.2393 18.7116  -3
   7  12  27 69.2393 18.7116   1
   8  12  27 -18.029 32.6769  -3
   8  12  27 -18.029 32.6769   1
   0  13  27 7.50346 6.70114   1
   1  13  27 30.3992 15.7471  -3
   1  13  27 30.3992 15.7471   1
   2  13  27 224.859 16.5335  -3
   2  13  27 224.859 16.5335   1
   3  13  27 483.899 20.3269  -3
   3  13  27 483.899 20.3269   1
   4  13  27 -4.5081 13.7910  -3
   4  13  27 -4.5081 13.7910   1
   5  13  27 -11.108 17.7106  -3
   5  13  27 -11.108 17.7106   1
   6  13  27 24.4766 18.5554  -3
   6  13  27 24.4766 18.5554   1
   7  13  27 852.645 40.2816  -3
   7  13  27 852.645 40.2816   1
   8  13  27 312.129 43.7000  -3
   8  13  27 312.129 43.7000   1
   0  14  27 63.8058 23.6997  -3
   0  14  27 63.8058 23.6997   1
   1  14  27 21.5081 19.6826  -3
   1  14  27 21.5081 19.6826   1
   2  14  27 22.3545 17.6194  -3
   2  14  27 22.3545 17.6194   1
   3  14  27 6.94666 19.7488  -3
   3  14  27 6.94666 19.7488   1
   4  14  27 913.678 48.6333  -3
   4  14  27 913.678 48.6333   1
   5  14  27 26.7918 21.7948  -3
   5  14  27 26.7918 21.7948   1
   6  14  27 206.375 22.5167  -3
   6  14  27 206.375 22.5167   1
   7  14  27 346.514 44.2852  -3
   7  14  27 346.514 44.2852   1
   8  14  27 195.105 18.3612   1
   0  15  27 -2.6981 6.97773   1
   1  15  27 37.8926 22.4739  -3
   1  15  27 37.8926 22.4739   1
   2  15  27 646.354 55.0903  -3
   2  15  27 646.354 55.0903   1
   3  15  27 178.399 31.7803  -3
   3  15  27 178.399 31.7803   1
   4  15  27 931.974 71.5199  -3
   4  15  27 931.974 71.5199   1
   5  15  27 487.627 53.2913  -3
   5  15  27 487.627 53.2913   1
   6  15  27 101.893 39.2373  -3
   6  15  27 101.893 39.2373   1
   7  15  27 333.934 46.1006  -3
   7  15  27 333.934 46.1006   1
   8  15  27 68.4902 22.2876   1
   0  16  27 1085.92 36.2657   1
   1  16  27 70.2304 24.9167  -3
   1  16  27 70.2304 24.9167   1
   2  16  27 193.860 9.28738   1
   3  16  27 0.04533 5.00783   1
   4  16  27 214.143 9.39434   1
   5  16  27 282.998 48.3213  -3
   5  16  27 282.998 48.3213   1
   6  16  27 4.70991 6.18546   1
   7  16  27 367.713 16.3485   1
   0  17  27 -7.3807 8.48796   1
   1  17  27 145.942 8.02050   1
   2  17  27 118.531 8.09544   1
   3  17  27 20.8454 5.65450   1
   4  17  27 199.981 9.28491   1
   5  17  27 207.483 8.96515   1
   6  17  27 214.121 17.7498   1
   7  17  27 21.4887 8.08925   1
   0  18  27 27.4163 8.44575   1
   1  18  27 3.15803 5.23156   1
   2  18  27 1.31747 5.75169   1
   3  18  27 42.5784 6.38584   1
   4  18  27 74.6750 7.21699   1
   5  18  27 105.620 8.74582   1
   6  18  27 294.731 21.0959   1
   7  18  27 85.2481 18.5066   1
   0  19  27 -5.1276 8.07023   1
   1  19  27 19.5926 5.99210   1
   2  19  27 140.326 9.33909   1
   3  19  27 128.100 8.32620   1
   4  19  27 112.076 10.0172   1
   5  19  27 17.0442 7.24920   1
   6  19  27 29.9400 22.1085   1
   7  19  27 337.434 39.6460   1
   0  20  27 614.687 24.3369   1
   1  20  27 164.798 10.7419   1
   2  20  27 87.0941 8.53796   1
   3  20  27 52.1510 8.85940   1
   4  20  27 581.243 26.1732   1
   5  20  27 226.565 14.5496   1
   6  20  27 241.711 34.6924   1
   7  20  27 10.3807 20.1472   1
   0  21  27 -3.6450 10.6324   1
   1  21  27 22.5747 7.77773   1
   2  21  27 8.39927 8.98423   1
   3  21  27 29.4037 10.6568   1
   4  21  27 606.006 27.5433   1
   5  21  27 32.9269 9.82674   1
   6  21  27 310.157 38.6991   1
   0  22  27 43.3489 12.6592   1
   1  22  27 9.28784 9.04158   1
   2  22  27 6.94802 11.5582   1
   3  22  27 67.6819 11.1950   1
   4  22  27 134.593 19.6870   1
   0  23  27 1.20224 11.3507   1
   3  23  27 49.1192 13.6653   1
   0  24  27 54.3060 21.4398   1
   2   0  28 557.072 46.8795  -3
   2   0  28 557.072 46.8795  -2
   2   0  28 557.072 46.8795   1
   2   0  28 516.197 19.7793  -3
   2   0  28 516.197 19.7793   1
   3   0  28 78.4925 32.5255  -3
   3   1  28 78.4925 32.5255  -2
   3   0  28 78.4925 32.5255   1
   3   0  28 46.4844 29.2785  -3
   3   0  28 46.4844 29.2785  -2
   3   0  28 46.4844 29.2785   1
   3   0  28 54.9204 17.6180  -3
   3   0  28 54.9204 17.6180   1
   4   0  28 175.134 33.6051  -3
   4   0  28 175.134 33.6051  -2
   4   0  28 175.134 33.6051   1
   4   0  28 234.568 34.9201  -3
   4   1  28 234.568 34.9201  -2
   4   0  28 234.568 34.9201   1
   5   0  28 5.27661 12.9119  -3
   5   1  28 5.27661 12.9119  -2
   5   0  28 5.27661 12.9119   1
   5   0  28 14.4348 30.3127  -3
   5   0  28 14.4348 30.3127  -2
   5   0  28 14.4348 30.3127   1
   6   0  28 458.678 18.6115  -3
   6   1  28 458.678 18.6115  -2
   6   0  28 458.678 18.6115   1
   7   0  28 187.495 19.2545  -3
   7   1  28 187.495 19.2545  -2
   7   0  28 187.495 19.2545   1
   8   0  28 74.4906 14.1581  -3
   8   1  28 74.4906 14.1581  -2
   8   0  28 74.4906 14.1581   1
   9   0  28 516.665 24.4069  -3
   9   1  28 516.665 24.4069  -2
   9   0  28 516.665 24.4069   1
   1   1  28 1873.73 102.154  -3
   1   1  28 1873.73 102.154   1
   2   1  28 55.3050 9.41561  -3
   2   1  28 55.3050 9.41561   1
   2   1  28 73.5136 22.6548  -3
   2   1  28 73.5136 22.6548  -2
   2   1  28 73.5136 22.6548   1
   3   1  28 162.069 23.5502  -3
   3   1  28 162.069 23.5502  -2
   3   1  28 162.069 23.5502   1
   3   1  28 244.341 37.6277  -3
   3   2  28 244.341 37.6277  -2
   3   1  28 244.341 37.6277   1
   3   1  28 174.963 35.4422  -3
   3   0  28 174.963 35.4422  -2
   3   1  28 174.963 35.4422   1
   3   1  28 210.816 17.3415  -3
   3   1  28 210.816 17.3415   1
   4   1  28 470.613 45.1359  -3
   4   0  28 470.613 45.1359  -2
   4   1  28 470.613 45.1359   1
   4   1  28 493.340 44.1932  -3
   4   2  28 493.340 44.1932  -2
   4   1  28 493.340 44.1932   1
   4   1  28 539.565 32.7630  -3
   4   1  28 539.565 32.7630  -2
   4   1  28 539.565 32.7630   1
   5   1  28 94.1122 33.2202  -3
   5   1  28 94.1122 33.2202  -2
   5   1  28 94.1122 33.2202   1
   5   1  28 48.9707 13.0438  -3
   5   2  28 48.9707 13.0438  -2
   5   1  28 48.9707 13.0438   1
   5   1  28 72.5808 13.7972  -3
   5   0  28 72.5808 13.7972  -2
   5   1  28 72.5808 13.7972   1
   6   1  28 339.526 15.3373  -3
   6   2  28 339.526 15.3373  -2
   6   1  28 339.526 15.3373   1
   6   1  28 352.866 16.5381  -3
   6   0  28 352.866 16.5381  -2
   6   1  28 352.866 16.5381   1
   7   1  28 661.710 31.8920  -3
   7   2  28 661.710 31.8920  -2
   7   1  28 661.710 31.8920   1
   7   1  28 636.163 31.8407  -3
   7   0  28 636.163 31.8407  -2
   7   1  28 636.163 31.8407   1
   8   1  28 73.8285 14.7931  -3
   8   2  28 73.8285 14.7931  -2
   8   1  28 73.8285 14.7931   1
   8   1  28 67.9765 14.5768  -3
   8   0  28 67.9765 14.5768  -2
   8   1  28 67.9765 14.5768   1
   9   1  28 76.9302 11.8892  -3
   9   0  28 76.9302 11.8892  -2
   9   1  28 76.9302 11.8892   1
   9   1  28 74.6009 10.5746  -3
   9   2  28 74.6009 10.5746  -2
   9   1  28 74.6009 10.5746   1
   1   2  28 1137.78 39.2906  -3
   1   2  28 1137.78 39.2906   1
   2   2  28 768.882 40.9024  -3
   2   2  28 768.882 40.9024  -2
   2   2  28 768.882 40.9024   1
   2   2  28 804.005 20.9981  -3
   2   2  28 804.005 20.9981   1
   3   2  28 121.914 11.0175  -3
   3   2  28 121.914 11.0175   1
   3   2  28 133.080 23.8578  -3
   3   2  28 133.080 23.8578  -2
   3   2  28 133.080 23.8578   1
   3   2  28 118.400 36.4909  -3
   3   1  28 118.400 36.4909  -2
   3   2  28 118.400 36.4909   1
   4   2  28 198.343 25.0197  -3
   4   2  28 198.343 25.0197  -2
   4   2  28 198.343 25.0197   1
   4   2  28 163.472 35.9627  -3
   4   3  28 163.472 35.9627  -2
   4   2  28 163.472 35.9627   1
   4   2  28 96.9619 36.3612  -3
   4   1  28 96.9619 36.3612  -2
   4   2  28 96.9619 36.3612   1
   5   2  28 71.8440 13.7541  -3
   5   1  28 71.8440 13.7541  -2
   5   2  28 71.8440 13.7541   1
   5   2  28 48.9604 12.8700  -3
   5   3  28 48.9604 12.8700  -2
   5   2  28 48.9604 12.8700   1
   5   2  28 67.0931 33.2606  -3
   5   2  28 67.0931 33.2606  -2
   5   2  28 67.0931 33.2606   1
   6   2  28 436.684 18.9113  -3
   6   1  28 436.684 18.9113  -2
   6   2  28 436.684 18.9113   1
   6   2  28 402.875 26.4824  -3
   6   3  28 402.875 26.4824  -2
   6   2  28 402.875 26.4824   1
   6   2  28 322.475 40.2075  -3
   6   2  28 322.475 40.2075  -2
   6   2  28 322.475 40.2075   1
   7   2  28 123.630 19.1713  -3
   7   1  28 123.630 19.1713  -2
   7   2  28 123.630 19.1713   1
   7   2  28 68.2256 17.9100  -3
   7   3  28 68.2256 17.9100  -2
   7   2  28 68.2256 17.9100   1
   8   2  28 32.2006 15.7663  -3
   8   1  28 32.2006 15.7663  -2
   8   2  28 32.2006 15.7663   1
   8   2  28 61.0757 14.8404  -3
   8   3  28 61.0757 14.8404  -2
   8   2  28 61.0757 14.8404   1
   9   2  28 38.7445 11.8414  -3
   9   1  28 38.7445 11.8414  -2
   9   2  28 38.7445 11.8414   1
   9   2  28 7.95365 10.1174  -3
   9   3  28 7.95365 10.1174  -2
   9   2  28 7.95365 10.1174   1
   0   3  28 -13.365 20.7101   1
   1   3  28 51.4304 14.1234  -3
   1   3  28 51.4304 14.1234   1
   2   3  28 1039.71 27.4386  -3
   2   3  28 1039.71 27.4386   1
   3   3  28 86.8142 25.0244  -3
   3   3  28 86.8142 25.0244  -2
   3   3  28 86.8142 25.0244   1
   3   3  28 53.8080 36.2471  -3
   3   2  28 53.8080 36.2471  -2
   3   3  28 53.8080 36.2471   1
   3   3  28 62.6186 12.3371  -3
   3   3  28 62.6186 12.3371   1
   4   3  28 379.610 29.2310  -3
   4   3  28 379.610 29.2310  -2
   4   3  28 379.610 29.2310   1
   4   3  28 427.839 38.6146  -3
   4   2  28 427.839 38.6146  -2
   4   3  28 427.839 38.6146   1
   4   3  28 451.947 45.2955  -3
   4   4  28 451.947 45.2955  -2
   4   3  28 451.947 45.2955   1
   5   3  28 133.930 36.0064  -3
   5   3  28 133.930 36.0064  -2
   5   3  28 133.930 36.0064   1
   5   3  28 62.4799 14.1379  -3
   5   2  28 62.4799 14.1379  -2
   5   3  28 62.4799 14.1379   1
   5   3  28 166.082 14.2588  -3
   5   4  28 166.082 14.2588  -2
   5   3  28 166.082 14.2588   1
   6   3  28 74.5313 11.9159  -3
   6   2  28 74.5313 11.9159  -2
   6   3  28 74.5313 11.9159   1
   6   3  28 45.7428 19.1909  -3
   6   4  28 45.7428 19.1909  -2
   6   3  28 45.7428 19.1909   1
   6   3  28 45.3664 34.5045  -3
   6   3  28 45.3664 34.5045  -2
   6   3  28 45.3664 34.5045   1
   7   3  28 21.6949 17.2202  -3
   7   2  28 21.6949 17.2202  -2
   7   3  28 21.6949 17.2202   1
   7   3  28 -5.2510 17.1838  -3
   7   4  28 -5.2510 17.1838  -2
   7   3  28 -5.2510 17.1838   1
   8   3  28 231.848 20.3405  -3
   8   2  28 231.848 20.3405  -2
   8   3  28 231.848 20.3405   1
   8   3  28 217.608 28.9133  -2
   8   3  28 217.608 28.9133   1
   8   3  28 288.208 20.0836  -3
   8   4  28 288.208 20.0836  -2
   8   3  28 288.208 20.0836   1
   9   3  28 83.3671 33.5093  -3
   9   4  28 83.3671 33.5093  -2
   9   3  28 83.3671 33.5093   1
   9   3  28 72.6095 13.5265  -3
   9   2  28 72.6095 13.5265  -2
   9   3  28 72.6095 13.5265   1
   0   4  28 61.0776 21.5703  -3
   0   4  28 61.0776 21.5703   1
   1   4  28 225.072 12.4201  -3
   1   4  28 225.072 12.4201   1
   2   4  28 1131.35 27.3117  -3
   2   4  28 1131.35 27.3117   1
   3   4  28 174.988 27.0713  -3
   3   4  28 174.988 27.0713  -2
   3   4  28 174.988 27.0713   1
   3   4  28 146.326 11.2185  -3
   3   4  28 146.326 11.2185   1
   4   4  28 295.992 42.0125  -3
   4   5  28 295.992 42.0125  -2
   4   4  28 295.992 42.0125   1
   4   4  28 325.020 29.1528  -3
   4   4  28 325.020 29.1528  -2
   4   4  28 325.020 29.1528   1
   4   4  28 266.185 21.0280  -3
   4   4  28 266.185 21.0280   1
   4   4  28 381.193 28.4840  -3
   4   3  28 381.193 28.4840  -2
   4   4  28 381.193 28.4840   1
   5   4  28 1829.28 106.641  -3
   5   4  28 1829.28 106.641  -2
   5   4  28 1829.28 106.641   1
   5   4  28 1650.05 66.2244  -3
   5   5  28 1650.05 66.2244  -2
   5   4  28 1650.05 66.2244   1
   5   4  28 1700.76 54.0374  -3
   5   3  28 1700.76 54.0374  -2
   5   4  28 1700.76 54.0374   1
   6   4  28 23.3736 11.7195  -3
   6   3  28 23.3736 11.7195  -2
   6   4  28 23.3736 11.7195   1
   6   4  28 -13.316 18.9435  -3
   6   5  28 -13.316 18.9435  -2
   6   4  28 -13.316 18.9435   1
   7   4  28 223.294 21.8514  -3
   7   3  28 223.294 21.8514  -2
   7   4  28 223.294 21.8514   1
   7   4  28 271.679 22.4198  -3
   7   5  28 271.679 22.4198  -2
   7   4  28 271.679 22.4198   1
   8   4  28 8.41719 15.4216  -3
   8   5  28 8.41719 15.4216  -2
   8   4  28 8.41719 15.4216   1
   8   4  28 54.1429 17.8493  -3
   8   3  28 54.1429 17.8493  -2
   8   4  28 54.1429 17.8493   1
   8   4  28 13.7656 24.6369  -2
   8   4  28 13.7656 24.6369   1
   9   4  28 6.76663 14.4828  -3
   9   3  28 6.76663 14.4828  -2
   9   4  28 6.76663 14.4828   1
   9   4  28 56.8950 34.5313  -3
   9   5  28 56.8950 34.5313  -2
   9   4  28 56.8950 34.5313   1
   9   4  28 39.1934 18.8577  -2
   9   4  28 39.1934 18.8577   1
   0   5  28 10.7667 14.6116   1
   1   5  28 737.884 18.9928  -3
   1   5  28 737.884 18.9928   1
   2   5  28 43.6643 9.99671  -3
   2   5  28 43.6643 9.99671   1
   3   5  28 142.976 27.5757  -3
   3   5  28 142.976 27.5757  -2
   3   5  28 142.976 27.5757   1
   3   5  28 108.785 9.85153  -3
   3   5  28 108.785 9.85153   1
   4   5  28 55.2370 10.8136  -3
   4   5  28 55.2370 10.8136   1
   4   5  28 55.0438 25.6338  -3
   4   5  28 55.0438 25.6338  -2
   4   5  28 55.0438 25.6338   1
   5   5  28 246.598 26.0821  -3
   5   4  28 246.598 26.0821  -2
   5   5  28 246.598 26.0821   1
   5   5  28 186.623 12.5354  -3
   5   5  28 186.623 12.5354   1
   5   5  28 185.294 39.6461  -3
   5   5  28 185.294 39.6461  -2
   5   5  28 185.294 39.6461   1
   5   5  28 191.734 38.8773  -3
   5   6  28 191.734 38.8773  -2
   5   5  28 191.734 38.8773   1
   6   5  28 113.499 14.1844  -3
   6   4  28 113.499 14.1844  -2
   6   5  28 113.499 14.1844   1
   6   5  28 165.113 22.0739  -3
   6   6  28 165.113 22.0739  -2
   6   5  28 165.113 22.0739   1
   6   5  28 75.0396 38.0391  -3
   6   5  28 75.0396 38.0391  -2
   6   5  28 75.0396 38.0391   1
   7   5  28 16.3212 19.0968  -3
   7   4  28 16.3212 19.0968  -2
   7   5  28 16.3212 19.0968   1
   7   5  28 21.2826 18.8023  -3
   7   6  28 21.2826 18.8023  -2
   7   5  28 21.2826 18.8023   1
   7   5  28 57.4112 28.2098  -2
   7   5  28 57.4112 28.2098   1
   8   5  28 23.4397 18.8296  -2
   8   5  28 23.4397 18.8296   1
   8   5  28 41.6472 18.0755  -3
   8   4  28 41.6472 18.0755  -2
   8   5  28 41.6472 18.0755   1
   8   5  28 68.7916 36.4355  -3
   8   6  28 68.7916 36.4355  -2
   8   5  28 68.7916 36.4355   1
   9   5  28 241.829 41.3653  -3
   9   4  28 241.829 41.3653  -2
   9   5  28 241.829 41.3653   1
   0   6  28 2107.76 56.2064  -3
   0   6  28 2107.76 56.2064   1
   1   6  28 1047.61 24.0284  -3
   1   6  28 1047.61 24.0284   1
   2   6  28 130.969 10.4463  -3
   2   6  28 130.969 10.4463   1
   3   6  28 124.119 10.7582  -3
   3   6  28 124.119 10.7582   1
   3   6  28 121.213 28.9295  -3
   3   6  28 121.213 28.9295  -2
   3   6  28 121.213 28.9295   1
   4   6  28 28.6795 8.03953  -3
   4   6  28 28.6795 8.03953   1
   4   6  28 66.3636 27.3604  -3
   4   6  28 66.3636 27.3604  -2
   4   6  28 66.3636 27.3604   1
   5   6  28 14.6149 39.3900  -3
   5   6  28 14.6149 39.3900  -2
   5   6  28 14.6149 39.3900   1
   5   6  28 31.3882 36.3740  -3
   5   7  28 31.3882 36.3740  -2
   5   6  28 31.3882 36.3740   1
   5   6  28 21.5179 10.4660  -3
   5   6  28 21.5179 10.4660   1
   5   6  28 1.78704 20.0413  -3
   5   5  28 1.78704 20.0413  -2
   5   6  28 1.78704 20.0413   1
   5   6  28 -30.032 32.0871  -2
   5   6  28 -30.032 32.0871   1
   6   6  28 48.6641 13.7553  -3
   6   6  28 48.6641 13.7553   1
   6   6  28 69.8586 26.5853  -3
   6   5  28 69.8586 26.5853  -2
   6   6  28 69.8586 26.5853   1
   6   6  28 67.8162 36.7412  -3
   6   7  28 67.8162 36.7412  -2
   6   6  28 67.8162 36.7412   1
   6   6  28 121.156 32.1235  -2
   6   6  28 121.156 32.1235   1
   7   6  28 173.756 22.8529  -3
   7   5  28 173.756 22.8529  -2
   7   6  28 173.756 22.8529   1
   7   6  28 223.963 22.6563  -3
   7   7  28 223.963 22.6563  -2
   7   6  28 223.963 22.6563   1
   7   6  28 166.934 22.5566  -2
   7   6  28 166.934 22.5566   1
   8   6  28 109.901 20.9496  -3
   8   5  28 109.901 20.9496  -2
   8   6  28 109.901 20.9496   1
   8   6  28 69.5891 20.2795  -2
   8   6  28 69.5891 20.2795   1
   8   6  28 65.6582 38.2691  -3
   8   7  28 65.6582 38.2691  -2
   8   6  28 65.6582 38.2691   1
   9   6  28 81.4941 18.4459  -3
   9   5  28 81.4941 18.4459  -2
   9   6  28 81.4941 18.4459   1
   0   7  28 18.9329 9.10249   1
   1   7  28 35.6680 9.15052  -3
   1   7  28 35.6680 9.15052   1
   2   7  28 554.357 17.1293  -3
   2   7  28 554.357 17.1293   1
   3   7  28 685.353 19.8493  -3
   3   7  28 685.353 19.8493   1
   3   7  28 715.720 60.6499  -3
   3   7  28 715.720 60.6499  -2
   3   7  28 715.720 60.6499   1
   4   7  28 75.4587 8.66539  -3
   4   7  28 75.4587 8.66539   1
   4   7  28 46.2687 41.1006  -3
   4   7  28 46.2687 41.1006  -2
   4   7  28 46.2687 41.1006   1
   5   7  28 32.9763 9.53198  -3
   5   7  28 32.9763 9.53198   1
   5   7  28 -54.079 39.2941  -3
   5   7  28 -54.079 39.2941  -2
   5   7  28 -54.079 39.2941   1
   5   7  28 36.2677 31.9620  -2
   5   7  28 36.2677 31.9620   1
   6   7  28 15.9793 9.38571  -3
   6   7  28 15.9793 9.38571   1
   6   7  28 6.87970 21.2975  -2
   6   7  28 6.87970 21.2975   1
   7   7  28 114.103 22.1519  -2
   7   7  28 114.103 22.1519   1
   7   7  28 90.5864 19.7061  -3
   7   7  28 90.5864 19.7061   1
   7   7  28 145.413 29.1374  -3
   7   6  28 145.413 29.1374  -2
   7   7  28 145.413 29.1374   1
   8   7  28 246.249 24.4979  -2
   8   7  28 246.249 24.4979   1
   8   7  28 216.776 20.6904  -3
   8   7  28 216.776 20.6904   1
   8   7  28 273.019 29.5348  -3
   8   6  28 273.019 29.5348  -2
   8   7  28 273.019 29.5348   1
  10   7  28 56.2517 10.2005   1
   0   8  28 462.379 17.1384  -3
   0   8  28 462.379 17.1384   1
   1   8  28 116.927 9.48293  -3
   1   8  28 116.927 9.48293   1
   2   8  28 33.7553 10.0597  -3
   2   8  28 33.7553 10.0597   1
   3   8  28 20.7052 8.57870  -3
   3   8  28 20.7052 8.57870   1
   3   8  28 18.6459 41.3836  -3
   3   8  28 18.6459 41.3836  -2
   3   8  28 18.6459 41.3836   1
   4   8  28 -4.8213 7.92221  -3
   4   8  28 -4.8213 7.92221   1
   4   8  28 25.2724 40.3521  -3
   4   8  28 25.2724 40.3521  -2
   4   8  28 25.2724 40.3521   1
   5   8  28 4.62613 9.36968  -3
   5   8  28 4.62613 9.36968   1
   5   8  28 22.9004 22.4683  -2
   5   8  28 22.9004 22.4683   1
   6   8  28 50.8321 23.0851  -2
   6   8  28 50.8321 23.0851   1
   6   8  28 45.2006 9.74918  -3
   6   8  28 45.2006 9.74918   1
   7   8  28 -11.948 12.5702  -3
   7   8  28 -11.948 12.5702   1
   7   8  28 24.7300 30.8140  -2
   7   8  28 24.7300 30.8140   1
   8   8  28 109.202 33.7554  -3
   8   8  28 109.202 33.7554   1
   8   8  28 97.6323 26.8015  -3
   8   7  28 97.6323 26.8015  -2
   8   8  28 97.6323 26.8015   1
   8   8  28 148.470 32.7794  -2
   8   8  28 148.470 32.7794   1
  10   8  28 45.8995 12.1520   1
   0   9  28 -2.9949 8.21013   1
   1   9  28 1706.84 34.8275  -3
   1   9  28 1706.84 34.8275   1
   2   9  28 478.495 14.4167  -3
   2   9  28 478.495 14.4167   1
   3   9  28 94.9318 9.84323  -3
   3   9  28 94.9318 9.84323   1
   4   9  28 155.115 13.7048  -3
   4   9  28 155.115 13.7048   1
   5   9  28 15.9916 10.5905  -3
   5   9  28 15.9916 10.5905   1
   5   9  28 -32.359 30.8705  -2
   5   9  28 -32.359 30.8705   1
   6   9  28 53.7709 10.4523  -3
   6   9  28 53.7709 10.4523   1
   6   9  28 10.0064 32.0676  -2
   6   9  28 10.0064 32.0676   1
   7   9  28 6.55798 13.4374  -3
   7   9  28 6.55798 13.4374   1
   7   9  28 -30.753 28.4154  -2
   7   9  28 -30.753 28.4154   1
   8   9  28 1.26267 17.2272  -3
   8   9  28 1.26267 17.2272   1
   8   9  28 47.6851 31.8504  -2
   8   9  28 47.6851 31.8504   1
   0  10  28 23.5457 14.0510  -3
   0  10  28 23.5457 14.0510   1
   1  10  28 -8.5034 10.9615  -3
   1  10  28 -8.5034 10.9615   1
   2  10  28 863.659 22.2839  -3
   2  10  28 863.659 22.2839   1
   3  10  28 56.7837 9.99326  -3
   3  10  28 56.7837 9.99326   1
   4  10  28 550.346 17.7683  -3
   4  10  28 550.346 17.7683   1
   5  10  28 239.982 13.3739  -3
   5  10  28 239.982 13.3739   1
   5  10  28 252.280 37.9565  -2
   5  10  28 252.280 37.9565   1
   6  10  28 84.2067 13.4085  -3
   6  10  28 84.2067 13.4085   1
   7  10  28 64.7475 17.0565  -3
   7  10  28 64.7475 17.0565   1
   7  10  28 4.88964 33.4083  -2
   7  10  28 4.88964 33.4083   1
   8  10  28 19.5370 34.2993  -3
   8  10  28 19.5370 34.2993   1
   8  10  28 52.7725 33.0418  -2
   8  10  28 52.7725 33.0418   1
   0  11  28 7.83305 7.32328   1
   1  11  28 49.7179 14.9317  -3
   1  11  28 49.7179 14.9317   1
   2  11  28 11.6457 13.0249  -3
   2  11  28 11.6457 13.0249   1
   3  11  28 -0.3681 11.0567  -3
   3  11  28 -0.3681 11.0567   1
   4  11  28 45.6516 11.7844  -3
   4  11  28 45.6516 11.7844   1
   5  11  28 153.905 12.3355  -3
   5  11  28 153.905 12.3355   1
   6  11  28 88.9787 16.6254  -3
   6  11  28 88.9787 16.6254   1
   7  11  28 41.5420 16.9613  -3
   7  11  28 41.5420 16.9613   1
   7  11  28 -26.635 32.1363  -2
   7  11  28 -26.635 32.1363   1
   8  11  28 544.348 35.3991  -3
   8  11  28 544.348 35.3991   1
   8  11  28 557.680 49.6271  -2
   8  11  28 557.680 49.6271   1
   0  12  28 15.9751 18.0898  -3
   0  12  28 15.9751 18.0898   1
   1  12  28 287.596 19.3482  -3
   1  12  28 287.596 19.3482   1
   2  12  28 -0.7563 14.3157  -3
   2  12  28 -0.7563 14.3157   1
   3  12  28 20.8834 14.2447  -3
   3  12  28 20.8834 14.2447   1
   4  12  28 88.5839 12.6859  -3
   4  12  28 88.5839 12.6859   1
   5  12  28 737.828 26.3800  -3
   5  12  28 737.828 26.3800   1
   6  12  28 98.2920 17.6448  -3
   6  12  28 98.2920 17.6448   1
   7  12  28 21.9858 18.2200  -3
   7  12  28 21.9858 18.2200   1
   7  12  28 101.242 47.1631  -3
   7  13  27 101.242 47.1631  -2
   7  12  28 101.242 47.1631   1
   8  12  28 131.598 38.4654  -3
   8  12  28 131.598 38.4654   1
   0  13  28 -0.9332 6.71112   1
   1  13  28 -15.646 16.8588  -3
   1  13  28 -15.646 16.8588   1
   2  13  28 34.2385 15.8603  -3
   2  13  28 34.2385 15.8603   1
   3  13  28 29.2066 19.5384  -3
   3  13  28 29.2066 19.5384   1
   4  13  28 252.427 18.2041  -3
   4  13  28 252.427 18.2041   1
   5  13  28 39.9351 18.1834  -3
   5  13  28 39.9351 18.1834   1
   6  13  28 17.3901 19.3433  -3
   6  13  28 17.3901 19.3433   1
   7  13  28 90.0143 37.4070  -3
   7  13  28 90.0143 37.4070   1
   8  13  28 151.256 39.0677  -3
   8  13  28 151.256 39.0677   1
   0  14  28 148.886 33.7391  -3
   0  14  28 148.886 33.7391   1
   1  14  28 342.821 29.6359  -3
   1  14  28 342.821 29.6359   1
   2  14  28 640.437 36.2178  -3
   2  14  28 640.437 36.2178   1
   3  14  28 33.1978 17.6046  -3
   3  14  28 33.1978 17.6046   1
   4  14  28 81.0284 28.4192  -3
   4  14  28 81.0284 28.4192   1
   5  14  28 674.584 59.1118  -3
   5  14  28 674.584 59.1118   1
   6  14  28 12.3291 19.8687  -3
   6  14  28 12.3291 19.8687   1
   7  14  28 -18.171 36.5277  -3
   7  14  28 -18.171 36.5277   1
   8  14  28 152.601 41.0847  -3
   8  14  28 152.601 41.0847   1
   0  15  28 0.06642 7.89186   1
   1  15  28 1101.61 40.9574  -3
   1  15  28 1101.61 40.9574   1
   2  15  28 142.506 25.1386  -3
   2  15  28 142.506 25.1386   1
   3  15  28 154.889 31.1797  -3
   3  15  28 154.889 31.1797   1
   4  15  28 -2.7231 40.5903  -3
   4  15  28 -2.7231 40.5903   1
   5  15  28 68.8616 40.4188  -3
   5  15  28 68.8616 40.4188   1
   6  15  28 52.2123 7.00300   1
   7  15  28 168.017 41.2209  -3
   7  15  28 168.017 41.2209   1
   8  15  28 -6.3355 25.6999   1
   0  16  28 1028.41 34.7408   1
   1  16  28 -0.8034 30.2722  -3
   1  16  28 -0.8034 30.2722   1
   2  16  28 77.1001 6.97219   1
   3  16  28 17.0830 5.29531   1
   4  16  28 26.1479 5.62596   1
   5  16  28 314.118 50.0435  -3
   5  16  28 314.118 50.0435   1
   6  16  28 47.5601 7.91752   1
   7  16  28 17.9213 8.32211   1
   0  17  28 4.73747 8.15848   1
   1  17  28 20.4184 5.41770   1
   2  17  28 21.3881 6.16989   1
   3  17  28 1.49174 5.46009   1
   4  17  28 170.476 9.02559   1
   5  17  28 10.8848 6.52566   1
   6  17  28 479.621 22.1799   1
   7  17  28 44.3982 15.3097   1
   0  18  28 6.74653 7.81029   1
   1  18  28 22.4218 5.96994   1
   2  18  28 7.91349 5.99938   1
   3  18  28 243.498 10.2175   1
   4  18  28 1.55198 7.31309   1
   5  18  28 8.63791 6.65135   1
   6  18  28 13.5537 11.8895   1
   7  18  28 278.794 38.1113   1
   0  19  28 -10.921 8.09999   1
   1  19  28 255.473 10.9782   1
   2  19  28 358.836 14.4488   1
   3  19  28 33.7270 8.23746   1
   4  19  28 30.5306 10.6396   1
   5  19  28 181.429 12.2080   1
   6  19  28 577.217 48.9087   1
   7  19  28 132.375 29.6251   1
   0  20  28 21.9498 8.95862   1
   1  20  28 94.0251 9.75914   1
   2  20  28 133.093 10.7770   1
   3  20  28 636.994 26.6775   1
   4  20  28 149.263 15.0430   1
   5  20  28 35.2255 9.06782   1
   6  20  28 154.784 27.8082   1
   0  21  28 1.26937 10.8910   1
   1  21  28 141.280 13.2397   1
   2  21  28 43.2846 10.6823   1
   3  21  28 136.868 13.9918   1
   4  21  28 56.9484 15.5166   1
   5  21  28 38.9372 26.0592   1
   0  22  28 305.550 21.9282   1
   1  22  28 128.689 16.5516   1
   3  22  28 51.7110 11.3895   1
   4  22  28 77.5799 31.9118   1
   0  23  28 1.13789 11.0533   1
   2   0  29 14.4800 9.14922   1
   3   0  29 0.91329 8.46541   1
   4   0  29 17.4450 30.1229   1
   5   0  29 27.0096 33.1533   1
   1   1  29 94.9615 23.6300  -3
   1   1  29 94.9615 23.6300   1
   2   1  29 390.731 30.0352  -3
   2   1  29 390.731 30.0352  -2
   2   1  29 390.731 30.0352   1
   2   1  29 363.057 17.8512  -3
   2   1  29 363.057 17.8512   1
   2   1  29 530.075 49.4270  -3
   2   2  29 530.075 49.4270  -2
   2   1  29 530.075 49.4270   1
   3   1  29 178.766 24.9812  -3
   3   1  29 178.766 24.9812  -2
   3   1  29 178.766 24.9812   1
   3   1  29 231.937 37.5809  -3
   3   1  29 231.937 37.5809   1
   3   1  29 67.8598 33.0645  -3
   3   2  29 67.8598 33.0645  -2
   3   1  29 67.8598 33.0645   1
   4   1  29 120.367 31.9433  -3
   4   2  29 120.367 31.9433  -2
   4   1  29 120.367 31.9433   1
   4   1  29 165.966 23.8062  -3
   4   1  29 165.966 23.8062  -2
   4   1  29 165.966 23.8062   1
   4   1  29 193.138 36.1281  -3
   4   1  29 193.138 36.1281   1
   5   1  29 47.3545 22.4110  -3
   5   1  29 47.3545 22.4110  -2
   5   1  29 47.3545 22.4110   1
   5   1  29 60.5334 13.3960  -3
   5   2  29 60.5334 13.3960  -2
   5   1  29 60.5334 13.3960   1
   5   1  29 52.0948 13.3864  -3
   5   1  29 52.0948 13.3864   1
   6   1  29 638.187 23.2344  -3
   6   2  29 638.187 23.2344  -2
   6   1  29 638.187 23.2344   1
   6   1  29 599.021 22.7194  -3
   6   1  29 599.021 22.7194   1
   7   1  29 536.700 28.5675  -3
   7   2  29 536.700 28.5675  -2
   7   1  29 536.700 28.5675   1
   7   1  29 531.581 28.5137  -3
   7   1  29 531.581 28.5137   1
   8   1  29 10.4100 12.5197  -3
   8   1  29 10.4100 12.5197   1
   8   1  29 3.52285 14.2044  -3
   8   2  29 3.52285 14.2044  -2
   8   1  29 3.52285 14.2044   1
   9   1  29 15.4368 11.2344  -3
   9   2  29 15.4368 11.2344  -2
   9   1  29 15.4368 11.2344   1
   9   1  29 -8.0123 11.2734  -3
   9   1  29 -8.0123 11.2734   1
   1   2  29 174.025 16.2433  -3
   1   2  29 174.025 16.2433   1
   2   2  29 2428.11 135.688  -3
   2   2  29 2428.11 135.688  -2
   2   2  29 2428.11 135.688   1
   2   2  29 2219.01 58.6011  -3
   2   2  29 2219.01 58.6011   1
   3   2  29 20.3350 22.9514  -3
   3   2  29 20.3350 22.9514  -2
   3   2  29 20.3350 22.9514   1
   3   2  29 12.3185 13.3040  -3
   3   2  29 12.3185 13.3040   1
   3   2  29 0.40135 35.0921  -3
   3   1  29 0.40135 35.0921  -2
   3   2  29 0.40135 35.0921   1
   3   2  29 69.6598 35.1990  -3
   3   3  29 69.6598 35.1990  -2
   3   2  29 69.6598 35.1990   1
   4   2  29 81.2152 23.2627  -3
   4   2  29 81.2152 23.2627  -2
   4   2  29 81.2152 23.2627   1
   4   2  29 32.4010 21.4600  -3
   4   1  29 32.4010 21.4600  -2
   4   2  29 32.4010 21.4600   1
   4   2  29 136.754 33.9757  -3
   4   3  29 136.754 33.9757  -2
   4   2  29 136.754 33.9757   1
   5   2  29 222.057 16.4177  -3
   5   1  29 222.057 16.4177  -2
   5   2  29 222.057 16.4177   1
   5   2  29 174.383 36.1150  -3
   5   2  29 174.383 36.1150  -2
   5   2  29 174.383 36.1150   1
   5   2  29 204.996 15.6920  -3
   5   3  29 204.996 15.6920  -2
   5   2  29 204.996 15.6920   1
   6   2  29 658.433 25.2082  -3
   6   1  29 658.433 25.2082  -2
   6   2  29 658.433 25.2082   1
   6   2  29 613.636 23.8700  -3
   6   3  29 613.636 23.8700  -2
   6   2  29 613.636 23.8700   1
   6   2  29 808.751 59.3786  -3
   6   2  29 808.751 59.3786  -2
   6   2  29 808.751 59.3786   1
   7   2  29 98.3853 18.3022  -3
   7   1  29 98.3853 18.3022  -2
   7   2  29 98.3853 18.3022   1
   7   2  29 29.5131 17.4543  -3
   7   3  29 29.5131 17.4543  -2
   7   2  29 29.5131 17.4543   1
   8   2  29 17.0793 14.6904  -3
   8   3  29 17.0793 14.6904  -2
   8   2  29 17.0793 14.6904   1
   8   2  29 10.5189 15.3599  -3
   8   1  29 10.5189 15.3599  -2
   8   2  29 10.5189 15.3599   1
   9   2  29 29.1944 11.9673  -3
   9   3  29 29.1944 11.9673  -2
   9   2  29 29.1944 11.9673   1
   9   2  29 -8.6631 12.1562  -3
   9   1  29 -8.6631 12.1562  -2
   9   2  29 -8.6631 12.1562   1
   0   3  29 2.89855 20.5686   1
   1   3  29 78.1004 16.9277  -3
   1   3  29 78.1004 16.9277   1
   2   3  29 1534.80 37.8359  -3
   2   3  29 1534.80 37.8359   1
   3   3  29 125.822 15.8683  -3
   3   3  29 125.822 15.8683   1
   3   3  29 115.632 25.0563  -3
   3   3  29 115.632 25.0563  -2
   3   3  29 115.632 25.0563   1
   4   3  29 739.835 39.9203  -3
   4   3  29 739.835 39.9203  -2
   4   3  29 739.835 39.9203   1
   4   3  29 660.894 36.0097  -3
   4   2  29 660.894 36.0097  -2
   4   3  29 660.894 36.0097   1
   4   3  29 704.541 55.5325  -3
   4   4  29 704.541 55.5325  -2
   4   3  29 704.541 55.5325   1
   5   3  29 -22.735 31.9117  -3
   5   3  29 -22.735 31.9117  -2
   5   3  29 -22.735 31.9117   1
   5   3  29 14.6126 12.9188  -3
   5   4  29 14.6126 12.9188  -2
   5   3  29 14.6126 12.9188   1
   5   3  29 38.0116 14.1660  -3
   5   2  29 38.0116 14.1660  -2
   5   3  29 38.0116 14.1660   1
   6   3  29 58.3718 19.8113  -3
   6   4  29 58.3718 19.8113  -2
   6   3  29 58.3718 19.8113   1
   6   3  29 32.1863 34.5349  -3
   6   3  29 32.1863 34.5349  -2
   6   3  29 32.1863 34.5349   1
   6   3  29 105.070 13.0912  -3
   6   2  29 105.070 13.0912  -2
   6   3  29 105.070 13.0912   1
   7   3  29 32.2224 17.7454  -3
   7   2  29 32.2224 17.7454  -2
   7   3  29 32.2224 17.7454   1
   7   3  29 25.2737 17.7769  -3
   7   4  29 25.2737 17.7769  -2
   7   3  29 25.2737 17.7769   1
   8   3  29 -0.8170 16.9410  -3
   8   2  29 -0.8170 16.9410  -2
   8   3  29 -0.8170 16.9410   1
   8   3  29 79.8543 16.2152  -3
   8   4  29 79.8543 16.2152  -2
   8   3  29 79.8543 16.2152   1
   9   3  29 -18.205 13.9073  -3
   9   2  29 -18.205 13.9073  -2
   9   3  29 -18.205 13.9073   1
   9   3  29 13.9064 12.3599  -3
   9   4  29 13.9064 12.3599  -2
   9   3  29 13.9064 12.3599   1
   0   4  29 205.412 26.0341  -3
   0   4  29 205.412 26.0341   1
   1   4  29 250.607 12.8698  -3
   1   4  29 250.607 12.8698   1
   2   4  29 119.164 10.6287  -3
   2   4  29 119.164 10.6287   1
   3   4  29 542.333 21.1635  -3
   3   4  29 542.333 21.1635   1
   3   4  29 564.191 35.9821  -3
   3   4  29 564.191 35.9821  -2
   3   4  29 564.191 35.9821   1
   3   4  29 554.688 53.4275  -3
   3   3  29 554.688 53.4275  -2
   3   4  29 554.688 53.4275   1
   4   4  29 34.0283 35.8944  -3
   4   5  29 34.0283 35.8944  -2
   4   4  29 34.0283 35.8944   1
   4   4  29 14.6148 24.2977  -3
   4   4  29 14.6148 24.2977  -2
   4   4  29 14.6148 24.2977   1
   4   4  29 62.3081 23.8104  -3
   4   3  29 62.3081 23.8104  -2
   4   4  29 62.3081 23.8104   1
   5   4  29 62.3679 21.8829  -3
   5   5  29 62.3679 21.8829  -2
   5   4  29 62.3679 21.8829   1
   5   4  29 23.5568 14.5009  -3
   5   3  29 23.5568 14.5009  -2
   5   4  29 23.5568 14.5009   1
   5   4  29 64.2454 35.7397  -3
   5   4  29 64.2454 35.7397  -2
   5   4  29 64.2454 35.7397   1
   6   4  29 138.384 13.5378  -3
   6   3  29 138.384 13.5378  -2
   6   4  29 138.384 13.5378   1
   6   4  29 126.356 21.0527  -3
   6   5  29 126.356 21.0527  -2
   6   4  29 126.356 21.0527   1
   6   5  29 135.392 12.8325  -2
   6   4  29 135.392 12.8325   1
   7   4  29 243.976 39.1358  -3
   7   5  29 243.976 39.1358  -2
   7   4  29 243.976 39.1358   1
   7   4  29 145.072 20.6590  -3
   7   3  29 145.072 20.6590  -2
   7   4  29 145.072 20.6590   1
   8   4  29 115.241 17.4039  -3
   8   5  29 115.241 17.4039  -2
   8   4  29 115.241 17.4039   1
   8   4  29 83.9653 18.3700  -3
   8   3  29 83.9653 18.3700  -2
   8   4  29 83.9653 18.3700   1
   8   4  29 74.6680 27.5350  -2
   8   4  29 74.6680 27.5350   1
   9   4  29 0.87955 14.7841  -3
   9   3  29 0.87955 14.7841  -2
   9   4  29 0.87955 14.7841   1
   0   5  29 15.1865 15.0050   1
   1   5  29 142.927 10.7058  -3
   1   5  29 142.927 10.7058   1
   2   5  29 149.790 11.1635  -3
   2   5  29 149.790 11.1635   1
   3   5  29 963.310 48.6407  -3
   3   5  29 963.310 48.6407  -2
   3   5  29 963.310 48.6407   1
   3   5  29 897.252 22.9575  -3
   3   5  29 897.252 22.9575   1
   4   5  29 4.19810 19.0759  -3
   4   4  29 4.19810 19.0759  -2
   4   5  29 4.19810 19.0759   1
   4   5  29 53.7888 37.9638  -3
   4   6  29 53.7888 37.9638  -2
   4   5  29 53.7888 37.9638   1
   4   5  29 18.5326 26.1497  -3
   4   5  29 18.5326 26.1497  -2
   4   5  29 18.5326 26.1497   1
   5   5  29 184.628 38.6248  -3
   5   6  29 184.628 38.6248  -2
   5   5  29 184.628 38.6248   1
   5   5  29 134.665 16.0710  -3
   5   4  29 134.665 16.0710  -2
   5   5  29 134.665 16.0710   1
   5   5  29 161.482 39.6602  -3
   5   5  29 161.482 39.6602  -2
   5   5  29 161.482 39.6602   1
   6   5  29 20.3639 20.4025  -3
   6   6  29 20.3639 20.4025  -2
   6   5  29 20.3639 20.4025   1
   6   5  29 26.5628 13.2714  -3
   6   4  29 26.5628 13.2714  -2
   6   5  29 26.5628 13.2714   1
   6   5  29 -9.7596 36.8095  -3
   6   5  29 -9.7596 36.8095  -2
   6   5  29 -9.7596 36.8095   1
   7   5  29 33.8849 19.5946  -3
   7   4  29 33.8849 19.5946  -2
   7   5  29 33.8849 19.5946   1
   7   5  29 17.7771 18.9504  -3
   7   6  29 17.7771 18.9504  -2
   7   5  29 17.7771 18.9504   1
   8   5  29 25.6942 17.1813  -3
   8   6  29 25.6942 17.1813  -2
   8   5  29 25.6942 17.1813   1
   8   5  29 11.7891 19.3128  -2
   8   5  29 11.7891 19.3128   1
   8   5  29 21.8120 18.5612  -3
   8   4  29 21.8120 18.5612  -2
   8   5  29 21.8120 18.5612   1
   9   5  29 236.910 21.3921  -3
   9   4  29 236.910 21.3921  -2
   9   5  29 236.910 21.3921   1
   0   6  29 110.105 13.8670  -3
   0   6  29 110.105 13.8670   1
   1   6  29 158.227 10.7372  -3
   1   6  29 158.227 10.7372   1
   2   6  29 158.667 10.9880  -3
   2   6  29 158.667 10.9880   1
   3   6  29 7.98758 9.81303  -3
   3   6  29 7.98758 9.81303   1
   3   6  29 41.9701 38.5671  -3
   3   6  29 41.9701 38.5671  -2
   3   6  29 41.9701 38.5671   1
   4   6  29 210.954 11.2567  -3
   4   6  29 210.954 11.2567   1
   4   6  29 278.318 30.8642  -3
   4   6  29 278.318 30.8642  -2
   4   6  29 278.318 30.8642   1
   4   6  29 245.798 42.3060  -3
   4   7  29 245.798 42.3060  -2
   4   6  29 245.798 42.3060   1
   5   6  29 205.768 40.5817  -3
   5   7  29 205.768 40.5817  -2
   5   6  29 205.768 40.5817   1
   5   6  29 155.084 18.8518  -3
   5   5  29 155.084 18.8518  -2
   5   6  29 155.084 18.8518   1
   5   6  29 165.963 16.5970  -3
   5   6  29 165.963 16.5970   1
   5   6  29 150.161 41.4995  -3
   5   6  29 150.161 41.4995  -2
   5   6  29 150.161 41.4995   1
   6   6  29 94.5835 32.0139  -2
   6   6  29 94.5835 32.0139   1
   6   6  29 77.6817 14.2718  -3
   6   5  29 77.6817 14.2718  -2
   6   6  29 77.6817 14.2718   1
   6   6  29 64.9168 37.8609  -3
   6   7  29 64.9168 37.8609  -2
   6   6  29 64.9168 37.8609   1
   7   6  29 66.5217 21.3702  -2
   7   6  29 66.5217 21.3702   1
   7   6  29 75.1083 21.5942  -3
   7   5  29 75.1083 21.5942  -2
   7   6  29 75.1083 21.5942   1
   7   6  29 71.9077 20.8481  -3
   7   7  29 71.9077 20.8481  -2
   7   6  29 71.9077 20.8481   1
   8   6  29 95.8015 20.9352  -3
   8   5  29 95.8015 20.9352  -2
   8   6  29 95.8015 20.9352   1
   8   6  29 84.9002 20.7029  -2
   8   6  29 84.9002 20.7029   1
   8   6  29 52.0944 38.9208  -3
   8   7  29 52.0944 38.9208  -2
   8   6  29 52.0944 38.9208   1
   9   6  29 77.9043 20.7737  -3
   9   5  29 77.9043 20.7737  -2
   9   6  29 77.9043 20.7737   1
  10   5  29 -2.2054 13.2391  -2
  10   6  29 -2.2054 13.2391   1
   0   7  29 4.56935 9.07957   1
   1   7  29 280.309 11.0177  -3
   1   7  29 280.309 11.0177   1
   2   7  29 381.134 15.3720  -3
   2   7  29 381.134 15.3720   1
   3   7  29 279.736 13.5704  -3
   3   7  29 279.736 13.5704   1
   3   7  29 256.801 46.3612  -3
   3   7  29 256.801 46.3612  -2
   3   7  29 256.801 46.3612   1
   4   7  29 133.829 9.88986  -3
   4   7  29 133.829 9.88986   1
   4   7  29 75.6786 42.2299  -3
   4   7  29 75.6786 42.2299  -2
   4   7  29 75.6786 42.2299   1
   5   7  29 13.3531 9.73430  -3
   5   7  29 13.3531 9.73430   1
   5   7  29 -11.652 40.0777  -3
   5   7  29 -11.652 40.0777  -2
   5   7  29 -11.652 40.0777   1
   5   7  29 -76.010 32.5472  -2
   5   7  29 -76.010 32.5472   1
   6   7  29 147.073 23.4028  -2
   6   7  29 147.073 23.4028   1
   6   7  29 88.8445 39.1596  -3
   6   8  29 88.8445 39.1596  -2
   6   7  29 88.8445 39.1596   1
   6   7  29 92.9686 30.2320  -3
   6   6  29 92.9686 30.2320  -2
   6   7  29 92.9686 30.2320   1
   6   7  29 90.3095 15.5193  -3
   6   7  29 90.3095 15.5193   1
   7   7  29 71.3243 28.3845  -3
   7   6  29 71.3243 28.3845  -2
   7   7  29 71.3243 28.3845   1
   7   7  29 90.3563 41.9234  -3
   7   8  29 90.3563 41.9234  -2
   7   7  29 90.3563 41.9234   1
   7   7  29 25.9108 21.6654  -2
   7   7  29 25.9108 21.6654   1
   8   7  29 47.8914 21.3962  -2
   8   7  29 47.8914 21.3962   1
   8   7  29 26.2376 24.3217  -3
   8   6  29 26.2376 24.3217  -2
   8   7  29 26.2376 24.3217   1
   8   7  29 55.4195 40.6787  -3
   8   8  29 55.4195 40.6787  -2
   8   7  29 55.4195 40.6787   1
  10   7  29 17.8687 9.49637   1
   0   8  29 70.8429 12.4166  -3
   0   8  29 70.8429 12.4166   1
   1   8  29 734.375 18.0378  -3
   1   8  29 734.375 18.0378   1
   2   8  29 323.547 13.5942  -3
   2   8  29 323.547 13.5942   1
   3   8  29 973.787 27.2141  -3
   3   8  29 973.787 27.2141   1
   3   8  29 1002.46 73.4927  -3
   3   8  29 1002.46 73.4927  -2
   3   8  29 1002.46 73.4927   1
   4   8  29 52.8672 8.35056  -3
   4   8  29 52.8672 8.35056   1
   4   8  29 121.600 43.8582  -3
   4   8  29 121.600 43.8582  -2
   4   8  29 121.600 43.8582   1
   5   8  29 1.60844 10.0061  -3
   5   8  29 1.60844 10.0061   1
   5   8  29 4.69028 23.0868  -2
   5   8  29 4.69028 23.0868   1
   6   8  29 12.2521 22.1300  -2
   6   8  29 12.2521 22.1300   1
   6   8  29 19.5764 9.84877  -3
   6   8  29 19.5764 9.84877   1
   7   8  29 10.2549 32.1994  -2
   7   8  29 10.2549 32.1994   1
   7   8  29 -20.250 19.5294  -3
   7   8  29 -20.250 19.5294   1
   8   8  29 -2.1802 30.8246  -2
   8   8  29 -2.1802 30.8246   1
   8   8  29 -12.755 32.9431  -3
   8   8  29 -12.755 32.9431   1
   0   9  29 7.96612 9.48221   1
   1   9  29 426.720 17.1240  -3
   1   9  29 426.720 17.1240   1
   2   9  29 329.958 13.3380  -3
   2   9  29 329.958 13.3380   1
   3   9  29 231.829 12.2722  -3
   3   9  29 231.829 12.2722   1
   4   9  29 103.545 10.8117  -3
   4   9  29 103.545 10.8117   1
   5   9  29 30.4229 24.2040  -2
   5   9  29 30.4229 24.2040   1
   5   9  29 21.4595 10.9648  -3
   5   9  29 21.4595 10.9648   1
   6   9  29 73.6305 10.8855  -3
   6   9  29 73.6305 10.8855   1
   6   9  29 78.4884 33.0539  -2
   6   9  29 78.4884 33.0539   1
   7   9  29 56.6673 34.1717  -2
   7   9  29 56.6673 34.1717   1
   7   9  29 79.2407 14.8212  -3
   7   9  29 79.2407 14.8212   1
   8   9  29 7.80983 32.6117  -2
   8   9  29 7.80983 32.6117   1
   8   9  29 -21.199 33.9071  -3
   8   9  29 -21.199 33.9071   1
   0  10  29 2416.81 75.9641  -3
   0  10  29 2416.81 75.9641   1
   1  10  29 12.9434 14.0213  -3
   1  10  29 12.9434 14.0213   1
   2  10  29 888.804 22.7605  -3
   2  10  29 888.804 22.7605   1
   3  10  29 59.9613 10.1196  -3
   3  10  29 59.9613 10.1196   1
   4  10  29 191.119 11.3630  -3
   4  10  29 191.119 11.3630   1
   5  10  29 460.801 46.7868  -2
   5  10  29 460.801 46.7868   1
   5  10  29 500.549 17.9203  -3
   5  10  29 500.549 17.9203   1
   6  10  29 289.406 18.6298  -3
   6  10  29 289.406 18.6298   1
   6  10  29 271.448 40.4274  -2
   6  10  29 271.448 40.4274   1
   7  10  29 -14.156 18.9325  -3
   7  10  29 -14.156 18.9325   1
   7  10  29 20.6017 32.5452  -2
   7  10  29 20.6017 32.5452   1
   8  10  29 -55.844 32.1416  -3
   8  10  29 -55.844 32.1416   1
   8  10  29 37.7653 32.2274  -2
   8  10  29 37.7653 32.2274   1
   0  11  29 5.54372 7.86191   1
   1  11  29 19.5591 14.9894  -3
   1  11  29 19.5591 14.9894   1
   2  11  29 20.1344 14.0190  -3
   2  11  29 20.1344 14.0190   1
   3  11  29 25.2165 15.4332  -3
   3  11  29 25.2165 15.4332   1
   4  11  29 125.456 12.8772  -3
   4  11  29 125.456 12.8772   1
   5  11  29 210.493 13.3342  -3
   5  11  29 210.493 13.3342   1
   6  11  29 57.6214 16.3511  -3
   6  11  29 57.6214 16.3511   1
   7  11  29 14.8086 16.2862  -3
   7  11  29 14.8086 16.2862   1
   7  11  29 3.29227 33.7913  -2
   7  11  29 3.29227 33.7913   1
   8  11  29 537.025 33.1849   1
   0  12  29 128.779 19.7488  -3
   0  12  29 128.779 19.7488   1
   1  12  29 365.331 23.7140  -3
   1  12  29 365.331 23.7140   1
   2  12  29 74.7572 15.1362  -3
   2  12  29 74.7572 15.1362   1
   3  12  29 71.5460 15.0003  -3
   3  12  29 71.5460 15.0003   1
   4  12  29 9.33788 12.0991  -3
   4  12  29 9.33788 12.0991   1
   5  12  29 201.150 16.3730  -3
   5  12  29 201.150 16.3730   1
   6  12  29 46.9324 17.0958  -3
   6  12  29 46.9324 17.0958   1
   7  12  29 43.1293 25.2180  -3
   7  12  29 43.1293 25.2180   1
   8  12  29 206.803 39.2984  -3
   8  12  29 206.803 39.2984   1
   0  13  29 -9.3388 6.79419   1
   1  13  29 19.9434 18.2500  -3
   1  13  29 19.9434 18.2500   1
   2  13  29 66.1962 16.5874  -3
   2  13  29 66.1962 16.5874   1
   3  13  29 77.7770 18.5952  -3
   3  13  29 77.7770 18.5952   1
   4  13  29 48.7320 15.9723  -3
   4  13  29 48.7320 15.9723   1
   5  13  29 43.1231 18.2024  -3
   5  13  29 43.1231 18.2024   1
   6  13  29 8.79972 16.8709  -3
   6  13  29 8.79972 16.8709   1
   7  13  29 30.4022 36.0129  -3
   7  13  29 30.4022 36.0129   1
   8  13  29 37.8616 37.5974  -3
   8  13  29 37.8616 37.5974   1
   9  13  29 51.1538 12.4652   1
   0  14  29 16.3630 32.8056  -3
   0  14  29 16.3630 32.8056   1
   1  14  29 134.850 25.3208  -3
   1  14  29 134.850 25.3208   1
   2  14  29 166.321 20.5043  -3
   2  14  29 166.321 20.5043   1
   3  14  29 28.8423 18.4467  -3
   3  14  29 28.8423 18.4467   1
   4  14  29 40.2044 28.6852  -3
   4  14  29 40.2044 28.6852   1
   5  14  29 100.228 40.9485  -3
   5  14  29 100.228 40.9485   1
   6  14  29 210.123 23.7265  -3
   6  14  29 210.123 23.7265   1
   7  14  29 5.80741 39.3611  -3
   7  14  29 5.80741 39.3611   1
   0  15  29 -17.707 8.24365   1
   1  15  29 751.127 33.1749  -3
   1  15  29 751.127 33.1749   1
   2  15  29 65.7926 23.8198  -3
   2  15  29 65.7926 23.8198   1
   3  15  29 8.80422 29.4024  -3
   3  15  29 8.80422 29.4024   1
   4  15  29 120.170 7.77642   1
   5  15  29 -74.461 40.1396  -3
   5  15  29 -74.461 40.1396   1
   6  15  29 204.796 45.2867  -3
   6  15  29 204.796 45.2867   1
   7  15  29 174.809 12.5927   1
   0  16  29 1.64063 7.79982   1
   1  16  29 7.50660 31.6727  -3
   1  16  29 7.50660 31.6727   1
   2  16  29 12.9748 5.90832   1
   3  16  29 137.924 8.39715   1
   4  16  29 33.0616 6.06978   1
   5  16  29 45.9121 43.8665  -3
   5  16  29 45.9121 43.8665   1
   6  16  29 59.1219 11.2139   1
   7  16  29 28.1227 10.4524   1
   0  17  29 -8.2716 8.29096   1
   1  17  29 45.0440 6.16577   1
   2  17  29 9.34468 6.07017   1
   3  17  29 53.9478 6.53778   1
   4  17  29 102.200 8.58202   1
   5  17  29 60.7475 7.53637   1
   6  17  29 46.6521 12.2457   1
   7  17  29 285.134 36.7971   1
   0  18  29 128.640 11.7704   1
   1  18  29 68.4121 7.31739   1
   2  18  29 13.2318 6.10380   1
   3  18  29 22.5720 7.75114   1
   4  18  29 8.28917 9.07754   1
   5  18  29 234.598 13.2800   1
   6  18  29 11.6182 19.6272   1
   7  18  29 49.7932 22.3358   1
   0  19  29 -0.7468 8.25521   1
   1  19  29 300.289 14.1947   1
   2  19  29 165.738 11.0618   1
   3  19  29 30.7028 10.3048   1
   4  19  29 29.8214 11.1669   1
   5  19  29 -3.5393 7.87948   1
   6  19  29 90.6628 25.0186   1
   0  20  29 435.576 25.1013   1
   1  20  29 393.756 16.3407   1
   2  20  29 -7.8833 8.90769   1
   3  20  29 162.571 15.4564   1
   4  20  29 0.30688 13.1331   1
   5  20  29 14.7417 21.0404   1
   6  20  29 169.750 30.9107   1
   0  21  29 -12.249 10.8280   1
   1  21  29 2.32613 9.15950   1
   2  21  29 36.4190 12.9321   1
   3  21  29 322.817 19.1275   1
   4  21  29 65.0412 18.1483   1
   0  22  29 190.378 19.0801   1
   1  22  29 -0.8116 13.1772   1
   3  22  29 22.8189 12.7463   1
   0  23  29 5.67228 18.3867   1
   2   0  30 136.510 35.4114  -3
   2   0  30 136.510 35.4114  -2
   2   0  30 136.510 35.4114   1
   2   0  30 159.394 37.1236  -3
   2   1  30 159.394 37.1236  -2
   2   0  30 159.394 37.1236   1
   3   0  30 1690.40 101.087  -3
   3   1  30 1690.40 101.087  -2
   3   0  30 1690.40 101.087   1
   3   0  30 1541.42 91.7916  -3
   3   0  30 1541.42 91.7916  -2
   3   0  30 1541.42 91.7916   1
   4   0  30 145.050 22.4576  -3
   4   1  30 145.050 22.4576  -2
   4   0  30 145.050 22.4576   1
   4   0  30 116.420 34.4137  -3
   4   0  30 116.420 34.4137  -2
   4   0  30 116.420 34.4137   1
   5   0  30 220.020 16.0115  -3
   5   1  30 220.020 16.0115  -2
   5   0  30 220.020 16.0115   1
   5   0  30 233.135 36.8177  -3
   5   0  30 233.135 36.8177  -2
   5   0  30 233.135 36.8177   1
   6   0  30 429.569 18.6836  -3
   6   1  30 429.569 18.6836  -2
   6   0  30 429.569 18.6836   1
   7   0  30 19.9683 16.7280  -3
   7   1  30 19.9683 16.7280  -2
   7   0  30 19.9683 16.7280   1
   8   0  30 7.61663 12.7689  -3
   8   1  30 7.61663 12.7689  -2
   8   0  30 7.61663 12.7689   1
   9   0  30 510.017 30.6833  -3
   9   1  30 510.017 30.6833  -2
   9   0  30 510.017 30.6833   1
   1   1  30 273.923 23.9571   1
   2   1  30 301.969 28.3458  -3
   2   1  30 301.969 28.3458   1
   2   1  30 333.502 40.1025  -3
   2   1  30 333.502 40.1025  -2
   2   1  30 333.502 40.1025   1
   3   1  30 62.9268 34.6134  -3
   3   2  30 62.9268 34.6134  -2
   3   1  30 62.9268 34.6134   1
   3   1  30 155.264 36.0622  -3
   3   0  30 155.264 36.0622  -2
   3   1  30 155.264 36.0622   1
   3   1  30 62.8906 22.8779  -3
   3   1  30 62.8906 22.8779  -2
   3   1  30 62.8906 22.8779   1
   4   1  30 660.154 34.9663  -3
   4   0  30 660.154 34.9663  -2
   4   1  30 660.154 34.9663   1
   4   1  30 605.568 35.8316  -3
   4   1  30 605.568 35.8316  -2
   4   1  30 605.568 35.8316   1
   4   1  30 637.940 34.3285  -3
   4   2  30 637.940 34.3285  -2
   4   1  30 637.940 34.3285   1
   5   1  30 393.315 19.4089  -3
   5   2  30 393.315 19.4089  -2
   5   1  30 393.315 19.4089   1
   5   1  30 411.700 30.6703  -3
   5   1  30 411.700 30.6703  -2
   5   1  30 411.700 30.6703   1
   5   1  30 381.694 19.1615  -3
   5   0  30 381.694 19.1615  -2
   5   1  30 381.694 19.1615   1
   6   1  30 208.116 13.9171  -3
   6   0  30 208.116 13.9171  -2
   6   1  30 208.116 13.9171   1
   6   1  30 187.949 37.2881  -3
   6   1  30 187.949 37.2881  -2
   6   1  30 187.949 37.2881   1
   6   1  30 159.808 12.1560  -3
   6   2  30 159.808 12.1560  -2
   6   1  30 159.808 12.1560   1
   7   1  30 127.706 18.7260  -3
   7   2  30 127.706 18.7260  -2
   7   1  30 127.706 18.7260   1
   7   1  30 81.1450 17.6108  -3
   7   0  30 81.1450 17.6108  -2
   7   1  30 81.1450 17.6108   1
   8   1  30 -0.7769 14.3046  -3
   8   2  30 -0.7769 14.3046  -2
   8   1  30 -0.7769 14.3046   1
   8   1  30 -4.2483 13.1913  -3
   8   0  30 -4.2483 13.1913  -2
   8   1  30 -4.2483 13.1913   1
   9   1  30 702.118 39.1074  -3
   9   2  30 702.118 39.1074  -2
   9   1  30 702.118 39.1074   1
   9   1  30 719.294 40.5834  -3
   9   0  30 719.294 40.5834  -2
   9   1  30 719.294 40.5834   1
   1   2  30 692.686 44.5926  -3
   1   2  30 692.686 44.5926   1
   2   2  30 1127.98 74.4936  -3
   2   2  30 1127.98 74.4936  -2
   2   2  30 1127.98 74.4936   1
   2   2  30 1031.49 45.7788  -3
   2   2  30 1031.49 45.7788   1
   3   2  30 30.3130 23.5552  -3
   3   2  30 30.3130 23.5552  -2
   3   2  30 30.3130 23.5552   1
   3   2  30 47.7157 34.2376  -3
   3   3  30 47.7157 34.2376  -2
   3   2  30 47.7157 34.2376   1
   3   2  30 -24.648 28.9129  -3
   3   1  30 -24.648 28.9129  -2
   3   2  30 -24.648 28.9129   1
   4   2  30 75.2064 15.4254  -3
   4   1  30 75.2064 15.4254  -2
   4   2  30 75.2064 15.4254   1
   4   2  30 15.9000 22.4865  -3
   4   2  30 15.9000 22.4865  -2
   4   2  30 15.9000 22.4865   1
   4   2  30 99.2944 34.5655  -3
   4   3  30 99.2944 34.5655  -2
   4   2  30 99.2944 34.5655   1
   5   2  30 14.9210 13.6178  -3
   5   3  30 14.9210 13.6178  -2
   5   2  30 14.9210 13.6178   1
   5   2  30 6.96669 13.3827  -3
   5   1  30 6.96669 13.3827  -2
   5   2  30 6.96669 13.3827   1
   5   2  30 2.69701 31.8640  -3
   5   2  30 2.69701 31.8640  -2
   5   2  30 2.69701 31.8640   1
   6   2  30 41.0578 12.1098  -3
   6   1  30 41.0578 12.1098  -2
   6   2  30 41.0578 12.1098   1
   6   2  30 17.7079 10.1844  -3
   6   3  30 17.7079 10.1844  -2
   6   2  30 17.7079 10.1844   1
   6   2  30 1.43815 33.7776  -3
   6   2  30 1.43815 33.7776  -2
   6   2  30 1.43815 33.7776   1
   7   2  30 411.376 26.0449  -3
   7   3  30 411.376 26.0449  -2
   7   2  30 411.376 26.0449   1
   7   2  30 413.520 26.4209  -3
   7   1  30 413.520 26.4209  -2
   7   2  30 413.520 26.4209   1
   8   2  30 56.2649 16.7391  -3
   8   1  30 56.2649 16.7391  -2
   8   2  30 56.2649 16.7391   1
   8   2  30 55.9128 15.7534  -3
   8   3  30 55.9128 15.7534  -2
   8   2  30 55.9128 15.7534   1
   9   2  30 51.8741 14.2997  -3
   9   3  30 51.8741 14.2997  -2
   9   2  30 51.8741 14.2997   1
   9   2  30 36.3725 14.9313  -3
   9   1  30 36.3725 14.9313  -2
   9   2  30 36.3725 14.9313   1
   0   3  30 -8.9366 21.3221   1
   1   3  30 219.146 20.0528  -3
   1   3  30 219.146 20.0528   1
   2   3  30 64.9119 13.9860  -3
   2   3  30 64.9119 13.9860   1
   3   3  30 132.577 25.0306  -3
   3   2  30 132.577 25.0306  -2
   3   3  30 132.577 25.0306   1
   3   3  30 149.094 25.9010  -3
   3   3  30 149.094 25.9010  -2
   3   3  30 149.094 25.9010   1
   3   3  30 149.102 37.4107  -3
   3   4  30 149.102 37.4107  -2
   3   3  30 149.102 37.4107   1
   4   3  30 1307.11 56.5504  -3
   4   2  30 1307.11 56.5504  -2
   4   3  30 1307.11 56.5504   1
   4   3  30 1314.89 83.1804  -3
   4   4  30 1314.89 83.1804  -2
   4   3  30 1314.89 83.1804   1
   4   3  30 1425.59 61.8372  -3
   4   3  30 1425.59 61.8372  -2
   4   3  30 1425.59 61.8372   1
   5   3  30 97.1565 14.7487  -3
   5   2  30 97.1565 14.7487  -2
   5   3  30 97.1565 14.7487   1
   5   3  30 90.9722 14.0151  -3
   5   4  30 90.9722 14.0151  -2
   5   3  30 90.9722 14.0151   1
   5   3  30 108.733 36.2038  -3
   5   3  30 108.733 36.2038  -2
   5   3  30 108.733 36.2038   1
   6   3  30 159.507 13.9682  -3
   6   2  30 159.507 13.9682  -2
   6   3  30 159.507 13.9682   1
   6   3  30 151.233 21.2029  -3
   6   4  30 151.233 21.2029  -2
   6   3  30 151.233 21.2029   1
   6   3  30 135.450 37.5823  -3
   6   3  30 135.450 37.5823  -2
   6   3  30 135.450 37.5823   1
   7   3  30 81.0178 18.9551  -3
   7   4  30 81.0178 18.9551  -2
   7   3  30 81.0178 18.9551   1
   7   3  30 102.572 19.4473  -3
   7   2  30 102.572 19.4473  -2
   7   3  30 102.572 19.4473   1
   8   3  30 113.297 17.0932  -3
   8   4  30 113.297 17.0932  -2
   8   3  30 113.297 17.0932   1
   8   3  30 82.3972 18.1493  -3
   8   2  30 82.3972 18.1493  -2
   8   3  30 82.3972 18.1493   1
   9   3  30 290.390 23.4329  -3
   9   2  30 290.390 23.4329  -2
   9   3  30 290.390 23.4329   1
   9   3  30 304.910 22.0710  -3
   9   4  30 304.910 22.0710  -2
   9   3  30 304.910 22.0710   1
   0   4  30 123.907 23.6138  -3
   0   4  30 123.907 23.6138   1
   1   4  30 413.499 15.4850  -3
   1   4  30 413.499 15.4850   1
   2   4  30 555.944 17.1722  -3
   2   4  30 555.944 17.1722   1
   3   4  30 40.2491 25.3420  -3
   3   3  30 40.2491 25.3420  -2
   3   4  30 40.2491 25.3420   1
   3   4  30 57.6138 25.6556  -3
   3   4  30 57.6138 25.6556  -2
   3   4  30 57.6138 25.6556   1
   3   4  30 43.1419 39.1364  -3
   3   5  30 43.1419 39.1364  -2
   3   4  30 43.1419 39.1364   1
   4   4  30 892.034 41.8653  -3
   4   3  30 892.034 41.8653  -2
   4   4  30 892.034 41.8653   1
   4   4  30 792.409 61.2422  -3
   4   5  30 792.409 61.2422  -2
   4   4  30 792.409 61.2422   1
   4   4  30 883.245 45.5854  -3
   4   4  30 883.245 45.5854  -2
   4   4  30 883.245 45.5854   1
   5   4  30 32.6857 14.8921  -3
   5   3  30 32.6857 14.8921  -2
   5   4  30 32.6857 14.8921   1
   5   4  30 42.3394 21.5607  -3
   5   5  30 42.3394 21.5607  -2
   5   4  30 42.3394 21.5607   1
   5   4  30 -61.561 35.2885  -3
   5   4  30 -61.561 35.2885  -2
   5   4  30 -61.561 35.2885   1
   6   4  30 273.798 17.0431  -3
   6   3  30 273.798 17.0431  -2
   6   4  30 273.798 17.0431   1
   6   4  30 282.972 24.6077  -3
   6   5  30 282.972 24.6077  -2
   6   4  30 282.972 24.6077   1
   6   4  30 243.212 40.9853  -3
   6   4  30 243.212 40.9853  -2
   6   4  30 243.212 40.9853   1
   7   4  30 60.4008 19.3563  -3
   7   3  30 60.4008 19.3563  -2
   7   4  30 60.4008 19.3563   1
   7   4  30 88.8376 20.0312  -3
   7   5  30 88.8376 20.0312  -2
   7   4  30 88.8376 20.0312   1
   8   4  30 84.2585 17.6733  -3
   8   5  30 84.2585 17.6733  -2
   8   4  30 84.2585 17.6733   1
   8   4  30 54.2450 18.6638  -3
   8   3  30 54.2450 18.6638  -2
   8   4  30 54.2450 18.6638   1
   8   4  30 81.8141 27.9178  -2
   8   4  30 81.8141 27.9178   1
   9   4  30 23.9286 19.2633  -3
   9   3  30 23.9286 19.2633  -2
   9   4  30 23.9286 19.2633   1
   0   5  30 15.0830 23.2600   1
   1   5  30 273.659 11.5975  -3
   1   5  30 273.659 11.5975   1
   2   5  30 826.163 22.0691  -3
   2   5  30 826.163 22.0691   1
   3   5  30 12.7021 10.3435  -3
   3   5  30 12.7021 10.3435   1
   3   5  30 -18.179 38.5152  -3
   3   5  30 -18.179 38.5152  -2
   3   5  30 -18.179 38.5152   1
   4   5  30 -25.780 36.0412  -3
   4   6  30 -25.780 36.0412  -2
   4   5  30 -25.780 36.0412   1
   4   5  30 29.4897 19.5139  -3
   4   4  30 29.4897 19.5139  -2
   4   5  30 29.4897 19.5139   1
   4   5  30 7.94753 26.1854  -3
   4   5  30 7.94753 26.1854  -2
   4   5  30 7.94753 26.1854   1
   5   5  30 107.370 37.7668  -3
   5   6  30 107.370 37.7668  -2
   5   5  30 107.370 37.7668   1
   5   5  30 31.9501 15.4150  -3
   5   4  30 31.9501 15.4150  -2
   5   5  30 31.9501 15.4150   1
   5   5  30 58.1640 38.0641  -3
   5   5  30 58.1640 38.0641  -2
   5   5  30 58.1640 38.0641   1
   6   5  30 -6.5165 13.8906  -3
   6   4  30 -6.5165 13.8906  -2
   6   5  30 -6.5165 13.8906   1
   6   5  30 56.0930 21.7939  -3
   6   6  30 56.0930 21.7939  -2
   6   5  30 56.0930 21.7939   1
   6   6  30 19.5497 11.7571  -2
   6   5  30 19.5497 11.7571   1
   7   5  30 105.454 21.3024  -3
   7   4  30 105.454 21.3024  -2
   7   5  30 105.454 21.3024   1
   7   5  30 63.4954 20.2586  -3
   7   6  30 63.4954 20.2586  -2
   7   5  30 63.4954 20.2586   1
   8   5  30 47.8822 20.3888  -2
   8   5  30 47.8822 20.3888   1
   8   5  30 39.2972 18.9108  -3
   8   4  30 39.2972 18.9108  -2
   8   5  30 39.2972 18.9108   1
   8   5  30 72.0370 18.0784  -3
   8   6  30 72.0370 18.0784  -2
   8   5  30 72.0370 18.0784   1
  10   4  30 16.7106 12.9362  -2
  10   5  30 16.7106 12.9362   1
   0   6  30 1045.84 31.8093  -3
   0   6  30 1045.84 31.8093   1
   1   6  30 30.5074 9.65735  -3
   1   6  30 30.5074 9.65735   1
   2   6  30 21.2953 9.77020  -3
   2   6  30 21.2953 9.77020   1
   3   6  30 -15.055 39.5133  -3
   3   6  30 -15.055 39.5133  -2
   3   6  30 -15.055 39.5133   1
   3   6  30 116.074 10.9562  -3
   3   6  30 116.074 10.9562   1
   4   6  30 35.7010 28.1217  -3
   4   6  30 35.7010 28.1217  -2
   4   6  30 35.7010 28.1217   1
   4   6  30 9.21523 11.1487  -3
   4   6  30 9.21523 11.1487   1
   4   6  30 18.8004 38.1295  -3
   4   7  30 18.8004 38.1295  -2
   4   6  30 18.8004 38.1295   1
   5   6  30 432.275 22.5675  -3
   5   5  30 432.275 22.5675  -2
   5   6  30 432.275 22.5675   1
   5   6  30 347.247 47.1532  -3
   5   6  30 347.247 47.1532  -2
   5   6  30 347.247 47.1532   1
   5   6  30 395.037 45.7055  -3
   5   7  30 395.037 45.7055  -2
   5   6  30 395.037 45.7055   1
   5   6  30 382.479 25.4600  -3
   5   6  30 382.479 25.4600   1
   6   6  30 129.634 22.8326  -3
   6   7  30 129.634 22.8326  -2
   6   6  30 129.634 22.8326   1
   6   6  30 82.6879 14.8393  -3
   6   5  30 82.6879 14.8393  -2
   6   6  30 82.6879 14.8393   1
   7   6  30 71.3434 22.3543  -3
   7   5  30 71.3434 22.3543  -2
   7   6  30 71.3434 22.3543   1
   7   6  30 78.3307 21.1085  -3
   7   7  30 78.3307 21.1085  -2
   7   6  30 78.3307 21.1085   1
   7   6  30 50.3086 22.3507  -2
   7   6  30 50.3086 22.3507   1
   8   6  30 50.8061 29.1264  -2
   8   6  30 50.8061 29.1264   1
   8   6  30 2.39118 20.3559  -3
   8   5  30 2.39118 20.3559  -2
   8   6  30 2.39118 20.3559   1
   8   6  30 22.2614 39.6956  -3
   8   7  30 22.2614 39.6956  -2
   8   6  30 22.2614 39.6956   1
   9   7  30 68.4801 16.1457  -2
   9   6  30 68.4801 16.1457   1
   0   7  30 11.3912 9.20609   1
   1   7  30 33.4712 9.38247  -3
   1   7  30 33.4712 9.38247   1
   2   7  30 17.2009 10.2495  -3
   2   7  30 17.2009 10.2495   1
   3   7  30 17.5031 10.4440  -3
   3   7  30 17.5031 10.4440   1
   3   7  30 69.5710 42.4152  -3
   3   7  30 69.5710 42.4152  -2
   3   7  30 69.5710 42.4152   1
   4   7  30 139.064 9.50758  -3
   4   7  30 139.064 9.50758   1
   4   7  30 135.512 38.3890  -2
   4   7  30 135.512 38.3890   1
   4   7  30 42.5150 41.1269  -3
   4   7  30 42.5150 41.1269  -2
   4   7  30 42.5150 41.1269   1
   5   7  30 51.4133 11.1124  -3
   5   7  30 51.4133 11.1124   1
   5   7  30 81.3449 40.6277  -3
   5   8  30 81.3449 40.6277  -2
   5   7  30 81.3449 40.6277   1
   5   7  30 118.919 42.8665  -3
   5   7  30 118.919 42.8665  -2
   5   7  30 118.919 42.8665   1
   5   7  30 28.0939 33.7612  -2
   5   7  30 28.0939 33.7612   1
   6   7  30 445.917 31.2657  -2
   6   7  30 445.917 31.2657   1
   6   7  30 466.951 29.5846  -3
   6   7  30 466.951 29.5846   1
   6   7  30 460.269 40.9306  -3
   6   6  30 460.269 40.9306  -2
   6   7  30 460.269 40.9306   1
   6   7  30 405.900 48.8277  -3
   6   8  30 405.900 48.8277  -2
   6   7  30 405.900 48.8277   1
   7   7  30 546.503 33.6249  -2
   7   7  30 546.503 33.6249   1
   7   7  30 689.063 58.9120  -3
   7   8  30 689.063 58.9120  -2
   7   7  30 689.063 58.9120   1
   7   7  30 579.244 43.9444  -3
   7   6  30 579.244 43.9444  -2
   7   7  30 579.244 43.9444   1
   8   7  30 159.679 33.7803  -2
   8   7  30 159.679 33.7803   1
   8   7  30 99.3064 22.0827  -3
   8   6  30 99.3064 22.0827  -2
   8   7  30 99.3064 22.0827   1
   8   7  30 240.365 43.3217  -3
   8   8  30 240.365 43.3217  -2
   8   7  30 240.365 43.3217   1
   9   8  30 21.0601 15.6627  -2
   9   7  30 21.0601 15.6627   1
   0   8  30 55.2834 14.3806  -3
   0   8  30 55.2834 14.3806   1
   1   8  30 807.032 18.1288  -3
   1   8  30 807.032 18.1288   1
   2   8  30 95.1801 10.7999  -3
   2   8  30 95.1801 10.7999   1
   3   8  30 22.3105 9.23771  -3
   3   8  30 22.3105 9.23771   1
   3   8  30 37.9731 42.8952  -3
   3   8  30 37.9731 42.8952  -2
   3   8  30 37.9731 42.8952   1
   4   8  30 32.8800 8.50802  -3
   4   8  30 32.8800 8.50802   1
   5   8  30 258.979 13.6563  -3
   5   8  30 258.979 13.6563   1
   5   8  30 238.534 37.9493  -2
   5   8  30 238.534 37.9493   1
   6   8  30 257.563 16.9247  -3
   6   8  30 257.563 16.9247   1
   6   8  30 249.648 27.1466  -2
   6   8  30 249.648 27.1466   1
   7   8  30 134.462 22.9929  -3
   7   8  30 134.462 22.9929   1
   7   8  30 164.966 36.3729  -2
   7   8  30 164.966 36.3729   1
   7   8  30 94.0663 44.3142  -3
   7   9  30 94.0663 44.3142  -2
   7   8  30 94.0663 44.3142   1
   7   8  30 187.838 32.4559  -3
   7   7  30 187.838 32.4559  -2
   7   8  30 187.838 32.4559   1
   8   8  30 -0.8250 32.4194  -2
   8   8  30 -0.8250 32.4194   1
   8   8  30 110.241 17.3960  -3
   8   8  30 110.241 17.3960   1
   9   9  30 72.9822 16.5944  -2
   9   8  30 72.9822 16.5944   1
   0   9  30 18.6864 9.90815   1
   1   9  30 24.0914 10.6629  -3
   1   9  30 24.0914 10.6629   1
   2   9  30 132.721 11.2863  -3
   2   9  30 132.721 11.2863   1
   3   9  30 51.7192 9.69641  -3
   3   9  30 51.7192 9.69641   1
   4   9  30 302.442 13.5198  -3
   4   9  30 302.442 13.5198   1
   5   9  30 14.6194 11.1981  -3
   5   9  30 14.6194 11.1981   1
   6   9  30 11.7853 9.85161  -3
   6   9  30 11.7853 9.85161   1
   6   9  30 42.6831 35.2590  -2
   6   9  30 42.6831 35.2590   1
   7   9  30 113.253 15.0360  -3
   7   9  30 113.253 15.0360   1
   7   9  30 175.570 36.2106  -2
   7   9  30 175.570 36.2106   1
   8   9  30 41.3824 33.7971  -3
   8   9  30 41.3824 33.7971   1
   8   9  30 -0.4702 31.7404  -2
   8   9  30 -0.4702 31.7404   1
   9  10  30 92.9940 18.1627  -2
   9   9  30 92.9940 18.1627   1
   0  10  30 88.3468 19.2813  -3
   0  10  30 88.3468 19.2813   1
   1  10  30 459.605 20.3289  -3
   1  10  30 459.605 20.3289   1
   2  10  30 891.742 27.6345  -3
   2  10  30 891.742 27.6345   1
   3  10  30 21.5240 9.73728  -3
   3  10  30 21.5240 9.73728   1
   4  10  30 221.879 16.7250  -3
   4  10  30 221.879 16.7250   1
   5  10  30 -7.0983 33.8570  -2
   5  10  30 -7.0983 33.8570   1
   5  10  30 -2.5315 11.3332  -3
   5  10  30 -2.5315 11.3332   1
   6  10  30 115.100 15.9993  -3
   6  10  30 115.100 15.9993   1
   7  10  30 31.7661 24.7959  -3
   7  10  30 31.7661 24.7959   1
   7  10  30 61.8169 34.3561  -2
   7  10  30 61.8169 34.3561   1
   8  10  30 19.1122 13.1797   1
   9  10  30 72.2062 12.1329   1
   0  11  30 1.81152 7.85120   1
   1  11  30 357.339 23.2257  -3
   1  11  30 357.339 23.2257   1
   2  11  30 -9.9625 14.5809  -3
   2  11  30 -9.9625 14.5809   1
   3  11  30 212.883 17.8101  -3
   3  11  30 212.883 17.8101   1
   4  11  30 19.6474 10.0264  -3
   4  11  30 19.6474 10.0264   1
   5  11  30 70.4196 11.8627  -3
   5  11  30 70.4196 11.8627   1
   6  11  30 -2.5475 18.2163  -3
   6  11  30 -2.5475 18.2163   1
   7  11  30 78.8522 35.7812  -2
   7  11  30 78.8522 35.7812   1
   7  11  30 235.369 39.9377  -3
   7  11  30 235.369 39.9377   1
   9  11  30 17.7257 10.1347   1
   0  12  30 104.086 23.1000  -3
   0  12  30 104.086 23.1000   1
   1  12  30 737.524 31.8275  -3
   1  12  30 737.524 31.8275   1
   2  12  30 564.135 22.6267  -3
   2  12  30 564.135 22.6267   1
   3  12  30 338.885 22.5803  -3
   3  12  30 338.885 22.5803   1
   4  12  30 -1.6050 12.4531  -3
   4  12  30 -1.6050 12.4531   1
   5  12  30 52.2024 14.7281  -3
   5  12  30 52.2024 14.7281   1
   6  12  30 40.3429 17.6798  -3
   6  12  30 40.3429 17.6798   1
   7  12  30 12.5151 25.2596  -3
   7  12  30 12.5151 25.2596   1
   8  12  30 1292.16 84.3702  -3
   8  12  30 1292.16 84.3702   1
   0  13  30 -6.5195 8.36386   1
   1  13  30 941.164 37.5685  -3
   1  13  30 941.164 37.5685   1
   2  13  30 28.0284 17.1850  -3
   2  13  30 28.0284 17.1850   1
   3  13  30 134.642 19.3184  -3
   3  13  30 134.642 19.3184   1
   4  13  30 96.1163 16.6791  -3
   4  13  30 96.1163 16.6791   1
   5  13  30 48.5514 18.1671  -3
   5  13  30 48.5514 18.1671   1
   6  13  30 39.7217 18.2292  -3
   6  13  30 39.7217 18.2292   1
   7  13  30 72.7249 37.3200  -3
   7  13  30 72.7249 37.3200   1
   0  14  30 1014.73 67.1353  -3
   0  14  30 1014.73 67.1353   1
   1  14  30 112.402 25.5141  -3
   1  14  30 112.402 25.5141   1
   2  14  30 551.596 35.0052  -3
   2  14  30 551.596 35.0052   1
   3  14  30 82.9336 19.4632  -3
   3  14  30 82.9336 19.4632   1
   4  14  30 71.4728 40.7239  -3
   4  14  30 71.4728 40.7239   1
   5  14  30 7.20214 39.6772  -3
   5  14  30 7.20214 39.6772   1
   6  14  30 122.424 41.5075  -3
   6  14  30 122.424 41.5075   1
   7  14  30 107.317 40.7743  -3
   7  14  30 107.317 40.7743   1
   0  15  30 -10.184 8.47271   1
   1  15  30 28.0531 24.2208  -3
   1  15  30 28.0531 24.2208   1
   2  15  30 -5.3072 23.8459  -3
   2  15  30 -5.3072 23.8459   1
   3  15  30 21.7600 29.0134  -3
   3  15  30 21.7600 29.0134   1
   4  15  30 11.9896 5.62365   1
   5  15  30 49.3148 40.6066  -3
   5  15  30 49.3148 40.6066   1
   6  15  30 115.015 41.9875  -3
   6  15  30 115.015 41.9875   1
   7  15  30 174.731 13.2306   1
   0  16  30 856.847 60.4727  -3
   0  16  30 856.847 60.4727   1
   1  16  30 97.1677 33.2620  -3
   1  16  30 97.1677 33.2620   1
   2  16  30 41.9077 6.61347   1
   3  16  30 28.1739 5.86346   1
   4  16  30 150.534 9.81227   1
   5  16  30 117.768 9.25869   1
   6  16  30 431.893 24.3063   1
   7  16  30 28.8041 22.3887   1
   0  17  30 -16.634 7.77420   1
   1  17  30 -7.4646 33.7893  -3
   1  17  30 -7.4646 33.7893   1
   2  17  30 330.309 12.4127   1
   3  17  30 161.238 10.1412   1
   4  17  30 31.3705 8.50177   1
   5  17  30 549.992 20.3975   1
   6  17  30 45.2159 13.4852   1
   7  17  30 59.7904 22.8300   1
   0  18  30 69.3918 10.2465   1
   1  18  30 12.1216 6.69791   1
   2  18  30 37.6245 7.66050   1
   3  18  30 51.1633 9.20985   1
   4  18  30 263.362 19.0560   1
   5  18  30 17.5145 7.48152   1
   6  18  30 573.664 48.4172   1
   7  18  30 330.918 51.3234   1
   0  19  30 11.6647 10.5971   1
   1  19  30 120.377 9.95767   1
   2  19  30 26.2588 10.1651   1
   3  19  30 147.305 14.6689   1
   4  19  30 -4.3572 10.1934   1
   5  19  30 0.35293 21.8420   1
   6  19  30 578.202 49.7297   1
   0  20  30 19.1913 11.1962   1
   1  20  30 15.0185 8.41794   1
   2  20  30 -0.7157 11.2702   1
   3  20  30 93.6599 12.3975   1
   4  20  30 139.962 19.1739   1
   5  20  30 35.5455 32.5465   1
   0  21  30 16.2471 10.4842   1
   1  21  30 244.033 20.2850   1
   3  21  30 140.757 14.6450   1
   0  22  30 25.9276 19.2927   1
   2   0  31 12.2900 10.3678   1
   3   0  31 1.13857 10.8366   1
   4   0  31 -6.6818 30.2491   1
   5   0  31 -3.7744 32.2702   1
   1   1  31 222.984 22.4489   1
   2   1  31 133.660 13.2347   1
   3   1  31 227.078 37.6046  -3
   3   2  31 227.078 37.6046  -2
   3   1  31 227.078 37.6046   1
   3   1  31 162.071 34.5705  -3
   3   1  31 162.071 34.5705  -2
   3   1  31 162.071 34.5705   1
   3   1  31 122.127 36.9022  -3
   3   1  31 122.127 36.9022   1
   4   1  31 172.819 25.5198  -3
   4   1  31 172.819 25.5198  -2
   4   1  31 172.819 25.5198   1
   4   1  31 170.232 23.3492  -3
   4   1  31 170.232 23.3492   1
   4   1  31 268.151 24.4394  -3
   4   2  31 268.151 24.4394  -2
   4   1  31 268.151 24.4394   1
   5   1  31 59.9063 13.7781  -3
   5   2  31 59.9063 13.7781  -2
   5   1  31 59.9063 13.7781   1
   5   1  31 39.7419 13.5100  -3
   5   1  31 39.7419 13.5100   1
   5   1  31 73.0050 23.7396  -3
   5   1  31 73.0050 23.7396  -2
   5   1  31 73.0050 23.7396   1
   6   1  31 172.780 12.7914  -3
   6   2  31 172.780 12.7914  -2
   6   1  31 172.780 12.7914   1
   6   1  31 130.204 12.8538  -3
   6   1  31 130.204 12.8538   1
   6   1  31 180.298 37.5380  -3
   6   1  31 180.298 37.5380  -2
   6   1  31 180.298 37.5380   1
   7   1  31 637.525 32.5540  -3
   7   1  31 637.525 32.5540   1
   7   1  31 642.474 32.8245  -3
   7   2  31 642.474 32.8245  -2
   7   1  31 642.474 32.8245   1
   8   1  31 44.6478 15.2300  -3
   8   2  31 44.6478 15.2300  -2
   8   1  31 44.6478 15.2300   1
   8   1  31 63.1640 14.1235  -3
   8   1  31 63.1640 14.1235   1
   9   1  31 907.657 49.3557  -3
   9   2  31 907.657 49.3557  -2
   9   1  31 907.657 49.3557   1
   9   1  31 907.369 49.8624  -3
   9   1  31 907.369 49.8624   1
   1   2  31 162.771 20.2490  -3
   1   2  31 162.771 20.2490   1
   2   2  31 173.297 38.0418  -3
   2   3  31 173.297 38.0418  -2
   2   2  31 173.297 38.0418   1
   2   2  31 133.456 38.3214  -3
   2   2  31 133.456 38.3214  -2
   2   2  31 133.456 38.3214   1
   2   2  31 74.4876 25.0140  -3
   2   2  31 74.4876 25.0140   1
   3   2  31 855.123 43.5435  -3
   3   2  31 855.123 43.5435  -2
   3   2  31 855.123 43.5435   1
   3   2  31 906.230 68.1760  -3
   3   1  31 906.230 68.1760  -2
   3   2  31 906.230 68.1760   1
   4   2  31 617.216 36.3724  -3
   4   2  31 617.216 36.3724  -2
   4   2  31 617.216 36.3724   1
   4   2  31 634.520 26.8311  -3
   4   1  31 634.520 26.8311  -2
   4   2  31 634.520 26.8311   1
   4   2  31 639.234 32.3768  -3
   4   3  31 639.234 32.3768  -2
   4   2  31 639.234 32.3768   1
   5   2  31 39.0836 13.9733  -3
   5   3  31 39.0836 13.9733  -2
   5   2  31 39.0836 13.9733   1
   5   2  31 18.4393 14.0659  -3
   5   1  31 18.4393 14.0659  -2
   5   2  31 18.4393 14.0659   1
   5   2  31 35.9530 32.9943  -3
   5   2  31 35.9530 32.9943  -2
   5   2  31 35.9530 32.9943   1
   6   2  31 384.315 17.8056  -3
   6   3  31 384.315 17.8056  -2
   6   2  31 384.315 17.8056   1
   6   2  31 321.253 16.5028  -3
   6   1  31 321.253 16.5028  -2
   6   2  31 321.253 16.5028   1
   6   2  31 399.101 44.5570  -3
   6   2  31 399.101 44.5570  -2
   6   2  31 399.101 44.5570   1
   7   2  31 354.056 24.3929  -3
   7   1  31 354.056 24.3929  -2
   7   2  31 354.056 24.3929   1
   7   2  31 329.672 23.1669  -3
   7   3  31 329.672 23.1669  -2
   7   2  31 329.672 23.1669   1
   8   2  31 106.518 16.9232  -3
   8   3  31 106.518 16.9232  -2
   8   2  31 106.518 16.9232   1
   8   2  31 87.8526 17.1439  -3
   8   1  31 87.8526 17.1439  -2
   8   2  31 87.8526 17.1439   1
   9   2  31 51.8293 15.9262  -3
   9   1  31 51.8293 15.9262  -2
   9   2  31 51.8293 15.9262   1
   9   2  31 26.1666 14.3952  -3
   9   3  31 26.1666 14.3952  -2
   9   2  31 26.1666 14.3952   1
   0   3  31 7.23888 21.8241   1
   1   3  31 14.3812 14.3713  -3
   1   3  31 14.3812 14.3713   1
   2   3  31 136.618 17.5354  -3
   2   3  31 136.618 17.5354   1
   3   3  31 689.989 56.4600  -3
   3   4  31 689.989 56.4600  -2
   3   3  31 689.989 56.4600   1
   3   3  31 941.031 69.9155  -3
   3   2  31 941.031 69.9155  -2
   3   3  31 941.031 69.9155   1
   3   3  31 678.503 39.2119  -3
   3   3  31 678.503 39.2119  -2
   3   3  31 678.503 39.2119   1
   4   3  31 102.518 35.8103  -3
   4   4  31 102.518 35.8103  -2
   4   3  31 102.518 35.8103   1
   4   3  31 76.2074 23.8873  -3
   4   2  31 76.2074 23.8873  -2
   4   3  31 76.2074 23.8873   1
   4   3  31 63.6701 25.1299  -3
   4   3  31 63.6701 25.1299  -2
   4   3  31 63.6701 25.1299   1
   5   3  31 18.0742 12.3377  -3
   5   3  31 18.0742 12.3377   1
   5   3  31 6.68520 13.4737  -3
   5   4  31 6.68520 13.4737  -2
   5   3  31 6.68520 13.4737   1
   5   3  31 -22.813 21.7583  -3
   5   2  31 -22.813 21.7583  -2
   5   3  31 -22.813 21.7583   1
   5   3  31 -2.7243 34.7453  -3
   5   3  31 -2.7243 34.7453  -2
   5   3  31 -2.7243 34.7453   1
   6   3  31 447.324 20.0963  -3
   6   2  31 447.324 20.0963  -2
   6   3  31 447.324 20.0963   1
   6   3  31 426.037 27.7232  -3
   6   4  31 426.037 27.7232  -2
   6   3  31 426.037 27.7232   1
   6   3  31 397.362 45.5862  -3
   6   3  31 397.362 45.5862  -2
   6   3  31 397.362 45.5862   1
   7   3  31 189.106 21.1733  -3
   7   4  31 189.106 21.1733  -2
   7   3  31 189.106 21.1733   1
   7   3  31 234.880 21.3771  -3
   7   2  31 234.880 21.3771  -2
   7   3  31 234.880 21.3771   1
   8   3  31 0.13729 16.5839  -3
   8   4  31 0.13729 16.5839  -2
   8   3  31 0.13729 16.5839   1
   8   3  31 26.4559 17.1772  -3
   8   2  31 26.4559 17.1772  -2
   8   3  31 26.4559 17.1772   1
   9   3  31 193.093 19.6682  -3
   9   4  31 193.093 19.6682  -2
   9   3  31 193.093 19.6682   1
   0   4  31 356.509 31.7217  -3
   0   4  31 356.509 31.7217   1
   1   4  31 22.3396 12.3579  -3
   1   4  31 22.3396 12.3579   1
   2   4  31 122.557 14.5543  -3
   2   4  31 122.557 14.5543   1
   3   4  31 122.598 43.2271  -3
   3   3  31 122.598 43.2271  -2
   3   4  31 122.598 43.2271   1
   3   4  31 119.756 26.9776  -3
   3   4  31 119.756 26.9776  -2
   3   4  31 119.756 26.9776   1
   3   4  31 141.039 41.2660  -3
   3   5  31 141.039 41.2660  -2
   3   4  31 141.039 41.2660   1
   4   4  31 1328.63 78.2799  -3
   4   3  31 1328.63 78.2799  -2
   4   4  31 1328.63 78.2799   1
   4   4  31 1230.02 56.2461  -3
   4   4  31 1230.02 56.2461  -2
   4   4  31 1230.02 56.2461   1
   4   4  31 1338.60 85.2970  -3
   4   5  31 1338.60 85.2970  -2
   4   4  31 1338.60 85.2970   1
   5   4  31 60.9564 15.3822  -3
   5   3  31 60.9564 15.3822  -2
   5   4  31 60.9564 15.3822   1
   5   4  31 47.4334 21.7968  -3
   5   5  31 47.4334 21.7968  -2
   5   4  31 47.4334 21.7968   1
   5   4  31 8.88943 24.8246  -3
   5   4  31 8.88943 24.8246  -2
   5   4  31 8.88943 24.8246   1
   6   4  31 85.4217 21.6295  -3
   6   5  31 85.4217 21.6295  -2
   6   4  31 85.4217 21.6295   1
   6   4  31 44.4857 13.8289  -3
   6   3  31 44.4857 13.8289  -2
   6   4  31 44.4857 13.8289   1
   7   4  31 117.885 20.3439  -3
   7   5  31 117.885 20.3439  -2
   7   4  31 117.885 20.3439   1
   7   4  31 82.7905 20.7975  -3
   7   3  31 82.7905 20.7975  -2
   7   4  31 82.7905 20.7975   1
   8   4  31 98.5470 18.3575  -3
   8   5  31 98.5470 18.3575  -2
   8   4  31 98.5470 18.3575   1
   8   4  31 143.038 20.1981  -3
   8   3  31 143.038 20.1981  -2
   8   4  31 143.038 20.1981   1
   9   4  31 164.400 18.8441  -3
   9   5  31 164.400 18.8441  -2
   9   4  31 164.400 18.8441   1
   0   5  31 16.2814 17.6800   1
   1   5  31 28.3381 9.97103  -3
   1   5  31 28.3381 9.97103   1
   2   5  31 -0.5271 10.0707  -3
   2   5  31 -0.5271 10.0707   1
   3   5  31 15.3908 12.4032  -3
   3   5  31 15.3908 12.4032   1
   3   5  31 -63.267 38.4591  -3
   3   5  31 -63.267 38.4591  -2
   3   5  31 -63.267 38.4591   1
   4   5  31 53.3448 27.5813  -3
   4   5  31 53.3448 27.5813  -2
   4   5  31 53.3448 27.5813   1
   4   5  31 132.263 25.7338  -3
   4   4  31 132.263 25.7338  -2
   4   5  31 132.263 25.7338   1
   5   5  31 332.746 25.0414  -3
   5   4  31 332.746 25.0414  -2
   5   5  31 332.746 25.0414   1
   5   5  31 414.289 47.8516  -3
   5   5  31 414.289 47.8516  -2
   5   5  31 414.289 47.8516   1
   5   5  31 386.649 28.8094  -3
   5   6  31 386.649 28.8094  -2
   5   5  31 386.649 28.8094   1
   5   5  31 270.186 25.9244  -3
   5   5  31 270.186 25.9244   1
   6   6  31 5.96454 12.8565  -2
   6   5  31 5.96454 12.8565   1
   6   5  31 21.6395 14.3126  -3
   6   4  31 21.6395 14.3126  -2
   6   5  31 21.6395 14.3126   1
   6   5  31 -17.241 21.4587  -3
   6   6  31 -17.241 21.4587  -2
   6   5  31 -17.241 21.4587   1
   7   5  31 44.6221 20.4661  -3
   7   4  31 44.6221 20.4661  -2
   7   5  31 44.6221 20.4661   1
   7   5  31 -4.9555 20.0833  -3
   7   6  31 -4.9555 20.0833  -2
   7   5  31 -4.9555 20.0833   1
   8   5  31 35.9288 30.3844  -2
   8   5  31 35.9288 30.3844   1
   8   5  31 46.4713 19.3682  -3
   8   4  31 46.4713 19.3682  -2
   8   5  31 46.4713 19.3682   1
   8   5  31 32.3229 18.2751  -3
   8   6  31 32.3229 18.2751  -2
   8   5  31 32.3229 18.2751   1
   0   6  31 228.114 15.6238  -3
   0   6  31 228.114 15.6238   1
   1   6  31 518.976 16.8341  -3
   1   6  31 518.976 16.8341   1
   2   6  31 59.1643 9.96159  -3
   2   6  31 59.1643 9.96159   1
   3   6  31 230.329 12.8052  -3
   3   6  31 230.329 12.8052   1
   3   6  31 225.001 44.0595  -3
   3   6  31 225.001 44.0595  -2
   3   6  31 225.001 44.0595   1
   4   6  31 198.403 30.5820  -3
   4   6  31 198.403 30.5820  -2
   4   6  31 198.403 30.5820   1
   4   6  31 141.914 14.4772  -3
   4   6  31 141.914 14.4772   1
   4   6  31 173.982 45.2921  -3
   4   5  31 173.982 45.2921  -2
   4   6  31 173.982 45.2921   1
   4   6  31 220.488 42.9615  -3
   4   7  31 220.488 42.9615  -2
   4   6  31 220.488 42.9615   1
   5   6  31 210.920 18.8364  -3
   5   5  31 210.920 18.8364  -2
   5   6  31 210.920 18.8364   1
   5   6  31 150.775 42.8133  -3
   5   6  31 150.775 42.8133  -2
   5   6  31 150.775 42.8133   1
   5   6  31 78.9229 39.6520  -3
   5   7  31 78.9229 39.6520  -2
   5   6  31 78.9229 39.6520   1
   6   6  31 21.4272 22.1170  -3
   6   5  31 21.4272 22.1170  -2
   6   6  31 21.4272 22.1170   1
   6   6  31 -30.555 39.9505  -3
   6   6  31 -30.555 39.9505  -2
   6   6  31 -30.555 39.9505   1
   6   6  31 12.0496 22.6409  -3
   6   7  31 12.0496 22.6409  -2
   6   6  31 12.0496 22.6409   1
   7   6  31 7.56484 22.8346  -2
   7   6  31 7.56484 22.8346   1
   7   6  31 12.7122 21.4682  -3
   7   5  31 12.7122 21.4682  -2
   7   6  31 12.7122 21.4682   1
   7   6  31 10.6788 21.3663  -3
   7   7  31 10.6788 21.3663  -2
   7   6  31 10.6788 21.3663   1
   8   6  31 20.8932 38.4410  -3
   8   5  31 20.8932 38.4410  -2
   8   6  31 20.8932 38.4410   1
   8   6  31 58.0456 39.1152  -3
   8   7  31 58.0456 39.1152  -2
   8   6  31 58.0456 39.1152   1
   0   7  31 -5.2599 9.17631   1
   1   7  31 93.2657 10.5509  -3
   1   7  31 93.2657 10.5509   1
   2   7  31 55.5674 10.9011  -3
   2   7  31 55.5674 10.9011   1
   3   7  31 2.09961 10.5906  -3
   3   7  31 2.09961 10.5906   1
   3   7  31 70.7367 42.7822  -3
   3   7  31 70.7367 42.7822  -2
   3   7  31 70.7367 42.7822   1
   4   7  31 -2.8662 8.75959  -3
   4   7  31 -2.8662 8.75959   1
   4   7  31 -19.156 32.5465  -2
   4   7  31 -19.156 32.5465   1
   5   7  31 198.920 14.0006  -3
   5   7  31 198.920 14.0006   1
   5   7  31 199.202 46.1598  -3
   5   7  31 199.202 46.1598  -2
   5   7  31 199.202 46.1598   1
   5   7  31 224.383 44.6830  -3
   5   8  31 224.383 44.6830  -2
   5   7  31 224.383 44.6830   1
   5   7  31 192.302 39.3958  -2
   5   7  31 192.302 39.3958   1
   6   7  31 167.625 32.8243  -3
   6   6  31 167.625 32.8243  -2
   6   7  31 167.625 32.8243   1
   6   7  31 154.573 24.8162  -2
   6   7  31 154.573 24.8162   1
   6   7  31 140.954 41.4658  -3
   6   8  31 140.954 41.4658  -2
   6   7  31 140.954 41.4658   1
   7   7  31 110.781 24.3389  -2
   7   7  31 110.781 24.3389   1
   7   7  31 58.5906 42.6916  -3
   7   8  31 58.5906 42.6916  -2
   7   7  31 58.5906 42.6916   1
   7   7  31 112.822 24.9366  -3
   7   6  31 112.822 24.9366  -2
   7   7  31 112.822 24.9366   1
   8   7  31 434.269 51.9948  -3
   8   6  31 434.269 51.9948  -2
   8   7  31 434.269 51.9948   1
   9   8  31 55.9404 17.4399  -2
   9   7  31 55.9404 17.4399   1
   0   8  31 14.1941 14.3849  -3
   0   8  31 14.1941 14.3849   1
   1   8  31 6.85275 10.2985  -3
   1   8  31 6.85275 10.2985   1
   2   8  31 17.2645 10.6696  -3
   2   8  31 17.2645 10.6696   1
   3   8  31 265.389 13.1815  -3
   3   8  31 265.389 13.1815   1
   4   8  31 42.5465 8.98565  -3
   4   8  31 42.5465 8.98565   1
   4   8  31 34.8349 44.9371  -3
   4   8  31 34.8349 44.9371  -2
   4   8  31 34.8349 44.9371   1
   5   8  31 130.218 12.7321  -3
   5   8  31 130.218 12.7321   1
   5   8  31 147.319 34.9746  -2
   5   8  31 147.319 34.9746   1
   6   8  31 226.844 26.4514  -2
   6   8  31 226.844 26.4514   1
   6   8  31 254.532 47.1851  -3
   6   9  31 254.532 47.1851  -2
   6   8  31 254.532 47.1851   1
   6   8  31 145.533 12.1565  -3
   6   8  31 145.533 12.1565   1
   7   8  31 178.496 37.9510  -2
   7   8  31 178.496 37.9510   1
   7   8  31 165.858 44.2549  -3
   7   9  31 165.858 44.2549  -2
   7   8  31 165.858 44.2549   1
   7   8  31 133.447 23.3383  -3
   7   8  31 133.447 23.3383   1
   0   9  31 4.41426 9.69527   1
   1   9  31 8.38587 11.4484  -3
   1   9  31 8.38587 11.4484   1
   2   9  31 150.776 11.8725  -3
   2   9  31 150.776 11.8725   1
   3   9  31 16.1210 9.89902  -3
   3   9  31 16.1210 9.89902   1
   4   9  31 61.3591 10.2300  -3
   4   9  31 61.3591 10.2300   1
   5   9  31 172.547 13.4037  -3
   5   9  31 172.547 13.4037   1
   5   9  31 208.355 39.4408  -2
   5   9  31 208.355 39.4408   1
   6   9  31 -2.4914 9.92468  -3
   6   9  31 -2.4914 9.92468   1
   6   9  31 -11.195 35.0847  -2
   6   9  31 -11.195 35.0847   1
   7   9  31 480.400 28.7623  -3
   7   9  31 480.400 28.7623   1
   7   9  31 442.572 45.2777  -2
   7   9  31 442.572 45.2777   1
   0  10  31 131.284 23.4588  -3
   0  10  31 131.284 23.4588   1
   1  10  31 34.2603 17.7248  -3
   1  10  31 34.2603 17.7248   1
   2  10  31 63.3339 14.9819  -3
   2  10  31 63.3339 14.9819   1
   3  10  31 35.3633 10.3477  -3
   3  10  31 35.3633 10.3477   1
   4  10  31 584.040 23.8949  -3
   4  10  31 584.040 23.8949   1
   5  10  31 41.7444 11.6795  -3
   5  10  31 41.7444 11.6795   1
   5  10  31 91.9060 37.9394  -2
   5  10  31 91.9060 37.9394   1
   6  10  31 157.416 39.3915  -2
   6  10  31 157.416 39.3915   1
   6  10  31 155.526 12.1119  -3
   6  10  31 155.526 12.1119   1
   7  10  31 115.519 37.0197  -3
   7  10  31 115.519 37.0197   1
   7  10  31 20.0157 33.5255  -2
   7  10  31 20.0157 33.5255   1
   0  11  31 8.70862 8.23637   1
   1  11  31 1141.51 42.1724  -3
   1  11  31 1141.51 42.1724   1
   2  11  31 192.837 16.9047  -3
   2  11  31 192.837 16.9047   1
   3  11  31 116.061 18.9536  -3
   3  11  31 116.061 18.9536   1
   4  11  31 698.215 24.1183  -3
   4  11  31 698.215 24.1183   1
   5  11  31 -3.4173 11.4721  -3
   5  11  31 -3.4173 11.4721   1
   6  11  31 79.3551 15.8712  -3
   6  11  31 79.3551 15.8712   1
   7  11  31 174.690 38.2831  -2
   7  11  31 174.690 38.2831   1
   7  11  31 196.100 40.1534  -3
   7  11  31 196.100 40.1534   1
   0  12  31 -15.082 29.9323  -3
   0  12  31 -15.082 29.9323   1
   1  12  31 75.5929 17.4329  -3
   1  12  31 75.5929 17.4329   1
   2  12  31 29.6907 16.7522  -3
   2  12  31 29.6907 16.7522   1
   3  12  31 49.1892 18.4420  -3
   3  12  31 49.1892 18.4420   1
   4  12  31 167.401 12.5513  -3
   4  12  31 167.401 12.5513   1
   5  12  31 2.49362 11.9048  -3
   5  12  31 2.49362 11.9048   1
   6  12  31 53.3053 17.7367  -3
   6  12  31 53.3053 17.7367   1
   7  12  31 35.1449 26.3217  -3
   7  12  31 35.1449 26.3217   1
   0  13  31 12.2873 8.44010   1
   1  13  31 821.630 34.5963  -3
   1  13  31 821.630 34.5963   1
   2  13  31 296.790 28.7117  -3
   2  13  31 296.790 28.7117   1
   3  13  31 49.4289 18.6642  -3
   3  13  31 49.4289 18.6642   1
   4  13  31 90.4821 14.6955  -3
   4  13  31 90.4821 14.6955   1
   5  13  31 249.221 22.0183  -3
   5  13  31 249.221 22.0183   1
   6  13  31 704.108 42.5065  -3
   6  13  31 704.108 42.5065   1
   7  13  31 -54.271 38.0416  -3
   7  13  31 -54.271 38.0416   1
   0  14  31 316.358 40.9277  -3
   0  14  31 316.358 40.9277   1
   1  14  31 1008.45 66.5016  -3
   1  14  31 1008.45 66.5016   1
   2  14  31 145.463 24.5780  -3
   2  14  31 145.463 24.5780   1
   3  14  31 -43.966 28.7002  -3
   3  14  31 -43.966 28.7002   1
   4  14  31 18.2645 41.6907  -3
   4  14  31 18.2645 41.6907   1
   5  14  31 166.841 43.0134  -3
   5  14  31 166.841 43.0134   1
   6  14  31 41.7134 41.1923  -3
   6  14  31 41.7134 41.1923   1
   7  14  31 11.1204 38.2249  -3
   7  14  31 11.1204 38.2249   1
   0  15  31 -8.5398 8.55189   1
   1  15  31 89.8846 34.4576  -3
   1  15  31 89.8846 34.4576   1
   2  15  31 42.8070 23.6384  -3
   2  15  31 42.8070 23.6384   1
   3  15  31 97.1678 32.3881  -3
   3  15  31 97.1678 32.3881   1
   4  15  31 49.4635 6.98685   1
   5  15  31 124.434 9.42921   1
   6  15  31 29.5796 44.5554  -3
   6  15  31 29.5796 44.5554   1
   7  15  31 61.4600 24.5107   1
   0  16  31 126.701 38.2308  -3
   0  16  31 126.701 38.2308   1
   1  16  31 -81.828 32.7719  -3
   1  16  31 -81.828 32.7719   1
   2  16  31 2.03821 32.1800  -3
   2  16  31 2.03821 32.1800   1
   3  16  31 181.412 9.31777   1
   4  16  31 23.3235 8.18821   1
   5  16  31 119.261 10.7246   1
   6  16  31 31.7136 11.8339   1
   7  16  31 315.593 39.4417   1
   0  17  31 0.61264 8.86567   1
   1  17  31 5.74457 33.4619  -3
   1  17  31 5.74457 33.4619   1
   2  17  31 3.44091 6.78784   1
   3  17  31 -10.031 7.50876   1
   4  17  31 85.9170 13.1609   1
   5  17  31 745.629 25.4486   1
   6  17  31 14.9186 20.7160   1
   7  17  31 110.178 29.2621   1
   0  18  31 171.761 14.1147   1
   1  18  31 713.253 23.2337   1
   2  18  31 46.4150 9.22990   1
   3  18  31 10.0696 10.0182   1
   4  18  31 216.456 17.9049   1
   5  18  31 349.401 40.3985   1
   6  18  31 142.186 26.7061   1
   0  19  31 3.66037 11.1536   1
   1  19  31 258.068 13.6229   1
   2  19  31 41.4656 10.5171   1
   3  19  31 68.8605 11.7141   1
   4  19  31 26.1794 14.8958   1
   5  19  31 76.4642 26.7337   1
   0  20  31 2056.92 78.5664   1
   1  20  31 197.736 18.6442   1
   2  20  31 56.9937 15.4168   1
   3  20  31 20.5046 10.8366   1
   4  20  31 64.5640 23.4804   1
   0  21  31 -1.2860 10.5260   1
   1  21  31 1.18269 16.8463   1
   3  21  31 65.5826 22.8388   1
   0  22  31 16.4800 20.2906   1
   2   0  32 21.4520 11.9893   1
   3   0  32 187.574 38.2962  -3
   3   1  32 187.574 38.2962  -2
   3   0  32 187.574 38.2962   1
   4   0  32 1366.67 57.9280  -3
   4   1  32 1366.67 57.9280  -2
   4   0  32 1366.67 57.9280   1
   4   0  32 1309.46 82.0233  -3
   4   0  32 1309.46 82.0233  -2
   4   0  32 1309.46 82.0233   1
   5   0  32 44.6365 13.6096  -3
   5   1  32 44.6365 13.6096  -2
   5   0  32 44.6365 13.6096   1
   5   0  32 -6.2504 34.3175  -3
   5   0  32 -6.2504 34.3175  -2
   5   0  32 -6.2504 34.3175   1
   6   0  32 218.841 14.6590  -3
   6   1  32 218.841 14.6590  -2
   6   0  32 218.841 14.6590   1
   6   0  32 231.982 39.4001  -3
   6   0  32 231.982 39.4001  -2
   6   0  32 231.982 39.4001   1
   7   0  32 1341.43 55.2773  -3
   7   1  32 1341.43 55.2773  -2
   7   0  32 1341.43 55.2773   1
   8   0  32 92.1366 14.8599  -3
   8   1  32 92.1366 14.8599  -2
   8   0  32 92.1366 14.8599   1
   2   1  32 25.8520 34.9262  -3
   2   2  32 25.8520 34.9262  -2
   2   1  32 25.8520 34.9262   1
   3   1  32 999.449 68.4830  -3
   3   1  32 999.449 68.4830  -2
   3   1  32 999.449 68.4830   1
   3   1  32 1097.62 74.3889  -3
   3   2  32 1097.62 74.3889  -2
   3   1  32 1097.62 74.3889   1
   3   1  32 1087.99 75.3626  -3
   3   0  32 1087.99 75.3626  -2
   3   1  32 1087.99 75.3626   1
   4   1  32 653.167 35.9759  -3
   4   0  32 653.167 35.9759  -2
   4   1  32 653.167 35.9759   1
   4   1  32 612.253 34.0560  -3
   4   2  32 612.253 34.0560  -2
   4   1  32 612.253 34.0560   1
   4   1  32 552.346 34.1392  -3
   4   1  32 552.346 34.1392  -2
   4   1  32 552.346 34.1392   1
   5   1  32 216.682 27.3546  -3
   5   1  32 216.682 27.3546  -2
   5   1  32 216.682 27.3546   1
   5   1  32 221.009 16.4211  -3
   5   2  32 221.009 16.4211  -2
   5   1  32 221.009 16.4211   1
   5   1  32 210.405 16.3131  -3
   5   0  32 210.405 16.3131  -2
   5   1  32 210.405 16.3131   1
   6   1  32 -3.9762 10.4455  -3
   6   2  32 -3.9762 10.4455  -2
   6   1  32 -3.9762 10.4455   1
   6   1  32 3.62439 12.3085  -3
   6   0  32 3.62439 12.3085  -2
   6   1  32 3.62439 12.3085   1
   6   1  32 51.3230 35.4513  -3
   6   1  32 51.3230 35.4513  -2
   6   1  32 51.3230 35.4513   1
   7   1  32 184.188 20.3496  -3
   7   2  32 184.188 20.3496  -2
   7   1  32 184.188 20.3496   1
   7   1  32 250.581 21.8673  -3
   7   0  32 250.581 21.8673  -2
   7   1  32 250.581 21.8673   1
   8   1  32 1.13044 14.3385  -3
   8   0  32 1.13044 14.3385  -2
   8   1  32 1.13044 14.3385   1
   8   1  32 17.6523 15.4587  -3
   8   2  32 17.6523 15.4587  -2
   8   1  32 17.6523 15.4587   1
   1   2  32 96.1580 16.7403   1
   2   2  32 32.8675 39.5243  -3
   2   1  32 32.8675 39.5243  -2
   2   2  32 32.8675 39.5243   1
   3   2  32 314.597 43.3164  -3
   3   3  32 314.597 43.3164  -2
   3   2  32 314.597 43.3164   1
   3   2  32 490.379 52.6089  -3
   3   1  32 490.379 52.6089  -2
   3   2  32 490.379 52.6089   1
   3   2  32 427.333 31.7255  -3
   3   2  32 427.333 31.7255  -2
   3   2  32 427.333 31.7255   1
   4   2  32 151.460 26.5746  -3
   4   2  32 151.460 26.5746  -2
   4   2  32 151.460 26.5746   1
   4   2  32 145.794 17.6102  -3
   4   1  32 145.794 17.6102  -2
   4   2  32 145.794 17.6102   1
   4   2  32 159.731 20.3281  -3
   4   3  32 159.731 20.3281  -2
   4   2  32 159.731 20.3281   1
   5   2  32 -30.383 23.1909  -3
   5   2  32 -30.383 23.1909  -2
   5   2  32 -30.383 23.1909   1
   5   2  32 -38.723 13.7292  -3
   5   3  32 -38.723 13.7292  -2
   5   2  32 -38.723 13.7292   1
   5   2  32 0.72195 13.9602  -3
   5   1  32 0.72195 13.9602  -2
   5   2  32 0.72195 13.9602   1
   6   2  32 6.27363 10.3627  -3
   6   1  32 6.27363 10.3627  -2
   6   2  32 6.27363 10.3627   1
   6   2  32 15.2155 10.9008  -3
   6   3  32 15.2155 10.9008  -2
   6   2  32 15.2155 10.9008   1
   6   2  32 39.3849 36.0277  -3
   6   2  32 39.3849 36.0277  -2
   6   2  32 39.3849 36.0277   1
   7   2  32 14.4825 17.8080  -3
   7   1  32 14.4825 17.8080  -2
   7   2  32 14.4825 17.8080   1
   7   2  32 90.4286 19.5108  -3
   7   3  32 90.4286 19.5108  -2
   7   2  32 90.4286 19.5108   1
   8   2  32 85.7609 16.4134  -3
   8   3  32 85.7609 16.4134  -2
   8   2  32 85.7609 16.4134   1
   8   2  32 78.4806 17.2989  -3
   8   1  32 78.4806 17.2989  -2
   8   2  32 78.4806 17.2989   1
   0   3  32 -17.876 22.3004   1
   1   3  32 34.3947 13.8677  -3
   1   3  32 34.3947 13.8677   1
   2   3  32 85.1579 44.6128  -3
   2   2  32 85.1579 44.6128  -2
   2   3  32 85.1579 44.6128   1
   3   3  32 95.4706 26.2183  -3
   3   3  32 95.4706 26.2183  -2
   3   3  32 95.4706 26.2183   1
   3   3  32 103.343 37.8776  -3
   3   4  32 103.343 37.8776  -2
   3   3  32 103.343 37.8776   1
   3   3  32 132.096 42.8888  -3
   3   2  32 132.096 42.8888  -2
   3   3  32 132.096 42.8888   1
   4   3  32 -23.365 24.7529  -3
   4   3  32 -23.365 24.7529  -2
   4   3  32 -23.365 24.7529   1
   4   3  32 -11.858 21.9468  -3
   4   2  32 -11.858 21.9468  -2
   4   3  32 -11.858 21.9468   1
   4   3  32 4.42667 34.6188  -3
   4   4  32 4.42667 34.6188  -2
   4   3  32 4.42667 34.6188   1
   5   3  32 9.30882 14.5562  -3
   5   4  32 9.30882 14.5562  -2
   5   3  32 9.30882 14.5562   1
   5   3  32 14.7450 14.9028  -3
   5   2  32 14.7450 14.9028  -2
   5   3  32 14.7450 14.9028   1
   5   3  32 46.9512 36.8031  -3
   5   3  32 46.9512 36.8031  -2
   5   3  32 46.9512 36.8031   1
   6   3  32 86.2925 38.5371  -3
   6   3  32 86.2925 38.5371  -2
   6   3  32 86.2925 38.5371   1
   6   3  32 27.9488 12.4443  -3
   6   2  32 27.9488 12.4443  -2
   6   3  32 27.9488 12.4443   1
   6   3  32 34.1829 20.4351  -3
   6   4  32 34.1829 20.4351  -2
   6   3  32 34.1829 20.4351   1
   7   3  32 507.133 29.6805  -3
   7   4  32 507.133 29.6805  -2
   7   3  32 507.133 29.6805   1
   7   3  32 501.228 29.2159  -3
   7   2  32 501.228 29.2159  -2
   7   3  32 501.228 29.2159   1
   8   3  32 85.1785 17.9690  -3
   8   4  32 85.1785 17.9690  -2
   8   3  32 85.1785 17.9690   1
   8   3  32 98.7143 35.5071  -3
   8   2  32 98.7143 35.5071  -2
   8   3  32 98.7143 35.5071   1
   0   4  32 1717.68 92.1121  -3
   0   4  32 1717.68 92.1121   1
   1   4  32 159.866 17.1697  -3
   1   4  32 159.866 17.1697   1
   2   4  32 18.9038 16.6058  -3
   2   4  32 18.9038 16.6058   1
   3   4  32 382.284 49.3999  -3
   3   5  32 382.284 49.3999  -2
   3   4  32 382.284 49.3999   1
   3   4  32 400.340 32.8022  -3
   3   4  32 400.340 32.8022  -2
   3   4  32 400.340 32.8022   1
   4   4  32 263.273 28.5308  -3
   4   3  32 263.273 28.5308  -2
   4   4  32 263.273 28.5308   1
   4   4  32 220.210 29.2386  -3
   4   4  32 220.210 29.2386  -2
   4   4  32 220.210 29.2386   1
   4   4  32 226.862 40.9896  -3
   4   5  32 226.862 40.9896  -2
   4   4  32 226.862 40.9896   1
   5   4  32 210.988 26.2863  -3
   5   3  32 210.988 26.2863  -2
   5   4  32 210.988 26.2863   1
   5   4  32 160.594 17.4405  -3
   5   4  32 160.594 17.4405   1
   5   4  32 210.924 29.2624  -3
   5   4  32 210.924 29.2624  -2
   5   4  32 210.924 29.2624   1
   5   4  32 249.586 25.2489  -3
   5   5  32 249.586 25.2489  -2
   5   4  32 249.586 25.2489   1
   6   4  32 83.3768 39.1067  -3
   6   4  32 83.3768 39.1067  -2
   6   4  32 83.3768 39.1067   1
   6   4  32 26.3035 13.7579  -3
   6   3  32 26.3035 13.7579  -2
   6   4  32 26.3035 13.7579   1
   6   4  32 10.7053 20.7306  -3
   6   5  32 10.7053 20.7306  -2
   6   4  32 10.7053 20.7306   1
   7   4  32 3.38467 19.7031  -3
   7   3  32 3.38467 19.7031  -2
   7   4  32 3.38467 19.7031   1
   7   4  32 17.1645 19.2247  -3
   7   5  32 17.1645 19.2247  -2
   7   4  32 17.1645 19.2247   1
   8   4  32 30.9060 34.9398  -3
   8   5  32 30.9060 34.9398  -2
   8   4  32 30.9060 34.9398   1
   8   4  32 40.7984 36.2938  -3
   8   3  32 40.7984 36.2938  -2
   8   4  32 40.7984 36.2938   1
   0   5  32 -1.5100 16.6609   1
   1   5  32 65.6022 10.7944  -3
   1   5  32 65.6022 10.7944   1
   2   5  32 13.0418 11.7559  -3
   2   5  32 13.0418 11.7559   1
   2   5  32 -44.459 43.5954  -3
   2   4  32 -44.459 43.5954  -2
   2   5  32 -44.459 43.5954   1
   3   5  32 539.166 36.3100  -3
   3   5  32 539.166 36.3100   1
   3   5  32 610.545 60.2805  -3
   3   4  32 610.545 60.2805  -2
   3   5  32 610.545 60.2805   1
   3   5  32 486.191 53.1846  -3
   3   5  32 486.191 53.1846  -2
   3   5  32 486.191 53.1846   1
   4   5  32 449.222 34.9278  -3
   4   5  32 449.222 34.9278  -2
   4   5  32 449.222 34.9278   1
   4   5  32 443.339 49.6926  -3
   4   6  32 443.339 49.6926  -2
   4   5  32 443.339 49.6926   1
   4   5  32 496.646 30.7178  -3
   4   4  32 496.646 30.7178  -2
   4   5  32 496.646 30.7178   1
   5   5  32 451.228 22.9238  -3
   5   4  32 451.228 22.9238  -2
   5   5  32 451.228 22.9238   1
   5   5  32 452.646 48.9132  -3
   5   5  32 452.646 48.9132  -2
   5   5  32 452.646 48.9132   1
   5   5  32 413.131 29.7436  -3
   5   6  32 413.131 29.7436  -2
   5   5  32 413.131 29.7436   1
   6   5  32 85.1944 21.7116  -3
   6   6  32 85.1944 21.7116  -2
   6   5  32 85.1944 21.7116   1
   6   5  32 78.0511 15.1792  -3
   6   4  32 78.0511 15.1792  -2
   6   5  32 78.0511 15.1792   1
   6   5  32 100.800 39.6388  -3
   6   5  32 100.800 39.6388  -2
   6   5  32 100.800 39.6388   1
   7   5  32 18.0301 20.9726  -3
   7   6  32 18.0301 20.9726  -2
   7   5  32 18.0301 20.9726   1
   7   5  32 79.6553 21.4461  -3
   7   4  32 79.6553 21.4461  -2
   7   5  32 79.6553 21.4461   1
   8   5  32 314.617 45.3780  -3
   8   6  32 314.617 45.3780  -2
   8   5  32 314.617 45.3780   1
   8   5  32 221.977 44.0597  -3
   8   4  32 221.977 44.0597  -2
   8   5  32 221.977 44.0597   1
   0   6  32 46.4938 13.3060  -3
   0   6  32 46.4938 13.3060   1
   1   6  32 135.625 11.6107  -3
   1   6  32 135.625 11.6107   1
   2   6  32 71.6710 11.1382  -3
   2   6  32 71.6710 11.1382   1
   3   6  32 76.2926 44.7685  -3
   3   7  32 76.2926 44.7685  -2
   3   6  32 76.2926 44.7685   1
   3   6  32 6.74071 15.5358  -3
   3   6  32 6.74071 15.5358   1
   3   6  32 67.4555 46.6569  -3
   3   5  32 67.4555 46.6569  -2
   3   6  32 67.4555 46.6569   1
   3   6  32 65.8916 43.9817  -3
   3   6  32 65.8916 43.9817  -2
   3   6  32 65.8916 43.9817   1
   4   6  32 507.652 37.0518  -3
   4   6  32 507.652 37.0518  -2
   4   6  32 507.652 37.0518   1
   4   6  32 432.474 22.7596  -3
   4   6  32 432.474 22.7596   1
   4   6  32 532.578 55.2415  -3
   4   7  32 532.578 55.2415  -2
   4   6  32 532.578 55.2415   1
   5   6  32 37.9110 16.7563  -3
   5   5  32 37.9110 16.7563  -2
   5   6  32 37.9110 16.7563   1
   5   6  32 40.1498 40.6530  -3
   5   7  32 40.1498 40.6530  -2
   5   6  32 40.1498 40.6530   1
   5   6  32 50.2321 40.8386  -3
   5   6  32 50.2321 40.8386  -2
   5   6  32 50.2321 40.8386   1
   6   6  32 13.9268 22.5394  -3
   6   7  32 13.9268 22.5394  -2
   6   6  32 13.9268 22.5394   1
   6   6  32 49.5818 24.0336  -3
   6   5  32 49.5818 24.0336  -2
   6   6  32 49.5818 24.0336   1
   6   6  32 25.6100 39.4521  -3
   6   6  32 25.6100 39.4521  -2
   6   6  32 25.6100 39.4521   1
   7   6  32 82.0226 33.1926  -2
   7   6  32 82.0226 33.1926   1
   7   6  32 135.289 24.0215  -3
   7   5  32 135.289 24.0215  -2
   7   6  32 135.289 24.0215   1
   7   6  32 48.0872 21.8829  -3
   7   7  32 48.0872 21.8829  -2
   7   6  32 48.0872 21.8829   1
   8   6  32 134.363 43.9327  -3
   8   5  32 134.363 43.9327  -2
   8   6  32 134.363 43.9327   1
   0   7  32 15.2168 12.4078   1
   1   7  32 14.4320 10.5448  -3
   1   7  32 14.4320 10.5448   1
   2   7  32 381.513 14.8925  -3
   2   7  32 381.513 14.8925   1
   3   7  32 194.202 13.7363  -3
   3   7  32 194.202 13.7363   1
   3   7  32 221.900 48.4106  -3
   3   7  32 221.900 48.4106  -2
   3   7  32 221.900 48.4106   1
   4   7  32 187.197 12.9657  -3
   4   7  32 187.197 12.9657   1
   4   7  32 301.581 48.9218  -3
   4   8  32 301.581 48.9218  -2
   4   7  32 301.581 48.9218   1
   5   7  32 -48.850 41.1244  -3
   5   7  32 -48.850 41.1244  -2
   5   7  32 -48.850 41.1244   1
   5   7  32 -8.7803 23.5435  -3
   5   6  32 -8.7803 23.5435  -2
   5   7  32 -8.7803 23.5435   1
   5   7  32 6.78136 17.9439  -3
   5   7  32 6.78136 17.9439   1
   5   7  32 32.0235 42.2959  -3
   5   8  32 32.0235 42.2959  -2
   5   7  32 32.0235 42.2959   1
   5   7  32 -5.0676 36.4276  -2
   5   7  32 -5.0676 36.4276   1
   6   7  32 149.494 44.2246  -3
   6   8  32 149.494 44.2246  -2
   6   7  32 149.494 44.2246   1
   6   7  32 106.007 16.5360  -3
   6   6  32 106.007 16.5360  -2
   6   7  32 106.007 16.5360   1
   6   7  32 123.894 26.0146  -2
   6   7  32 123.894 26.0146   1
   7   7  32 34.9120 40.7724  -3
   7   8  32 34.9120 40.7724  -2
   7   7  32 34.9120 40.7724   1
   7   7  32 57.2440 42.4596  -3
   7   6  32 57.2440 42.4596  -2
   7   7  32 57.2440 42.4596   1
   7   7  32 40.9385 24.3056  -2
   7   7  32 40.9385 24.3056   1
   8   7  32 148.827 43.9830  -3
   8   6  32 148.827 43.9830  -2
   8   7  32 148.827 43.9830   1
   0   8  32 110.319 17.1667  -3
   0   8  32 110.319 17.1667   1
   1   8  32 47.1644 11.4938  -3
   1   8  32 47.1644 11.4938   1
   2   8  32 140.281 12.0849  -3
   2   8  32 140.281 12.0849   1
   3   8  32 17.0061 12.2652  -3
   3   8  32 17.0061 12.2652   1
   4   8  32 413.906 14.0761  -3
   4   8  32 413.906 14.0761   1
   5   8  32 15.8731 10.9405  -3
   5   8  32 15.8731 10.9405   1
   5   8  32 7.89729 41.1713  -3
   5   9  32 7.89729 41.1713  -2
   5   8  32 7.89729 41.1713   1
   5   8  32 8.09942 34.9222  -2
   5   8  32 8.09942 34.9222   1
   6   8  32 90.1548 11.7349  -3
   6   8  32 90.1548 11.7349   1
   6   8  32 113.078 43.2125  -3
   6   9  32 113.078 43.2125  -2
   6   8  32 113.078 43.2125   1
   6   8  32 92.9224 25.1980  -2
   6   8  32 92.9224 25.1980   1
   7   8  32 108.355 36.8220  -2
   7   8  32 108.355 36.8220   1
   7   8  32 181.641 46.5609  -3
   7   9  32 181.641 46.5609  -2
   7   8  32 181.641 46.5609   1
   0   9  32 -21.813 15.8949   1
   1   9  32 -15.493 11.2225  -3
   1   9  32 -15.493 11.2225   1
   2   9  32 287.098 13.3937  -3
   2   9  32 287.098 13.3937   1
   3   9  32 -2.9503 10.1525  -3
   3   9  32 -2.9503 10.1525   1
   4   9  32 81.8807 10.4654  -3
   4   9  32 81.8807 10.4654   1
   5   9  32 348.872 16.9828  -3
   5   9  32 348.872 16.9828   1
   5   9  32 316.210 42.1221  -2
   5   9  32 316.210 42.1221   1
   6   9  32 5.19441 10.7338  -3
   6   9  32 5.19441 10.7338   1
   6   9  32 32.0260 35.8282  -2
   6   9  32 32.0260 35.8282   1
   7   9  32 117.622 36.3358  -2
   7   9  32 117.622 36.3358   1
   7   9  32 104.182 37.4223  -3
   7   9  32 104.182 37.4223   1
   0  10  32 -13.830 31.0575  -3
   0  10  32 -13.830 31.0575   1
   1  10  32 776.540 33.0589  -3
   1  10  32 776.540 33.0589   1
   2  10  32 371.278 19.2653  -3
   2  10  32 371.278 19.2653   1
   3  10  32 260.245 13.3949  -3
   3  10  32 260.245 13.3949   1
   4  10  32 4.25710 10.2610  -3
   4  10  32 4.25710 10.2610   1
   5  10  32 -0.2686 11.6794  -3
   5  10  32 -0.2686 11.6794   1
   6  10  32 11.7670 10.6273  -3
   6  10  32 11.7670 10.6273   1
   6  10  32 -26.532 36.0125  -2
   6  10  32 -26.532 36.0125   1
   7  10  32 31.8071 37.1495  -3
   7  10  32 31.8071 37.1495   1
   7  10  32 6.21670 35.5358  -2
   7  10  32 6.21670 35.5358   1
   0  11  32 17.9154 8.85540   1
   1  11  32 68.4696 19.6828  -3
   1  11  32 68.4696 19.6828   1
   2  11  32 31.9898 16.7067  -3
   2  11  32 31.9898 16.7067   1
   3  11  32 38.5205 11.0480  -3
   3  11  32 38.5205 11.0480   1
   4  11  32 51.2641 11.4002  -3
   4  11  32 51.2641 11.4002   1
   5  11  32 13.2254 12.5774  -3
   5  11  32 13.2254 12.5774   1
   6  11  32 385.531 46.4059  -3
   6  11  32 385.531 46.4059   1
   7  11  32 65.1535 36.8147  -2
   7  11  32 65.1535 36.8147   1
   7  11  32 99.6191 38.0074  -3
   7  11  32 99.6191 38.0074   1
   0  12  32 -6.0628 32.1167  -3
   0  12  32 -6.0628 32.1167   1
   1  12  32 358.679 21.2641  -3
   1  12  32 358.679 21.2641   1
   2  12  32 442.963 25.7608  -3
   2  12  32 442.963 25.7608   1
   3  12  32 182.855 20.3861  -3
   3  12  32 182.855 20.3861   1
   4  12  32 102.877 11.8194  -3
   4  12  32 102.877 11.8194   1
   5  12  32 -13.843 11.9966  -3
   5  12  32 -13.843 11.9966   1
   6  12  32 36.6427 26.2828  -3
   6  12  32 36.6427 26.2828   1
   7  12  32 62.8009 10.7378   1
   0  13  32 -12.953 8.67853   1
   1  13  32 98.2037 24.6867  -3
   1  13  32 98.2037 24.6867   1
   2  13  32 7.63163 23.9016  -3
   2  13  32 7.63163 23.9016   1
   3  13  32 39.7221 19.2869  -3
   3  13  32 39.7221 19.2869   1
   4  13  32 23.2124 14.2326  -3
   4  13  32 23.2124 14.2326   1
   5  13  32 -24.824 18.0289  -3
   5  13  32 -24.824 18.0289   1
   6  13  32 299.498 32.8319  -3
   6  13  32 299.498 32.8319   1
   7  13  32 1.37885 38.7451  -3
   7  13  32 1.37885 38.7451   1
   0  14  32 398.891 43.0802  -3
   0  14  32 398.891 43.0802   1
   1  14  32 129.611 34.5466  -3
   1  14  32 129.611 34.5466   1
   2  14  32 26.6317 19.5855  -3
   2  14  32 26.6317 19.5855   1
   3  14  32 160.977 27.6227  -3
   3  14  32 160.977 27.6227   1
   4  14  32 457.829 54.4989  -3
   4  14  32 457.829 54.4989   1
   5  14  32 -0.0069 6.72883   1
   6  14  32 139.480 46.0497  -3
   6  14  32 139.480 46.0497   1
   7  14  32 122.664 43.4511  -3
   7  14  32 122.664 43.4511   1
   0  15  32 -0.9212 8.83363   1
   1  15  32 355.585 41.3279  -3
   1  15  32 355.585 41.3279   1
   2  15  32 154.344 10.1582   1
   3  15  32 138.217 26.4945  -3
   3  15  32 138.217 26.4945   1
   4  15  32 8.50960 7.23162   1
   5  15  32 168.979 12.0489   1
   6  15  32 101.987 45.2131  -3
   6  15  32 101.987 45.2131   1
   7  15  32 183.907 34.4855   1
   0  16  32 120.696 38.4593  -3
   0  16  32 120.696 38.4593   1
   1  16  32 -7.3880 34.2517  -3
   1  16  32 -7.3880 34.2517   1
   2  16  32 52.8158 32.9021  -3
   2  16  32 52.8158 32.9021   1
   3  16  32 89.1927 10.7272   1
   4  16  32 201.506 16.4883   1
   5  16  32 -4.3736 7.51597   1
   6  16  32 173.242 30.9517   1
   7  16  32 0.44346 20.8225   1
   0  17  32 -14.566 8.74784   1
   1  17  32 32.9220 8.48826   1
   2  17  32 379.631 16.4110   1
   3  17  32 7.70040 10.0383   1
   4  17  32 205.016 17.3149   1
   5  17  32 96.1758 20.4761   1
   6  17  32 57.5830 21.5803   1
   0  18  32 47.4219 38.4948  -3
   0  18  32 47.4219 38.4948   1
   1  18  32 247.604 13.6190   1
   2  18  32 18.2547 9.32613   1
   3  18  32 3.66347 9.20669   1
   4  18  32 36.2500 15.7822   1
   5  18  32 82.7606 26.1305   1
   6  18  32 296.669 55.2524   1
   0  19  32 8.31781 10.5786   1
   1  19  32 60.1999 13.2152   1
   2  19  32 137.038 16.2953   1
   3  19  32 21.9148 10.0365   1
   4  19  32 66.1002 23.2570   1
   0  20  32 104.566 15.2395   1
   1  20  32 11.6836 11.1476   1
   3  20  32 28.2788 12.4321   1
   0  21  32 31.9267 22.2016   1
   2   0  33 0.49384 12.2925   1
   3   0  33 18.5974 13.2745   1
   4   0  33 -3.3902 32.5856   1
   5   0  33 -22.462 32.6589   1
   6   0  33 14.0644 35.3124   1
   1   1  33 94.5056 16.8842   1
   2   1  33 66.6672 11.1555   1
   3   1  33 406.330 30.8572  -3
   3   1  33 406.330 30.8572   1
   3   1  33 485.697 48.3798  -3
   3   2  33 485.697 48.3798  -2
   3   1  33 485.697 48.3798   1
   3   1  33 410.757 45.6191  -3
   3   1  33 410.757 45.6191  -2
   3   1  33 410.757 45.6191   1
   4   1  33 38.8671 22.2689  -3
   4   1  33 38.8671 22.2689   1
   4   1  33 8.82071 21.1514  -3
   4   2  33 8.82071 21.1514  -2
   4   1  33 8.82071 21.1514   1
   4   1  33 36.8184 31.8498  -3
   4   1  33 36.8184 31.8498  -2
   4   1  33 36.8184 31.8498   1
   5   1  33 -27.777 13.7388  -3
   5   1  33 -27.777 13.7388   1
   5   1  33 5.81121 13.3526  -3
   5   2  33 5.81121 13.3526  -2
   5   1  33 5.81121 13.3526   1
   5   1  33 13.7223 24.3817  -3
   5   1  33 13.7223 24.3817  -2
   5   1  33 13.7223 24.3817   1
   6   1  33 334.946 17.9550  -3
   6   1  33 334.946 17.9550   1
   6   1  33 368.789 17.8009  -3
   6   2  33 368.789 17.8009  -2
   6   1  33 368.789 17.8009   1
   6   1  33 473.107 47.7460  -3
   6   1  33 473.107 47.7460  -2
   6   1  33 473.107 47.7460   1
   7   1  33 230.396 21.7686  -3
   7   2  33 230.396 21.7686  -2
   7   1  33 230.396 21.7686   1
   7   1  33 169.017 19.2279  -3
   7   1  33 169.017 19.2279   1
   8   1  33 103.059 33.5662  -3
   8   2  33 103.059 33.5662  -2
   8   1  33 103.059 33.5662   1
   8   1  33 68.0809 32.1995  -3
   8   1  33 68.0809 32.1995   1
   2   2  33 138.707 41.7412  -3
   2   3  33 138.707 41.7412  -2
   2   2  33 138.707 41.7412   1
   2   2  33 110.596 42.7918  -3
   2   1  33 110.596 42.7918  -2
   2   2  33 110.596 42.7918   1
   3   2  33 768.825 42.5510  -3
   3   2  33 768.825 42.5510  -2
   3   2  33 768.825 42.5510   1
   3   2  33 909.572 69.8009  -3
   3   1  33 909.572 69.8009  -2
   3   2  33 909.572 69.8009   1
   3   2  33 789.933 62.1117  -3
   3   3  33 789.933 62.1117  -2
   3   2  33 789.933 62.1117   1
   4   2  33 116.184 17.1831  -3
   4   1  33 116.184 17.1831  -2
   4   2  33 116.184 17.1831   1
   4   2  33 127.880 16.7343  -3
   4   3  33 127.880 16.7343  -2
   4   2  33 127.880 16.7343   1
   4   2  33 169.267 27.2293  -3
   4   2  33 169.267 27.2293  -2
   4   2  33 169.267 27.2293   1
   5   2  33 45.7897 14.4900  -3
   5   3  33 45.7897 14.4900  -2
   5   2  33 45.7897 14.4900   1
   5   2  33 14.4567 14.7123  -3
   5   1  33 14.4567 14.7123  -2
   5   2  33 14.4567 14.7123   1
   5   2  33 44.1357 24.5006  -3
   5   2  33 44.1357 24.5006  -2
   5   2  33 44.1357 24.5006   1
   6   2  33 24.3764 10.9820  -3
   6   3  33 24.3764 10.9820  -2
   6   2  33 24.3764 10.9820   1
   6   2  33 28.6824 10.8875  -3
   6   1  33 28.6824 10.8875  -2
   6   2  33 28.6824 10.8875   1
   6   2  33 25.1734 37.0705  -3
   6   2  33 25.1734 37.0705  -2
   6   2  33 25.1734 37.0705   1
   7   2  33 122.237 18.9240  -3
   7   1  33 122.237 18.9240  -2
   7   2  33 122.237 18.9240   1
   7   2  33 126.552 20.4037  -3
   7   3  33 126.552 20.4037  -2
   7   2  33 126.552 20.4037   1
   8   2  33 -15.235 33.1972  -3
   8   1  33 -15.235 33.1972  -2
   8   2  33 -15.235 33.1972   1
   8   2  33 24.2526 32.9990  -3
   8   3  33 24.2526 32.9990  -2
   8   2  33 24.2526 32.9990   1
   0   3  33 3.12184 23.1567   1
   1   3  33 38.0338 26.0874  -3
   1   3  33 38.0338 26.0874   1
   2   3  33 102.087 12.4600   1
   3   3  33 -44.794 37.1946  -3
   3   3  33 -44.794 37.1946  -2
   3   3  33 -44.794 37.1946   1
   3   3  33 43.9619 43.9020  -3
   3   2  33 43.9619 43.9020  -2
   3   3  33 43.9619 43.9020   1
   3   3  33 19.0739 39.1153  -3
   3   4  33 19.0739 39.1153  -2
   3   3  33 19.0739 39.1153   1
   4   3  33 29.3164 19.1612  -3
   4   4  33 29.3164 19.1612  -2
   4   3  33 29.3164 19.1612   1
   4   3  33 29.6429 17.2384  -3
   4   2  33 29.6429 17.2384  -2
   4   3  33 29.6429 17.2384   1
   4   3  33 45.2313 25.8998  -3
   4   3  33 45.2313 25.8998  -2
   4   3  33 45.2313 25.8998   1
   5   3  33 57.7976 25.4936  -3
   5   3  33 57.7976 25.4936  -2
   5   3  33 57.7976 25.4936   1
   5   3  33 17.9049 22.3451  -3
   5   2  33 17.9049 22.3451  -2
   5   3  33 17.9049 22.3451   1
   5   3  33 46.1200 14.7633  -3
   5   4  33 46.1200 14.7633  -2
   5   3  33 46.1200 14.7633   1
   6   3  33 36.4428 38.6555  -3
   6   3  33 36.4428 38.6555  -2
   6   3  33 36.4428 38.6555   1
   6   3  33 25.8106 12.5571  -3
   6   2  33 25.8106 12.5571  -2
   6   3  33 25.8106 12.5571   1
   6   3  33 34.2784 20.7971  -3
   6   4  33 34.2784 20.7971  -2
   6   3  33 34.2784 20.7971   1
   7   3  33 305.273 24.2391  -3
   7   4  33 305.273 24.2391  -2
   7   3  33 305.273 24.2391   1
   7   3  33 288.229 23.3264  -3
   7   2  33 288.229 23.3264  -2
   7   3  33 288.229 23.3264   1
   8   3  33 275.721 40.2827  -3
   8   4  33 275.721 40.2827  -2
   8   3  33 275.721 40.2827   1
   8   3  33 344.564 44.1783  -3
   8   2  33 344.564 44.1783  -2
   8   3  33 344.564 44.1783   1
   0   4  33 262.797 29.5915  -3
   0   4  33 262.797 29.5915   1
   1   4  33 30.4055 17.9320  -3
   1   4  33 30.4055 17.9320   1
   2   4  33 20.1514 17.2497  -3
   2   4  33 20.1514 17.2497   1
   3   4  33 15.8505 27.1091  -3
   3   4  33 15.8505 27.1091  -2
   3   4  33 15.8505 27.1091   1
   3   4  33 3.34298 44.2453  -3
   3   3  33 3.34298 44.2453  -2
   3   4  33 3.34298 44.2453   1
   3   4  33 96.7565 41.3708  -3
   3   5  33 96.7565 41.3708  -2
   3   4  33 96.7565 41.3708   1
   4   4  33 37.2047 20.6887  -3
   4   3  33 37.2047 20.6887  -2
   4   4  33 37.2047 20.6887   1
   4   4  33 37.1377 38.1471  -3
   4   5  33 37.1377 38.1471  -2
   4   4  33 37.1377 38.1471   1
   4   4  33 17.7569 25.8202  -3
   4   4  33 17.7569 25.8202  -2
   4   4  33 17.7569 25.8202   1
   5   4  33 -1.7530 21.6542  -3
   5   5  33 -1.7530 21.6542  -2
   5   4  33 -1.7530 21.6542   1
   5   4  33 -46.909 23.3013  -3
   5   3  33 -46.909 23.3013  -2
   5   4  33 -46.909 23.3013   1
   5   4  33 -10.004 13.0270  -3
   5   4  33 -10.004 13.0270   1
   5   4  33 -31.425 26.2026  -3
   5   4  33 -31.425 26.2026  -2
   5   4  33 -31.425 26.2026   1
   6   4  33 46.1745 14.0599  -3
   6   3  33 46.1745 14.0599  -2
   6   4  33 46.1745 14.0599   1
   6   4  33 22.3859 21.1473  -3
   6   5  33 22.3859 21.1473  -2
   6   4  33 22.3859 21.1473   1
   7   4  33 174.363 22.8608  -3
   7   3  33 174.363 22.8608  -2
   7   4  33 174.363 22.8608   1
   7   4  33 158.051 21.6815  -3
   7   5  33 158.051 21.6815  -2
   7   4  33 158.051 21.6815   1
   8   4  33 -43.027 38.1447  -3
   8   3  33 -43.027 38.1447  -2
   8   4  33 -43.027 38.1447   1
   0   5  33 3.18948 14.0432   1
   1   5  33 4.36743 10.9173  -3
   1   5  33 4.36743 10.9173   1
   2   5  33 31.9720 12.3170  -3
   2   5  33 31.9720 12.3170   1
   3   5  33 75.2223 33.7655  -3
   3   4  33 75.2223 33.7655  -2
   3   5  33 75.2223 33.7655   1
   3   5  33 44.4307 40.4498  -3
   3   5  33 44.4307 40.4498  -2
   3   5  33 44.4307 40.4498   1
   4   5  33 55.2490 28.0318  -3
   4   5  33 55.2490 28.0318  -2
   4   5  33 55.2490 28.0318   1
   4   5  33 36.7571 43.5530  -3
   4   4  33 36.7571 43.5530  -2
   4   5  33 36.7571 43.5530   1
   4   5  33 56.8072 40.3715  -3
   4   6  33 56.8072 40.3715  -2
   4   5  33 56.8072 40.3715   1
   5   5  33 519.812 37.4521  -3
   5   5  33 519.812 37.4521  -2
   5   5  33 519.812 37.4521   1
   5   5  33 481.090 24.4475  -3
   5   4  33 481.090 24.4475  -2
   5   5  33 481.090 24.4475   1
   5   5  33 524.622 32.9890  -3
   5   6  33 524.622 32.9890  -2
   5   5  33 524.622 32.9890   1
   6   5  33 8.56853 14.7352  -3
   6   4  33 8.56853 14.7352  -2
   6   5  33 8.56853 14.7352   1
   6   5  33 24.8164 21.4760  -3
   6   6  33 24.8164 21.4760  -2
   6   5  33 24.8164 21.4760   1
   7   5  33 192.121 45.8938  -3
   7   4  33 192.121 45.8938  -2
   7   5  33 192.121 45.8938   1
   7   5  33 244.009 43.5436  -3
   7   6  33 244.009 43.5436  -2
   7   5  33 244.009 43.5436   1
   8   5  33 86.7171 42.6520  -3
   8   4  33 86.7171 42.6520  -2
   8   5  33 86.7171 42.6520   1
   0   6  33 146.969 16.4000  -3
   0   6  33 146.969 16.4000   1
   1   6  33 84.3259 11.9199  -3
   1   6  33 84.3259 11.9199   1
   2   6  33 37.5282 11.7300  -3
   2   6  33 37.5282 11.7300   1
   3   6  33 26.6546 46.3986  -3
   3   5  33 26.6546 46.3986  -2
   3   6  33 26.6546 46.3986   1
   3   6  33 39.0816 42.9612  -3
   3   6  33 39.0816 42.9612  -2
   3   6  33 39.0816 42.9612   1
   3   6  33 12.5209 15.9930  -3
   3   6  33 12.5209 15.9930   1
   4   6  33 320.838 33.9413  -3
   4   6  33 320.838 33.9413  -2
   4   6  33 320.838 33.9413   1
   4   6  33 312.808 48.3272  -3
   4   7  33 312.808 48.3272  -2
   4   6  33 312.808 48.3272   1
   4   6  33 361.648 29.0823  -3
   4   6  33 361.648 29.0823   1
   4   6  33 231.069 48.6341  -3
   4   5  33 231.069 48.6341  -2
   4   6  33 231.069 48.6341   1
   5   6  33 117.461 25.1266  -3
   5   7  33 117.461 25.1266  -2
   5   6  33 117.461 25.1266   1
   5   6  33 62.8986 20.4789  -3
   5   6  33 62.8986 20.4789   1
   5   6  33 126.840 21.6491  -3
   5   5  33 126.840 21.6491  -2
   5   6  33 126.840 21.6491   1
   5   6  33 112.741 43.1933  -3
   5   6  33 112.741 43.1933  -2
   5   6  33 112.741 43.1933   1
   6   6  33 184.633 26.3603  -3
   6   5  33 184.633 26.3603  -2
   6   6  33 184.633 26.3603   1
   6   7  33 128.119 17.4843  -2
   6   6  33 128.119 17.4843   1
   6   6  33 135.846 24.2650  -3
   6   7  33 135.846 24.2650  -2
   6   6  33 135.846 24.2650   1
   7   6  33 39.2984 32.8447  -2
   7   6  33 39.2984 32.8447   1
   7   6  33 130.778 43.0898  -3
   7   7  33 130.778 43.0898  -2
   7   6  33 130.778 43.0898   1
   7   6  33 39.1615 40.9113  -3
   7   5  33 39.1615 40.9113  -2
   7   6  33 39.1615 40.9113   1
   8   6  33 74.3823 41.0862  -3
   8   5  33 74.3823 41.0862  -2
   8   6  33 74.3823 41.0862   1
   0   7  33 5.56277 13.4379   1
   1   7  33 3.97369 10.6385  -3
   1   7  33 3.97369 10.6385   1
   2   7  33 775.284 21.7479  -3
   2   7  33 775.284 21.7479   1
   3   7  33 31.9435 10.7845  -3
   3   7  33 31.9435 10.7845   1
   3   7  33 201.415 47.4412  -3
   3   7  33 201.415 47.4412  -2
   3   7  33 201.415 47.4412   1
   4   7  33 315.569 26.3299  -3
   4   7  33 315.569 26.3299   1
   4   7  33 181.358 39.4666  -2
   4   7  33 181.358 39.4666   1
   4   7  33 265.007 47.0466  -3
   4   8  33 265.007 47.0466  -2
   4   7  33 265.007 47.0466   1
   5   8  33 223.679 22.9355  -2
   5   7  33 223.679 22.9355   1
   5   7  33 270.364 48.0723  -3
   5   8  33 270.364 48.0723  -2
   5   7  33 270.364 48.0723   1
   5   7  33 202.099 47.2355  -3
   5   7  33 202.099 47.2355  -2
   5   7  33 202.099 47.2355   1
   5   7  33 190.536 20.2013  -3
   5   7  33 190.536 20.2013   1
   5   7  33 216.287 41.6593  -2
   5   7  33 216.287 41.6593   1
   6   7  33 43.5740 43.1574  -3
   6   6  33 43.5740 43.1574  -2
   6   7  33 43.5740 43.1574   1
   6   7  33 -104.64 40.6606  -3
   6   8  33 -104.64 40.6606  -2
   6   7  33 -104.64 40.6606   1
   6   7  33 20.4783 34.4107  -2
   6   7  33 20.4783 34.4107   1
   7   7  33 893.457 45.7589  -2
   7   7  33 893.457 45.7589   1
   7   7  33 989.717 72.1575  -3
   7   8  33 989.717 72.1575  -2
   7   7  33 989.717 72.1575   1
   7   7  33 941.073 71.4042  -3
   7   6  33 941.073 71.4042  -2
   7   7  33 941.073 71.4042   1
   8   7  33 63.7999 42.6695  -3
   8   6  33 63.7999 42.6695  -2
   8   7  33 63.7999 42.6695   1
   0   8  33 465.560 24.0607  -3
   0   8  33 465.560 24.0607   1
   1   8  33 79.2317 12.0010  -3
   1   8  33 79.2317 12.0010   1
   2   8  33 120.292 11.9495  -3
   2   8  33 120.292 11.9495   1
   3   8  33 339.370 14.6196  -3
   3   8  33 339.370 14.6196   1
   4   8  33 28.7028 8.90442  -3
   4   8  33 28.7028 8.90442   1
   5   8  33 -3.8916 15.1225  -3
   5   8  33 -3.8916 15.1225   1
   5   8  33 17.2674 44.5669  -3
   5   9  33 17.2674 44.5669  -2
   5   8  33 17.2674 44.5669   1
   5   8  33 -39.939 35.7955  -2
   5   8  33 -39.939 35.7955   1
   6   8  33 69.1401 36.1331  -2
   6   8  33 69.1401 36.1331   1
   6   8  33 59.6656 14.4087  -3
   6   8  33 59.6656 14.4087   1
   6   8  33 100.682 34.0976  -3
   6   7  33 100.682 34.0976  -2
   6   8  33 100.682 34.0976   1
   6   8  33 89.7145 45.7821  -3
   6   9  33 89.7145 45.7821  -2
   6   8  33 89.7145 45.7821   1
   7   8  33 26.0122 42.8176  -3
   7   9  33 26.0122 42.8176  -2
   7   8  33 26.0122 42.8176   1
   7   8  33 -13.419 34.6428  -2
   7   8  33 -13.419 34.6428   1
   0   9  33 8.30625 8.61512   1
   1   9  33 57.5804 13.5148  -3
   1   9  33 57.5804 13.5148   1
   2   9  33 34.2256 11.1144  -3
   2   9  33 34.2256 11.1144   1
   3   9  33 84.1603 13.5154  -3
   3   9  33 84.1603 13.5154   1
   4   9  33 200.067 13.2623  -3
   4   9  33 200.067 13.2623   1
   5   9  33 355.483 17.2472  -3
   5   9  33 355.483 17.2472   1
   5   9  33 289.026 41.3304  -2
   5   9  33 289.026 41.3304   1
   6   9  33 155.457 14.7457  -3
   6   9  33 155.457 14.7457   1
   6   9  33 172.571 39.7369  -2
   6   9  33 172.571 39.7369   1
   7   9  33 251.088 40.2431  -3
   7   9  33 251.088 40.2431   1
   7   9  33 224.969 40.5589  -2
   7   9  33 224.969 40.5589   1
   0  10  33 467.058 43.7275  -3
   0  10  33 467.058 43.7275   1
   1  10  33 25.0135 15.1513  -3
   1  10  33 25.0135 15.1513   1
   2  10  33 1061.99 39.7623  -3
   2  10  33 1061.99 39.7623   1
   3  10  33 35.3922 10.9426  -3
   3  10  33 35.3922 10.9426   1
   4  10  33 50.5127 11.3606  -3
   4  10  33 50.5127 11.3606   1
   5  10  33 27.0977 12.5074  -3
   5  10  33 27.0977 12.5074   1
   6  10  33 35.4204 16.7253  -3
   6  10  33 35.4204 16.7253   1
   7  10  33 561.421 52.7258  -2
   7  10  33 561.421 52.7258   1
   7  10  33 535.756 51.6128  -3
   7  10  33 535.756 51.6128   1
   0  11  33 0.66938 8.42761   1
   1  11  33 57.2328 22.1996  -3
   1  11  33 57.2328 22.1996   1
   2  11  33 240.219 21.7070  -3
   2  11  33 240.219 21.7070   1
   3  11  33 127.515 12.0028  -3
   3  11  33 127.515 12.0028   1
   4  11  33 -26.049 10.9636  -3
   4  11  33 -26.049 10.9636   1
   5  11  33 -17.033 12.0642  -3
   5  11  33 -17.033 12.0642   1
   6  11  33 126.227 40.9767  -3
   6  11  33 126.227 40.9767   1
   7  11  33 -31.984 35.2296  -2
   7  11  33 -31.984 35.2296   1
   0  12  33 13.9448 34.3652  -3
   0  12  33 13.9448 34.3652   1
   1  12  33 9.13691 22.8771  -3
   1  12  33 9.13691 22.8771   1
   2  12  33 106.267 19.7052  -3
   2  12  33 106.267 19.7052   1
   3  12  33 79.4037 17.1383  -3
   3  12  33 79.4037 17.1383   1
   4  12  33 162.140 13.0260  -3
   4  12  33 162.140 13.0260   1
   5  12  33 145.751 20.5752  -3
   5  12  33 145.751 20.5752   1
   6  12  33 38.4096 39.5523  -3
   6  12  33 38.4096 39.5523   1
   7  12  33 205.452 16.6038   1
   0  13  33 0.08151 8.78070   1
   1  13  33 80.9433 25.2530  -3
   1  13  33 80.9433 25.2530   1
   2  13  33 112.614 39.6530  -3
   2  13  33 112.614 39.6530   1
   3  13  33 -2.0855 19.2991  -3
   3  13  33 -2.0855 19.2991   1
   4  13  33 259.490 21.8583  -3
   4  13  33 259.490 21.8583   1
   5  13  33 247.899 21.7070  -3
   5  13  33 247.899 21.7070   1
   6  13  33 192.445 30.9666  -3
   6  13  33 192.445 30.9666   1
   7  13  33 32.0067 40.3932  -3
   7  13  33 32.0067 40.3932   1
   0  14  33 -39.101 35.4359  -3
   0  14  33 -39.101 35.4359   1
   1  14  33 170.172 36.8074  -3
   1  14  33 170.172 36.8074   1
   2  14  33 -39.529 32.5492  -3
   2  14  33 -39.529 32.5492   1
   3  14  33 233.275 36.3316  -3
   3  14  33 233.275 36.3316   1
   4  14  33 7.55449 41.8145  -3
   4  14  33 7.55449 41.8145   1
   5  14  33 19.9686 8.54270   1
   6  14  33 354.679 51.9179  -3
   6  14  33 354.679 51.9179   1
   7  14  33 158.027 44.1672  -3
   7  14  33 158.027 44.1672   1
   0  15  33 -1.2957 8.78017   1
   1  15  33 1815.11 104.217  -3
   1  15  33 1815.11 104.217   1
   2  15  33 42.8338 34.8073  -3
   2  15  33 42.8338 34.8073   1
   3  15  33 14.5098 10.1462   1
   4  15  33 373.907 21.3905   1
   5  15  33 44.2516 8.63376   1
   6  15  33 283.515 28.3740   1
   7  15  33 516.940 49.5244   1
   0  16  33 345.064 44.8371  -3
   0  16  33 345.064 44.8371   1
   1  16  33 18.2576 35.7336  -3
   1  16  33 18.2576 35.7336   1
   2  16  33 528.465 47.7052  -3
   2  16  33 528.465 47.7052   1
   3  16  33 105.187 10.9975   1
   4  16  33 -4.8534 10.0764   1
   5  16  33 50.4403 13.4204   1
   6  16  33 183.359 32.6503   1
   0  17  33 -2.4383 12.9284   1
   1  17  33 388.559 45.4157  -3
   1  17  33 388.559 45.4157   1
   2  17  33 249.237 16.5993   1
   3  17  33 71.7214 12.2695   1
   4  17  33 23.7383 14.7363   1
   5  17  33 1.60199 22.7620   1
   6  17  33 209.571 36.2261   1
   0  18  33 115.697 39.5320  -3
   0  18  33 115.697 39.5320   1
   1  18  33 143.129 13.2786   1
   2  18  33 63.0851 12.7373   1
   3  18  33 -7.5303 9.42739   1
   4  18  33 35.0675 20.4183   1
   5  18  33 145.528 30.3737   1
   0  19  33 -10.604 11.8813   1
   1  19  33 154.497 17.2105   1
   3  19  33 -2.5631 11.6665   1
   4  19  33 45.8955 31.7880   1
   0  20  33 41.1664 20.7447   1
   1  20  33 106.726 20.7028   1
   0  21  33 1.91091 18.8191   1
   2   0  34 86.5907 39.1951  -3
   2   1  34 86.5907 39.1951  -2
   2   0  34 86.5907 39.1951   1
   3   0  34 48.3000 23.3669  -3
   3   1  34 48.3000 23.3669  -2
   3   0  34 48.3000 23.3669   1
   4   0  34 16.1033 15.4227  -3
   4   1  34 16.1033 15.4227  -2
   4   0  34 16.1033 15.4227   1
   4   0  34 12.5219 34.9623  -3
   4   0  34 12.5219 34.9623  -2
   4   0  34 12.5219 34.9623   1
   5   0  34 461.024 22.1343  -3
   5   1  34 461.024 22.1343  -2
   5   0  34 461.024 22.1343   1
   5   0  34 420.300 44.7874  -3
   5   0  34 420.300 44.7874  -2
   5   0  34 420.300 44.7874   1
   6   0  34 237.451 15.2637  -3
   6   1  34 237.451 15.2637  -2
   6   0  34 237.451 15.2637   1
   7   0  34 34.7345 30.1035  -3
   7   1  34 34.7345 30.1035  -2
   7   0  34 34.7345 30.1035   1
   8   0  34 340.594 41.3346  -3
   8   1  34 340.594 41.3346  -2
   8   0  34 340.594 41.3346   1
   1   1  34 20.7812 13.3587   1
   2   1  34 85.5385 40.5327  -3
   2   0  34 85.5385 40.5327  -2
   2   1  34 85.5385 40.5327   1
   2   1  34 155.039 39.0577  -3
   2   2  34 155.039 39.0577  -2
   2   1  34 155.039 39.0577   1
   3   1  34 190.184 39.5314  -3
   3   2  34 190.184 39.5314  -2
   3   1  34 190.184 39.5314   1
   3   1  34 224.519 27.1672  -3
   3   0  34 224.519 27.1672  -2
   3   1  34 224.519 27.1672   1
   4   1  34 7.63223 22.2340  -3
   4   0  34 7.63223 22.2340  -2
   4   1  34 7.63223 22.2340   1
   4   1  34 44.3156 15.9279  -3
   4   2  34 44.3156 15.9279  -2
   4   1  34 44.3156 15.9279   1
   4   1  34 23.7336 24.5734  -3
   4   1  34 23.7336 24.5734  -2
   4   1  34 23.7336 24.5734   1
   5   1  34 104.468 25.6143  -3
   5   1  34 104.468 25.6143  -2
   5   1  34 104.468 25.6143   1
   5   1  34 120.318 15.5202  -3
   5   0  34 120.318 15.5202  -2
   5   1  34 120.318 15.5202   1
   5   1  34 115.609 15.2544  -3
   5   2  34 115.609 15.2544  -2
   5   1  34 115.609 15.2544   1
   6   1  34 209.753 14.6428  -3
   6   2  34 209.753 14.6428  -2
   6   1  34 209.753 14.6428   1
   6   1  34 242.527 16.4406  -3
   6   0  34 242.527 16.4406  -2
   6   1  34 242.527 16.4406   1
   7   1  34 62.4322 31.5993  -3
   7   2  34 62.4322 31.5993  -2
   7   1  34 62.4322 31.5993   1
   7   1  34 -8.4294 31.7952  -3
   7   0  34 -8.4294 31.7952  -2
   7   1  34 -8.4294 31.7952   1
   8   1  34 81.8278 33.7668  -3
   8   0  34 81.8278 33.7668  -2
   8   1  34 81.8278 33.7668   1
   2   2  34 17.9624 41.3613  -3
   2   1  34 17.9624 41.3613  -2
   2   2  34 17.9624 41.3613   1
   3   2  34 89.3621 24.6211  -3
   3   1  34 89.3621 24.6211  -2
   3   2  34 89.3621 24.6211   1
   3   2  34 118.677 38.0905  -3
   3   3  34 118.677 38.0905  -2
   3   2  34 118.677 38.0905   1
   3   2  34 111.191 39.1727  -3
   3   2  34 111.191 39.1727  -2
   3   2  34 111.191 39.1727   1
   4   2  34 75.8239 24.0782  -3
   4   1  34 75.8239 24.0782  -2
   4   2  34 75.8239 24.0782   1
   4   2  34 45.8929 25.8985  -3
   4   2  34 45.8929 25.8985  -2
   4   2  34 45.8929 25.8985   1
   4   2  34 89.4369 20.3786  -3
   4   3  34 89.4369 20.3786  -2
   4   2  34 89.4369 20.3786   1
   5   2  34 330.651 19.3414  -3
   5   3  34 330.651 19.3414  -2
   5   2  34 330.651 19.3414   1
   5   2  34 331.023 19.7855  -3
   5   1  34 331.023 19.7855  -2
   5   2  34 331.023 19.7855   1
   5   2  34 301.398 30.4197  -3
   5   2  34 301.398 30.4197  -2
   5   2  34 301.398 30.4197   1
   6   2  34 57.8343 11.5649  -3
   6   1  34 57.8343 11.5649  -2
   6   2  34 57.8343 11.5649   1
   6   2  34 64.5430 11.7400  -3
   6   3  34 64.5430 11.7400  -2
   6   2  34 64.5430 11.7400   1
   6   2  34 76.8240 38.2119  -3
   6   2  34 76.8240 38.2119  -2
   6   2  34 76.8240 38.2119   1
   7   2  34 300.835 40.3622  -3
   7   3  34 300.835 40.3622  -2
   7   2  34 300.835 40.3622   1
   7   2  34 241.442 40.6489  -3
   7   1  34 241.442 40.6489  -2
   7   2  34 241.442 40.6489   1
   8   2  34 25.3841 31.8851  -3
   8   1  34 25.3841 31.8851  -2
   8   2  34 25.3841 31.8851   1
   0   3  34 9.98152 24.7493   1
   2   3  34 30.5864 10.0945   1
   3   3  34 302.555 44.9164  -3
   3   4  34 302.555 44.9164  -2
   3   3  34 302.555 44.9164   1
   3   3  34 198.530 45.3932  -3
   3   2  34 198.530 45.3932  -2
   3   3  34 198.530 45.3932   1
   3   3  34 229.077 43.5607  -3
   3   3  34 229.077 43.5607  -2
   3   3  34 229.077 43.5607   1
   4   3  34 187.925 28.6939  -3
   4   3  34 187.925 28.6939  -2
   4   3  34 187.925 28.6939   1
   4   3  34 219.237 27.8776  -3
   4   2  34 219.237 27.8776  -2
   4   3  34 219.237 27.8776   1
   4   3  34 241.497 18.9575  -3
   4   4  34 241.497 18.9575  -2
   4   3  34 241.497 18.9575   1
   5   3  34 43.1718 37.7289  -3
   5   3  34 43.1718 37.7289  -2
   5   3  34 43.1718 37.7289   1
   5   3  34 6.72718 14.9373  -3
   5   4  34 6.72718 14.9373  -2
   5   3  34 6.72718 14.9373   1
   5   3  34 44.7414 22.7606  -3
   5   2  34 44.7414 22.7606  -2
   5   3  34 44.7414 22.7606   1
   6   3  34 99.6439 14.2678  -3
   6   2  34 99.6439 14.2678  -2
   6   3  34 99.6439 14.2678   1
   6   3  34 102.358 21.4336  -3
   6   4  34 102.358 21.4336  -2
   6   3  34 102.358 21.4336   1
   7   3  34 83.2121 37.6348  -3
   7   2  34 83.2121 37.6348  -2
   7   3  34 83.2121 37.6348   1
   7   3  34 94.5752 33.9394  -3
   7   4  34 94.5752 33.9394  -2
   7   3  34 94.5752 33.9394   1
   8   3  34 68.8887 33.4055  -3
   8   2  34 68.8887 33.4055  -2
   8   3  34 68.8887 33.4055   1
   0   4  34 100.180 24.6169  -3
   0   4  34 100.180 24.6169   1
   1   4  34 -25.442 19.1311  -3
   1   4  34 -25.442 19.1311   1
   2   4  34 16.8268 25.8942  -3
   2   4  34 16.8268 25.8942   1
   3   4  34 312.368 32.9332  -3
   3   4  34 312.368 32.9332  -2
   3   4  34 312.368 32.9332   1
   3   4  34 309.146 51.9600  -3
   3   3  34 309.146 51.9600  -2
   3   4  34 309.146 51.9600   1
   3   4  34 334.675 48.2915  -3
   3   5  34 334.675 48.2915  -2
   3   4  34 334.675 48.2915   1
   4   4  34 392.613 34.4865  -3
   4   4  34 392.613 34.4865  -2
   4   4  34 392.613 34.4865   1
   4   4  34 321.664 50.8853  -3
   4   3  34 321.664 50.8853  -2
   4   4  34 321.664 50.8853   1
   4   4  34 428.245 49.3585  -3
   4   5  34 428.245 49.3585  -2
   4   4  34 428.245 49.3585   1
   5   4  34 -28.042 27.0515  -3
   5   4  34 -28.042 27.0515  -2
   5   4  34 -28.042 27.0515   1
   5   4  34 18.9961 22.5504  -3
   5   5  34 18.9961 22.5504  -2
   5   4  34 18.9961 22.5504   1
   5   4  34 -43.249 24.0677  -3
   5   3  34 -43.249 24.0677  -2
   5   4  34 -43.249 24.0677   1
   5   4  34 0.41443 13.9030  -3
   5   4  34 0.41443 13.9030   1
   6   4  34 144.867 22.7350  -3
   6   5  34 144.867 22.7350  -2
   6   4  34 144.867 22.7350   1
   6   4  34 138.438 15.9248  -3
   6   3  34 138.438 15.9248  -2
   6   4  34 138.438 15.9248   1
   7   4  34 41.1318 40.1374  -3
   7   3  34 41.1318 40.1374  -2
   7   4  34 41.1318 40.1374   1
   7   4  34 60.8140 35.6020  -3
   7   5  34 60.8140 35.6020  -2
   7   4  34 60.8140 35.6020   1
   0   5  34 -5.8364 17.1649   1
   1   5  34 51.3855 15.4804  -3
   1   5  34 51.3855 15.4804   1
   2   5  34 609.970 31.3130  -3
   2   5  34 609.970 31.3130   1
   3   5  34 -25.238 40.6629  -3
   3   5  34 -25.238 40.6629  -2
   3   5  34 -25.238 40.6629   1
   3   5  34 0.97024 42.3835  -3
   3   6  34 0.97024 42.3835  -2
   3   5  34 0.97024 42.3835   1
   3   5  34 30.9712 20.0164  -3
   3   5  34 30.9712 20.0164   1
   3   5  34 11.1115 45.7272  -3
   3   4  34 11.1115 45.7272  -2
   3   5  34 11.1115 45.7272   1
   4   5  34 280.194 25.3689  -3
   4   4  34 280.194 25.3689  -2
   4   5  34 280.194 25.3689   1
   4   5  34 315.464 47.5726  -3
   4   6  34 315.464 47.5726  -2
   4   5  34 315.464 47.5726   1
   4   5  34 263.491 33.0892  -3
   4   5  34 263.491 33.0892  -2
   4   5  34 263.491 33.0892   1
   5   5  34 605.944 36.7681  -3
   5   4  34 605.944 36.7681  -2
   5   5  34 605.944 36.7681   1
   5   5  34 537.182 33.8891  -3
   5   6  34 537.182 33.8891  -2
   5   5  34 537.182 33.8891   1
   5   5  34 469.441 36.2974  -3
   5   5  34 469.441 36.2974  -2
   5   5  34 469.441 36.2974   1
   5   4  34 477.260 34.2344  -2
   5   5  34 477.260 34.2344   1
   6   5  34 -18.889 39.2568  -3
   6   5  34 -18.889 39.2568  -2
   6   5  34 -18.889 39.2568   1
   6   5  34 24.9120 27.9875  -3
   6   6  34 24.9120 27.9875  -2
   6   5  34 24.9120 27.9875   1
   6   5  34 37.0918 23.5115  -3
   6   4  34 37.0918 23.5115  -2
   6   5  34 37.0918 23.5115   1
   6   5  34 -1.2033 36.2127  -3
   6   5  34 -1.2033 36.2127   1
   7   5  34 169.608 44.3474  -3
   7   4  34 169.608 44.3474  -2
   7   5  34 169.608 44.3474   1
   7   5  34 164.228 40.9223  -3
   7   6  34 164.228 40.9223  -2
   7   5  34 164.228 40.9223   1
   0   6  34 1224.22 41.4512  -3
   0   6  34 1224.22 41.4512   1
   1   6  34 62.3358 12.0080  -3
   1   6  34 62.3358 12.0080   1
   2   6  34 193.836 51.2023  -3
   2   7  34 193.836 51.2023  -2
   2   6  34 193.836 51.2023   1
   2   6  34 121.274 16.1667  -3
   2   6  34 121.274 16.1667   1
   3   6  34 34.8986 16.8782  -3
   3   6  34 34.8986 16.8782   1
   3   6  34 65.5073 44.4479  -3
   3   6  34 65.5073 44.4479  -2
   3   6  34 65.5073 44.4479   1
   4   6  34 354.712 35.4341  -3
   4   6  34 354.712 35.4341  -2
   4   6  34 354.712 35.4341   1
   4   6  34 324.963 27.7250  -3
   4   5  34 324.963 27.7250  -2
   4   6  34 324.963 27.7250   1
   4   6  34 396.511 52.3918  -3
   4   7  34 396.511 52.3918  -2
   4   6  34 396.511 52.3918   1
   5   6  34 100.894 43.3389  -3
   5   6  34 100.894 43.3389  -2
   5   6  34 100.894 43.3389   1
   5   6  34 136.114 26.3631  -3
   5   7  34 136.114 26.3631  -2
   5   6  34 136.114 26.3631   1
   6   6  34 52.5429 23.0232  -3
   6   7  34 52.5429 23.0232  -2
   6   6  34 52.5429 23.0232   1
   6   6  34 14.8697 15.9628  -3
   6   5  34 14.8697 15.9628  -2
   6   6  34 14.8697 15.9628   1
   6   6  34 53.6600 43.0349  -3
   6   6  34 53.6600 43.0349  -2
   6   6  34 53.6600 43.0349   1
   6   7  34 43.3380 16.5453  -2
   6   6  34 43.3380 16.5453   1
   7   6  34 530.767 54.9018  -3
   7   5  34 530.767 54.9018  -2
   7   6  34 530.767 54.9018   1
   7   6  34 527.662 54.5461  -3
   7   7  34 527.662 54.5461  -2
   7   6  34 527.662 54.5461   1
   0   7  34 13.0464 14.3767   1
   1   7  34 41.4399 11.5840  -3
   1   7  34 41.4399 11.5840   1
   2   7  34 118.910 14.5443  -3
   2   7  34 118.910 14.5443   1
   3   7  34 144.502 13.3954  -3
   3   7  34 144.502 13.3954   1
   4   7  34 9.90932 45.7582  -3
   4   8  34 9.90932 45.7582  -2
   4   7  34 9.90932 45.7582   1
   4   7  34 17.3017 11.5753  -3
   4   7  34 17.3017 11.5753   1
   5   7  34 22.3705 22.0558  -3
   5   6  34 22.3705 22.0558  -2
   5   7  34 22.3705 22.0558   1
   5   7  34 14.3747 43.5329  -3
   5   8  34 14.3747 43.5329  -2
   5   7  34 14.3747 43.5329   1
   5   7  34 -107.89 42.6035  -3
   5   7  34 -107.89 42.6035  -2
   5   7  34 -107.89 42.6035   1
   5   7  34 18.7646 19.5202  -3
   5   7  34 18.7646 19.5202   1
   6   7  34 134.066 48.7766  -3
   6   7  34 134.066 48.7766  -2
   6   7  34 134.066 48.7766   1
   6   7  34 215.987 45.5568  -3
   6   8  34 215.987 45.5568  -2
   6   7  34 215.987 45.5568   1
   6   7  34 183.812 28.1089  -3
   6   6  34 183.812 28.1089  -2
   6   7  34 183.812 28.1089   1
   7   7  34 95.9907 44.7165  -3
   7   8  34 95.9907 44.7165  -2
   7   7  34 95.9907 44.7165   1
   7   7  34 121.889 45.4806  -3
   7   6  34 121.889 45.4806  -2
   7   7  34 121.889 45.4806   1
   7   7  34 85.7767 34.8241  -2
   7   7  34 85.7767 34.8241   1
   0   8  34 127.738 17.8822  -3
   0   8  34 127.738 17.8822   1
   1   8  34 83.6666 13.3331  -3
   1   8  34 83.6666 13.3331   1
   2   8  34 -19.112 11.4859  -3
   2   8  34 -19.112 11.4859   1
   3   8  34 65.2302 11.4815  -3
   3   8  34 65.2302 11.4815   1
   4   8  34 18.3044 9.96445  -3
   4   8  34 18.3044 9.96445   1
   4   8  34 -35.778 46.7761  -3
   4   9  34 -35.778 46.7761  -2
   4   8  34 -35.778 46.7761   1
   5   8  34 58.8893 46.4581  -3
   5   9  34 58.8893 46.4581  -2
   5   8  34 58.8893 46.4581   1
   5   8  34 83.7017 39.0694  -2
   5   8  34 83.7017 39.0694   1
   5   8  34 65.6777 20.9720  -3
   5   8  34 65.6777 20.9720   1
   6   8  34 4.77490 15.3220  -3
   6   8  34 4.77490 15.3220   1
   6   8  34 -30.099 35.6037  -2
   6   8  34 -30.099 35.6037   1
   6   8  34 73.3912 44.5680  -3
   6   9  34 73.3912 44.5680  -2
   6   8  34 73.3912 44.5680   1
   7   8  34 167.675 47.3884  -3
   7   9  34 167.675 47.3884  -2
   7   8  34 167.675 47.3884   1
   7   8  34 208.729 40.0355  -2
   7   8  34 208.729 40.0355   1
   0   9  34 4.24630 9.01083   1
   1   9  34 33.8619 15.2549  -3
   1   9  34 33.8619 15.2549   1
   2   9  34 746.526 23.2839  -3
   2   9  34 746.526 23.2839   1
   3   9  34 64.6927 13.6520  -3
   3   9  34 64.6927 13.6520   1
   4   9  34 0.15927 10.3257  -3
   4   9  34 0.15927 10.3257   1
   5   9  34 106.004 13.6631  -3
   5   9  34 106.004 13.6631   1
   5   9  34 99.0965 40.0713  -2
   5   9  34 99.0965 40.0713   1
   6   9  34 57.3308 37.7323  -2
   6   9  34 57.3308 37.7323   1
   6   9  34 73.0154 17.5058  -3
   6   9  34 73.0154 17.5058   1
   7   9  34 53.1762 36.5295  -3
   7   9  34 53.1762 36.5295   1
   7   9  34 26.6774 36.1609  -2
   7   9  34 26.6774 36.1609   1
   0  10  34 519.266 47.2955  -3
   0  10  34 519.266 47.2955   1
   1  10  34 351.911 22.0972  -3
   1  10  34 351.911 22.0972   1
   2  10  34 1092.36 40.7858  -3
   2  10  34 1092.36 40.7858   1
   3  10  34 82.2721 15.6060  -3
   3  10  34 82.2721 15.6060   1
   4  10  34 27.0979 11.0707  -3
   4  10  34 27.0979 11.0707   1
   5  10  34 112.968 13.9333  -3
   5  10  34 112.968 13.9333   1
   6  10  34 578.763 30.2074  -3
   6  10  34 578.763 30.2074   1
   7  10  34 204.359 17.1285   1
   0  11  34 4.81554 8.86891   1
   1  11  34 987.017 46.4038  -3
   1  11  34 987.017 46.4038   1
   2  11  34 24.9226 19.1479  -3
   2  11  34 24.9226 19.1479   1
   3  11  34 8.01811 19.5250  -3
   3  11  34 8.01811 19.5250   1
   4  11  34 7.96044 11.0773  -3
   4  11  34 7.96044 11.0773   1
   5  11  34 218.221 25.2752  -3
   5  11  34 218.221 25.2752   1
   6  11  34 61.4206 38.6557  -3
   6  11  34 61.4206 38.6557   1
   7  11  34 87.5728 13.6482   1
   0  12  34 420.173 44.6857  -3
   0  12  34 420.173 44.6857   1
   1  12  34 267.036 27.8228  -3
   1  12  34 267.036 27.8228   1
   2  12  34 10.0594 19.1360  -3
   2  12  34 10.0594 19.1360   1
   3  12  34 117.917 19.9362  -3
   3  12  34 117.917 19.9362   1
   4  12  34 125.382 17.8826  -3
   4  12  34 125.382 17.8826   1
   5  12  34 -45.390 27.2181  -3
   5  12  34 -45.390 27.2181   1
   6  12  34 125.726 42.6681  -3
   6  12  34 125.726 42.6681   1
   0  13  34 -3.0099 9.21240   1
   1  13  34 493.195 47.7602  -3
   1  13  34 493.195 47.7602   1
   2  13  34 45.5698 26.7224  -3
   2  13  34 45.5698 26.7224   1
   3  13  34 34.0650 19.7071  -3
   3  13  34 34.0650 19.7071   1
   4  13  34 343.022 24.7046  -3
   4  13  34 343.022 24.7046   1
   5  13  34 8.68187 27.7691  -3
   5  13  34 8.68187 27.7691   1
   6  13  34 -43.945 38.8649  -3
   6  13  34 -43.945 38.8649   1
   0  14  34 14.7930 36.4250  -3
   0  14  34 14.7930 36.4250   1
   1  14  34 77.6979 8.69385   1
   2  14  34 -27.435 33.3120  -3
   2  14  34 -27.435 33.3120   1
   3  14  34 669.870 51.3636  -3
   3  14  34 669.870 51.3636   1
   4  14  34 49.1126 46.0765  -3
   4  14  34 49.1126 46.0765   1
   5  14  34 51.6748 38.5758  -3
   5  14  34 51.6748 38.5758   1
   6  14  34 28.2714 14.7497   1
   0  15  34 -2.0294 9.61925   1
   1  15  34 21.1213 35.7326  -3
   1  15  34 21.1213 35.7326   1
   2  15  34 276.748 40.1251  -3
   2  15  34 276.748 40.1251   1
   3  15  34 82.0143 12.2393   1
   4  15  34 198.193 17.7844   1
   5  15  34 189.248 18.5239   1
   6  15  34 35.4514 21.3406   1
   0  16  34 17.5634 37.2027  -3
   0  16  34 17.5634 37.2027   1
   1  16  34 225.027 40.5128  -3
   1  16  34 225.027 40.5128   1
   2  16  34 90.8451 35.6720  -3
   2  16  34 90.8451 35.6720   1
   3  16  34 21.1338 9.97869   1
   4  16  34 0.55875 13.5575   1
   5  16  34 48.9403 26.1162   1
   0  17  34 -5.8187 12.8404   1
   1  17  34 21.6680 8.62407   1
   2  17  34 303.479 18.0730   1
   3  17  34 8.57741 10.0541   1
   4  17  34 14.3179 20.0339   1
   5  17  34 123.089 30.0022   1
   0  18  34 0.99580 13.1221   1
   1  18  34 117.717 16.0830   1
   2  18  34 142.557 18.3178   1
   3  18  34 86.5278 14.6208   1
   4  18  34 208.274 34.0885   1
   0  19  34 -5.7972 13.9472   1
   1  19  34 232.081 20.3480   1
   3  19  34 65.0191 19.6258   1
   0  20  34 9.30767 20.4103   1
   1  20  34 -8.7043 23.4271   1
   2   0  35 -1.4835 12.2347   1
   4   0  35 22.9638 35.2304   1
   5   0  35 11.3303 35.8781   1
   1   1  35 64.2939 16.2771   1
   2   1  35 46.8333 10.1668   1
   3   1  35 732.186 39.9095  -3
   3   1  35 732.186 39.9095   1
   3   1  35 678.056 37.9158  -3
   3   2  35 678.056 37.9158  -2
   3   1  35 678.056 37.9158   1
   4   1  35 205.615 25.4339  -3
   4   1  35 205.615 25.4339   1
   4   1  35 243.268 19.0226  -3
   4   2  35 243.268 19.0226  -2
   4   1  35 243.268 19.0226   1
   4   1  35 238.837 39.0919  -3
   4   1  35 238.837 39.0919  -2
   4   1  35 238.837 39.0919   1
   5   1  35 141.853 38.0551  -3
   5   1  35 141.853 38.0551  -2
   5   1  35 141.853 38.0551   1
   5   1  35 165.395 16.7038  -3
   5   1  35 165.395 16.7038   1
   5   1  35 138.735 15.7117  -3
   5   2  35 138.735 15.7117  -2
   5   1  35 138.735 15.7117   1
   6   1  35 -2.5923 12.9840  -3
   6   1  35 -2.5923 12.9840   1
   6   1  35 29.8820 12.3293  -3
   6   2  35 29.8820 12.3293  -2
   6   1  35 29.8820 12.3293   1
   7   1  35 2.50385 31.2663  -3
   7   1  35 2.50385 31.2663   1
   7   1  35 -34.539 31.2625  -3
   7   2  35 -34.539 31.2625  -2
   7   1  35 -34.539 31.2625   1
   2   2  35 81.4292 11.6878   1
   3   2  35 69.4873 24.2980  -3
   3   1  35 69.4873 24.2980  -2
   3   2  35 69.4873 24.2980   1
   3   2  35 24.6136 38.1999  -3
   3   3  35 24.6136 38.1999  -2
   3   2  35 24.6136 38.1999   1
   4   2  35 1119.25 39.4353  -3
   4   3  35 1119.25 39.4353  -2
   4   2  35 1119.25 39.4353   1
   4   2  35 1153.40 52.9005  -3
   4   1  35 1153.40 52.9005  -2
   4   2  35 1153.40 52.9005   1
   4   2  35 1074.17 73.5727  -3
   4   2  35 1074.17 73.5727  -2
   4   2  35 1074.17 73.5727   1
   5   2  35 229.945 17.9273  -3
   5   1  35 229.945 17.9273  -2
   5   2  35 229.945 17.9273   1
   5   2  35 260.497 18.3956  -3
   5   3  35 260.497 18.3956  -2
   5   2  35 260.497 18.3956   1
   5   2  35 197.813 29.0497  -3
   5   2  35 197.813 29.0497  -2
   5   2  35 197.813 29.0497   1
   6   2  35 30.8829 11.0632  -3
   6   1  35 30.8829 11.0632  -2
   6   2  35 30.8829 11.0632   1
   6   2  35 26.3258 11.5593  -3
   6   3  35 26.3258 11.5593  -2
   6   2  35 26.3258 11.5593   1
   7   2  35 -9.9988 31.8068  -3
   7   3  35 -9.9988 31.8068  -2
   7   2  35 -9.9988 31.8068   1
   7   2  35 -52.266 33.1228  -3
   7   1  35 -52.266 33.1228  -2
   7   2  35 -52.266 33.1228   1
   2   3  35 36.8446 10.3940   1
   3   3  35 175.154 42.5117  -3
   3   4  35 175.154 42.5117  -2
   3   3  35 175.154 42.5117   1
   3   3  35 203.492 42.1270  -3
   3   3  35 203.492 42.1270  -2
   3   3  35 203.492 42.1270   1
   3   3  35 141.859 45.3159  -3
   3   2  35 141.859 45.3159  -2
   3   3  35 141.859 45.3159   1
   4   3  35 566.545 35.9832  -3
   4   2  35 566.545 35.9832  -2
   4   3  35 566.545 35.9832   1
   4   3  35 470.732 24.2458  -3
   4   4  35 470.732 24.2458  -2
   4   3  35 470.732 24.2458   1
   4   3  35 445.884 34.5165  -3
   4   3  35 445.884 34.5165  -2
   4   3  35 445.884 34.5165   1
   5   3  35 821.867 31.6866  -3
   5   4  35 821.867 31.6866  -2
   5   3  35 821.867 31.6866   1
   5   3  35 858.672 33.0405  -3
   5   2  35 858.672 33.0405  -2
   5   3  35 858.672 33.0405   1
   5   3  35 913.098 68.5006  -3
   5   3  35 913.098 68.5006  -2
   5   3  35 913.098 68.5006   1
   6   3  35 1.13589 13.4917  -3
   6   2  35 1.13589 13.4917  -2
   6   3  35 1.13589 13.4917   1
   6   3  35 20.5683 11.9910  -3
   6   4  35 20.5683 11.9910  -2
   6   3  35 20.5683 11.9910   1
   7   3  35 118.854 35.9347  -3
   7   4  35 118.854 35.9347  -2
   7   3  35 118.854 35.9347   1
   7   3  35 99.0195 38.9122  -3
   7   2  35 99.0195 38.9122  -2
   7   3  35 99.0195 38.9122   1
   0   4  35 11.7168 19.4648  -3
   0   4  35 11.7168 19.4648   1
   1   4  35 109.707 30.4236  -3
   1   4  35 109.707 30.4236   1
   2   4  35 12.7598 9.73244   1
   3   4  35 64.3767 40.5764  -3
   3   4  35 64.3767 40.5764  -2
   3   4  35 64.3767 40.5764   1
   3   4  35 31.2865 46.6004  -3
   3   3  35 31.2865 46.6004  -2
   3   4  35 31.2865 46.6004   1
   3   4  35 24.9163 41.6155  -3
   3   5  35 24.9163 41.6155  -2
   3   4  35 24.9163 41.6155   1
   4   4  35 463.568 34.3828  -3
   4   3  35 463.568 34.3828  -2
   4   4  35 463.568 34.3828   1
   4   4  35 470.776 52.3644  -3
   4   5  35 470.776 52.3644  -2
   4   4  35 470.776 52.3644   1
   4   4  35 432.065 51.6081  -3
   4   4  35 432.065 51.6081  -2
   4   4  35 432.065 51.6081   1
   5   4  35 77.4240 26.2603  -3
   5   3  35 77.4240 26.2603  -2
   5   4  35 77.4240 26.2603   1
   5   4  35 70.9202 23.2704  -3
   5   5  35 70.9202 23.2704  -2
   5   4  35 70.9202 23.2704   1
   5   4  35 45.2712 15.0702  -3
   5   4  35 45.2712 15.0702   1
   5   4  35 9.15987 27.0229  -3
   5   4  35 9.15987 27.0229  -2
   5   4  35 9.15987 27.0229   1
   6   4  35 -11.139 14.6821  -3
   6   3  35 -11.139 14.6821  -2
   6   4  35 -11.139 14.6821   1
   6   4  35 76.6673 36.5535  -3
   6   5  35 76.6673 36.5535  -2
   6   4  35 76.6673 36.5535   1
   7   4  35 81.6596 40.5843  -3
   7   3  35 81.6596 40.5843  -2
   7   4  35 81.6596 40.5843   1
   7   4  35 57.6404 36.3325  -3
   7   5  35 57.6404 36.3325  -2
   7   4  35 57.6404 36.3325   1
   0   5  35 -0.9879 17.5550   1
   1   5  35 85.9093 19.9941  -3
   1   5  35 85.9093 19.9941   1
   2   5  35 239.793 22.1294  -3
   2   5  35 239.793 22.1294   1
   3   5  35 94.4544 45.2346  -3
   3   6  35 94.4544 45.2346  -2
   3   5  35 94.4544 45.2346   1
   3   5  35 144.770 46.7027  -3
   3   5  35 144.770 46.7027  -2
   3   5  35 144.770 46.7027   1
   4   5  35 386.647 28.7176  -3
   4   4  35 386.647 28.7176  -2
   4   5  35 386.647 28.7176   1
   4   5  35 359.212 50.0509  -3
   4   6  35 359.212 50.0509  -2
   4   5  35 359.212 50.0509   1
   4   5  35 262.168 49.1939  -3
   4   5  35 262.168 49.1939  -2
   4   5  35 262.168 49.1939   1
   5   5  35 389.782 30.4724  -3
   5   6  35 389.782 30.4724  -2
   5   5  35 389.782 30.4724   1
   5   5  35 314.027 21.8521  -3
   5   4  35 314.027 21.8521  -2
   5   5  35 314.027 21.8521   1
   5   5  35 323.878 33.4246  -3
   5   5  35 323.878 33.4246  -2
   5   5  35 323.878 33.4246   1
   6   5  35 485.272 51.3842  -3
   6   6  35 485.272 51.3842  -2
   6   5  35 485.272 51.3842   1
   6   5  35 480.237 28.6499  -3
   6   4  35 480.237 28.6499  -2
   6   5  35 480.237 28.6499   1
   7   5  35 24.7937 42.9273  -3
   7   4  35 24.7937 42.9273  -2
   7   5  35 24.7937 42.9273   1
   7   5  35 157.353 42.0514  -3
   7   6  35 157.353 42.0514  -2
   7   5  35 157.353 42.0514   1
   0   6  35 23.8620 15.6534  -3
   0   6  35 23.8620 15.6534   1
   1   6  35 240.147 13.6695  -3
   1   6  35 240.147 13.6695   1
   2   6  35 1.94453 16.6079  -3
   2   6  35 1.94453 16.6079   1
   3   6  35 121.426 48.2394  -3
   3   6  35 121.426 48.2394  -2
   3   6  35 121.426 48.2394   1
   3   6  35 113.324 17.8212  -3
   3   6  35 113.324 17.8212   1
   4   6  35 66.7269 44.7689  -3
   4   7  35 66.7269 44.7689  -2
   4   6  35 66.7269 44.7689   1
   4   6  35 116.430 45.3408  -3
   4   6  35 116.430 45.3408  -2
   4   6  35 116.430 45.3408   1
   5   6  35 975.137 45.5932  -3
   5   5  35 975.137 45.5932  -2
   5   6  35 975.137 45.5932   1
   5   6  35 833.977 43.8261  -3
   5   7  35 833.977 43.8261  -2
   5   6  35 833.977 43.8261   1
   5   6  35 915.629 71.6016  -3
   5   6  35 915.629 71.6016  -2
   5   6  35 915.629 71.6016   1
   6   7  35 25.5882 16.3788  -2
   6   6  35 25.5882 16.3788   1
   6   6  35 89.5320 41.5364  -3
   6   7  35 89.5320 41.5364  -2
   6   6  35 89.5320 41.5364   1
   6   6  35 -32.980 41.2857  -3
   6   5  35 -32.980 41.2857  -2
   6   6  35 -32.980 41.2857   1
   7   6  35 953.077 71.5678  -3
   7   7  35 953.077 71.5678  -2
   7   6  35 953.077 71.5678   1
   0   7  35 -0.2282 14.5017   1
   1   7  35 145.986 15.1115  -3
   1   7  35 145.986 15.1115   1
   2   7  35 12.9455 16.4888  -3
   2   7  35 12.9455 16.4888   1
   3   7  35 167.455 37.3006  -3
   3   6  35 167.455 37.3006  -2
   3   7  35 167.455 37.3006   1
   3   7  35 175.724 25.9886  -3
   3   7  35 175.724 25.9886   1
   4   7  35 13.7850 18.5248  -3
   4   7  35 13.7850 18.5248   1
   4   7  35 12.8025 45.8826  -3
   4   8  35 12.8025 45.8826  -2
   4   7  35 12.8025 45.8826   1
   4   6  35 46.1826 23.3601  -2
   4   7  35 46.1826 23.3601   1
   5   7  35 -5.4020 33.7754  -3
   5   7  35 -5.4020 33.7754   1
   5   7  35 10.4542 43.9438  -3
   5   8  35 10.4542 43.9438  -2
   5   7  35 10.4542 43.9438   1
   5   7  35 77.2986 47.5830  -3
   5   7  35 77.2986 47.5830  -2
   5   7  35 77.2986 47.5830   1
   5   7  35 68.1783 47.3902  -3
   5   6  35 68.1783 47.3902  -2
   5   7  35 68.1783 47.3902   1
   6   7  35 180.075 45.5259  -3
   6   6  35 180.075 45.5259  -2
   6   7  35 180.075 45.5259   1
   6   7  35 168.707 45.7216  -3
   6   8  35 168.707 45.7216  -2
   6   7  35 168.707 45.7216   1
   7   7  35 41.0817 42.5849  -3
   7   8  35 41.0817 42.5849  -2
   7   7  35 41.0817 42.5849   1
   7   7  35 66.4763 45.2212  -3
   7   6  35 66.4763 45.2212  -2
   7   7  35 66.4763 45.2212   1
   0   8  35 992.745 44.2690  -3
   0   8  35 992.745 44.2690   1
   1   8  35 57.7052 13.7594  -3
   1   8  35 57.7052 13.7594   1
   2   8  35 28.6020 12.5525  -3
   2   8  35 28.6020 12.5525   1
   3   8  35 -7.2749 12.6046  -3
   3   8  35 -7.2749 12.6046   1
   4   8  35 60.4342 12.1671  -3
   4   8  35 60.4342 12.1671   1
   5   8  35 303.449 46.1173  -2
   5   8  35 303.449 46.1173   1
   5   8  35 337.756 22.0629  -3
   5   8  35 337.756 22.0629   1
   5   8  35 434.125 55.8376  -3
   5   9  35 434.125 55.8376  -2
   5   8  35 434.125 55.8376   1
   6   8  35 257.907 20.5219  -3
   6   8  35 257.907 20.5219   1
   6   8  35 324.189 50.7950  -3
   6   9  35 324.189 50.7950  -2
   6   8  35 324.189 50.7950   1
   6   8  35 292.192 44.0169  -2
   6   8  35 292.192 44.0169   1
   7   8  35 297.793 52.4363  -3
   7   7  35 297.793 52.4363  -2
   7   8  35 297.793 52.4363   1
   0   9  35 13.5442 9.22821   1
   1   9  35 136.548 18.1992  -3
   1   9  35 136.548 18.1992   1
   2   9  35 34.4439 12.6968  -3
   2   9  35 34.4439 12.6968   1
   3   9  35 203.192 15.4134  -3
   3   9  35 203.192 15.4134   1
   4   9  35 10.1899 11.5198  -3
   4   9  35 10.1899 11.5198   1
   5   9  35 50.3224 21.8104  -3
   5   9  35 50.3224 21.8104   1
   6   9  35 189.177 42.2771  -2
   6   9  35 189.177 42.2771   1
   6   9  35 117.513 38.6252  -3
   6   9  35 117.513 38.6252   1
   7   9  35 34.3686 11.5733   1
   0  10  35 666.650 52.8131  -3
   0  10  35 666.650 52.8131   1
   1  10  35 522.100 25.5639  -3
   1  10  35 522.100 25.5639   1
   2  10  35 26.4160 14.9230  -3
   2  10  35 26.4160 14.9230   1
   3  10  35 86.5307 14.4088  -3
   3  10  35 86.5307 14.4088   1
   4  10  35 37.5552 11.5546  -3
   4  10  35 37.5552 11.5546   1
   5  10  35 182.582 24.3282  -3
   5  10  35 182.582 24.3282   1
   6  10  35 6.89053 37.8893  -3
   6  10  35 6.89053 37.8893   1
   7  10  35 1.30600 9.75172   1
   0  11  35 18.0239 9.34245   1
   1  11  35 5.57007 21.9591  -3
   1  11  35 5.57007 21.9591   1
   2  11  35 42.6619 19.9114  -3
   2  11  35 42.6619 19.9114   1
   3  11  35 249.083 21.7969  -3
   3  11  35 249.083 21.7969   1
   4  11  35 11.3328 16.4827  -3
   4  11  35 11.3328 16.4827   1
   5  11  35 48.1014 42.2113  -3
   5  11  35 48.1014 42.2113   1
   6  11  35 41.9332 39.5890  -3
   6  11  35 41.9332 39.5890   1
   0  12  35 400.316 43.6260  -3
   0  12  35 400.316 43.6260   1
   1  12  35 122.539 25.1095  -3
   1  12  35 122.539 25.1095   1
   2  12  35 53.4736 20.5854  -3
   2  12  35 53.4736 20.5854   1
   3  12  35 136.736 20.1965  -3
   3  12  35 136.736 20.1965   1
   4  12  35 184.525 22.6313  -3
   4  12  35 184.525 22.6313   1
   5  12  35 -8.6820 40.8383  -3
   5  12  35 -8.6820 40.8383   1
   6  12  35 18.5912 40.9600  -3
   6  12  35 18.5912 40.9600   1
   0  13  35 6.63958 8.94457   1
   1  13  35 9.77813 6.80724   1
   2  13  35 30.9285 35.3190  -3
   2  13  35 30.9285 35.3190   1
   3  13  35 111.254 21.0686  -3
   3  13  35 111.254 21.0686   1
   4  13  35 77.2419 24.9980  -3
   4  13  35 77.2419 24.9980   1
   5  13  35 47.8240 29.2685  -3
   5  13  35 47.8240 29.2685   1
   6  13  35 20.0364 20.0940   1
   0  14  35 84.7341 12.3958   1
   1  14  35 69.2290 9.97826   1
   2  14  35 211.666 38.1203  -3
   2  14  35 211.666 38.1203   1
   3  14  35 6.94298 34.2141  -3
   3  14  35 6.94298 34.2141   1
   4  14  35 209.331 20.7713   1
   5  14  35 -40.877 44.0755  -3
   5  14  35 -40.877 44.0755   1
   6  14  35 9.23476 18.7243   1
   0  15  35 15.5205 9.82515   1
   1  15  35 121.588 11.9192   1
   2  15  35 97.7040 36.9654  -3
   2  15  35 97.7040 36.9654   1
   3  15  35 34.8883 10.8780   1
   4  15  35 27.1951 20.0554   1
   5  15  35 12.1532 22.9561   1
   0  16  35 913.867 55.2254   1
   1  16  35 354.861 45.1250  -3
   1  16  35 354.861 45.1250   1
   2  16  35 358.507 43.2725  -3
   2  16  35 358.507 43.2725   1
   3  16  35 550.362 24.9710   1
   4  16  35 139.366 26.5454   1
   5  16  35 448.704 46.3303   1
   0  17  35 -14.452 12.2311   1
   1  17  35 331.375 29.7614   1
   2  17  35 190.076 19.1485   1
   3  17  35 20.5177 12.2061   1
   4  17  35 40.6777 21.0895   1
   0  18  35 137.775 22.6484   1
   1  18  35 144.712 15.8885   1
   3  18  35 34.8110 16.9369   1
   0  19  35 -10.390 22.2754   1
   1  19  35 3.49984 13.8220   1
   2   0  36 35.3254 14.4006   1
   3   0  36 625.276 36.5460  -3
   3   1  36 625.276 36.5460  -2
   3   0  36 625.276 36.5460   1
   4   0  36 1755.34 56.8043  -3
   4   1  36 1755.34 56.8043  -2
   4   0  36 1755.34 56.8043   1
   5   0  36 1076.40 73.7344  -3
   5   0  36 1076.40 73.7344  -2
   5   0  36 1076.40 73.7344   1
   5   0  36 983.759 35.6999  -3
   5   1  36 983.759 35.6999  -2
   5   0  36 983.759 35.6999   1
   6   0  36 85.5108 16.8060  -3
   6   1  36 85.5108 16.8060  -2
   6   0  36 85.5108 16.8060   1
   7   0  36 40.6282 32.4560  -3
   7   1  36 40.6282 32.4560  -2
   7   0  36 40.6282 32.4560   1
   2   1  36 133.605 14.9832   1
   3   1  36 46.8518 23.6544  -3
   3   2  36 46.8518 23.6544  -2
   3   1  36 46.8518 23.6544   1
   3   1  36 119.881 25.7395  -3
   3   0  36 119.881 25.7395  -2
   3   1  36 119.881 25.7395   1
   4   1  36 672.622 57.3477  -3
   4   1  36 672.622 57.3477  -2
   4   1  36 672.622 57.3477   1
   4   1  36 797.185 31.5771  -3
   4   2  36 797.185 31.5771  -2
   4   1  36 797.185 31.5771   1
   4   1  36 755.055 40.5818  -3
   4   0  36 755.055 40.5818  -2
   4   1  36 755.055 40.5818   1
   5   1  36 625.450 25.9146  -3
   5   2  36 625.450 25.9146  -2
   5   1  36 625.450 25.9146   1
   5   1  36 614.500 38.6685  -3
   5   1  36 614.500 38.6685  -2
   5   1  36 614.500 38.6685   1
   5   1  36 629.265 26.9180  -3
   5   0  36 629.265 26.9180  -2
   5   1  36 629.265 26.9180   1
   6   1  36 119.344 16.2447  -3
   6   2  36 119.344 16.2447  -2
   6   1  36 119.344 16.2447   1
   6   1  36 106.244 17.2625  -3
   6   0  36 106.244 17.2625  -2
   6   1  36 106.244 17.2625   1
   7   1  36 -15.756 30.2437  -3
   7   2  36 -15.756 30.2437  -2
   7   1  36 -15.756 30.2437   1
   7   1  36 -10.350 31.2313  -3
   7   0  36 -10.350 31.2313  -2
   7   1  36 -10.350 31.2313   1
   2   2  36 12.6209 9.71350   1
   3   2  36 6.60535 24.5136  -3
   3   1  36 6.60535 24.5136  -2
   3   2  36 6.60535 24.5136   1
   3   2  36 82.1281 24.5618  -3
   3   3  36 82.1281 24.5618  -2
   3   2  36 82.1281 24.5618   1
   4   2  36 141.456 17.6914  -3
   4   3  36 141.456 17.6914  -2
   4   2  36 141.456 17.6914   1
   4   2  36 211.821 27.4547  -3
   4   1  36 211.821 27.4547  -2
   4   2  36 211.821 27.4547   1
   4   2  36 146.109 39.5411  -3
   4   2  36 146.109 39.5411  -2
   4   2  36 146.109 39.5411   1
   5   2  36 130.972 28.0861  -3
   5   2  36 130.972 28.0861  -2
   5   2  36 130.972 28.0861   1
   5   2  36 96.8099 16.0549  -3
   5   3  36 96.8099 16.0549  -2
   5   2  36 96.8099 16.0549   1
   5   2  36 107.886 16.9511  -3
   5   1  36 107.886 16.9511  -2
   5   2  36 107.886 16.9511   1
   6   2  36 72.0219 13.4901  -3
   6   1  36 72.0219 13.4901  -2
   6   2  36 72.0219 13.4901   1
   6   2  36 63.9237 15.4993  -3
   6   3  36 63.9237 15.4993  -2
   6   2  36 63.9237 15.4993   1
   7   2  36 31.5273 32.0646  -3
   7   3  36 31.5273 32.0646  -2
   7   2  36 31.5273 32.0646   1
   7   2  36 56.8228 36.1172  -3
   7   1  36 56.8228 36.1172  -2
   7   2  36 56.8228 36.1172   1
   2   3  36 154.778 15.5846   1
   3   3  36 269.862 46.4708  -3
   3   4  36 269.862 46.4708  -2
   3   3  36 269.862 46.4708   1
   3   3  36 387.566 48.1454  -3
   3   3  36 387.566 48.1454  -2
   3   3  36 387.566 48.1454   1
   4   3  36 184.147 19.0921  -3
   4   4  36 184.147 19.0921  -2
   4   3  36 184.147 19.0921   1
   4   3  36 275.690 29.9114  -3
   4   2  36 275.690 29.9114  -2
   4   3  36 275.690 29.9114   1
   4   3  36 177.923 40.8659  -3
   4   3  36 177.923 40.8659  -2
   4   3  36 177.923 40.8659   1
   5   3  36 173.298 17.8472  -3
   5   4  36 173.298 17.8472  -2
   5   3  36 173.298 17.8472   1
   5   3  36 154.880 17.6560  -3
   5   2  36 154.880 17.6560  -2
   5   3  36 154.880 17.6560   1
   5   3  36 168.406 42.8859  -3
   5   3  36 168.406 42.8859  -2
   5   3  36 168.406 42.8859   1
   6   3  36 -1.1523 16.9576  -3
   6   2  36 -1.1523 16.9576  -2
   6   3  36 -1.1523 16.9576   1
   6   3  36 -2.5510 13.5966  -3
   6   4  36 -2.5510 13.5966  -2
   6   3  36 -2.5510 13.5966   1
   7   3  36 58.2745 39.5508  -3
   7   2  36 58.2745 39.5508  -2
   7   3  36 58.2745 39.5508   1
   7   3  36 55.7148 34.4697  -3
   7   4  36 55.7148 34.4697  -2
   7   3  36 55.7148 34.4697   1
   0   4  36 1045.59 46.1493  -3
   0   4  36 1045.59 46.1493   1
   1   4  36 22.1055 12.5182   1
   2   4  36 69.6050 12.7728   1
   3   4  36 -50.020 40.2500  -3
   3   4  36 -50.020 40.2500  -2
   3   4  36 -50.020 40.2500   1
   3   4  36 -43.318 43.2367  -3
   3   5  36 -43.318 43.2367  -2
   3   4  36 -43.318 43.2367   1
   4   4  36 502.613 25.5087  -3
   4   5  36 502.613 25.5087  -2
   4   4  36 502.613 25.5087   1
   4   4  36 406.146 33.7609  -3
   4   3  36 406.146 33.7609  -2
   4   4  36 406.146 33.7609   1
   4   4  36 474.350 53.5456  -3
   4   4  36 474.350 53.5456  -2
   4   4  36 474.350 53.5456   1
   5   4  36 34.7461 23.7066  -3
   5   5  36 34.7461 23.7066  -2
   5   4  36 34.7461 23.7066   1
   5   4  36 20.8768 25.8339  -3
   5   3  36 20.8768 25.8339  -2
   5   4  36 20.8768 25.8339   1
   5   4  36 38.7166 39.4446  -3
   5   4  36 38.7166 39.4446  -2
   5   4  36 38.7166 39.4446   1
   6   4  36 105.762 38.5685  -3
   6   5  36 105.762 38.5685  -2
   6   4  36 105.762 38.5685   1
   6   4  36 60.8655 17.9951  -3
   6   3  36 60.8655 17.9951  -2
   6   4  36 60.8655 17.9951   1
   7   4  36 27.3073 40.9776  -3
   7   3  36 27.3073 40.9776  -2
   7   4  36 27.3073 40.9776   1
   7   4  36 41.7484 36.5832  -3
   7   5  36 41.7484 36.5832  -2
   7   4  36 41.7484 36.5832   1
   0   5  36 -3.8722 19.8890   1
   1   5  36 -20.633 29.8228  -3
   1   5  36 -20.633 29.8228   1
   2   5  36 79.3164 12.1867   1
   3   5  36 114.992 28.9642  -3
   3   4  36 114.992 28.9642  -2
   3   5  36 114.992 28.9642   1
   3   5  36 166.725 48.1267  -3
   3   6  36 166.725 48.1267  -2
   3   5  36 166.725 48.1267   1
   3   5  36 162.428 48.9261  -3
   3   5  36 162.428 48.9261  -2
   3   5  36 162.428 48.9261   1
   4   5  36 601.557 59.6494  -3
   4   6  36 601.557 59.6494  -2
   4   5  36 601.557 59.6494   1
   4   5  36 566.991 61.7678  -3
   4   4  36 566.991 61.7678  -2
   4   5  36 566.991 61.7678   1
   5   5  36 15.1481 17.9707  -3
   5   4  36 15.1481 17.9707  -2
   5   5  36 15.1481 17.9707   1
   5   5  36 27.7781 29.9305  -3
   5   5  36 27.7781 29.9305  -2
   5   5  36 27.7781 29.9305   1
   5   5  36 34.5096 25.9019  -3
   5   6  36 34.5096 25.9019  -2
   5   5  36 34.5096 25.9019   1
   6   5  36 844.911 66.3776  -3
   6   6  36 844.911 66.3776  -2
   6   5  36 844.911 66.3776   1
   6   5  36 851.706 70.3382  -3
   6   4  36 851.706 70.3382  -2
   6   5  36 851.706 70.3382   1
   7   5  36 322.536 46.3013  -3
   7   6  36 322.536 46.3013  -2
   7   5  36 322.536 46.3013   1
   7   5  36 231.630 46.6940  -3
   7   4  36 231.630 46.6940  -2
   7   5  36 231.630 46.6940   1
   0   6  36 35.3689 18.3535  -3
   0   6  36 35.3689 18.3535   1
   1   6  36 429.075 23.2864  -3
   1   6  36 429.075 23.2864   1
   2   6  36 -33.005 16.2566  -3
   2   6  36 -33.005 16.2566   1
   3   6  36 414.699 37.8684  -3
   3   5  36 414.699 37.8684  -2
   3   6  36 414.699 37.8684   1
   3   6  36 430.443 57.0903  -3
   3   6  36 430.443 57.0903  -2
   3   6  36 430.443 57.0903   1
   4   5  36 46.8180 22.0887  -2
   4   6  36 46.8180 22.0887   1
   4   6  36 41.1451 45.4985  -3
   4   7  36 41.1451 45.4985  -2
   4   6  36 41.1451 45.4985   1
   4   6  36 5.34930 49.3248  -3
   4   5  36 5.34930 49.3248  -2
   4   6  36 5.34930 49.3248   1
   5   5  36 128.241 30.3501  -2
   5   6  36 128.241 30.3501   1
   5   6  36 142.193 48.1874  -3
   5   5  36 142.193 48.1874  -2
   5   6  36 142.193 48.1874   1
   5   6  36 149.168 48.0205  -3
   5   6  36 149.168 48.0205  -2
   5   6  36 149.168 48.0205   1
   5   6  36 210.974 47.0701  -3
   5   7  36 210.974 47.0701  -2
   5   6  36 210.974 47.0701   1
   6   6  36 114.113 44.4300  -3
   6   7  36 114.113 44.4300  -2
   6   6  36 114.113 44.4300   1
   6   7  36 57.0401 17.5602  -2
   6   6  36 57.0401 17.5602   1
   6   6  36 63.9534 45.0591  -3
   6   5  36 63.9534 45.0591  -2
   6   6  36 63.9534 45.0591   1
   7   6  36 -4.1375 47.3090  -3
   7   5  36 -4.1375 47.3090  -2
   7   6  36 -4.1375 47.3090   1
   0   7  36 10.6347 16.7748   1
   1   7  36 600.976 23.3197  -3
   1   7  36 600.976 23.3197   1
   2   7  36 -7.4614 17.0467  -3
   2   7  36 -7.4614 17.0467   1
   3   7  36 31.8560 19.1302  -3
   3   7  36 31.8560 19.1302   1
   4   6  36 125.063 25.2784  -2
   4   7  36 125.063 25.2784   1
   4   7  36 182.995 40.1631  -3
   4   7  36 182.995 40.1631   1
   4   7  36 140.603 37.0882  -3
   4   6  36 140.603 37.0882  -2
   4   7  36 140.603 37.0882   1
   5   7  36 194.070 49.2817  -3
   5   7  36 194.070 49.2817  -2
   5   7  36 194.070 49.2817   1
   5   7  36 145.558 38.5449  -3
   5   7  36 145.558 38.5449   1
   5   7  36 147.788 47.0734  -3
   5   8  36 147.788 47.0734  -2
   5   7  36 147.788 47.0734   1
   6   7  36 911.287 51.3554  -3
   6   7  36 911.287 51.3554   1
   6   7  36 916.601 74.7971  -3
   6   6  36 916.601 74.7971  -2
   6   7  36 916.601 74.7971   1
   6   7  36 899.236 71.0794  -3
   6   8  36 899.236 71.0794  -2
   6   7  36 899.236 71.0794   1
   7   7  36 92.3374 17.0438  -3
   7   7  36 92.3374 17.0438   1
   7   7  36 84.1463 47.4833  -3
   7   6  36 84.1463 47.4833  -2
   7   7  36 84.1463 47.4833   1
   0   8  36 514.805 46.8613  -3
   0   8  36 514.805 46.8613   1
   1   8  36 40.1763 14.3006  -3
   1   8  36 40.1763 14.3006   1
   2   8  36 330.880 16.4456  -3
   2   8  36 330.880 16.4456   1
   3   8  36 -15.530 14.9995  -3
   3   8  36 -15.530 14.9995   1
   4   9  36 38.7762 23.5308  -2
   4   8  36 38.7762 23.5308   1
   4   8  36 15.7201 12.8762  -3
   4   8  36 15.7201 12.8762   1
   5   8  36 200.105 53.6657  -3
   5   8  36 200.105 53.6657  -2
   5   8  36 200.105 53.6657   1
   5   8  36 138.500 28.6043  -3
   5   8  36 138.500 28.6043   1
   5   8  36 230.194 52.0936  -3
   5   9  36 230.194 52.0936  -2
   5   8  36 230.194 52.0936   1
   5   9  36 165.304 23.2721  -2
   5   8  36 165.304 23.2721   1
   5   8  36 165.219 40.0838  -3
   5   7  36 165.219 40.0838  -2
   5   8  36 165.219 40.0838   1
   6   8  36 230.993 43.2899  -3
   6   8  36 230.993 43.2899   1
   6   8  36 335.633 54.2733  -3
   6   9  36 335.633 54.2733  -2
   6   8  36 335.633 54.2733   1
   6   8  36 240.959 42.8362  -2
   6   8  36 240.959 42.8362   1
   7   8  36 10.9229 16.1601  -3
   7   8  36 10.9229 16.1601   1
   7   8  36 49.9446 48.7365  -3
   7   7  36 49.9446 48.7365  -2
   7   8  36 49.9446 48.7365   1
   0   9  36 0.13076 9.00409   1
   1   9  36 43.5838 17.2900  -3
   1   9  36 43.5838 17.2900   1
   2   9  36 95.4100 13.4619  -3
   2   9  36 95.4100 13.4619   1
   3   9  36 313.975 18.4593  -3
   3   9  36 313.975 18.4593   1
   4   9  36 138.316 19.3969  -3
   4   9  36 138.316 19.3969   1
   5   9  36 222.369 43.2345  -3
   5   9  36 222.369 43.2345   1
   6   9  36 389.446 33.4834  -3
   6   9  36 389.446 33.4834   1
   6   9  36 362.889 48.0429  -2
   6   9  36 362.889 48.0429   1
   7   9  36 -28.664 40.0532  -3
   7   9  36 -28.664 40.0532   1
   0  10  36 76.4180 35.2451  -3
   0  10  36 76.4180 35.2451   1
   1  10  36 -3.4691 20.3021  -3
   1  10  36 -3.4691 20.3021   1
   2  10  36 25.5657 14.9346  -3
   2  10  36 25.5657 14.9346   1
   3  10  36 146.894 16.3930  -3
   3  10  36 146.894 16.3930   1
   4  10  36 19.6400 18.5058  -3
   4  10  36 19.6400 18.5058   1
   5  10  36 202.770 44.9245  -3
   5  10  36 202.770 44.9245   1
   6  10  36 121.997 39.8890  -3
   6  10  36 121.997 39.8890   1
   6  10  36 147.205 43.2002  -2
   6  10  36 147.205 43.2002   1
   0  11  36 4.92983 9.29118   1
   1  11  36 380.866 30.8806  -3
   1  11  36 380.866 30.8806   1
   2  11  36 477.654 31.5444  -3
   2  11  36 477.654 31.5444   1
   3  11  36 789.131 42.5609  -3
   3  11  36 789.131 42.5609   1
   4  11  36 33.7320 23.4763  -3
   4  11  36 33.7320 23.4763   1
   5  11  36 53.7869 42.2533  -3
   5  11  36 53.7869 42.2533   1
   6  11  36 95.1548 42.1485  -2
   6  11  36 95.1548 42.1485   1
   6  11  36 223.945 44.6635  -3
   6  11  36 223.945 44.6635   1
   0  12  36 6.38975 36.3079  -3
   0  12  36 6.38975 36.3079   1
   1  12  36 10.2638 7.01377   1
   2  12  36 444.515 43.7631  -3
   2  12  36 444.515 43.7631   1
   3  12  36 180.527 21.3496  -3
   3  12  36 180.527 21.3496   1
   4  12  36 306.309 29.5650  -3
   4  12  36 306.309 29.5650   1
   5  12  36 21.9700 43.8283  -3
   5  12  36 21.9700 43.8283   1
   6  12  36 111.624 25.6512   1
   0  13  36 -4.1362 9.20705   1
   1  13  36 145.819 12.9136   1
   2  13  36 299.273 42.4144  -3
   2  13  36 299.273 42.4144   1
   3  13  36 475.916 34.7651  -3
   3  13  36 475.916 34.7651   1
   4  13  36 248.701 35.5902   1
   5  13  36 61.0663 44.6263  -3
   5  13  36 61.0663 44.6263   1
   6  13  36 166.858 30.7384   1
   0  14  36 365.837 46.6874  -3
   0  14  36 365.837 46.6874   1
   1  14  36 8.62083 7.88304   1
   2  14  36 109.112 36.7753  -3
   2  14  36 109.112 36.7753   1
   3  14  36 60.4153 43.1123  -3
   3  14  36 60.4153 43.1123   1
   4  14  36 181.041 46.1666  -3
   4  14  36 181.041 46.1666   1
   5  14  36 192.812 49.9536  -3
   5  14  36 192.812 49.9536   1
   0  15  36 -14.900 13.0385   1
   1  15  36 146.227 12.9068   1
   2  15  36 171.054 38.5504  -3
   2  15  36 171.054 38.5504   1
   3  15  36 263.595 18.4160   1
   4  15  36 560.606 48.9774   1
   5  15  36 127.827 30.6888   1
   0  16  36 31.2028 14.5178   1
   1  16  36 36.6259 16.8512   1
   2  16  36 31.4258 13.3309   1
   3  16  36 15.2355 12.1815   1
   4  16  36 110.065 25.2301   1
   5  16  36 162.544 41.2902   1
   0  17  36 -15.049 13.4342   1
   1  17  36 1183.84 68.7463   1
   3  17  36 27.0904 18.4368   1
   1  18  36 122.085 20.5545   1
   4   0  37 28.2538 17.7951   1
   2   1  37 107.598 13.7295   1
   3   1  37 73.9152 31.1179  -3
   3   2  37 73.9152 31.1179  -2
   3   1  37 73.9152 31.1179   1
   3   1  37 179.746 34.3615  -3
   3   1  37 179.746 34.3615   1
   4   1  37 1518.92 50.7991  -3
   4   2  37 1518.92 50.7991  -2
   4   1  37 1518.92 50.7991   1
   4   1  37 1522.12 50.9285  -3
   4   1  37 1522.12 50.9285   1
   4   1  37 1556.55 97.0994  -3
   4   1  37 1556.55 97.0994  -2
   4   1  37 1556.55 97.0994   1
   5   1  37 72.3032 15.1806  -3
   5   2  37 72.3032 15.1806  -2
   5   1  37 72.3032 15.1806   1
   5   1  37 63.8585 15.7116  -3
   5   1  37 63.8585 15.7116   1
   5   1  37 99.9792 37.3010  -3
   5   1  37 99.9792 37.3010  -2
   5   1  37 99.9792 37.3010   1
   6   1  37 869.983 39.6717  -3
   6   1  37 869.983 39.6717   1
   6   1  37 944.887 40.4737  -3
   6   2  37 944.887 40.4737  -2
   6   1  37 944.887 40.4737   1
   7   1  37 72.9029 35.5252  -3
   7   1  37 72.9029 35.5252   1
   7   1  37 90.0561 33.0384  -3
   7   2  37 90.0561 33.0384  -2
   7   1  37 90.0561 33.0384   1
   2   2  37 63.1554 11.9875   1
   3   2  37 -17.198 28.9224  -3
   3   3  37 -17.198 28.9224  -2
   3   2  37 -17.198 28.9224   1
   3   2  37 86.3806 32.7771  -3
   3   1  37 86.3806 32.7771  -2
   3   2  37 86.3806 32.7771   1
   4   2  37 9.66856 16.6063  -3
   4   3  37 9.66856 16.6063  -2
   4   2  37 9.66856 16.6063   1
   4   2  37 82.8204 40.2698  -3
   4   2  37 82.8204 40.2698  -2
   4   2  37 82.8204 40.2698   1
   4   2  37 77.8005 25.5747  -3
   4   1  37 77.8005 25.5747  -2
   4   2  37 77.8005 25.5747   1
   5   2  37 453.921 23.5420  -3
   5   1  37 453.921 23.5420  -2
   5   2  37 453.921 23.5420   1
   5   2  37 485.505 23.3574  -3
   5   3  37 485.505 23.3574  -2
   5   2  37 485.505 23.3574   1
   5   2  37 424.499 34.5847  -3
   5   2  37 424.499 34.5847  -2
   5   2  37 424.499 34.5847   1
   6   2  37 64.0186 15.4810  -3
   6   3  37 64.0186 15.4810  -2
   6   2  37 64.0186 15.4810   1
   6   2  37 72.0406 16.6045  -3
   6   1  37 72.0406 16.6045  -2
   6   2  37 72.0406 16.6045   1
   7   2  37 43.9762 32.6992  -3
   7   3  37 43.9762 32.6992  -2
   7   2  37 43.9762 32.6992   1
   7   2  37 10.9155 36.6775  -3
   7   1  37 10.9155 36.6775  -2
   7   2  37 10.9155 36.6775   1
   1   3  37 -3.9086 11.9474   1
   2   3  37 32.0888 14.7413   1
   3   3  37 9.64853 30.8637  -3
   3   4  37 9.64853 30.8637  -2
   3   3  37 9.64853 30.8637   1
   4   3  37 232.276 28.5683  -3
   4   2  37 232.276 28.5683  -2
   4   3  37 232.276 28.5683   1
   4   3  37 120.907 40.4893  -3
   4   3  37 120.907 40.4893  -2
   4   3  37 120.907 40.4893   1
   4   3  37 191.610 19.2858  -3
   4   4  37 191.610 19.2858  -2
   4   3  37 191.610 19.2858   1
   5   3  37 104.562 17.0114  -3
   5   4  37 104.562 17.0114  -2
   5   3  37 104.562 17.0114   1
   5   3  37 72.5096 16.7929  -3
   5   2  37 72.5096 16.7929  -2
   5   3  37 72.5096 16.7929   1
   5   3  37 84.5188 29.7753  -3
   5   3  37 84.5188 29.7753  -2
   5   3  37 84.5188 29.7753   1
   6   3  37 710.192 35.2039  -3
   6   2  37 710.192 35.2039  -2
   6   3  37 710.192 35.2039   1
   6   3  37 611.661 30.3175  -3
   6   4  37 611.661 30.3175  -2
   6   3  37 611.661 30.3175   1
   7   3  37 24.7468 35.0490  -3
   7   4  37 24.7468 35.0490  -2
   7   3  37 24.7468 35.0490   1
   7   3  37 122.418 42.4775  -3
   7   2  37 122.418 42.4775  -2
   7   3  37 122.418 42.4775   1
   2   4  37 31.3740 11.3419   1
   3   4  37 45.0187 27.4604  -3
   3   3  37 45.0187 27.4604  -2
   3   4  37 45.0187 27.4604   1
   4   4  37 0.67371 17.7071  -3
   4   5  37 0.67371 17.7071  -2
   4   4  37 0.67371 17.7071   1
   4   4  37 20.6362 27.1371  -3
   4   3  37 20.6362 27.1371  -2
   4   4  37 20.6362 27.1371   1
   5   4  37 588.288 57.0414  -3
   5   4  37 588.288 57.0414  -2
   5   4  37 588.288 57.0414   1
   5   4  37 613.536 56.5612  -3
   5   5  37 613.536 56.5612  -2
   5   4  37 613.536 56.5612   1
   5   4  37 573.516 27.0961  -3
   5   3  37 573.516 27.0961  -2
   5   4  37 573.516 27.0961   1
   6   4  37 25.5358 18.7145  -3
   6   3  37 25.5358 18.7145  -2
   6   4  37 25.5358 18.7145   1
   6   4  37 27.4376 37.8701  -3
   6   5  37 27.4376 37.8701  -2
   6   4  37 27.4376 37.8701   1
   7   4  37 25.4131 41.6242  -3
   7   3  37 25.4131 41.6242  -2
   7   4  37 25.4131 41.6242   1
   0   5  37 20.3040 27.0004   1
   1   5  37 -63.503 29.0460  -3
   1   5  37 -63.503 29.0460   1
   2   5  37 47.8714 11.0593   1
   4   5  37 780.161 66.2472  -3
   4   6  37 780.161 66.2472  -2
   4   5  37 780.161 66.2472   1
   4   4  37 683.789 44.4619  -2
   4   5  37 683.789 44.4619   1
   5   5  37 18.8892 27.1520  -3
   5   4  37 18.8892 27.1520  -2
   5   5  37 18.8892 27.1520   1
   5   5  37 81.1339 31.4142  -3
   5   5  37 81.1339 31.4142  -2
   5   5  37 81.1339 31.4142   1
   5   5  37 27.5821 42.8268  -3
   5   6  37 27.5821 42.8268  -2
   5   5  37 27.5821 42.8268   1
   5   4  37 19.2177 21.3420  -2
   5   5  37 19.2177 21.3420   1
   6   5  37 26.4030 44.0032  -3
   6   4  37 26.4030 44.0032  -2
   6   5  37 26.4030 44.0032   1
   6   5  37 75.2671 40.9010  -3
   6   6  37 75.2671 40.9010  -2
   6   5  37 75.2671 40.9010   1
   7   5  37 904.767 72.4880  -3
   7   4  37 904.767 72.4880  -2
   7   5  37 904.767 72.4880   1
   0   6  37 23.5802 26.2821  -3
   0   6  37 23.5802 26.2821   1
   1   6  37 54.7448 20.6453  -3
   1   6  37 54.7448 20.6453   1
   2   6  37 56.0637 23.9326  -3
   2   6  37 56.0637 23.9326   1
   3   5  37 29.4382 22.4346  -2
   3   6  37 29.4382 22.4346   1
   4   6  37 112.395 47.4519  -3
   4   7  37 112.395 47.4519  -2
   4   6  37 112.395 47.4519   1
   4   6  37 48.8572 35.2664  -3
   4   5  37 48.8572 35.2664  -2
   4   6  37 48.8572 35.2664   1
   4   5  37 57.4621 22.7692  -2
   4   6  37 57.4621 22.7692   1
   5   6  37 279.669 50.5453  -3
   5   6  37 279.669 50.5453  -2
   5   6  37 279.669 50.5453   1
   5   6  37 326.831 54.0036  -3
   5   5  37 326.831 54.0036  -2
   5   6  37 326.831 54.0036   1
   5   6  37 328.352 50.7243  -3
   5   7  37 328.352 50.7243  -2
   5   6  37 328.352 50.7243   1
   6   6  37 661.514 62.6095  -3
   6   5  37 661.514 62.6095  -2
   6   6  37 661.514 62.6095   1
   6   7  37 590.515 36.3594  -2
   6   6  37 590.515 36.3594   1
   6   6  37 623.362 60.1239  -3
   6   7  37 623.362 60.1239  -2
   6   6  37 623.362 60.1239   1
   7   6  37 19.0693 46.9074  -3
   7   5  37 19.0693 46.9074  -2
   7   6  37 19.0693 46.9074   1
   0   7  37 -3.3036 16.6374   1
   1   7  37 3.46615 19.5000  -3
   1   7  37 3.46615 19.5000   1
   2   7  37 107.861 18.3148  -3
   2   7  37 107.861 18.3148   1
   3   7  37 517.830 25.5200  -3
   3   7  37 517.830 25.5200   1
   4   7  37 138.990 38.4496  -3
   4   7  37 138.990 38.4496   1
   4   6  37 155.741 31.9335  -2
   4   7  37 155.741 31.9335   1
   5   7  37 93.1510 46.9233  -3
   5   8  37 93.1510 46.9233  -2
   5   7  37 93.1510 46.9233   1
   5   7  37 135.003 50.3622  -3
   5   6  37 135.003 50.3622  -2
   5   7  37 135.003 50.3622   1
   5   7  37 172.841 52.5046  -3
   5   7  37 172.841 52.5046  -2
   5   7  37 172.841 52.5046   1
   5   7  37 43.7356 35.7062  -3
   5   7  37 43.7356 35.7062   1
   6   7  37 36.9709 46.9560  -3
   6   6  37 36.9709 46.9560  -2
   6   7  37 36.9709 46.9560   1
   6   8  37 19.8029 18.0117  -2
   6   7  37 19.8029 18.0117   1
   6   7  37 -12.690 44.1143  -3
   6   8  37 -12.690 44.1143  -2
   6   7  37 -12.690 44.1143   1
   7   7  37 66.0253 46.8948  -3
   7   6  37 66.0253 46.8948  -2
   7   7  37 66.0253 46.8948   1
   7   7  37 78.5320 17.5166  -3
   7   7  37 78.5320 17.5166   1
   0   8  37 233.003 24.6949  -3
   0   8  37 233.003 24.6949   1
   1   8  37 34.0384 17.2962  -3
   1   8  37 34.0384 17.2962   1
   2   8  37 15.3331 12.8665  -3
   2   8  37 15.3331 12.8665   1
   3   8  37 14.5436 15.4827  -3
   3   8  37 14.5436 15.4827   1
   4   8  37 -2.5499 27.7969  -3
   4   8  37 -2.5499 27.7969   1
   4   8  37 14.0456 48.6014  -3
   4   9  37 14.0456 48.6014  -2
   4   8  37 14.0456 48.6014   1
   5   8  37 159.156 28.5754  -3
   5   8  37 159.156 28.5754   1
   5   8  37 269.180 53.5769  -3
   5   8  37 269.180 53.5769  -2
   5   8  37 269.180 53.5769   1
   5   8  37 222.938 53.8705  -3
   5   9  37 222.938 53.8705  -2
   5   8  37 222.938 53.8705   1
   6   8  37 152.320 50.3481  -3
   6   7  37 152.320 50.3481  -2
   6   8  37 152.320 50.3481   1
   6   8  37 127.163 48.5320  -3
   6   9  37 127.163 48.5320  -2
   6   8  37 127.163 48.5320   1
   6   8  37 226.499 43.3532  -2
   6   8  37 226.499 43.3532   1
   0   9  37 -4.3910 9.19110   1
   1   9  37 27.4521 17.2680  -3
   1   9  37 27.4521 17.2680   1
   2   9  37 214.628 16.1208  -3
   2   9  37 214.628 16.1208   1
   3   9  37 154.599 20.4015  -3
   3   9  37 154.599 20.4015   1
   4   9  37 29.3284 22.9290  -3
   4   9  37 29.3284 22.9290   1
   5   9  37 246.663 45.3131  -3
   5   9  37 246.663 45.3131   1
   6   9  37 62.4585 38.3950  -2
   6   9  37 62.4585 38.3950   1
   6   9  37 4.03180 27.6428  -3
   6   9  37 4.03180 27.6428   1
   0  10  37 98.5490 36.2642  -3
   0  10  37 98.5490 36.2642   1
   1  10  37 61.8332 18.0893  -3
   1  10  37 61.8332 18.0893   1
   2  10  37 -18.218 21.9411  -3
   2  10  37 -18.218 21.9411   1
   3  10  37 1028.04 39.5101  -3
   3  10  37 1028.04 39.5101   1
   4  10  37 18.9628 24.3416  -3
   4  10  37 18.9628 24.3416   1
   5  10  37 25.6954 28.2075  -3
   5  10  37 25.6954 28.2075   1
   6  10  37 51.7331 42.5856  -2
   6  10  37 51.7331 42.5856   1
   6  10  37 47.5037 40.4025  -3
   6  10  37 47.5037 40.4025   1
   0  11  37 -3.0112 9.18152   1
   1  11  37 59.8185 33.9530  -3
   1  11  37 59.8185 33.9530   1
   2  11  37 172.512 35.9159  -3
   2  11  37 172.512 35.9159   1
   3  11  37 65.6693 24.7841  -3
   3  11  37 65.6693 24.7841   1
   4  11  37 19.6507 30.4711  -3
   4  11  37 19.6507 30.4711   1
   5  11  37 10.1718 43.8721  -3
   5  11  37 10.1718 43.8721   1
   6  11  37 118.269 13.1440   1
   0  12  37 46.1993 35.0355  -3
   0  12  37 46.1993 35.0355   1
   1  12  37 173.136 13.6609   1
   2  12  37 174.723 36.3657  -3
   2  12  37 174.723 36.3657   1
   3  12  37 251.630 28.7804  -3
   3  12  37 251.630 28.7804   1
   4  12  37 355.251 39.2023   1
   5  12  37 84.5721 44.8103  -3
   5  12  37 84.5721 44.8103   1
   0  13  37 -8.6487 9.47886   1
   1  13  37 181.136 13.7598   1
   2  13  37 50.0694 36.9284  -3
   2  13  37 50.0694 36.9284   1
   3  13  37 67.3671 25.9745  -3
   3  13  37 67.3671 25.9745   1
   4  13  37 -29.811 42.1728  -3
   4  13  37 -29.811 42.1728   1
   5  13  37 437.792 54.5322  -3
   5  13  37 437.792 54.5322   1
   0  14  37 6.86363 13.6519   1
   1  14  37 215.449 15.1168   1
   2  14  37 496.970 46.5572  -3
   2  14  37 496.970 46.5572   1
   3  14  37 46.6946 13.1901   1
   4  14  37 390.665 42.7291   1
   5  14  37 58.4711 25.5826   1
   0  15  37 -9.1420 12.7025   1
   1  15  37 -1.6579 13.8410   1
   2  15  37 11.0556 12.0696   1
   3  15  37 11.4611 12.3536   1
   4  15  37 192.183 47.1961  -3
   4  15  37 192.183 47.1961   1
   5  15  37 348.792 43.8397   1
   0  16  37 141.037 22.7948   1
   1  16  37 38.0725 16.2604   1
   2  16  37 -13.797 21.3976   1
   3  16  37 155.148 25.9768   1
   1  17  37 92.7981 19.6259   1
   3  17  37 0.14648 29.5109   1
   1  18  37 39.8189 17.9365   1
   3   0  38 346.353 39.4922  -3
   3   1  38 346.353 39.4922  -2
   3   0  38 346.353 39.4922   1
   4   0  38 624.101 27.8058  -3
   4   1  38 624.101 27.8058  -2
   4   0  38 624.101 27.8058   1
   5   0  38 86.2673 19.2195  -3
   5   1  38 86.2673 19.2195  -2
   5   0  38 86.2673 19.2195   1
   6   0  38 1406.28 56.9237  -3
   6   1  38 1406.28 56.9237  -2
   6   0  38 1406.28 56.9237   1
   7   0  38 198.236 33.9140  -3
   7   1  38 198.236 33.9140  -2
   7   0  38 198.236 33.9140   1
   3   1  38 74.6214 31.3053  -3
   3   0  38 74.6214 31.3053  -2
   3   1  38 74.6214 31.3053   1
   3   1  38 130.622 33.5555  -3
   3   2  38 130.622 33.5555  -2
   3   1  38 130.622 33.5555   1
   4   1  38 168.000 18.4771  -3
   4   2  38 168.000 18.4771  -2
   4   1  38 168.000 18.4771   1
   4   1  38 241.800 20.3703  -3
   4   0  38 241.800 20.3703  -2
   4   1  38 241.800 20.3703   1
   5   1  38 85.9309 18.5087  -3
   5   2  38 85.9309 18.5087  -2
   5   1  38 85.9309 18.5087   1
   5   1  38 104.073 39.6240  -3
   5   0  38 104.073 39.6240  -2
   5   1  38 104.073 39.6240   1
   6   1  38 99.3301 18.0231  -3
   6   0  38 99.3301 18.0231  -2
   6   1  38 99.3301 18.0231   1
   6   1  38 49.0942 15.6443  -3
   6   2  38 49.0942 15.6443  -2
   6   1  38 49.0942 15.6443   1
   7   1  38 118.767 37.7566  -3
   7   0  38 118.767 37.7566  -2
   7   1  38 118.767 37.7566   1
   2   2  38 185.093 23.5776   1
   3   2  38 9.74630 19.5183  -3
   3   3  38 9.74630 19.5183  -2
   3   2  38 9.74630 19.5183   1
   3   2  38 -2.5503 30.3194  -3
   3   1  38 -2.5503 30.3194  -2
   3   2  38 -2.5503 30.3194   1
   4   2  38 74.3417 17.3929  -3
   4   3  38 74.3417 17.3929  -2
   4   2  38 74.3417 17.3929   1
   4   2  38 160.343 35.1487  -3
   4   1  38 160.343 35.1487  -2
   4   2  38 160.343 35.1487   1
   5   2  38 35.1256 38.9314  -3
   5   1  38 35.1256 38.9314  -2
   5   2  38 35.1256 38.9314   1
   5   2  38 22.4943 18.8888  -3
   5   3  38 22.4943 18.8888  -2
   5   2  38 22.4943 18.8888   1
   5   2  38 20.3327 40.6625  -3
   5   2  38 20.3327 40.6625  -2
   5   2  38 20.3327 40.6625   1
   6   2  38 457.492 25.8805  -3
   6   3  38 457.492 25.8805  -2
   6   2  38 457.492 25.8805   1
   6   2  38 489.599 27.1903  -3
   6   1  38 489.599 27.1903  -2
   6   2  38 489.599 27.1903   1
   7   2  38 48.1402 37.5018  -3
   7   1  38 48.1402 37.5018  -2
   7   2  38 48.1402 37.5018   1
   2   3  38 6.14421 12.9509   1
   3   3  38 -13.330 30.7061  -3
   3   4  38 -13.330 30.7061  -2
   3   3  38 -13.330 30.7061   1
   3   3  38 -32.156 31.1633  -3
   3   2  38 -32.156 31.1633  -2
   3   3  38 -32.156 31.1633   1
   4   3  38 84.6865 17.9805  -3
   4   4  38 84.6865 17.9805  -2
   4   3  38 84.6865 17.9805   1
   4   3  38 71.1397 33.6009  -3
   4   2  38 71.1397 33.6009  -2
   4   3  38 71.1397 33.6009   1
   5   3  38 172.088 44.9056  -3
   5   2  38 172.088 44.9056  -2
   5   3  38 172.088 44.9056   1
   5   3  38 50.6963 42.3955  -3
   5   3  38 50.6963 42.3955  -2
   5   3  38 50.6963 42.3955   1
   5   3  38 72.4976 39.1673  -3
   5   4  38 72.4976 39.1673  -2
   5   3  38 72.4976 39.1673   1
   6   3  38 154.240 17.3220  -3
   6   4  38 154.240 17.3220  -2
   6   3  38 154.240 17.3220   1
   6   3  38 288.248 47.5285  -3
   6   2  38 288.248 47.5285  -2
   6   3  38 288.248 47.5285   1
   7   3  38 30.3474 39.6437  -3
   7   2  38 30.3474 39.6437  -2
   7   3  38 30.3474 39.6437   1
   1   4  38 89.6913 16.5839   1
   2   4  38 24.5992 13.5119   1
   3   4  38 4.56779 32.7531  -3
   3   5  38 4.56779 32.7531  -2
   3   4  38 4.56779 32.7531   1
   4   4  38 254.154 29.0863  -3
   4   5  38 254.154 29.0863  -2
   4   4  38 254.154 29.0863   1
   4   4  38 344.782 40.8135  -3
   4   3  38 344.782 40.8135  -2
   4   4  38 344.782 40.8135   1
   5   4  38 93.1866 43.1636  -3
   5   4  38 93.1866 43.1636  -2
   5   4  38 93.1866 43.1636   1
   5   4  38 56.1201 40.9134  -3
   5   5  38 56.1201 40.9134  -2
   5   4  38 56.1201 40.9134   1
   5   4  38 89.2035 46.4166  -3
   5   3  38 89.2035 46.4166  -2
   5   4  38 89.2035 46.4166   1
   6   4  38 574.958 59.7768  -3
   6   3  38 574.958 59.7768  -2
   6   4  38 574.958 59.7768   1
   6   4  38 642.728 57.6235  -3
   6   5  38 642.728 57.6235  -2
   6   4  38 642.728 57.6235   1
   0   5  38 -4.7346 25.7437   1
   1   5  38 14.3589 13.2250   1
   2   5  38 19.8087 10.4542   1
   4   5  38 -16.306 25.9262  -3
   4   6  38 -16.306 25.9262  -2
   4   5  38 -16.306 25.9262   1
   5   5  38 9.89501 44.4285  -3
   5   5  38 9.89501 44.4285  -2
   5   5  38 9.89501 44.4285   1
   5   5  38 -8.6864 43.3838  -3
   5   6  38 -8.6864 43.3838  -2
   5   5  38 -8.6864 43.3838   1
   6   5  38 115.847 48.2012  -3
   6   4  38 115.847 48.2012  -2
   6   5  38 115.847 48.2012   1
   6   5  38 95.7212 42.7222  -3
   6   6  38 95.7212 42.7222  -2
   6   5  38 95.7212 42.7222   1
   0   6  38 -6.7930 20.9112  -3
   0   6  38 -6.7930 20.9112   1
   1   6  38 25.8213 20.6261  -3
   1   6  38 25.8213 20.6261   1
   2   6  38 165.029 33.5273  -3
   2   6  38 165.029 33.5273   1
   4   6  38 -5.4412 46.7020  -3
   4   7  38 -5.4412 46.7020  -2
   4   6  38 -5.4412 46.7020   1
   4   6  38 75.8497 36.0114  -3
   4   5  38 75.8497 36.0114  -2
   4   6  38 75.8497 36.0114   1
   5   6  38 58.7420 45.6957  -3
   5   7  38 58.7420 45.6957  -2
   5   6  38 58.7420 45.6957   1
   5   6  38 134.573 47.3862  -3
   5   6  38 134.573 47.3862  -2
   5   6  38 134.573 47.3862   1
   6   7  38 83.7126 18.9663  -2
   6   6  38 83.7126 18.9663   1
   6   6  38 91.4784 44.5028  -3
   6   7  38 91.4784 44.5028  -2
   6   6  38 91.4784 44.5028   1
   0   7  38 -8.3818 16.9129   1
   1   7  38 255.825 24.7185  -3
   1   7  38 255.825 24.7185   1
   2   7  38 204.011 35.2077  -3
   2   7  38 204.011 35.2077   1
   3   7  38 171.895 25.7555  -3
   3   7  38 171.895 25.7555   1
   4   7  38 52.4252 39.5228  -3
   4   7  38 52.4252 39.5228   1
   5   7  38 86.0318 37.8528  -3
   5   7  38 86.0318 37.8528   1
   5   7  38 96.5097 52.1182  -3
   5   7  38 96.5097 52.1182  -2
   5   7  38 96.5097 52.1182   1
   5   7  38 16.4431 46.9550  -3
   5   8  38 16.4431 46.9550  -2
   5   7  38 16.4431 46.9550   1
   6   7  38 33.7185 45.3296  -3
   6   8  38 33.7185 45.3296  -2
   6   7  38 33.7185 45.3296   1
   6   8  38 2.19121 18.0866  -2
   6   7  38 2.19121 18.0866   1
   0   8  38 -9.0539 21.6060  -3
   0   8  38 -9.0539 21.6060   1
   1   8  38 -13.202 17.9503  -3
   1   8  38 -13.202 17.9503   1
   2   8  38 29.8326 21.0390  -3
   2   8  38 29.8326 21.0390   1
   3   8  38 -79.167 37.4227  -3
   3   7  38 -79.167 37.4227  -2
   3   8  38 -79.167 37.4227   1
   3   8  38 -9.5899 23.6941  -3
   3   8  38 -9.5899 23.6941   1
   4   8  38 51.5899 29.9093  -3
   4   8  38 51.5899 29.9093   1
   5   8  38 68.1645 51.8167  -3
   5   9  38 68.1645 51.8167  -2
   5   8  38 68.1645 51.8167   1
   5   8  38 40.9664 52.6788  -3
   5   8  38 40.9664 52.6788  -2
   5   8  38 40.9664 52.6788   1
   6   8  38 20.4235 49.8132  -3
   6   7  38 20.4235 49.8132  -2
   6   8  38 20.4235 49.8132   1
   6   8  38 26.2241 48.4667  -3
   6   9  38 26.2241 48.4667  -2
   6   8  38 26.2241 48.4667   1
   6   8  38 17.7000 40.0755  -2
   6   8  38 17.7000 40.0755   1
   0   9  38 -7.3015 9.34073   1
   1   9  38 9.25308 17.2165  -3
   1   9  38 9.25308 17.2165   1
   2   9  38 57.2793 17.6687  -3
   2   9  38 57.2793 17.6687   1
   3   9  38 314.589 23.7414  -3
   3   9  38 314.589 23.7414   1
   4   9  38 -14.583 28.2580  -3
   4   9  38 -14.583 28.2580   1
   5   9  38 370.639 48.7667  -3
   5   9  38 370.639 48.7667   1
   6   9  38 113.022 29.1721  -3
   6   9  38 113.022 29.1721   1
   0  10  38 13.9294 33.4188  -3
   0  10  38 13.9294 33.4188   1
   1  10  38 71.5037 34.5344  -3
   1  10  38 71.5037 34.5344   1
   2  10  38 1099.48 49.8777  -3
   2  10  38 1099.48 49.8777   1
   3  10  38 34.2210 19.7285  -3
   3  10  38 34.2210 19.7285   1
   4  10  38 201.859 31.4623   1
   5  10  38 110.678 44.8837  -3
   5  10  38 110.678 44.8837   1
   6  10  38 3.67264 11.0141   1
   0  11  38 2.13351 10.1478   1
   1  11  38 -9.7367 34.5697  -3
   1  11  38 -9.7367 34.5697   1
   2  11  38 100.507 24.6058  -3
   2  11  38 100.507 24.6058   1
   3  11  38 339.924 30.7093  -3
   3  11  38 339.924 30.7093   1
   4  11  38 76.1598 23.1895   1
   5  11  38 64.1052 45.3851  -3
   5  11  38 64.1052 45.3851   1
   0  12  38 26.5667 12.0414   1
   1  12  38 130.561 35.8321  -3
   1  12  38 130.561 35.8321   1
   2  12  38 17.9705 35.7401  -3
   2  12  38 17.9705 35.7401   1
   3  12  38 35.8669 32.0840  -3
   3  12  38 35.8669 32.0840   1
   4  12  38 12.1778 20.9710   1
   5  12  38 55.9638 45.6417  -3
   5  12  38 55.9638 45.6417   1
   0  13  38 3.87696 13.9933   1
   1  13  38 170.700 17.5108   1
   2  13  38 854.432 63.1429  -3
   2  13  38 854.432 63.1429   1
   3  13  38 35.8765 32.2968  -3
   3  13  38 35.8765 32.2968   1
   4  13  38 40.5811 22.9198   1
   0  14  38 171.809 23.2027   1
   1  14  38 69.9979 17.3559   1
   2  14  38 366.259 24.1239   1
   3  14  38 6.71251 12.0581   1
   4  14  38 52.7257 23.4429   1
   0  15  38 -15.010 15.2993   1
   1  15  38 44.2759 16.5120   1
   2  15  38 18.3566 20.7294   1
   3  15  38 42.1551 19.3392   1
   1  16  38 134.737 21.9922   1
   3  16  38 65.0399 21.9545   1
   1  17  38 -2.1375 15.3762   1
   3   1  39 59.4580 33.1031  -3
   3   1  39 59.4580 33.1031   1
   3   1  39 85.4596 31.5771  -3
   3   2  39 85.4596 31.5771  -2
   3   1  39 85.4596 31.5771   1
   4   1  39 234.041 35.3478  -3
   4   2  39 234.041 35.3478  -2
   4   1  39 234.041 35.3478   1
   4   1  39 402.565 40.5598  -3
   4   1  39 402.565 40.5598   1
   5   1  39 467.476 48.7805  -3
   5   2  39 467.476 48.7805  -2
   5   1  39 467.476 48.7805   1
   5   1  39 390.076 49.5232  -3
   5   1  39 390.076 49.5232   1
   6   1  39 68.7337 37.0997  -3
   6   1  39 68.7337 37.0997   1
   6   1  39 167.029 37.8068  -3
   6   2  39 167.029 37.8068  -2
   6   1  39 167.029 37.8068   1
   2   2  39 254.784 26.4488   1
   3   2  39 -10.214 31.4468  -3
   3   1  39 -10.214 31.4468  -2
   3   2  39 -10.214 31.4468   1
   3   2  39 113.767 31.6645  -3
   3   3  39 113.767 31.6645  -2
   3   2  39 113.767 31.6645   1
   4   2  39 105.979 31.7975  -3
   4   3  39 105.979 31.7975  -2
   4   2  39 105.979 31.7975   1
   4   2  39 99.0618 32.8036  -3
   4   1  39 99.0618 32.8036  -2
   4   2  39 99.0618 32.8036   1
   5   2  39 43.2662 40.5111  -3
   5   1  39 43.2662 40.5111  -2
   5   2  39 43.2662 40.5111   1
   5   2  39 94.9534 37.2261  -3
   5   3  39 94.9534 37.2261  -2
   5   2  39 94.9534 37.2261   1
   5   2  39 58.5264 42.0005  -3
   5   2  39 58.5264 42.0005  -2
   5   2  39 58.5264 42.0005   1
   6   2  39 61.3955 37.8381  -3
   6   1  39 61.3955 37.8381  -2
   6   2  39 61.3955 37.8381   1
   6   2  39 124.650 36.6246  -3
   6   3  39 124.650 36.6246  -2
   6   2  39 124.650 36.6246   1
   2   3  39 5.92402 12.0962   1
   3   3  39 437.015 43.0209  -3
   3   4  39 437.015 43.0209  -2
   3   3  39 437.015 43.0209   1
   3   3  39 421.330 43.6154  -3
   3   2  39 421.330 43.6154  -2
   3   3  39 421.330 43.6154   1
   4   3  39 237.070 38.3387  -3
   4   2  39 237.070 38.3387  -2
   4   3  39 237.070 38.3387   1
   4   3  39 202.655 35.0047  -3
   4   4  39 202.655 35.0047  -2
   4   3  39 202.655 35.0047   1
   5   3  39 22.8605 43.2277  -3
   5   2  39 22.8605 43.2277  -2
   5   3  39 22.8605 43.2277   1
   5   3  39 6.08145 37.0754  -3
   5   4  39 6.08145 37.0754  -2
   5   3  39 6.08145 37.0754   1
   6   3  39 261.095 41.2729  -3
   6   4  39 261.095 41.2729  -2
   6   3  39 261.095 41.2729   1
   6   3  39 352.703 48.0373  -3
   6   2  39 352.703 48.0373  -2
   6   3  39 352.703 48.0373   1
   1   4  39 220.825 24.3754   1
   2   4  39 -11.587 12.7440   1
   3   4  39 46.0497 33.4580  -3
   3   5  39 46.0497 33.4580  -2
   3   4  39 46.0497 33.4580   1
   4   4  39 80.9961 33.7397  -3
   4   3  39 80.9961 33.7397  -2
   4   4  39 80.9961 33.7397   1
   5   4  39 237.739 50.6734  -3
   5   3  39 237.739 50.6734  -2
   5   4  39 237.739 50.6734   1
   5   4  39 238.463 45.8104  -3
   5   5  39 238.463 45.8104  -2
   5   4  39 238.463 45.8104   1
   6   4  39 530.727 54.1966  -3
   6   5  39 530.727 54.1966  -2
   6   4  39 530.727 54.1966   1
   6   4  39 412.849 54.3913  -3
   6   3  39 412.849 54.3913  -2
   6   4  39 412.849 54.3913   1
   1   5  39 11.9288 13.2709   1
   2   5  39 7.25855 10.1785   1
   5   5  39 633.867 60.6997  -3
   5   6  39 633.867 60.6997  -2
   5   5  39 633.867 60.6997   1
   6   5  39 361.133 49.4580  -3
   6   6  39 361.133 49.4580  -2
   6   5  39 361.133 49.4580   1
   6   5  39 418.457 58.4803  -3
   6   4  39 418.457 58.4803  -2
   6   5  39 418.457 58.4803   1
   0   6  39 408.840 39.0097  -3
   0   6  39 408.840 39.0097   1
   1   6  39 110.169 36.1022  -3
   1   6  39 110.169 36.1022   1
   1   7  39 127.654 30.9194  -2
   1   6  39 127.654 30.9194   1
   2   6  39 22.4511 10.6895   1
   4   6  39 42.4785 35.9220  -3
   4   5  39 42.4785 35.9220  -2
   4   6  39 42.4785 35.9220   1
   4   6  39 17.1601 36.1166  -3
   4   6  39 17.1601 36.1166   1
   5   6  39 593.785 62.8108  -3
   5   7  39 593.785 62.8108  -2
   5   6  39 593.785 62.8108   1
   6   6  39 3.16937 44.4423  -3
   6   7  39 3.16937 44.4423  -2
   6   6  39 3.16937 44.4423   1
   6   6  39 -17.202 49.7583  -3
   6   5  39 -17.202 49.7583  -2
   6   6  39 -17.202 49.7583   1
   0   7  39 14.5340 12.1836   1
   1   7  39 536.249 31.9261  -3
   1   7  39 536.249 31.9261   1
   2   7  39 2.33875 31.4113  -3
   2   7  39 2.33875 31.4113   1
   2   6  39 4.47948 27.5669  -2
   2   7  39 4.47948 27.5669   1
   3   7  39 35.2994 40.4051  -3
   3   7  39 35.2994 40.4051   1
   4   7  39 541.430 52.9906  -3
   4   7  39 541.430 52.9906   1
   5   7  39 112.718 50.3934  -3
   5   8  39 112.718 50.3934  -2
   5   7  39 112.718 50.3934   1
   5   7  39 43.1747 37.9978  -3
   5   7  39 43.1747 37.9978   1
   6   7  39 57.7607 46.2287  -3
   6   8  39 57.7607 46.2287  -2
   6   7  39 57.7607 46.2287   1
   6   7  39 -19.761 46.0016  -3
   6   6  39 -19.761 46.0016  -2
   6   7  39 -19.761 46.0016   1
   0   8  39 102.695 30.7285  -3
   0   8  39 102.695 30.7285   1
   1   8  39 37.7848 23.0114  -3
   1   8  39 37.7848 23.0114   1
   2   8  39 -10.749 32.2946  -3
   2   8  39 -10.749 32.2946   1
   3   7  39 2.13300 31.3069  -2
   3   8  39 2.13300 31.3069   1
   3   8  39 -8.1942 40.3142  -3
   3   8  39 -8.1942 40.3142   1
   4   8  39 512.048 32.3933   1
   5   8  39 106.480 44.7785  -2
   5   8  39 106.480 44.7785   1
   0   9  39 5.52419 10.5862   1
   1   9  39 340.857 41.7810  -3
   1   9  39 340.857 41.7810   1
   2   9  39 47.7110 22.8709  -3
   2   9  39 47.7110 22.8709   1
   3   9  39 18.0233 21.9827  -3
   3   9  39 18.0233 21.9827   1
   4   9  39 174.890 32.0117   1
   5   9  39 33.5661 40.6834  -3
   5   9  39 33.5661 40.6834   1
   0  10  39 419.583 23.5523   1
   1  10  39 23.6418 33.9868  -3
   1  10  39 23.6418 33.9868   1
   2  10  39 200.950 27.0594  -3
   2  10  39 200.950 27.0594   1
   3  10  39 456.332 44.3454  -3
   3  10  39 456.332 44.3454   1
   4  10  39 4.57843 17.6342   1
   5  10  39 68.5895 44.8546  -3
   5  10  39 68.5895 44.8546   1
   0  11  39 23.8128 14.9866   1
   1  11  39 1276.93 80.0297  -3
   1  11  39 1276.93 80.0297   1
   2  11  39 140.822 25.3563  -3
   2  11  39 140.822 25.3563   1
   3  11  39 57.7461 33.8052  -3
   3  11  39 57.7461 33.8052   1
   4  11  39 48.2250 23.3647   1
   5  11  39 34.1667 23.6636   1
   0  12  39 48.4292 16.2691   1
   1  12  39 109.233 14.6539   1
   2  12  39 160.562 18.1594   1
   3  12  39 345.220 40.6374  -3
   3  12  39 345.220 40.6374   1
   4  12  39 44.5436 22.1029   1
   0  13  39 -15.985 12.3885   1
   1  13  39 578.427 41.0226   1
   2  13  39 37.2824 37.7722  -3
   2  13  39 37.2824 37.7722   1
   4  13  39 74.4510 24.5003   1
   1  14  39 51.4082 17.6037   1
   2  14  39 18.1374 19.2801   1
   3  14  39 6.31401 22.6980   1
   1  15  39 18.1727 15.1116   1
   3  15  39 21.2346 20.2930   1
   1  16  39 80.6721 22.4417   1
   3   0  40 168.183 34.9178  -3
   3   1  40 168.183 34.9178  -2
   3   0  40 168.183 34.9178   1
   5   0  40 912.930 69.6169  -3
   5   1  40 912.930 69.6169  -2
   5   0  40 912.930 69.6169   1
   6   0  40 -12.303 31.2453  -3
   6   1  40 -12.303 31.2453  -2
   6   0  40 -12.303 31.2453   1
   2   1  40 9.13088 32.1297  -3
   2   2  40 9.13088 32.1297  -2
   2   1  40 9.13088 32.1297   1
   3   1  40 441.018 43.8836  -3
   3   0  40 441.018 43.8836  -2
   3   1  40 441.018 43.8836   1
   3   1  40 458.835 43.5526  -3
   3   2  40 458.835 43.5526  -2
   3   1  40 458.835 43.5526   1
   4   1  40 441.572 42.4510   1
   5   1  40 120.964 42.8238  -3
   5   0  40 120.964 42.8238  -2
   5   1  40 120.964 42.8238   1
   5   1  40 119.284 38.4409  -3
   5   2  40 119.284 38.4409  -2
   5   1  40 119.284 38.4409   1
   6   1  40 60.1328 35.7028  -3
   6   2  40 60.1328 35.7028  -2
   6   1  40 60.1328 35.7028   1
   6   1  40 -5.8470 36.2991  -3
   6   0  40 -5.8470 36.2991  -2
   6   1  40 -5.8470 36.2991   1
   2   2  40 -44.721 32.8742  -3
   2   1  40 -44.721 32.8742  -2
   2   2  40 -44.721 32.8742   1
   3   2  40 42.3767 31.4421  -3
   3   3  40 42.3767 31.4421  -2
   3   2  40 42.3767 31.4421   1
   3   2  40 108.009 35.0990  -3
   3   1  40 108.009 35.0990  -2
   3   2  40 108.009 35.0990   1
   4   2  40 201.590 35.1443  -3
   4   1  40 201.590 35.1443  -2
   4   2  40 201.590 35.1443   1
   5   2  40 352.615 46.0439  -3
   5   3  40 352.615 46.0439  -2
   5   2  40 352.615 46.0439   1
   6   2  40 484.800 52.0349  -3
   6   1  40 484.800 52.0349  -2
   6   2  40 484.800 52.0349   1
   6   2  40 398.708 46.2129  -3
   6   3  40 398.708 46.2129  -2
   6   2  40 398.708 46.2129   1
   2   3  40 6.55745 13.1815   1
   3   3  40 211.500 35.5657  -3
   3   4  40 211.500 35.5657  -2
   3   3  40 211.500 35.5657   1
   3   3  40 243.671 38.3454  -3
   3   2  40 243.671 38.3454  -2
   3   3  40 243.671 38.3454   1
   5   3  40 1058.11 76.1425  -3
   5   4  40 1058.11 76.1425  -2
   5   3  40 1058.11 76.1425   1
   6   3  40 691.858 61.4472  -3
   6   2  40 691.858 61.4472  -2
   6   3  40 691.858 61.4472   1
   6   3  40 660.421 58.4076  -3
   6   4  40 660.421 58.4076  -2
   6   3  40 660.421 58.4076   1
   1   4  40 141.870 22.0631   1
   2   4  40 48.0898 16.4419   1
   3   4  40 130.270 35.7648  -3
   3   5  40 130.270 35.7648  -2
   3   4  40 130.270 35.7648   1
   5   4  40 601.884 58.3012  -3
   5   5  40 601.884 58.3012  -2
   5   4  40 601.884 58.3012   1
   6   4  40 79.6724 43.3993  -3
   6   3  40 79.6724 43.3993  -2
   6   4  40 79.6724 43.3993   1
   6   4  40 26.2281 40.0780  -3
   6   5  40 26.2281 40.0780  -2
   6   4  40 26.2281 40.0780   1
   1   5  40 -8.6351 12.0291   1
   2   5  40 9.39330 13.7130   1
   3   5  40 16.1296 33.8945  -3
   3   6  40 16.1296 33.8945  -2
   3   5  40 16.1296 33.8945   1
   5   5  40 75.1154 45.6247  -3
   5   6  40 75.1154 45.6247  -2
   5   5  40 75.1154 45.6247   1
   6   5  40 -56.920 41.6690  -3
   6   6  40 -56.920 41.6690  -2
   6   5  40 -56.920 41.6690   1
   6   5  40 47.7185 44.4776  -3
   6   4  40 47.7185 44.4776  -2
   6   5  40 47.7185 44.4776   1
   0   6  40 57.0008 29.6247  -3
   0   6  40 57.0008 29.6247   1
   1   6  40 667.412 54.0917  -3
   1   6  40 667.412 54.0917   1
   1   7  40 716.439 51.0349  -2
   1   6  40 716.439 51.0349   1
   2   6  40 111.165 21.6596   1
   4   6  40 45.7558 37.1157  -3
   4   6  40 45.7558 37.1157   1
   5   6  40 410.667 58.2918  -3
   5   7  40 410.667 58.2918  -2
   5   6  40 410.667 58.2918   1
   6   6  40 -12.370 49.9536  -3
   6   5  40 -12.370 49.9536  -2
   6   6  40 -12.370 49.9536   1
   0   7  40 15.2783 13.6878   1
   1   8  40 60.3836 30.3157  -2
   1   7  40 60.3836 30.3157   1
   2   7  40 6.86886 15.6445   1
   4   7  40 268.749 28.7080   1
   5   7  40 39.2347 50.3110  -3
   5   8  40 39.2347 50.3110  -2
   5   7  40 39.2347 50.3110   1
   0   8  40 1022.79 64.2697  -3
   0   8  40 1022.79 64.2697   1
   1   8  40 277.454 16.2452   1
   2   8  40 56.8006 34.8966  -3
   2   8  40 56.8006 34.8966   1
   3   8  40 -4.9242 31.6026  -3
   3   8  40 -4.9242 31.6026   1
   4   8  40 114.439 23.4931   1
   5   8  40 7.81724 13.7181   1
   0   9  40 21.0468 11.2083   1
   1   9  40 31.2971 34.2966  -3
   1   9  40 31.2971 34.2966   1
   2   9  40 19.7363 23.1985  -3
   2   9  40 19.7363 23.1985   1
   3   9  40 9.69901 32.0866  -3
   3   9  40 9.69901 32.0866   1
   4   9  40 60.1513 22.8720   1
   5   9  40 -10.035 19.5378   1
   0  10  40 38.2013 15.2979   1
   1  10  40 59.9859 35.1158  -3
   1  10  40 59.9859 35.1158   1
   2  10  40 186.924 27.4695  -3
   2  10  40 186.924 27.4695   1
   3  10  40 -13.625 32.5214  -3
   3  10  40 -13.625 32.5214   1
   4  10  40 23.2916 20.1435   1
   5  10  40 31.1614 22.8643   1
   0  11  40 3.87662 14.4587   1
   1  11  40 341.361 44.4921  -3
   1  11  40 341.361 44.4921   1
   2  11  40 318.558 42.0656  -3
   2  11  40 318.558 42.0656   1
   4  11  40 20.9695 19.8754   1
   0  12  40 103.012 19.0231   1
   1  12  40 65.4738 38.7246  -3
   1  12  40 65.4738 38.7246   1
   2  12  40 61.0472 38.6838  -3
   2  12  40 61.0472 38.6838   1
   4  12  40 145.635 28.3696   1
   1  13  40 280.127 28.5792   1
   1  14  40 1.05891 14.5520   1
   2   1  41 43.8508 34.5456  -3
   2   1  41 43.8508 34.5456   1
   2   1  41 3.38661 33.1351  -3
   2   2  41 3.38661 33.1351  -2
   2   1  41 3.38661 33.1351   1
   3   1  41 132.641 33.4592  -3
   3   2  41 132.641 33.4592  -2
   3   1  41 132.641 33.4592   1
   3   1  41 85.9336 32.7335  -3
   3   1  41 85.9336 32.7335   1
   6   1  41 972.045 71.9313  -3
   6   1  41 972.045 71.9313   1
   6   1  41 853.523 66.5207  -3
   6   2  41 853.523 66.5207  -2
   6   1  41 853.523 66.5207   1
   2   2  41 100.934 34.4038  -3
   2   3  41 100.934 34.4038  -2
   2   2  41 100.934 34.4038   1
   2   2  41 202.460 38.9893  -3
   2   1  41 202.460 38.9893  -2
   2   2  41 202.460 38.9893   1
   3   2  41 32.4343 32.0986  -3
   3   3  41 32.4343 32.0986  -2
   3   2  41 32.4343 32.0986   1
   3   2  41 22.6948 33.9229  -3
   3   1  41 22.6948 33.9229  -2
   3   2  41 22.6948 33.9229   1
   6   2  41 274.737 43.4951  -3
   6   3  41 274.737 43.4951  -2
   6   2  41 274.737 43.4951   1
   6   2  41 409.241 49.1059  -3
   6   1  41 409.241 49.1059  -2
   6   2  41 409.241 49.1059   1
   2   3  41 33.4488 15.1845   1
   3   3  41 46.1239 33.6938  -3
   3   2  41 46.1239 33.6938  -2
   3   3  41 46.1239 33.6938   1
   3   3  41 4.40555 31.7328  -3
   3   4  41 4.40555 31.7328  -2
   3   3  41 4.40555 31.7328   1
   6   3  41 205.791 41.3465  -3
   6   4  41 205.791 41.3465  -2
   6   3  41 205.791 41.3465   1
   6   3  41 250.786 45.5167  -3
   6   2  41 250.786 45.5167  -2
   6   3  41 250.786 45.5167   1
   2   4  41 53.2127 17.4868   1
   3   4  41 -51.795 32.7238  -3
   3   5  41 -51.795 32.7238  -2
   3   4  41 -51.795 32.7238   1
   5   4  41 265.362 34.4319   1
   1   5  41 11.0874 13.9366   1
   4   5  41 75.6175 22.7434   1
   0   6  41 8.22836 13.7726   1
   1   6  41 45.0837 14.5302   1
   2   7  41 -4.5527 29.7463  -2
   2   6  41 -4.5527 29.7463   1
   3   5  41 65.4274 31.8337  -2
   3   6  41 65.4274 31.8337   1
   4   6  41 201.709 44.1933  -3
   4   6  41 201.709 44.1933   1
   5   6  41 26.5009 23.1312   1
   0   7  41 -3.8195 12.5636   1
   1   8  41 -24.882 29.6615  -2
   1   7  41 -24.882 29.6615   1
   2   7  41 -4.7366 32.2252  -3
   2   7  41 -4.7366 32.2252   1
   3   7  41 50.7322 39.9504  -3
   3   6  41 50.7322 39.9504  -2
   3   7  41 50.7322 39.9504   1
   4   7  41 40.3447 18.4018   1
   0   8  41 137.910 20.6079   1
   1   8  41 24.5343 11.4504   1
   2   8  41 25.6174 17.2037   1
   3   8  41 74.1801 33.6337  -3
   3   8  41 74.1801 33.6337   1
   4   8  41 -15.469 17.9077   1
   5   8  41 159.374 31.4491   1
   0   9  41 -10.820 12.1750   1
   1   9  41 159.609 38.1910  -3
   1   9  41 159.609 38.1910   1
   2   9  41 236.157 27.8485  -3
   2   9  41 236.157 27.8485   1
   4   9  41 8.07147 18.6257   1
   0  10  41 58.2375 16.3428   1
   1  10  41 109.503 35.8560  -3
   1  10  41 109.503 35.8560   1
   2  10  41 19.8550 35.9782  -3
   2  10  41 19.8550 35.9782   1
   4  10  41 16.9773 20.1805   1
   1  11  41 64.7478 38.1424  -3
   1  11  41 64.7478 38.1424   1
   2  11  41 223.752 42.6258  -3
   2  11  41 223.752 42.6258   1
   4  11  41 37.4837 20.1567   1
   1  12  41 -86.688 36.8619  -3
   1  12  41 -86.688 36.8619   1
   1  13  41 27.0489 15.7176   1
   2   0  42 201.125 38.2330  -3
   2   1  42 201.125 38.2330  -2
   2   0  42 201.125 38.2330   1
   3   0  42 21.6343 31.0343  -3
   3   1  42 21.6343 31.0343  -2
   3   0  42 21.6343 31.0343   1
   6   0  42 723.707 57.7990  -3
   6   1  42 723.707 57.7990  -2
   6   0  42 723.707 57.7990   1
   2   1  42 168.481 37.8197  -3
   2   0  42 168.481 37.8197  -2
   2   1  42 168.481 37.8197   1
   2   1  42 119.410 35.1509  -3
   2   2  42 119.410 35.1509  -2
   2   1  42 119.410 35.1509   1
   3   1  42 40.8186 32.3676  -3
   3   0  42 40.8186 32.3676  -2
   3   1  42 40.8186 32.3676   1
   3   1  42 68.2133 32.4101  -3
   3   2  42 68.2133 32.4101  -2
   3   1  42 68.2133 32.4101   1
   2   2  42 32.4448 34.3343  -3
   2   3  42 32.4448 34.3343  -2
   2   2  42 32.4448 34.3343   1
   2   2  42 8.86832 35.9095  -3
   2   1  42 8.86832 35.9095  -2
   2   2  42 8.86832 35.9095   1
   3   2  42 559.300 49.0913  -3
   3   1  42 559.300 49.0913  -2
   3   2  42 559.300 49.0913   1
   2   3  42 133.083 35.8263  -3
   2   4  42 133.083 35.8263  -2
   2   3  42 133.083 35.8263   1
   2   3  42 147.769 39.3144  -3
   2   2  42 147.769 39.3144  -2
   2   3  42 147.769 39.3144   1
   3   3  42 36.4039 34.4757  -3
   3   2  42 36.4039 34.4757  -2
   3   3  42 36.4039 34.4757   1
   1   5  42 9.63841 13.4162   1
   4   5  42 22.4436 18.4247   1
   1   7  42 4.45505 27.7669  -2
   1   6  42 4.45505 27.7669   1
   2   7  42 228.953 35.6915  -2
   2   6  42 228.953 35.6915   1
   4   6  42 83.7343 41.2781  -3
   4   6  42 83.7343 41.2781   1
   0   7  42 -7.3901 12.8369   1
   1   7  42 50.4935 15.1238   1
   2   7  42 17.2601 15.9022   1
   4   7  42 683.996 53.8685   1
   0   8  42 405.079 34.6955   1
   1   8  42 14.3925 11.0688   1
   2   7  42 206.012 39.5932  -2
   2   8  42 206.012 39.5932   1
   4   8  42 200.453 33.1203   1
   1   9  42 -7.5735 35.3568  -3
   1   9  42 -7.5735 35.3568   1
   2   9  42 217.908 38.3433  -3
   2   9  42 217.908 38.3433   1
   4   9  42 67.6695 22.1136   1
   1  10  42 99.2330 37.6200  -3
   1  10  42 99.2330 37.6200   1
   2  10  42 36.9704 36.9656  -3
   2  10  42 36.9704 36.9656   1
   1  11  42 -39.507 37.2890  -3
   1  11  42 -39.507 37.2890   1
   2   1  43 135.573 36.9917  -3
   2   2  43 135.573 36.9917  -2
   2   1  43 135.573 36.9917   1
   2   1  43 189.186 38.3051  -3
   2   1  43 189.186 38.3051   1
   2   2  43 60.7841 37.1081  -3
   2   1  43 60.7841 37.1081  -2
   2   2  43 60.7841 37.1081   1
   2   2  43 -2.9114 32.7070  -3
   2   3  43 -2.9114 32.7070  -2
   2   2  43 -2.9114 32.7070   1
   2   3  43 17.7000 37.7207  -3
   2   2  43 17.7000 37.7207  -2
   2   3  43 17.7000 37.7207   1
   2   3  43 -4.4976 34.4790  -3
   2   4  43 -4.4976 34.4790  -2
   2   3  43 -4.4976 34.4790   1
   2   4  43 -10.525 35.2842  -3
   2   5  43 -10.525 35.2842  -2
   2   4  43 -10.525 35.2842   1
   4   5  43 82.9643 23.1503   1
   1   6  43 4.29892 13.8935   1
   2   7  43 317.671 38.6859  -2
   2   6  43 317.671 38.6859   1
   1   7  43 321.869 29.4809   1
   2   8  43 -7.9161 29.9321  -2
   2   7  43 -7.9161 29.9321   1
   1   8  43 68.0840 16.0408   1
   2   8  43 13.2029 35.7586  -3
   2   8  43 13.2029 35.7586   1
   1   9  43 -41.606 35.1813  -3
   1   9  43 -41.606 35.1813   1
   2   9  43 46.9068 37.0253  -3
   2   9  43 46.9068 37.0253   1
   2   0  44 -30.988 33.2047  -3
   2   1  44 -30.988 33.2047  -2
   2   0  44 -30.988 33.2047   1
   2   2  44 28.0288 36.0102  -3
   2   2  44 28.0288 36.0102  -2
   2   1  44 28.0288 36.0102   1
   2   1  44 61.4263 35.4796  -3
   2   2  44 61.4263 35.4796  -2
   2   1  44 61.4263 35.4796   1
   2   1  44 12.8446 36.8927  -3
   2   0  44 12.8446 36.8927  -2
   2   1  44 12.8446 36.8927   1
   2   2  44 23.3587 37.7637  -3
   2   1  44 23.3587 37.7637  -2
   2   2  44 23.3587 37.7637   1
   2   3  44 29.4044 38.0333  -3
   2   2  44 29.4044 38.0333  -2
   2   3  44 29.4044 38.0333   1
   1   6  44 37.3612 17.0216   1
   1   7  44 636.406 49.4745   1
   0   0   0    0.00    0.00   0
;
_shelx_hkl_checksum              42281
_olex2_exptl_crystal_mounting_method 'Glass fiber filament with paratone oil'
_olex2_submission_special_instructions 'No special instructions were received'
_publcif_info_exptl_table_max_cols 4
_publcif_info_exptl_table_use_headnotes n
#END Tags that were not found in dictionaries
loop_
_space_group_symop_operation_xyz
'x, y, z'
'-x+1/2, -y, z+1/2'
'-x, y+1/2, -z+1/2'
'x+1/2, -y+1/2, -z'
'-x, -y, -z'
'x-1/2, y, -z-1/2'
'x, -y-1/2, z-1/2'
'-x-1/2, y-1/2, z'
loop_
_atom_site_label
_atom_site_type_symbol
_atom_site_fract_x
_atom_site_fract_y
_atom_site_fract_z
_atom_site_U_iso_or_equiv
_atom_site_adp_type
_atom_site_occupancy
_atom_site_site_symmetry_order
_atom_site_calc_flag
_atom_site_refinement_flags_posn
_atom_site_refinement_flags_occupancy
_atom_site_disorder_assembly
_atom_site_disorder_group
C3 C -0.1620(4) 0.4077(2) 0.13393(13) 0.0155(8) Uani 0.8305(18) 1 d . P A 1
C4 C -0.2428(5) 0.3618(3) 0.15172(16) 0.0161(9) Uani 0.8305(18) 1 d . P A 1
C5 C -0.2180(5) 0.3366(3) 0.19272(16) 0.0165(10) Uani 0.8305(18) 1 d . P A 1
C6 C -0.1080(5) 0.3592(2) 0.21503(14) 0.0162(10) Uani 0.8305(18) 1 d . P A 1
C7 C -0.0276(4) 0.4067(2) 0.19695(13) 0.0127(8) Uani 0.8305(18) 1 d . P A 1
C8 C 0.0969(4) 0.43407(19) 0.21521(11) 0.0128(8) Uani 0.8305(18) 1 d . P A 1
C2 C -0.0523(4) 0.43040(19) 0.15676(12) 0.0123(8) Uani 0.8305(18) 1 d . P A 1
C1 C 0.0477(4) 0.4830(2) 0.14302(12) 0.0139(9) Uani 0.8305(18) 1 d . P A 1
C9 C 0.1411(4) 0.49035(19) 0.18457(11) 0.0105(8) Uani 0.8305(18) 1 d . P A 1
C10 C 0.1339(4) 0.5577(2) 0.20513(15) 0.0108(10) Uani 0.8305(18) 1 d . P A 1
C11 C 0.0431(4) 0.6044(2) 0.19399(12) 0.0120(8) Uani 0.8305(18) 1 d . P A 1
C12 C -0.0421(4) 0.5969(2) 0.15585(16) 0.0117(9) Uani 0.8305(18) 1 d . P A 1
C13 C 0.2653(4) 0.5773(2) 0.21896(11) 0.0131(8) Uani 0.8305(18) 1 d . P A 1
C14 C 0.3618(4) 0.5324(2) 0.20109(12) 0.0118(9) Uani 0.8305(18) 1 d . P A 1
C15 C 0.2913(4) 0.4850(2) 0.17604(13) 0.0126(8) Uani 0.8305(18) 1 d . P A 1
C16 C 0.2996(5) 0.6421(2) 0.22352(12) 0.0134(8) Uani 0.8305(18) 1 d . P A 1
C17 C 0.2029(5) 0.6913(2) 0.21241(14) 0.0140(9) Uani 0.8305(18) 1 d . P A 1
C18 C 0.0779(4) 0.6725(2) 0.19758(13) 0.0124(9) Uani 0.8305(18) 1 d . P A 1
C19 C 0.0158(5) 0.7069(2) 0.16264(16) 0.0148(10) Uani 0.8305(18) 1 d . P A 1
C20 C 0.0820(6) 0.7589(4) 0.14384(18) 0.0165(12) Uani 0.8305(18) 1 d . P A 1
C21 C 0.2132(7) 0.7777(4) 0.15855(18) 0.0175(13) Uani 0.8305(18) 1 d . P A 1
C22 C 0.2724(5) 0.7447(2) 0.19208(16) 0.0165(10) Uani 0.8305(18) 1 d . P A 1
C23 C 0.4304(4) 0.6647(2) 0.20967(12) 0.0167(8) Uani 0.8305(18) 1 d . P A 1
C24 C 0.5225(4) 0.6216(2) 0.19288(14) 0.0157(9) Uani 0.8305(18) 1 d . P A 1
C25 C 0.4123(5) 0.7281(2) 0.19053(14) 0.0161(9) Uani 0.8305(18) 1 d . P A 1
C26 C 0.4887(5) 0.7460(2) 0.15469(17) 0.0150(9) Uani 0.8305(18) 1 d . P A 1
C27 C 0.5857(4) 0.7003(2) 0.13765(17) 0.0151(9) Uani 0.8305(18) 1 d . P A 1
C28 C 0.6025(4) 0.6401(2) 0.15615(14) 0.0176(9) Uani 0.8305(18) 1 d . P A 1
C29 C 0.6166(4) 0.5827(2) 0.12913(14) 0.0161(9) Uani 0.8305(18) 1 d . P A 1
C30 C 0.5458(5) 0.5296(2) 0.14971(13) 0.0142(9) Uani 0.8305(18) 1 d . P A 1
C31 C 0.4742(5) 0.4853(2) 0.12513(15) 0.0151(9) Uani 0.8305(18) 1 d . P A 1
C32 C 0.4721(6) 0.4917(4) 0.0789(2) 0.0165(12) Uani 0.8305(18) 1 d . P A 1
C33 C 0.5401(5) 0.5426(2) 0.05906(16) 0.0164(11) Uani 0.8305(18) 1 d . P A 1
C34 C 0.6139(4) 0.5892(2) 0.08508(14) 0.0174(9) Uani 0.8305(18) 1 d . P A 1
C35 C 0.5974(4) 0.6520(2) 0.06563(17) 0.0169(9) Uani 0.8305(18) 1 d . P A 1
C36 C 0.4791(5) 0.5771(2) 0.02407(14) 0.0162(9) Uani 0.8305(18) 1 d . P A 1
C37 C 0.3403(7) 0.4728(4) 0.06383(18) 0.0161(13) Uani 0.8305(18) 1 d . P A 1
C38 C 0.2602(5) 0.4545(2) 0.10076(16) 0.0132(10) Uani 0.8305(18) 1 d . P A 1
C39 C 0.3457(5) 0.4623(2) 0.13899(13) 0.0139(9) Uani 0.8305(18) 1 d . P A 1
C40 C 0.1258(4) 0.4692(2) 0.10155(13) 0.0128(8) Uani 0.8305(18) 1 d . P A 1
C41 C -0.0271(5) 0.5505(2) 0.08421(16) 0.0141(10) Uani 0.8305(18) 1 d . P A 1
C42 C 0.0676(5) 0.5050(2) 0.06709(15) 0.0132(9) Uani 0.8305(18) 1 d . P A 1
C43 C 0.2820(5) 0.5056(2) 0.02989(15) 0.0157(10) Uani 0.8305(18) 1 d . P A 1
C44 C 0.0105(5) 0.7209(2) 0.07232(14) 0.0176(9) Uani 0.8305(18) 1 d . P A 1
C45 C 0.0792(5) 0.7653(2) 0.09699(14) 0.0166(10) Uani 0.8305(18) 1 d . P A 1
C46 C 0.2102(6) 0.7882(2) 0.08379(14) 0.0165(9) Uani 0.8305(18) 1 d . P A 1
C47 C 0.2924(5) 0.7957(2) 0.12143(17) 0.0151(10) Uani 0.8305(18) 1 d . P A 1
C48 C 0.4271(4) 0.7801(2) 0.11990(16) 0.0171(9) Uani 0.8305(18) 1 d . P A 1
C49 C 0.4863(4) 0.7558(2) 0.08028(18) 0.0150(10) Uani 0.8305(18) 1 d . P A 1
C50 C 0.4060(5) 0.7487(2) 0.04454(14) 0.0163(8) Uani 0.8305(18) 1 d . P A 1
C51 C 0.4214(5) 0.6918(2) 0.01759(14) 0.0157(10) Uani 0.8305(18) 1 d . P A 1
C52 C 0.4877(4) 0.5539(2) 0.18825(12) 0.0142(8) Uani 0.8305(18) 1 d . P A 1
C53 C -0.0569(4) 0.6603(2) 0.13685(13) 0.0146(9) Uani 0.8305(18) 1 d . P A 1
C54 C -0.0601(4) 0.6678(2) 0.09268(14) 0.0161(9) Uani 0.8305(18) 1 d . P A 1
C55 C -0.0457(4) 0.6112(2) 0.06575(13) 0.0162(9) Uani 0.8305(18) 1 d . P A 1
C56 C 0.0342(5) 0.6292(2) 0.02867(15) 0.0174(10) Uani 0.8305(18) 1 d . P A 1
C57 C 0.1255(4) 0.5857(2) 0.01195(12) 0.0159(8) Uani 0.8305(18) 1 d . P A 1
C58 C 0.0688(4) 0.6968(2) 0.03300(13) 0.0181(9) Uani 0.8305(18) 1 d . P A 1
C59 C 0.1940(5) 0.7189(2) 0.01994(14) 0.0155(10) Uani 0.8305(18) 1 d . P A 1
C60 C 0.2574(5) 0.6081(2) -0.00146(11) 0.0148(9) Uani 0.8305(18) 1 d . P A 1
C61 C 0.2896(4) 0.6734(2) 0.00234(12) 0.0171(9) Uani 0.8305(18) 1 d . P A 1
C62 C 0.3533(5) 0.5589(2) 0.00952(13) 0.0148(9) Uani 0.8305(18) 1 d . P A 1
C63 C 0.1437(5) 0.5224(2) 0.03101(14) 0.0159(9) Uani 0.8305(18) 1 d . P A 1
C64 C 0.5838(4) 0.7068(2) 0.09115(14) 0.0174(9) Uani 0.8305(18) 1 d . P A 1
C65 C 0.2660(5) 0.7654(2) 0.04594(14) 0.0173(9) Uani 0.8305(18) 1 d . P A 1
C66 C 0.5146(4) 0.6445(2) 0.02802(13) 0.0166(9) Uani 0.8305(18) 1 d . P A 1
C67 C -0.0280(4) 0.5440(2) 0.13031(12) 0.0126(8) Uani 0.8305(18) 1 d . P A 1
F3 F -0.1888(2) 0.42937(13) 0.09460(7) 0.0191(6) Uani 0.8305(18) 1 d . P A 1
F4 F -0.3477(3) 0.33950(15) 0.13010(9) 0.0220(7) Uani 0.8305(18) 1 d . P A 1
F5 F -0.2976(4) 0.2916(2) 0.20893(15) 0.0220(8) Uani 0.8305(18) 1 d . P A 1
F6 F -0.0783(3) 0.33324(14) 0.25305(8) 0.0212(6) Uani 0.8305(18) 1 d . P A 1
F2 F 0.1938(2) 0.38715(11) 0.21692(7) 0.0152(5) Uani 0.8305(18) 1 d . P A 1
F1 F 0.0844(3) 0.45501(13) 0.25616(7) 0.0174(6) Uani 0.8305(18) 1 d . P A 1
C33A C 0.275(2) 0.5134(11) 0.1946(7) 0.015(3) Uani 0.1695(18) 1 d . P A 2
C13A C 0.056(2) 0.5528(10) 0.1841(6) 0.013(3) Uani 0.1695(18) 1 d . P A 2
C10A C -0.047(2) 0.5585(13) 0.0999(8) 0.011(4) Uani 0.1695(18) 1 d . P A 2
C19A C -0.014(2) 0.5742(11) 0.0555(6) 0.014(3) Uani 0.1695(18) 1 d . P A 2
C53A C 0.346(3) 0.7722(12) 0.0560(7) 0.024(4) Uani 0.1695(18) 1 d . P A 2
C54A C 0.280(3) 0.7336(12) 0.0227(7) 0.022(3) Uani 0.1695(18) 1 d . P A 2
C55A C 0.471(3) 0.7471(14) 0.0633(10) 0.023(4) Uani 0.1695(18) 1 d . P A 2
C64A C 0.526(2) 0.7441(12) 0.1050(8) 0.023(4) Uani 0.1695(18) 1 d . P A 2
C42A C 0.450(3) 0.7656(14) 0.1399(9) 0.017(4) Uani 0.1695(18) 1 d . P A 2
C41A C 0.476(3) 0.7251(13) 0.1760(9) 0.020(4) Uani 0.1695(18) 1 d . P A 2
C65A C 0.574(2) 0.6749(14) 0.1622(8) 0.021(4) Uani 0.1695(18) 1 d . P A 2
C63A C 0.604(2) 0.6886(13) 0.1175(9) 0.022(4) Uani 0.1695(18) 1 d . P A 2
C17A C 0.099(2) 0.4835(12) 0.0774(9) 0.013(4) Uani 0.1695(18) 1 d . P A 2
C18A C 0.088(3) 0.5250(12) 0.0428(9) 0.016(4) Uani 0.1695(18) 1 d . P A 2
C14A C 0.212(2) 0.4749(10) 0.1621(6) 0.015(3) Uani 0.1695(18) 1 d . P A 2
C34A C 0.178(3) 0.5633(15) 0.2093(9) 0.0108(10) Uani 0.1695(18) 1 d . P A 2
C56A C 0.499(3) 0.6924(13) 0.0353(7) 0.028(4) Uani 0.1695(18) 1 d . P A 2
C57A C 0.374(3) 0.6849(13) 0.0099(8) 0.0159(8) Uani 0.1695(18) 1 d . P A 2
C6A C -0.216(3) 0.3638(15) 0.1659(9) 0.0161(9) Uani 0.1695(18) 1 d . P A 2
C5A C -0.192(3) 0.3423(16) 0.2052(9) 0.0165(10) Uani 0.1695(18) 1 d . P A 2
C4A C -0.097(3) 0.3635(15) 0.2319(9) 0.0162(10) Uani 0.1695(18) 1 d . P A 2
C3A C -0.011(2) 0.4103(10) 0.2192(7) 0.0127(8) Uani 0.1695(18) 1 d . P A 2
F1A F -0.0768(11) 0.3936(5) 0.0812(3) 0.0152(5) Uani 0.1695(18) 1 d . P A 2
F2A F -0.2284(12) 0.4667(6) 0.0955(3) 0.0174(6) Uani 0.1695(18) 1 d . P A 2
F6A F -0.2987(18) 0.3427(10) 0.1386(6) 0.0220(7) Uani 0.1695(18) 1 d . P A 2
F5A F -0.267(3) 0.2857(15) 0.2162(9) 0.0220(8) Uani 0.1695(18) 1 d . P A 2
F4A F -0.0812(16) 0.3362(8) 0.2716(4) 0.0212(6) Uani 0.1695(18) 1 d . P A 2
F3A F 0.0847(14) 0.4275(7) 0.2479(5) 0.0191(6) Uani 0.1695(18) 1 d . P A 2
C9A C 0.0014(15) 0.4914(7) 0.1138(4) 0.015(3) Uani 0.1695(18) 1 d . P A 2
C8A C -0.1061(15) 0.4469(8) 0.1093(4) 0.018(3) Uani 0.1695(18) 1 d G P A 2
C7A C -0.1225(16) 0.4141(7) 0.1487(5) 0.0155(8) Uani 0.1695(18) 1 d G P A 2
C2A C -0.0251(17) 0.4383(9) 0.1776(4) 0.0123(8) Uani 0.1695(18) 1 d G P A 2
C1A C 0.0514(16) 0.4860(9) 0.1560(5) 0.0139(9) Uani 0.1695(18) 1 d G P A 2
C37A C 0.4584(17) 0.5928(8) 0.2050(5) 0.021(3) Uani 0.1695(18) 1 d . P A 2
C32A C 0.4122(17) 0.5299(8) 0.1940(5) 0.020(4) Uani 0.1695(18) 1 d G P A 2
C31A C 0.4879(17) 0.5079(7) 0.1586(5) 0.017(4) Uani 0.1695(18) 1 d G P A 2
C30A C 0.5809(15) 0.5571(10) 0.1476(5) 0.017(4) Uani 0.1695(18) 1 d G P A 2
C66A C 0.5626(17) 0.6096(8) 0.1763(6) 0.022(4) Uani 0.1695(18) 1 d G P A 2
C40A C 0.1504(13) 0.6798(9) 0.2077(6) 0.012(4) Uani 0.1695(18) 1 d . P A 2
C35A C 0.2239(18) 0.6244(7) 0.2207(5) 0.014(3) Uani 0.1695(18) 1 d G P A 2
C36A C 0.3621(16) 0.6397(8) 0.2182(5) 0.0162(9) Uani 0.1695(18) 1 d G P A 2
C38A C 0.3740(15) 0.7046(9) 0.2037(6) 0.019(4) Uani 0.1695(18) 1 d G P A 2
C39A C 0.2432(18) 0.7294(7) 0.1972(7) 0.015(4) Uani 0.1695(18) 1 d G P A 2
C20A C -0.0026(17) 0.6382(7) 0.0418(6) 0.017(4) Uani 0.1695(18) 1 d . P A 2
C21A C 0.1038(18) 0.6557(8) 0.0141(5) 0.020(3) Uani 0.1695(18) 1 d G P A 2
C51A C 0.1489(19) 0.7184(9) 0.0260(6) 0.021(5) Uani 0.1695(18) 1 d G P A 2
C50A C 0.070(2) 0.7396(7) 0.0611(5) 0.024(4) Uani 0.1695(18) 1 d G P A 2
C49A C -0.0233(16) 0.6900(9) 0.0708(5) 0.020(4) Uani 0.1695(18) 1 d G P A 2
C28A C 0.549(2) 0.5341(7) 0.0714(7) 0.020(5) Uani 0.1695(18) 1 d . P A 2
C60A C 0.522(2) 0.5759(10) 0.0365(5) 0.020(4) Uani 0.1695(18) 1 d G P A 2
C61A C 0.5682(19) 0.6387(8) 0.0474(6) 0.018(4) Uani 0.1695(18) 1 d G P A 2
C62A C 0.6242(17) 0.6357(8) 0.0889(6) 0.022(4) Uani 0.1695(18) 1 d G P A 2
C29A C 0.6121(18) 0.5711(10) 0.1038(5) 0.018(4) Uani 0.1695(18) 1 d G P A 2
C52A C 0.133(2) 0.7765(12) 0.0933(7) 0.021(4) Uani 0.1695(18) 1 d . P A 2
C45A C 0.098(2) 0.7606(18) 0.1359(9) 0.021(6) Uani 0.1695(18) 1 d G P A 2
C44A C 0.214(3) 0.7673(19) 0.1615(6) 0.018(6) Uani 0.1695(18) 1 d G P A 2
C43A C 0.321(2) 0.7873(13) 0.1347(8) 0.022(5) Uani 0.1695(18) 1 d G P A 2
C67A C 0.270(2) 0.7930(11) 0.0925(6) 0.021(4) Uani 0.1695(18) 1 d G P A 2
C58A C 0.4079(13) 0.5697(9) 0.0118(6) 0.015(4) Uani 0.1695(18) 1 d . P A 2
C59A C 0.3334(19) 0.6249(7) -0.0010(5) 0.021(3) Uani 0.1695(18) 1 d G P A 2
C22A C 0.1955(16) 0.6084(8) 0.0004(5) 0.0148(9) Uani 0.1695(18) 1 d G P A 2
C23A C 0.1849(14) 0.5431(8) 0.0140(6) 0.019(3) Uani 0.1695(18) 1 d G P A 2
C24A C 0.3162(17) 0.5191(7) 0.0211(6) 0.013(4) Uani 0.1695(18) 1 d G P A 2
C26A C 0.459(2) 0.486(2) 0.0822(9) 0.020(6) Uani 0.1695(18) 1 d . P A 2
C27A C 0.4279(19) 0.4705(13) 0.1252(7) 0.019(4) Uani 0.1695(18) 1 d G P A 2
C15A C 0.2898(19) 0.4547(9) 0.1273(6) 0.009(3) Uani 0.1695(18) 1 d G P A 2
C16A C 0.2359(18) 0.4603(12) 0.0855(7) 0.015(4) Uani 0.1695(18) 1 d G P A 2
C25A C 0.341(3) 0.480(2) 0.0577(6) 0.018(6) Uani 0.1695(18) 1 d G P A 2
C48A C -0.0551(18) 0.6742(8) 0.1156(5) 0.019(4) Uani 0.1695(18) 1 d . P A 2
C11A C -0.0663(16) 0.6093(7) 0.1302(6) 0.018(4) Uani 0.1695(18) 1 d G P A 2
C12A C -0.0139(18) 0.6064(7) 0.1722(5) 0.011(4) Uani 0.1695(18) 1 d G P A 2
C46A C 0.0298(18) 0.6695(8) 0.1837(5) 0.012(4) Uani 0.1695(18) 1 d G P A 2
C47A C 0.004(2) 0.7114(6) 0.1487(6) 0.021(5) Uani 0.1695(18) 1 d G P A 2
loop_
_atom_site_aniso_label
_atom_site_aniso_U_11
_atom_site_aniso_U_22
_atom_site_aniso_U_33
_atom_site_aniso_U_23
_atom_site_aniso_U_13
_atom_site_aniso_U_12
C3 0.015(2) 0.0163(19) 0.0152(19) 0.0000(16) -0.0017(14) -0.0034(16)
C4 0.014(2) 0.0173(19) 0.017(2) -0.002(2) 0.0010(16) -0.0014(17)
C5 0.016(2) 0.014(2) 0.020(3) 0.001(2) 0.0053(16) -0.0038(16)
C6 0.019(2) 0.0168(19) 0.013(2) 0.000(2) 0.0036(18) -0.0005(15)
C7 0.0143(18) 0.0143(18) 0.0096(19) -0.0025(16) 0.0031(14) 0.0015(14)
C8 0.016(2) 0.0121(19) 0.0101(19) -0.0014(15) 0.0008(13) 0.0024(15)
C2 0.0146(19) 0.0128(18) 0.0095(19) -0.0035(15) 0.0008(14) 0.0006(15)
C1 0.0145(17) 0.0164(17) 0.011(2) 0.0012(16) 0.0044(14) -0.0004(13)
C9 0.0130(19) 0.0099(18) 0.0084(17) -0.0002(14) -0.0002(13) 0.0006(14)
C10 0.015(3) 0.0119(18) 0.0060(18) 0.0012(14) 0.0021(18) -0.0002(18)
C11 0.013(2) 0.015(2) 0.0081(18) 0.0014(15) 0.0051(14) 0.0001(15)
C12 0.007(2) 0.017(2) 0.011(2) 0.0033(17) -0.0005(15) 0.0015(15)
C13 0.016(2) 0.019(2) 0.0047(17) 0.0010(15) -0.0009(13) 0.0011(16)
C14 0.010(2) 0.016(2) 0.0091(19) 0.0028(15) -0.0025(15) 0.0009(16)
C15 0.011(2) 0.013(2) 0.0142(19) 0.0040(16) -0.0003(14) 0.0024(15)
C16 0.016(2) 0.017(2) 0.0069(18) -0.0031(15) -0.0015(14) -0.0007(18)
C17 0.016(2) 0.015(2) 0.012(2) -0.0060(17) 0.0023(16) 0.0006(17)
C18 0.013(2) 0.013(2) 0.011(2) -0.0018(16) 0.0048(16) 0.0037(17)
C19 0.011(2) 0.018(2) 0.016(2) -0.0020(17) 0.0021(16) 0.0050(16)
C20 0.019(2) 0.012(3) 0.018(3) 0.001(2) 0.0036(16) 0.0064(19)
C21 0.020(2) 0.007(3) 0.026(3) -0.003(2) 0.0046(18) 0.0009(19)
C22 0.022(2) 0.011(2) 0.016(2) -0.0068(18) 0.0035(17) -0.0043(18)
C23 0.017(2) 0.022(2) 0.0112(18) -0.0042(16) -0.0061(14) -0.0028(18)
C24 0.012(2) 0.022(2) 0.013(2) 0.0015(17) -0.0069(15) -0.0049(17)
C25 0.021(2) 0.016(2) 0.012(2) -0.0074(17) -0.0001(17) -0.0069(18)
C26 0.018(2) 0.015(2) 0.012(2) -0.0032(18) 0.0000(17) -0.0078(18)
C27 0.012(2) 0.019(2) 0.014(2) -0.0018(18) -0.0013(16) -0.0067(16)
C28 0.011(2) 0.022(2) 0.020(2) -0.0016(18) -0.0057(15) -0.0038(18)
C29 0.008(2) 0.020(2) 0.021(2) 0.0009(17) -0.0016(15) 0.0003(16)
C30 0.007(2) 0.016(2) 0.019(2) 0.0025(17) -0.0008(15) 0.0055(17)
C31 0.011(2) 0.012(2) 0.023(2) 0.0001(17) 0.0003(17) 0.0048(17)
C32 0.014(2) 0.016(3) 0.019(2) -0.0048(19) 0.0062(17) 0.005(2)
C33 0.013(2) 0.021(2) 0.016(3) -0.0069(18) 0.0057(17) 0.0000(17)
C34 0.010(2) 0.021(2) 0.021(2) -0.0007(18) 0.0054(16) -0.0003(17)
C35 0.010(2) 0.022(2) 0.019(2) -0.0004(19) 0.0035(16) -0.0032(16)
C36 0.016(2) 0.025(2) 0.008(2) -0.0024(16) 0.0049(16) -0.0039(17)
C37 0.019(2) 0.011(3) 0.018(2) -0.007(2) 0.0036(18) -0.0013(19)
C38 0.016(2) 0.009(2) 0.015(3) 0.0010(19) 0.0023(16) 0.0000(17)
C39 0.015(2) 0.010(2) 0.017(2) -0.0005(16) -0.0013(17) 0.0037(17)
C40 0.016(2) 0.0111(19) 0.012(2) -0.0042(16) 0.0007(14) -0.0059(15)
C41 0.011(2) 0.021(2) 0.011(2) 0.0004(19) -0.0027(17) -0.0062(17)
C42 0.016(2) 0.015(2) 0.009(2) 0.0015(17) -0.0036(16) -0.0073(17)
C43 0.022(2) 0.016(2) 0.010(2) -0.0041(17) 0.0072(16) -0.0060(18)
C44 0.013(2) 0.022(2) 0.018(2) 0.0102(18) -0.0032(15) 0.0049(18)
C45 0.014(2) 0.012(2) 0.024(2) 0.0069(17) 0.0007(16) 0.0060(18)
C46 0.018(3) 0.011(2) 0.020(2) 0.0060(17) 0.0013(17) 0.0010(19)
C47 0.018(2) 0.007(2) 0.020(3) 0.0005(19) 0.0019(16) 0.0002(17)
C48 0.020(2) 0.012(2) 0.019(2) -0.0005(18) -0.0005(16) -0.0054(17)
C49 0.015(2) 0.017(2) 0.014(2) 0.0014(19) 0.0003(17) -0.0084(17)
C50 0.018(2) 0.016(2) 0.015(2) 0.0060(17) 0.0032(18) -0.0056(17)
C51 0.014(2) 0.022(2) 0.011(2) 0.0058(17) 0.0042(15) -0.0083(18)
C52 0.010(2) 0.019(2) 0.0139(19) 0.0022(16) -0.0029(13) 0.0034(16)
C53 0.0086(19) 0.017(2) 0.018(2) 0.0061(17) 0.0037(15) 0.0039(16)
C54 0.010(2) 0.020(2) 0.018(2) 0.0084(17) -0.0034(15) 0.0030(16)
C55 0.008(2) 0.024(2) 0.017(2) 0.0042(18) -0.0054(14) -0.0005(17)
C56 0.016(2) 0.025(2) 0.012(2) 0.0034(18) -0.0054(16) -0.0036(18)
C57 0.017(2) 0.023(2) 0.0072(17) 0.0015(15) -0.0044(13) -0.0072(16)
C58 0.016(2) 0.024(2) 0.015(2) 0.0080(17) -0.0065(14) 0.0017(17)
C59 0.014(2) 0.019(2) 0.013(2) 0.0090(17) -0.0022(16) -0.0018(17)
C60 0.016(2) 0.024(2) 0.0036(16) -0.0003(14) 0.0015(16) -0.0066(18)
C61 0.016(2) 0.024(2) 0.0107(19) 0.0049(16) -0.0017(14) -0.0043(17)
C62 0.018(2) 0.019(2) 0.0076(19) -0.0064(17) 0.0032(16) -0.0062(18)
C63 0.020(2) 0.020(2) 0.008(2) -0.0048(17) 0.0008(16) -0.0076(19)
C64 0.010(2) 0.023(2) 0.019(2) 0.0006(18) 0.0021(15) -0.0075(16)
C65 0.019(2) 0.015(2) 0.018(2) 0.0091(17) -0.0006(16) -0.0023(17)
C66 0.012(2) 0.024(2) 0.014(2) 0.0005(17) 0.0081(15) -0.0046(17)
C67 0.0078(19) 0.017(2) 0.014(2) 0.0030(15) -0.0014(13) -0.0030(15)
F3 0.0209(14) 0.0221(14) 0.0142(12) 0.0017(10) -0.0010(9) -0.0070(11)
F4 0.0152(17) 0.0242(14) 0.0267(15) -0.0017(11) 0.0000(11) -0.0110(14)
F5 0.016(2) 0.0194(16) 0.031(2) 0.0073(14) 0.0052(13) -0.0032(16)
F6 0.0276(14) 0.0220(12) 0.0141(14) 0.0052(16) 0.0045(13) -0.0038(10)
F2 0.0167(12) 0.0143(12) 0.0147(11) 0.0021(9) 0.0010(8) 0.0047(9)
F1 0.0265(13) 0.0163(13) 0.0094(12) 0.0003(10) 0.0026(9) 0.0005(12)
C33A 0.018(6) 0.014(6) 0.014(7) 0.004(5) 0.003(4) 0.002(4)
C13A 0.015(6) 0.012(5) 0.013(6) 0.001(4) 0.003(4) 0.000(4)
C10A 0.007(8) 0.017(6) 0.010(7) 0.004(4) -0.004(5) -0.002(5)
C19A 0.012(7) 0.021(6) 0.009(6) 0.003(5) -0.007(5) -0.005(5)
C53A 0.028(7) 0.025(8) 0.019(7) 0.005(6) -0.001(5) -0.006(6)
C54A 0.029(6) 0.023(7) 0.015(7) 0.004(6) 0.003(5) -0.009(5)
C55A 0.027(7) 0.028(8) 0.012(7) -0.002(6) -0.004(5) -0.006(6)
C64A 0.023(8) 0.028(8) 0.017(6) -0.002(5) 0.002(5) -0.007(6)
C42A 0.023(7) 0.021(8) 0.008(7) -0.005(6) -0.003(5) -0.007(6)
C41A 0.017(7) 0.029(8) 0.014(7) -0.003(5) 0.001(5) -0.011(5)
C65A 0.015(8) 0.031(7) 0.016(7) -0.005(5) -0.004(5) -0.009(5)
C63A 0.020(9) 0.032(7) 0.014(7) -0.003(5) 0.002(5) -0.007(6)
C17A 0.012(6) 0.018(8) 0.007(6) 0.003(5) -0.002(4) -0.001(5)
C18A 0.019(7) 0.020(7) 0.010(7) 0.003(5) 0.000(5) -0.006(5)
C14A 0.014(5) 0.011(7) 0.019(6) 0.001(5) 0.003(4) 0.001(4)
C34A 0.015(3) 0.0119(18) 0.0060(18) 0.0012(14) 0.0021(18) -0.0002(18)
C56A 0.028(7) 0.035(7) 0.021(7) -0.004(5) 0.000(5) -0.008(5)
C57A 0.017(2) 0.023(2) 0.0072(17) 0.0015(15) -0.0044(13) -0.0072(16)
C6A 0.014(2) 0.0173(19) 0.017(2) -0.002(2) 0.0010(16) -0.0014(17)
C5A 0.016(2) 0.014(2) 0.020(3) 0.001(2) 0.0053(16) -0.0038(16)
C4A 0.019(2) 0.0168(19) 0.013(2) 0.000(2) 0.0036(18) -0.0005(15)
C3A 0.0143(18) 0.0143(18) 0.0096(19) -0.0025(16) 0.0031(14) 0.0015(14)
F1A 0.0167(12) 0.0143(12) 0.0147(11) 0.0021(9) 0.0010(8) 0.0047(9)
F2A 0.0265(13) 0.0163(13) 0.0094(12) 0.0003(10) 0.0026(9) 0.0005(12)
F6A 0.0152(17) 0.0242(14) 0.0267(15) -0.0017(11) 0.0000(11) -0.0110(14)
F5A 0.016(2) 0.0194(16) 0.031(2) 0.0073(14) 0.0052(13) -0.0032(16)
F4A 0.0276(14) 0.0220(12) 0.0141(14) 0.0052(16) 0.0045(13) -0.0038(10)
F3A 0.0209(14) 0.0221(14) 0.0142(12) 0.0017(10) -0.0010(9) -0.0070(11)
C9A 0.017(5) 0.018(6) 0.009(5) 0.003(4) 0.001(4) 0.000(4)
C8A 0.017(5) 0.020(6) 0.017(5) 0.001(4) -0.004(4) -0.002(4)
C7A 0.015(2) 0.0163(19) 0.0152(19) 0.0000(16) -0.0017(14) -0.0034(16)
C2A 0.0146(19) 0.0128(18) 0.0095(19) -0.0035(15) 0.0008(14) 0.0006(15)
C1A 0.0145(17) 0.0164(17) 0.011(2) 0.0012(16) 0.0044(14) -0.0004(13)
C37A 0.018(6) 0.027(6) 0.018(7) -0.001(5) -0.001(5) -0.002(5)
C32A 0.014(7) 0.025(7) 0.021(8) 0.000(6) 0.007(5) -0.002(5)
C31A 0.003(7) 0.030(8) 0.018(7) 0.001(5) 0.002(5) 0.000(6)
C30A 0.006(8) 0.033(8) 0.011(6) -0.002(5) 0.002(5) -0.006(6)
C66A 0.020(8) 0.035(7) 0.011(7) -0.002(5) 0.002(6) -0.006(5)
C40A 0.014(7) 0.014(6) 0.007(8) -0.003(5) 0.004(5) -0.003(5)
C35A 0.018(6) 0.017(5) 0.008(7) -0.001(4) 0.003(5) -0.001(4)
C36A 0.016(2) 0.025(2) 0.008(2) -0.0024(16) 0.0049(16) -0.0039(17)
C38A 0.021(6) 0.023(6) 0.014(8) -0.002(5) 0.004(5) -0.006(5)
C39A 0.016(7) 0.016(7) 0.012(8) -0.003(6) 0.002(5) -0.005(5)
C20A 0.018(8) 0.024(6) 0.009(7) 0.007(5) -0.007(5) -0.004(5)
C21A 0.025(6) 0.024(6) 0.010(7) 0.004(5) -0.005(5) -0.005(5)
C51A 0.026(7) 0.022(7) 0.017(8) 0.003(6) 0.002(5) -0.008(5)
C50A 0.028(8) 0.026(7) 0.017(7) 0.003(5) 0.001(5) -0.007(6)
C49A 0.021(8) 0.022(7) 0.016(6) 0.009(5) -0.007(5) -0.002(6)
C28A 0.017(9) 0.032(8) 0.011(7) -0.006(5) 0.006(6) -0.003(6)
C60A 0.019(8) 0.034(7) 0.006(7) -0.008(5) 0.005(5) -0.008(5)
C61A 0.015(8) 0.031(7) 0.007(7) -0.005(5) 0.002(6) -0.010(5)
C62A 0.021(9) 0.031(7) 0.013(6) -0.005(5) 0.004(5) -0.007(5)
C29A 0.011(8) 0.031(7) 0.011(6) -0.004(5) 0.008(5) -0.005(6)
C52A 0.027(8) 0.019(9) 0.019(7) 0.003(5) -0.004(5) -0.003(6)
C45A 0.031(8) 0.013(10) 0.019(7) -0.001(6) 0.002(5) -0.001(7)
C44A 0.027(8) 0.011(11) 0.016(7) -0.005(6) 0.003(5) 0.000(6)
C43A 0.028(7) 0.022(11) 0.016(7) 0.001(6) -0.003(5) -0.004(6)
C67A 0.022(7) 0.024(10) 0.017(7) 0.003(6) -0.005(5) -0.006(6)
C58A 0.019(7) 0.021(7) 0.007(8) -0.007(5) 0.002(6) -0.009(5)
C59A 0.022(6) 0.026(5) 0.016(8) -0.002(5) 0.003(5) -0.009(4)
C22A 0.016(2) 0.024(2) 0.0036(16) -0.0003(14) 0.0015(16) -0.0066(18)
C23A 0.024(6) 0.022(6) 0.011(7) 0.000(5) 0.002(5) -0.008(5)
C24A 0.016(7) 0.014(7) 0.011(8) -0.008(5) 0.001(5) -0.008(5)
C26A 0.012(8) 0.029(11) 0.020(7) -0.002(6) 0.006(5) 0.001(7)
C27A 0.006(7) 0.031(10) 0.021(7) -0.002(5) 0.000(5) -0.002(6)
C15A 0.006(6) 0.009(8) 0.012(6) 0.002(5) -0.001(4) 0.005(5)
C16A 0.013(6) 0.018(10) 0.014(7) 0.002(6) 0.000(5) 0.000(5)
C25A 0.015(7) 0.020(12) 0.019(7) -0.002(7) 0.004(5) -0.001(6)
C48A 0.024(9) 0.017(7) 0.015(7) 0.003(5) 0.000(6) 0.004(5)
C11A 0.020(9) 0.019(6) 0.016(6) 0.003(5) 0.001(5) 0.000(5)
C12A 0.013(8) 0.012(6) 0.007(7) 0.000(4) 0.001(5) 0.002(5)
C46A 0.014(7) 0.016(6) 0.007(7) 0.000(5) 0.004(5) 0.000(5)
C47A 0.028(9) 0.018(7) 0.017(8) 0.003(5) 0.000(6) 0.004(6)
loop_
_atom_type_symbol
_atom_type_description
_atom_type_scat_dispersion_real
_atom_type_scat_dispersion_imag
_atom_type_scat_source
C C -0.0020 0.0000 'International Tables Vol C Tables 4.2.6.8 and 6.1.1.4'
F F -0.0050 0.0030 'International Tables Vol C Tables 4.2.6.8 and 6.1.1.4'
loop_
_geom_angle_atom_site_label_1
_geom_angle_atom_site_label_2
_geom_angle_atom_site_label_3
_geom_angle
C4 C3 C2 119.4(4)
F3 C3 C4 119.4(4)
F3 C3 C2 121.2(4)
C3 C4 C5 121.6(5)
F4 C4 C3 119.9(4)
F4 C4 C5 118.5(4)
C6 C5 C4 118.5(5)
F5 C5 C4 120.2(4)
F5 C5 C6 121.3(4)
C5 C6 C7 119.4(4)
F6 C6 C5 119.4(4)
F6 C6 C7 121.1(4)
C6 C7 C8 126.7(4)
C2 C7 C6 121.4(4)
C2 C7 C8 111.7(4)
C7 C8 C9 106.4(3)
F2 C8 C7 109.8(3)
F2 C8 C9 110.3(3)
F1 C8 C7 114.1(3)
F1 C8 C9 111.6(3)
F1 C8 F2 104.7(3)
C3 C2 C1 127.4(4)
C7 C2 C3 119.6(4)
C7 C2 C1 113.0(4)
C2 C1 C9 102.6(3)
C2 C1 C40 115.8(3)
C40 C1 C9 113.9(3)
C67 C1 C2 109.5(3)
C67 C1 C9 115.0(3)
C67 C1 C40 100.6(3)
C8 C9 C1 105.2(3)
C10 C9 C8 113.6(3)
C10 C9 C1 113.4(3)
C15 C9 C8 109.2(3)
C15 C9 C1 114.9(3)
C15 C9 C10 100.7(3)
C11 C10 C9 124.2(4)
C11 C10 C13 118.8(4)
C13 C10 C9 109.8(4)
C10 C11 C12 121.0(4)
C10 C11 C18 120.2(4)
C18 C11 C12 107.6(3)
C53 C12 C11 107.3(4)
C67 C12 C11 120.1(4)
C67 C12 C53 119.7(4)
C10 C13 C14 108.1(4)
C16 C13 C10 121.8(4)
C16 C13 C14 119.5(4)
C15 C14 C13 108.7(4)
C52 C14 C13 120.6(4)
C52 C14 C15 120.1(4)
C14 C15 C9 109.6(4)
C39 C15 C9 124.4(4)
C39 C15 C14 120.2(4)
C13 C16 C17 119.2(4)
C13 C16 C23 120.0(4)
C17 C16 C23 107.7(4)
C16 C17 C22 108.7(4)
C18 C17 C16 119.1(4)
C18 C17 C22 119.8(4)
C17 C18 C11 120.8(4)
C17 C18 C19 120.2(4)
C19 C18 C11 108.3(4)
C18 C19 C53 108.2(4)
C20 C19 C18 119.7(4)
C20 C19 C53 120.9(5)
C19 C20 C21 120.3(5)
C19 C20 C45 118.8(5)
C21 C20 C45 108.1(4)
C20 C21 C47 107.9(5)
C22 C21 C20 119.9(5)
C22 C21 C47 120.0(5)
C21 C22 C17 120.2(5)
C21 C22 C25 120.4(5)
C25 C22 C17 107.3(4)
C24 C23 C16 120.4(4)
C24 C23 C25 120.3(4)
C25 C23 C16 107.5(4)
C23 C24 C28 119.9(4)
C23 C24 C52 119.9(4)
C52 C24 C28 107.9(4)
C22 C25 C23 108.8(4)
C26 C25 C22 119.4(4)
C26 C25 C23 120.0(5)
C25 C26 C27 118.9(5)
C25 C26 C48 120.1(4)
C48 C26 C27 109.0(4)
C26 C27 C64 107.3(4)
C28 C27 C26 120.7(5)
C28 C27 C64 120.1(5)
C24 C28 C29 107.4(4)
C27 C28 C24 120.1(5)
C27 C28 C29 119.8(4)
C30 C29 C28 107.9(4)
C34 C29 C28 119.7(4)
C34 C29 C30 120.4(4)
C31 C30 C29 119.9(4)
C31 C30 C52 119.3(4)
C52 C30 C29 107.9(4)
C30 C31 C32 119.9(5)
C30 C31 C39 120.6(4)
C39 C31 C32 108.5(4)
C33 C32 C31 120.3(6)
C33 C32 C37 119.9(5)
C37 C32 C31 108.2(4)
C32 C33 C34 119.5(5)
C32 C33 C36 120.2(5)
C36 C33 C34 108.2(4)
C29 C34 C33 120.0(4)
C29 C34 C35 120.7(4)
C35 C34 C33 107.4(4)
C34 C35 C66 108.2(4)
C64 C35 C34 119.9(4)
C64 C35 C66 119.9(4)
C62 C36 C33 119.9(4)
C62 C36 C66 120.8(4)
C66 C36 C33 107.9(4)
C32 C37 C38 108.0(4)
C43 C37 C32 119.8(5)
C43 C37 C38 120.3(5)
C37 C38 C39 107.3(4)
C40 C38 C37 119.6(5)
C40 C38 C39 121.7(4)
C15 C39 C31 119.9(4)
C15 C39 C38 119.7(4)
C31 C39 C38 107.9(3)
C38 C40 C1 123.3(4)
C38 C40 C42 119.8(4)
C42 C40 C1 109.6(4)
C42 C41 C67 108.3(4)
C55 C41 C42 121.4(4)
C55 C41 C67 119.8(4)
C40 C42 C41 108.9(4)
C63 C42 C40 121.2(4)
C63 C42 C41 119.2(5)
C37 C43 C62 119.9(5)
C37 C43 C63 120.4(4)
C63 C43 C62 107.5(4)
C45 C44 C54 119.8(4)
C45 C44 C58 120.2(4)
C58 C44 C54 108.1(4)
C44 C45 C20 120.5(5)
C44 C45 C46 120.3(4)
C46 C45 C20 107.2(4)
C47 C46 C45 108.4(4)
C65 C46 C45 119.6(4)
C65 C46 C47 120.2(5)
C46 C47 C21 108.4(4)
C48 C47 C21 119.8(5)
C48 C47 C46 119.9(4)
C26 C48 C49 107.6(4)
C47 C48 C26 120.3(4)
C47 C48 C49 120.1(4)
C50 C49 C48 119.2(4)
C50 C49 C64 120.5(5)
C64 C49 C48 108.2(4)
C49 C50 C51 119.5(5)
C49 C50 C65 120.8(4)
C65 C50 C51 108.2(4)
C61 C51 C50 107.8(4)
C66 C51 C50 120.1(4)
C66 C51 C61 120.2(4)
C14 C52 C24 119.7(4)
C14 C52 C30 119.9(4)
C30 C52 C24 109.0(4)
C12 C53 C19 108.6(4)
C54 C53 C12 120.8(4)
C54 C53 C19 119.5(4)
C53 C54 C44 120.6(4)
C53 C54 C55 119.2(4)
C55 C54 C44 107.7(4)
C41 C55 C54 119.8(4)
C41 C55 C56 119.2(4)
C54 C55 C56 108.2(4)
C57 C56 C55 119.8(4)
C57 C56 C58 120.3(4)
C58 C56 C55 107.6(4)
C56 C57 C60 119.9(4)
C56 C57 C63 120.9(4)
C63 C57 C60 106.9(4)
C56 C58 C44 108.3(4)
C59 C58 C44 119.9(4)
C59 C58 C56 120.3(4)
C58 C59 C61 119.5(4)
C58 C59 C65 119.8(4)
C61 C59 C65 108.4(4)
C61 C60 C57 119.5(4)
C61 C60 C62 120.7(4)
C62 C60 C57 108.0(4)
C59 C61 C51 107.7(4)
C60 C61 C51 119.4(4)
C60 C61 C59 120.5(4)
C36 C62 C43 120.2(4)
C36 C62 C60 119.4(4)
C60 C62 C43 108.2(4)
C42 C63 C43 118.8(4)
C42 C63 C57 119.5(5)
C43 C63 C57 109.3(4)
C35 C64 C27 119.8(4)
C35 C64 C49 120.0(4)
C49 C64 C27 107.9(4)
C46 C65 C50 119.7(4)
C46 C65 C59 120.2(4)
C50 C65 C59 107.9(4)
C36 C66 C35 108.3(4)
C51 C66 C35 120.0(4)
C51 C66 C36 119.6(4)
C12 C67 C1 124.2(4)
C12 C67 C41 120.8(4)
C41 C67 C1 109.5(3)
C14A C33A C34A 109(2)
C32A C33A C14A 123.3(19)
C32A C33A C34A 118(2)
C34A C13A C1A 115.9(18)
C12A C13A C34A 117(2)
C12A C13A C1A 121.7(17)
C19A C10A C9A 113.6(19)
C11A C10A C19A 120(2)
C11A C10A C9A 121(2)
C10A C19A C18A 104.7(19)
C20A C19A C10A 121(2)
C20A C19A C18A 120.3(19)
C55A C53A C54A 109(3)
C55A C53A C67A 117(2)
C67A C53A C54A 119(2)
C57A C54A C53A 107(2)
C51A C54A C53A 120(2)
C51A C54A C57A 119(2)
C53A C55A C64A 122(2)
C53A C55A C56A 112(3)
C64A C55A C56A 116(3)
C55A C64A C63A 120(2)
C42A C64A C55A 119(3)
C42A C64A C63A 109(2)
C64A C42A C41A 109(3)
C43A C42A C64A 121(3)
C43A C42A C41A 117(2)
C42A C41A C65A 107(2)
C38A C41A C42A 122(2)
C38A C41A C65A 116(2)
C63A C65A C41A 106(2)
C66A C65A C41A 121(2)
C66A C65A C63A 120(2)
C64A C63A C65A 108(2)
C62A C63A C64A 121(2)
C62A C63A C65A 119(2)
C18A C17A C9A 118(2)
C18A C17A C16A 114(2)
C16A C17A C9A 120(2)
C17A C18A C19A 105(2)
C23A C18A C19A 118(2)
C23A C18A C17A 129(2)
C33A C14A C1A 115.8(16)
C15A C14A C33A 118(2)
C15A C14A C1A 119.9(18)
C13A C34A C33A 106(2)
C35A C34A C33A 120(2)
C35A C34A C13A 123(2)
C55A C56A C57A 104(2)
C61A C56A C55A 124(2)
C61A C56A C57A 119(2)
C54A C57A C56A 109(2)
C59A C57A C54A 122(3)
C59A C57A C56A 119(2)
C5A C6A C7A 117(2)
F6A C6A C5A 129(3)
F6A C6A C7A 114(2)
C6A C5A C4A 127(3)
C6A C5A F5A 114(3)
C4A C5A F5A 119(3)
C5A C4A C3A 120(3)
C5A C4A F4A 121(3)
C3A C4A F4A 119(2)
C4A C3A F3A 116(2)
C4A C3A C2A 120(2)
F3A C3A C2A 124.4(17)
C17A C9A C10A 94.9(15)
C8A C9A C10A 108.6(14)
C8A C9A C17A 110.1(13)
C1A C9A C10A 116.6(14)
C1A C9A C17A 118.0(14)
C1A C9A C8A 108.0
F2A C8A F1A 102.6(10)
F2A C8A C9A 121.2(13)
F2A C8A C7A 108.5(11)
C9A C8A F1A 113.6(12)
C9A C8A C7A 108.0
C7A C8A F1A 101.0(10)
C8A C7A C6A 135.8(15)
C2A C7A C6A 116.2(15)
C2A C7A C8A 108.0
C7A C2A C3A 120.4(14)
C1A C2A C3A 131.4(14)
C1A C2A C7A 108.0
C14A C1A C13A 91.7(12)
C9A C1A C13A 116.4(13)
C9A C1A C14A 117.8(12)
C9A C1A C2A 108.0
C2A C1A C13A 110.1(12)
C2A C1A C14A 112.1(13)
C32A C37A C66A 108.0
C32A C37A C36A 118.1(14)
C66A C37A C36A 120.9(15)
C33A C32A C37A 122.2(15)
C33A C32A C31A 116.7(15)
C37A C32A C31A 108.0
C32A C31A C30A 108.0
C32A C31A C27A 121.4(14)
C30A C31A C27A 118.9(15)
C31A C30A C29A 121.2(14)
C66A C30A C31A 108.0
C66A C30A C29A 118.7(15)
C37A C66A C65A 119.1(16)
C30A C66A C65A 121.1(15)
C30A C66A C37A 108.0
C35A C40A C39A 108.0
C35A C40A C46A 117.7(14)
C39A C40A C46A 122.2(14)
C34A C35A C40A 119.2(18)
C34A C35A C36A 120.5(18)
C40A C35A C36A 108.0
C35A C36A C37A 121.4(15)
C35A C36A C38A 108.0
C38A C36A C37A 119.4(15)
C41A C38A C36A 122.9(16)
C41A C38A C39A 118.2(17)
C39A C38A C36A 108.0
C38A C39A C40A 108.0
C44A C39A C40A 117.0(18)
C44A C39A C38A 120.5(18)
C19A C20A C21A 119.5(16)
C19A C20A C49A 120.3(15)
C21A C20A C49A 108.0
C20A C21A C51A 108.0
C22A C21A C20A 119.9(15)
C22A C21A C51A 120.4(15)
C54A C51A C21A 119.9(17)
C54A C51A C50A 121.6(16)
C50A C51A C21A 108.0
C51A C50A C49A 108.0
C52A C50A C51A 118.5(16)
C52A C50A C49A 121.8(16)
C20A C49A C48A 118.3(14)
C50A C49A C20A 108.0
C50A C49A C48A 120.4(14)
C29A C28A C60A 108.0
C26A C28A C60A 120.3(19)
C26A C28A C29A 120.1(19)
C61A C60A C28A 108.0
C58A C60A C28A 122.2(16)
C58A C60A C61A 119.3(17)
C56A C61A C60A 120.8(18)
C56A C61A C62A 119.4(17)
C60A C61A C62A 108.0
C61A C62A C63A 119.2(18)
C29A C62A C63A 120.1(17)
C29A C62A C61A 108.0
C28A C29A C30A 118.6(15)
C62A C29A C30A 121.4(16)
C62A C29A C28A 108.0
C50A C52A C45A 116(2)
C50A C52A C67A 123(2)
C67A C52A C45A 108.0
C52A C45A C47A 126(2)
C44A C45A C52A 108.0
C44A C45A C47A 116(2)
C39A C44A C45A 125(2)
C39A C44A C43A 119(2)
C45A C44A C43A 108.0
C42A C43A C44A 123(2)
C42A C43A C67A 118(2)
C67A C43A C44A 108.0
C52A C67A C53A 117(2)
C43A C67A C53A 122(2)
C43A C67A C52A 108.0
C60A C58A C59A 121.0(16)
C60A C58A C24A 119.0(15)
C24A C58A C59A 108.0
C57A C59A C58A 120.7(18)
C57A C59A C22A 120.2(19)
C22A C59A C58A 108.0
C21A C22A C59A 118.4(15)
C21A C22A C23A 121.3(15)
C59A C22A C23A 108.0
C18A C23A C22A 120.5(16)
C18A C23A C24A 117.1(16)
C22A C23A C24A 108.0
C58A C24A C25A 118.3(18)
C23A C24A C58A 108.0
C23A C24A C25A 118.8(17)
C28A C26A C27A 123(2)
C28A C26A C25A 118(2)
C25A C26A C27A 108.0
C26A C27A C31A 119(2)
C15A C27A C31A 119.9(19)
C15A C27A C26A 108.0
C14A C15A C27A 120.5(19)
C14A C15A C16A 118.6(18)
C27A C15A C16A 108.0
C15A C16A C17A 123(2)
C25A C16A C17A 119(2)
C25A C16A C15A 108.0
C26A C25A C24A 122(2)
C16A C25A C24A 122(2)
C16A C25A C26A 108.0
C11A C48A C49A 122.0(14)
C47A C48A C49A 119.0(14)
C47A C48A C11A 108.0
C48A C11A C10A 118.0(16)
C12A C11A C10A 122.4(16)
C12A C11A C48A 108.0
C13A C12A C11A 118.5(15)
C13A C12A C46A 121.3(16)
C11A C12A C46A 108.0
C12A C46A C40A 121.8(15)
C12A C46A C47A 108.0
C47A C46A C40A 117.7(14)
C48A C47A C45A 116.8(17)
C48A C47A C46A 108.0
C46A C47A C45A 122.0(18)
loop_
_geom_bond_atom_site_label_1
_geom_bond_atom_site_label_2
_geom_bond_distance
C3 C4 1.364(7)
C3 C2 1.391(5)
C3 F3 1.339(5)
C4 C5 1.408(7)
C4 F4 1.331(5)
C5 C6 1.384(6)
C5 F5 1.326(7)
C6 C7 1.390(6)
C6 F6 1.340(5)
C7 C8 1.482(5)
C7 C2 1.374(6)
C8 C9 1.572(5)
C8 F2 1.371(4)
C8 F1 1.360(4)
C2 C1 1.538(6)
C1 C9 1.610(5)
C1 C40 1.543(5)
C1 C67 1.523(6)
C9 C10 1.535(6)
C9 C15 1.529(5)
C10 C11 1.370(6)
C10 C13 1.442(5)
C11 C12 1.477(6)
C11 C18 1.453(6)
C12 C53 1.446(6)
C12 C67 1.362(6)
C13 C14 1.451(6)
C13 C16 1.388(6)
C14 C15 1.441(6)
C14 C52 1.394(6)
C15 C39 1.366(6)
C16 C17 1.446(6)
C16 C23 1.454(6)
C17 C18 1.390(6)
C17 C22 1.451(6)
C18 C19 1.445(6)
C19 C20 1.393(7)
C19 C53 1.451(6)
C20 C21 1.444(6)
C20 C45 1.475(6)
C21 C22 1.386(8)
C21 C47 1.456(6)
C22 C25 1.442(6)
C23 C24 1.385(6)
C23 C25 1.452(6)
C24 C28 1.453(6)
C24 C52 1.447(6)
C25 C26 1.409(6)
C26 C27 1.455(6)
C26 C48 1.437(6)
C27 C28 1.383(6)
C27 C64 1.464(6)
C28 C29 1.464(6)
C29 C30 1.456(6)
C29 C34 1.388(6)
C30 C31 1.393(6)
C30 C52 1.432(6)
C31 C32 1.456(7)
C31 C39 1.439(6)
C32 C33 1.397(8)
C32 C37 1.454(6)
C33 C34 1.463(6)
C33 C36 1.444(7)
C34 C35 1.443(6)
C35 C64 1.392(6)
C35 C66 1.450(6)
C36 C62 1.390(6)
C36 C66 1.443(6)
C37 C38 1.457(6)
C37 C43 1.390(8)
C38 C39 1.481(6)
C38 C40 1.378(6)
C40 C42 1.432(6)
C41 C42 1.439(7)
C41 C55 1.393(6)
C41 C67 1.452(6)
C42 C63 1.409(6)
C43 C62 1.458(6)
C43 C63 1.427(7)
C44 C45 1.383(7)
C44 C54 1.452(6)
C44 C58 1.451(6)
C45 C46 1.453(6)
C46 C47 1.446(6)
C46 C65 1.394(6)
C47 C48 1.386(7)
C48 C49 1.465(7)
C49 C50 1.386(6)
C49 C64 1.446(6)
C50 C51 1.457(7)
C50 C65 1.442(6)
C51 C61 1.452(6)
C51 C66 1.389(6)
C53 C54 1.394(6)
C54 C55 1.449(6)
C55 C56 1.459(6)
C56 C57 1.384(7)
C56 C58 1.444(6)
C57 C60 1.460(6)
C57 C63 1.449(6)
C58 C59 1.394(6)
C59 C61 1.450(6)
C59 C65 1.451(6)
C60 C61 1.392(6)
C60 C62 1.440(6)
C33A C14A 1.44(3)
C33A C34A 1.48(4)
C33A C32A 1.42(3)
C13A C34A 1.47(3)
C13A C1A 1.64(3)
C13A C12A 1.36(2)
C10A C19A 1.47(3)
C10A C9A 1.53(3)
C10A C11A 1.43(3)
C19A C18A 1.49(3)
C19A C20A 1.39(3)
C53A C54A 1.47(3)
C53A C55A 1.37(4)
C53A C67A 1.44(3)
C54A C57A 1.43(4)
C54A C51A 1.36(3)
C55A C64A 1.42(3)
C55A C56A 1.46(4)
C64A C42A 1.41(3)
C64A C63A 1.44(4)
C42A C41A 1.43(4)
C42A C43A 1.37(4)
C41A C65A 1.49(4)
C41A C38A 1.41(3)
C65A C63A 1.46(3)
C65A C66A 1.42(3)
C63A C62A 1.43(3)
C17A C18A 1.39(3)
C17A C9A 1.51(3)
C17A C16A 1.47(3)
C18A C23A 1.38(3)
C14A C1A 1.63(3)
C14A C15A 1.41(2)
C34A C35A 1.39(3)
C56A C57A 1.50(3)
C56A C61A 1.36(3)
C57A C59A 1.35(3)
C6A C5A 1.33(4)
C6A F6A 1.27(3)
C6A C7A 1.50(3)
C5A C4A 1.34(4)
C5A F5A 1.43(4)
C4A C3A 1.35(3)
C4A F4A 1.38(3)
C3A F3A 1.36(3)
C3A C2A 1.43(2)
F1A C8A 1.440(18)
F2A C8A 1.360(19)
C9A C8A 1.4200
C9A C1A 1.4200
C8A C7A 1.4200
C7A C2A 1.4200
C2A C1A 1.4200
C37A C32A 1.4200
C37A C66A 1.4200
C37A C36A 1.427(19)
C32A C31A 1.4200
C31A C30A 1.4200
C31A C27A 1.43(2)
C30A C66A 1.4200
C30A C29A 1.44(2)
C40A C35A 1.4200
C40A C39A 1.4200
C40A C46A 1.44(2)
C35A C36A 1.4200
C36A C38A 1.4200
C38A C39A 1.4200
C39A C44A 1.40(3)
C20A C21A 1.4200
C20A C49A 1.4200
C21A C51A 1.4200
C21A C22A 1.407(19)
C51A C50A 1.4200
C50A C49A 1.4200
C50A C52A 1.41(2)
C49A C48A 1.48(2)
C28A C60A 1.4200
C28A C29A 1.4200
C28A C26A 1.38(3)
C60A C61A 1.4200
C60A C58A 1.38(2)
C61A C62A 1.4200
C62A C29A 1.4200
C52A C45A 1.4200
C52A C67A 1.4200
C45A C44A 1.4200
C45A C47A 1.44(3)
C44A C43A 1.4200
C43A C67A 1.4200
C58A C59A 1.4200
C58A C24A 1.4200
C59A C22A 1.4200
C22A C23A 1.4200
C23A C24A 1.4200
C24A C25A 1.43(3)
C26A C27A 1.4200
C26A C25A 1.4200
C27A C15A 1.4200
C15A C16A 1.4200
C16A C25A 1.4200
C48A C11A 1.4200
C48A C47A 1.4200
C11A C12A 1.4200
C12A C46A 1.4200
C46A C47A 1.4200
loop_
_geom_torsion_atom_site_label_1
_geom_torsion_atom_site_label_2
_geom_torsion_atom_site_label_3
_geom_torsion_atom_site_label_4
_geom_torsion
F3_a C3_a C4_a F4_a -0.6(7)
C2 C3 C4 F4 -179.7(4)
F3 C3 C4 C5 179.1(4)
C2 C3 C4 C5 -0.1(7)
F4 C4 C5 F5 0.4(8)
C3 C4 C5 F5 -179.3(5)
F4 C4 C5 C6 179.2(5)
C3 C4 C5 C6 -0.4(8)
F5 C5 C6 F6 2.6(8)
C4 C5 C6 F6 -176.2(4)
F5 C5 C6 C7 -179.7(5)
C4 C5 C6 C7 1.5(8)
F6 C6 C7 C2 175.6(4)
C5 C6 C7 C2 -2.1(7)
F6 C6 C7 C8 0.8(7)
C5 C6 C7 C8 -176.8(4)
C2 C7 C8 F1 133.6(4)
C6 C7 C8 F1 -51.3(6)
C2 C7 C8 F2 -109.3(4)
C6 C7 C8 F2 65.8(5)
C2 C7 C8 C9 10.1(4)
C6 C7 C8 C9 -174.7(4)
C6 C7 C2 C3 1.6(6)
C8 C7 C2 C3 177.0(4)
C6 C7 C2 C1 179.5(4)
C8 C7 C2 C1 -5.0(5)
F3 C3 C2 C7 -179.6(4)
C4 C3 C2 C7 -0.5(6)
F3 C3 C2 C1 2.8(6)
C4 C3 C2 C1 -178.1(4)
C7 C2 C1 C67 -124.7(4)
C3 C2 C1 C67 53.1(5)
C7 C2 C1 C40 122.5(4)
C3 C2 C1 C40 -59.7(6)
C7 C2 C1 C9 -2.1(4)
C3 C2 C1 C9 175.6(4)
F1 C8 C9 C15 100.3(4)
F2 C8 C9 C15 -15.6(4)
C7 C8 C9 C15 -134.7(3)
F1 C8 C9 C10 -11.2(4)
F2 C8 C9 C10 -127.1(3)
C7 C8 C9 C10 113.8(3)
F1 C8 C9 C1 -135.8(3)
F2 C8 C9 C1 108.3(3)
C7 C8 C9 C1 -10.8(4)
C67 C1 C9 C15 -113.2(4)
C2 C1 C9 C15 128.0(3)
C40 C1 C9 C15 2.1(5)
C67 C1 C9 C10 1.9(5)
C2 C1 C9 C10 -116.9(4)
C40 C1 C9 C10 117.2(4)
C67 C1 C9 C8 126.6(3)
C2 C1 C9 C8 7.8(4)
C40 C1 C9 C8 -118.1(4)
C15 C9 C10 C11 132.9(4)
C8 C9 C10 C11 -110.5(5)
C1 C9 C10 C11 9.5(6)
C15 C9 C10 C13 -16.9(4)
C8 C9 C10 C13 99.7(4)
C1 C9 C10 C13 -140.3(3)
C13 C10 C11 C18 -2.1(6)
C9 C10 C11 C18 -149.5(4)
C13 C10 C11 C12 137.2(4)
C9 C10 C11 C12 -10.1(6)
C10 C11 C12 C67 -2.3(6)
C18 C11 C12 C67 141.5(4)
C10 C11 C12 C53 -143.4(4)
C18 C11 C12 C53 0.3(4)
C11 C10 C13 C16 3.6(6)
C9 C10 C13 C16 155.3(4)
C11 C10 C13 C14 -140.5(4)
C9 C10 C13 C14 11.1(5)
C16 C13 C14 C52 -0.5(6)
C10 C13 C14 C52 144.7(4)
C16 C13 C14 C15 -145.0(4)
C10 C13 C14 C15 0.2(5)
C52 C14 C15 C39 -1.9(6)
C13 C14 C15 C39 142.7(4)
C52 C14 C15 C9 -156.2(4)
C13 C14 C15 C9 -11.5(4)
C10 C9 C15 C39 -135.9(4)
C8 C9 C15 C39 104.3(4)
C1 C9 C15 C39 -13.6(6)
C10 C9 C15 C14 17.0(4)
C8 C9 C15 C14 -102.8(4)
C1 C9 C15 C14 139.3(4)
C10 C13 C16 C17 -2.7(6)
C14 C13 C16 C17 137.6(4)
C10 C13 C16 C23 -139.1(4)
C14 C13 C16 C23 1.2(6)
C13 C16 C17 C18 0.3(6)
C23 C16 C17 C18 141.4(4)
C13 C16 C17 C22 -141.7(4)
C23 C16 C17 C22 -0.5(5)
C16 C17 C18 C19 -139.1(4)
C22 C17 C18 C19 -1.3(6)
C16 C17 C18 C11 1.2(6)
C22 C17 C18 C11 138.9(4)
C10 C11 C18 C17 -0.2(6)
C12 C11 C18 C17 -144.3(4)
C10 C11 C18 C19 144.2(4)
C12 C11 C18 C19 0.1(4)
C17 C18 C19 C20 0.1(7)
C11 C18 C19 C20 -144.6(5)
C17 C18 C19 C53 144.1(4)
C11 C18 C19 C53 -0.5(5)
C18 C19 C20 C21 1.3(7)
C53 C19 C20 C21 -138.2(5)
C18 C19 C20 C45 138.3(5)
C53 C19 C20 C45 -1.2(8)
C19 C20 C21 C22 -1.3(8)
C45 C20 C21 C22 -142.3(7)
C19 C20 C21 C47 141.0(6)
C45 C20 C21 C47 0.0(6)
C20 C21 C22 C25 137.9(5)
C47 C21 C22 C25 0.1(9)
C20 C21 C22 C17 0.0(8)
C47 C21 C22 C17 -137.8(5)
C18 C17 C22 C21 1.3(7)
C16 C17 C22 C21 142.9(5)
C18 C17 C22 C25 -141.4(4)
C16 C17 C22 C25 0.3(5)
C13 C16 C23 C24 -1.6(6)
C17 C16 C23 C24 -142.4(4)
C13 C16 C23 C25 141.4(4)
C17 C16 C23 C25 0.6(4)
C25 C23 C24 C52 -137.1(4)
C16 C23 C24 C52 1.2(6)
C25 C23 C24 C28 0.6(6)
C16 C23 C24 C28 138.9(4)
C21 C22 C25 C26 0.4(7)
C17 C22 C25 C26 143.0(4)
C21 C22 C25 C23 -142.5(5)
C17 C22 C25 C23 0.1(5)
C24 C23 C25 C26 0.0(6)
C16 C23 C25 C26 -143.0(4)
C24 C23 C25 C22 142.6(4)
C16 C23 C25 C22 -0.4(5)
C22 C25 C26 C48 -0.6(6)
C23 C25 C26 C48 138.2(4)
C22 C25 C26 C27 -139.1(5)
C23 C25 C26 C27 -0.4(6)
C25 C26 C27 C28 0.2(7)
C48 C26 C27 C28 -142.5(4)
C25 C26 C27 C64 143.0(4)
C48 C26 C27 C64 0.3(5)
C26 C27 C28 C24 0.4(6)
C64 C27 C28 C24 -137.8(4)
C26 C27 C28 C29 137.2(5)
C64 C27 C28 C29 -0.9(6)
C23 C24 C28 C27 -0.8(6)
C52 C24 C28 C27 141.4(4)
C23 C24 C28 C29 -142.4(4)
C52 C24 C28 C29 -0.2(5)
C27 C28 C29 C34 0.5(6)
C24 C28 C29 C34 142.3(4)
C27 C28 C29 C30 -142.1(4)
C24 C28 C29 C30 -0.4(5)
C34 C29 C30 C31 -0.4(6)
C28 C29 C30 C31 141.9(4)
C34 C29 C30 C52 -141.5(4)
C28 C29 C30 C52 0.8(5)
C52 C30 C31 C39 -2.4(7)
C29 C30 C31 C39 -139.1(4)
C52 C30 C31 C32 137.7(5)
C29 C30 C31 C32 0.9(6)
C30 C31 C32 C33 -0.8(8)
C39 C31 C32 C33 143.5(6)
C30 C31 C32 C37 -144.0(5)
C39 C31 C32 C37 0.4(5)
C37 C32 C33 C36 1.0(7)
C31 C32 C33 C36 -137.9(5)
C37 C32 C33 C34 139.1(5)
C31 C32 C33 C34 0.2(8)
C30 C29 C34 C35 137.9(4)
C28 C29 C34 C35 0.0(6)
C30 C29 C34 C33 -0.2(6)
C28 C29 C34 C33 -138.2(4)
C32 C33 C34 C29 0.3(7)
C36 C33 C34 C29 142.9(4)
C32 C33 C34 C35 -142.7(5)
C36 C33 C34 C35 -0.1(5)
C29 C34 C35 C64 -0.1(6)
C33 C34 C35 C64 142.6(4)
C29 C34 C35 C66 -142.8(4)
C33 C34 C35 C66 0.0(5)
C32 C33 C36 C62 -1.2(7)
C34 C33 C36 C62 -143.5(4)
C32 C33 C36 C66 142.5(5)
C34 C33 C36 C66 0.2(5)
C33 C32 C37 C43 -0.4(7)
C31 C32 C37 C43 142.9(7)
C33 C32 C37 C38 -143.3(7)
C31 C32 C37 C38 0.0(5)
C43 C37 C38 C40 0.9(8)
C32 C37 C38 C40 143.7(5)
C43 C37 C38 C39 -143.1(6)
C32 C37 C38 C39 -0.3(5)
C14 C15 C39 C31 0.6(6)
C9 C15 C39 C31 150.9(4)
C14 C15 C39 C38 -136.9(4)
C9 C15 C39 C38 13.4(6)
C30 C31 C39 C15 1.6(7)
C32 C31 C39 C15 -142.5(5)
C30 C31 C39 C38 143.5(4)
C32 C31 C39 C38 -0.6(5)
C40 C38 C39 C15 -0.5(7)
C37 C38 C39 C15 142.6(5)
C40 C38 C39 C31 -142.5(4)
C37 C38 C39 C31 0.6(5)
C37 C38 C40 C42 -3.1(6)
C39 C38 C40 C42 135.7(5)
C37 C38 C40 C1 -149.9(5)
C39 C38 C40 C1 -11.2(7)
C67 C1 C40 C38 133.1(4)
C2 C1 C40 C38 -109.0(5)
C9 C1 C40 C38 9.6(6)
C67 C1 C40 C42 -16.7(4)
C2 C1 C40 C42 101.3(4)
C9 C1 C40 C42 -140.2(4)
C38 C40 C42 C63 3.7(6)
C1 C40 C42 C63 154.7(4)
C38 C40 C42 C41 -140.4(4)
C1 C40 C42 C41 10.7(5)
C55 C41 C42 C63 0.3(7)
C67 C41 C42 C63 -144.2(4)
C55 C41 C42 C40 145.2(4)
C67 C41 C42 C40 0.6(5)
C32 C37 C43 C63 -137.8(5)
C38 C37 C43 C63 0.6(9)
C32 C37 C43 C62 0.0(7)
C38 C37 C43 C62 138.4(5)
C58 C44 C45 C46 0.0(6)
C54 C44 C45 C46 138.2(4)
C58 C44 C45 C20 -137.9(5)
C54 C44 C45 C20 0.3(6)
C19 C20 C45 C44 1.0(7)
C21 C20 C45 C44 142.7(5)
C19 C20 C45 C46 -141.8(5)
C21 C20 C45 C46 -0.1(5)
C44 C45 C46 C65 0.3(7)
C20 C45 C46 C65 143.1(5)
C44 C45 C46 C47 -142.6(4)
C20 C45 C46 C47 0.2(5)
C65 C46 C47 C48 -0.1(7)
C45 C46 C47 C48 142.5(4)
C65 C46 C47 C21 -142.8(5)
C45 C46 C47 C21 -0.2(5)
C22 C21 C47 C48 -0.4(8)
C20 C21 C47 C48 -142.6(5)
C22 C21 C47 C46 142.4(6)
C20 C21 C47 C46 0.1(6)
C46 C47 C48 C26 -138.3(5)
C21 C47 C48 C26 0.3(7)
C46 C47 C48 C49 -0.2(7)
C21 C47 C48 C49 138.3(5)
C25 C26 C48 C47 0.2(6)
C27 C26 C48 C47 142.5(4)
C25 C26 C48 C49 -142.5(4)
C27 C26 C48 C49 -0.2(5)
C47 C48 C49 C50 0.0(7)
C26 C48 C49 C50 142.8(4)
C47 C48 C49 C64 -142.6(4)
C26 C48 C49 C64 0.1(5)
C64 C49 C50 C65 138.5(4)
C48 C49 C50 C65 0.4(6)
C64 C49 C50 C51 -0.7(6)
C48 C49 C50 C51 -138.7(4)
C49 C50 C51 C66 0.9(6)
C65 C50 C51 C66 -142.8(4)
C49 C50 C51 C61 143.8(4)
C65 C50 C51 C61 0.1(5)
C15 C14 C52 C30 1.1(6)
C13 C14 C52 C30 -139.4(4)
C15 C14 C52 C24 140.6(4)
C13 C14 C52 C24 0.1(6)
C31 C30 C52 C14 1.0(6)
C29 C30 C52 C14 142.4(4)
C31 C30 C52 C24 -142.3(4)
C29 C30 C52 C24 -1.0(5)
C23 C24 C52 C14 -0.5(6)
C28 C24 C52 C14 -142.7(4)
C23 C24 C52 C30 142.9(4)
C28 C24 C52 C30 0.7(5)
C67 C12 C53 C54 1.6(6)
C11 C12 C53 C54 142.9(4)
C67 C12 C53 C19 -142.0(4)
C11 C12 C53 C19 -0.7(4)
C20 C19 C53 C54 0.2(7)
C18 C19 C53 C54 -143.4(4)
C20 C19 C53 C12 144.3(5)
C18 C19 C53 C12 0.8(5)
C12 C53 C54 C55 -1.2(6)
C19 C53 C54 C55 138.5(4)
C12 C53 C54 C44 -138.6(4)
C19 C53 C54 C44 1.2(6)
C45 C44 C54 C53 -1.4(6)
C58 C44 C54 C53 141.3(4)
C45 C44 C54 C55 -143.0(4)
C58 C44 C54 C55 -0.3(4)
C42 C41 C55 C54 -138.1(4)
C67 C41 C55 C54 2.6(6)
C42 C41 C55 C56 -1.0(7)
C67 C41 C55 C56 139.7(4)
C53 C54 C55 C41 -0.9(6)
C44 C54 C55 C41 141.4(4)
C53 C54 C55 C56 -142.1(4)
C44 C54 C55 C56 0.1(5)
C41 C55 C56 C57 1.0(6)
C54 C55 C56 C57 142.5(4)
C41 C55 C56 C58 -141.4(4)
C54 C55 C56 C58 0.1(5)
C58 C56 C57 C63 137.3(4)
C55 C56 C57 C63 -0.5(6)
C58 C56 C57 C60 -0.1(6)
C55 C56 C57 C60 -137.8(4)
C57 C56 C58 C59 0.7(6)
C55 C56 C58 C59 142.9(4)
C57 C56 C58 C44 -142.5(4)
C55 C56 C58 C44 -0.3(5)
C45 C44 C58 C59 -0.5(6)
C54 C44 C58 C59 -143.0(4)
C45 C44 C58 C56 142.9(4)
C54 C44 C58 C56 0.4(5)
C56 C58 C59 C61 -0.6(6)
C44 C58 C59 C61 138.5(4)
C56 C58 C59 C65 -138.4(4)
C44 C58 C59 C65 0.6(6)
C56 C57 C60 C61 -0.6(6)
C63 C57 C60 C61 -143.2(4)
C56 C57 C60 C62 142.4(4)
C63 C57 C60 C62 -0.1(4)
C62 C60 C61 C59 -137.6(4)
C57 C60 C61 C59 0.7(6)
C62 C60 C61 C51 0.0(6)
C57 C60 C61 C51 138.3(4)
C58 C59 C61 C60 -0.2(6)
C65 C59 C61 C60 142.0(4)
C58 C59 C61 C51 -142.1(4)
C65 C59 C61 C51 0.1(5)
C66 C51 C61 C60 0.4(6)
C50 C51 C61 C60 -142.5(4)
C66 C51 C61 C59 142.8(4)
C50 C51 C61 C59 -0.1(5)
C66 C36 C62 C60 -0.3(6)
C33 C36 C62 C60 138.7(4)
C66 C36 C62 C43 -138.2(4)
C33 C36 C62 C43 0.8(6)
C61 C60 C62 C36 0.0(6)
C57 C60 C62 C36 -142.5(4)
C61 C60 C62 C43 142.4(4)
C57 C60 C62 C43 -0.1(4)
C37 C43 C62 C36 -0.2(7)
C63 C43 C62 C36 142.3(4)
C37 C43 C62 C60 -142.3(5)
C63 C43 C62 C60 0.3(5)
C40 C42 C63 C43 -2.1(6)
C41 C42 C63 C43 138.4(5)
C40 C42 C63 C57 -140.2(4)
C41 C42 C63 C57 0.2(6)
C37 C43 C63 C42 0.0(7)
C62 C43 C63 C42 -142.4(4)
C37 C43 C63 C57 142.0(5)
C62 C43 C63 C57 -0.4(5)
C56 C57 C63 C42 -0.2(6)
C60 C57 C63 C42 142.0(4)
C56 C57 C63 C43 -141.8(4)
C60 C57 C63 C43 0.3(5)
C34 C35 C64 C49 -137.9(4)
C66 C35 C64 C49 0.5(6)
C34 C35 C64 C27 -0.3(6)
C66 C35 C64 C27 138.1(4)
C50 C49 C64 C35 0.0(6)
C48 C49 C64 C35 142.1(4)
C50 C49 C64 C27 -142.1(4)
C48 C49 C64 C27 0.0(5)
C28 C27 C64 C35 0.8(6)
C26 C27 C64 C35 -142.3(4)
C28 C27 C64 C49 142.9(4)
C26 C27 C64 C49 -0.2(5)
C47 C46 C65 C50 0.5(6)
C45 C46 C65 C50 -138.0(4)
C47 C46 C65 C59 138.4(5)
C45 C46 C65 C59 -0.1(6)
C49 C50 C65 C46 -0.7(6)
C51 C50 C65 C46 142.5(4)
C49 C50 C65 C59 -143.2(4)
C51 C50 C65 C59 0.0(5)
C58 C59 C65 C46 -0.3(6)
C61 C59 C65 C46 -142.3(4)
C58 C59 C65 C50 141.9(4)
C61 C59 C65 C50 -0.1(5)
C61 C51 C66 C36 -0.7(6)
C50 C51 C66 C36 137.7(4)
C61 C51 C66 C35 -138.8(4)
C50 C51 C66 C35 -0.4(6)
C62 C36 C66 C51 0.7(6)
C33 C36 C66 C51 -142.7(4)
C62 C36 C66 C35 143.1(4)
C33 C36 C66 C35 -0.2(5)
C64 C35 C66 C51 -0.3(6)
C34 C35 C66 C51 142.4(4)
C64 C35 C66 C36 -142.5(4)
C34 C35 C66 C36 0.1(5)
C53 C12 C67 C41 0.2(6)
C11 C12 C67 C41 -136.2(4)
C53 C12 C67 C1 151.2(4)
C11 C12 C67 C1 14.7(6)
C55 C41 C67 C12 -2.3(6)
C42 C41 C67 C12 142.9(4)
C55 C41 C67 C1 -157.1(4)
C42 C41 C67 C1 -11.8(5)
C2 C1 C67 C12 100.8(4)
C40 C1 C67 C12 -136.8(4)
C9 C1 C67 C12 -14.0(5)
C2 C1 C67 C41 -105.4(4)
C40 C1 C67 C41 17.0(4)
C9 C1 C67 C41 139.7(4)
C11A C10A C19A C20A 0(3)
C9A C10A C19A C20A -155.2(18)
C11A C10A C19A C18A 140(2)
C9A C10A C19A C18A -15(2)
C55A C53A C54A C51A 139(2)
C67A C53A C54A C51A 1(3)
C55A C53A C54A C57A -1(3)
C67A C53A C54A C57A -140(2)
C67A C53A C55A C64A -3(4)
C54A C53A C55A C64A -142(3)
C67A C53A C55A C56A 141(2)
C54A C53A C55A C56A 2(3)
C53A C55A C64A C42A 2(4)
C56A C55A C64A C42A -140(3)
C53A C55A C64A C63A 141(3)
C56A C55A C64A C63A -1(4)
C55A C64A C42A C43A 2(4)
C63A C64A C42A C43A -141(3)
C55A C64A C42A C41A 144(2)
C63A C64A C42A C41A 1(3)
C43A C42A C41A C38A 4(3)
C64A C42A C41A C38A -139(2)
C43A C42A C41A C65A 142(2)
C64A C42A C41A C65A -1(3)
C38A C41A C65A C66A 0(3)
C42A C41A C65A C66A -140(2)
C38A C41A C65A C63A 142(2)
C42A C41A C65A C63A 1(3)
C42A C64A C63A C62A 142(2)
C55A C64A C63A C62A -1(4)
C42A C64A C63A C65A 0(3)
C55A C64A C63A C65A -143(2)
C66A C65A C63A C62A -1(3)
C41A C65A C63A C62A -143(2)
C66A C65A C63A C64A 141(2)
C41A C65A C63A C64A -1(3)
C16A C17A C18A C23A 5(4)
C9A C17A C18A C23A 155(2)
C16A C17A C18A C19A -143(2)
C9A C17A C18A C19A 8(3)
C20A C19A C18A C23A -6(3)
C10A C19A C18A C23A -147(2)
C20A C19A C18A C17A 145(2)
C10A C19A C18A C17A 4(2)
C32A C33A C14A C15A -2(3)
C34A C33A C14A C15A 142(2)
C32A C33A C14A C1A -154.7(18)
C34A C33A C14A C1A -10(2)
C12A C13A C34A C35A -1(4)
C1A C13A C34A C35A 154(2)
C12A C13A C34A C33A -143.7(19)
C1A C13A C34A C33A 11(3)
C32A C33A C34A C35A 2(3)
C14A C33A C34A C35A -145(2)
C32A C33A C34A C13A 146.4(19)
C14A C33A C34A C13A 0(3)
C53A C55A C56A C61A -142(2)
C64A C55A C56A C61A 3(4)
C53A C55A C56A C57A -1(3)
C64A C55A C56A C57A 145(2)
C51A C54A C57A C59A 3(3)
C53A C54A C57A C59A 144(2)
C51A C54A C57A C56A -141(2)
C53A C54A C57A C56A 0(3)
C61A C56A C57A C59A -1(4)
C55A C56A C57A C59A -144(2)
C61A C56A C57A C54A 144(2)
C55A C56A C57A C54A 1(3)
F6A C6A C5A C4A 175(3)
C7A C6A C5A C4A 4(5)
F6A C6A C5A F5A 4(5)
C7A C6A C5A F5A -168(3)
C6A C5A C4A C3A -2(5)
F5A C5A C4A C3A 169(3)
C6A C5A C4A F4A -179(3)
F5A C5A C4A F4A -7(5)
C5A C4A C3A F3A -178(3)
F4A C4A C3A F3A -1(3)
C5A C4A C3A C2A 2(4)
F4A C4A C3A C2A 178.8(19)
C18A C17A C9A C1A -138.6(19)
C16A C17A C9A C1A 10(3)
C18A C17A C9A C8A 97(2)
C16A C17A C9A C8A -115(2)
C18A C17A C9A C10A -15(2)
C16A C17A C9A C10A 134(2)
C11A C10A C9A C1A -12(2)
C19A C10A C9A C1A 142.0(16)
C11A C10A C9A C8A 110(2)
C19A C10A C9A C8A -95.9(18)
C11A C10A C9A C17A -137(2)
C19A C10A C9A C17A 17(2)
C1A C9A C8A F2A 125.9(14)
C17A C9A C8A F2A -104.0(18)
C10A C9A C8A F2A -1.4(17)
C1A C9A C8A C7A 0.0
C17A C9A C8A C7A 130.1(16)
C10A C9A C8A C7A -127.3(15)
C1A C9A C8A F1A -111.2(12)
C17A C9A C8A F1A 18.9(17)
C10A C9A C8A F1A 121.6(15)
F2A C8A C7A C2A -133.1(15)
C9A C8A C7A C2A 0.0
F1A C8A C7A C2A 119.5(12)
F2A C8A C7A C6A 45(2)
C9A C8A C7A C6A 178(3)
F1A C8A C7A C6A -62(2)
F6A C6A C7A C2A -178(2)
C5A C6A C7A C2A -6(3)
F6A C6A C7A C8A 3(4)
C5A C6A C7A C8A 176(2)
C8A C7A C2A C1A 0.0
C6A C7A C2A C1A -179(2)
C8A C7A C2A C3A -175.2(17)
C6A C7A C2A C3A 6(2)
C4A C3A C2A C1A -178.2(19)
F3A C3A C2A C1A 2(3)
C4A C3A C2A C7A -4(3)
F3A C3A C2A C7A 175.6(16)
C8A C9A C1A C2A 0.0
C17A C9A C1A C2A -125.6(16)
C10A C9A C1A C2A 122.5(16)
C8A C9A C1A C14A 128.2(17)
C17A C9A C1A C14A 2.6(19)
C10A C9A C1A C14A -109.3(17)
C8A C9A C1A C13A -124.4(15)
C17A C9A C1A C13A 110.0(17)
C10A C9A C1A C13A -2.0(17)
C7A C2A C1A C9A 0.0
C3A C2A C1A C9A 174(2)
C7A C2A C1A C14A -131.4(15)
C3A C2A C1A C14A 43(2)
C7A C2A C1A C13A 128.1(15)
C3A C2A C1A C13A -57(2)
C15A C14A C1A C9A -16(2)
C33A C14A C1A C9A 135.6(15)
C15A C14A C1A C2A 110.1(17)
C33A C14A C1A C2A -98.1(17)
C15A C14A C1A C13A -137.3(18)
C33A C14A C1A C13A 14.4(18)
C12A C13A C1A C9A 16(2)
C34A C13A C1A C9A -136.8(17)
C12A C13A C1A C2A -107.3(17)
C34A C13A C1A C2A 99.8(19)
C12A C13A C1A C14A 138.3(17)
C34A C13A C1A C14A -14(2)
C14A C33A C32A C37A 138.1(18)
C34A C33A C32A C37A -3(3)
C14A C33A C32A C31A 2(3)
C34A C33A C32A C31A -139.6(19)
C66A C37A C32A C33A -139.8(19)
C36A C37A C32A C33A 2.0(19)
C66A C37A C32A C31A 0.0
C36A C37A C32A C31A 141.7(16)
C33A C32A C31A C30A 142.2(18)
C37A C32A C31A C30A 0.0
C33A C32A C31A C27A 0(2)
C37A C32A C31A C27A -142.6(19)
C32A C31A C30A C66A 0.0
C27A C31A C30A C66A 143.7(17)
C32A C31A C30A C29A -141.8(18)
C27A C31A C30A C29A 2(2)
C31A C30A C66A C37A 0.0
C29A C30A C66A C37A 142.9(17)
C31A C30A C66A C65A -142.5(19)
C29A C30A C66A C65A 0.5(19)
C32A C37A C66A C30A 0.0
C36A C37A C66A C30A -140.5(16)
C32A C37A C66A C65A 143.4(18)
C36A C37A C66A C65A 3(2)
C63A C65A C66A C30A 0(3)
C41A C65A C66A C30A 136.6(19)
C63A C65A C66A C37A -138(2)
C41A C65A C66A C37A -2(3)
C13A C34A C35A C40A 0(3)
C33A C34A C35A C40A 138(2)
C13A C34A C35A C36A -138(2)
C33A C34A C35A C36A 0(3)
C39A C40A C35A C34A -142.6(19)
C46A C40A C35A C34A 1(2)
C39A C40A C35A C36A 0.0
C46A C40A C35A C36A 143.5(16)
C34A C35A C36A C38A 142(2)
C40A C35A C36A C38A 0.0
C34A C35A C36A C37A -2(2)
C40A C35A C36A C37A -143.5(17)
C32A C37A C36A C35A 0.4(18)
C66A C37A C36A C35A 137.0(14)
C32A C37A C36A C38A -139.2(13)
C66A C37A C36A C38A -2.5(19)
C42A C41A C38A C39A -5(3)
C65A C41A C38A C39A -139.9(18)
C42A C41A C38A C36A 135(2)
C65A C41A C38A C36A 0(3)
C35A C36A C38A C41A -143.4(19)
C37A C36A C38A C41A 1(2)
C35A C36A C38A C39A 0.0
C37A C36A C38A C39A 144.4(17)
C41A C38A C39A C44A 7(3)
C36A C38A C39A C44A -138(2)
C41A C38A C39A C40A 145.4(18)
C36A C38A C39A C40A 0.0
C35A C40A C39A C44A 140(2)
C46A C40A C39A C44A -2(2)
C35A C40A C39A C38A 0.0
C46A C40A C39A C38A -141.5(18)
C10A C19A C20A C21A 137.4(19)
C18A C19A C20A C21A 3(3)
C10A C19A C20A C49A -1(3)
C18A C19A C20A C49A -135.1(18)
C19A C20A C21A C22A 1(2)
C49A C20A C21A C22A 143.2(16)
C19A C20A C21A C51A -142.6(18)
C49A C20A C21A C51A 0.0
C57A C54A C51A C50A 136.6(19)
C53A C54A C51A C50A 1(3)
C57A C54A C51A C21A -4(3)
C53A C54A C51A C21A -139.8(19)
C22A C21A C51A C54A 2(2)
C20A C21A C51A C54A 145(2)
C22A C21A C51A C50A -143.0(16)
C20A C21A C51A C50A 0.0
C54A C51A C50A C52A -1(2)
C21A C51A C50A C52A 143.7(19)
C54A C51A C50A C49A -145(2)
C21A C51A C50A C49A 0.0
C52A C50A C49A C20A -142.3(19)
C51A C50A C49A C20A 0.0
C52A C50A C49A C48A -2(2)
C51A C50A C49A C48A 140.3(17)
C19A C20A C49A C50A 142.3(19)
C21A C20A C49A C50A 0.0
C19A C20A C49A C48A 1.0(19)
C21A C20A C49A C48A -141.2(17)
C26A C28A C60A C58A -1(3)
C29A C28A C60A C58A -144(2)
C26A C28A C60A C61A 143(3)
C29A C28A C60A C61A 0.0
C55A C56A C61A C60A 135(2)
C57A C56A C61A C60A -1(3)
C55A C56A C61A C62A -4(3)
C57A C56A C61A C62A -139(2)
C58A C60A C61A C56A 3(2)
C28A C60A C61A C56A -142.6(19)
C58A C60A C61A C62A 145.6(19)
C28A C60A C61A C62A 0.0
C56A C61A C62A C29A 143(2)
C60A C61A C62A C29A 0.0
C56A C61A C62A C63A 1(2)
C60A C61A C62A C63A -141.8(19)
C64A C63A C62A C29A -136(2)
C65A C63A C62A C29A 1(3)
C64A C63A C62A C61A 1(3)
C65A C63A C62A C61A 138(2)
C61A C62A C29A C28A 0.0
C63A C62A C29A C28A 141.4(19)
C61A C62A C29A C30A -141.9(17)
C63A C62A C29A C30A -1(2)
C26A C28A C29A C62A -143(3)
C60A C28A C29A C62A 0.0
C26A C28A C29A C30A 0(3)
C60A C28A C29A C30A 143.1(18)
C66A C30A C29A C62A -0.4(19)
C31A C30A C29A C62A 137.6(15)
C66A C30A C29A C28A -138.4(14)
C31A C30A C29A C28A 0(2)
C51A C50A C52A C67A -1(3)
C49A C50A C52A C67A 137.9(19)
C51A C50A C52A C45A -137.6(18)
C49A C50A C52A C45A 1(2)
C50A C52A C45A C44A 143(2)
C67A C52A C45A C44A 0.0
C50A C52A C45A C47A -1(3)
C67A C52A C45A C47A -144(3)
C38A C39A C44A C45A 136.3(19)
C40A C39A C44A C45A 2(3)
C38A C39A C44A C43A -8(3)
C40A C39A C44A C43A -142.5(18)
C52A C45A C44A C39A -147(3)
C47A C45A C44A C39A 1(3)
C52A C45A C44A C43A 0.0
C47A C45A C44A C43A 148(3)
C64A C42A C43A C67A -6(4)
C41A C42A C43A C67A -144(2)
C64A C42A C43A C44A 134(3)
C41A C42A C43A C44A -5(3)
C39A C44A C43A C42A 7(3)
C45A C44A C43A C42A -143(3)
C39A C44A C43A C67A 150(3)
C45A C44A C43A C67A 0.0
C42A C43A C67A C52A 145(3)
C44A C43A C67A C52A 0.0
C42A C43A C67A C53A 5(3)
C44A C43A C67A C53A -140(3)
C50A C52A C67A C43A -140(2)
C45A C52A C67A C43A 0.0
C50A C52A C67A C53A 2(3)
C45A C52A C67A C53A 142(2)
C55A C53A C67A C43A -1(3)
C54A C53A C67A C43A 134(2)
C55A C53A C67A C52A -137(2)
C54A C53A C67A C52A -2(3)
C61A C60A C58A C24A -141.6(14)
C28A C60A C58A C24A -1(2)
C61A C60A C58A C59A -3(2)
C28A C60A C58A C59A 137.2(15)
C54A C57A C59A C22A 0(3)
C56A C57A C59A C22A 140(2)
C54A C57A C59A C58A -140(2)
C56A C57A C59A C58A 1(3)
C60A C58A C59A C57A 2(2)
C24A C58A C59A C57A 144(2)
C60A C58A C59A C22A -142.2(18)
C24A C58A C59A C22A 0.0
C20A C21A C22A C59A -138.3(14)
C51A C21A C22A C59A 0.3(18)
C20A C21A C22A C23A -0.6(19)
C51A C21A C22A C23A 138.0(14)
C57A C59A C22A C21A -1(2)
C58A C59A C22A C21A 142.8(16)
C57A C59A C22A C23A -144.0(18)
C58A C59A C22A C23A 0.0
C17A C18A C23A C22A -138(2)
C19A C18A C23A C22A 6(3)
C17A C18A C23A C24A -3(3)
C19A C18A C23A C24A 141.3(17)
C21A C22A C23A C18A -3(2)
C59A C22A C23A C18A 138.4(19)
C21A C22A C23A C24A -141.5(17)
C59A C22A C23A C24A 0.0
C18A C23A C24A C58A -140.0(18)
C22A C23A C24A C58A 0.0
C18A C23A C24A C25A -2(3)
C22A C23A C24A C25A 138(2)
C60A C58A C24A C23A 143.1(18)
C59A C58A C24A C23A 0.0
C60A C58A C24A C25A 4(3)
C59A C58A C24A C25A -139(2)
C29A C28A C26A C25A 138.7(18)
C60A C28A C26A C25A 0(3)
C29A C28A C26A C27A -1(4)
C60A C28A C26A C27A -140(2)
C28A C26A C27A C15A 143(3)
C25A C26A C27A C15A 0.0
C28A C26A C27A C31A 2(3)
C25A C26A C27A C31A -141(2)
C32A C31A C27A C15A 0(3)
C30A C31A C27A C15A -138.8(18)
C32A C31A C27A C26A 136.1(18)
C30A C31A C27A C26A -3(2)
C33A C14A C15A C27A 2(3)
C1A C14A C15A C27A 152.9(18)
C33A C14A C15A C16A -135(2)
C1A C14A C15A C16A 16(3)
C26A C27A C15A C14A -141(2)
C31A C27A C15A C14A -1(3)
C26A C27A C15A C16A 0.0
C31A C27A C15A C16A 140(2)
C14A C15A C16A C25A 142(2)
C27A C15A C16A C25A 0.0
C14A C15A C16A C17A -3(3)
C27A C15A C16A C17A -145(2)
C18A C17A C16A C25A -2(3)
C9A C17A C16A C25A -152(2)
C18A C17A C16A C15A 139(2)
C9A C17A C16A C15A -11(3)
C15A C16A C25A C26A 0.0
C17A C16A C25A C26A 146(2)
C15A C16A C25A C24A -148(3)
C17A C16A C25A C24A -2(3)
C28A C26A C25A C16A -145(4)
C27A C26A C25A C16A 0.0
C28A C26A C25A C24A 4(3)
C27A C26A C25A C24A 148(3)
C23A C24A C25A C16A 4(4)
C58A C24A C25A C16A 138(2)
C23A C24A C25A C26A -140.1(17)
C58A C24A C25A C26A -6(3)
C50A C49A C48A C47A 3(2)
C20A C49A C48A C47A 139.3(13)
C50A C49A C48A C11A -136.8(15)
C20A C49A C48A C11A 0(2)
C47A C48A C11A C12A 0.0
C49A C48A C11A C12A 143.6(17)
C47A C48A C11A C10A -144.1(18)
C49A C48A C11A C10A -1(2)
C19A C10A C11A C12A -137.8(19)
C9A C10A C11A C12A 15(3)
C19A C10A C11A C48A 1(3)
C9A C10A C11A C48A 153.8(16)
C34A C13A C12A C11A 138.0(18)
C1A C13A C12A C11A -15(2)
C34A C13A C12A C46A 0(3)
C1A C13A C12A C46A -152.5(14)
C48A C11A C12A C13A -143.0(18)
C10A C11A C12A C13A -1(2)
C48A C11A C12A C46A 0.0
C10A C11A C12A C46A 142.2(19)
C13A C12A C46A C47A 141.8(18)
C11A C12A C46A C47A 0.0
C13A C12A C46A C40A 1(2)
C11A C12A C46A C40A -140.9(17)
C35A C40A C46A C12A -1(2)
C39A C40A C46A C12A 136.6(14)
C35A C40A C46A C47A -138.7(13)
C39A C40A C46A C47A -0.7(19)
C11A C48A C47A C46A 0.0
C49A C48A C47A C46A -144.9(17)
C11A C48A C47A C45A 142(2)
C49A C48A C47A C45A -3(2)
C12A C46A C47A C48A 0.0
C40A C46A C47A C48A 142.7(17)
C12A C46A C47A C45A -140(2)
C40A C46A C47A C45A 3(2)
C44A C45A C47A C48A -139.4(16)
C52A C45A C47A C48A 2(3)
C44A C45A C47A C46A -3(3)
C52A C45A C47A C46A 138(2)
#BEGIN Loops that were not found in dictionaries:
loop_
_publcif_info_datablock.id
_publcif_info_datablock.publ_exptl
_publcif_info_datablock.publ_geom
_publcif_info_datablock.structure
{27086e66-18b6-44d4-aebe-17e7d7dec52e} y y y
loop_
_publcif_info_exptl_table_extra_item
sin_theta_over_lambda_max
loop_
_publcif_info_tables.block_id
_publcif_info_tables.reference_item
{27086e66-18b6-44d4-aebe-17e7d7dec52e} '_publcif_info_datablock.publ_exptl'
loop_
_publcif_info_cif.paper_type
CB
#END Loops that were not found in dictionaries
