#------------------------------------------------------------------------------
#$Date: 2016-08-05 03:43:14 +0300 (Fri, 05 Aug 2016) $
#$Revision: 184853 $
#$URL: file:///home/coder/svn-repositories/cod/cif/4/08/66/4086625.cif $
#------------------------------------------------------------------------------
#
# This file is available in the Crystallography Open Database (COD),
# http://www.crystallography.net/
#
# All data on this site have been placed in the public domain by the
# contributors.
#
data_4086625
loop_
_publ_author_name
'Shynkaruk, Olena'
'Qi, Yanyu'
'Cottrell-Callbeck, Aiden'
'Torres Delgado, William'
'McDonald, Robert'
'Ferguson, Michael J.'
'He, Gang'
'Rivard, Eric'
_publ_section_title
;
 Modular Synthesis of Diarylalkynes and Their Efficient Conversion into
 Luminescent Tetraarylbutadienes
;
_journal_issue                   13
_journal_name_full               Organometallics
_journal_page_first              2232
_journal_paper_doi               10.1021/acs.organomet.6b00298
_journal_volume                  35
_journal_year                    2016
_chemical_formula_sum            'C40 H46'
_chemical_formula_weight         526.77
_chemical_name_common            7a
_space_group_crystal_system      monoclinic
_space_group_IT_number           14
_space_group_name_Hall           '-P 2ybc'
_space_group_name_H-M_alt        'P 1 21/c 1'
_symmetry_space_group_name_Hall  '-P 2ybc'
_symmetry_space_group_name_H-M   'P 1 21/c 1'
_atom_sites_solution_hydrogens   geom
_audit_creation_method           SHELXL-2014/6
_cell_angle_alpha                90
_cell_angle_beta                 105.6028(9)
_cell_angle_gamma                90
_cell_formula_units_Z            4
_cell_length_a                   11.4211(2)
_cell_length_b                   20.4302(3)
_cell_length_c                   14.2505(2)
_cell_measurement_reflns_used    9980
_cell_measurement_temperature    173(2)
_cell_measurement_theta_max      70.14
_cell_measurement_theta_min      3.88
_cell_volume                     3202.61(9)
_computing_cell_refinement       'Bruker SAINT'
_computing_data_collection       'Bruker APEX2'
_computing_data_reduction        'Bruker SAINT'
_computing_molecular_graphics    'Bruker SHELXTL'
_computing_publication_material  'Bruker SHELXTL'
_computing_structure_refinement  'SHELXL-2014/6 (Sheldrick, 2014)'
_computing_structure_solution    'SHELXT-2014 (Sheldrick 2014)'
_diffrn_ambient_temperature      173(2)
_diffrn_measured_fraction_theta_full 0.968
_diffrn_measured_fraction_theta_max 0.967
_diffrn_measurement_device_type  'Bruker APEX-II CCD'
_diffrn_measurement_method       '\f and \w scans'
_diffrn_radiation_type           CuK\a
_diffrn_radiation_wavelength     1.54178
_diffrn_reflns_av_R_equivalents  0.0646
_diffrn_reflns_av_unetI/netI     0.0870
_diffrn_reflns_Laue_measured_fraction_full 0.968
_diffrn_reflns_Laue_measured_fraction_max 0.967
_diffrn_reflns_limit_h_max       13
_diffrn_reflns_limit_h_min       -13
_diffrn_reflns_limit_k_max       24
_diffrn_reflns_limit_k_min       -24
_diffrn_reflns_limit_l_max       17
_diffrn_reflns_limit_l_min       -17
_diffrn_reflns_number            20490
_diffrn_reflns_point_group_measured_fraction_full 0.968
_diffrn_reflns_point_group_measured_fraction_max 0.967
_diffrn_reflns_theta_full        67.679
_diffrn_reflns_theta_max         67.977
_diffrn_reflns_theta_min         3.880
_exptl_absorpt_coefficient_mu    0.453
_exptl_absorpt_correction_T_max  1.0000
_exptl_absorpt_correction_T_min  0.7481
_exptl_absorpt_correction_type   numerical
_exptl_absorpt_process_details   'SADABS-2014/4 (Sheldrick 2014)'
_exptl_crystal_colour            colourless
_exptl_crystal_density_diffrn    1.093
_exptl_crystal_description       needle
_exptl_crystal_F_000             1144
_exptl_crystal_size_max          0.407
_exptl_crystal_size_mid          0.055
_exptl_crystal_size_min          0.018
_refine_diff_density_max         0.357
_refine_diff_density_min         -0.242
_refine_diff_density_rms         0.047
_refine_ls_extinction_coef       0.0013(3)
_refine_ls_extinction_expression Fc^*^=kFc[1+0.001xFc^2^\l^3^/sin(2\q)]^-1/4^
_refine_ls_extinction_method     SHELXL
_refine_ls_goodness_of_fit_ref   1.024
_refine_ls_hydrogen_treatment    constr
_refine_ls_matrix_type           full
_refine_ls_number_parameters     428
_refine_ls_number_reflns         5623
_refine_ls_number_restraints     11
_refine_ls_restrained_S_all      1.035
_refine_ls_R_factor_all          0.0776
_refine_ls_R_factor_gt           0.0584
_refine_ls_shift/su_max          0.001
_refine_ls_shift/su_mean         0.000
_refine_ls_structure_factor_coef Fsqd
_refine_ls_weighting_details
'w=1/[\s^2^(Fo^2^)+(0.0745P)^2^+0.9587P] where P=(Fo^2^+2Fc^2^)/3'
_refine_ls_weighting_scheme      calc
_refine_ls_wR_factor_gt          0.1516
_refine_ls_wR_factor_ref         0.1742
_reflns_Friedel_coverage         0.000
_reflns_number_gt                4172
_reflns_number_total             5623
_reflns_threshold_expression     'I > 2\s(I)'
_iucr_refine_instructions_details
; 
TITL riv14h0 in P2(1)/c 
CELL 1.54178  11.42110  20.43020  14.25050  90.0000 105.6028  90.0000 
ZERR    4.00   0.00020   0.00030   0.00020   0.0000   0.0009   0.0000 
LATT  1 
SYMM -X, 0.5+Y, 0.5-Z 
SFAC C H 
UNIT 160 184 
TEMP -100.000 
SIZE 0.018 0.055 0.407 
OMIT -3 136 
L.S. 8 
ACTA 
CONF 
EADP C27A C27B 
EADP C37A C37B 
EADP C37A C37C 
EADP C39B C39C 
DFIX 1.53 0.01 C14 C17A C14 C17B C24 C27A C24 C27B C34 C37A C34 C37B 
DFIX 1.53 0.01 C37B C38B C37B C39B 
DFIX 2.50 0.01 C38B C39B 
DFIX 1.53 0.01 C37C C38C C37C C39C 
WGHT    0.074500    0.958700 
EXTI    0.001266 
FVAR       0.12295 
C1    1    0.553357    0.602721    0.502566    11.00000    0.03346    0.04183 = 
         0.03395   -0.00572    0.00888   -0.00416 
AFIX  43 
H1    2    0.588466    0.602572    0.571041    11.00000   -1.20000 
AFIX   0 
C2    1    0.434173    0.617669    0.473096    11.00000    0.03461    0.03580 = 
         0.03281   -0.00281    0.00976   -0.00292 
C3    1    0.363866    0.633201    0.543369    11.00000    0.03168    0.03943 = 
         0.03200   -0.00317    0.00749   -0.00138 
C4    1    0.243312    0.644283    0.513276    11.00000    0.03559    0.04570 = 
         0.03090   -0.00237    0.00697    0.00027 
AFIX  43 
H4    2    0.211642    0.642773    0.444467    11.00000   -1.20000 
AFIX   0 
C11   1    0.636659    0.586553    0.442790    11.00000    0.03464    0.04178 = 
         0.03828   -0.00976    0.01315   -0.01034 
C12   1    0.626923    0.614073    0.350278    11.00000    0.04895    0.05248 = 
         0.04514   -0.00042    0.01847   -0.01575 
AFIX  43 
H12   2    0.563287    0.644200    0.323690    11.00000   -1.20000 
AFIX   0 
C13   1    0.707354    0.598207    0.298140    11.00000    0.04729    0.08167 = 
         0.04681   -0.00431    0.02151   -0.02096 
AFIX  43 
H13   2    0.698148    0.617754    0.236086    11.00000   -1.20000 
AFIX   0 
C14   1    0.801423    0.554738    0.332727    11.00000    0.04411    0.09328 = 
         0.04771   -0.03169    0.02598   -0.03096 
C15   1    0.812838    0.527083    0.424854    11.00000    0.03400    0.06374 = 
         0.05642   -0.02347    0.01560   -0.00890 
AFIX  43 
H15   2    0.876578    0.496899    0.450872    11.00000   -1.20000 
AFIX   0 
C16   1    0.731955    0.543389    0.478307    11.00000    0.03523    0.04949 = 
         0.04170   -0.01131    0.01454   -0.00847 
AFIX  43 
H16   2    0.742111    0.524488    0.540899    11.00000   -1.20000 
AFIX   0 
PART   1 
C17A  1    0.882490    0.546012    0.264992    10.62500    0.03628    0.03559 = 
         0.04171    0.00170    0.02059    0.00004 
AFIX  13 
H17A  2    0.895381    0.589325    0.236637    10.62500   -1.20000 
AFIX   0 
C18A  1    0.819639    0.498239    0.181640    10.62500    0.05570    0.07233 = 
         0.03939   -0.02230    0.02310   -0.00760 
AFIX 137 
H18A  2    0.871677    0.492089    0.137740    10.62500   -1.20000 
H18B  2    0.741352    0.516580    0.145117    10.62500   -1.20000 
H18C  2    0.806293    0.455954    0.209554    10.62500   -1.20000 
AFIX   0 
C19A  1    1.005659    0.517493    0.321646    10.62500    0.03641    0.05256 = 
         0.05364   -0.00391    0.02362    0.00797 
AFIX 137 
H19A  2    1.042228    0.545727    0.377425    10.62500   -1.20000 
H19B  2    1.059734    0.515038    0.278763    10.62500   -1.20000 
H19C  2    0.993602    0.473519    0.344896    10.62500   -1.20000 
AFIX   0 
PART   2 
C17B  1    0.897800    0.512545    0.289345    10.37500    0.05122 
AFIX  13 
H17B  2    0.927370    0.473247    0.330777    10.37500   -1.20000 
AFIX   0 
C18B  1    0.832094    0.492465    0.187648    10.37500    0.07086 
AFIX 137 
H18D  2    0.766560    0.461983    0.189660    10.37500   -1.20000 
H18E  2    0.889139    0.471009    0.157001    10.37500   -1.20000 
H18F  2    0.797624    0.531273    0.149792    10.37500   -1.20000 
AFIX   0 
C19B  1    1.000116    0.556750    0.288490    10.37500    0.06507 
AFIX 137 
H19D  2    1.045137    0.567212    0.355610    10.37500   -1.20000 
H19E  2    0.968459    0.597175    0.253859    10.37500   -1.20000 
H19F  2    1.054525    0.535142    0.255434    10.37500   -1.20000 
AFIX   0 
PART   0 
C21   1    0.366432    0.614815    0.366965    11.00000    0.03087    0.04151 = 
         0.03210   -0.00229    0.01015   -0.00159 
C22   1    0.317499    0.670314    0.314269    11.00000    0.05006    0.03908 = 
         0.03846   -0.00337    0.01212    0.00163 
AFIX  43 
H22   2    0.323766    0.711444    0.346341    11.00000   -1.20000 
AFIX   0 
C23   1    0.259717    0.666335    0.215549    11.00000    0.05432    0.04639 = 
         0.03853    0.00325    0.01105    0.00903 
AFIX  43 
H23   2    0.227438    0.704872    0.180825    11.00000   -1.20000 
AFIX   0 
C24   1    0.248239    0.606712    0.166455    11.00000    0.03967    0.04993 = 
         0.03251   -0.00201    0.00829    0.00355 
C25   1    0.296119    0.551575    0.219455    11.00000    0.03881    0.04268 = 
         0.03541   -0.00698    0.01026    0.00004 
AFIX  43 
H25   2    0.288655    0.510341    0.187577    11.00000   -1.20000 
AFIX   0 
C26   1    0.354813    0.555241    0.318193    11.00000    0.03420    0.03946 = 
         0.03519    0.00014    0.01122    0.00156 
AFIX  43 
H26   2    0.387334    0.516684    0.352743    11.00000   -1.20000 
AFIX   0 
PART   1 
C27A  1    0.185097    0.604938    0.057976    10.65000    0.05734    0.06291 = 
         0.03405   -0.00448   -0.00058    0.01124 
AFIX  13 
H27A  2    0.187264    0.558440    0.036587    10.65000   -1.20000 
AFIX   0 
PART   2 
C27B  1    0.182962    0.595392    0.059305    10.35000    0.05734    0.06291 = 
         0.03405   -0.00448   -0.00058    0.01124 
AFIX  13 
H27B  2    0.235323    0.568623    0.027957    10.35000   -1.20000 
AFIX   0 
PART   1 
C28A  1    0.254866    0.645674   -0.000599    10.65000    0.09379    0.13581 = 
         0.03550    0.00652    0.01493   -0.01246 
AFIX 137 
H28A  2    0.215654    0.640846   -0.070412    10.65000   -1.20000 
H28B  2    0.339020    0.630162    0.013698    10.65000   -1.20000 
H28C  2    0.254222    0.691880    0.017726    10.65000   -1.20000 
AFIX   0 
C29A  1    0.056925    0.624084    0.034296    10.65000    0.05868    0.12223 = 
         0.06452   -0.00213   -0.01849    0.00429 
AFIX 137 
H29A  2    0.019448    0.617391   -0.035429    10.65000   -1.20000 
H29B  2    0.050834    0.670367    0.050432    10.65000   -1.20000 
H29C  2    0.014711    0.597310    0.072035    10.65000   -1.20000 
AFIX   0 
PART   2 
C28B  1    0.152492    0.659523    0.006701    10.35000    0.12782    0.07961 = 
         0.03915    0.01336    0.00528    0.00338 
AFIX 137 
H28D  2    0.227700    0.683174    0.008449    10.35000   -1.20000 
H28E  2    0.102497    0.685858    0.038521    10.35000   -1.20000 
H28F  2    0.107413    0.651350   -0.061164    10.35000   -1.20000 
AFIX   0 
C29B  1    0.059284    0.558682    0.051408    10.35000    0.04793    0.10479 = 
         0.04444   -0.00766    0.00089   -0.00421 
AFIX 137 
H29D  2    0.076005    0.515286    0.081319    10.35000   -1.20000 
H29E  2    0.014682    0.553932   -0.017346    10.35000   -1.20000 
H29F  2    0.010278    0.584006    0.085342    10.35000   -1.20000 
AFIX   0 
PART   0 
C31   1    0.430859    0.634829    0.649685    11.00000    0.02540    0.03962 = 
         0.03129   -0.00346    0.00894    0.00121 
C32   1    0.477033    0.693203    0.695425    11.00000    0.03885    0.03849 = 
         0.03766   -0.00281    0.00936   -0.00184 
AFIX  43 
H32   2    0.471744    0.732128    0.658046    11.00000   -1.20000 
AFIX   0 
C33   1    0.530619    0.695024    0.794962    11.00000    0.04081    0.04417 = 
         0.03896   -0.01041    0.00710   -0.00189 
AFIX  43 
H33   2    0.561920    0.735307    0.824624    11.00000   -1.20000 
AFIX   0 
C34   1    0.539605    0.639430    0.852243    11.00000    0.03017    0.05370 = 
         0.03293   -0.00428    0.00851    0.00494 
C35   1    0.495774    0.581241    0.805978    11.00000    0.03590    0.04566 = 
         0.03793    0.00284    0.00864    0.00228 
AFIX  43 
H35   2    0.502311    0.542242    0.843341    11.00000   -1.20000 
AFIX   0 
C36   1    0.442510    0.578677    0.706215    11.00000    0.03462    0.03817 = 
         0.03875   -0.00362    0.00642   -0.00083 
AFIX  43 
H36   2    0.413753    0.538052    0.676367    11.00000   -1.20000 
AFIX   0 
PART   1 
C37A  1    0.603456    0.644177    0.961317    10.70000    0.03507    0.06322 = 
         0.03256   -0.00367    0.00712    0.00126 
AFIX  13 
H37A  2    0.572153    0.607178    0.993643    10.70000   -1.20000 
AFIX   0 
C38A  1    0.576917    0.706568    1.009360    10.70000    0.08143    0.08439 = 
         0.04231   -0.01625    0.00757    0.01924 
AFIX 137 
H38A  2    0.488780    0.712782    0.994961    10.70000   -1.20000 
H38B  2    0.613119    0.743873    0.984179    10.70000   -1.20000 
H38C  2    0.611693    0.703391    1.080007    10.70000   -1.20000 
AFIX   0 
C39A  1    0.738582    0.635058    0.982697    10.70000    0.04430    0.10599 = 
         0.03427   -0.00402   -0.00306    0.01530 
AFIX 137 
H39A  2    0.774773    0.635635    1.053333    10.70000   -1.20000 
H39B  2    0.773241    0.670594    0.952513    10.70000   -1.20000 
H39C  2    0.755890    0.592994    0.956194    10.70000   -1.20000 
AFIX   0 
PART   2 
C37B  1    0.592480    0.630049    0.962142    10.15000    0.03507    0.06322 = 
         0.03256   -0.00367    0.00712    0.00126 
AFIX  13 
H37B  2    0.630801    0.585951    0.977624    10.15000   -1.20000 
AFIX   0 
C38B  1    0.488911    0.640127    1.010219    10.15000    0.07026 
AFIX  33 
H38D  2    0.519994    0.634422    1.080847    10.15000   -1.20000 
H38E  2    0.455890    0.684412    0.996131    10.15000   -1.20000 
H38F  2    0.424596    0.607992    0.984435    10.15000   -1.20000 
AFIX   0 
C39B  1    0.685809    0.685286    0.995544    10.15000    0.08578 
AFIX  33 
H39D  2    0.722795    0.681655    1.065863    10.15000   -1.20000 
H39E  2    0.749128    0.681680    0.961095    10.15000   -1.20000 
H39F  2    0.644998    0.727734    0.980969    10.15000   -1.20000 
AFIX   0 
PART   3 
C37C  1    0.572228    0.636165    0.962704    10.15000    0.03507    0.06322 = 
         0.03256   -0.00367    0.00712    0.00126 
AFIX  13 
H37C  2    0.530721    0.674558    0.983220    10.15000   -1.20000 
AFIX   0 
C38C  1    0.536927    0.577464    1.015150    10.15000    0.07603 
AFIX  33 
H38G  2    0.565609    0.584200    1.085721    10.15000   -1.20000 
H38H  2    0.448289    0.572643    0.996124    10.15000   -1.20000 
H38I  2    0.574178    0.537793    0.997340    10.15000   -1.20000 
AFIX   0 
C39C  1    0.708151    0.652743    0.993743    10.15000    0.08578 
AFIX  33 
H39G  2    0.737608    0.651800    1.064980    10.15000   -1.20000 
H39H  2    0.752967    0.620512    0.966023    10.15000   -1.20000 
H39I  2    0.720756    0.696515    0.970065    10.15000   -1.20000 
AFIX   0 
PART   0 
C41   1    0.150678    0.658208    0.564683    11.00000    0.03034    0.03592 = 
         0.03479   -0.00172    0.00642    0.00010 
C42   1    0.031830    0.666643    0.507532    11.00000    0.03821    0.04609 = 
         0.03172   -0.00127    0.00454    0.00330 
AFIX  43 
H42   2    0.016215    0.664500    0.438672    11.00000   -1.20000 
AFIX   0 
C43   1   -0.063910    0.677971    0.547044    11.00000    0.03157    0.04393 = 
         0.03967    0.00047    0.00211    0.00462 
AFIX  43 
H43   2   -0.143451    0.683553    0.505194    11.00000   -1.20000 
AFIX   0 
C44   1   -0.045564    0.681343    0.647565    11.00000    0.03491    0.03184 = 
         0.04145    0.00075    0.01086    0.00269 
C45   1    0.072979    0.674138    0.704828    11.00000    0.03594    0.04812 = 
         0.03374    0.00107    0.00835    0.00339 
AFIX  43 
H45   2    0.088292    0.677275    0.773582    11.00000   -1.20000 
AFIX   0 
C46   1    0.169198    0.662649    0.666199    11.00000    0.03122    0.04744 = 
         0.03383    0.00119    0.00551    0.00348 
AFIX  43 
H46   2    0.248729    0.657673    0.708329    11.00000   -1.20000 
AFIX   0 
C47   1   -0.151916    0.689694    0.691393    11.00000    0.03536    0.05134 = 
         0.04572   -0.00052    0.01231    0.00670 
AFIX  13 
H47   2   -0.225435    0.699967    0.636987    11.00000   -1.20000 
AFIX   0 
C48   1   -0.132805    0.746159    0.763510    11.00000    0.06962    0.05277 = 
         0.09537   -0.01813    0.04237    0.00643 
AFIX 137 
H48A  2   -0.206100    0.752077    0.785871    11.00000   -1.20000 
H48B  2   -0.116406    0.786346    0.731695    11.00000   -1.20000 
H48C  2   -0.063597    0.736433    0.819426    11.00000   -1.20000 
AFIX   0 
C49   1   -0.177415    0.626777    0.739104    11.00000    0.04521    0.05822 = 
         0.04987   -0.00505    0.02118   -0.00351 
AFIX 137 
H49A  2   -0.190331    0.591006    0.691601    11.00000   -1.20000 
H49B  2   -0.250385    0.632358    0.762008    11.00000   -1.20000 
H49C  2   -0.107987    0.616364    0.794495    11.00000   -1.20000 
  
AFIX   0 
HKLF 4 
  
REM  riv14h0 in P2(1)/c 
REM R1 =  0.0584 for    4172 Fo > 4sig(Fo)  and  0.0776 for all    5623 data 
REM    428 parameters refined using     11 restraints 
  
END 
  
WGHT      0.0742      0.9649 
  
REM Highest difference peak  0.357,  deepest hole -0.242,  1-sigma level  0.047 
Q1    1   0.5094  0.6105  1.0134  11.00000  0.05    0.36 
Q2    1   0.4955  0.6679  1.0093  11.00000  0.05    0.34 
Q3    1   0.7580  0.5667  0.3240  11.00000  0.05    0.31 
Q4    1   0.8206  0.5668  0.3135  11.00000  0.05    0.25 
Q5    1  -0.0981  0.6915  0.6648  11.00000  0.05    0.24 
Q6    1   0.4902  0.5822  0.5016  11.00000  0.05    0.22 
Q7    1   0.3215  0.6233  0.5382  11.00000  0.05    0.21 
Q8    1   0.4922  0.6006  0.6671  11.00000  0.05    0.21 
Q9    1   0.4895  0.6316  0.4717  11.00000  0.05    0.21 
Q10   1   0.1990  0.6376  0.5486  11.00000  0.05    0.21 
Q11   1   0.3969  0.6177  0.5039  11.00000  0.05    0.21 
Q12   1   0.8261  0.5242  0.3565  11.00000  0.05    0.20 
Q13   1  -0.0122  0.6976  0.5220  11.00000  0.05    0.19 
Q14   1   0.5889  0.5878  0.4690  11.00000  0.05    0.19 
Q15   1   0.0141  0.6940  0.6809  11.00000  0.05    0.19 
Q16   1   0.1969  0.6691  0.5444  11.00000  0.05    0.18 
Q17   1   0.1191  0.6875  0.6855  11.00000  0.05    0.18 
Q18   1   0.9596  0.5684  0.2437  11.00000  0.05    0.18 
Q19   1   0.5892  0.6586  0.8182  11.00000  0.05    0.17 
Q20   1   0.7847  0.5590  0.4501  11.00000  0.05    0.17 
;
_cod_data_source_file            om6b00298_si_002.cif
_cod_data_source_block           riv14h0
_cod_database_code               4086625
_shelx_space_group_comment
; 
The symmetry employed for this shelxl refinement is uniquely defined 
by the following loop, which should always be used as a source of 
symmetry information in preference to the above space-group names. 
They are only intended as comments. 
;
_shelx_estimated_absorpt_t_min   0.837
_shelx_estimated_absorpt_t_max   0.992
_shelxl_version_number           2014/6
_shelx_res_checksum              56633
_shelx_hkl_file
; 
   3  -5 -17    0.95    0.15 
   4  -5 -17    0.06    0.07 
   2  -4 -17    0.35    0.09 
   3  -4 -17    0.05    0.07 
   4  -4 -17    0.68    0.11 
   5  -4 -17    0.12    0.08 
   2  -3 -17    0.02    0.06 
   3  -3 -17    0.46    0.09 
   4  -3 -17    0.29    0.10 
   5  -3 -17    2.94    0.26 
   2  -2 -17    1.15    0.13 
   3  -2 -17    0.11    0.08 
   4  -2 -17   -0.04    0.07 
   5  -2 -17    0.83    0.13 
   6  -2 -17    1.22    0.17 
   1  -1 -17    0.02    0.07 
   2  -1 -17    0.70    0.11 
   3  -1 -17    0.81    0.12 
   4  -1 -17   -0.07    0.07 
   5  -1 -17    2.26    0.23 
   6  -1 -17    0.21    0.09 
   1   0 -17   -0.03    0.07 
   2   0 -17   -0.06    0.07 
   3   0 -17   -0.08    0.07 
   4   0 -17   -0.03    0.07 
   5   0 -17    0.13    0.09 
   6   0 -17    0.06    0.07 
   1   1 -17    0.11    0.08 
   2   1 -17    0.81    0.11 
   3   1 -17    0.67    0.11 
   4   1 -17   -0.06    0.09 
   5   1 -17    2.10    0.22 
   6   1 -17    0.21    0.08 
   2   2 -17    1.02    0.13 
   3   2 -17    0.09    0.07 
   4   2 -17    0.12    0.08 
   5   2 -17    0.95    0.13 
   6   2 -17    1.26    0.16 
   2   3 -17    0.01    0.07 
   3   3 -17    0.27    0.10 
   4   3 -17    0.28    0.09 
   5   3 -17    2.77    0.26 
   2   4 -17    0.44    0.10 
   3   4 -17    0.05    0.07 
   4   4 -17    0.65    0.11 
   5   4 -17   -0.02    0.07 
   3   5 -17    0.77    0.15 
   4   5 -17   -0.06    0.07 
   2  -9 -16   -0.03    0.06 
   3  -9 -16    0.02    0.06 
   4  -9 -16    0.24    0.07 
   5  -9 -16   -0.11    0.08 
   1  -8 -16    1.39    0.17 
   2  -8 -16    0.08    0.07 
   3  -8 -16    0.56    0.10 
   4  -8 -16    0.01    0.09 
   5  -8 -16    0.07    0.07 
   6  -8 -16    0.05    0.07 
   0  -7 -16    2.02    0.20 
   1  -7 -16    0.09    0.06 
   2  -7 -16    0.06    0.07 
   3  -7 -16    0.04    0.07 
   4  -7 -16   -0.07    0.07 
   5  -7 -16    0.82    0.15 
   6  -7 -16   -0.01    0.07 
   7  -7 -16    1.82    0.22 
   0  -6 -16    0.05    0.05 
   1  -6 -16    2.71    0.28 
   2  -6 -16   -0.04    0.07 
   3  -6 -16   -0.02    0.08 
   4  -6 -16    0.13    0.08 
   5  -6 -16    1.00    0.14 
   6  -6 -16    0.96    0.16 
   7  -6 -16    0.98    0.14 
  -1  -5 -16    0.42    0.07 
   0  -5 -16    0.05    0.06 
   1  -5 -16    0.09    0.07 
   2  -5 -16    0.11    0.08 
   3  -5 -16   -0.06    0.08 
   4  -5 -16    0.46    0.11 
   5  -5 -16    0.21    0.10 
   6  -5 -16    0.69    0.12 
   7  -5 -16   -0.02    0.07 
  -1  -4 -16    0.26    0.06 
   0  -4 -16    0.08    0.06 
   1  -4 -16    0.19    0.08 
   2  -4 -16    0.14    0.07 
   3  -4 -16   -0.10    0.08 
   4  -4 -16    0.25    0.10 
   5  -4 -16    0.16    0.09 
   6  -4 -16   -0.03    0.09 
   7  -4 -16    0.18    0.09 
   8  -4 -16    0.56    0.12 
  -1  -3 -16   -0.04    0.04 
   0  -3 -16    0.45    0.09 
   1  -3 -16    0.09    0.07 
   2  -3 -16   -0.05    0.08 
   3  -3 -16   -0.01    0.09 
   4  -3 -16    0.17    0.09 
   5  -3 -16    2.69    0.28 
   6  -3 -16    1.92    0.21 
   7  -3 -16    0.09    0.10 
   8  -3 -16    0.25    0.08 
  -1  -2 -16    0.00    0.04 
   0  -2 -16    0.09    0.07 
   1  -2 -16   -0.03    0.06 
   2  -2 -16    0.12    0.08 
   3  -2 -16    0.16    0.09 
   4  -2 -16    0.42    0.12 
   5  -2 -16   -0.02    0.09 
   6  -2 -16    0.13    0.09 
   7  -2 -16    0.88    0.13 
   8  -2 -16    1.30    0.15 
  -1  -1 -16    0.14    0.05 
   0  -1 -16    0.03    0.06 
   1  -1 -16    0.00    0.07 
   2  -1 -16    0.29    0.10 
   3  -1 -16   -0.13    0.08 
   4  -1 -16    0.45    0.12 
   5  -1 -16    0.21    0.10 
   6  -1 -16    2.57    0.27 
   7  -1 -16   -0.10    0.08 
   8  -1 -16    0.18    0.09 
  -1   0 -16   -0.08    0.05 
   0   0 -16    0.58    0.07 
   1   0 -16    0.79    0.13 
   2   0 -16   -0.01    0.07 
   3   0 -16    1.46    0.19 
   4   0 -16    0.06    0.10 
   5   0 -16    5.57    0.57 
   6   0 -16    2.57    0.29 
   7   0 -16    0.01    0.08 
   8   0 -16    0.20    0.09 
  -1   1 -16    0.23    0.06 
   0   1 -16   -0.05    0.06 
   1   1 -16    0.08    0.07 
   2   1 -16    0.41    0.10 
   3   1 -16   -0.09    0.09 
   4   1 -16    0.25    0.10 
   5   1 -16    0.16    0.09 
   6   1 -16    2.02    0.26 
   7   1 -16    0.04    0.09 
   8   1 -16   -0.01    0.07 
  -1   2 -16   -0.03    0.05 
   0   2 -16    0.06    0.06 
   1   2 -16    0.01    0.07 
   2   2 -16    0.18    0.09 
   3   2 -16    0.28    0.09 
   4   2 -16    0.39    0.11 
   5   2 -16   -0.01    0.08 
   6   2 -16    0.03    0.09 
   7   2 -16    0.58    0.11 
   8   2 -16    1.16    0.13 
  -1   3 -16    0.04    0.05 
   0   3 -16    0.57    0.08 
   1   3 -16    0.20    0.08 
   2   3 -16   -0.02    0.08 
   3   3 -16   -0.01    0.08 
   4   3 -16    0.12    0.09 
   5   3 -16    2.59    0.28 
   6   3 -16    1.84    0.21 
   7   3 -16    0.21    0.08 
   8   3 -16    0.16    0.08 
  -1   4 -16    0.41    0.06 
   0   4 -16    0.02    0.06 
   1   4 -16    0.26    0.08 
   2   4 -16    0.07    0.08 
   3   4 -16    0.00    0.09 
   4   4 -16    0.24    0.10 
   5   4 -16    0.04    0.08 
   6   4 -16   -0.01    0.08 
   7   4 -16    0.16    0.08 
   8   4 -16    0.36    0.10 
  -1   5 -16    0.63    0.07 
   0   5 -16   -0.02    0.06 
   1   5 -16    0.03    0.06 
   2   5 -16    0.13    0.08 
   3   5 -16    0.00    0.08 
   4   5 -16    0.72    0.11 
   5   5 -16    0.14    0.09 
   6   5 -16    0.62    0.11 
   7   5 -16    0.14    0.09 
   0   6 -16   -0.05    0.07 
   1   6 -16    3.04    0.26 
   2   6 -16    0.00    0.08 
   3   6 -16    0.04    0.09 
   4   6 -16    0.12    0.09 
   5   6 -16    0.70    0.13 
   6   6 -16    0.89    0.15 
   7   6 -16    1.49    0.17 
   0   7 -16    1.98    0.17 
   1   7 -16    0.09    0.08 
   2   7 -16    0.11    0.08 
   3   7 -16   -0.02    0.08 
   4   7 -16   -0.03    0.07 
   5   7 -16    1.10    0.15 
   6   7 -16    0.02    0.09 
   7   7 -16    1.66    0.21 
   1   8 -16    1.33    0.15 
   2   8 -16    0.05    0.07 
   3   8 -16    0.53    0.11 
   4   8 -16    0.01    0.07 
   5   8 -16   -0.02    0.09 
   6   8 -16   -0.09    0.06 
   2   9 -16    0.17    0.07 
   3   9 -16   -0.03    0.07 
   4   9 -16    0.45    0.10 
   5   9 -16    0.15    0.09 
   2 -12 -15    0.43    0.07 
   3 -12 -15    0.21    0.07 
   4 -12 -15    0.38    0.08 
   5 -12 -15    0.10    0.06 
   0 -11 -15    1.84    0.18 
   1 -11 -15    0.17    0.07 
   2 -11 -15    0.09    0.07 
   3 -11 -15    0.00    0.07 
   4 -11 -15    0.38    0.08 
   5 -11 -15    0.18    0.07 
   6 -11 -15    1.27    0.16 
   0 -10 -15    0.33    0.08 
   1 -10 -15    0.07    0.07 
   2 -10 -15    0.13    0.08 
   3 -10 -15   -0.15    0.08 
   4 -10 -15    0.98    0.17 
   5 -10 -15    0.12    0.08 
   6 -10 -15    0.75    0.11 
   7 -10 -15    2.11    0.22 
  -1  -9 -15    0.03    0.06 
   0  -9 -15    0.14    0.06 
   1  -9 -15    0.40    0.09 
   2  -9 -15    1.03    0.13 
   3  -9 -15    0.55    0.12 
   4  -9 -15    0.09    0.09 
   5  -9 -15    0.15    0.09 
   6  -9 -15    0.09    0.08 
   7  -9 -15    1.22    0.15 
  -2  -8 -15    1.02    0.20 
  -1  -8 -15   -0.02    0.05 
   0  -8 -15   -0.06    0.06 
   1  -8 -15    0.23    0.08 
   2  -8 -15    0.15    0.09 
   3  -8 -15    0.04    0.09 
   4  -8 -15    0.00    0.09 
   5  -8 -15    0.34    0.10 
   6  -8 -15    0.72    0.13 
   7  -8 -15    0.34    0.10 
   8  -8 -15    0.09    0.08 
  -2  -7 -15    0.04    0.05 
  -1  -7 -15    0.02    0.06 
   0  -7 -15    0.09    0.07 
   1  -7 -15    0.02    0.07 
   2  -7 -15    0.07    0.07 
   3  -7 -15    0.04    0.09 
   4  -7 -15    0.11    0.09 
   5  -7 -15    0.21    0.11 
   6  -7 -15    0.03    0.10 
   7  -7 -15    1.18    0.15 
   8  -7 -15    0.27    0.09 
  -2  -6 -15   -0.02    0.04 
  -1  -6 -15    0.11    0.07 
   0  -6 -15    0.50    0.09 
   1  -6 -15    0.08    0.08 
   2  -6 -15    3.22    0.29 
   3  -6 -15    0.09    0.09 
   4  -6 -15    1.17    0.19 
   5  -6 -15    0.57    0.13 
   6  -6 -15    4.90    0.44 
   7  -6 -15    3.54    0.33 
   8  -6 -15    1.24    0.16 
   9  -6 -15    0.47    0.11 
  -3  -5 -15    0.89    0.26 
  -2  -5 -15    0.07    0.05 
  -1  -5 -15    1.03    0.10 
   0  -5 -15    0.02    0.06 
   1  -5 -15    0.97    0.12 
   2  -5 -15    0.08    0.08 
   3  -5 -15    0.49    0.11 
   4  -5 -15    0.76    0.16 
   5  -5 -15    0.17    0.09 
   6  -5 -15    0.62    0.14 
   7  -5 -15    0.61    0.13 
   8  -5 -15    1.08    0.16 
   9  -5 -15    0.71    0.12 
  -3  -4 -15    0.94    0.07 
  -2  -4 -15    0.02    0.05 
  -1  -4 -15   -0.05    0.06 
   0  -4 -15   -0.04    0.07 
   1  -4 -15    0.04    0.09 
   2  -4 -15    0.13    0.08 
   3  -4 -15    0.54    0.13 
   4  -4 -15    1.07    0.15 
   5  -4 -15    2.87    0.30 
   6  -4 -15    0.06    0.10 
   7  -4 -15    0.48    0.10 
   8  -4 -15    0.08    0.09 
   9  -4 -15    0.44    0.10 
  -3  -3 -15    0.12    0.04 
  -2  -3 -15    0.00    0.06 
  -1  -3 -15    0.00    0.06 
   0  -3 -15    0.58    0.10 
   1  -3 -15    0.94    0.12 
   2  -3 -15    0.73    0.12 
   3  -3 -15    1.39    0.18 
   4  -3 -15    0.10    0.10 
   5  -3 -15    0.69    0.14 
   6  -3 -15   -0.01    0.08 
   7  -3 -15   -0.06    0.09 
   8  -3 -15    4.18    0.39 
   9  -3 -15    3.75    0.36 
  -3  -2 -15   -0.05    0.04 
  -2  -2 -15    1.00    0.10 
  -1  -2 -15    0.02    0.07 
   0  -2 -15    0.32    0.08 
   1  -2 -15   -0.05    0.08 
   2  -2 -15    0.11    0.10 
   3  -2 -15    0.00    0.09 
   4  -2 -15    0.09    0.11 
   5  -2 -15    0.37    0.12 
   6  -2 -15    0.71    0.12 
   7  -2 -15   -0.07    0.09 
   8  -2 -15   -0.08    0.09 
   9  -2 -15    0.62    0.12 
  -3  -1 -15    0.22    0.05 
  -2  -1 -15   -0.09    0.05 
  -1  -1 -15    0.41    0.07 
   0  -1 -15    0.40    0.09 
   1  -1 -15    0.03    0.09 
   2  -1 -15    0.18    0.10 
   3  -1 -15    2.09    0.23 
   4  -1 -15    0.02    0.11 
   5  -1 -15   -0.11    0.09 
   6  -1 -15   -0.01    0.09 
   7  -1 -15    0.08    0.10 
   8  -1 -15   -0.02    0.08 
   9  -1 -15    0.25    0.09 
  -3   0 -15    0.00    0.04 
  -2   0 -15    0.01    0.06 
  -1   0 -15    0.16    0.07 
   0   0 -15   -0.07    0.07 
   1   0 -15   -0.10    0.08 
   2   0 -15   -0.04    0.09 
   3   0 -15   -0.11    0.10 
   4   0 -15    0.12    0.10 
   5   0 -15   -0.15    0.08 
   6   0 -15   -0.02    0.09 
   7   0 -15    0.06    0.08 
   8   0 -15    0.13    0.09 
   9   0 -15   -0.03    0.08 
  10   0 -15   -0.01    0.09 
  -3   1 -15    0.21    0.05 
  -2   1 -15    0.04    0.05 
  -1   1 -15    0.35    0.08 
   0   1 -15    0.32    0.08 
   1   1 -15    0.01    0.08 
   2   1 -15    0.21    0.09 
   3   1 -15    2.26    0.23 
   4   1 -15    0.10    0.10 
   5   1 -15    0.08    0.10 
   6   1 -15   -0.02    0.09 
   7   1 -15   -0.03    0.08 
   8   1 -15    0.04    0.08 
   9   1 -15    0.24    0.09 
  -3   2 -15    0.02    0.04 
  -2   2 -15    1.03    0.10 
  -1   2 -15    0.02    0.07 
   0   2 -15    0.37    0.09 
   1   2 -15    0.08    0.08 
   2   2 -15    0.21    0.11 
   3   2 -15   -0.01    0.09 
   4   2 -15    0.00    0.10 
   5   2 -15    0.29    0.11 
   6   2 -15    0.47    0.12 
   7   2 -15   -0.04    0.09 
   8   2 -15   -0.01    0.08 
   9   2 -15    0.73    0.12 
  -3   3 -15    0.09    0.04 
  -2   3 -15   -0.07    0.05 
  -1   3 -15    0.11    0.07 
   0   3 -15    0.83    0.10 
   1   3 -15    0.97    0.13 
   2   3 -15    0.76    0.12 
   3   3 -15    0.87    0.16 
   4   3 -15   -0.02    0.10 
   5   3 -15    0.60    0.12 
   6   3 -15    0.09    0.09 
   7   3 -15    0.00    0.09 
   8   3 -15    4.04    0.34 
   9   3 -15    3.49    0.35 
  -3   4 -15    0.91    0.07 
  -2   4 -15    0.09    0.06 
  -1   4 -15   -0.02    0.07 
   0   4 -15    0.09    0.07 
   1   4 -15    0.13    0.08 
   2   4 -15    0.21    0.09 
   3   4 -15    0.53    0.13 
   4   4 -15    0.96    0.16 
   5   4 -15    3.37    0.34 
   6   4 -15   -0.06    0.09 
   7   4 -15    0.30    0.10 
   8   4 -15   -0.08    0.08 
   9   4 -15    0.31    0.09 
  -3   5 -15    0.94    0.16 
  -2   5 -15    0.31    0.06 
  -1   5 -15    0.74    0.10 
   0   5 -15    0.05    0.07 
   1   5 -15    0.93    0.12 
   2   5 -15   -0.08    0.09 
   3   5 -15    0.46    0.12 
   4   5 -15    0.68    0.13 
   5   5 -15    0.10    0.10 
   6   5 -15    0.65    0.12 
   7   5 -15    0.51    0.12 
   8   5 -15    1.15    0.15 
   9   5 -15    0.83    0.11 
  -2   6 -15   -0.01    0.06 
  -1   6 -15    0.13    0.07 
   0   6 -15    0.54    0.09 
   1   6 -15    0.15    0.08 
   2   6 -15    3.29    0.27 
   3   6 -15   -0.09    0.09 
   4   6 -15    1.05    0.18 
   5   6 -15    0.51    0.13 
   6   6 -15    4.57    0.43 
   7   6 -15    3.15    0.32 
   8   6 -15    1.16    0.15 
   9   6 -15    0.24    0.09 
  -2   7 -15    0.01    0.05 
  -1   7 -15    0.03    0.06 
   0   7 -15    0.03    0.07 
   1   7 -15   -0.02    0.08 
   2   7 -15    0.01    0.08 
   3   7 -15    0.03    0.09 
   4   7 -15    0.18    0.11 
   5   7 -15    0.18    0.09 
   6   7 -15    0.16    0.09 
   7   7 -15    0.96    0.14 
   8   7 -15    0.18    0.09 
  -2   8 -15    1.60    0.17 
  -1   8 -15    0.06    0.06 
   0   8 -15   -0.06    0.07 
   1   8 -15    0.16    0.08 
   2   8 -15    0.18    0.10 
   3   8 -15    0.02    0.09 
   4   8 -15    0.12    0.09 
   5   8 -15    0.14    0.10 
   6   8 -15    0.63    0.13 
   7   8 -15    0.23    0.09 
   8   8 -15    0.11    0.07 
  -1   9 -15    0.04    0.06 
   0   9 -15    0.15    0.06 
   1   9 -15    0.54    0.09 
   2   9 -15    0.55    0.13 
   3   9 -15    0.36    0.12 
   4   9 -15   -0.06    0.09 
   5   9 -15    0.04    0.09 
   6   9 -15    0.17    0.09 
   7   9 -15    1.37    0.18 
   0  10 -15    0.52    0.07 
   1  10 -15    0.07    0.07 
   2  10 -15   -0.11    0.08 
   3  10 -15    0.14    0.09 
   4  10 -15    1.14    0.16 
   5  10 -15    0.13    0.09 
   6  10 -15    0.53    0.13 
   7  10 -15    1.87    0.22 
   0  11 -15    1.84    0.19 
   1  11 -15    0.14    0.07 
   2  11 -15    0.01    0.08 
   3  11 -15   -0.02    0.08 
   4  11 -15    0.35    0.09 
   5  11 -15    0.23    0.10 
   6  11 -15    1.07    0.16 
   2  12 -15    0.41    0.09 
   3  12 -15    0.29    0.08 
   4  12 -15    0.36    0.10 
   5  12 -15    0.24    0.09 
   1 -14 -14    1.17    0.15 
   2 -14 -14   -0.06    0.06 
   3 -14 -14    0.44    0.09 
   4 -14 -14   -0.04    0.06 
   5 -14 -14   -0.06    0.06 
   0 -13 -14    0.20    0.07 
   1 -13 -14    0.04    0.08 
   2 -13 -14    0.25    0.09 
   3 -13 -14    0.05    0.08 
   4 -13 -14   -0.04    0.07 
   5 -13 -14   -0.02    0.08 
   6 -13 -14   -0.05    0.06 
  -1 -12 -14    1.22    0.12 
   0 -12 -14    0.39    0.08 
   1 -12 -14   -0.04    0.09 
   2 -12 -14    0.31    0.10 
   3 -12 -14    0.29    0.10 
   4 -12 -14   -0.03    0.09 
   5 -12 -14    0.01    0.08 
   6 -12 -14    0.21    0.08 
   7 -12 -14    1.03    0.16 
  -2 -11 -14   -0.07    0.05 
  -1 -11 -14    0.79    0.10 
   0 -11 -14    0.10    0.08 
   1 -11 -14    2.85    0.22 
   2 -11 -14   -0.08    0.08 
   3 -11 -14   -0.02    0.09 
   4 -11 -14    1.02    0.17 
   5 -11 -14    2.72    0.29 
   6 -11 -14    1.77    0.20 
   7 -11 -14    0.10    0.09 
   8 -11 -14   -0.06    0.07 
  -2 -10 -14    0.04    0.06 
  -1 -10 -14    0.06    0.07 
   0 -10 -14    0.12    0.08 
   1 -10 -14    6.73    0.54 
   2 -10 -14    0.53    0.12 
   3 -10 -14    0.75    0.14 
   4 -10 -14    0.67    0.15 
   5 -10 -14    0.65    0.14 
   6 -10 -14    2.10    0.26 
   7 -10 -14    4.17    0.44 
   8 -10 -14    0.24    0.09 
  -3  -9 -14    0.21    0.06 
  -2  -9 -14    0.18    0.06 
  -1  -9 -14    1.07    0.11 
   0  -9 -14    0.26    0.08 
   1  -9 -14    0.25    0.10 
   2  -9 -14    0.32    0.10 
   3  -9 -14    0.27    0.12 
   4  -9 -14   -0.06    0.11 
   5  -9 -14    0.10    0.10 
   6  -9 -14    0.03    0.10 
   7  -9 -14    0.66    0.14 
   8  -9 -14    4.35    0.39 
   9  -9 -14    0.04    0.07 
  -3  -8 -14    0.25    0.06 
  -2  -8 -14    0.11    0.06 
  -1  -8 -14    0.23    0.07 
   0  -8 -14    0.02    0.08 
   1  -8 -14    0.86    0.14 
   2  -8 -14    2.33    0.24 
   3  -8 -14    0.10    0.12 
   4  -8 -14    1.12    0.16 
   5  -8 -14    1.03    0.17 
   6  -8 -14    0.05    0.11 
   7  -8 -14    2.39    0.23 
   8  -8 -14    0.28    0.10 
   9  -8 -14    4.36    0.39 
  -4  -7 -14    0.03    0.10 
  -3  -7 -14    0.05    0.05 
  -2  -7 -14    0.15    0.06 
  -1  -7 -14    0.14    0.07 
   0  -7 -14    0.67    0.10 
   1  -7 -14    0.90    0.13 
   2  -7 -14    0.30    0.10 
   3  -7 -14   -0.02    0.11 
   4  -7 -14    0.37    0.12 
   5  -7 -14    0.07    0.13 
   6  -7 -14    2.41    0.26 
   7  -7 -14    3.44    0.33 
   8  -7 -14    1.33    0.18 
   9  -7 -14    0.11    0.08 
  10  -7 -14   -0.05    0.09 
  -4  -6 -14    1.26    0.09 
  -3  -6 -14    0.02    0.05 
  -2  -6 -14   -0.02    0.06 
  -1  -6 -14    0.07    0.07 
   0  -6 -14    0.28    0.08 
   1  -6 -14    4.70    0.38 
   2  -6 -14   -0.04    0.09 
   3  -6 -14    0.59    0.13 
   4  -6 -14    0.96    0.16 
   5  -6 -14    0.06    0.11 
   6  -6 -14    1.65    0.20 
   7  -6 -14    0.18    0.12 
   8  -6 -14    2.69    0.25 
   9  -6 -14    0.50    0.12 
  10  -6 -14    1.20    0.14 
  -4  -5 -14   -0.06    0.04 
  -3  -5 -14    0.02    0.05 
  -2  -5 -14    0.07    0.07 
  -1  -5 -14    1.41    0.13 
   0  -5 -14    0.56    0.10 
   1  -5 -14    0.03    0.09 
   2  -5 -14    2.88    0.23 
   3  -5 -14    0.84    0.12 
   4  -5 -14    0.66    0.14 
   5  -5 -14    0.70    0.15 
   6  -5 -14    2.76    0.32 
   7  -5 -14    3.86    0.32 
   8  -5 -14    1.16    0.16 
   9  -5 -14    0.10    0.09 
  10  -5 -14    0.13    0.09 
  -4  -4 -14   -0.06    0.04 
  -3  -4 -14   -0.08    0.05 
  -2  -4 -14    0.33    0.08 
  -1  -4 -14   -0.01    0.07 
   0  -4 -14    1.87    0.17 
   1  -4 -14    0.30    0.09 
   2  -4 -14   -0.05    0.08 
   3  -4 -14    0.54    0.11 
   4  -4 -14    1.25    0.15 
   5  -4 -14    2.11    0.21 
   6  -4 -14    0.30    0.13 
   7  -4 -14    0.04    0.10 
   8  -4 -14    0.02    0.10 
   9  -4 -14    1.84    0.21 
  10  -4 -14    1.01    0.16 
  -4  -3 -14    0.01    0.04 
  -3  -3 -14   -0.06    0.05 
  -2  -3 -14    0.08    0.07 
  -1  -3 -14    0.22    0.08 
   0  -3 -14    0.32    0.10 
   1  -3 -14    0.49    0.10 
   2  -3 -14    0.36    0.10 
   3  -3 -14    1.70    0.17 
   4  -3 -14    0.41    0.11 
   5  -3 -14    1.73    0.20 
   6  -3 -14    0.98    0.15 
   7  -3 -14    0.27    0.12 
   8  -3 -14    0.32    0.11 
   9  -3 -14   -0.04    0.09 
  10  -3 -14    0.37    0.11 
  -4  -2 -14    0.03    0.04 
  -3  -2 -14    0.05    0.05 
  -2  -2 -14    0.11    0.07 
  -1  -2 -14    0.18    0.08 
   0  -2 -14    0.61    0.10 
   1  -2 -14   -0.16    0.07 
   2  -2 -14    0.25    0.09 
   3  -2 -14    0.17    0.09 
   4  -2 -14    1.03    0.15 
   5  -2 -14    0.02    0.09 
   6  -2 -14   -0.10    0.09 
   7  -2 -14    0.06    0.12 
   8  -2 -14    1.57    0.20 
   9  -2 -14    0.02    0.10 
  10  -2 -14   -0.13    0.09 
  -4  -1 -14    0.18    0.05 
  -3  -1 -14    0.07    0.06 
  -2  -1 -14    0.82    0.09 
  -1  -1 -14    0.08    0.07 
   0  -1 -14    0.14    0.08 
   1  -1 -14    1.40    0.15 
   2  -1 -14    4.55    0.34 
   3  -1 -14    2.27    0.21 
   4  -1 -14    1.03    0.14 
   5  -1 -14    0.18    0.09 
   6  -1 -14    0.04    0.10 
   7  -1 -14    1.45    0.19 
   8  -1 -14    1.76    0.20 
   9  -1 -14    0.19    0.11 
  10  -1 -14    0.04    0.08 
  -4   0 -14    0.12    0.05 
  -3   0 -14    1.64    0.12 
  -2   0 -14   -0.01    0.06 
  -1   0 -14    3.82    0.25 
   0   0 -14    4.69    0.29 
   1   0 -14    1.16    0.13 
   2   0 -14    3.58    0.27 
   3   0 -14    6.18    0.55 
   4   0 -14    4.90    0.39 
   5   0 -14    0.92    0.13 
   6   0 -14    1.45    0.16 
   7   0 -14    0.11    0.10 
   8   0 -14   -0.09    0.10 
   9   0 -14    1.34    0.17 
  10   0 -14    0.30    0.10 
  -4   1 -14    0.17    0.05 
  -3   1 -14    0.13    0.06 
  -2   1 -14    0.70    0.08 
  -1   1 -14   -0.02    0.07 
   0   1 -14    0.14    0.08 
   1   1 -14    1.70    0.15 
   2   1 -14    4.56    0.34 
   3   1 -14    2.22    0.21 
   4   1 -14    0.94    0.13 
   5   1 -14    0.25    0.11 
   6   1 -14    0.07    0.09 
   7   1 -14    1.55    0.21 
   8   1 -14    1.56    0.19 
   9   1 -14    0.06    0.09 
  10   1 -14   -0.04    0.09 
  -4   2 -14    0.06    0.05 
  -3   2 -14    0.02    0.05 
  -2   2 -14    0.08    0.07 
  -1   2 -14    0.20    0.07 
   0   2 -14    0.79    0.10 
   1   2 -14    0.22    0.09 
   2   2 -14    0.37    0.10 
   3   2 -14    0.25    0.10 
   4   2 -14    1.00    0.16 
   5   2 -14    0.04    0.09 
   6   2 -14    0.11    0.09 
   7   2 -14    0.06    0.11 
   8   2 -14    2.08    0.21 
   9   2 -14    0.03    0.10 
  10   2 -14    0.10    0.09 
  -4   3 -14    0.05    0.04 
  -3   3 -14    0.04    0.05 
  -2   3 -14    0.03    0.06 
  -1   3 -14    0.06    0.07 
   0   3 -14    0.28    0.09 
   1   3 -14    0.33    0.09 
   2   3 -14    0.35    0.09 
   3   3 -14    1.43    0.16 
   4   3 -14    0.34    0.10 
   5   3 -14    1.64    0.18 
   6   3 -14    1.27    0.19 
   7   3 -14    0.46    0.11 
   8   3 -14    0.24    0.10 
   9   3 -14    0.25    0.10 
  10   3 -14    0.57    0.10 
  -4   4 -14   -0.03    0.04 
  -3   4 -14    0.03    0.05 
  -2   4 -14    0.34    0.07 
  -1   4 -14   -0.13    0.07 
   0   4 -14    1.69    0.15 
   1   4 -14    0.13    0.09 
   2   4 -14    0.03    0.09 
   3   4 -14    0.30    0.10 
   4   4 -14    1.39    0.16 
   5   4 -14    1.39    0.22 
   6   4 -14    0.21    0.11 
   7   4 -14    0.18    0.10 
   8   4 -14    0.08    0.11 
   9   4 -14    2.56    0.22 
  10   4 -14    1.25    0.15 
  -4   5 -14    0.00    0.04 
  -3   5 -14   -0.07    0.05 
  -2   5 -14   -0.04    0.07 
  -1   5 -14    1.41    0.12 
   0   5 -14    0.54    0.09 
   1   5 -14    0.11    0.08 
   2   5 -14    2.65    0.22 
   3   5 -14    0.95    0.13 
   4   5 -14    0.76    0.13 
   5   5 -14    0.80    0.14 
   6   5 -14    2.82    0.28 
   7   5 -14    3.70    0.35 
   8   5 -14    1.05    0.15 
   9   5 -14   -0.03    0.08 
  10   5 -14    0.02    0.08 
  -4   6 -14    1.44    0.09 
  -3   6 -14    0.06    0.05 
  -2   6 -14   -0.07    0.06 
  -1   6 -14   -0.03    0.07 
   0   6 -14    0.48    0.10 
   1   6 -14    4.68    0.34 
   2   6 -14   -0.10    0.09 
   3   6 -14    0.53    0.11 
   4   6 -14    0.62    0.16 
   5   6 -14    0.19    0.11 
   6   6 -14    1.14    0.20 
   7   6 -14    0.37    0.12 
   8   6 -14    2.54    0.25 
   9   6 -14    0.60    0.12 
  10   6 -14    1.14    0.13 
  -4   7 -14    0.07    0.07 
  -3   7 -14    0.21    0.06 
  -2   7 -14    0.04    0.06 
  -1   7 -14    0.07    0.07 
   0   7 -14    0.52    0.10 
   1   7 -14    0.96    0.13 
   2   7 -14    0.09    0.10 
   3   7 -14    0.35    0.12 
   4   7 -14    0.51    0.13 
   5   7 -14    0.38    0.12 
   6   7 -14    2.94    0.29 
   7   7 -14    2.75    0.28 
   8   7 -14    1.19    0.16 
   9   7 -14    0.15    0.08 
  10   7 -14    0.05    0.08 
  -3   8 -14    0.41    0.06 
  -2   8 -14    0.34    0.06 
  -1   8 -14    0.21    0.07 
   0   8 -14    0.03    0.08 
   1   8 -14    1.11    0.14 
   2   8 -14    2.67    0.26 
   3   8 -14    0.27    0.11 
   4   8 -14    0.88    0.15 
   5   8 -14    1.30    0.19 
   6   8 -14    0.05    0.09 
   7   8 -14    2.30    0.22 
   8   8 -14    0.14    0.09 
   9   8 -14    3.82    0.38 
  -3   9 -14    0.30    0.06 
  -2   9 -14    0.17    0.07 
  -1   9 -14    1.11    0.10 
   0   9 -14    0.17    0.08 
   1   9 -14    0.22    0.10 
   2   9 -14    0.34    0.11 
   3   9 -14    0.30    0.12 
   4   9 -14   -0.09    0.11 
   5   9 -14   -0.07    0.11 
   6   9 -14    0.13    0.09 
   7   9 -14    0.69    0.13 
   8   9 -14    3.66    0.38 
   9   9 -14    0.14    0.08 
  -2  10 -14    0.03    0.06 
  -1  10 -14    0.00    0.07 
   0  10 -14    0.04    0.07 
   1  10 -14    6.73    0.55 
   2  10 -14    0.50    0.11 
   3  10 -14    0.59    0.15 
   4  10 -14    1.07    0.16 
   5  10 -14    0.62    0.13 
   6  10 -14    1.90    0.25 
   7  10 -14    4.20    0.44 
   8  10 -14    0.09    0.08 
  -2  11 -14   -0.05    0.05 
  -1  11 -14    0.89    0.10 
   0  11 -14    0.02    0.08 
   1  11 -14    2.46    0.22 
   2  11 -14   -0.02    0.10 
   3  11 -14    0.35    0.12 
   4  11 -14    1.25    0.18 
   5  11 -14    2.48    0.34 
   6  11 -14    1.61    0.21 
   7  11 -14    0.03    0.08 
   8  11 -14   -0.01    0.08 
  -1  12 -14    1.31    0.12 
   0  12 -14    0.28    0.08 
   1  12 -14   -0.10    0.07 
   2  12 -14    0.35    0.11 
   3  12 -14    0.24    0.11 
   4  12 -14    0.27    0.11 
   5  12 -14   -0.03    0.09 
   6  12 -14    0.11    0.09 
   7  12 -14    0.70    0.15 
   0  13 -14    0.24    0.08 
   1  13 -14   -0.01    0.08 
   2  13 -14    0.23    0.10 
   3  13 -14   -0.06    0.09 
   4  13 -14   -0.03    0.08 
   5  13 -14    0.07    0.08 
   6  13 -14    0.00    0.08 
   1  14 -14    0.99    0.14 
   2  14 -14    0.09    0.09 
   3  14 -14    0.50    0.10 
   4  14 -14   -0.05    0.08 
   5  14 -14    0.07    0.09 
   1 -16 -13    0.03    0.06 
   2 -16 -13    0.01    0.06 
   3 -16 -13    0.06    0.07 
   4 -16 -13   -0.15    0.07 
   5 -16 -13    0.24    0.09 
   0 -15 -13    0.22    0.07 
   1 -15 -13   -0.06    0.07 
   2 -15 -13    0.58    0.10 
   3 -15 -13    0.04    0.08 
   4 -15 -13    0.00    0.08 
   5 -15 -13   -0.05    0.07 
   6 -15 -13    1.33    0.20 
  -1 -14 -13   -0.01    0.06 
   0 -14 -13    1.23    0.13 
   1 -14 -13    2.05    0.21 
   2 -14 -13    0.02    0.09 
   3 -14 -13    0.92    0.14 
   4 -14 -13    0.10    0.09 
   5 -14 -13    0.90    0.13 
   6 -14 -13    0.15    0.08 
   7 -14 -13    0.63    0.10 
  -2 -13 -13    0.20    0.06 
  -1 -13 -13    0.10    0.07 
   0 -13 -13    0.20    0.08 
   1 -13 -13    0.18    0.08 
   2 -13 -13    0.27    0.10 
   3 -13 -13    1.49    0.19 
   4 -13 -13    0.15    0.10 
   5 -13 -13   -0.03    0.08 
   6 -13 -13    0.68    0.13 
   7 -13 -13    0.01    0.07 
   8 -13 -13    0.32    0.09 
  -3 -12 -13    0.24    0.06 
  -2 -12 -13   -0.06    0.05 
  -1 -12 -13    0.83    0.09 
   0 -12 -13    0.03    0.08 
   1 -12 -13    0.18    0.09 
   2 -12 -13    0.25    0.10 
   3 -12 -13    0.07    0.11 
   4 -12 -13    9.05    0.85 
   5 -12 -13    6.11    0.60 
   6 -12 -13    0.03    0.10 
   7 -12 -13    0.37    0.09 
   8 -12 -13    0.93    0.15 
  -3 -11 -13   -0.06    0.05 
  -2 -11 -13    0.05    0.06 
  -1 -11 -13    0.01    0.07 
   0 -11 -13   -0.06    0.08 
   1 -11 -13    2.13    0.19 
   2 -11 -13    1.50    0.18 
   3 -11 -13    1.30    0.21 
   4 -11 -13    0.07    0.11 
   5 -11 -13    0.64    0.15 
   6 -11 -13    4.30    0.40 
   7 -11 -13    0.06    0.10 
   8 -11 -13    1.09    0.17 
   9 -11 -13   -0.03    0.08 
  -4 -10 -13    0.01    0.04 
  -3 -10 -13    0.00    0.05 
  -2 -10 -13    0.11    0.07 
  -1 -10 -13    0.19    0.08 
   0 -10 -13    0.36    0.09 
   1 -10 -13    1.12    0.15 
   2 -10 -13    0.42    0.12 
   3 -10 -13    0.03    0.10 
   4 -10 -13    1.36    0.22 
   5 -10 -13    2.71    0.34 
   6 -10 -13    1.63    0.20 
   7 -10 -13    2.92    0.27 
   8 -10 -13    0.17    0.09 
   9 -10 -13    0.07    0.08 
  -4  -9 -13   -0.02    0.04 
  -3  -9 -13    0.21    0.06 
  -2  -9 -13    0.00    0.07 
  -1  -9 -13    0.04    0.08 
   0  -9 -13    0.23    0.08 
   1  -9 -13    4.58    0.34 
   2  -9 -13    0.34    0.10 
   3  -9 -13    3.15    0.30 
   4  -9 -13    0.52    0.13 
   5  -9 -13    8.39    0.77 
   6  -9 -13    0.40    0.14 
   7  -9 -13    0.08    0.10 
   8  -9 -13    4.02    0.35 
   9  -9 -13   -0.03    0.09 
  10  -9 -13    0.01    0.07 
  -5  -8 -13    0.78    0.12 
  -4  -8 -13    0.29    0.05 
  -3  -8 -13   -0.02    0.06 
  -2  -8 -13    0.00    0.06 
  -1  -8 -13    0.42    0.08 
   0  -8 -13    0.34    0.09 
   1  -8 -13   -0.06    0.09 
   2  -8 -13    0.06    0.09 
   3  -8 -13    2.19    0.22 
   4  -8 -13   10.27    0.82 
   5  -8 -13    1.31    0.17 
   6  -8 -13    1.00    0.17 
   7  -8 -13   -0.11    0.10 
   8  -8 -13    0.14    0.11 
   9  -8 -13    0.42    0.11 
  10  -8 -13   -0.04    0.08 
  -5  -7 -13    0.84    0.07 
  -4  -7 -13    0.34    0.06 
  -3  -7 -13   -0.01    0.06 
  -2  -7 -13   -0.01    0.07 
  -1  -7 -13    0.26    0.08 
   0  -7 -13    1.25    0.13 
   1  -7 -13    0.04    0.08 
   2  -7 -13    1.78    0.20 
   3  -7 -13    0.22    0.12 
   4  -7 -13    1.33    0.17 
   5  -7 -13    2.71    0.30 
   6  -7 -13    0.41    0.11 
   7  -7 -13    1.07    0.18 
   8  -7 -13    2.46    0.25 
   9  -7 -13    0.08    0.09 
  10  -7 -13    0.22    0.10 
  -5  -6 -13    0.87    0.07 
  -4  -6 -13    0.10    0.06 
  -3  -6 -13    0.15    0.06 
  -2  -6 -13    0.03    0.07 
  -1  -6 -13    0.09    0.08 
   0  -6 -13    4.04    0.26 
   1  -6 -13    0.21    0.09 
   2  -6 -13    3.23    0.26 
   3  -6 -13    0.17    0.09 
   4  -6 -13    0.18    0.10 
   5  -6 -13    0.15    0.10 
   6  -6 -13    3.07    0.29 
   7  -6 -13    7.74    0.76 
   8  -6 -13    2.80    0.29 
   9  -6 -13    0.14    0.11 
  10  -6 -13    0.26    0.09 
  11  -6 -13   -0.01    0.08 
  -5  -5 -13    0.40    0.06 
  -4  -5 -13    0.29    0.06 
  -3  -5 -13    0.01    0.06 
  -2  -5 -13    0.00    0.07 
  -1  -5 -13    0.00    0.08 
   0  -5 -13    0.79    0.10 
   1  -5 -13    3.85    0.28 
   2  -5 -13    7.27    0.50 
   3  -5 -13    0.92    0.13 
   4  -5 -13   -0.13    0.09 
   5  -5 -13    5.46    0.47 
   6  -5 -13    0.46    0.13 
   7  -5 -13    0.25    0.10 
   8  -5 -13    0.09    0.10 
   9  -5 -13    0.49    0.12 
  10  -5 -13    0.11    0.09 
  11  -5 -13   -0.07    0.08 
  -5  -4 -13    0.21    0.05 
  -4  -4 -13    0.04    0.06 
  -3  -4 -13    0.06    0.06 
  -2  -4 -13    0.37    0.08 
  -1  -4 -13    0.53    0.09 
   0  -4 -13    0.44    0.09 
   1  -4 -13    0.79    0.11 
   2  -4 -13    4.87    0.36 
   3  -4 -13    1.78    0.18 
   4  -4 -13    7.48    0.60 
   5  -4 -13    4.96    0.46 
   6  -4 -13    0.43    0.12 
   7  -4 -13    0.21    0.10 
   8  -4 -13    0.37    0.12 
   9  -4 -13    0.45    0.13 
  10  -4 -13    1.13    0.15 
  11  -4 -13    1.69    0.18 
  -5  -3 -13    0.48    0.06 
  -4  -3 -13    0.03    0.06 
  -3  -3 -13    0.21    0.07 
  -2  -3 -13    0.64    0.08 
  -1  -3 -13    0.56    0.09 
   0  -3 -13    0.87    0.11 
   1  -3 -13    0.16    0.08 
   2  -3 -13    1.03    0.13 
   3  -3 -13    3.21    0.25 
   4  -3 -13    0.11    0.10 
   5  -3 -13    6.64    0.67 
   6  -3 -13    0.30    0.11 
   7  -3 -13    0.93    0.15 
   8  -3 -13    0.16    0.11 
   9  -3 -13    1.63    0.19 
  10  -3 -13    0.06    0.10 
  11  -3 -13    0.18    0.09 
  -6  -2 -13    0.06    0.04 
  -5  -2 -13    1.08    0.09 
  -4  -2 -13    0.04    0.06 
  -3  -2 -13    0.07    0.07 
  -2  -2 -13    0.29    0.07 
  -1  -2 -13    0.32    0.09 
   0  -2 -13    0.06    0.07 
   1  -2 -13    5.50    0.33 
   2  -2 -13   19.50    1.22 
   3  -2 -13    4.36    0.33 
   4  -2 -13    0.02    0.11 
   5  -2 -13    0.06    0.10 
   6  -2 -13    5.17    0.41 
   7  -2 -13    0.51    0.13 
   8  -2 -13    0.04    0.11 
   9  -2 -13    1.91    0.23 
  10  -2 -13   -0.14    0.10 
  11  -2 -13    2.72    0.24 
  -6  -1 -13    0.03    0.04 
  -5  -1 -13    0.45    0.06 
  -4  -1 -13   -0.09    0.06 
  -3  -1 -13    0.17    0.07 
  -2  -1 -13    0.05    0.06 
  -1  -1 -13    0.13    0.08 
   0  -1 -13    0.18    0.08 
   1  -1 -13    1.14    0.13 
   2  -1 -13    5.35    0.40 
   3  -1 -13   13.91    0.97 
   4  -1 -13    0.72    0.13 
   5  -1 -13    6.88    0.60 
   6  -1 -13    1.37    0.18 
   7  -1 -13   -0.14    0.09 
   8  -1 -13   -0.07    0.10 
   9  -1 -13    1.61    0.22 
  10  -1 -13    0.14    0.11 
  11  -1 -13    0.43    0.12 
  -6   0 -13    0.01    0.04 
  -5   0 -13    0.01    0.05 
  -4   0 -13   -0.02    0.06 
  -3   0 -13   -0.08    0.07 
  -2   0 -13   -0.12    0.06 
  -1   0 -13   -0.02    0.07 
   0   0 -13    0.00    0.08 
   1   0 -13   -0.11    0.08 
   2   0 -13    0.13    0.09 
   3   0 -13    0.14    0.09 
   4   0 -13   -0.08    0.09 
   5   0 -13   -0.15    0.10 
   6   0 -13    0.03    0.10 
   7   0 -13    0.19    0.10 
   8   0 -13   -0.07    0.10 
   9   0 -13   -0.10    0.11 
  10   0 -13    0.14    0.10 
  11   0 -13    0.11    0.10 
  -6   1 -13   -0.02    0.04 
  -5   1 -13    0.61    0.07 
  -4   1 -13   -0.03    0.06 
  -3   1 -13    0.05    0.07 
  -2   1 -13    0.09    0.06 
  -1   1 -13    0.26    0.08 
   0   1 -13    0.16    0.08 
   1   1 -13    1.02    0.13 
   2   1 -13    5.41    0.40 
   3   1 -13   13.72    1.03 
   4   1 -13    0.81    0.14 
   5   1 -13    8.10    0.61 
   6   1 -13    1.38    0.18 
   7   1 -13   -0.08    0.09 
   8   1 -13    0.08    0.11 
   9   1 -13    1.60    0.19 
  10   1 -13    0.13    0.11 
  11   1 -13    0.38    0.12 
  -6   2 -13    0.06    0.04 
  -5   2 -13    1.15    0.09 
  -4   2 -13    0.09    0.06 
  -3   2 -13    0.13    0.07 
  -2   2 -13    0.27    0.07 
  -1   2 -13    0.33    0.08 
   0   2 -13    0.07    0.08 
   1   2 -13    5.87    0.35 
   2   2 -13   18.30    1.28 
   3   2 -13    4.39    0.32 
   4   2 -13    0.23    0.11 
   5   2 -13    0.14    0.11 
   6   2 -13    5.37    0.45 
   7   2 -13    0.55    0.13 
   8   2 -13   -0.02    0.11 
   9   2 -13    1.69    0.22 
  10   2 -13   -0.08    0.10 
  11   2 -13    2.98    0.28 
  -5   3 -13    0.45    0.07 
  -4   3 -13    0.01    0.06 
  -3   3 -13    0.24    0.07 
  -2   3 -13    0.71    0.08 
  -1   3 -13    0.56    0.09 
   0   3 -13    0.67    0.11 
   1   3 -13   -0.06    0.08 
   2   3 -13    0.95    0.13 
   3   3 -13    2.75    0.26 
   4   3 -13    0.18    0.10 
   5   3 -13    6.79    0.56 
   6   3 -13    0.26    0.11 
   7   3 -13    1.31    0.16 
   8   3 -13   -0.02    0.11 
   9   3 -13    1.56    0.19 
  10   3 -13    0.06    0.10 
  11   3 -13    0.12    0.10 
  -5   4 -13    0.08    0.05 
  -4   4 -13    0.17    0.06 
  -3   4 -13    0.03    0.06 
  -2   4 -13    0.50    0.08 
  -1   4 -13    0.68    0.09 
   0   4 -13    0.23    0.09 
   1   4 -13    0.88    0.11 
   2   4 -13    4.96    0.36 
   3   4 -13    1.87    0.19 
   4   4 -13    7.37    0.60 
   5   4 -13    6.21    0.47 
   6   4 -13    0.73    0.13 
   7   4 -13    0.12    0.11 
   8   4 -13    0.62    0.14 
   9   4 -13    0.78    0.14 
  10   4 -13    1.07    0.16 
  11   4 -13    1.79    0.18 
  -5   5 -13    0.58    0.06 
  -4   5 -13    0.35    0.06 
  -3   5 -13    0.04    0.06 
  -2   5 -13   -0.07    0.07 
  -1   5 -13    0.09    0.07 
   0   5 -13    0.39    0.09 
   1   5 -13    4.09    0.28 
   2   5 -13    6.98    0.52 
   3   5 -13    0.92    0.13 
   4   5 -13    0.04    0.10 
   5   5 -13    5.21    0.47 
   6   5 -13    0.27    0.10 
   7   5 -13    0.42    0.13 
   8   5 -13    0.29    0.11 
   9   5 -13    0.71    0.14 
  10   5 -13    0.22    0.09 
  11   5 -13    0.02    0.07 
  -5   6 -13    1.12    0.08 
  -4   6 -13    0.10    0.06 
  -3   6 -13    0.06    0.06 
  -2   6 -13    0.03    0.07 
  -1   6 -13   -0.01    0.07 
   0   6 -13    3.65    0.25 
   1   6 -13    0.07    0.09 
   2   6 -13    3.55    0.28 
   3   6 -13    0.06    0.11 
   4   6 -13    0.10    0.10 
   5   6 -13    0.30    0.11 
   6   6 -13    2.89    0.31 
   7   6 -13    8.18    0.68 
   8   6 -13    3.21    0.29 
   9   6 -13    0.03    0.10 
  10   6 -13    0.22    0.09 
  11   6 -13    0.04    0.07 
  -5   7 -13    1.05    0.08 
  -4   7 -13    0.33    0.06 
  -3   7 -13   -0.05    0.05 
  -2   7 -13    0.00    0.06 
  -1   7 -13    0.15    0.08 
   0   7 -13    1.26    0.13 
   1   7 -13    0.05    0.09 
   2   7 -13    1.83    0.18 
   3   7 -13    0.19    0.11 
   4   7 -13    1.32    0.18 
   5   7 -13    3.05    0.34 
   6   7 -13    0.30    0.12 
   7   7 -13    1.72    0.18 
   8   7 -13    2.71    0.29 
   9   7 -13    0.28    0.10 
  10   7 -13    0.14    0.08 
  -5   8 -13    0.78    0.10 
  -4   8 -13    0.31    0.06 
  -3   8 -13   -0.04    0.05 
  -2   8 -13   -0.07    0.07 
  -1   8 -13    0.29    0.08 
   0   8 -13    0.18    0.08 
   1   8 -13    0.20    0.09 
   2   8 -13    0.00    0.09 
   3   8 -13    2.59    0.24 
   4   8 -13    9.78    1.00 
   5   8 -13    1.41    0.17 
   6   8 -13    0.61    0.14 
   7   8 -13   -0.17    0.11 
   8   8 -13    0.06    0.10 
   9   8 -13    0.42    0.10 
  10   8 -13   -0.02    0.07 
  -4   9 -13   -0.10    0.04 
  -3   9 -13    0.19    0.06 
  -2   9 -13    0.05    0.06 
  -1   9 -13    0.08    0.08 
   0   9 -13    0.22    0.10 
   1   9 -13    4.70    0.32 
   2   9 -13    0.29    0.11 
   3   9 -13    3.30    0.28 
   4   9 -13    0.36    0.14 
   5   9 -13    8.12    0.77 
   6   9 -13    0.52    0.14 
   7   9 -13    0.23    0.11 
   8   9 -13    3.92    0.33 
   9   9 -13    0.15    0.09 
  10   9 -13    0.05    0.07 
  -4  10 -13   -0.04    0.04 
  -3  10 -13    0.00    0.06 
  -2  10 -13    0.09    0.07 
  -1  10 -13    0.21    0.08 
   0  10 -13    0.32    0.10 
   1  10 -13    1.01    0.14 
   2  10 -13    0.35    0.12 
   3  10 -13    0.08    0.12 
   4  10 -13    1.00    0.18 
   5  10 -13    3.57    0.31 
   6  10 -13    1.72    0.22 
   7  10 -13    2.58    0.23 
   8  10 -13    0.09    0.09 
   9  10 -13    0.11    0.08 
  -3  11 -13    0.02    0.05 
  -2  11 -13   -0.06    0.06 
  -1  11 -13   -0.09    0.07 
   0  11 -13    0.07    0.08 
   1  11 -13    2.09    0.20 
   2  11 -13    1.40    0.20 
   3  11 -13    1.29    0.20 
   4  11 -13   -0.06    0.11 
   5  11 -13    0.56    0.17 
   6  11 -13    3.90    0.44 
   7  11 -13    0.06    0.09 
   8  11 -13    1.47    0.17 
   9  11 -13    0.04    0.07 
  -3  12 -13    0.42    0.07 
  -2  12 -13   -0.07    0.06 
  -1  12 -13    0.63    0.09 
   0  12 -13   -0.07    0.07 
   1  12 -13    0.10    0.10 
   2  12 -13    0.50    0.12 
   3  12 -13    0.11    0.11 
   4  12 -13    8.65    0.95 
   5  12 -13    6.01    0.61 
   6  12 -13    0.11    0.09 
   7  12 -13    0.56    0.11 
   8  12 -13    0.96    0.14 
  -2  13 -13    0.12    0.06 
  -1  13 -13    0.00    0.07 
   0  13 -13    0.13    0.08 
   1  13 -13    0.34    0.11 
   2  13 -13    0.34    0.11 
   3  13 -13    1.10    0.19 
   4  13 -13    0.01    0.10 
   5  13 -13   -0.23    0.09 
   6  13 -13    0.58    0.15 
   7  13 -13    0.05    0.08 
   8  13 -13    0.27    0.08 
  -1  14 -13    0.02    0.07 
   0  14 -13    1.01    0.13 
   1  14 -13    2.40    0.22 
   2  14 -13   -0.01    0.10 
   3  14 -13    0.73    0.15 
   4  14 -13    0.06    0.10 
   5  14 -13    0.57    0.13 
   6  14 -13    0.36    0.10 
   7  14 -13    0.81    0.12 
   0  15 -13    0.25    0.08 
   1  15 -13    0.01    0.08 
   2  15 -13    0.42    0.11 
   3  15 -13    0.15    0.09 
   4  15 -13    0.01    0.10 
   5  15 -13    0.05    0.08 
   6  15 -13    1.01    0.14 
   1  16 -13   -0.02    0.07 
   2  16 -13    0.09    0.08 
   3  16 -13   -0.12    0.08 
   4  16 -13    0.02    0.09 
   5  16 -13    0.54    0.11 
   2 -18 -12    0.82    0.17 
   3 -18 -12    0.05    0.06 
   0 -17 -12    0.35    0.07 
   1 -17 -12   -0.12    0.06 
   2 -17 -12    0.66    0.12 
   3 -17 -12    0.33    0.09 
   4 -17 -12    0.05    0.08 
   5 -17 -12    1.53    0.17 
  -1 -16 -12    0.08    0.06 
   0 -16 -12    1.73    0.17 
   1 -16 -12    0.13    0.09 
   2 -16 -12   -0.03    0.08 
   3 -16 -12    0.04    0.09 
   4 -16 -12   -0.11    0.08 
   5 -16 -12    0.02    0.08 
   6 -16 -12    0.09    0.07 
   7 -16 -12    0.16    0.07 
  -2 -15 -12    0.06    0.06 
  -1 -15 -12    0.09    0.07 
   0 -15 -12    0.61    0.11 
   1 -15 -12    2.19    0.18 
   2 -15 -12    0.19    0.10 
   3 -15 -12    1.10    0.17 
   4 -15 -12    0.52    0.13 
   5 -15 -12    0.60    0.13 
   6 -15 -12    1.36    0.17 
   7 -15 -12   -0.03    0.06 
  -3 -14 -12    1.22    0.11 
  -2 -14 -12    0.05    0.07 
  -1 -14 -12    0.02    0.07 
   0 -14 -12    0.12    0.08 
   1 -14 -12    1.93    0.19 
   2 -14 -12   -0.08    0.11 
   3 -14 -12    0.76    0.13 
   4 -14 -12   -0.14    0.10 
   5 -14 -12    2.27    0.27 
   6 -14 -12    0.17    0.10 
   7 -14 -12    1.20    0.18 
   8 -14 -12    0.30    0.10 
  -4 -13 -12   -0.01    0.04 
  -3 -13 -12   -0.01    0.06 
  -2 -13 -12   -0.09    0.07 
  -1 -13 -12    0.03    0.08 
   0 -13 -12   -0.05    0.08 
   1 -13 -12    1.27    0.14 
   2 -13 -12    0.40    0.12 
   3 -13 -12    0.65    0.14 
   4 -13 -12    3.67    0.41 
   5 -13 -12    1.93    0.22 
   6 -13 -12    0.81    0.15 
   7 -13 -12    0.30    0.11 
   8 -13 -12    0.12    0.09 
   9 -13 -12    0.08    0.07 
  -4 -12 -12    0.00    0.04 
  -3 -12 -12    0.74    0.08 
  -2 -12 -12    0.37    0.07 
  -1 -12 -12    0.53    0.10 
   0 -12 -12    0.22    0.09 
   1 -12 -12    0.75    0.13 
   2 -12 -12   -0.03    0.09 
   3 -12 -12    4.14    0.46 
   4 -12 -12    0.17    0.11 
   5 -12 -12    3.62    0.38 
   6 -12 -12    2.42    0.29 
   7 -12 -12    0.07    0.09 
   8 -12 -12    0.02    0.10 
   9 -12 -12    0.39    0.10 
  -5 -11 -12    0.14    0.04 
  -4 -11 -12    0.00    0.04 
  -3 -11 -12    0.51    0.08 
  -2 -11 -12    0.08    0.07 
  -1 -11 -12    1.71    0.14 
   0 -11 -12    0.78    0.11 
   1 -11 -12   -0.08    0.09 
   2 -11 -12    0.36    0.11 
   3 -11 -12    1.20    0.19 
   4 -11 -12    3.15    0.32 
   5 -11 -12    4.75    0.45 
   6 -11 -12    5.87    0.57 
   7 -11 -12    0.09    0.10 
   8 -11 -12    1.51    0.18 
   9 -11 -12    0.78    0.12 
  10 -11 -12    0.44    0.10 
  -5 -10 -12    0.04    0.04 
  -4 -10 -12    0.26    0.06 
  -3 -10 -12   -0.02    0.06 
  -2 -10 -12    0.08    0.07 
  -1 -10 -12   -0.03    0.07 
   0 -10 -12    1.67    0.16 
   1 -10 -12    0.48    0.10 
   2 -10 -12    0.07    0.10 
   3 -10 -12    6.44    0.52 
   4 -10 -12    1.42    0.19 
   5 -10 -12    0.34    0.11 
   6 -10 -12    9.39    0.87 
   7 -10 -12    2.07    0.25 
   8 -10 -12    0.24    0.11 
   9 -10 -12    0.43    0.11 
  10 -10 -12    0.27    0.09 
  -5  -9 -12    0.09    0.05 
  -4  -9 -12   -0.02    0.06 
  -3  -9 -12    0.05    0.07 
  -2  -9 -12   -0.07    0.07 
  -1  -9 -12   -0.05    0.07 
   0  -9 -12    0.09    0.08 
   1  -9 -12    1.54    0.16 
   2  -9 -12    0.25    0.10 
   3  -9 -12    1.03    0.14 
   4  -9 -12    2.66    0.31 
   5  -9 -12    6.13    0.53 
   6  -9 -12    0.84    0.14 
   7  -9 -12    1.06    0.18 
   8  -9 -12   -0.12    0.10 
   9  -9 -12    0.09    0.09 
  10  -9 -12    0.29    0.09 
  11  -9 -12    0.14    0.17 
  -6  -8 -12    0.49    0.05 
  -5  -8 -12   -0.01    0.05 
  -4  -8 -12    0.22    0.07 
  -3  -8 -12   -0.03    0.06 
  -2  -8 -12    0.66    0.09 
  -1  -8 -12    0.22    0.08 
   0  -8 -12    2.06    0.17 
   1  -8 -12    0.40    0.10 
   2  -8 -12   -0.04    0.08 
   3  -8 -12    8.92    0.70 
   4  -8 -12   16.64    1.39 
   5  -8 -12   16.58    1.38 
   6  -8 -12    0.35    0.11 
   7  -8 -12    0.02    0.10 
   8  -8 -12    0.09    0.13 
   9  -8 -12    0.00    0.11 
  10  -8 -12    0.53    0.11 
  11  -8 -12    0.05    0.08 
  -6  -7 -12    0.19    0.04 
  -5  -7 -12    0.05    0.06 
  -4  -7 -12    0.15    0.07 
  -3  -7 -12    0.00    0.07 
  -2  -7 -12    0.13    0.07 
  -1  -7 -12   -0.01    0.08 
   0  -7 -12    0.48    0.10 
   1  -7 -12    0.09    0.09 
   2  -7 -12    2.12    0.21 
   3  -7 -12   33.05    2.47 
   4  -7 -12    2.08    0.22 
   5  -7 -12    3.12    0.31 
   6  -7 -12    0.68    0.13 
   7  -7 -12    0.24    0.11 
   8  -7 -12    1.26    0.21 
   9  -7 -12    0.55    0.15 
  10  -7 -12    1.43    0.22 
  11  -7 -12    0.22    0.10 
  -6  -6 -12    0.03    0.04 
  -5  -6 -12    0.04    0.06 
  -4  -6 -12    0.27    0.07 
  -3  -6 -12    0.49    0.08 
  -2  -6 -12    0.05    0.06 
  -1  -6 -12   -0.17    0.08 
   0  -6 -12    0.21    0.09 
   1  -6 -12    0.06    0.09 
   2  -6 -12    1.02    0.14 
   3  -6 -12    1.72    0.18 
   4  -6 -12    3.27    0.28 
   5  -6 -12    4.05    0.40 
   6  -6 -12   16.77    1.35 
   7  -6 -12    0.39    0.13 
   8  -6 -12    2.04    0.24 
   9  -6 -12    1.45    0.20 
  10  -6 -12    0.22    0.14 
  11  -6 -12    0.53    0.12 
  -6  -5 -12    0.01    0.05 
  -5  -5 -12   -0.02    0.06 
  -4  -5 -12    0.04    0.07 
  -3  -5 -12    0.24    0.07 
  -2  -5 -12    1.52    0.11 
  -1  -5 -12    0.40    0.09 
   0  -5 -12    0.02    0.08 
   1  -5 -12    3.81    0.34 
   2  -5 -12    2.31    0.37 
   3  -5 -12    1.95    0.41 
   4  -5 -12   12.31    1.59 
   5  -5 -12    1.57    0.21 
   6  -5 -12    0.31    0.13 
   7  -5 -12    6.28    0.61 
   8  -5 -12   -0.21    0.10 
   9  -5 -12    0.37    0.15 
  10  -5 -12    0.99    0.20 
  11  -5 -12    0.20    0.12 
  -6  -4 -12    0.84    0.08 
  -5  -4 -12    0.17    0.07 
  -4  -4 -12    0.02    0.07 
  -3  -4 -12    0.10    0.06 
  -2  -4 -12    4.54    0.24 
  -1  -4 -12    0.03    0.07 
   0  -4 -12    0.44    0.10 
   1  -4 -12    1.16    0.29 
   2  -4 -12    3.29    0.50 
   3  -4 -12   10.25    1.58 
   4  -4 -12   10.94    2.11 
   5  -4 -12    2.37    0.28 
   6  -4 -12    0.51    0.13 
   7  -4 -12    0.30    0.11 
   8  -4 -12    0.29    0.13 
   9  -4 -12   -0.05    0.13 
  10  -4 -12    1.26    0.19 
  11  -4 -12    0.05    0.12 
  12  -4 -12    0.30    0.11 
  -6  -3 -12    0.04    0.05 
  -5  -3 -12    0.01    0.06 
  -4  -3 -12    0.01    0.07 
  -3  -3 -12    0.01    0.06 
  -2  -3 -12    0.36    0.07 
  -1  -3 -12    0.09    0.08 
   0  -3 -12    3.86    0.48 
   1  -3 -12    0.50    0.19 
   2  -3 -12    0.74    0.20 
   3  -3 -12    8.57    1.72 
   4  -3 -12    7.85    1.67 
   5  -3 -12    0.17    0.23 
   6  -3 -12    0.20    0.11 
   7  -3 -12    0.03    0.10 
   8  -3 -12   -0.03    0.11 
   9  -3 -12   -0.08    0.13 
  10  -3 -12    1.24    0.23 
  11  -3 -12    0.65    0.16 
  12  -3 -12   -0.13    0.09 
  -7  -2 -12    0.09    0.04 
  -6  -2 -12    0.45    0.07 
  -5  -2 -12    0.00    0.06 
  -4  -2 -12    0.40    0.08 
  -3  -2 -12   -0.01    0.06 
  -2  -2 -12    0.34    0.07 
  -1  -2 -12    0.66    0.09 
   0  -2 -12   -0.21    0.13 
   1  -2 -12    0.14    0.13 
   2  -2 -12    0.09    0.13 
   3  -2 -12    3.93    0.78 
   4  -2 -12   -0.15    0.14 
   5  -2 -12    0.21    0.19 
   6  -2 -12    3.32    0.32 
   7  -2 -12   10.20    0.84 
   8  -2 -12    0.83    0.15 
   9  -2 -12    0.03    0.13 
  10  -2 -12    0.84    0.18 
  11  -2 -12    0.37    0.13 
  12  -2 -12    0.19    0.11 
  -7  -1 -12    0.28    0.05 
  -6  -1 -12   -0.04    0.06 
  -5  -1 -12   -0.10    0.06 
  -4  -1 -12   -0.01    0.07 
  -3  -1 -12    1.30    0.11 
  -2  -1 -12    2.84    0.17 
  -1  -1 -12    0.08    0.07 
   0  -1 -12    0.68    0.21 
   1  -1 -12   -0.11    0.12 
   2  -1 -12    0.11    0.18 
   3  -1 -12    0.48    0.22 
   4  -1 -12    1.11    0.34 
   5  -1 -12    0.09    0.19 
   6  -1 -12    0.09    0.11 
   7  -1 -12    1.34    0.19 
   8  -1 -12    0.86    0.17 
   9  -1 -12    0.09    0.14 
  10  -1 -12    0.64    0.17 
  11  -1 -12    0.11    0.13 
  12  -1 -12    0.00    0.10 
  -7   0 -12    4.44    0.28 
  -6   0 -12    0.06    0.05 
  -5   0 -12    0.49    0.08 
  -4   0 -12    1.70    0.13 
  -3   0 -12   -0.11    0.06 
  -2   0 -12    7.11    0.34 
  -1   0 -12   10.07    0.53 
   0   0 -12    0.35    0.17 
   1   0 -12   -0.03    0.13 
   2   0 -12    0.88    0.32 
   3   0 -12   22.50    4.61 
   4   0 -12   16.17    3.57 
   5   0 -12   46.98    9.16 
   6   0 -12    9.97    0.77 
   7   0 -12   -0.04    0.10 
   8   0 -12    0.07    0.11 
   9   0 -12    2.00    0.29 
  10   0 -12    1.46    0.29 
  11   0 -12   -0.14    0.12 
  12   0 -12   -0.10    0.10 
  -7   1 -12    0.31    0.06 
  -6   1 -12    0.09    0.05 
  -5   1 -12   -0.04    0.06 
  -4   1 -12   -0.01    0.07 
  -3   1 -12    1.32    0.11 
  -2   1 -12    2.79    0.16 
  -1   1 -12    0.10    0.08 
   0   1 -12    1.05    0.24 
   1   1 -12   -0.11    0.13 
   2   1 -12   -0.13    0.15 
   3   1 -12    1.09    0.29 
   4   1 -12    0.87    0.30 
   5   1 -12    0.00    0.19 
   6   1 -12   -0.13    0.10 
   7   1 -12    1.24    0.19 
   8   1 -12    0.84    0.14 
   9   1 -12    0.03    0.12 
  10   1 -12    1.03    0.19 
  11   1 -12    0.20    0.14 
  12   1 -12    0.10    0.11 
  -7   2 -12    0.15    0.05 
  -6   2 -12    0.68    0.07 
  -5   2 -12    0.06    0.06 
  -4   2 -12    0.09    0.07 
  -3   2 -12   -0.09    0.06 
  -2   2 -12    0.31    0.07 
  -1   2 -12    0.66    0.09 
   0   2 -12    0.00    0.15 
   1   2 -12    0.20    0.23 
   2   2 -12    0.06    0.16 
   3   2 -12    3.38    0.78 
   4   2 -12    0.05    0.18 
   5   2 -12    0.02    0.17 
   6   2 -12    4.02    0.34 
   7   2 -12    9.51    0.76 
   8   2 -12    0.73    0.13 
   9   2 -12   -0.20    0.14 
  10   2 -12    0.60    0.18 
  11   2 -12    0.06    0.16 
  12   2 -12    0.19    0.11 
  -6   3 -12    0.09    0.05 
  -5   3 -12    0.18    0.06 
  -4   3 -12    0.05    0.07 
  -3   3 -12    0.07    0.07 
  -2   3 -12    0.41    0.07 
  -1   3 -12    0.06    0.08 
   0   3 -12    3.22    0.46 
   1   3 -12    0.86    0.31 
   2   3 -12    0.42    0.25 
   3   3 -12    7.68    1.73 
   4   3 -12    8.44    1.68 
   5   3 -12    0.63    0.25 
   6   3 -12    0.18    0.11 
   7   3 -12   -0.01    0.09 
   8   3 -12   -0.12    0.11 
   9   3 -12    0.16    0.15 
  10   3 -12    1.78    0.24 
  11   3 -12    1.02    0.18 
  12   3 -12    0.20    0.09 
  -6   4 -12    0.87    0.09 
  -5   4 -12    0.08    0.06 
  -4   4 -12    0.19    0.07 
  -3   4 -12   -0.07    0.06 
  -2   4 -12    5.04    0.24 
  -1   4 -12    0.01    0.07 
   0   4 -12    0.50    0.10 
   1   4 -12    1.45    0.44 
   2   4 -12    2.84    0.72 
   3   4 -12   10.32    2.23 
   4   4 -12    9.22    2.11 
   5   4 -12    2.84    0.29 
   6   4 -12    0.56    0.12 
   7   4 -12    0.48    0.12 
   8   4 -12    0.23    0.12 
   9   4 -12    0.09    0.13 
  10   4 -12    2.09    0.26 
  11   4 -12   -0.11    0.12 
  12   4 -12    0.52    0.12 
  -6   5 -12   -0.08    0.05 
  -5   5 -12    0.00    0.06 
  -4   5 -12   -0.01    0.07 
  -3   5 -12    0.33    0.07 
  -2   5 -12    1.64    0.11 
  -1   5 -12    0.50    0.09 
   0   5 -12   -0.02    0.08 
   1   5 -12    3.95    0.36 
   2   5 -12    1.35    0.49 
   3   5 -12    2.46    0.61 
   4   5 -12   14.32    1.95 
   5   5 -12    2.23    0.22 
   6   5 -12    0.41    0.11 
   7   5 -12    7.26    0.56 
   8   5 -12    0.07    0.11 
   9   5 -12    0.18    0.16 
  10   5 -12    0.79    0.19 
  11   5 -12    0.24    0.11 
  -6   6 -12    0.02    0.05 
  -5   6 -12    0.03    0.06 
  -4   6 -12    0.26    0.07 
  -3   6 -12    0.55    0.08 
  -2   6 -12    0.05    0.07 
  -1   6 -12   -0.02    0.08 
   0   6 -12    0.24    0.09 
   1   6 -12    0.04    0.09 
   2   6 -12    0.62    0.13 
   3   6 -12    2.04    0.19 
   4   6 -12    4.37    0.32 
   5   6 -12    5.12    0.41 
   6   6 -12   19.44    1.36 
   7   6 -12    1.02    0.14 
   8   6 -12    2.01    0.23 
   9   6 -12    1.23    0.20 
  10   6 -12    0.10    0.11 
  11   6 -12    0.65    0.15 
  -6   7 -12    0.13    0.05 
  -5   7 -12   -0.01    0.06 
  -4   7 -12    0.17    0.06 
  -3   7 -12    0.18    0.07 
  -2   7 -12    0.01    0.07 
  -1   7 -12   -0.05    0.08 
   0   7 -12    0.32    0.10 
   1   7 -12    0.06    0.09 
   2   7 -12    2.02    0.20 
   3   7 -12   35.17    2.46 
   4   7 -12    2.74    0.24 
   5   7 -12    2.64    0.27 
   6   7 -12    0.55    0.13 
   7   7 -12    0.13    0.11 
   8   7 -12    2.35    0.25 
   9   7 -12    0.80    0.16 
  10   7 -12    1.50    0.19 
  11   7 -12    0.11    0.08 
  -6   8 -12    0.58    0.06 
  -5   8 -12    0.16    0.06 
  -4   8 -12    0.33    0.07 
  -3   8 -12    0.10    0.07 
  -2   8 -12    0.49    0.08 
  -1   8 -12    0.32    0.09 
   0   8 -12    1.96    0.18 
   1   8 -12    0.26    0.09 
   2   8 -12   -0.01    0.10 
   3   8 -12    8.96    0.69 
   4   8 -12   17.62    1.28 
   5   8 -12   17.85    1.38 
   6   8 -12    0.52    0.14 
   7   8 -12   -0.06    0.10 
   8   8 -12    0.24    0.12 
   9   8 -12    0.10    0.12 
  10   8 -12    0.50    0.12 
  11   8 -12   -0.02    0.06 
  -5   9 -12    0.15    0.05 
  -4   9 -12    0.02    0.06 
  -3   9 -12    0.04    0.06 
  -2   9 -12   -0.05    0.07 
  -1   9 -12    0.02    0.08 
   0   9 -12    0.20    0.09 
   1   9 -12    1.66    0.17 
   2   9 -12    0.42    0.11 
   3   9 -12    1.01    0.15 
   4   9 -12    3.17    0.29 
   5   9 -12    7.29    0.58 
   6   9 -12    0.69    0.13 
   7   9 -12    1.01    0.17 
   8   9 -12   -0.22    0.09 
   9   9 -12    0.15    0.10 
  10   9 -12    0.24    0.08 
  11   9 -12    0.06    0.09 
  -5  10 -12    0.04    0.04 
  -4  10 -12    0.45    0.07 
  -3  10 -12    0.18    0.06 
  -2  10 -12    0.08    0.07 
  -1  10 -12    0.02    0.08 
   0  10 -12    1.29    0.14 
   1  10 -12    0.39    0.11 
   2  10 -12    0.07    0.11 
   3  10 -12    6.67    0.52 
   4  10 -12    1.42    0.18 
   5  10 -12    0.23    0.12 
   6  10 -12    9.57    0.79 
   7  10 -12    1.71    0.22 
   8  10 -12    0.76    0.13 
   9  10 -12    0.32    0.09 
  10  10 -12    0.15    0.07 
  -5  11 -12    0.25    0.04 
  -4  11 -12    0.02    0.05 
  -3  11 -12    0.64    0.08 
  -2  11 -12    0.03    0.07 
  -1  11 -12    1.77    0.15 
   0  11 -12    0.58    0.13 
   1  11 -12   -0.10    0.09 
   2  11 -12    0.74    0.12 
   3  11 -12    1.63    0.19 
   4  11 -12    3.85    0.37 
   5  11 -12    5.00    0.41 
   6  11 -12    7.06    0.58 
   7  11 -12    0.04    0.11 
   8  11 -12    1.20    0.16 
   9  11 -12    0.71    0.11 
  10  11 -12    0.35    0.09 
  -4  12 -12   -0.02    0.05 
  -3  12 -12    0.63    0.09 
  -2  12 -12    0.29    0.07 
  -1  12 -12    0.47    0.10 
   0  12 -12   -0.02    0.09 
   1  12 -12    0.70    0.13 
   2  12 -12    0.06    0.11 
   3  12 -12    5.08    0.55 
   4  12 -12    0.27    0.14 
   5  12 -12    4.01    0.38 
   6  12 -12    2.67    0.29 
   7  12 -12    0.21    0.11 
   8  12 -12    0.10    0.08 
   9  12 -12    0.23    0.09 
  -4  13 -12   -0.03    0.04 
  -3  13 -12    0.07    0.06 
  -2  13 -12    0.00    0.07 
  -1  13 -12    0.08    0.08 
   0  13 -12    0.08    0.09 
   1  13 -12    1.27    0.16 
   2  13 -12    0.56    0.13 
   3  13 -12    0.65    0.16 
   4  13 -12    4.18    0.38 
   5  13 -12    2.35    0.27 
   6  13 -12    0.83    0.16 
   7  13 -12    0.33    0.10 
   8  13 -12    0.14    0.08 
   9  13 -12   -0.03    0.06 
  -3  14 -12    1.10    0.11 
  -2  14 -12    0.11    0.07 
  -1  14 -12    0.03    0.07 
   0  14 -12   -0.03    0.08 
   1  14 -12    1.88    0.18 
   2  14 -12    0.11    0.12 
   3  14 -12    0.27    0.12 
   4  14 -12   -0.10    0.09 
   5  14 -12    2.44    0.29 
   6  14 -12    0.20    0.11 
   7  14 -12    1.33    0.15 
   8  14 -12    0.23    0.08 
  -2  15 -12    0.18    0.07 
  -1  15 -12    0.33    0.07 
   0  15 -12    0.57    0.10 
   1  15 -12    1.89    0.22 
   2  15 -12    0.26    0.12 
   3  15 -12    0.96    0.16 
   4  15 -12    0.49    0.13 
   5  15 -12    1.18    0.16 
   6  15 -12    1.39    0.18 
   7  15 -12   -0.03    0.07 
  -1  16 -12   -0.02    0.07 
   0  16 -12    2.03    0.18 
   1  16 -12    0.04    0.10 
   2  16 -12    0.16    0.09 
   3  16 -12    0.09    0.10 
   4  16 -12   -0.07    0.09 
   5  16 -12    0.06    0.09 
   6  16 -12    0.16    0.10 
   7  16 -12    0.30    0.09 
   0  17 -12    0.19    0.08 
   1  17 -12    0.18    0.09 
   2  17 -12    0.52    0.11 
   3  17 -12    0.26    0.09 
   4  17 -12   -0.06    0.08 
   5  17 -12    1.53    0.20 
   2  18 -12    0.88    0.30 
   3  18 -12    0.03    0.13 
   1 -19 -11    0.33    0.08 
   2 -19 -11    0.00    0.06 
   3 -19 -11    0.11    0.07 
   4 -19 -11   -0.01    0.06 
  -1 -18 -11   -0.04    0.07 
   0 -18 -11   -0.01    0.07 
   1 -18 -11    0.07    0.08 
   2 -18 -11    0.22    0.09 
   3 -18 -11    0.17    0.08 
   4 -18 -11    0.20    0.08 
   5 -18 -11    1.72    0.20 
   6 -18 -11   -0.05    0.06 
  -2 -17 -11    1.74    0.16 
  -1 -17 -11    0.15    0.07 
   0 -17 -11   -0.06    0.08 
   1 -17 -11    0.35    0.11 
   2 -17 -11    0.22    0.09 
   3 -17 -11    0.55    0.13 
   4 -17 -11   -0.01    0.10 
   5 -17 -11    0.99    0.14 
   6 -17 -11    1.75    0.20 
   7 -17 -11    0.18    0.06 
  -3 -16 -11    0.30    0.06 
  -2 -16 -11    0.14    0.06 
  -1 -16 -11    4.59    0.33 
   0 -16 -11    1.93    0.18 
   1 -16 -11    0.13    0.10 
   2 -16 -11    0.54    0.12 
   3 -16 -11    0.23    0.12 
   4 -16 -11    3.14    0.34 
   5 -16 -11    0.03    0.09 
   6 -16 -11    0.29    0.10 
   7 -16 -11    1.43    0.17 
   8 -16 -11    0.20    0.06 
  -4 -15 -11    0.23    0.06 
  -3 -15 -11   -0.05    0.06 
  -2 -15 -11   -0.04    0.07 
  -1 -15 -11   -0.07    0.08 
   0 -15 -11    1.56    0.16 
   1 -15 -11    0.00    0.09 
   2 -15 -11    0.60    0.13 
   3 -15 -11   -0.09    0.11 
   4 -15 -11    0.87    0.15 
   5 -15 -11    3.39    0.36 
   6 -15 -11    0.28    0.10 
   7 -15 -11    0.42    0.10 
   8 -15 -11    0.22    0.08 
  -4 -14 -11    0.04    0.05 
  -3 -14 -11    0.92    0.10 
  -2 -14 -11    0.13    0.07 
  -1 -14 -11   -0.01    0.09 
   0 -14 -11    0.17    0.09 
   1 -14 -11    0.53    0.12 
   2 -14 -11    1.21    0.19 
   3 -14 -11    0.59    0.13 
   4 -14 -11    0.15    0.12 
   5 -14 -11    0.95    0.18 
   6 -14 -11    2.46    0.25 
   7 -14 -11    0.04    0.08 
   8 -14 -11    1.29    0.14 
   9 -14 -11    0.05    0.08 
  -5 -13 -11    0.04    0.03 
  -4 -13 -11    0.06    0.05 
  -3 -13 -11    0.00    0.07 
  -2 -13 -11    0.90    0.10 
  -1 -13 -11    0.50    0.11 
   0 -13 -11   -0.01    0.08 
   1 -13 -11    0.08    0.09 
   2 -13 -11    1.16    0.16 
   3 -13 -11    9.20    0.74 
   4 -13 -11    1.45    0.21 
   5 -13 -11    1.91    0.22 
   6 -13 -11    2.48    0.31 
   7 -13 -11   -0.03    0.10 
   8 -13 -11    0.06    0.09 
   9 -13 -11    0.17    0.09 
  10 -13 -11   -0.01    0.08 
  -5 -12 -11    0.13    0.04 
  -4 -12 -11   -0.02    0.05 
  -3 -12 -11    0.31    0.07 
  -2 -12 -11    0.05    0.08 
  -1 -12 -11    0.20    0.09 
   0 -12 -11    1.76    0.18 
   1 -12 -11    0.08    0.09 
   2 -12 -11    0.02    0.09 
   3 -12 -11    8.11    0.67 
   4 -12 -11   -0.10    0.09 
   5 -12 -11    0.23    0.11 
   6 -12 -11    0.32    0.15 
   7 -12 -11    0.14    0.12 
   8 -12 -11   -0.01    0.11 
   9 -12 -11    0.03    0.08 
  10 -12 -11    0.06    0.09 
  -6 -11 -11   -0.05    0.04 
  -5 -11 -11    0.26    0.06 
  -4 -11 -11    0.11    0.06 
  -3 -11 -11    2.35    0.15 
  -2 -11 -11    0.35    0.08 
  -1 -11 -11    0.17    0.08 
   0 -11 -11    0.15    0.09 
   1 -11 -11    0.00    0.09 
   2 -11 -11    0.09    0.09 
   3 -11 -11    1.11    0.17 
   4 -11 -11   -0.13    0.10 
   5 -11 -11    2.34    0.28 
   6 -11 -11   -0.03    0.11 
   7 -11 -11    4.69    0.42 
   8 -11 -11    0.32    0.12 
   9 -11 -11    0.48    0.12 
  10 -11 -11    0.54    0.13 
  -6 -10 -11   -0.02    0.04 
  -5 -10 -11    0.03    0.05 
  -4 -10 -11    1.24    0.10 
  -3 -10 -11    0.56    0.08 
  -2 -10 -11    0.94    0.11 
  -1 -10 -11   -0.01    0.08 
   0 -10 -11    0.83    0.12 
   1 -10 -11   10.99    0.73 
   2 -10 -11   22.79    1.61 
   3 -10 -11    5.13    0.45 
   4 -10 -11    1.44    0.19 
   5 -10 -11    2.17    0.25 
   6 -10 -11    1.74    0.20 
   7 -10 -11    1.52    0.20 
   8 -10 -11    0.68    0.17 
   9 -10 -11    0.03    0.12 
  10 -10 -11   -0.08    0.09 
  11 -10 -11    0.70    0.11 
  -6  -9 -11    0.01    0.05 
  -5  -9 -11    0.61    0.08 
  -4  -9 -11    2.17    0.14 
  -3  -9 -11    0.51    0.07 
  -2  -9 -11    0.21    0.08 
  -1  -9 -11   -0.04    0.08 
   0  -9 -11    8.21    0.51 
   1  -9 -11    8.05    0.52 
   2  -9 -11   16.46    1.35 
   3  -9 -11   18.46    1.64 
   4  -9 -11    0.09    0.13 
   5  -9 -11   10.80    0.87 
   6  -9 -11    4.70    0.41 
   7  -9 -11    2.10    0.24 
   8  -9 -11    0.23    0.12 
   9  -9 -11    0.26    0.16 
  10  -9 -11    0.09    0.13 
  11  -9 -11    0.06    0.11 
  -7  -8 -11   -0.01    0.04 
  -6  -8 -11    1.15    0.10 
  -5  -8 -11    1.69    0.13 
  -4  -8 -11    2.31    0.15 
  -3  -8 -11    0.62    0.08 
  -2  -8 -11    0.12    0.07 
  -1  -8 -11    3.20    0.24 
   0  -8 -11    3.95    0.29 
   1  -8 -11    0.12    0.22 
   2  -8 -11    0.06    0.22 
   3  -8 -11    3.69    0.86 
   4  -8 -11    3.71    0.63 
   5  -8 -11    0.36    0.11 
   6  -8 -11   -0.01    0.11 
   7  -8 -11    0.96    0.17 
   8  -8 -11    1.35    0.19 
   9  -8 -11   -0.02    0.16 
  10  -8 -11    0.55    0.17 
  11  -8 -11    0.27    0.12 
  -7  -7 -11   -0.08    0.04 
  -6  -7 -11    1.36    0.11 
  -5  -7 -11    0.09    0.07 
  -4  -7 -11    0.24    0.07 
  -3  -7 -11    1.18    0.10 
  -2  -7 -11    0.95    0.09 
  -1  -7 -11    0.54    0.09 
   0  -7 -11    0.53    0.35 
   1  -7 -11    0.97    0.37 
   2  -7 -11    6.02    1.44 
   3  -7 -11   -0.01    0.13 
   4  -7 -11    6.99    1.10 
   5  -7 -11    0.39    0.23 
   6  -7 -11   -0.13    0.11 
   7  -7 -11    0.27    0.12 
   8  -7 -11    1.00    0.20 
   9  -7 -11    1.89    0.30 
  10  -7 -11    0.11    0.19 
  11  -7 -11    0.08    0.12 
  12  -7 -11    0.17    0.10 
  -7  -6 -11    0.07    0.05 
  -6  -6 -11    0.44    0.07 
  -5  -6 -11    0.42    0.08 
  -4  -6 -11    0.03    0.06 
  -3  -6 -11    0.12    0.06 
  -2  -6 -11    0.83    0.09 
  -1  -6 -11    0.69    0.18 
   0  -6 -11    1.17    0.44 
   1  -6 -11    6.27    1.57 
   2  -6 -11   34.55    5.38 
   3  -6 -11   41.76    5.90 
   4  -6 -11    2.61    0.46 
   5  -6 -11    1.42    0.35 
   6  -6 -11    7.54    0.77 
   7  -6 -11    0.21    0.15 
   8  -6 -11    3.17    0.36 
   9  -6 -11    0.01    0.12 
  10  -6 -11    0.01    0.18 
  11  -6 -11   -0.01    0.13 
  12  -6 -11    1.14    0.16 
  -7  -5 -11    0.19    0.06 
  -6  -5 -11   -0.02    0.06 
  -5  -5 -11    0.41    0.08 
  -4  -5 -11    2.72    0.16 
  -3  -5 -11    2.07    0.13 
  -2  -5 -11    0.56    0.08 
  -1  -5 -11    0.05    0.13 
   0  -5 -11    1.52    0.44 
   1  -5 -11    6.03    1.54 
   2  -5 -11    4.05    0.66 
   3  -5 -11   19.12    2.95 
   4  -5 -11    1.75    0.34 
   5  -5 -11    0.20    0.22 
   6  -5 -11   11.80    2.28 
   7  -5 -11    2.94    0.35 
   8  -5 -11    6.04    0.59 
   9  -5 -11   -0.02    0.14 
  10  -5 -11    0.32    0.20 
  11  -5 -11    0.04    0.15 
  12  -5 -11    0.55    0.13 
  -7  -4 -11    0.79    0.08 
  -6  -4 -11    0.14    0.07 
  -5  -4 -11    0.36    0.08 
  -4  -4 -11    1.83    0.13 
  -3  -4 -11    1.62    0.11 
  -2  -4 -11    1.29    0.12 
  -1  -4 -11    0.10    0.13 
   0  -4 -11    1.20    0.26 
   1  -4 -11    0.04    0.12 
   2  -4 -11    0.01    0.11 
   3  -4 -11    5.41    0.80 
   4  -4 -11    1.70    0.43 
   5  -4 -11   35.94    6.83 
   6  -4 -11    3.08    0.68 
   7  -4 -11    0.87    0.18 
   8  -4 -11    0.55    0.19 
   9  -4 -11    0.25    0.15 
  10  -4 -11    0.07    0.15 
  11  -4 -11    0.02    0.15 
  12  -4 -11    0.34    0.12 
  -7  -3 -11    0.07    0.06 
  -6  -3 -11    0.58    0.09 
  -5  -3 -11    2.06    0.15 
  -4  -3 -11    0.26    0.07 
  -3  -3 -11    1.76    0.12 
  -2  -3 -11    0.91    0.23 
  -1  -3 -11    1.17    0.21 
   0  -3 -11    0.01    0.11 
   1  -3 -11    0.17    0.13 
   2  -3 -11    1.49    0.28 
   3  -3 -11    8.31    1.22 
   4  -3 -11    5.04    0.93 
   5  -3 -11    0.17    0.20 
   6  -3 -11    7.28    1.59 
   7  -3 -11    7.57    0.80 
   8  -3 -11    3.25    0.42 
   9  -3 -11    0.09    0.14 
  10  -3 -11   -0.35    0.16 
  11  -3 -11    0.05    0.15 
  12  -3 -11    0.06    0.14 
  -7  -2 -11    0.87    0.09 
  -6  -2 -11    0.41    0.08 
  -5  -2 -11    0.31    0.07 
  -4  -2 -11   11.14    0.55 
  -3  -2 -11    0.58    0.08 
  -2  -2 -11    3.27    0.47 
  -1  -2 -11   -0.15    0.10 
   0  -2 -11    1.06    0.22 
   1  -2 -11    0.39    0.14 
   2  -2 -11    3.52    0.56 
   3  -2 -11    0.58    0.23 
   4  -2 -11   10.14    1.90 
   5  -2 -11    0.76    0.26 
   6  -2 -11    3.49    0.84 
   7  -2 -11   21.64    4.27 
   8  -2 -11    2.75    0.36 
   9  -2 -11    0.14    0.12 
  10  -2 -11    0.19    0.19 
  11  -2 -11    0.01    0.16 
  12  -2 -11    0.23    0.16 
  -8  -1 -11    0.08    0.06 
  -7  -1 -11    0.83    0.09 
  -6  -1 -11    0.30    0.08 
  -5  -1 -11    2.49    0.16 
  -4  -1 -11    0.06    0.07 
  -3  -1 -11    1.01    0.09 
  -2  -1 -11    0.66    0.17 
  -1  -1 -11    0.89    0.16 
   0  -1 -11   -0.08    0.11 
   1  -1 -11    0.13    0.12 
   2  -1 -11   -0.03    0.11 
   3  -1 -11    0.64    0.24 
   4  -1 -11   11.68    2.35 
   5  -1 -11    6.87    1.53 
   6  -1 -11    0.24    0.20 
   7  -1 -11    2.11    0.48 
   8  -1 -11    3.15    0.36 
   9  -1 -11    1.76    0.28 
  10  -1 -11   -0.15    0.17 
  11  -1 -11   -0.24    0.15 
  12  -1 -11    0.69    0.19 
  -8   0 -11   -0.06    0.06 
  -7   0 -11   -0.13    0.06 
  -6   0 -11    0.12    0.07 
  -5   0 -11    0.02    0.07 
  -4   0 -11   -0.05    0.07 
  -3   0 -11    0.02    0.07 
  -2   0 -11    0.02    0.11 
  -1   0 -11   -0.01    0.11 
   0   0 -11    0.03    0.12 
   1   0 -11    0.07    0.12 
   2   0 -11   -0.24    0.12 
   4   0 -11   -0.15    0.15 
   5   0 -11    0.12    0.16 
   6   0 -11    0.10    0.18 
   7   0 -11    0.16    0.14 
   8   0 -11    0.03    0.11 
   9   0 -11   -0.10    0.10 
  10   0 -11   -0.08    0.23 
  11   0 -11    0.03    0.17 
  12   0 -11   -0.02    0.16 
  -8   1 -11    0.06    0.08 
  -7   1 -11    0.65    0.08 
  -6   1 -11    0.26    0.07 
  -5   1 -11    2.54    0.16 
  -4   1 -11    0.04    0.07 
  -3   1 -11    0.96    0.09 
  -2   1 -11    0.32    0.13 
  -1   1 -11    0.84    0.17 
   0   1 -11   -0.08    0.13 
   1   1 -11    0.07    0.13 
   2   1 -11   -0.15    0.13 
   3   1 -11    0.62    0.23 
   4   1 -11   11.62    2.35 
   5   1 -11    7.62    1.54 
   6   1 -11    0.24    0.16 
   7   1 -11    1.65    0.32 
   8   1 -11    3.15    0.31 
   9   1 -11    2.62    0.35 
  10   1 -11   -0.25    0.16 
  11   1 -11    0.03    0.16 
  12   1 -11    0.21    0.18 
  -7   2 -11    0.82    0.09 
  -6   2 -11    0.37    0.08 
  -5   2 -11    0.31    0.08 
  -4   2 -11   10.65    0.58 
  -3   2 -11    0.59    0.08 
  -2   2 -11    3.14    0.41 
  -1   2 -11   -0.03    0.11 
   0   2 -11    1.38    0.27 
   1   2 -11    0.37    0.21 
   2   2 -11    2.98    0.78 
   3   2 -11    0.93    0.26 
   4   2 -11    8.87    1.90 
   5   2 -11    0.39    0.25 
   6   2 -11    3.92    0.60 
   7   2 -11   19.74    3.01 
   8   2 -11    3.04    0.35 
   9   2 -11    0.32    0.15 
  10   2 -11    0.20    0.19 
  11   2 -11    0.21    0.19 
  12   2 -11    0.04    0.15 
  -7   3 -11    0.11    0.06 
  -6   3 -11    0.78    0.09 
  -5   3 -11    1.70    0.14 
  -4   3 -11    0.25    0.07 
  -3   3 -11    1.67    0.12 
  -2   3 -11    1.26    0.24 
  -1   3 -11    0.66    0.20 
   0   3 -11   -0.14    0.12 
   1   3 -11    0.16    0.20 
   2   3 -11    1.33    0.39 
   3   3 -11    8.49    1.73 
   4   3 -11    4.08    0.91 
   5   3 -11    0.20    0.14 
   6   3 -11    7.44    1.13 
   7   3 -11    8.32    0.72 
   8   3 -11    3.80    0.42 
   9   3 -11    0.00    0.14 
  10   3 -11   -0.03    0.19 
  11   3 -11    0.03    0.17 
  12   3 -11    0.08    0.15 
  -7   4 -11    0.88    0.09 
  -6   4 -11    0.15    0.07 
  -5   4 -11    0.44    0.09 
  -4   4 -11    1.94    0.13 
  -3   4 -11    1.61    0.12 
  -2   4 -11    1.66    0.13 
  -1   4 -11   -0.05    0.12 
   0   4 -11    0.80    0.22 
   1   4 -11   -0.03    0.16 
   2   4 -11    0.36    0.20 
   3   4 -11    5.05    1.12 
   4   4 -11    1.66    0.30 
   5   4 -11   34.77    4.83 
   6   4 -11    2.83    0.46 
   7   4 -11    0.69    0.18 
   8   4 -11    0.56    0.16 
   9   4 -11    0.10    0.14 
  10   4 -11    0.01    0.21 
  11   4 -11    0.04    0.17 
  12   4 -11    0.13    0.15 
  -7   5 -11    0.16    0.06 
  -6   5 -11    0.03    0.06 
  -5   5 -11    0.40    0.08 
  -4   5 -11    2.51    0.16 
  -3   5 -11    1.91    0.13 
  -2   5 -11    0.59    0.08 
  -1   5 -11   -0.02    0.13 
   0   5 -11    1.20    0.42 
   1   5 -11    7.47    1.54 
   2   5 -11    4.44    0.95 
   3   5 -11   21.10    4.18 
   4   5 -11    2.61    0.38 
   5   5 -11    0.39    0.16 
   6   5 -11   12.30    1.61 
   7   5 -11    3.29    0.32 
   8   5 -11    6.58    0.68 
   9   5 -11    0.06    0.13 
  10   5 -11    0.23    0.20 
  11   5 -11    0.14    0.18 
  12   5 -11    0.82    0.14 
  -7   6 -11   -0.01    0.05 
  -6   6 -11    0.52    0.08 
  -5   6 -11    0.37    0.08 
  -4   6 -11   -0.18    0.06 
  -3   6 -11    0.10    0.07 
  -2   6 -11    0.73    0.09 
  -1   6 -11    0.76    0.19 
   0   6 -11    1.26    0.43 
   1   6 -11    8.12    1.60 
   2   6 -11   37.08    7.63 
   3   6 -11   42.13    5.90 
   4   6 -11    3.20    0.47 
   5   6 -11    1.18    0.25 
   6   6 -11    9.30    0.78 
   7   6 -11    0.10    0.13 
   8   6 -11    3.05    0.35 
   9   6 -11    0.15    0.13 
  10   6 -11   -0.04    0.20 
  11   6 -11    0.22    0.18 
  12   6 -11    0.78    0.15 
  -7   7 -11    0.01    0.05 
  -6   7 -11    1.20    0.10 
  -5   7 -11    0.08    0.07 
  -4   7 -11    0.02    0.06 
  -3   7 -11    1.32    0.10 
  -2   7 -11    0.72    0.09 
  -1   7 -11    0.32    0.09 
   0   7 -11    0.99    0.35 
   1   7 -11    0.93    0.36 
   2   7 -11    6.68    1.03 
   3   7 -11   -0.02    0.13 
   4   7 -11    8.67    1.11 
   5   7 -11    0.46    0.26 
   6   7 -11    0.00    0.13 
   7   7 -11    0.36    0.12 
   8   7 -11    0.93    0.19 
   9   7 -11    2.06    0.31 
  10   7 -11    0.35    0.15 
  11   7 -11    0.06    0.11 
  12   7 -11    0.01    0.08 
  -7   8 -11    0.05    0.05 
  -6   8 -11    1.25    0.10 
  -5   8 -11    1.45    0.12 
  -4   8 -11    1.98    0.15 
  -3   8 -11    0.59    0.08 
  -2   8 -11    0.04    0.07 
  -1   8 -11    3.60    0.23 
   0   8 -11    4.15    0.29 
   1   8 -11    0.41    0.25 
   2   8 -11    0.75    0.22 
   3   8 -11    3.57    0.60 
   4   8 -11    4.63    0.93 
   5   8 -11    0.56    0.13 
   6   8 -11    0.11    0.12 
   7   8 -11    0.96    0.18 
   8   8 -11    1.26    0.18 
   9   8 -11    0.12    0.17 
  10   8 -11    0.97    0.17 
  11   8 -11    0.30    0.12 
  -6   9 -11    0.03    0.05 
  -5   9 -11    0.59    0.08 
  -4   9 -11    1.90    0.14 
  -3   9 -11    0.51    0.08 
  -2   9 -11    0.36    0.08 
  -1   9 -11   -0.09    0.08 
   0   9 -11    8.29    0.51 
   1   9 -11    7.64    0.50 
   2   9 -11   17.35    1.35 
   3   9 -11   21.21    1.52 
   4   9 -11    0.00    0.11 
   5   9 -11   12.92    0.95 
   6   9 -11    5.42    0.42 
   7   9 -11    2.23    0.23 
   8   9 -11    0.20    0.12 
   9   9 -11    0.13    0.12 
  10   9 -11    0.11    0.10 
  11   9 -11    0.16    0.10 
  -6  10 -11    0.03    0.05 
  -5  10 -11   -0.01    0.06 
  -4  10 -11    1.10    0.10 
  -3  10 -11    0.58    0.09 
  -2  10 -11    1.19    0.11 
  -1  10 -11    0.11    0.09 
   0  10 -11    0.50    0.12 
   1  10 -11   10.77    0.77 
   2  10 -11   22.66    1.45 
   3  10 -11    6.06    0.47 
   4  10 -11    1.66    0.21 
   5  10 -11    2.51    0.25 
   6  10 -11    1.83    0.21 
   7  10 -11    1.46    0.18 
   8  10 -11    0.87    0.18 
   9  10 -11   -0.06    0.11 
  10  10 -11   -0.04    0.10 
  11  10 -11    0.57    0.10 
  -6  11 -11    0.02    0.04 
  -5  11 -11    0.22    0.06 
  -4  11 -11    0.25    0.07 
  -3  11 -11    2.26    0.16 
  -2  11 -11    0.33    0.09 
  -1  11 -11    0.35    0.10 
   0  11 -11    0.07    0.09 
   1  11 -11    0.04    0.09 
   2  11 -11    0.18    0.11 
   3  11 -11    1.15    0.19 
   4  11 -11    0.07    0.11 
   5  11 -11    3.30    0.28 
   6  11 -11    0.05    0.11 
   7  11 -11    4.88    0.41 
   8  11 -11    0.31    0.12 
   9  11 -11    0.47    0.12 
  10  11 -11    0.62    0.12 
  -5  12 -11    0.05    0.05 
  -4  12 -11   -0.02    0.06 
  -3  12 -11    0.16    0.08 
  -2  12 -11    0.21    0.09 
  -1  12 -11    0.35    0.10 
   0  12 -11    2.04    0.17 
   1  12 -11    0.04    0.10 
   2  12 -11    0.00    0.11 
   3  12 -11    8.78    0.74 
   4  12 -11    0.02    0.11 
   5  12 -11    0.58    0.14 
   6  12 -11    0.62    0.12 
   7  12 -11    0.20    0.11 
   8  12 -11    0.13    0.10 
   9  12 -11   -0.12    0.07 
  10  12 -11    0.20    0.07 
  -5  13 -11    0.03    0.04 
  -4  13 -11   -0.01    0.06 
  -3  13 -11   -0.04    0.07 
  -2  13 -11    0.67    0.10 
  -1  13 -11    0.59    0.11 
   0  13 -11    0.00    0.10 
   1  13 -11    0.02    0.10 
   2  13 -11    1.13    0.17 
   3  13 -11    9.11    0.76 
   4  13 -11    2.23    0.22 
   5  13 -11    1.98    0.25 
   6  13 -11    3.01    0.29 
   7  13 -11   -0.10    0.09 
   8  13 -11    0.10    0.09 
   9  13 -11   -0.01    0.07 
  10  13 -11   -0.07    0.07 
  -4  14 -11    0.09    0.06 
  -3  14 -11    0.93    0.10 
  -2  14 -11    0.00    0.07 
  -1  14 -11    0.08    0.09 
   0  14 -11    0.15    0.10 
   1  14 -11    0.14    0.12 
   2  14 -11    1.09    0.18 
   3  14 -11    0.36    0.14 
   4  14 -11    0.03    0.14 
   5  14 -11    1.41    0.18 
   6  14 -11    2.10    0.24 
   7  14 -11   -0.03    0.09 
   8  14 -11    1.32    0.16 
   9  14 -11    0.01    0.06 
  -4  15 -11    0.38    0.06 
  -3  15 -11    0.00    0.07 
  -2  15 -11   -0.04    0.06 
  -1  15 -11   -0.06    0.07 
   0  15 -11    1.20    0.15 
   1  15 -11    0.01    0.10 
   2  15 -11    0.65    0.15 
   3  15 -11   -0.13    0.12 
   4  15 -11    1.27    0.18 
   5  15 -11    3.10    0.32 
   6  15 -11    0.15    0.11 
   7  15 -11    0.26    0.10 
   8  15 -11    0.17    0.08 
  -3  16 -11    0.37    0.07 
  -2  16 -11   -0.03    0.07 
  -1  16 -11    4.05    0.30 
   0  16 -11    2.02    0.25 
   1  16 -11    0.15    0.09 
   2  16 -11    0.49    0.14 
   3  16 -11    0.19    0.12 
   4  16 -11    3.41    0.35 
   5  16 -11    0.06    0.09 
   6  16 -11    0.54    0.12 
   7  16 -11    1.41    0.17 
   8  16 -11    0.35    0.09 
  -2  17 -11    1.23    0.15 
  -1  17 -11    0.00    0.07 
   0  17 -11    0.00    0.08 
   1  17 -11    0.51    0.13 
   2  17 -11    0.32    0.12 
   3  17 -11    0.51    0.14 
   4  17 -11    0.31    0.10 
   5  17 -11    0.68    0.14 
   6  17 -11    1.87    0.21 
   7  17 -11    0.29    0.09 
  -1  18 -11    0.14    0.09 
   0  18 -11   -0.05    0.07 
   1  18 -11   -0.02    0.08 
   2  18 -11    0.23    0.10 
   3  18 -11    0.25    0.11 
   4  18 -11   -0.07    0.08 
   5  18 -11    1.64    0.18 
   6  18 -11    0.00    0.07 
   1  19 -11    0.41    0.08 
   2  19 -11   -0.06    0.08 
   3  19 -11   -0.02    0.09 
   4  19 -11    0.06    0.09 
   0 -20 -10    0.02    0.12 
   1 -20 -10    0.05    0.07 
   2 -20 -10    0.03    0.06 
   3 -20 -10   -0.05    0.06 
   4 -20 -10   -0.03    0.05 
  -1 -19 -10    1.28    0.14 
   0 -19 -10    0.22    0.09 
   1 -19 -10    0.18    0.09 
   2 -19 -10    0.23    0.09 
   3 -19 -10   -0.08    0.08 
   4 -19 -10    0.13    0.08 
   5 -19 -10    0.76    0.11 
   6 -19 -10   -0.02    0.06 
  -3 -18 -10    3.31    0.48 
  -2 -18 -10    0.09    0.06 
  -1 -18 -10    0.22    0.09 
   0 -18 -10   -0.05    0.09 
   1 -18 -10    0.00    0.10 
   2 -18 -10    0.07    0.10 
   3 -18 -10    0.79    0.13 
   4 -18 -10    0.28    0.10 
   5 -18 -10    0.12    0.09 
   6 -18 -10    0.18    0.07 
   7 -18 -10    0.63    0.10 
  -3 -17 -10    0.61    0.08 
  -2 -17 -10   -0.04    0.07 
  -1 -17 -10    0.76    0.11 
   0 -17 -10    0.42    0.11 
   1 -17 -10   -0.04    0.10 
   2 -17 -10    0.54    0.14 
   3 -17 -10    0.29    0.11 
   4 -17 -10    1.29    0.19 
   5 -17 -10   -0.17    0.08 
   6 -17 -10    0.39    0.11 
   7 -17 -10    0.74    0.12 
   8 -17 -10    0.04    0.06 
  -4 -16 -10    0.00    0.05 
  -3 -16 -10    1.28    0.12 
  -2 -16 -10    0.91    0.11 
  -1 -16 -10    0.87    0.13 
   0 -16 -10    0.53    0.11 
   1 -16 -10    0.53    0.14 
   2 -16 -10    0.15    0.11 
   3 -16 -10    0.15    0.12 
   4 -16 -10    0.57    0.13 
   5 -16 -10    4.78    0.41 
   6 -16 -10    1.04    0.17 
   7 -16 -10    0.16    0.08 
   8 -16 -10    0.31    0.10 
  -5 -15 -10    0.26    0.05 
  -4 -15 -10    0.50    0.07 
  -3 -15 -10    0.66    0.09 
  -2 -15 -10    0.45    0.09 
  -1 -15 -10    0.16    0.08 
   0 -15 -10    0.97    0.14 
   1 -15 -10    0.46    0.11 
   2 -15 -10    2.50    0.25 
   3 -15 -10    0.16    0.11 
   4 -15 -10    3.94    0.37 
   5 -15 -10   -0.19    0.11 
   6 -15 -10    0.23    0.11 
   7 -15 -10    0.67    0.13 
   8 -15 -10    4.16    0.35 
   9 -15 -10   -0.08    0.06 
  -5 -14 -10    0.00    0.04 
  -4 -14 -10    2.05    0.14 
  -3 -14 -10    0.55    0.09 
  -2 -14 -10    0.04    0.08 
  -1 -14 -10    0.35    0.09 
   0 -14 -10   -0.04    0.09 
   1 -14 -10    3.48    0.30 
   2 -14 -10    1.64    0.18 
   3 -14 -10    0.10    0.10 
   4 -14 -10    1.23    0.17 
   5 -14 -10    0.88    0.16 
   6 -14 -10    0.47    0.14 
   7 -14 -10    1.07    0.19 
   8 -14 -10    0.14    0.09 
   9 -14 -10    0.18    0.10 
  10 -14 -10    0.30    0.08 
  -6 -13 -10    0.36    0.05 
  -5 -13 -10    0.01    0.05 
  -4 -13 -10    5.56    0.31 
  -3 -13 -10    4.48    0.28 
  -2 -13 -10    1.32    0.13 
  -1 -13 -10   -0.05    0.07 
   0 -13 -10   -0.01    0.09 
   1 -13 -10    0.01    0.09 
   2 -13 -10    2.19    0.22 
   3 -13 -10    1.42    0.18 
   4 -13 -10    0.98    0.16 
   5 -13 -10    0.83    0.16 
   6 -13 -10    4.61    0.42 
   7 -13 -10    0.22    0.12 
   8 -13 -10    0.04    0.10 
   9 -13 -10   -0.01    0.10 
  10 -13 -10   -0.05    0.07 
  -6 -12 -10    0.36    0.05 
  -5 -12 -10    0.09    0.06 
  -4 -12 -10    0.78    0.08 
  -3 -12 -10    0.02    0.07 
  -2 -12 -10    0.51    0.08 
  -1 -12 -10    0.78    0.10 
   0 -12 -10    4.80    0.31 
   1 -12 -10    1.01    0.13 
   2 -12 -10    0.09    0.09 
   3 -12 -10    0.35    0.11 
   4 -12 -10    0.34    0.13 
   5 -12 -10    0.55    0.14 
   6 -12 -10    0.07    0.11 
   7 -12 -10    0.36    0.13 
   8 -12 -10    0.62    0.16 
   9 -12 -10    0.67    0.15 
  10 -12 -10    1.41    0.20 
  11 -12 -10    0.09    0.08 
  -7 -11 -10    0.16    0.04 
  -6 -11 -10    1.34    0.11 
  -5 -11 -10    1.16    0.10 
  -4 -11 -10    1.63    0.11 
  -3 -11 -10    3.51    0.18 
  -2 -11 -10    1.72    0.14 
  -1 -11 -10   -0.01    0.08 
   0 -11 -10    5.05    0.34 
   1 -11 -10   16.40    1.29 
   2 -11 -10    0.63    0.31 
   3 -11 -10    0.29    0.13 
   4 -11 -10    0.42    0.13 
   5 -11 -10    9.19    0.84 
   6 -11 -10    0.73    0.13 
   7 -11 -10    1.16    0.18 
   8 -11 -10    0.72    0.20 
   9 -11 -10    0.02    0.14 
  10 -11 -10    2.76    0.36 
  11 -11 -10    0.20    0.11 
  -7 -10 -10    0.01    0.04 
  -6 -10 -10    0.15    0.06 
  -5 -10 -10    0.11    0.07 
  -4 -10 -10    0.60    0.08 
  -3 -10 -10    8.58    0.41 
  -2 -10 -10   -0.09    0.08 
  -1 -10 -10    0.06    0.08 
   0 -10 -10    3.17    0.73 
   1 -10 -10   22.34    4.75 
   2 -10 -10   30.22    6.29 
   3 -10 -10    9.64    2.17 
   4 -10 -10    5.48    1.23 
   5 -10 -10    7.75    0.65 
   6 -10 -10    1.46    0.19 
   7 -10 -10   17.27    1.59 
   8 -10 -10    1.16    0.21 
   9 -10 -10    1.10    0.22 
  10 -10 -10   -0.07    0.15 
  11 -10 -10    0.02    0.11 
  -7  -9 -10    0.32    0.05 
  -6  -9 -10    0.01    0.06 
  -5  -9 -10   -0.06    0.07 
  -4  -9 -10    0.82    0.09 
  -3  -9 -10    3.46    0.19 
  -2  -9 -10    0.11    0.07 
  -1  -9 -10    2.13    0.46 
   0  -9 -10    0.35    0.24 
   1  -9 -10   -0.19    0.19 
   2  -9 -10    4.24    1.02 
   3  -9 -10    2.53    0.68 
   4  -9 -10    8.37    1.37 
   5  -9 -10    1.84    0.37 
   6  -9 -10   10.52    0.93 
   7  -9 -10    0.67    0.16 
   8  -9 -10    1.88    0.26 
   9  -9 -10    0.00    0.19 
  10  -9 -10    0.78    0.21 
  11  -9 -10   -0.02    0.16 
  12  -9 -10    1.41    0.25 
  -7  -8 -10    0.00    0.06 
  -6  -8 -10    2.74    0.17 
  -5  -8 -10    0.17    0.08 
  -4  -8 -10    1.21    0.10 
  -3  -8 -10    1.17    0.10 
  -2  -8 -10    7.09    0.45 
  -1  -8 -10   20.88    3.28 
   0  -8 -10   21.30    4.84 
   1  -8 -10    5.63    1.44 
   2  -8 -10    0.38    0.25 
   3  -8 -10    1.33    0.49 
   4  -8 -10   -0.18    0.12 
   5  -8 -10    0.27    0.14 
   6  -8 -10    0.20    0.21 
   7  -8 -10    0.55    0.17 
   8  -8 -10    1.02    0.21 
   9  -8 -10    0.09    0.15 
  10  -8 -10    0.16    0.19 
  11  -8 -10   -0.11    0.16 
  12  -8 -10    1.15    0.16 
  -8  -7 -10    0.25    0.05 
  -7  -7 -10    0.26    0.06 
  -6  -7 -10    0.09    0.07 
  -5  -7 -10    8.78    0.47 
  -4  -7 -10    6.79    0.34 
  -3  -7 -10    4.96    0.25 
  -2  -7 -10    0.43    0.17 
  -1  -7 -10    2.02    0.31 
   0  -7 -10    9.35    2.07 
   1  -7 -10    9.04    1.92 
   2  -7 -10    1.55    0.44 
   3  -7 -10    2.22    0.37 
   4  -7 -10    3.01    0.48 
   5  -7 -10    6.53    1.09 
   6  -7 -10    1.62    0.49 
   7  -7 -10    2.74    0.35 
   8  -7 -10    0.24    0.16 
   9  -7 -10    2.62    0.42 
  10  -7 -10   -0.07    0.27 
  11  -7 -10    0.13    0.19 
  12  -7 -10    0.56    0.18 
  -8  -6 -10    1.77    0.14 
  -7  -6 -10   -0.06    0.06 
  -6  -6 -10    0.23    0.08 
  -5  -6 -10    1.19    0.11 
  -4  -6 -10    0.13    0.07 
  -3  -6 -10    2.97    0.17 
  -2  -6 -10    1.75    0.27 
  -1  -6 -10   -0.16    0.11 
   0  -6 -10    0.40    0.27 
   1  -6 -10   11.31    2.70 
   2  -6 -10   11.73    1.77 
   3  -6 -10    0.05    0.11 
   4  -6 -10   -0.08    0.10 
   5  -6 -10    2.30    0.58 
   6  -6 -10    2.21    0.58 
   7  -6 -10    5.47    1.03 
   8  -6 -10    1.32    0.29 
   9  -6 -10    0.08    0.15 
  10  -6 -10   -0.19    0.27 
  11  -6 -10    0.00    0.18 
  12  -6 -10    0.92    0.21 
  -8  -5 -10    0.24    0.06 
  -7  -5 -10    0.15    0.07 
  -6  -5 -10    0.16    0.07 
  -5  -5 -10    1.74    0.13 
  -4  -5 -10    6.79    0.36 
  -3  -5 -10    0.83    0.21 
  -2  -5 -10    0.82    0.19 
  -1  -5 -10    2.44    0.37 
   0  -5 -10    1.83    0.36 
   1  -5 -10    3.31    0.54 
   2  -5 -10    0.50    0.15 
   3  -5 -10    2.50    0.43 
   4  -5 -10    0.37    0.14 
   5  -5 -10   32.63    6.53 
   6  -5 -10    9.76    1.75 
   7  -5 -10    0.12    0.21 
   8  -5 -10    1.13    0.23 
   9  -5 -10    0.67    0.22 
  10  -5 -10    0.40    0.31 
  11  -5 -10    0.49    0.36 
  12  -5 -10    2.77    0.41 
  -8  -4 -10    0.01    0.06 
  -7  -4 -10    1.24    0.12 
  -6  -4 -10    0.86    0.11 
  -5  -4 -10   11.82    0.61 
  -4  -4 -10    1.87    0.13 
  -3  -4 -10    0.31    0.17 
  -2  -4 -10   -0.09    0.11 
  -1  -4 -10    5.11    0.64 
   0  -4 -10    8.57    1.28 
   1  -4 -10    0.26    0.12 
   2  -4 -10    2.99    0.47 
   3  -4 -10    0.78    0.20 
   4  -4 -10   25.85    5.29 
   5  -4 -10    2.18    0.50 
   6  -4 -10    0.26    0.18 
   7  -4 -10    0.78    0.29 
   8  -4 -10    0.32    0.20 
   9  -4 -10    0.21    0.14 
  10  -4 -10    0.38    0.22 
  11  -4 -10    1.41    0.41 
  12  -4 -10    0.64    0.21 
  -8  -3 -10    0.43    0.08 
  -7  -3 -10    1.43    0.13 
  -6  -3 -10    2.00    0.15 
  -5  -3 -10    1.05    0.11 
  -4  -3 -10    0.75    0.10 
  -3  -3 -10    0.00    0.12 
  -2  -3 -10    1.33    0.23 
  -1  -3 -10   -0.02    0.11 
   0  -3 -10    0.11    0.10 
   1  -3 -10   -0.04    0.09 
   2  -3 -10    1.42    0.30 
   3  -3 -10    1.59    0.29 
   4  -3 -10    0.61    0.25 
   5  -3 -10    0.87    0.29 
   6  -3 -10    4.19    0.90 
   7  -3 -10    1.79    0.43 
   8  -3 -10   -0.06    0.13 
   9  -3 -10    0.49    0.17 
  10  -3 -10    0.48    0.17 
  11  -3 -10    0.02    0.24 
  12  -3 -10    0.82    0.31 
  -8  -2 -10    0.65    0.08 
  -7  -2 -10    0.24    0.08 
  -6  -2 -10    0.26    0.08 
  -5  -2 -10    0.06    0.07 
  -4  -2 -10    0.39    0.08 
  -3  -2 -10   -0.23    0.11 
  -2  -2 -10    0.45    0.16 
  -1  -2 -10    0.12    0.10 
   0  -2 -10    0.24    0.12 
   1  -2 -10    0.19    0.08 
   2  -2 -10   -0.07    0.10 
   3  -2 -10    1.15    0.22 
   4  -2 -10    0.55    0.21 
   5  -2 -10   -0.12    0.14 
   6  -2 -10    1.26    0.36 
   7  -2 -10    0.76    0.21 
   8  -2 -10   -0.12    0.14 
   9  -2 -10   -0.06    0.13 
  10  -2 -10    0.11    0.13 
  11  -2 -10   -0.23    0.23 
  12  -2 -10   -0.01    0.23 
  13  -2 -10    0.12    0.17 
  -8  -1 -10    0.97    0.10 
  -7  -1 -10    1.28    0.12 
  -6  -1 -10    1.03    0.10 
  -5  -1 -10    2.40    0.16 
  -4  -1 -10    9.73    0.51 
  -3  -1 -10    6.43    0.83 
  -2  -1 -10    0.45    0.13 
  -1  -1 -10    1.10    0.18 
   0  -1 -10    0.02    0.09 
   1  -1 -10    0.20    0.11 
   2  -1 -10    1.12    0.18 
   3  -1 -10    2.95    0.73 
   4  -1 -10    1.88    0.51 
   5  -1 -10    8.92    1.74 
   6  -1 -10    5.76    1.03 
   7  -1 -10    3.23    0.52 
   8  -1 -10    0.13    0.14 
   9  -1 -10    0.11    0.16 
  10  -1 -10    0.65    0.32 
  11  -1 -10    0.50    0.28 
  12  -1 -10    0.38    0.25 
  13  -1 -10    1.05    0.26 
  -8   0 -10    0.03    0.06 
  -7   0 -10    6.93    0.45 
  -6   0 -10    0.96    0.10 
  -5   0 -10   18.81    0.98 
  -4   0 -10    0.40    0.08 
  -3   0 -10   -0.08    0.12 
  -2   0 -10    3.74    0.44 
  -1   0 -10   12.85    1.27 
   0   0 -10    0.24    0.12 
   1   0 -10   -0.14    0.08 
   2   0 -10    1.19    0.25 
   3   0 -10    5.28    0.79 
   4   0 -10  129.12   24.62 
   5   0 -10   14.69    2.88 
   6   0 -10    5.99    0.86 
   7   0 -10   -0.06    0.12 
   8   0 -10    0.33    0.17 
   9   0 -10    3.81    0.72 
  10   0 -10    2.94    0.45 
  11   0 -10   -0.38    0.22 
  12   0 -10    0.32    0.27 
  13   0 -10    0.89    0.20 
  -8   1 -10    0.73    0.09 
  -7   1 -10    1.20    0.12 
  -6   1 -10    0.98    0.10 
  -5   1 -10    2.09    0.15 
  -4   1 -10    9.86    0.51 
  -3   1 -10    6.48    0.72 
  -2   1 -10    0.28    0.13 
  -1   1 -10    1.19    0.19 
   0   1 -10    0.03    0.10 
   1   1 -10    0.13    0.12 
   2   1 -10    1.12    0.31 
   3   1 -10    3.21    0.74 
   4   1 -10    2.54    0.54 
   5   1 -10    9.07    1.23 
   6   1 -10    4.55    0.72 
   7   1 -10    3.39    0.53 
   8   1 -10   -0.02    0.14 
   9   1 -10    0.17    0.18 
  10   1 -10    0.66    0.23 
  12   1 -10    0.90    0.31 
  13   1 -10    0.93    0.29 
  -8   2 -10    0.59    0.08 
  -7   2 -10    0.16    0.07 
  -6   2 -10    0.49    0.09 
  -5   2 -10    0.00    0.07 
  -4   2 -10    0.31    0.08 
  -3   2 -10   -0.16    0.11 
  -2   2 -10    0.38    0.14 
  -1   2 -10   -0.01    0.10 
   0   2 -10    1.02    0.20 
   1   2 -10    0.30    0.13 
   2   2 -10    0.02    0.12 
   3   2 -10    1.02    0.30 
   4   2 -10    0.24    0.20 
   5   2 -10    0.09    0.13 
   6   2 -10    1.26    0.26 
   7   2 -10    0.70    0.19 
   8   2 -10   -0.01    0.12 
   9   2 -10   -0.01    0.16 
  10   2 -10    0.04    0.20 
  11   2 -10    0.04    0.27 
  12   2 -10   -0.31    0.21 
  13   2 -10    0.03    0.13 
  -8   3 -10    0.51    0.08 
  -7   3 -10    1.46    0.13 
  -6   3 -10    2.10    0.16 
  -5   3 -10    1.14    0.11 
  -4   3 -10    0.84    0.09 
  -3   3 -10   -0.19    0.10 
  -2   3 -10    1.23    0.21 
  -1   3 -10   -0.27    0.09 
   0   3 -10    0.08    0.14 
   1   3 -10    0.25    0.15 
   2   3 -10    2.33    0.47 
   3   3 -10    1.81    0.43 
   4   3 -10    0.68    0.18 
   5   3 -10    1.04    0.22 
   6   3 -10    4.07    0.61 
   7   3 -10    1.92    0.30 
   8   3 -10    0.09    0.19 
   9   3 -10    0.72    0.21 
  10   3 -10    0.83    0.23 
  11   3 -10    0.12    0.26 
  12   3 -10    0.57    0.30 
  13   3 -10    0.40    0.19 
  -8   4 -10    0.08    0.06 
  -7   4 -10    1.31    0.12 
  -6   4 -10    1.14    0.11 
  -5   4 -10   11.95    0.61 
  -4   4 -10    1.52    0.13 
  -3   4 -10    0.51    0.18 
  -2   4 -10    0.11    0.14 
  -1   4 -10    4.29    0.64 
   0   4 -10    8.45    1.28 
   1   4 -10    0.24    0.18 
   2   4 -10    4.10    0.72 
   3   4 -10    0.93    0.20 
   4   4 -10   28.03    3.75 
   5   4 -10    2.07    0.36 
   6   4 -10   -0.06    0.13 
   7   4 -10    0.50    0.26 
   8   4 -10    0.12    0.17 
   9   4 -10   -0.04    0.17 
  10   4 -10    0.88    0.23 
  11   4 -10    1.20    0.48 
  12   4 -10    1.21    0.36 
  -8   5 -10    0.33    0.06 
  -7   5 -10    0.28    0.07 
  -6   5 -10    0.16    0.08 
  -5   5 -10    1.59    0.13 
  -4   5 -10    7.07    0.37 
  -3   5 -10    1.06    0.24 
  -2   5 -10    0.59    0.20 
  -1   5 -10    2.88    0.38 
   0   5 -10    1.57    0.51 
   1   5 -10    2.94    0.78 
   2   5 -10    0.32    0.19 
   3   5 -10    2.53    0.42 
   4   5 -10    0.58    0.16 
   5   5 -10   34.30    4.62 
   6   5 -10    9.70    1.75 
   7   5 -10   -0.18    0.18 
   8   5 -10    1.22    0.23 
   9   5 -10    0.00    0.15 
  10   5 -10   -0.10    0.18 
  11   5 -10    1.65    0.44 
  12   5 -10    1.98    0.39 
  -8   6 -10    2.02    0.15 
  -7   6 -10   -0.06    0.06 
  -6   6 -10    0.12    0.07 
  -5   6 -10    1.59    0.12 
  -4   6 -10    0.09    0.07 
  -3   6 -10    2.64    0.17 
  -2   6 -10    1.47    0.28 
  -1   6 -10    0.09    0.13 
   0   6 -10    0.96    0.31 
   1   6 -10   12.48    2.71 
   2   6 -10   12.75    1.78 
   3   6 -10    0.11    0.13 
   4   6 -10   -0.20    0.11 
   5   6 -10    2.49    0.40 
   6   6 -10    2.07    0.57 
   7   6 -10    4.01    1.01 
   8   6 -10    1.98    0.30 
   9   6 -10    0.02    0.17 
  10   6 -10   -0.10    0.32 
  11   6 -10   -0.14    0.18 
  12   6 -10    1.17    0.30 
  -8   7 -10    0.28    0.06 
  -7   7 -10    0.26    0.07 
  -6   7 -10    0.09    0.07 
  -5   7 -10    9.08    0.46 
  -4   7 -10    6.38    0.34 
  -3   7 -10    4.89    0.25 
  -2   7 -10    0.40    0.18 
  -1   7 -10    1.83    0.31 
   0   7 -10    9.20    2.08 
   1   7 -10    9.18    1.35 
   2   7 -10    1.49    0.30 
   3   7 -10    1.98    0.37 
   4   7 -10    2.71    0.47 
   5   7 -10    9.42    1.57 
   6   7 -10    2.27    0.53 
   7   7 -10    3.42    0.37 
   8   7 -10    0.07    0.14 
   9   7 -10    3.26    0.43 
  10   7 -10   -0.29    0.20 
  11   7 -10    0.08    0.23 
  12   7 -10    0.31    0.15 
  -7   8 -10    0.11    0.06 
  -6   8 -10    2.86    0.18 
  -5   8 -10    0.38    0.08 
  -4   8 -10    1.23    0.11 
  -3   8 -10    1.20    0.11 
  -2   8 -10    7.29    0.60 
  -1   8 -10   22.10    3.29 
   0   8 -10   23.16    3.43 
   1   8 -10    6.78    1.04 
   2   8 -10    0.25    0.15 
   3   8 -10    2.22    0.36 
   4   8 -10    0.04    0.19 
   5   8 -10    0.08    0.20 
   6   8 -10   -0.23    0.19 
   7   8 -10    0.39    0.17 
   8   8 -10    1.61    0.27 
   9   8 -10    0.23    0.16 
  10   8 -10    0.63    0.24 
  11   8 -10   -0.03    0.14 
  12   8 -10    0.84    0.14 
  -7   9 -10    0.35    0.06 
  -6   9 -10    0.03    0.06 
  -5   9 -10    0.06    0.07 
  -4   9 -10    0.73    0.09 
  -3   9 -10    3.41    0.19 
  -2   9 -10    0.09    0.08 
  -1   9 -10    2.56    0.51 
   0   9 -10    0.19    0.18 
   1   9 -10   -0.19    0.15 
   2   9 -10    5.61    1.03 
   3   9 -10    2.93    0.68 
   4   9 -10   11.98    1.97 
   5   9 -10    2.29    0.53 
   6   9 -10   13.02    1.04 
   7   9 -10    0.33    0.16 
   8   9 -10    1.71    0.26 
   9   9 -10   -0.13    0.16 
  10   9 -10    0.25    0.18 
  11   9 -10    0.15    0.12 
  12   9 -10    1.84    0.25 
  -7  10 -10    0.01    0.05 
  -6  10 -10    0.15    0.06 
  -5  10 -10    0.23    0.07 
  -4  10 -10    0.51    0.08 
  -3  10 -10    8.53    0.41 
  -2  10 -10   -0.09    0.08 
  -1  10 -10   -0.08    0.08 
   0  10 -10    2.21    0.50 
   1  10 -10   21.95    3.37 
   2  10 -10   30.74    4.45 
   3  10 -10   11.18    2.18 
   4  10 -10    6.62    1.25 
   5  10 -10    9.37    0.72 
   6  10 -10    2.20    0.25 
   7  10 -10   21.43    1.79 
   8  10 -10    1.58    0.22 
   9  10 -10    1.52    0.29 
  10  10 -10   -0.05    0.12 
  11  10 -10    0.01    0.10 
  -7  11 -10    0.21    0.05 
  -6  11 -10    1.67    0.11 
  -5  11 -10    1.01    0.10 
  -4  11 -10    1.30    0.11 
  -3  11 -10    3.40    0.19 
  -2  11 -10    1.89    0.15 
  -1  11 -10    0.12    0.09 
   0  11 -10    5.15    0.33 
   1  11 -10   17.78    1.22 
   2  11 -10    1.45    0.39 
   3  11 -10    0.37    0.16 
   4  11 -10    0.52    0.14 
   5  11 -10   11.47    0.85 
   6  11 -10    0.79    0.15 
   7  11 -10    1.26    0.20 
   8  11 -10    0.63    0.20 
   9  11 -10    0.17    0.15 
  10  11 -10    3.05    0.37 
  11  11 -10    0.05    0.09 
  -6  12 -10    0.51    0.06 
  -5  12 -10    0.09    0.06 
  -4  12 -10    0.65    0.09 
  -3  12 -10   -0.03    0.07 
  -2  12 -10    0.54    0.10 
  -1  12 -10    0.63    0.11 
   0  12 -10    4.60    0.31 
   1  12 -10    0.62    0.14 
   2  12 -10   -0.11    0.11 
   3  12 -10    0.28    0.12 
   4  12 -10    0.33    0.14 
   5  12 -10    0.73    0.14 
   6  12 -10    0.32    0.12 
   7  12 -10    0.29    0.12 
   8  12 -10    0.97    0.17 
   9  12 -10    0.41    0.13 
  10  12 -10    1.47    0.22 
  11  12 -10    0.14    0.07 
  -6  13 -10    0.46    0.05 
  -5  13 -10   -0.06    0.05 
  -4  13 -10    5.68    0.32 
  -3  13 -10    4.74    0.27 
  -2  13 -10    1.33    0.13 
  -1  13 -10    0.09    0.09 
   0  13 -10   -0.03    0.09 
   1  13 -10    0.15    0.11 
   2  13 -10    2.19    0.23 
   3  13 -10    0.99    0.18 
   4  13 -10    0.84    0.16 
   5  13 -10    1.61    0.19 
   6  13 -10    6.35    0.44 
   7  13 -10    0.47    0.13 
   8  13 -10    0.06    0.10 
   9  13 -10    0.02    0.08 
  10  13 -10   -0.06    0.08 
  -5  14 -10   -0.02    0.05 
  -4  14 -10    2.35    0.14 
  -3  14 -10    0.46    0.09 
  -2  14 -10    0.14    0.09 
  -1  14 -10    0.10    0.10 
   0  14 -10    0.20    0.09 
   1  14 -10    3.88    0.31 
   2  14 -10    1.89    0.21 
   3  14 -10    0.02    0.13 
   4  14 -10    1.33    0.18 
   5  14 -10    1.22    0.16 
   6  14 -10    0.73    0.17 
   7  14 -10    1.16    0.17 
   8  14 -10    0.28    0.10 
   9  14 -10    0.17    0.09 
  10  14 -10    0.20    0.08 
  -5  15 -10    0.21    0.05 
  -4  15 -10    0.57    0.08 
  -3  15 -10    0.51    0.09 
  -2  15 -10    0.38    0.09 
  -1  15 -10    0.38    0.10 
   0  15 -10    0.94    0.13 
   1  15 -10    0.37    0.12 
   2  15 -10    3.02    0.30 
   3  15 -10    0.24    0.11 
   4  15 -10    4.52    0.39 
   5  15 -10   -0.06    0.12 
   6  15 -10   -0.10    0.11 
   7  15 -10    0.89    0.14 
   8  15 -10    3.43    0.34 
   9  15 -10    0.04    0.08 
  -4  16 -10   -0.04    0.05 
  -3  16 -10    1.09    0.12 
  -2  16 -10    0.77    0.10 
  -1  16 -10    0.74    0.12 
   0  16 -10    0.37    0.11 
   1  16 -10    0.40    0.12 
   2  16 -10    0.10    0.13 
   3  16 -10    0.53    0.14 
   4  16 -10    0.85    0.15 
   5  16 -10    4.40    0.46 
   6  16 -10    1.09    0.15 
   7  16 -10    0.06    0.09 
   8  16 -10    0.68    0.11 
  -3  17 -10    0.51    0.09 
  -2  17 -10    0.07    0.08 
  -1  17 -10    0.65    0.11 
   0  17 -10    0.41    0.11 
   1  17 -10    0.03    0.11 
   2  17 -10    0.61    0.14 
   3  17 -10    0.18    0.11 
   4  17 -10    1.37    0.20 
   5  17 -10   -0.02    0.10 
   6  17 -10    0.49    0.11 
   7  17 -10    0.87    0.13 
   8  17 -10    0.02    0.07 
  -3  18 -10    4.04    0.49 
  -2  18 -10    0.16    0.07 
  -1  18 -10   -0.02    0.07 
   0  18 -10   -0.05    0.09 
   1  18 -10    0.08    0.10 
   2  18 -10    0.18    0.09 
   3  18 -10    1.13    0.17 
   4  18 -10    0.18    0.10 
   5  18 -10   -0.01    0.09 
   6  18 -10    0.17    0.08 
   7  18 -10    0.78    0.11 
  -1  19 -10    1.04    0.14 
   0  19 -10    0.53    0.11 
   1  19 -10   -0.04    0.08 
   2  19 -10    0.31    0.10 
   3  19 -10    0.03    0.08 
   4  19 -10   -0.03    0.08 
   5  19 -10    0.62    0.13 
   6  19 -10    0.04    0.08 
   1  20 -10   -0.04    0.08 
   2  20 -10   -0.02    0.07 
   3  20 -10    0.16    0.08 
   4  20 -10    0.13    0.08 
   0 -21  -9    0.38    0.10 
   1 -21  -9    0.47    0.09 
   2 -21  -9    0.07    0.07 
   3 -21  -9    0.20    0.06 
  -2 -20  -9    0.35    0.11 
  -1 -20  -9    0.13    0.07 
   0 -20  -9    0.27    0.09 
   1 -20  -9    0.48    0.12 
   2 -20  -9    0.15    0.09 
   3 -20  -9    0.16    0.07 
   4 -20  -9    0.82    0.15 
   5 -20  -9    3.35    0.32 
  -3 -19  -9    0.01    0.06 
  -2 -19  -9    0.13    0.07 
  -1 -19  -9    0.00    0.07 
   0 -19  -9    0.22    0.11 
   1 -19  -9    0.32    0.11 
   2 -19  -9    0.45    0.13 
   3 -19  -9    0.55    0.12 
   4 -19  -9    0.32    0.10 
   5 -19  -9    1.75    0.23 
   6 -19  -9    0.02    0.08 
   7 -19  -9    0.01    0.06 
  -4 -18  -9    0.08    0.06 
  -3 -18  -9    0.78    0.10 
  -2 -18  -9    0.09    0.08 
  -1 -18  -9    1.63    0.18 
   0 -18  -9   -0.11    0.10 
   1 -18  -9   -0.03    0.11 
   2 -18  -9    0.68    0.16 
   3 -18  -9    0.17    0.10 
   4 -18  -9   -0.03    0.10 
   5 -18  -9    0.16    0.10 
   6 -18  -9    0.80    0.13 
   7 -18  -9   -0.08    0.07 
   8 -18  -9    0.11    0.06 
  -4 -17  -9    0.04    0.06 
  -3 -17  -9    0.07    0.07 
  -2 -17  -9    1.95    0.17 
  -1 -17  -9    0.00    0.08 
   0 -17  -9    0.17    0.11 
   1 -17  -9   -0.07    0.10 
   2 -17  -9    0.13    0.13 
   3 -17  -9    0.86    0.15 
   4 -17  -9    0.34    0.13 
   5 -17  -9    0.21    0.11 
   6 -17  -9    0.02    0.10 
   7 -17  -9    0.06    0.09 
   8 -17  -9    0.05    0.07 
  -5 -16  -9    0.36    0.06 
  -4 -16  -9    1.05    0.11 
  -3 -16  -9    0.26    0.08 
  -2 -16  -9    2.10    0.17 
  -1 -16  -9    0.54    0.11 
   0 -16  -9    0.38    0.11 
   1 -16  -9    0.49    0.12 
   2 -16  -9    0.26    0.10 
   3 -16  -9    2.01    0.21 
   4 -16  -9   -0.07    0.10 
   5 -16  -9    2.23    0.27 
   6 -16  -9   -0.03    0.11 
   7 -16  -9    0.05    0.09 
   8 -16  -9    0.51    0.12 
   9 -16  -9    0.02    0.06 
  -6 -15  -9    0.03    0.04 
  -5 -15  -9   -0.02    0.05 
  -4 -15  -9    0.35    0.07 
  -3 -15  -9    1.41    0.11 
  -2 -15  -9    0.27    0.09 
  -1 -15  -9    0.58    0.10 
   0 -15  -9    0.23    0.10 
   1 -15  -9    1.07    0.15 
   2 -15  -9    0.72    0.12 
   3 -15  -9   -0.02    0.10 
   4 -15  -9    0.12    0.11 
   5 -15  -9    0.15    0.11 
   6 -15  -9    1.39    0.20 
   7 -15  -9    0.04    0.11 
   8 -15  -9    0.11    0.09 
   9 -15  -9    0.77    0.12 
  10 -15  -9    0.15    0.08 
  -6 -14  -9    0.06    0.04 
  -5 -14  -9    0.43    0.07 
  -4 -14  -9    1.84    0.13 
  -3 -14  -9    0.49    0.09 
  -2 -14  -9    0.80    0.10 
  -1 -14  -9    0.05    0.07 
   0 -14  -9    1.07    0.14 
   1 -14  -9   -0.06    0.09 
   2 -14  -9    1.50    0.18 
   3 -14  -9    0.13    0.11 
   4 -14  -9    0.27    0.11 
   5 -14  -9   -0.05    0.11 
   6 -14  -9    0.84    0.16 
   7 -14  -9    0.82    0.17 
   8 -14  -9    0.72    0.16 
   9 -14  -9    0.03    0.09 
  10 -14  -9   -0.05    0.08 
  -7 -13  -9    0.09    0.03 
  -6 -13  -9    1.47    0.11 
  -5 -13  -9    0.33    0.07 
  -4 -13  -9    0.13    0.07 
  -3 -13  -9    0.90    0.10 
  -2 -13  -9    2.88    0.20 
  -1 -13  -9    0.08    0.08 
   0 -13  -9    0.62    0.12 
   1 -13  -9    0.78    0.12 
   2 -13  -9    1.15    0.16 
   3 -13  -9    0.69    0.14 
   4 -13  -9    1.95    0.24 
   5 -13  -9    1.44    0.19 
   6 -13  -9    0.39    0.13 
   7 -13  -9   -0.15    0.12 
   8 -13  -9    2.54    0.29 
   9 -13  -9    0.25    0.15 
  10 -13  -9    0.90    0.19 
  11 -13  -9    0.07    0.09 
  -7 -12  -9    0.20    0.04 
  -6 -12  -9    0.82    0.08 
  -5 -12  -9    1.29    0.11 
  -4 -12  -9    0.34    0.07 
  -3 -12  -9    2.96    0.18 
  -2 -12  -9    0.23    0.08 
  -1 -12  -9   21.38    1.23 
   0 -12  -9    7.79    1.10 
   1 -12  -9    1.27    0.36 
   2 -12  -9   -0.12    0.17 
   3 -12  -9   -0.04    0.19 
   4 -12  -9    0.68    0.28 
   5 -12  -9   -0.13    0.11 
   6 -12  -9    0.58    0.17 
   7 -12  -9    0.05    0.11 
   8 -12  -9    2.97    0.38 
   9 -12  -9    0.94    0.24 
  10 -12  -9    8.15    0.96 
  11 -12  -9    0.17    0.11 
  -7 -11  -9    0.08    0.05 
  -6 -11  -9    0.19    0.07 
  -5 -11  -9    1.75    0.13 
  -4 -11  -9    1.09    0.10 
  -3 -11  -9    0.13    0.07 
  -2 -11  -9    0.70    0.10 
  -1 -11  -9    0.01    0.17 
   0 -11  -9    0.69    0.23 
   1 -11  -9    4.18    1.01 
   2 -11  -9   -0.02    0.18 
   3 -11  -9    0.71    0.31 
   4 -11  -9    3.91    0.81 
   5 -11  -9    0.92    0.36 
   6 -11  -9   -0.02    0.11 
   7 -11  -9    2.41    0.29 
   8 -11  -9    0.83    0.21 
   9 -11  -9   -0.17    0.17 
  10 -11  -9    0.66    0.18 
  11 -11  -9    0.53    0.17 
  -8 -10  -9    0.23    0.05 
  -7 -10  -9    0.23    0.06 
  -6 -10  -9    0.14    0.07 
  -5 -10  -9    2.35    0.14 
  -4 -10  -9   -0.08    0.06 
  -3 -10  -9   30.97    1.38 
  -2 -10  -9    1.59    0.37 
  -1 -10  -9    0.42    0.21 
   0 -10  -9    1.12    0.28 
   1 -10  -9    2.05    0.50 
   2 -10  -9    0.27    0.22 
   3 -10  -9    0.52    0.24 
   4 -10  -9    4.18    0.82 
   5 -10  -9    2.97    0.51 
   6 -10  -9    3.72    0.60 
   7 -10  -9    3.04    0.35 
   8 -10  -9    1.13    0.22 
   9 -10  -9   -0.02    0.15 
  10 -10  -9    0.20    0.26 
  11 -10  -9    0.62    0.20 
  12 -10  -9    3.36    0.45 
  -8  -9  -9    0.35    0.07 
  -7  -9  -9    0.16    0.06 
  -6  -9  -9   -0.05    0.07 
  -5  -9  -9    0.42    0.07 
  -4  -9  -9    0.32    0.07 
  -3  -9  -9    5.97    0.32 
  -2  -9  -9   24.65    3.06 
  -1  -9  -9    5.81    0.85 
   0  -9  -9   12.51    2.02 
   1  -9  -9    5.17    1.15 
   2  -9  -9    4.65    1.07 
   3  -9  -9    0.20    0.22 
   4  -9  -9    0.32    0.14 
   5  -9  -9    0.06    0.14 
   6  -9  -9    4.24    0.68 
   7  -9  -9   -0.24    0.14 
   8  -9  -9    5.31    0.67 
   9  -9  -9    1.51    0.30 
  10  -9  -9    0.48    0.31 
  11  -9  -9    0.35    0.20 
  12  -9  -9    1.38    0.27 
  -8  -8  -9    0.10    0.06 
  -7  -8  -9    0.03    0.06 
  -6  -8  -9    0.45    0.08 
  -5  -8  -9    6.44    0.32 
  -4  -8  -9    5.06    0.26 
  -3  -8  -9   -0.10    0.11 
  -2  -8  -9    7.26    0.81 
  -1  -8  -9   37.83    5.91 
   0  -8  -9   14.23    2.24 
   1  -8  -9    2.00    0.52 
   2  -8  -9    2.11    0.49 
   3  -8  -9    0.09    0.12 
   4  -8  -9    1.30    0.26 
   5  -8  -9    1.34    0.28 
   6  -8  -9   -0.08    0.14 
   7  -8  -9    2.27    0.74 
   8  -8  -9    0.23    0.18 
   9  -8  -9    5.05    0.77 
  10  -8  -9    1.13    0.42 
  11  -8  -9   -0.25    0.27 
  12  -8  -9    0.18    0.17 
  -8  -7  -9    0.29    0.07 
  -7  -7  -9    0.80    0.09 
  -6  -7  -9    0.08    0.07 
  -5  -7  -9    0.63    0.09 
  -4  -7  -9    0.33    0.07 
  -3  -7  -9    2.41    0.31 
  -2  -7  -9    1.16    0.20 
  -1  -7  -9    0.13    0.12 
   0  -7  -9    0.02    0.14 
   1  -7  -9    5.83    1.14 
   2  -7  -9    1.31    0.38 
   3  -7  -9    0.39    0.13 
   4  -7  -9    1.99    0.32 
   5  -7  -9    2.51    0.45 
   6  -7  -9    0.19    0.20 
   7  -7  -9    7.32    1.44 
   8  -7  -9    0.19    0.21 
   9  -7  -9   -0.10    0.17 
  10  -7  -9    2.73    0.65 
  11  -7  -9    0.04    0.30 
  12  -7  -9    1.13    0.35 
  -9  -6  -9    0.32    0.06 
  -8  -6  -9    0.20    0.07 
  -7  -6  -9    0.07    0.07 
  -6  -6  -9    0.33    0.08 
  -5  -6  -9    2.50    0.16 
  -4  -6  -9   13.25    1.44 
  -3  -6  -9   23.56    2.61 
  -2  -6  -9    0.31    0.15 
  -1  -6  -9    2.14    0.32 
   0  -6  -9    8.11    1.22 
   1  -6  -9    2.86    0.92 
   2  -6  -9    0.03    0.10 
   3  -6  -9    0.22    0.12 
   4  -6  -9    1.73    0.29 
   5  -6  -9    0.52    0.18 
   6  -6  -9    0.91    0.31 
   7  -6  -9   21.83    4.18 
   8  -6  -9   -0.15    0.19 
   9  -6  -9    2.17    0.43 
  10  -6  -9    0.14    0.17 
  11  -6  -9    0.78    0.35 
  12  -6  -9    0.00    0.22 
  -9  -5  -9    0.13    0.05 
  -8  -5  -9    0.69    0.09 
  -7  -5  -9    1.57    0.14 
  -6  -5  -9    3.16    0.20 
  -5  -5  -9    0.53    0.08 
  -4  -5  -9    0.58    0.15 
  -3  -5  -9    3.88    0.49 
  -2  -5  -9    2.98    0.46 
  -1  -5  -9    1.60    0.25 
   0  -5  -9   15.50    1.67 
   1  -5  -9    1.27    0.21 
   2  -5  -9    5.69    0.68 
   3  -5  -9    5.87    0.70 
   4  -5  -9   13.20    1.92 
   5  -5  -9   -0.03    0.16 
   6  -5  -9    7.08    1.49 
   7  -5  -9    2.77    0.63 
   8  -5  -9    5.16    0.73 
   9  -5  -9   -0.06    0.16 
  10  -5  -9    1.65    0.30 
  12  -5  -9   -0.18    0.21 
  13  -5  -9    1.51    0.32 
  -9  -4  -9   -0.03    0.06 
  -8  -4  -9   -0.02    0.07 
  -7  -4  -9    0.05    0.08 
  -6  -4  -9    3.78    0.22 
  -5  -4  -9    4.73    0.27 
  -4  -4  -9   16.47    1.74 
  -3  -4  -9   10.73    1.34 
  -2  -4  -9    0.10    0.11 
  -1  -4  -9    5.12    0.65 
   0  -4  -9    1.57    0.18 
   1  -4  -9    1.96    0.26 
   2  -4  -9    0.57    0.10 
   3  -4  -9    0.06    0.07 
   4  -4  -9    7.79    0.92 
   5  -4  -9    7.54    1.36 
   6  -4  -9    1.60    0.38 
   7  -4  -9   -0.06    0.12 
   8  -4  -9    0.02    0.14 
   9  -4  -9   -0.34    0.13 
  10  -4  -9    0.95    0.26 
  13  -4  -9    0.80    0.28 
  -9  -3  -9    1.07    0.12 
  -8  -3  -9    0.03    0.07 
  -7  -3  -9    0.48    0.10 
  -6  -3  -9    0.13    0.07 
  -5  -3  -9    7.34    0.39 
  -4  -3  -9    7.79    1.00 
  -3  -3  -9    6.37    0.87 
  -2  -3  -9    0.84    0.17 
  -1  -3  -9    0.27    0.10 
   0  -3  -9    6.35    0.61 
   1  -3  -9    0.03    0.06 
   2  -3  -9    0.26    0.08 
   3  -3  -9    0.74    0.13 
   4  -3  -9    0.10    0.09 
   5  -3  -9    0.28    0.18 
   6  -3  -9    0.20    0.18 
   7  -3  -9    0.44    0.17 
   8  -3  -9   -0.07    0.13 
   9  -3  -9    0.02    0.16 
  10  -3  -9    4.78    1.14 
  -9  -2  -9    0.42    0.09 
  -8  -2  -9    1.37    0.13 
  -7  -2  -9    0.02    0.08 
  -6  -2  -9    4.51    0.25 
  -5  -2  -9    9.61    0.51 
  -4  -2  -9    7.30    0.93 
  -3  -2  -9    7.58    0.96 
  -2  -2  -9    2.76    0.38 
  -1  -2  -9    0.15    0.08 
   0  -2  -9    0.52    0.09 
   1  -2  -9    3.40    0.39 
   2  -2  -9   23.33    2.78 
   3  -2  -9    8.98    1.33 
   4  -2  -9    0.06    0.08 
   5  -2  -9    0.93    0.27 
   6  -2  -9   18.86    2.80 
   7  -2  -9    3.88    0.58 
   8  -2  -9    0.27    0.15 
   9  -2  -9    0.08    0.14 
  10  -2  -9    0.02    0.15 
  13  -2  -9    0.30    0.19 
  -9  -1  -9   -0.09    0.07 
  -8  -1  -9    0.15    0.08 
  -7  -1  -9    2.47    0.19 
  -6  -1  -9    2.54    0.17 
  -5  -1  -9    1.27    0.11 
  -4  -1  -9   -0.05    0.14 
  -3  -1  -9   -0.03    0.11 
  -2  -1  -9    5.93    0.65 
  -1  -1  -9    3.64    0.38 
   0  -1  -9    2.04    0.24 
   1  -1  -9    0.08    0.06 
   2  -1  -9    0.35    0.10 
   3  -1  -9   19.92    2.99 
   4  -1  -9   22.65    3.14 
   5  -1  -9    4.76    0.59 
   6  -1  -9    6.21    0.96 
   7  -1  -9    1.79    0.36 
   8  -1  -9    0.36    0.16 
   9  -1  -9    4.06    0.77 
  10  -1  -9    0.97    0.32 
  13  -1  -9   -0.12    0.18 
  -9   0  -9   -0.05    0.08 
  -8   0  -9    0.04    0.08 
  -7   0  -9   -0.02    0.08 
  -6   0  -9   -0.12    0.07 
  -5   0  -9   -0.11    0.07 
  -4   0  -9    0.06    0.13 
  -3   0  -9   -0.16    0.09 
  -2   0  -9   -0.03    0.09 
  -1   0  -9    0.06    0.07 
   0   0  -9   -0.02    0.07 
   1   0  -9    0.07    0.09 
   2   0  -9   -0.16    0.06 
   3   0  -9    0.06    0.07 
   4   0  -9   -0.06    0.07 
   5   0  -9    0.01    0.07 
   6   0  -9    0.07    0.11 
   7   0  -9   -0.21    0.10 
   8   0  -9   -0.26    0.12 
   9   0  -9   -0.10    0.13 
  10   0  -9    0.22    0.22 
  -9   1  -9   -0.06    0.08 
  -8   1  -9    0.05    0.08 
  -7   1  -9    2.27    0.20 
  -6   1  -9    2.17    0.16 
  -5   1  -9    1.17    0.11 
  -4   1  -9   -0.13    0.11 
  -3   1  -9    0.06    0.10 
  -2   1  -9    6.33    0.65 
  -1   1  -9    3.81    0.38 
   0   1  -9    2.48    0.25 
   1   1  -9    0.01    0.07 
   2   1  -9    0.46    0.12 
   3   1  -9   20.99    2.99 
   4   1  -9   21.53    2.56 
   5   1  -9    4.83    0.59 
   6   1  -9    6.53    0.96 
   7   1  -9    1.95    0.37 
   8   1  -9    0.18    0.15 
   9   1  -9    5.32    1.13 
  10   1  -9    0.84    0.29 
  12   1  -9    0.27    0.26 
  -9   2  -9    0.29    0.09 
  -8   2  -9    1.28    0.13 
  -7   2  -9    0.06    0.08 
  -6   2  -9    4.64    0.25 
  -5   2  -9    9.28    0.51 
  -4   2  -9    7.13    0.81 
  -3   2  -9    8.08    0.84 
  -2   2  -9    2.68    0.33 
  -1   2  -9    0.19    0.08 
   0   2  -9    0.72    0.11 
   1   2  -9    3.81    0.46 
   2   2  -9   22.50    4.81 
   3   2  -9    9.32    1.89 
   4   2  -9    0.01    0.07 
   5   2  -9    0.79    0.14 
   6   2  -9   20.59    2.80 
   7   2  -9    3.99    0.58 
   8   2  -9    0.17    0.24 
   9   2  -9   -0.30    0.17 
  10   2  -9    0.02    0.21 
  13   2  -9   -0.22    0.21 
  -9   3  -9    1.09    0.12 
  -8   3  -9   -0.01    0.07 
  -7   3  -9    0.28    0.09 
  -6   3  -9    0.04    0.08 
  -5   3  -9    7.33    0.39 
  -4   3  -9    7.80    0.87 
  -3   3  -9    6.96    0.76 
  -2   3  -9    0.70    0.15 
  -1   3  -9    0.15    0.10 
   0   3  -9    6.35    0.69 
   1   3  -9    0.11    0.09 
   2   3  -9    0.14    0.15 
   3   3  -9    0.89    0.18 
   4   3  -9    0.03    0.07 
   5   3  -9    0.38    0.10 
   6   3  -9    0.06    0.12 
   7   3  -9    0.28    0.15 
   8   3  -9   -0.12    0.18 
   9   3  -9    0.44    0.24 
  10   3  -9    5.27    1.16 
  -9   4  -9    0.17    0.06 
  -8   4  -9   -0.03    0.07 
  -7   4  -9   -0.03    0.08 
  -6   4  -9    3.96    0.24 
  -5   4  -9    4.63    0.27 
  -4   4  -9   16.30    1.75 
  -3   4  -9   11.33    1.17 
  -2   4  -9    0.07    0.10 
  -1   4  -9    4.79    0.65 
   0   4  -9    1.47    0.21 
   1   4  -9    1.60    0.32 
   2   4  -9    0.50    0.13 
   3   4  -9    0.15    0.10 
   4   4  -9    7.81    1.13 
   5   4  -9    6.33    0.95 
   6   4  -9    1.27    0.26 
   7   4  -9   -0.07    0.17 
   8   4  -9    0.00    0.20 
   9   4  -9   -0.11    0.19 
  10   4  -9    0.85    0.35 
  12   4  -9   -0.45    0.26 
  13   4  -9    1.05    0.28 
  -9   5  -9   -0.03    0.06 
  -8   5  -9    0.64    0.09 
  -7   5  -9    1.56    0.14 
  -6   5  -9    3.08    0.21 
  -5   5  -9    0.52    0.09 
  -4   5  -9    0.64    0.19 
  -3   5  -9    4.23    0.58 
  -2   5  -9    3.38    0.48 
  -1   5  -9    1.25    0.24 
   0   5  -9   15.67    1.94 
   1   5  -9    1.39    0.22 
   2   5  -9    6.06    0.84 
   3   5  -9    5.18    0.85 
   4   5  -9   15.45    1.93 
   5   5  -9    0.22    0.12 
   6   5  -9    7.52    1.49 
   7   5  -9    3.73    0.67 
   8   5  -9    4.95    1.05 
   9   5  -9    0.18    0.21 
  10   5  -9    2.01    0.35 
  11   5  -9    0.21    0.34 
  13   5  -9    0.89    0.28 
  -9   6  -9    0.04    0.06 
  -8   6  -9    0.16    0.07 
  -7   6  -9    0.04    0.08 
  -6   6  -9    0.31    0.08 
  -5   6  -9    2.50    0.17 
  -4   6  -9   13.62    1.68 
  -3   6  -9   25.45    3.02 
  -2   6  -9    0.86    0.18 
  -1   6  -9    2.00    0.33 
   0   6  -9    7.93    1.22 
   1   6  -9    4.38    0.54 
   2   6  -9   -0.01    0.09 
   3   6  -9    0.08    0.11 
   4   6  -9    1.49    0.28 
   5   6  -9    0.86    0.27 
   6   6  -9    0.73    0.31 
   7   6  -9   21.07    4.17 
   8   6  -9    0.05    0.22 
   9   6  -9    2.86    0.36 
  10   6  -9    0.28    0.16 
  12   6  -9    0.27    0.24 
  -8   7  -9    0.12    0.07 
  -7   7  -9    0.65    0.09 
  -6   7  -9   -0.03    0.07 
  -5   7  -9    0.70    0.09 
  -4   7  -9    0.45    0.08 
  -3   7  -9    2.05    0.37 
  -2   7  -9    1.54    0.26 
  -1   7  -9    0.13    0.12 
   0   7  -9   -0.20    0.11 
   1   7  -9    4.88    0.79 
   2   7  -9    1.19    0.26 
   3   7  -9    0.39    0.14 
   4   7  -9    1.43    0.30 
   5   7  -9    3.20    0.66 
   6   7  -9    0.01    0.18 
   7   7  -9    7.40    1.44 
   8   7  -9    0.20    0.23 
   9   7  -9    0.22    0.15 
  10   7  -9    3.07    0.46 
  11   7  -9   -0.13    0.25 
  12   7  -9    1.09    0.31 
  -8   8  -9    0.06    0.06 
  -7   8  -9    0.05    0.07 
  -6   8  -9    0.27    0.08 
  -5   8  -9    6.20    0.33 
  -4   8  -9    4.79    0.26 
  -3   8  -9   -0.14    0.15 
  -2   8  -9    7.42    0.95 
  -1   8  -9   38.37    4.83 
   0   8  -9   14.88    1.83 
   1   8  -9    2.19    0.37 
   2   8  -9    2.23    0.36 
   3   8  -9    0.12    0.14 
   4   8  -9    1.17    0.35 
   5   8  -9    1.30    0.41 
   6   8  -9   -0.14    0.20 
   7   8  -9    5.16    0.80 
   8   8  -9    0.72    0.20 
   9   8  -9    6.06    0.55 
  10   8  -9    1.56    0.50 
  11   8  -9    0.37    0.26 
  12   8  -9    0.00    0.19 
  -8   9  -9    0.57    0.07 
  -7   9  -9    0.16    0.07 
  -6   9  -9    0.04    0.07 
  -5   9  -9    0.36    0.08 
  -4   9  -9    0.25    0.08 
  -3   9  -9    6.30    0.33 
  -2   9  -9   25.04    2.66 
  -1   9  -9    5.34    0.70 
   0   9  -9   12.46    1.65 
   1   9  -9    5.34    0.81 
   2   9  -9    5.15    0.75 
   3   9  -9    0.54    0.25 
   4   9  -9    0.53    0.23 
   5   9  -9    0.54    0.24 
   6   9  -9    4.18    0.98 
   7   9  -9    0.41    0.20 
   8   9  -9    7.15    0.70 
   9   9  -9    1.33    0.23 
  10   9  -9    0.39    0.34 
  11   9  -9    0.36    0.18 
  12   9  -9    1.81    0.27 
  -8  10  -9    0.38    0.06 
  -7  10  -9    0.21    0.06 
  -6  10  -9   -0.06    0.07 
  -5  10  -9    2.09    0.14 
  -4  10  -9    0.03    0.07 
  -3  10  -9   30.24    1.38 
  -2  10  -9    1.87    0.32 
  -1  10  -9    0.51    0.19 
   0  10  -9    1.70    0.33 
   1  10  -9    2.17    0.37 
   2  10  -9    0.63    0.27 
   3  10  -9    0.42    0.24 
   4  10  -9    3.40    0.80 
   5  10  -9    3.77    0.76 
   6  10  -9    3.52    0.83 
   7  10  -9    3.83    0.37 
   8  10  -9    1.73    0.26 
   9  10  -9    0.27    0.16 
  10  10  -9    0.26    0.19 
  11  10  -9    0.71    0.21 
  12  10  -9    2.48    0.42 
  -7  11  -9    0.01    0.05 
  -6  11  -9    0.24    0.07 
  -5  11  -9    1.47    0.13 
  -4  11  -9    1.43    0.11 
  -3  11  -9    0.01    0.07 
  -2  11  -9    0.59    0.10 
  -1  11  -9    0.37    0.21 
   0  11  -9    0.95    0.25 
   1  11  -9    4.31    0.73 
   2  11  -9    0.22    0.25 
   3  11  -9    2.14    0.42 
   4  11  -9    3.19    0.77 
   5  11  -9    1.19    0.37 
   6  11  -9    0.20    0.14 
   7  11  -9    3.79    0.36 
   8  11  -9    1.39    0.24 
   9  11  -9    0.24    0.19 
  10  11  -9    0.63    0.23 
  11  11  -9    0.33    0.16 
  -7  12  -9    0.30    0.05 
  -6  12  -9    0.68    0.08 
  -5  12  -9    1.62    0.12 
  -4  12  -9    0.14    0.07 
  -3  12  -9    2.65    0.17 
  -2  12  -9    0.31    0.09 
  -1  12  -9   21.41    1.19 
   0  12  -9    6.55    1.11 
   1  12  -9    0.84    0.40 
   2  12  -9    0.41    0.27 
   3  12  -9   -0.23    0.21 
   4  12  -9    0.06    0.24 
   5  12  -9    0.09    0.12 
   6  12  -9    1.11    0.18 
   7  12  -9    0.09    0.14 
   8  12  -9    3.12    0.32 
   9  12  -9    0.60    0.20 
  10  12  -9    9.18    1.18 
  11  12  -9    0.16    0.11 
  -7  13  -9    0.22    0.05 
  -6  13  -9    1.48    0.11 
  -5  13  -9    0.34    0.07 
  -4  13  -9    0.02    0.07 
  -3  13  -9    0.81    0.10 
  -2  13  -9    2.96    0.20 
  -1  13  -9    0.04    0.09 
   0  13  -9    0.59    0.12 
   1  13  -9    0.77    0.14 
   2  13  -9    1.36    0.18 
   3  13  -9    0.70    0.15 
   4  13  -9    2.66    0.26 
   5  13  -9    1.94    0.21 
   6  13  -9    0.80    0.16 
   7  13  -9    0.16    0.12 
   8  13  -9    2.20    0.27 
   9  13  -9    0.37    0.16 
  10  13  -9    1.36    0.20 
  11  13  -9    0.03    0.08 
  -6  14  -9    0.00    0.05 
  -5  14  -9    0.59    0.07 
  -4  14  -9    1.94    0.13 
  -3  14  -9    0.43    0.09 
  -2  14  -9    0.62    0.11 
  -1  14  -9   -0.05    0.09 
   0  14  -9    0.96    0.15 
   1  14  -9    0.26    0.12 
   2  14  -9    1.55    0.20 
   3  14  -9   -0.04    0.13 
   4  14  -9    0.40    0.13 
   5  14  -9    0.08    0.12 
   6  14  -9    1.20    0.17 
   7  14  -9    1.46    0.19 
   8  14  -9    0.61    0.15 
   9  14  -9   -0.07    0.10 
  10  14  -9    0.09    0.08 
  -6  15  -9    0.17    0.04 
  -5  15  -9    0.04    0.05 
  -4  15  -9    0.43    0.08 
  -3  15  -9    1.05    0.12 
  -2  15  -9    0.46    0.10 
  -1  15  -9    0.46    0.10 
   0  15  -9    0.56    0.11 
   1  15  -9    1.20    0.18 
   2  15  -9    0.89    0.14 
   3  15  -9    0.01    0.12 
   4  15  -9    0.34    0.14 
   5  15  -9    0.36    0.12 
   6  15  -9    1.84    0.22 
   7  15  -9   -0.01    0.12 
   8  15  -9    0.05    0.10 
   9  15  -9    1.19    0.14 
  10  15  -9    0.05    0.08 
  -5  16  -9    0.41    0.06 
  -4  16  -9    1.28    0.11 
  -3  16  -9    0.31    0.08 
  -2  16  -9    1.80    0.18 
  -1  16  -9    0.27    0.11 
   0  16  -9    0.23    0.10 
   1  16  -9    0.41    0.12 
   2  16  -9   -0.08    0.11 
   3  16  -9    2.08    0.22 
   4  16  -9    0.01    0.12 
   5  16  -9    2.58    0.28 
   6  16  -9    0.04    0.11 
   7  16  -9    0.25    0.12 
   8  16  -9    0.91    0.13 
   9  16  -9    0.01    0.07 
  -5  17  -9    1.02    0.31 
  -4  17  -9    0.01    0.06 
  -3  17  -9    0.03    0.07 
  -2  17  -9    1.70    0.17 
  -1  17  -9    0.01    0.09 
   0  17  -9    0.36    0.12 
   1  17  -9   -0.07    0.09 
   2  17  -9    0.08    0.12 
   3  17  -9    1.03    0.19 
   4  17  -9    0.02    0.11 
   5  17  -9    0.06    0.11 
   6  17  -9    0.22    0.12 
   7  17  -9   -0.05    0.09 
   8  17  -9   -0.05    0.07 
  -4  18  -9    0.19    0.06 
  -3  18  -9    0.79    0.10 
  -2  18  -9    0.12    0.08 
  -1  18  -9    1.93    0.19 
   0  18  -9    0.00    0.09 
   1  18  -9    0.07    0.10 
   2  18  -9    0.76    0.16 
   3  18  -9    0.02    0.11 
   4  18  -9    0.12    0.10 
   5  18  -9    0.18    0.11 
   6  18  -9    0.76    0.14 
   7  18  -9   -0.03    0.08 
   8  18  -9    0.17    0.08 
  -3  19  -9   -0.02    0.06 
  -2  19  -9    0.18    0.08 
  -1  19  -9    0.00    0.08 
   0  19  -9    0.09    0.09 
   1  19  -9    0.19    0.11 
   2  19  -9    0.41    0.12 
   3  19  -9    0.58    0.14 
   4  19  -9    0.19    0.11 
   5  19  -9    1.40    0.20 
   6  19  -9   -0.15    0.07 
   7  19  -9    0.03    0.08 
  -2  20  -9    0.57    0.13 
  -1  20  -9    0.04    0.08 
   0  20  -9    0.20    0.09 
   1  20  -9    0.26    0.10 
   2  20  -9    0.24    0.10 
   3  20  -9    0.17    0.11 
   4  20  -9    1.05    0.15 
   5  20  -9    3.24    0.34 
   0  21  -9    0.15    0.12 
   1  21  -9    0.61    0.10 
   2  21  -9   -0.03    0.08 
   3  21  -9    0.31    0.10 
   1 -22  -8    0.22    0.08 
   2 -22  -8    1.10    0.18 
  -2 -21  -8    0.08    0.08 
  -1 -21  -8    0.03    0.07 
   0 -21  -8   -0.05    0.08 
   1 -21  -8   -0.06    0.09 
   2 -21  -8    0.11    0.09 
   3 -21  -8    0.02    0.08 
   4 -21  -8   -0.09    0.07 
   5 -21  -8    0.36    0.10 
  -3 -20  -8   -0.01    0.06 
  -2 -20  -8    0.03    0.07 
  -1 -20  -8    0.06    0.08 
   0 -20  -8   -0.04    0.10 
   1 -20  -8   -0.13    0.11 
   2 -20  -8    0.67    0.12 
   3 -20  -8    0.01    0.10 
   4 -20  -8    0.10    0.08 
   5 -20  -8    0.32    0.09 
   6 -20  -8   -0.01    0.07 
  -4 -19  -8    0.02    0.06 
  -3 -19  -8    0.19    0.08 
  -2 -19  -8    0.19    0.08 
  -1 -19  -8    0.02    0.08 
   0 -19  -8    0.84    0.13 
   1 -19  -8    1.66    0.23 
   2 -19  -8    0.04    0.11 
   3 -19  -8    0.01    0.11 
   4 -19  -8    0.27    0.10 
   5 -19  -8    0.47    0.12 
   6 -19  -8    0.17    0.10 
   7 -19  -8    0.09    0.08 
  -5 -18  -8    0.11    0.05 
  -4 -18  -8    0.45    0.08 
  -3 -18  -8    0.11    0.07 
  -2 -18  -8    0.66    0.11 
  -1 -18  -8    0.34    0.10 
   0 -18  -8   -0.10    0.09 
   1 -18  -8    4.28    0.40 
   2 -18  -8   11.30    1.02 
   3 -18  -8    0.11    0.13 
   4 -18  -8    0.26    0.11 
   5 -18  -8    0.14    0.12 
   6 -18  -8    0.77    0.13 
   7 -18  -8    0.05    0.09 
   8 -18  -8    0.71    0.10 
  -5 -17  -8    0.58    0.08 
  -4 -17  -8    0.36    0.08 
  -3 -17  -8    0.52    0.09 
  -2 -17  -8    0.25    0.09 
  -1 -17  -8    0.45    0.11 
   0 -17  -8    0.22    0.10 
   1 -17  -8    2.14    0.21 
   2 -17  -8    0.61    0.15 
   3 -17  -8    1.27    0.18 
   4 -17  -8    0.66    0.13 
   5 -17  -8    0.39    0.12 
   6 -17  -8    0.00    0.10 
   7 -17  -8    0.10    0.10 
   8 -17  -8    0.05    0.07 
   9 -17  -8    0.01    0.06 
  -6 -16  -8   -0.04    0.04 
  -5 -16  -8    0.62    0.07 
  -4 -16  -8    0.08    0.07 
  -3 -16  -8    0.32    0.09 
  -2 -16  -8    0.11    0.08 
  -1 -16  -8    0.04    0.09 
   0 -16  -8   -0.06    0.08 
   1 -16  -8    0.15    0.09 
   2 -16  -8    1.99    0.24 
   3 -16  -8    0.97    0.15 
   4 -16  -8    1.82    0.24 
   5 -16  -8    0.00    0.10 
   6 -16  -8    1.15    0.18 
   7 -16  -8   -0.14    0.10 
   8 -16  -8   -0.15    0.08 
   9 -16  -8    1.15    0.17 
  -7 -15  -8    0.02    0.04 
  -6 -15  -8    0.52    0.07 
  -5 -15  -8    0.01    0.06 
  -4 -15  -8    0.51    0.08 
  -3 -15  -8    0.51    0.09 
  -2 -15  -8    2.60    0.19 
  -1 -15  -8   -0.06    0.08 
   0 -15  -8    0.22    0.10 
   1 -15  -8    5.33    0.41 
   2 -15  -8    1.07    0.15 
   3 -15  -8    0.08    0.10 
   4 -15  -8    0.94    0.16 
   5 -15  -8   -0.01    0.10 
   6 -15  -8    0.15    0.11 
   7 -15  -8    0.72    0.17 
   8 -15  -8    0.06    0.14 
   9 -15  -8    1.57    0.24 
  10 -15  -8    0.40    0.13 
  -7 -14  -8    0.10    0.04 
  -6 -14  -8    0.67    0.07 
  -5 -14  -8    1.81    0.13 
  -4 -14  -8    0.28    0.07 
  -3 -14  -8    3.10    0.21 
  -2 -14  -8    0.84    0.11 
  -1 -14  -8    0.28    0.09 
   0 -14  -8   -0.14    0.08 
   1 -14  -8    4.20    0.49 
   2 -14  -8    1.51    0.33 
   3 -14  -8    3.19    0.38 
   4 -14  -8    2.99    0.30 
   5 -14  -8    0.44    0.13 
   6 -14  -8    0.25    0.13 
   7 -14  -8    0.11    0.12 
   8 -14  -8    1.55    0.29 
   9 -14  -8    0.31    0.13 
  10 -14  -8    0.13    0.12 
  -7 -13  -8    0.05    0.05 
  -6 -13  -8    2.39    0.15 
  -5 -13  -8    0.59    0.08 
  -4 -13  -8    1.85    0.12 
  -3 -13  -8    0.12    0.07 
  -2 -13  -8    2.57    0.18 
  -1 -13  -8   -0.01    0.15 
   0 -13  -8    2.94    0.49 
   1 -13  -8    0.44    0.26 
   2 -13  -8    0.11    0.18 
   3 -13  -8    2.65    0.63 
   4 -13  -8    0.53    0.26 
   5 -13  -8    0.13    0.13 
   6 -13  -8    0.52    0.16 
   7 -13  -8    0.32    0.14 
   8 -13  -8    1.31    0.32 
   9 -13  -8    3.26    0.46 
  10 -13  -8    2.98    0.47 
  11 -13  -8    0.68    0.18 
  -8 -12  -8    0.24    0.05 
  -7 -12  -8    0.79    0.08 
  -6 -12  -8   -0.01    0.07 
  -5 -12  -8    3.80    0.21 
  -4 -12  -8    1.03    0.09 
  -3 -12  -8    1.29    0.11 
  -2 -12  -8    0.77    0.19 
  -1 -12  -8    5.98    1.02 
   0 -12  -8   13.85    2.18 
   1 -12  -8    1.67    0.36 
   2 -12  -8    0.94    0.36 
   3 -12  -8    0.72    0.28 
   4 -12  -8   -0.12    0.18 
   5 -12  -8    1.82    0.48 
   6 -12  -8    0.46    0.14 
   7 -12  -8    0.56    0.16 
   8 -12  -8    0.06    0.15 
   9 -12  -8    0.70    0.37 
  10 -12  -8    0.65    0.22 
  11 -12  -8    0.02    0.14 
  -8 -11  -8    0.03    0.04 
  -7 -11  -8   -0.09    0.06 
  -6 -11  -8    3.27    0.20 
  -5 -11  -8    7.54    0.37 
  -4 -11  -8    3.07    0.17 
  -3 -11  -8    1.17    0.12 
  -2 -11  -8    1.42    0.26 
  -1 -11  -8    0.01    0.12 
   0 -11  -8    0.76    0.20 
   1 -11  -8    1.23    0.41 
   2 -11  -8    2.16    0.58 
   3 -11  -8    0.76    0.31 
   4 -11  -8    0.68    0.26 
   5 -11  -8    3.82    0.58 
   6 -11  -8    0.45    0.16 
   7 -11  -8    0.37    0.14 
   8 -11  -8    1.15    0.23 
   9 -11  -8    0.26    0.18 
  10 -11  -8    0.03    0.18 
  11 -11  -8    0.08    0.22 
  12 -11  -8    0.28    0.21 
  -8 -10  -8    0.56    0.08 
  -7 -10  -8    0.45    0.08 
  -6 -10  -8    0.14    0.07 
  -5 -10  -8    7.32    0.37 
  -4 -10  -8   17.42    0.78 
  -3 -10  -8   12.87    1.36 
  -2 -10  -8    0.15    0.11 
  -1 -10  -8   -0.04    0.12 
   0 -10  -8    7.11    1.05 
   1 -10  -8    3.65    1.05 
   2 -10  -8    4.51    1.12 
   3 -10  -8    0.12    0.18 
   4 -10  -8    0.22    0.20 
   5 -10  -8    0.60    0.19 
   6 -10  -8    0.13    0.14 
   7 -10  -8    6.03    0.89 
   8 -10  -8    1.44    0.31 
   9 -10  -8    1.14    0.27 
  10 -10  -8   -0.18    0.23 
  11 -10  -8    0.50    0.24 
  12 -10  -8    1.19    0.33 
  -9  -9  -8   -0.07    0.04 
  -8  -9  -8    0.18    0.07 
  -7  -9  -8   -0.04    0.07 
  -6  -9  -8   -0.01    0.07 
  -5  -9  -8    6.44    0.34 
  -4  -9  -8    6.06    0.81 
  -3  -9  -8   -0.08    0.10 
  -2  -9  -8    3.29    0.38 
  -1  -9  -8    0.17    0.12 
   0  -9  -8    0.61    0.18 
   1  -9  -8    4.50    0.90 
   2  -9  -8    0.10    0.15 
   3  -9  -8    0.37    0.22 
   4  -9  -8    1.26    0.26 
   5  -9  -8    7.93    1.17 
   6  -9  -8    0.20    0.14 
   7  -9  -8    0.29    0.25 
   8  -9  -8    1.54    0.33 
   9  -9  -8    7.21    1.24 
  10  -9  -8    2.03    0.54 
  11  -9  -8   -0.22    0.20 
  12  -9  -8    0.41    0.27 
  -9  -8  -8    0.34    0.07 
  -8  -8  -8    0.09    0.07 
  -7  -8  -8    1.31    0.13 
  -6  -8  -8    0.30    0.07 
  -5  -8  -8   12.02    0.61 
  -4  -8  -8    0.62    0.15 
  -3  -8  -8   10.75    1.19 
  -2  -8  -8    6.54    0.73 
  -1  -8  -8   28.57    3.06 
   0  -8  -8   26.56    3.96 
   1  -8  -8    0.39    0.13 
   2  -8  -8    2.62    0.41 
   3  -8  -8    1.01    0.21 
   4  -8  -8    0.34    0.13 
   5  -8  -8    2.34    0.42 
   6  -8  -8    0.86    0.22 
   7  -8  -8    0.71    0.27 
   8  -8  -8   -0.05    0.20 
   9  -8  -8    0.39    0.27 
  10  -8  -8    7.94    1.03 
  12  -8  -8    0.41    0.30 
  -9  -7  -8   -0.09    0.06 
  -8  -7  -8    0.32    0.08 
  -7  -7  -8    0.11    0.08 
  -6  -7  -8    0.98    0.10 
  -5  -7  -8    9.54    0.50 
  -4  -7  -8   20.09    2.12 
  -3  -7  -8    0.69    0.15 
  -2  -7  -8   36.06    3.74 
  -1  -7  -8   -0.11    0.08 
   0  -7  -8    0.11    0.08 
   1  -7  -8    1.28    0.20 
   2  -7  -8    0.74    0.14 
   3  -7  -8    0.28    0.09 
   4  -7  -8    1.13    0.18 
   5  -7  -8    1.66    0.33 
   6  -7  -8    0.60    0.18 
   7  -7  -8    4.43    0.88 
   8  -7  -8    3.12    0.63 
   9  -7  -8    0.19    0.23 
  10  -7  -8    0.77    0.21 
  -9  -6  -8    0.08    0.07 
  -8  -6  -8    0.02    0.08 
  -7  -6  -8    2.06    0.15 
  -6  -6  -8    0.35    0.08 
  -5  -6  -8    2.72    0.35 
  -4  -6  -8   21.43    2.30 
  -3  -6  -8    0.91    0.17 
  -2  -6  -8    1.21    0.20 
  -1  -6  -8    2.11    0.25 
   0  -6  -8    0.98    0.15 
   1  -6  -8    3.84    0.54 
   2  -6  -8    5.55    0.67 
   3  -6  -8   10.20    1.16 
   4  -6  -8    0.46    0.10 
   5  -6  -8    0.84    0.21 
   6  -6  -8   15.04    2.81 
   7  -6  -8    0.79    0.29 
   8  -6  -8    6.11    1.17 
   9  -6  -8    0.34    0.24 
  10  -6  -8    1.40    0.32 
  -9  -5  -8    0.27    0.08 
  -8  -5  -8    0.44    0.10 
  -7  -5  -8    1.82    0.15 
  -6  -5  -8    0.27    0.08 
  -5  -5  -8    2.82    0.36 
  -4  -5  -8    1.60    0.23 
  -3  -5  -8    7.74    0.87 
  -2  -5  -8    3.94    0.37 
  -1  -5  -8    0.24    0.07 
   0  -5  -8    0.83    0.13 
   1  -5  -8    1.01    0.16 
   2  -5  -8   -0.05    0.06 
   3  -5  -8    0.21    0.08 
   4  -5  -8    0.01    0.06 
   5  -5  -8    3.12    0.46 
   6  -5  -8    1.07    0.27 
   7  -5  -8    4.21    0.85 
   8  -5  -8    2.02    0.59 
   9  -5  -8    4.13    0.92 
  10  -5  -8    4.20    0.75 
  -9  -4  -8    0.05    0.08 
  -8  -4  -8   -0.01    0.08 
  -7  -4  -8    0.25    0.08 
  -6  -4  -8    1.17    0.11 
  -5  -4  -8    1.76    0.23 
  -4  -4  -8    7.95    0.91 
  -3  -4  -8    2.15    0.26 
  -2  -4  -8    1.33    0.15 
  -1  -4  -8   20.55    1.93 
   0  -4  -8    2.18    0.21 
   1  -4  -8   16.28    1.94 
   2  -4  -8   -0.05    0.06 
   3  -4  -8    0.71    0.11 
   4  -4  -8   -0.06    0.06 
   5  -4  -8    2.10    0.31 
   6  -4  -8    1.53    0.43 
   7  -4  -8    0.20    0.18 
   8  -4  -8    1.04    0.34 
   9  -4  -8    3.47    0.54 
  10  -4  -8    0.98    0.30 
  -9  -3  -8    0.22    0.09 
  -8  -3  -8    0.49    0.10 
  -7  -3  -8    3.61    0.23 
  -6  -3  -8    0.83    0.10 
  -5  -3  -8    1.92    0.26 
  -4  -3  -8    3.45    0.44 
  -3  -3  -8    0.96    0.16 
  -2  -3  -8    2.50    0.26 
  -1  -3  -8    3.96    0.40 
   0  -3  -8    9.98    0.83 
   1  -3  -8   13.86    1.45 
   2  -3  -8    0.53    0.10 
   3  -3  -8    0.33    0.09 
   4  -3  -8    0.35    0.10 
   5  -3  -8   -0.01    0.08 
   6  -3  -8    1.21    0.21 
   7  -3  -8    0.39    0.16 
   8  -3  -8    0.16    0.15 
   9  -3  -8    0.39    0.18 
  10  -3  -8   -0.15    0.16 
  11  -3  -8    2.80    0.84 
  -9  -2  -8    0.46    0.12 
  -8  -2  -8    0.02    0.09 
  -7  -2  -8    0.41    0.09 
  -6  -2  -8    1.87    0.15 
  -5  -2  -8   12.25    1.55 
  -4  -2  -8    1.17    0.19 
  -3  -2  -8    0.18    0.09 
  -2  -2  -8   -0.11    0.06 
  -1  -2  -8    0.35    0.07 
   0  -2  -8    7.33    0.63 
   1  -2  -8    0.97    0.13 
   2  -2  -8    5.87    0.69 
   3  -2  -8    0.79    0.13 
   4  -2  -8    0.24    0.10 
   5  -2  -8    1.47    0.22 
   6  -2  -8    0.01    0.11 
   7  -2  -8    0.03    0.11 
   8  -2  -8    0.11    0.14 
   9  -2  -8    0.24    0.17 
  10  -2  -8    1.44    0.37 
  11  -2  -8    1.88    0.46 
  -9  -1  -8    0.20    0.14 
  -8  -1  -8    0.18    0.10 
  -7  -1  -8    3.47    0.23 
  -6  -1  -8    4.14    0.27 
  -5  -1  -8    0.28    0.15 
  -4  -1  -8    2.37    0.29 
  -3  -1  -8    1.12    0.18 
  -2  -1  -8    0.36    0.09 
  -1  -1  -8    1.91    0.22 
   0  -1  -8    0.21    0.06 
   1  -1  -8   39.41    3.63 
   2  -1  -8    4.43    0.47 
   3  -1  -8   -0.01    0.06 
   4  -1  -8    0.47    0.12 
   5  -1  -8    1.09    0.17 
   6  -1  -8    1.50    0.20 
   7  -1  -8    1.39    0.25 
   8  -1  -8    0.51    0.18 
   9  -1  -8    0.05    0.14 
  10  -1  -8    0.54    0.30 
  11  -1  -8    2.45    0.60 
  -9   0  -8    0.20    0.13 
  -8   0  -8   -0.04    0.10 
  -7   0  -8    9.22    0.54 
  -6   0  -8   33.79    1.84 
  -5   0  -8    2.03    0.33 
  -4   0  -8   15.76    1.91 
  -3   0  -8   12.04    1.27 
  -2   0  -8    3.01    0.30 
  -1   0  -8    7.85    0.72 
   0   0  -8   51.08    4.62 
   1   0  -8    2.37    0.24 
   2   0  -8    0.21    0.07 
   3   0  -8    0.04    0.07 
   4   0  -8    6.78    0.82 
   5   0  -8    3.53    0.43 
   6   0  -8    4.26    0.54 
   7   0  -8    0.95    0.23 
   8   0  -8    2.83    0.49 
   9   0  -8    9.31    1.37 
  10   0  -8    5.33    1.21 
  11   0  -8    1.81    0.53 
  -9   1  -8    0.03    0.11 
  -8   1  -8    0.01    0.09 
  -7   1  -8    3.43    0.23 
  -6   1  -8    4.40    0.26 
  -5   1  -8    0.18    0.14 
  -4   1  -8    2.19    0.30 
  -3   1  -8    1.41    0.19 
  -2   1  -8    0.39    0.10 
  -1   1  -8    1.95    0.22 
   0   1  -8    0.32    0.07 
   1   1  -8   39.91    4.06 
   2   1  -8    4.08    0.65 
   3   1  -8    0.00    0.06 
   4   1  -8    0.44    0.10 
   5   1  -8    1.28    0.18 
   6   1  -8    1.39    0.21 
   7   1  -8    1.02    0.22 
   8   1  -8    0.36    0.15 
   9   1  -8    0.13    0.20 
  10   1  -8    0.00    0.27 
  11   1  -8    1.58    0.54 
  -9   2  -8    0.52    0.13 
  -8   2  -8    0.01    0.10 
  -7   2  -8    0.30    0.09 
  -6   2  -8    2.25    0.16 
  -5   2  -8   12.99    1.35 
  -4   2  -8    1.02    0.19 
  -3   2  -8    0.10    0.10 
  -2   2  -8    0.06    0.07 
  -1   2  -8    0.26    0.08 
   0   2  -8    7.42    0.70 
   1   2  -8    0.62    0.13 
   2   2  -8    5.72    0.84 
   3   2  -8    0.91    0.14 
   4   2  -8    0.60    0.11 
   5   2  -8    1.57    0.22 
   6   2  -8    0.04    0.08 
   7   2  -8   -0.12    0.11 
   8   2  -8    0.38    0.23 
   9   2  -8    0.28    0.25 
  10   2  -8    1.96    0.54 
  11   2  -8    1.55    0.45 
  -9   3  -8    0.20    0.10 
  -8   3  -8    0.45    0.10 
  -7   3  -8    3.36    0.25 
  -6   3  -8    0.68    0.10 
  -5   3  -8    1.54    0.26 
  -4   3  -8    4.03    0.46 
  -3   3  -8    0.88    0.17 
  -2   3  -8    2.15    0.26 
  -1   3  -8    3.91    0.41 
   0   3  -8    9.84    0.92 
   1   3  -8   13.39    1.67 
   2   3  -8    0.56    0.11 
   3   3  -8    0.40    0.09 
   4   3  -8    0.32    0.09 
   5   3  -8    0.03    0.07 
   6   3  -8    0.70    0.19 
   7   3  -8    0.37    0.25 
   8   3  -8    0.28    0.21 
   9   3  -8    0.42    0.27 
  10   3  -8   -0.23    0.21 
  11   3  -8    4.28    0.89 
  -9   4  -8   -0.13    0.08 
  -8   4  -8   -0.14    0.08 
  -7   4  -8    0.21    0.09 
  -6   4  -8    1.44    0.12 
  -5   4  -8    1.40    0.24 
  -4   4  -8    9.08    0.93 
  -3   4  -8    1.39    0.25 
  -2   4  -8    1.39    0.18 
  -1   4  -8   20.10    1.94 
   0   4  -8    2.19    0.27 
   1   4  -8   17.08    1.95 
   2   4  -8   -0.08    0.06 
   3   4  -8    0.80    0.15 
   4   4  -8   -0.05    0.06 
   5   4  -8    1.83    0.25 
   6   4  -8    1.95    0.32 
   7   4  -8    0.09    0.19 
   8   4  -8    0.68    0.31 
   9   4  -8    3.47    0.76 
  10   4  -8    1.21    0.45 
  -9   5  -8    0.17    0.08 
  -8   5  -8    0.70    0.11 
  -7   5  -8    2.04    0.15 
  -6   5  -8    0.50    0.09 
  -5   5  -8    3.17    0.38 
  -4   5  -8    1.62    0.25 
  -3   5  -8    8.59    0.88 
  -2   5  -8    3.90    0.46 
  -1   5  -8    0.20    0.09 
   0   5  -8    0.83    0.13 
   1   5  -8    0.94    0.16 
   2   5  -8    0.02    0.07 
   3   5  -8    0.31    0.11 
   4   5  -8   -0.02    0.10 
   5   5  -8    2.74    0.38 
   6   5  -8    0.86    0.26 
   7   5  -8    3.26    0.80 
   8   5  -8    3.54    0.66 
   9   5  -8    3.76    0.89 
  10   5  -8    3.72    1.04 
  -9   6  -8    0.01    0.07 
  -8   6  -8    0.08    0.08 
  -7   6  -8    2.37    0.16 
  -6   6  -8    0.39    0.09 
  -5   6  -8    3.03    0.44 
  -4   6  -8   22.01    2.66 
  -3   6  -8    0.96    0.22 
  -2   6  -8    1.56    0.25 
  -1   6  -8    2.33    0.26 
   0   6  -8    1.16    0.16 
   1   6  -8    3.38    0.45 
   2   6  -8    6.00    0.68 
   3   6  -8   11.14    1.43 
   4   6  -8    0.27    0.12 
   5   6  -8    1.54    0.36 
   6   6  -8   14.15    2.80 
   7   6  -8    0.98    0.32 
   8   6  -8    5.86    1.17 
   9   6  -8   -0.25    0.13 
  10   6  -8    1.44    0.30 
  13   6  -8    5.63    1.03 
  -9   7  -8   -0.05    0.07 
  -8   7  -8    0.28    0.08 
  -7   7  -8    0.17    0.09 
  -6   7  -8    1.01    0.11 
  -5   7  -8    9.91    0.51 
  -4   7  -8   19.95    2.46 
  -3   7  -8    0.44    0.18 
  -2   7  -8   34.70    4.32 
  -1   7  -8    0.01    0.09 
   0   7  -8    0.11    0.08 
   1   7  -8    0.95    0.17 
   2   7  -8    0.67    0.14 
   3   7  -8    0.22    0.11 
   4   7  -8    1.16    0.34 
   6   7  -8    0.88    0.29 
   7   7  -8    4.22    0.61 
   8   7  -8    2.32    0.42 
   9   7  -8   -0.02    0.16 
  10   7  -8    0.35    0.18 
  -9   8  -8    0.33    0.07 
  -8   8  -8    0.01    0.07 
  -7   8  -8    1.27    0.13 
  -6   8  -8    0.27    0.08 
  -5   8  -8   11.87    0.62 
  -4   8  -8    0.52    0.20 
  -3   8  -8   11.43    1.39 
  -2   8  -8    7.06    0.74 
  -1   8  -8   29.32    3.06 
   0   8  -8   26.51    3.24 
   1   8  -8    0.38    0.12 
   2   8  -8    2.34    0.34 
   3   8  -8    1.06    0.23 
   4   8  -8    0.22    0.19 
   5   8  -8    2.70    0.60 
   6   8  -8    1.00    0.32 
   7   8  -8    0.23    0.15 
   8   8  -8    0.03    0.15 
   9   8  -8    0.37    0.19 
  10   8  -8    7.34    1.25 
  12   8  -8    0.54    0.24 
  -9   9  -8    0.05    0.05 
  -8   9  -8    0.29    0.07 
  -7   9  -8   -0.01    0.07 
  -6   9  -8   -0.16    0.07 
  -5   9  -8    6.69    0.35 
  -4   9  -8    5.99    0.84 
  -3   9  -8    0.13    0.13 
  -2   9  -8    2.79    0.38 
  -1   9  -8    0.03    0.12 
   0   9  -8    0.37    0.16 
   1   9  -8    3.84    0.64 
   2   9  -8    0.07    0.12 
   3   9  -8    0.55    0.25 
   4   9  -8    1.33    0.38 
   5   9  -8    9.23    1.68 
   6   9  -8    0.19    0.21 
   7   9  -8    0.72    0.20 
   8   9  -8    1.93    0.27 
   9   9  -8    9.06    1.01 
  10   9  -8    2.60    0.58 
  11   9  -8    0.05    0.27 
  12   9  -8    0.27    0.19 
  -8  10  -8    0.50    0.08 
  -7  10  -8    0.44    0.08 
  -6  10  -8   -0.03    0.07 
  -5  10  -8    7.22    0.38 
  -4  10  -8   16.23    0.78 
  -3  10  -8   12.37    1.38 
  -2  10  -8    0.02    0.12 
  -1  10  -8   -0.04    0.13 
   0  10  -8    5.67    1.05 
   1  10  -8    4.72    0.76 
   2  10  -8    6.02    1.15 
   3  10  -8    0.11    0.19 
   4  10  -8    0.21    0.21 
   5  10  -8    1.30    0.32 
   6  10  -8    0.23    0.23 
   7  10  -8    6.21    0.88 
   8  10  -8    1.34    0.25 
   9  10  -8    1.35    0.23 
  10  10  -8    0.12    0.31 
  11  10  -8    0.10    0.24 
  12  10  -8    1.36    0.32 
  -8  11  -8   -0.05    0.05 
  -7  11  -8   -0.08    0.06 
  -6  11  -8    3.04    0.19 
  -5  11  -8    7.30    0.39 
  -4  11  -8    2.90    0.17 
  -3  11  -8    0.69    0.13 
  -2  11  -8    1.61    0.29 
  -1  11  -8    0.18    0.19 
   0  11  -8    0.66    0.22 
   1  11  -8    1.06    0.40 
   2  11  -8    2.40    0.60 
   3  11  -8    1.09    0.34 
   4  11  -8    0.31    0.25 
   5  11  -8    4.54    0.85 
   6  11  -8    0.02    0.22 
   7  11  -8    0.49    0.13 
   8  11  -8    1.09    0.18 
   9  11  -8    0.31    0.15 
  10  11  -8    0.89    0.33 
  11  11  -8    0.46    0.18 
  12  11  -8    0.19    0.12 
  -8  12  -8    0.17    0.05 
  -7  12  -8    0.91    0.08 
  -6  12  -8    0.07    0.07 
  -5  12  -8    4.07    0.23 
  -4  12  -8    1.23    0.10 
  -3  12  -8    1.33    0.11 
  -2  12  -8    0.55    0.27 
  -1  12  -8    7.13    1.06 
   0  12  -8   15.03    3.10 
   1  12  -8    0.34    0.29 
   2  12  -8    1.20    0.38 
   3  12  -8    0.65    0.28 
   4  12  -8    0.34    0.23 
   5  12  -8    1.76    0.48 
   6  12  -8    0.67    0.19 
   7  12  -8    0.72    0.16 
   8  12  -8    0.18    0.14 
   9  12  -8    0.74    0.27 
  10  12  -8    1.21    0.25 
  11  12  -8    0.07    0.14 
  -7  13  -8    0.03    0.05 
  -6  13  -8    2.24    0.15 
  -5  13  -8    0.62    0.09 
  -4  13  -8    1.99    0.13 
  -3  13  -8    0.09    0.08 
  -2  13  -8    2.61    0.19 
  -1  13  -8    0.34    0.22 
   0  13  -8    2.30    0.68 
   1  13  -8    0.56    0.32 
   2  13  -8    0.03    0.21 
   3  13  -8    2.65    0.64 
   4  13  -8    0.27    0.24 
   5  13  -8    0.03    0.13 
   6  13  -8    0.65    0.15 
   7  13  -8    0.21    0.12 
   8  13  -8    1.76    0.35 
   9  13  -8    4.40    0.60 
  10  13  -8    3.17    0.38 
  11  13  -8    0.74    0.17 
  -7  14  -8    0.12    0.05 
  -6  14  -8    0.48    0.07 
  -5  14  -8    1.73    0.13 
  -4  14  -8    0.25    0.07 
  -3  14  -8    3.23    0.20 
  -2  14  -8    0.91    0.12 
  -1  14  -8    0.38    0.10 
   0  14  -8    0.05    0.11 
   1  14  -8    4.42    0.41 
   2  14  -8    1.82    0.31 
   3  14  -8    3.54    0.39 
   4  14  -8    4.30    0.33 
   5  14  -8    0.45    0.14 
   6  14  -8    0.84    0.16 
   7  14  -8    0.29    0.12 
   8  14  -8    2.53    0.32 
   9  14  -8    0.15    0.15 
  10  14  -8    0.26    0.13 
  -7  15  -8    0.14    0.04 
  -6  15  -8    0.46    0.06 
  -5  15  -8   -0.03    0.06 
  -4  15  -8    0.54    0.09 
  -3  15  -8    0.31    0.08 
  -2  15  -8    2.65    0.20 
  -1  15  -8    0.04    0.10 
   0  15  -8    0.40    0.10 
   1  15  -8    5.47    0.44 
   2  15  -8    1.78    0.17 
   3  15  -8    0.30    0.15 
   4  15  -8    1.44    0.19 
   5  15  -8   -0.02    0.12 
   6  15  -8    0.31    0.13 
   7  15  -8    0.72    0.18 
   8  15  -8    0.54    0.15 
   9  15  -8    2.13    0.28 
  10  15  -8    0.57    0.12 
  -6  16  -8    0.06    0.05 
  -5  16  -8    0.70    0.07 
  -4  16  -8    0.16    0.07 
  -3  16  -8    0.43    0.09 
  -2  16  -8    0.11    0.09 
  -1  16  -8    0.19    0.10 
   0  16  -8   -0.03    0.10 
   1  16  -8    0.19    0.11 
   2  16  -8    2.11    0.25 
   3  16  -8    0.87    0.17 
   4  16  -8    2.14    0.24 
   5  16  -8   -0.01    0.12 
   6  16  -8    1.15    0.18 
   7  16  -8   -0.02    0.11 
   8  16  -8    0.02    0.10 
   9  16  -8    1.90    0.20 
  -5  17  -8    0.61    0.08 
  -4  17  -8    0.46    0.08 
  -3  17  -8    0.44    0.09 
  -2  17  -8    0.15    0.09 
  -1  17  -8    0.61    0.11 
   0  17  -8    0.23    0.10 
   1  17  -8    1.89    0.20 
   2  17  -8    0.90    0.17 
   3  17  -8    1.78    0.21 
   4  17  -8    0.86    0.17 
   5  17  -8    0.24    0.14 
   6  17  -8    0.21    0.12 
   7  17  -8    0.05    0.10 
   8  17  -8    0.06    0.10 
   9  17  -8    0.03    0.08 
  -5  18  -8    0.04    0.05 
  -4  18  -8    0.39    0.08 
  -3  18  -8    0.04    0.07 
  -2  18  -8    0.62    0.11 
  -1  18  -8    0.94    0.11 
   0  18  -8    0.03    0.10 
   1  18  -8    4.12    0.44 
   2  18  -8   10.99    1.02 
   3  18  -8    0.38    0.13 
   4  18  -8    0.54    0.15 
   5  18  -8   -0.01    0.12 
   6  18  -8    1.21    0.16 
   7  18  -8    0.26    0.11 
   8  18  -8    0.63    0.12 
  -4  19  -8   -0.05    0.06 
  -3  19  -8    0.17    0.08 
  -2  19  -8    0.17    0.08 
  -1  19  -8    0.17    0.09 
   0  19  -8    0.62    0.13 
   1  19  -8    1.04    0.21 
   2  19  -8    0.22    0.12 
   3  19  -8    0.24    0.13 
   4  19  -8    0.45    0.14 
   5  19  -8    0.65    0.14 
   6  19  -8    0.45    0.11 
   7  19  -8    0.03    0.08 
  -3  20  -8   -0.01    0.07 
  -2  20  -8   -0.07    0.07 
  -1  20  -8    0.18    0.08 
   0  20  -8   -0.01    0.09 
   1  20  -8   -0.02    0.10 
   2  20  -8    0.23    0.12 
   3  20  -8    0.10    0.11 
   4  20  -8    0.02    0.10 
   5  20  -8    0.29    0.11 
   6  20  -8   -0.14    0.08 
  -2  21  -8    0.14    0.16 
  -1  21  -8    0.03    0.08 
   0  21  -8    0.13    0.08 
   1  21  -8   -0.05    0.10 
   2  21  -8   -0.01    0.09 
   3  21  -8    0.15    0.09 
   4  21  -8   -0.02    0.08 
   5  21  -8    0.65    0.12 
   1  22  -8    0.32    0.10 
   2  22  -8    1.37    0.19 
  -1 -22  -7    0.06    0.07 
   0 -22  -7   -0.10    0.07 
   1 -22  -7    0.22    0.09 
   2 -22  -7   -0.06    0.08 
   3 -22  -7    0.06    0.09 
   4 -22  -7    0.40    0.08 
  -3 -21  -7    0.08    0.06 
  -2 -21  -7    0.03    0.06 
  -1 -21  -7    0.11    0.09 
   0 -21  -7    0.06    0.09 
   1 -21  -7   -0.06    0.10 
   2 -21  -7    1.18    0.17 
   3 -21  -7    1.42    0.18 
   4 -21  -7    0.49    0.10 
   5 -21  -7    0.59    0.12 
   6 -21  -7    0.54    0.09 
  -4 -20  -7    0.06    0.06 
  -3 -20  -7    0.02    0.06 
  -2 -20  -7    0.13    0.08 
  -1 -20  -7    0.49    0.11 
   0 -20  -7    3.81    0.35 
   1 -20  -7    1.07    0.18 
   2 -20  -7    0.33    0.12 
   3 -20  -7    0.16    0.11 
   4 -20  -7    1.42    0.18 
   5 -20  -7    0.30    0.10 
   6 -20  -7    0.00    0.08 
   7 -20  -7   -0.01    0.07 
  -5 -19  -7    0.13    0.06 
  -4 -19  -7   -0.06    0.06 
  -3 -19  -7    0.06    0.07 
  -2 -19  -7    2.20    0.18 
  -1 -19  -7    0.33    0.11 
   0 -19  -7    1.38    0.17 
   1 -19  -7    0.79    0.18 
   2 -19  -7    0.52    0.14 
   3 -19  -7    0.00    0.12 
   4 -19  -7    0.05    0.10 
   5 -19  -7    0.44    0.12 
   6 -19  -7    0.06    0.09 
   7 -19  -7   -0.11    0.07 
   8 -19  -7    0.10    0.06 
  -6 -18  -7    1.03    0.09 
  -5 -18  -7    0.24    0.06 
  -4 -18  -7    0.41    0.09 
  -3 -18  -7   -0.02    0.07 
  -2 -18  -7    0.09    0.09 
  -1 -18  -7   -0.01    0.09 
   0 -18  -7    0.12    0.10 
   1 -18  -7   -0.18    0.10 
   2 -18  -7    0.05    0.10 
   3 -18  -7    0.57    0.14 
   4 -18  -7    1.78    0.22 
   5 -18  -7    0.36    0.13 
   6 -18  -7    0.12    0.10 
   7 -18  -7    0.73    0.14 
   8 -18  -7    0.22    0.08 
   9 -18  -7    0.58    0.10 
  -6 -17  -7   -0.03    0.04 
  -5 -17  -7    1.79    0.13 
  -4 -17  -7   -0.03    0.06 
  -3 -17  -7    1.22    0.12 
  -2 -17  -7    0.71    0.12 
  -1 -17  -7    0.12    0.09 
   0 -17  -7    2.53    0.23 
   1 -17  -7    1.08    0.15 
   2 -17  -7    1.04    0.17 
   3 -17  -7    0.19    0.10 
   4 -17  -7    3.59    0.34 
   5 -17  -7    0.10    0.10 
   6 -17  -7    1.03    0.16 
   7 -17  -7    0.03    0.11 
   8 -17  -7    0.06    0.08 
   9 -17  -7    0.74    0.13 
  -7 -16  -7    0.10    0.04 
  -6 -16  -7    0.07    0.05 
  -5 -16  -7    0.06    0.06 
  -4 -16  -7    0.03    0.07 
  -3 -16  -7    0.07    0.07 
  -2 -16  -7    0.39    0.09 
  -1 -16  -7    2.93    0.22 
   0 -16  -7    3.08    0.24 
   1 -16  -7    9.35    0.69 
   2 -16  -7    1.38    0.18 
   3 -16  -7    0.52    0.13 
   4 -16  -7    1.72    0.21 
   5 -16  -7    0.28    0.12 
   6 -16  -7    0.12    0.11 
   7 -16  -7    0.27    0.16 
   8 -16  -7    0.57    0.15 
   9 -16  -7   -0.07    0.09 
  10 -16  -7    0.12    0.07 
  -7 -15  -7    0.30    0.06 
  -6 -15  -7    0.28    0.06 
  -5 -15  -7    0.53    0.07 
  -4 -15  -7    0.01    0.06 
  -3 -15  -7    0.29    0.08 
  -2 -15  -7    0.09    0.09 
  -1 -15  -7    0.37    0.10 
   0 -15  -7    0.96    0.13 
   1 -15  -7    1.61    0.34 
   2 -15  -7    0.75    0.29 
   3 -15  -7   -0.01    0.10 
   4 -15  -7    1.72    0.24 
   5 -15  -7    0.06    0.12 
   6 -15  -7    0.04    0.11 
   7 -15  -7    0.06    0.12 
   8 -15  -7    2.85    0.39 
   9 -15  -7    0.07    0.13 
  10 -15  -7    1.42    0.21 
  -8 -14  -7    1.48    0.11 
  -7 -14  -7   -0.01    0.05 
  -6 -14  -7    1.21    0.10 
  -5 -14  -7    1.26    0.11 
  -4 -14  -7    0.35    0.07 
  -3 -14  -7    3.38    0.21 
  -2 -14  -7    0.25    0.08 
  -1 -14  -7    0.38    0.21 
   0 -14  -7    0.52    0.21 
   1 -14  -7   -0.25    0.14 
   2 -14  -7    0.34    0.22 
   3 -14  -7    0.12    0.22 
   4 -14  -7    0.07    0.22 
   5 -14  -7    0.36    0.14 
   6 -14  -7    6.52    0.67 
   7 -14  -7    0.20    0.14 
   8 -14  -7    0.21    0.22 
   9 -14  -7    2.49    0.45 
  10 -14  -7    1.90    0.33 
  11 -14  -7    0.61    0.15 
  -8 -13  -7    0.15    0.04 
  -7 -13  -7    1.04    0.10 
  -6 -13  -7    0.09    0.07 
  -5 -13  -7    0.44    0.07 
  -4 -13  -7    5.32    0.25 
  -3 -13  -7    1.62    0.12 
  -2 -13  -7    6.48    0.90 
  -1 -13  -7   -0.07    0.12 
   0 -13  -7    4.08    0.61 
   1 -13  -7   10.62    1.57 
   2 -13  -7    1.77    0.48 
   3 -13  -7    0.06    0.21 
   4 -13  -7    0.49    0.24 
   5 -13  -7    0.91    0.30 
   6 -13  -7   -0.02    0.13 
   7 -13  -7    0.06    0.12 
   8 -13  -7    0.45    0.15 
   9 -13  -7   -0.10    0.18 
  10 -13  -7    4.14    0.77 
  11 -13  -7    6.27    1.06 
  -8 -12  -7    0.01    0.05 
  -7 -12  -7    1.83    0.13 
  -6 -12  -7    4.00    0.23 
  -5 -12  -7   16.82    0.80 
  -4 -12  -7    0.34    0.07 
  -3 -12  -7    1.57    0.31 
  -2 -12  -7    4.02    0.60 
  -1 -12  -7    1.03    0.21 
   0 -12  -7    0.14    0.14 
   1 -12  -7    0.27    0.17 
   2 -12  -7    0.59    0.25 
   3 -12  -7    0.30    0.20 
   4 -12  -7    0.28    0.19 
   5 -12  -7   10.75    2.28 
   6 -12  -7   -0.08    0.14 
   7 -12  -7    0.84    0.21 
   8 -12  -7    4.60    0.56 
   9 -12  -7    0.26    0.15 
  10 -12  -7    0.33    0.27 
  11 -12  -7   -0.06    0.19 
  -9 -11  -7    0.05    0.05 
  -8 -11  -7    0.23    0.07 
  -7 -11  -7    0.05    0.07 
  -6 -11  -7    2.38    0.15 
  -5 -11  -7    0.94    0.09 
  -4 -11  -7    1.93    0.30 
  -3 -11  -7    7.59    0.93 
  -2 -11  -7    5.47    0.65 
  -1 -11  -7    2.97    0.43 
   0 -11  -7    0.70    0.17 
   1 -11  -7    0.10    0.14 
   2 -11  -7    1.65    0.43 
   3 -11  -7   -0.05    0.15 
   4 -11  -7    0.38    0.21 
   5 -11  -7    0.33    0.14 
   6 -11  -7    3.05    0.47 
   7 -11  -7    0.65    0.21 
   8 -11  -7    0.17    0.19 
   9 -11  -7   -0.06    0.22 
  10 -11  -7   -0.18    0.29 
  11 -11  -7    0.49    0.31 
  12 -11  -7   -0.22    0.20 
  -9 -10  -7    0.01    0.06 
  -8 -10  -7    0.09    0.06 
  -7 -10  -7    0.46    0.09 
  -6 -10  -7    0.69    0.09 
  -5 -10  -7    1.54    0.12 
  -4 -10  -7   12.23    1.51 
  -3 -10  -7   21.40    2.23 
  -2 -10  -7    4.73    0.53 
  -1 -10  -7    1.45    0.23 
   0 -10  -7    2.61    0.38 
   1 -10  -7    9.53    1.56 
   2 -10  -7    6.60    1.02 
   3 -10  -7    0.75    0.25 
   4 -10  -7    0.55    0.15 
   5 -10  -7    2.43    0.38 
   6 -10  -7    0.42    0.17 
   7 -10  -7    7.75    1.17 
   8 -10  -7    5.47    0.96 
   9 -10  -7    6.95    1.67 
  -9  -9  -7    0.38    0.08 
  -8  -9  -7    0.10    0.07 
  -7  -9  -7    0.44    0.08 
  -6  -9  -7   -0.09    0.07 
  -5  -9  -7    9.40    0.62 
  -4  -9  -7   23.04    2.83 
  -3  -9  -7   10.24    1.16 
  -2  -9  -7   11.17    1.20 
  -1  -9  -7    2.00    0.27 
   0  -9  -7    0.62    0.12 
   1  -9  -7    1.96    0.30 
   2  -9  -7    1.40    0.29 
   3  -9  -7    0.13    0.09 
   4  -9  -7    4.81    0.59 
   5  -9  -7    6.82    1.11 
   6  -9  -7    3.49    0.63 
   7  -9  -7    0.08    0.15 
   8  -9  -7    0.62    0.28 
   9  -9  -7    3.32    0.78 
  10  -9  -7    1.50    0.51 
  -9  -8  -7   -0.06    0.07 
  -8  -8  -7    0.69    0.09 
  -7  -8  -7    0.58    0.08 
  -6  -8  -7    5.62    0.30 
  -5  -8  -7   19.86    2.50 
  -4  -8  -7    6.65    0.75 
  -3  -8  -7    0.36    0.12 
  -2  -8  -7    2.79    0.37 
  -1  -8  -7    2.33    0.24 
   0  -8  -7    9.85    1.00 
   1  -8  -7    0.54    0.12 
   2  -8  -7    3.04    0.47 
   3  -8  -7    0.52    0.12 
   4  -8  -7    0.42    0.10 
   5  -8  -7    4.83    0.60 
   6  -8  -7   -0.12    0.11 
   7  -8  -7   -0.04    0.19 
   8  -8  -7    0.24    0.27 
   9  -8  -7    2.30    0.58 
  10  -8  -7    2.58    0.76 
 -10  -7  -7    0.04    0.07 
  -9  -7  -7   -0.05    0.07 
  -8  -7  -7    0.12    0.09 
  -7  -7  -7    0.03    0.07 
  -6  -7  -7    7.61    0.43 
  -5  -7  -7   21.88    2.71 
  -4  -7  -7    0.39    0.12 
  -3  -7  -7    3.43    0.43 
  -2  -7  -7    3.21    0.33 
  -1  -7  -7    9.11    0.87 
   0  -7  -7    0.14    0.07 
   1  -7  -7   -0.04    0.07 
   2  -7  -7   16.51    1.90 
   3  -7  -7    6.97    0.82 
   4  -7  -7    3.22    0.36 
   5  -7  -7   -0.06    0.07 
   6  -7  -7    0.36    0.14 
   7  -7  -7    2.35    0.59 
   8  -7  -7    0.07    0.24 
   9  -7  -7    5.69    1.13 
  10  -7  -7    3.02    0.64 
 -10  -6  -7    0.44    0.21 
  -9  -6  -7    0.79    0.12 
  -8  -6  -7    0.29    0.09 
  -7  -6  -7    0.14    0.07 
  -6  -6  -7    0.52    0.08 
  -5  -6  -7   11.14    1.42 
  -4  -6  -7    4.71    0.55 
  -3  -6  -7   13.24    1.32 
  -2  -6  -7    8.80    0.78 
  -1  -6  -7    2.32    0.22 
   0  -6  -7    0.20    0.06 
   1  -6  -7    5.12    0.77 
   2  -6  -7    1.00    0.15 
   3  -6  -7   15.80    1.92 
   4  -6  -7    1.36    0.17 
   5  -6  -7    0.86    0.16 
   6  -6  -7    0.10    0.10 
   7  -6  -7    6.40    1.07 
   8  -6  -7    7.85    1.64 
   9  -6  -7    0.40    0.29 
  10  -6  -7    0.28    0.28 
  -9  -5  -7   -0.03    0.09 
  -8  -5  -7    0.09    0.09 
  -7  -5  -7    0.56    0.09 
  -6  -5  -7   -0.05    0.12 
  -5  -5  -7    5.51    0.60 
  -4  -5  -7   18.36    1.96 
  -3  -5  -7    6.69    0.66 
  -2  -5  -7    7.13    0.69 
  -1  -5  -7    0.93    0.12 
   0  -5  -7    3.32    0.32 
   1  -5  -7    0.05    0.05 
   2  -5  -7    0.03    0.05 
   3  -5  -7    5.47    0.65 
   4  -5  -7    0.31    0.09 
   5  -5  -7    3.53    0.43 
   6  -5  -7    0.58    0.15 
   7  -5  -7    1.05    0.31 
   8  -5  -7    0.89    0.32 
   9  -5  -7    0.56    0.34 
  10  -5  -7    0.54    0.26 
  11  -5  -7    0.34    0.26 
  -9  -4  -7    0.72    0.14 
  -8  -4  -7    0.57    0.10 
  -7  -4  -7    3.69    0.26 
  -6  -4  -7    0.00    0.12 
  -5  -4  -7    9.61    1.04 
  -4  -4  -7    2.74    0.35 
  -3  -4  -7    0.81    0.12 
  -2  -4  -7    4.60    0.43 
  -1  -4  -7    0.00    0.05 
   0  -4  -7   54.57    4.34 
   1  -4  -7   12.11    1.42 
   2  -4  -7    0.49    0.09 
   3  -4  -7    0.82    0.13 
   4  -4  -7    5.98    0.68 
   5  -4  -7    0.03    0.08 
   6  -4  -7    0.04    0.07 
   7  -4  -7    0.22    0.19 
   8  -4  -7   -0.06    0.17 
   9  -4  -7    4.98    0.97 
  10  -4  -7   11.41    2.44 
  11  -4  -7    9.46    1.71 
  -8  -3  -7    0.98    0.12 
  -7  -3  -7   -0.10    0.08 
  -6  -3  -7    1.69    0.26 
  -5  -3  -7   19.11    2.07 
  -4  -3  -7    0.75    0.14 
  -3  -3  -7    0.39    0.09 
  -2  -3  -7    3.85    0.36 
  -1  -3  -7    4.79    0.41 
   0  -3  -7    0.61    0.09 
   1  -3  -7    2.24    0.26 
   2  -3  -7    1.65    0.24 
   3  -3  -7    1.80    0.23 
   4  -3  -7    0.08    0.06 
   5  -3  -7    1.17    0.21 
   6  -3  -7    0.05    0.07 
   7  -3  -7    0.44    0.25 
   8  -3  -7   -0.04    0.16 
   9  -3  -7   10.74    1.97 
  10  -3  -7    0.59    0.20 
  11  -3  -7    0.40    0.25 
  -9  -2  -7    1.32    0.45 
  -8  -2  -7    4.88    0.35 
  -7  -2  -7    0.26    0.09 
  -6  -2  -7    0.07    0.14 
  -5  -2  -7    0.14    0.10 
  -4  -2  -7    0.62    0.13 
  -3  -2  -7    9.66    0.91 
  -2  -2  -7    8.36    0.71 
  -1  -2  -7    6.93    0.56 
   0  -2  -7    3.90    0.37 
   1  -2  -7   17.00    1.81 
   2  -2  -7   37.41    5.30 
   3  -2  -7    0.17    0.08 
   4  -2  -7    0.75    0.12 
   5  -2  -7    0.90    0.16 
   6  -2  -7    0.19    0.09 
   7  -2  -7    0.92    0.26 
   8  -2  -7   -0.03    0.14 
   9  -2  -7    0.10    0.15 
  10  -2  -7    0.05    0.15 
  11  -2  -7    0.52    0.33 
  -8  -1  -7   -0.12    0.12 
  -7  -1  -7    0.30    0.09 
  -6  -1  -7    0.28    0.15 
  -5  -1  -7    5.08    0.68 
  -4  -1  -7    7.43    0.83 
  -3  -1  -7    6.87    0.70 
  -2  -1  -7    0.03    0.06 
  -1  -1  -7    6.36    0.56 
   0  -1  -7    0.37    0.07 
   1  -1  -7    0.00    0.05 
   2  -1  -7    0.40    0.10 
   3  -1  -7    0.06    0.06 
   4  -1  -7    0.27    0.08 
   5  -1  -7   -0.01    0.06 
   6  -1  -7    0.03    0.07 
   7  -1  -7    0.92    0.24 
   8  -1  -7    0.24    0.13 
   9  -1  -7    1.01    0.24 
  10  -1  -7    3.85    1.05 
  11  -1  -7   -0.07    0.22 
  -8   0  -7    0.06    0.12 
  -7   0  -7    0.01    0.08 
  -6   0  -7    0.12    0.14 
  -5   0  -7   -0.02    0.12 
  -4   0  -7   -0.08    0.10 
  -3   0  -7   -0.01    0.06 
  -2   0  -7   -0.06    0.05 
  -1   0  -7   -0.04    0.05 
   0   0  -7   -0.05    0.04 
   1   0  -7    0.12    0.05 
   2   0  -7   -0.03    0.05 
   3   0  -7   -0.04    0.06 
   4   0  -7   -0.05    0.06 
   5   0  -7   -0.02    0.06 
   6   0  -7   -0.16    0.06 
   7   0  -7   -0.14    0.09 
   8   0  -7   -0.03    0.11 
   9   0  -7    0.04    0.20 
  10   0  -7   -0.29    0.21 
  11   0  -7    0.19    0.22 
  -8   1  -7    0.01    0.11 
  -7   1  -7    0.22    0.10 
  -6   1  -7    0.46    0.15 
  -5   1  -7    4.83    0.67 
  -4   1  -7    7.91    0.83 
  -3   1  -7    7.26    0.70 
  -2   1  -7    0.01    0.06 
  -1   1  -7    6.78    0.61 
   0   1  -7    0.29    0.07 
   1   1  -7   -0.06    0.04 
   2   1  -7    0.45    0.09 
   3   1  -7    0.03    0.06 
   4   1  -7    0.21    0.08 
   5   1  -7    0.00    0.06 
   6   1  -7    0.12    0.08 
   7   1  -7    0.46    0.15 
   8   1  -7   -0.03    0.13 
   9   1  -7    0.69    0.35 
  10   1  -7    3.15    1.03 
  11   1  -7    0.06    0.23 
  -9   2  -7    0.64    0.36 
  -8   2  -7    4.94    0.37 
  -7   2  -7    0.09    0.10 
  -6   2  -7    0.61    0.17 
  -5   2  -7    0.28    0.12 
  -4   2  -7    0.63    0.14 
  -3   2  -7    9.16    0.91 
  -2   2  -7    8.32    0.78 
  -1   2  -7    7.18    0.66 
   0   2  -7    3.86    0.42 
   1   2  -7   17.87    1.81 
   2   2  -7   36.60    4.33 
   3   2  -7    0.11    0.06 
   4   2  -7    0.71    0.12 
   5   2  -7    0.86    0.14 
   6   2  -7    0.08    0.07 
   7   2  -7    0.61    0.17 
   8   2  -7   -0.18    0.18 
   9   2  -7    0.41    0.24 
  10   2  -7   -0.03    0.22 
  11   2  -7    1.15    0.35 
  -8   3  -7    0.93    0.13 
  -7   3  -7   -0.07    0.09 
  -6   3  -7    2.07    0.28 
  -5   3  -7   19.79    2.08 
  -4   3  -7    0.58    0.14 
  -3   3  -7    0.33    0.10 
  -2   3  -7    4.11    0.40 
  -1   3  -7    5.42    0.50 
   0   3  -7    0.59    0.09 
   1   3  -7    2.32    0.38 
   2   3  -7    2.00    0.24 
   3   3  -7    1.77    0.23 
   4   3  -7    0.03    0.06 
   5   3  -7    1.20    0.18 
   6   3  -7   -0.02    0.07 
   7   3  -7    0.83    0.29 
   8   3  -7   -0.12    0.19 
   9   3  -7    8.68    1.95 
  10   3  -7    0.72    0.29 
  11   3  -7   -0.18    0.24 
  -9   4  -7    0.90    0.15 
  -8   4  -7    0.47    0.11 
  -7   4  -7    3.53    0.25 
  -6   4  -7    0.10    0.15 
  -5   4  -7    9.61    1.05 
  -4   4  -7    2.74    0.36 
  -3   4  -7    0.72    0.13 
  -2   4  -7    5.10    0.47 
  -1   4  -7   -0.07    0.06 
   0   4  -7   56.06    5.14 
   1   4  -7   12.15    1.42 
   2   4  -7    0.65    0.10 
   3   4  -7    0.75    0.13 
   4   4  -7    5.68    0.67 
   5   4  -7    0.04    0.07 
   6   4  -7    0.02    0.10 
   7   4  -7    0.11    0.18 
   8   4  -7    0.19    0.19 
   9   4  -7    3.37    0.91 
  10   4  -7   10.74    2.44 
  11   4  -7   11.62    2.43 
  -9   5  -7    0.02    0.09 
  -8   5  -7   -0.06    0.09 
  -7   5  -7    0.56    0.10 
  -6   5  -7    0.07    0.14 
  -5   5  -7    5.47    0.62 
  -4   5  -7   18.71    1.97 
  -3   5  -7    7.06    0.67 
  -2   5  -7    6.97    0.69 
  -1   5  -7    1.27    0.15 
   0   5  -7    3.75    0.35 
   1   5  -7    0.09    0.08 
   2   5  -7    0.15    0.07 
   3   5  -7    5.55    0.65 
   4   5  -7    0.36    0.10 
   5   5  -7    3.59    0.54 
   6   5  -7    0.64    0.16 
   7   5  -7    0.61    0.26 
   9   5  -7    1.18    0.31 
  10   5  -7    0.04    0.24 
  11   5  -7    0.49    0.19 
  -9   6  -7    1.19    0.13 
  -8   6  -7    0.07    0.09 
  -7   6  -7    0.14    0.08 
  -6   6  -7    0.32    0.09 
  -5   6  -7   11.12    1.44 
  -4   6  -7    4.98    0.57 
  -3   6  -7   14.00    1.72 
  -2   6  -7    8.89    0.86 
  -1   6  -7    2.44    0.25 
   0   6  -7    0.04    0.06 
   1   6  -7    5.08    0.55 
   2   6  -7    1.02    0.16 
   3   6  -7   16.99    1.93 
   4   6  -7    1.50    0.33 
   5   6  -7    1.03    0.16 
   6   6  -7    0.09    0.12 
   7   6  -7    3.64    1.02 
   8   6  -7    7.91    1.63 
   9   6  -7    0.41    0.28 
  10   6  -7    0.13    0.16 
 -10   7  -7    0.05    0.08 
  -9   7  -7    0.14    0.07 
  -8   7  -7   -0.11    0.08 
  -7   7  -7    0.01    0.07 
  -6   7  -7    7.78    0.42 
  -5   7  -7   21.79    2.73 
  -4   7  -7    0.15    0.16 
  -3   7  -7    3.80    0.44 
  -2   7  -7    2.88    0.34 
  -1   7  -7    9.19    0.87 
   0   7  -7    0.04    0.07 
   1   7  -7   -0.08    0.06 
   2   7  -7   16.52    1.91 
   3   7  -7    7.40    0.83 
   4   7  -7    2.97    0.64 
   5   7  -7    0.03    0.10 
   6   7  -7    0.19    0.13 
   7   7  -7    2.66    0.41 
   8   7  -7    0.31    0.17 
   9   7  -7    4.49    0.76 
  10   7  -7    2.42    0.42 
  -9   8  -7    0.02    0.07 
  -8   8  -7    0.55    0.10 
  -7   8  -7    0.46    0.09 
  -6   8  -7    5.25    0.30 
  -5   8  -7   21.23    2.52 
  -4   8  -7    6.83    0.88 
  -3   8  -7    0.33    0.13 
  -2   8  -7    3.46    0.40 
  -1   8  -7    2.04    0.25 
   0   8  -7    9.35    1.00 
   1   8  -7    0.55    0.12 
   2   8  -7    2.89    0.39 
   3   8  -7    1.07    0.18 
   4   8  -7    0.05    0.16 
   5   8  -7    5.40    0.74 
   6   8  -7    0.19    0.14 
   7   8  -7    0.40    0.16 
   8   8  -7    0.85    0.21 
   9   8  -7    2.11    0.39 
  10   8  -7    3.03    0.53 
  -9   9  -7    0.65    0.09 
  -8   9  -7    0.22    0.08 
  -7   9  -7    0.54    0.08 
  -6   9  -7   -0.07    0.07 
  -5   9  -7    8.94    0.69 
  -4   9  -7   22.94    2.46 
  -3   9  -7   11.20    1.17 
  -2   9  -7   10.82    1.20 
  -1   9  -7    2.31    0.29 
   0   9  -7    0.63    0.13 
   1   9  -7    2.25    0.31 
   2   9  -7    1.73    0.31 
   3   9  -7    0.09    0.12 
   4   9  -7    6.35    1.06 
   5   9  -7    8.41    1.12 
   6   9  -7    4.38    0.63 
   7   9  -7    0.16    0.15 
   8   9  -7    0.45    0.18 
   9   9  -7    3.42    0.53 
  10   9  -7    1.47    0.35 
  -9  10  -7   -0.04    0.05 
  -8  10  -7    0.02    0.07 
  -7  10  -7    0.26    0.09 
  -6  10  -7    0.62    0.09 
  -5  10  -7    1.55    0.12 
  -4  10  -7   11.63    1.32 
  -3  10  -7   20.31    2.24 
  -2  10  -7    4.57    0.54 
  -1  10  -7    1.45    0.25 
   0  10  -7    2.37    0.47 
   1  10  -7   10.28    1.57 
   2  10  -7    7.71    1.47 
   3  10  -7    0.28    0.23 
   4  10  -7    0.51    0.24 
   5  10  -7    2.67    0.39 
   6  10  -7    0.60    0.18 
   7  10  -7    8.83    1.17 
   8  10  -7    4.53    0.64 
   9  10  -7    9.33    1.19 
  12  10  -7    2.12    0.47 
  -9  11  -7    0.04    0.05 
  -8  11  -7    0.34    0.07 
  -7  11  -7    0.04    0.07 
  -6  11  -7    2.09    0.16 
  -5  11  -7    0.93    0.10 
  -4  11  -7    1.44    0.27 
  -3  11  -7    6.94    0.82 
  -2  11  -7    5.74    0.67 
  -1  11  -7    3.28    0.55 
   0  11  -7    0.64    0.21 
   1  11  -7    0.20    0.20 
   2  11  -7    1.06    0.42 
   3  11  -7    0.15    0.19 
   4  11  -7    0.43    0.24 
   5  11  -7    0.16    0.13 
   6  11  -7    3.17    0.46 
   7  11  -7    0.53    0.20 
   8  11  -7    0.06    0.14 
   9  11  -7   -0.27    0.16 
  10  11  -7   -0.14    0.31 
  11  11  -7    1.11    0.35 
  12  11  -7    0.05    0.17 
  -8  12  -7    0.01    0.05 
  -7  12  -7    1.66    0.14 
  -6  12  -7    3.96    0.23 
  -5  12  -7   15.83    0.78 
  -4  12  -7    0.40    0.08 
  -3  12  -7    2.05    0.35 
  -2  12  -7    4.09    0.75 
  -1  12  -7    0.87    0.27 
   0  12  -7    0.08    0.24 
   1  12  -7    0.45    0.26 
   2  12  -7    0.23    0.23 
   3  12  -7   -0.11    0.18 
   4  12  -7    0.42    0.26 
   5  12  -7   12.65    1.61 
   6  12  -7   -0.04    0.13 
   7  12  -7    1.77    0.25 
   8  12  -7    6.17    0.57 
   9  12  -7    0.09    0.18 
  10  12  -7   -0.06    0.27 
  11  12  -7   -0.25    0.20 
  -8  13  -7    0.16    0.05 
  -7  13  -7    1.20    0.11 
  -6  13  -7    0.07    0.07 
  -5  13  -7    0.35    0.08 
  -4  13  -7    5.38    0.26 
  -3  13  -7    1.30    0.12 
  -2  13  -7    4.18    0.89 
  -1  13  -7    0.12    0.25 
   0  13  -7    3.22    0.84 
   2  13  -7    2.28    0.51 
   3  13  -7    0.27    0.25 
   4  13  -7   -0.01    0.20 
   5  13  -7    0.63    0.18 
   6  13  -7    0.04    0.12 
   7  13  -7    0.04    0.13 
   8  13  -7    0.62    0.19 
   9  13  -7   -0.11    0.26 
  10  13  -7    4.30    0.78 
  11  13  -7    7.65    1.07 
  -8  14  -7    1.61    0.11 
  -7  14  -7   -0.02    0.05 
  -6  14  -7    1.31    0.11 
  -5  14  -7    1.46    0.12 
  -4  14  -7    0.36    0.08 
  -3  14  -7    3.85    0.22 
  -2  14  -7    0.09    0.10 
  -1  14  -7    0.38    0.33 
   0  14  -7    0.19    0.30 
   1  14  -7    0.09    0.22 
   2  14  -7    0.07    0.22 
   3  14  -7    0.22    0.22 
   4  14  -7   -0.01    0.23 
   5  14  -7    0.45    0.14 
   6  14  -7    7.07    0.60 
   7  14  -7    0.38    0.15 
   8  14  -7    0.62    0.20 
   9  14  -7    2.69    0.46 
  10  14  -7    1.86    0.34 
  11  14  -7    1.28    0.20 
  -7  15  -7    0.35    0.06 
  -6  15  -7    0.30    0.07 
  -5  15  -7    0.34    0.08 
  -4  15  -7   -0.04    0.07 
  -3  15  -7    0.24    0.09 
  -2  15  -7    0.07    0.10 
  -1  15  -7    0.37    0.11 
   0  15  -7    0.64    0.13 
   1  15  -7    1.77    0.51 
   2  15  -7    0.46    0.32 
   3  15  -7    0.06    0.13 
   4  15  -7    2.35    0.24 
   5  15  -7    0.12    0.11 
   6  15  -7    0.04    0.11 
   7  15  -7   -0.18    0.13 
   8  15  -7    4.29    0.54 
   9  15  -7    0.30    0.15 
  10  15  -7    1.66    0.24 
  -7  16  -7    0.18    0.05 
  -6  16  -7   -0.04    0.05 
  -5  16  -7    0.02    0.06 
  -4  16  -7    0.00    0.07 
  -3  16  -7   -0.03    0.08 
  -2  16  -7    0.28    0.10 
  -1  16  -7    3.15    0.25 
   0  16  -7    2.93    0.26 
   1  16  -7    9.15    0.70 
   2  16  -7    1.37    0.19 
   3  16  -7    0.42    0.14 
   4  16  -7    1.63    0.23 
   5  16  -7    0.71    0.13 
   6  16  -7    0.13    0.12 
   7  16  -7    0.28    0.15 
   8  16  -7    1.41    0.22 
   9  16  -7    0.02    0.12 
  10  16  -7    0.22    0.10 
  -6  17  -7   -0.01    0.05 
  -5  17  -7    1.56    0.12 
  -4  17  -7    0.04    0.06 
  -3  17  -7    1.16    0.12 
  -2  17  -7    0.95    0.12 
  -1  17  -7    0.09    0.10 
   0  17  -7    2.63    0.24 
   1  17  -7    1.31    0.17 
   2  17  -7    0.95    0.17 
   3  17  -7   -0.06    0.13 
   4  17  -7    3.99    0.35 
   5  17  -7    0.12    0.13 
   6  17  -7    0.95    0.18 
   7  17  -7    0.29    0.14 
   8  17  -7    0.15    0.12 
   9  17  -7    1.06    0.13 
  -6  18  -7    0.84    0.08 
  -5  18  -7    0.25    0.06 
  -4  18  -7    0.45    0.09 
  -3  18  -7    0.23    0.08 
  -2  18  -7    0.38    0.09 
  -1  18  -7   -0.09    0.09 
   0  18  -7   -0.02    0.10 
   1  18  -7   -0.20    0.10 
   2  18  -7    0.05    0.12 
   3  18  -7    0.92    0.16 
   4  18  -7    1.84    0.23 
   5  18  -7    0.20    0.13 
   6  18  -7   -0.01    0.13 
   7  18  -7    0.93    0.14 
   8  18  -7    0.18    0.09 
   9  18  -7    0.97    0.12 
  -5  19  -7   -0.04    0.05 
  -4  19  -7    0.07    0.07 
  -3  19  -7   -0.06    0.07 
  -2  19  -7    2.03    0.18 
  -1  19  -7    0.35    0.11 
   0  19  -7    1.10    0.16 
   1  19  -7    0.71    0.16 
   2  19  -7    0.40    0.16 
   3  19  -7   -0.25    0.12 
   4  19  -7    0.03    0.12 
   5  19  -7    0.60    0.13 
   6  19  -7    0.14    0.11 
   7  19  -7    0.02    0.08 
   8  19  -7    0.16    0.08 
  -4  20  -7    0.00    0.06 
  -3  20  -7   -0.08    0.07 
  -2  20  -7    0.13    0.08 
  -1  20  -7    0.67    0.13 
   0  20  -7    3.48    0.32 
   1  20  -7    0.92    0.18 
   2  20  -7    0.18    0.14 
   3  20  -7   -0.03    0.12 
   4  20  -7    1.00    0.17 
   5  20  -7    0.33    0.12 
   6  20  -7   -0.05    0.09 
   7  20  -7   -0.12    0.08 
  -3  21  -7   -0.03    0.06 
  -2  21  -7   -0.06    0.07 
  -1  21  -7    0.03    0.09 
   0  21  -7    0.01    0.09 
   1  21  -7    0.11    0.11 
   2  21  -7    0.93    0.17 
   3  21  -7    1.18    0.18 
   4  21  -7    0.46    0.13 
   5  21  -7    0.61    0.12 
   6  21  -7    0.74    0.12 
  -1  22  -7    0.08    0.08 
   0  22  -7    0.06    0.08 
   1  22  -7    0.27    0.09 
   2  22  -7    0.05    0.08 
   3  22  -7    0.13    0.10 
   4  22  -7    0.35    0.10 
  -1 -23  -6    0.14    0.09 
   0 -23  -6    0.07    0.07 
   1 -23  -6    0.00    0.08 
   2 -23  -6    0.28    0.09 
   3 -23  -6    0.09    0.08 
  -2 -22  -6    0.37    0.09 
  -1 -22  -6   -0.01    0.08 
   0 -22  -6    0.09    0.09 
   1 -22  -6    0.05    0.10 
   2 -22  -6    0.39    0.11 
   3 -22  -6    0.35    0.11 
   4 -22  -6    0.95    0.13 
   5 -22  -6    0.06    0.07 
  -4 -21  -6    0.55    0.09 
  -3 -21  -6    0.12    0.06 
  -2 -21  -6    0.11    0.07 
  -1 -21  -6    0.14    0.11 
   0 -21  -6    0.20    0.11 
   1 -21  -6    0.41    0.12 
   2 -21  -6    0.33    0.14 
   3 -21  -6    0.34    0.11 
   4 -21  -6    0.47    0.11 
   5 -21  -6    0.07    0.08 
   6 -21  -6   -0.01    0.08 
  -5 -20  -6    0.10    0.05 
  -4 -20  -6    0.25    0.07 
  -3 -20  -6    0.11    0.07 
  -2 -20  -6    0.67    0.10 
  -1 -20  -6    1.44    0.17 
   0 -20  -6    0.07    0.11 
   1 -20  -6   -0.04    0.11 
   2 -20  -6    0.44    0.15 
   3 -20  -6    1.31    0.19 
   4 -20  -6    0.29    0.12 
   5 -20  -6    0.54    0.11 
   6 -20  -6    1.78    0.23 
   7 -20  -6    0.03    0.07 
  -6 -19  -6    1.01    0.10 
  -5 -19  -6    0.08    0.06 
  -4 -19  -6    0.05    0.06 
  -3 -19  -6    0.75    0.11 
  -2 -19  -6   -0.04    0.09 
  -1 -19  -6    0.06    0.09 
   0 -19  -6    0.30    0.12 
   1 -19  -6    0.13    0.12 
   2 -19  -6    0.01    0.11 
   3 -19  -6    0.39    0.14 
   4 -19  -6    0.11    0.11 
   5 -19  -6    0.20    0.11 
   6 -19  -6    0.20    0.11 
   7 -19  -6    4.49    0.43 
   8 -19  -6    0.08    0.07 
  -6 -18  -6    1.10    0.09 
  -5 -18  -6    1.06    0.09 
  -4 -18  -6    2.47    0.17 
  -3 -18  -6    2.62    0.21 
  -2 -18  -6    5.21    0.32 
  -1 -18  -6    0.01    0.09 
   0 -18  -6    1.11    0.15 
   1 -18  -6    0.22    0.11 
   2 -18  -6    0.87    0.16 
   3 -18  -6   -0.12    0.10 
   4 -18  -6    0.21    0.11 
   5 -18  -6    1.67    0.22 
   6 -18  -6    0.04    0.10 
   7 -18  -6    0.68    0.14 
   8 -18  -6    0.33    0.11 
   9 -18  -6    0.37    0.08 
  -7 -17  -6   -0.01    0.04 
  -6 -17  -6    0.53    0.07 
  -5 -17  -6    0.03    0.06 
  -4 -17  -6    1.56    0.13 
  -3 -17  -6    0.35    0.08 
  -2 -17  -6    0.22    0.09 
  -1 -17  -6    0.04    0.09 
   0 -17  -6    0.31    0.11 
   1 -17  -6    0.83    0.15 
   2 -17  -6    0.07    0.11 
   3 -17  -6    0.15    0.13 
   4 -17  -6    0.75    0.15 
   5 -17  -6    0.41    0.13 
   6 -17  -6    1.12    0.17 
   7 -17  -6   -0.04    0.13 
   8 -17  -6    0.63    0.14 
   9 -17  -6    0.58    0.14 
  -7 -16  -6    0.69    0.07 
  -6 -16  -6    0.15    0.06 
  -5 -16  -6   -0.04    0.06 
  -4 -16  -6    2.89    0.18 
  -3 -16  -6    0.09    0.08 
  -2 -16  -6    0.26    0.09 
  -1 -16  -6    0.22    0.10 
   0 -16  -6    0.89    0.12 
   1 -16  -6    1.85    0.20 
   2 -16  -6   -0.23    0.11 
   3 -16  -6    0.16    0.11 
   4 -16  -6   -0.01    0.11 
   5 -16  -6    1.70    0.25 
   6 -16  -6    0.16    0.12 
   7 -16  -6    0.36    0.17 
   8 -16  -6    2.21    0.31 
   9 -16  -6    0.06    0.13 
  10 -16  -6   -0.04    0.07 
  -8 -15  -6   -0.03    0.04 
  -7 -15  -6    3.35    0.19 
  -6 -15  -6    0.00    0.06 
  -5 -15  -6    0.32    0.07 
  -4 -15  -6    0.99    0.09 
  -3 -15  -6    2.01    0.15 
  -2 -15  -6    0.10    0.09 
  -1 -15  -6    0.25    0.31 
   0 -15  -6    1.54    0.29 
   1 -15  -6    0.63    0.21 
   2 -15  -6    0.21    0.20 
   3 -15  -6   -0.03    0.19 
   4 -15  -6    0.27    0.22 
   5 -15  -6    0.15    0.13 
   6 -15  -6    4.87    0.55 
   7 -15  -6    3.21    0.44 
   8 -15  -6    0.86    0.28 
   9 -15  -6    4.17    0.77 
  10 -15  -6    0.17    0.12 
  -8 -14  -6   -0.01    0.05 
  -7 -14  -6    0.10    0.06 
  -6 -14  -6    0.27    0.07 
  -5 -14  -6    0.53    0.08 
  -4 -14  -6    0.10    0.06 
  -3 -14  -6    4.05    0.23 
  -2 -14  -6   -0.04    0.24 
  -1 -14  -6   -0.04    0.15 
   0 -14  -6   -0.11    0.14 
   1 -14  -6    0.04    0.15 
   2 -14  -6    4.52    1.03 
   3 -14  -6    2.62    0.61 
   4 -14  -6    0.26    0.23 
   5 -14  -6    0.06    0.20 
   6 -14  -6    0.10    0.15 
   7 -14  -6    0.21    0.13 
   8 -14  -6    0.07    0.12 
   9 -14  -6    0.08    0.27 
  10 -14  -6    2.23    0.39 
  11 -14  -6    0.62    0.18 
  -9 -13  -6    0.03    0.04 
  -8 -13  -6    0.03    0.05 
  -7 -13  -6    0.19    0.07 
  -6 -13  -6    1.63    0.11 
  -5 -13  -6    0.23    0.07 
  -4 -13  -6    0.29    0.07 
  -3 -13  -6    1.90    0.30 
  -2 -13  -6    2.04    0.38 
  -1 -13  -6    1.94    0.40 
   0 -13  -6   -0.10    0.11 
   1 -13  -6    0.05    0.12 
   2 -13  -6    0.12    0.20 
   3 -13  -6    0.03    0.19 
   4 -13  -6    0.64    0.24 
   5 -13  -6    0.94    0.37 
   6 -13  -6    5.30    0.90 
   7 -13  -6   -0.18    0.13 
   8 -13  -6    0.30    0.16 
   9 -13  -6    0.04    0.29 
  10 -13  -6    0.25    0.28 
  11 -13  -6    0.55    0.33 
  -9 -12  -6    0.11    0.04 
  -8 -12  -6    2.51    0.17 
  -7 -12  -6   -0.04    0.07 
  -6 -12  -6    4.23    0.22 
  -5 -12  -6    0.70    0.08 
  -4 -12  -6    6.25    0.76 
  -3 -12  -6    3.05    0.42 
  -2 -12  -6    0.52    0.15 
  -1 -12  -6    3.82    0.50 
   0 -12  -6    0.08    0.13 
   1 -12  -6   11.29    1.74 
   2 -12  -6   -0.01    0.18 
   3 -12  -6    1.07    0.31 
   4 -12  -6    1.02    0.34 
   5 -12  -6    0.50    0.17 
   6 -12  -6    4.64    0.81 
   7 -12  -6    0.35    0.18 
   8 -12  -6    0.77    0.25 
   9 -12  -6    0.57    0.22 
  11 -12  -6    3.46    0.74 
  12 -12  -6    1.08    0.29 
  -9 -11  -6    0.77    0.09 
  -8 -11  -6    1.36    0.12 
  -7 -11  -6    5.03    0.26 
  -6 -11  -6    2.92    0.18 
  -5 -11  -6    2.09    0.14 
  -4 -11  -6    7.58    0.91 
  -3 -11  -6    0.23    0.12 
  -2 -11  -6   -0.06    0.09 
  -1 -11  -6    3.02    0.42 
   0 -11  -6    0.01    0.07 
   1 -11  -6    0.80    0.16 
   2 -11  -6    0.90    0.23 
   3 -11  -6    8.46    1.19 
   4 -11  -6    2.13    0.47 
   5 -11  -6   -0.16    0.11 
   6 -11  -6    5.11    0.85 
   7 -11  -6    4.98    0.86 
   8 -11  -6    4.64    0.85 
   9 -11  -6   -0.32    0.20 
  12 -11  -6   -0.06    0.17 
 -10 -10  -6    0.15    0.05 
  -9 -10  -6   -0.02    0.06 
  -8 -10  -6    4.34    0.27 
  -7 -10  -6    0.46    0.08 
  -6 -10  -6    0.08    0.07 
  -5 -10  -6    1.18    0.24 
  -4 -10  -6   -0.29    0.10 
  -3 -10  -6    4.93    0.63 
  -2 -10  -6    7.85    0.91 
  -1 -10  -6    3.27    0.37 
   0 -10  -6    0.85    0.13 
   1 -10  -6    1.87    0.27 
   2 -10  -6    0.14    0.09 
   3 -10  -6    0.37    0.12 
   4 -10  -6    2.37    0.35 
   5 -10  -6    0.60    0.18 
   6 -10  -6    0.18    0.13 
   7 -10  -6   14.75    2.25 
   8 -10  -6    4.57    1.05 
   9 -10  -6    0.15    0.26 
  10 -10  -6    0.86    0.35 
 -10  -9  -6    0.46    0.08 
  -9  -9  -6    1.38    0.13 
  -8  -9  -6    5.27    0.34 
  -7  -9  -6    2.49    0.16 
  -6  -9  -6    5.48    0.28 
  -5  -9  -6    1.43    0.23 
  -4  -9  -6    1.26    0.23 
  -3  -9  -6    6.03    0.67 
  -2  -9  -6    1.90    0.23 
  -1  -9  -6    0.56    0.11 
   0  -9  -6    0.99    0.14 
   1  -9  -6   21.76    2.60 
   2  -9  -6   17.48    2.44 
   3  -9  -6    3.13    0.41 
   4  -9  -6   12.46    1.47 
   5  -9  -6    1.02    0.20 
   6  -9  -6    5.09    0.83 
   7  -9  -6   12.26    1.90 
   8  -9  -6    0.39    0.25 
   9  -9  -6    0.07    0.23 
  10  -9  -6    1.33    0.55 
 -10  -8  -6    0.16    0.08 
  -9  -8  -6    0.35    0.08 
  -8  -8  -6    0.17    0.07 
  -7  -8  -6    6.94    0.38 
  -6  -8  -6   27.61    3.38 
  -5  -8  -6   16.86    1.95 
  -4  -8  -6    1.24    0.23 
  -3  -8  -6    2.34    0.28 
  -2  -8  -6    0.00    0.06 
  -1  -8  -6    8.71    0.82 
   0  -8  -6    0.18    0.06 
   1  -8  -6    8.78    1.09 
   2  -8  -6    2.64    0.38 
   3  -8  -6    2.23    0.32 
   4  -8  -6   11.90    1.43 
   5  -8  -6   28.28    3.34 
   6  -8  -6    0.51    0.18 
   7  -8  -6    0.94    0.22 
   8  -8  -6    0.99    0.35 
   9  -8  -6    2.18    0.68 
  10  -8  -6    0.04    0.25 
 -10  -7  -6   -0.04    0.08 
  -9  -7  -6    1.59    0.14 
  -8  -7  -6    2.71    0.19 
  -7  -7  -6    7.83    0.44 
  -6  -7  -6    1.04    0.20 
  -5  -7  -6   10.39    1.31 
  -4  -7  -6    0.56    0.14 
  -3  -7  -6   -0.02    0.06 
  -2  -7  -6    0.22    0.07 
  -1  -7  -6    0.12    0.06 
   0  -7  -6    3.14    0.34 
   1  -7  -6    2.47    0.41 
   2  -7  -6    3.76    0.48 
   3  -7  -6   14.40    1.68 
   4  -7  -6    2.07    0.25 
   5  -7  -6    4.74    0.54 
   6  -7  -6   10.71    1.12 
   7  -7  -6    0.16    0.18 
   8  -7  -6    0.30    0.23 
   9  -7  -6    0.16    0.28 
  10  -7  -6   -0.11    0.23 
  -9  -6  -6    2.73    0.24 
  -8  -6  -6    0.03    0.08 
  -7  -6  -6    5.49    0.32 
  -6  -6  -6    0.96    0.19 
  -5  -6  -6    0.94    0.19 
  -4  -6  -6    0.09    0.08 
  -3  -6  -6    0.18    0.08 
  -2  -6  -6    0.73    0.11 
  -1  -6  -6   21.99    1.92 
   0  -6  -6   26.02    2.72 
   1  -6  -6    7.95    1.15 
   2  -6  -6    0.72    0.16 
   3  -6  -6    1.24    0.18 
   4  -6  -6   -0.05    0.05 
   5  -6  -6    7.15    0.76 
   6  -6  -6    7.88    0.81 
   7  -6  -6    0.27    0.20 
   8  -6  -6    0.75    0.29 
   9  -6  -6    0.81    0.38 
  10  -6  -6    0.68    0.31 
  11  -6  -6    0.29    0.26 
  -9  -5  -6    4.67    0.43 
  -8  -5  -6   10.09    0.68 
  -7  -5  -6    4.43    0.28 
  -6  -5  -6    3.89    0.51 
  -5  -5  -6    3.69    0.43 
  -4  -5  -6    0.34    0.08 
  -3  -5  -6   12.01    1.05 
  -2  -5  -6    0.76    0.10 
  -1  -5  -6   29.52    2.52 
   0  -5  -6   40.64    4.20 
   1  -5  -6    1.06    0.15 
   2  -5  -6    0.78    0.17 
   3  -5  -6   13.34    1.48 
   4  -5  -6    0.16    0.07 
   5  -5  -6   18.41    1.90 
   6  -5  -6    0.29    0.10 
   7  -5  -6   16.00    3.15 
   8  -5  -6    5.57    1.28 
   9  -5  -6    1.00    0.37 
  10  -5  -6    3.29    0.83 
  11  -5  -6    6.89    1.48 
  -9  -4  -6   -0.06    0.19 
  -8  -4  -6    0.46    0.11 
  -7  -4  -6    2.62    0.35 
  -6  -4  -6   29.41    3.51 
  -5  -4  -6    0.07    0.10 
  -4  -4  -6   -0.02    0.06 
  -3  -4  -6    0.21    0.07 
  -2  -4  -6    3.04    0.29 
  -1  -4  -6   56.30    4.75 
   0  -4  -6   45.56    6.45 
   1  -4  -6    0.43    0.10 
   2  -4  -6    0.30    0.11 
   3  -4  -6    3.85    0.81 
   4  -4  -6   15.70    1.76 
   5  -4  -6   11.84    1.38 
   6  -4  -6    0.01    0.07 
   7  -4  -6    0.10    0.09 
   8  -4  -6    1.42    0.45 
   9  -4  -6    8.49    1.52 
  10  -4  -6    9.65    2.20 
  -8  -3  -6    1.20    0.17 
  -7  -3  -6    2.37    0.47 
  -6  -3  -6    2.56    0.42 
  -5  -3  -6    0.44    0.12 
  -4  -3  -6    0.43    0.10 
  -3  -3  -6    0.22    0.07 
  -2  -3  -6    1.17    0.13 
  -1  -3  -6    3.36    0.38 
   0  -3  -6    0.17    0.07 
   1  -3  -6    0.03    0.05 
   2  -3  -6    0.72    0.15 
   3  -3  -6    3.34    0.73 
   4  -3  -6    4.29    0.62 
   5  -3  -6    4.30    0.64 
   6  -3  -6    2.35    0.39 
   7  -3  -6    0.08    0.08 
   8  -3  -6    2.64    0.54 
   9  -3  -6   -0.10    0.20 
  10  -3  -6    3.26    0.85 
  11  -3  -6    3.73    0.93 
  -8  -2  -6   -0.09    0.15 
  -7  -2  -6    0.41    0.18 
  -6  -2  -6    0.38    0.14 
  -5  -2  -6    1.19    0.18 
  -4  -2  -6    1.27    0.17 
  -3  -2  -6    0.26    0.07 
  -2  -2  -6    0.79    0.10 
  -1  -2  -6    2.55    0.42 
   0  -2  -6    1.50    0.26 
   1  -2  -6    2.79    0.42 
   2  -2  -6    4.13    0.87 
   3  -2  -6   -0.07    0.08 
   4  -2  -6    5.70    0.75 
   5  -2  -6    0.08    0.08 
   6  -2  -6    1.99    0.32 
   7  -2  -6    0.18    0.11 
   8  -2  -6    9.00    1.65 
   9  -2  -6    2.21    0.51 
  11  -2  -6    0.63    0.30 
  -8  -1  -6    0.26    0.24 
  -7  -1  -6    2.76    0.47 
  -6  -1  -6    0.58    0.17 
  -5  -1  -6   -0.08    0.10 
  -4  -1  -6    0.08    0.07 
  -3  -1  -6    3.89    0.41 
  -2  -1  -6    0.02    0.04 
  -1  -1  -6   45.62    6.60 
   0  -1  -6   19.14    2.78 
   1  -1  -6    0.21    0.07 
   2  -1  -6    4.13    0.60 
   3  -1  -6    0.10    0.08 
   4  -1  -6    6.49    0.86 
   5  -1  -6    0.25    0.09 
   6  -1  -6    0.29    0.11 
   7  -1  -6    3.68    0.52 
   8  -1  -6    0.52    0.23 
   9  -1  -6    5.17    0.93 
  10  -1  -6    5.36    1.57 
  11  -1  -6    3.11    0.80 
  -8   0  -6   -0.71    0.26 
  -7   0  -6    4.24    0.57 
  -6   0  -6    3.20    0.44 
  -5   0  -6    1.77    0.27 
  -4   0  -6    5.83    0.61 
  -3   0  -6    1.13    0.13 
  -2   0  -6   13.24    1.23 
  -1   0  -6  368.54   53.12 
   0   0  -6  424.06   60.83 
   1   0  -6    6.67    1.00 
   2   0  -6    2.08    0.29 
   3   0  -6    1.00    0.27 
   4   0  -6  149.46   29.85 
   5   0  -6   27.03    3.43 
   6   0  -6    3.89    0.52 
   7   0  -6    3.21    0.48 
   8   0  -6    0.12    0.16 
   9   0  -6    7.91    1.63 
  10   0  -6   19.13    4.85 
  11   0  -6    3.42    1.10 
  -8   1  -6    0.10    0.27 
  -7   1  -6    2.09    0.47 
  -6   1  -6    0.73    0.18 
  -5   1  -6   -0.09    0.09 
  -4   1  -6    0.12    0.08 
  -3   1  -6    4.54    0.42 
  -2   1  -6    0.04    0.06 
  -1   1  -6   45.62    6.60 
   0   1  -6   17.86    3.93 
   1   1  -6    0.13    0.06 
   2   1  -6    3.99    0.60 
   3   1  -6    0.03    0.08 
   4   1  -6    5.68    1.21 
   5   1  -6    0.27    0.08 
   6   1  -6    0.27    0.09 
   7   1  -6    3.58    0.43 
   8   1  -6    0.00    0.16 
   9   1  -6    3.02    0.91 
  10   1  -6    5.99    1.58 
  11   1  -6    2.63    0.77 
  -8   2  -6    0.17    0.14 
  -7   2  -6   -0.25    0.17 
  -6   2  -6    0.59    0.17 
  -5   2  -6    1.38    0.20 
  -4   2  -6    1.43    0.18 
  -3   2  -6    0.32    0.08 
  -2   2  -6    0.81    0.12 
  -1   2  -6    2.51    0.61 
   0   2  -6    1.62    0.25 
   1   2  -6    2.92    0.41 
   2   2  -6    4.08    0.62 
   3   2  -6    0.03    0.08 
   4   2  -6    4.57    0.74 
   5   2  -6   -0.02    0.06 
   6   2  -6    2.04    0.26 
   7   2  -6    0.17    0.12 
   8   2  -6    7.04    1.64 
   9   2  -6    1.30    0.47 
  10   2  -6    0.26    0.23 
  11   2  -6    0.29    0.29 
  -8   3  -6    1.44    0.17 
  -7   3  -6    3.09    0.52 
  -6   3  -6    3.71    0.47 
  -5   3  -6    0.50    0.14 
  -4   3  -6    0.57    0.11 
  -3   3  -6    0.25    0.08 
  -2   3  -6    1.18    0.15 
  -1   3  -6    3.33    0.44 
   0   3  -6   -0.09    0.10 
   1   3  -6    0.09    0.05 
   2   3  -6    0.38    0.10 
   3   3  -6    3.39    0.52 
   4   3  -6    4.14    0.62 
   5   3  -6    4.31    0.52 
   6   3  -6    2.49    0.39 
   7   3  -6    0.09    0.12 
   8   3  -6    1.88    0.49 
   9   3  -6   -0.09    0.19 
  10   3  -6    3.13    0.83 
  11   3  -6    2.90    0.89 
  -9   4  -6   -0.40    0.20 
  -8   4  -6    0.50    0.12 
  -7   4  -6    3.14    0.44 
  -6   4  -6   28.82    4.32 
  -5   4  -6    0.19    0.12 
  -4   4  -6    0.02    0.08 
  -3   4  -6    0.27    0.08 
  -2   4  -6    3.17    0.32 
  -1   4  -6   56.35    5.21 
   0   4  -6   44.16    9.13 
   1   4  -6    0.50    0.17 
   2   4  -6    0.25    0.08 
   3   4  -6    3.87    0.57 
   4   4  -6   14.03    2.16 
   5   4  -6   11.53    1.70 
   6   4  -6   -0.01    0.09 
   7   4  -6    0.12    0.19 
   8   4  -6    1.78    0.46 
   9   4  -6    6.68    1.48 
  10   4  -6   10.10    2.20 
  11   4  -6    0.17    0.27 
  -9   5  -6    5.12    0.44 
  -8   5  -6   10.72    0.76 
  -7   5  -6    4.45    0.30 
  -6   5  -6    3.49    0.52 
  -5   5  -6    4.19    0.52 
  -4   5  -6    0.34    0.10 
  -3   5  -6   12.68    1.15 
  -2   5  -6    0.78    0.11 
  -1   5  -6   29.60    2.52 
   0   5  -6   40.86    5.94 
   1   5  -6    0.99    0.27 
   2   5  -6    0.98    0.19 
   3   5  -6   12.63    1.48 
   4   5  -6    0.09    0.08 
   5   5  -6   18.16    2.68 
   6   5  -6    0.65    0.15 
   7   5  -6   16.61    3.14 
   8   5  -6    6.07    1.27 
   9   5  -6    0.61    0.31 
  10   5  -6    3.82    0.83 
  11   5  -6    6.37    1.48 
  -9   6  -6    3.05    0.25 
  -8   6  -6    0.07    0.09 
  -7   6  -6    5.34    0.34 
  -6   6  -6    0.53    0.19 
  -5   6  -6    0.79    0.21 
  -4   6  -6    0.07    0.10 
  -3   6  -6    0.22    0.08 
  -2   6  -6    0.94    0.13 
  -1   6  -6   22.62    2.11 
   0   6  -6   26.27    2.72 
   1   6  -6    7.90    0.94 
   2   6  -6    1.24    0.18 
   3   6  -6    1.50    0.18 
   4   6  -6   -0.06    0.06 
   5   6  -6    6.35    1.08 
   6   6  -6    8.05    1.14 
   7   6  -6    0.37    0.21 
   8   6  -6    0.76    0.30 
   9   6  -6    0.97    0.37 
  10   6  -6    0.59    0.30 
  11   6  -6    0.00    0.19 
 -10   7  -6   -0.08    0.09 
  -9   7  -6    1.04    0.13 
  -8   7  -6    2.66    0.20 
  -7   7  -6    7.66    0.45 
  -6   7  -6    0.73    0.21 
  -5   7  -6   10.78    1.33 
  -4   7  -6    0.67    0.16 
  -3   7  -6    0.06    0.08 
  -2   7  -6    0.03    0.07 
  -1   7  -6    0.13    0.06 
   0   7  -6    2.92    0.35 
   1   7  -6    2.61    0.30 
   2   7  -6    4.00    0.49 
   3   7  -6   14.81    2.06 
   4   7  -6    1.81    0.21 
   5   7  -6    4.28    0.54 
   6   7  -6   11.76    1.59 
   7   7  -6    0.09    0.17 
   8   7  -6    0.24    0.21 
   9   7  -6    0.37    0.17 
  10   7  -6    0.18    0.16 
 -10   8  -6    0.14    0.08 
  -9   8  -6    0.24    0.09 
  -8   8  -6    0.24    0.08 
  -7   8  -6    7.19    0.38 
  -6   8  -6   28.40    3.39 
  -5   8  -6   15.23    1.70 
  -4   8  -6    1.33    0.22 
  -3   8  -6    1.94    0.26 
  -2   8  -6    0.00    0.07 
  -1   8  -6    8.07    0.82 
   0   8  -6    0.20    0.08 
   1   8  -6    9.03    0.94 
   2   8  -6    2.33    0.39 
   3   8  -6    2.99    0.40 
   4   8  -6   12.49    1.44 
   5   8  -6   30.89    4.10 
   6   8  -6    0.68    0.19 
   7   8  -6    0.70    0.21 
   8   8  -6    0.82    0.24 
   9   8  -6    3.04    0.48 
  10   8  -6    0.13    0.23 
 -10   9  -6    0.57    0.08 
  -9   9  -6    1.10    0.13 
  -8   9  -6    5.32    0.35 
  -7   9  -6    2.54    0.17 
  -6   9  -6    4.77    0.29 
  -5   9  -6    0.88    0.21 
  -4   9  -6    1.23    0.22 
  -3   9  -6    6.10    0.68 
  -2   9  -6    2.12    0.24 
  -1   9  -6    0.59    0.11 
   0   9  -6    0.83    0.15 
   1   9  -6   21.81    2.61 
   2   9  -6   17.21    2.45 
   3   9  -6    3.54    0.52 
   4   9  -6   13.64    1.47 
   5   9  -6    0.69    0.18 
   6   9  -6    5.66    0.83 
   7   9  -6   14.02    1.90 
   8   9  -6    0.21    0.16 
   9   9  -6   -0.05    0.15 
  10   9  -6    2.54    0.58 
 -10  10  -6    0.10    0.06 
  -9  10  -6   -0.07    0.06 
  -8  10  -6    3.81    0.28 
  -7  10  -6    0.26    0.08 
  -6  10  -6    0.12    0.07 
  -5  10  -6    1.42    0.24 
  -4  10  -6    0.02    0.13 
  -3  10  -6    4.28    0.56 
  -2  10  -6    8.36    0.92 
  -1  10  -6    2.92    0.37 
   0  10  -6    0.49    0.15 
   1  10  -6    1.72    0.32 
   2  10  -6    0.10    0.10 
   3  10  -6    0.54    0.12 
   4  10  -6    3.31    0.36 
   5  10  -6    0.43    0.16 
   6  10  -6    0.38    0.15 
   7  10  -6   16.81    2.26 
   8  10  -6    5.36    0.74 
   9  10  -6    0.29    0.25 
  10  10  -6    0.10    0.25 
  -9  11  -6    1.07    0.10 
  -8  11  -6    1.29    0.12 
  -7  11  -6    4.54    0.28 
  -6  11  -6    2.65    0.18 
  -5  11  -6    1.88    0.14 
  -4  11  -6    6.62    0.81 
  -3  11  -6    0.11    0.12 
  -2  11  -6    0.17    0.11 
  -1  11  -6    2.58    0.51 
   0  11  -6   -0.10    0.17 
   1  11  -6    1.02    0.21 
   2  11  -6    1.58    0.27 
   3  11  -6    7.97    1.19 
   4  11  -6    2.00    0.32 
   5  11  -6   -0.05    0.11 
   6  11  -6    5.92    0.86 
   7  11  -6    5.77    0.85 
   8  11  -6    6.86    0.86 
   9  11  -6    0.01    0.21 
  11  11  -6    0.35    0.27 
  -9  12  -6    0.11    0.05 
  -8  12  -6    2.42    0.18 
  -7  12  -6    0.18    0.08 
  -6  12  -6    3.77    0.22 
  -5  12  -6    0.65    0.10 
  -4  12  -6    4.58    0.77 
  -3  12  -6    2.66    0.43 
  -2  12  -6    0.21    0.15 
  -1  12  -6    3.41    0.62 
   0  12  -6    0.29    0.21 
   1  12  -6   12.53    2.47 
   2  12  -6    0.26    0.21 
   3  12  -6    0.94    0.20 
   4  12  -6    0.89    0.21 
   5  12  -6    0.49    0.17 
   6  12  -6    5.78    0.81 
   7  12  -6    0.35    0.17 
   8  12  -6    1.53    0.38 
   9  12  -6    0.52    0.25 
  10  12  -6    7.06    1.18 
  12  12  -6    1.03    0.29 
  -9  13  -6    0.01    0.04 
  -8  13  -6    0.01    0.06 
  -7  13  -6    0.26    0.07 
  -6  13  -6    1.29    0.11 
  -5  13  -6    0.16    0.08 
  -4  13  -6    0.14    0.08 
  -3  13  -6    1.82    0.31 
  -2  13  -6    1.49    0.39 
  -1  13  -6    2.92    0.64 
   0  13  -6    0.33    0.24 
   1  13  -6    0.11    0.22 
   2  13  -6    0.01    0.19 
   3  13  -6    0.16    0.13 
   4  13  -6    0.23    0.14 
   5  13  -6    1.20    0.25 
   6  13  -6    6.49    0.90 
   7  13  -6   -0.11    0.16 
   8  13  -6    0.87    0.25 
   9  13  -6   -0.13    0.26 
  10  13  -6    0.09    0.28 
  11  13  -6    1.17    0.35 
  -8  14  -6    0.05    0.05 
  -7  14  -6    0.20    0.07 
  -6  14  -6    0.30    0.08 
  -5  14  -6    0.39    0.08 
  -4  14  -6    0.04    0.07 
  -3  14  -6    3.93    0.25 
  -2  14  -6   -0.11    0.27 
  -1  14  -6    0.26    0.26 
   0  14  -6   -0.23    0.21 
   1  14  -6    0.41    0.23 
   2  14  -6    4.61    1.05 
   3  14  -6    2.16    0.41 
   4  14  -6    0.18    0.15 
   5  14  -6    0.32    0.16 
   6  14  -6    0.21    0.12 
   7  14  -6    0.11    0.17 
   8  14  -6   -0.14    0.16 
   9  14  -6    0.52    0.22 
  10  14  -6    3.64    0.63 
  11  14  -6    0.90    0.20 
  -8  15  -6   -0.01    0.04 
  -7  15  -6    3.36    0.20 
  -6  15  -6    0.02    0.07 
  -5  15  -6    0.46    0.08 
  -4  15  -6    0.97    0.10 
  -3  15  -6    1.98    0.16 
  -2  15  -6    0.11    0.10 
  -1  15  -6    0.48    0.31 
   0  15  -6    0.62    0.36 
   1  15  -6    0.67    0.33 
   2  15  -6   -0.28    0.21 
   3  15  -6   -0.01    0.14 
   4  15  -6    0.12    0.14 
   5  15  -6    0.42    0.13 
   6  15  -6    5.56    0.64 
   7  15  -6    4.10    0.46 
   8  15  -6    1.82    0.34 
   9  15  -6    6.30    0.80 
  10  15  -6    0.23    0.16 
  -7  16  -6    0.51    0.07 
  -6  16  -6    0.14    0.06 
  -5  16  -6    0.00    0.07 
  -4  16  -6    2.52    0.18 
  -3  16  -6    0.09    0.09 
  -2  16  -6    0.07    0.10 
  -1  16  -6    0.20    0.11 
   0  16  -6    0.94    0.14 
   1  16  -6    2.08    0.27 
   2  16  -6    0.13    0.14 
   3  16  -6    0.05    0.11 
   4  16  -6   -0.04    0.10 
   5  16  -6    3.07    0.27 
   6  16  -6    0.28    0.15 
   7  16  -6    0.47    0.19 
   8  16  -6    2.56    0.33 
   9  16  -6    0.02    0.16 
  10  16  -6    0.12    0.10 
  -7  17  -6   -0.03    0.04 
  -6  17  -6    0.41    0.07 
  -5  17  -6    0.07    0.07 
  -4  17  -6    1.43    0.13 
  -3  17  -6    0.23    0.09 
  -2  17  -6    0.15    0.10 
  -1  17  -6    0.25    0.10 
   0  17  -6    0.42    0.12 
   1  17  -6    1.70    0.16 
   2  17  -6    0.17    0.13 
   3  17  -6    0.26    0.12 
   4  17  -6    1.07    0.16 
   5  17  -6    0.92    0.16 
   6  17  -6    1.29    0.22 
   7  17  -6    0.18    0.14 
   8  17  -6    0.12    0.12 
   9  17  -6    1.14    0.19 
  -6  18  -6    0.96    0.09 
  -5  18  -6    0.77    0.09 
  -4  18  -6    2.16    0.17 
  -3  18  -6    2.99    0.22 
  -2  18  -6    4.79    0.34 
  -1  18  -6    0.20    0.10 
   0  18  -6    1.33    0.16 
   1  18  -6    0.02    0.11 
   2  18  -6    0.92    0.16 
   3  18  -6    0.31    0.12 
   4  18  -6    0.28    0.12 
   5  18  -6    2.45    0.24 
   6  18  -6    0.41    0.13 
   7  18  -6    1.03    0.16 
   8  18  -6    0.61    0.13 
   9  18  -6    0.31    0.10 
  -6  19  -6    1.01    0.10 
  -5  19  -6   -0.08    0.05 
  -4  19  -6    0.04    0.07 
  -3  19  -6    0.96    0.11 
  -2  19  -6    0.08    0.09 
  -1  19  -6    0.27    0.11 
   0  19  -6    0.54    0.13 
   1  19  -6    0.01    0.14 
   2  19  -6   -0.17    0.12 
   3  19  -6    0.61    0.15 
   4  19  -6    0.16    0.14 
   5  19  -6    0.07    0.11 
   6  19  -6    0.35    0.11 
   7  19  -6    5.30    0.44 
   8  19  -6    0.08    0.08 
  -5  20  -6   -0.01    0.05 
  -4  20  -6    0.09    0.07 
  -3  20  -6   -0.05    0.07 
  -2  20  -6    0.65    0.11 
  -1  20  -6    1.54    0.19 
   0  20  -6    0.09    0.13 
   1  20  -6   -0.05    0.13 
   2  20  -6    0.49    0.15 
   3  20  -6    1.12    0.20 
   4  20  -6    0.24    0.14 
   5  20  -6    0.48    0.15 
   6  20  -6    2.04    0.22 
   7  20  -6    0.06    0.09 
  -4  21  -6    0.51    0.08 
  -3  21  -6    0.09    0.07 
  -2  21  -6   -0.04    0.08 
  -1  21  -6    0.21    0.11 
   0  21  -6    0.31    0.12 
   1  21  -6    0.31    0.14 
   2  21  -6    0.56    0.13 
   3  21  -6    0.35    0.13 
   4  21  -6    0.30    0.13 
   5  21  -6    0.12    0.11 
   6  21  -6    0.00    0.08 
  -3  22  -6    0.20    0.11 
  -2  22  -6    0.23    0.09 
  -1  22  -6   -0.03    0.09 
   0  22  -6   -0.02    0.10 
   1  22  -6    0.18    0.10 
   2  22  -6    0.23    0.11 
   3  22  -6    0.15    0.10 
   4  22  -6    0.93    0.15 
   5  22  -6    0.04    0.11 
  -1  23  -6    0.16    0.11 
   0  23  -6    0.14    0.08 
   1  23  -6    0.09    0.09 
   2  23  -6    0.45    0.11 
   3  23  -6   -0.01    0.08 
  -2 -23  -5    0.04    0.07 
  -1 -23  -5    0.12    0.09 
   0 -23  -5   -0.01    0.08 
   1 -23  -5    0.25    0.09 
   2 -23  -5    0.26    0.10 
   3 -23  -5    0.45    0.10 
   4 -23  -5   -0.10    0.07 
  -3 -22  -5    0.15    0.08 
  -2 -22  -5    0.12    0.10 
  -1 -22  -5    0.76    0.13 
   0 -22  -5    0.05    0.10 
   1 -22  -5    0.00    0.11 
   2 -22  -5   -0.01    0.10 
   3 -22  -5    0.47    0.12 
   4 -22  -5    0.26    0.10 
   5 -22  -5   -0.05    0.07 
   6 -22  -5    0.27    0.09 
  -5 -21  -5    0.07    0.06 
  -4 -21  -5   -0.04    0.06 
  -3 -21  -5    0.32    0.08 
  -2 -21  -5    0.63    0.12 
  -1 -21  -5    0.34    0.10 
   0 -21  -5    0.03    0.12 
   1 -21  -5   -0.14    0.10 
   2 -21  -5    0.47    0.14 
   3 -21  -5    0.46    0.14 
   4 -21  -5    0.00    0.10 
   5 -21  -5    0.03    0.09 
   6 -21  -5    0.00    0.07 
   7 -21  -5    0.33    0.08 
  -5 -20  -5    0.11    0.07 
  -4 -20  -5    0.00    0.06 
  -3 -20  -5    0.42    0.09 
  -2 -20  -5    0.18    0.10 
  -1 -20  -5    0.90    0.14 
   0 -20  -5    1.75    0.25 
   1 -20  -5    0.02    0.11 
   2 -20  -5    0.01    0.13 
   3 -20  -5    0.06    0.12 
   4 -20  -5    0.61    0.16 
   5 -20  -5    0.09    0.10 
   6 -20  -5    0.09    0.09 
   7 -20  -5    0.48    0.12 
   8 -20  -5    0.02    0.06 
  -6 -19  -5    1.27    0.11 
  -5 -19  -5    0.21    0.07 
  -4 -19  -5    0.12    0.07 
  -3 -19  -5    0.00    0.08 
  -2 -19  -5    0.06    0.09 
  -1 -19  -5   -0.08    0.10 
   0 -19  -5   -0.01    0.10 
   1 -19  -5   -0.13    0.11 
   2 -19  -5    0.91    0.16 
   3 -19  -5    0.00    0.10 
   4 -19  -5    0.00    0.12 
   5 -19  -5   -0.18    0.10 
   6 -19  -5    0.21    0.12 
   7 -19  -5    2.59    0.38 
   8 -19  -5    0.17    0.08 
  -7 -18  -5    0.15    0.04 
  -6 -18  -5    0.67    0.08 
  -5 -18  -5    0.70    0.09 
  -4 -18  -5   -0.04    0.07 
  -3 -18  -5    0.41    0.09 
  -2 -18  -5    1.50    0.15 
  -1 -18  -5    0.40    0.11 
   0 -18  -5    0.63    0.13 
   1 -18  -5    0.31    0.12 
   2 -18  -5    0.10    0.11 
   3 -18  -5   -0.08    0.10 
   4 -18  -5    1.33    0.18 
   5 -18  -5    1.34    0.17 
   6 -18  -5    2.69    0.37 
   7 -18  -5    0.39    0.14 
   8 -18  -5    0.06    0.12 
   9 -18  -5    0.04    0.07 
  -7 -17  -5    0.14    0.05 
  -6 -17  -5    0.48    0.07 
  -5 -17  -5    0.05    0.06 
  -4 -17  -5    2.39    0.15 
  -3 -17  -5   -0.04    0.08 
  -2 -17  -5    2.38    0.19 
  -1 -17  -5    0.85    0.13 
   0 -17  -5    1.52    0.17 
   1 -17  -5    1.95    0.18 
   2 -17  -5    0.83    0.14 
   3 -17  -5    0.05    0.11 
   4 -17  -5    0.13    0.11 
   5 -17  -5    0.11    0.12 
   6 -17  -5    0.85    0.17 
   7 -17  -5    1.65    0.30 
   8 -17  -5    0.47    0.20 
   9 -17  -5    0.11    0.11 
  10 -17  -5    0.70    0.13 
  -8 -16  -5   -0.02    0.04 
  -7 -16  -5    0.14    0.06 
  -6 -16  -5    2.22    0.14 
  -5 -16  -5    2.24    0.14 
  -4 -16  -5    0.08    0.07 
  -3 -16  -5    1.04    0.11 
  -2 -16  -5    5.31    0.33 
  -1 -16  -5    3.03    0.85 
   0 -16  -5   -0.13    0.25 
   1 -16  -5    0.08    0.16 
   2 -16  -5    0.71    0.22 
   3 -16  -5    0.44    0.28 
   4 -16  -5    6.02    0.65 
   5 -16  -5    4.54    0.46 
   6 -16  -5    1.29    0.20 
   7 -16  -5    4.93    0.52 
   8 -16  -5    0.16    0.18 
   9 -16  -5    1.46    0.26 
  10 -16  -5    0.90    0.23 
  -8 -15  -5    3.86    0.21 
  -7 -15  -5    0.68    0.08 
  -6 -15  -5    0.00    0.06 
  -5 -15  -5    2.16    0.13 
  -4 -15  -5    0.84    0.09 
  -3 -15  -5    0.99    0.12 
  -2 -15  -5    0.50    0.33 
  -1 -15  -5    0.27    0.28 
   0 -15  -5    1.13    0.28 
   1 -15  -5    0.21    0.16 
   2 -15  -5    1.50    0.31 
   3 -15  -5    1.04    0.38 
   4 -15  -5   -0.15    0.19 
   5 -15  -5   -0.13    0.20 
   6 -15  -5    0.12    0.15 
   7 -15  -5    0.24    0.18 
   8 -15  -5    0.76    0.37 
   9 -15  -5    1.03    0.28 
  10 -15  -5    0.72    0.37 
  11 -15  -5    0.13    0.15 
  -9 -14  -5    0.01    0.04 
  -8 -14  -5    0.19    0.06 
  -7 -14  -5    8.44    0.50 
  -6 -14  -5    0.08    0.06 
  -5 -14  -5    5.70    0.28 
  -4 -14  -5    6.00    0.28 
  -3 -14  -5    0.13    0.13 
  -2 -14  -5   11.37    2.34 
  -1 -14  -5    2.74    0.68 
   0 -14  -5    0.26    0.16 
   1 -14  -5   -0.09    0.13 
   2 -14  -5   -0.01    0.13 
   3 -14  -5   -0.14    0.16 
   4 -14  -5    0.31    0.22 
   5 -14  -5    0.81    0.32 
   6 -14  -5    8.99    1.28 
   7 -14  -5    6.52    0.82 
   8 -14  -5    4.79    0.63 
  10 -14  -5    0.05    0.19 
  11 -14  -5    4.37    1.01 
  -9 -13  -5    1.27    0.10 
  -8 -13  -5    0.24    0.07 
  -7 -13  -5    2.20    0.15 
  -6 -13  -5    0.08    0.06 
  -5 -13  -5    0.96    0.09 
  -4 -13  -5    0.76    0.18 
  -3 -13  -5    0.39    0.15 
  -2 -13  -5    0.32    0.18 
  -1 -13  -5    0.18    0.14 
   0 -13  -5    1.94    0.37 
   1 -13  -5    0.31    0.14 
   2 -13  -5    1.01    0.27 
   3 -13  -5   12.84    2.78 
   4 -13  -5    0.06    0.17 
   5 -13  -5    0.75    0.33 
   6 -13  -5    1.25    0.32 
   7 -13  -5    0.04    0.14 
   8 -13  -5    1.28    0.26 
   9 -13  -5    0.16    0.25 
  10 -13  -5    0.15    0.23 
  11 -13  -5    0.15    0.21 
 -10 -12  -5    0.36    0.06 
  -9 -12  -5    0.11    0.06 
  -8 -12  -5    0.24    0.08 
  -7 -12  -5    3.16    0.18 
  -6 -12  -5    1.41    0.12 
  -5 -12  -5    0.83    0.19 
  -4 -12  -5    0.38    0.16 
  -3 -12  -5    1.92    0.31 
  -2 -12  -5    3.61    0.50 
  -1 -12  -5    5.58    0.72 
   0 -12  -5    0.06    0.09 
   1 -12  -5    0.09    0.08 
   2 -12  -5    0.13    0.13 
   3 -12  -5    0.60    0.23 
   4 -12  -5    2.14    0.56 
   5 -12  -5    6.00    0.87 
   6 -12  -5    1.37    0.27 
   7 -12  -5    1.49    0.31 
   8 -12  -5    0.81    0.27 
   9 -12  -5    3.56    0.90 
  12 -12  -5    0.39    0.18 
 -10 -11  -5    0.39    0.07 
  -9 -11  -5    0.74    0.09 
  -8 -11  -5   11.56    0.63 
  -7 -11  -5    1.83    0.13 
  -6 -11  -5    0.53    0.08 
  -5 -11  -5    2.10    0.32 
  -4 -11  -5    0.10    0.12 
  -3 -11  -5    0.38    0.13 
  -2 -11  -5    3.72    0.48 
  -1 -11  -5    0.30    0.09 
   0 -11  -5    3.12    0.46 
   1 -11  -5    2.25    0.33 
   2 -11  -5    0.28    0.09 
   3 -11  -5    3.69    0.62 
   4 -11  -5    1.30    0.26 
   5 -11  -5    0.01    0.12 
   6 -11  -5    0.06    0.13 
   7 -11  -5    4.97    0.86 
   8 -11  -5    0.45    0.19 
   9 -11  -5    2.39    0.63 
 -10 -10  -5   -0.02    0.05 
  -9 -10  -5    2.01    0.15 
  -8 -10  -5   12.09    0.66 
  -7 -10  -5    7.58    0.38 
  -6 -10  -5    1.99    0.30 
  -5 -10  -5    0.27    0.12 
  -4 -10  -5    8.56    1.07 
  -3 -10  -5    0.15    0.10 
  -2 -10  -5    2.34    0.25 
  -1 -10  -5    0.07    0.06 
   0 -10  -5    2.63    0.31 
   1 -10  -5    0.03    0.06 
   2 -10  -5   15.83    1.83 
   3 -10  -5   27.07    3.99 
   4 -10  -5    0.37    0.16 
   5 -10  -5    8.36    1.23 
   6 -10  -5    4.10    0.70 
   7 -10  -5    0.48    0.17 
   8 -10  -5    4.16    0.70 
   9 -10  -5    3.12    0.85 
  10 -10  -5    0.71    0.33 
 -10  -9  -5    1.68    0.17 
  -9  -9  -5    0.35    0.09 
  -8  -9  -5    0.12    0.07 
  -7  -9  -5    8.70    0.45 
  -6  -9  -5    2.17    0.29 
  -5  -9  -5    2.37    0.28 
  -4  -9  -5   -0.10    0.08 
  -3  -9  -5    0.55    0.11 
  -2  -9  -5    0.32    0.08 
  -1  -9  -5    3.38    0.34 
   0  -9  -5   13.88    1.46 
   1  -9  -5    5.54    0.70 
   2  -9  -5    0.25    0.09 
   3  -9  -5   17.21    2.11 
   4  -9  -5    8.69    1.07 
   5  -9  -5    0.37    0.11 
   6  -9  -5    0.02    0.11 
   7  -9  -5    1.41    0.26 
   8  -9  -5    1.28    0.49 
   9  -9  -5    0.11    0.25 
  10  -9  -5    0.10    0.28 
 -10  -8  -5    0.22    0.09 
  -9  -8  -5    0.16    0.08 
  -7  -8  -5    0.03    0.07 
  -6  -8  -5    7.77    0.88 
  -5  -8  -5    1.11    0.18 
  -4  -8  -5    0.08    0.09 
  -3  -8  -5    0.15    0.06 
  -2  -8  -5   -0.04    0.06 
  -1  -8  -5    2.55    0.25 
   0  -8  -5    0.02    0.06 
   1  -8  -5   -0.02    0.06 
   2  -8  -5    0.51    0.12 
   3  -8  -5    3.79    0.48 
   4  -8  -5   18.25    1.85 
   5  -8  -5    1.10    0.14 
   6  -8  -5    1.47    0.24 
   7  -8  -5    5.44    0.84 
   8  -8  -5    0.02    0.21 
   9  -8  -5    0.05    0.25 
  10  -8  -5   -0.32    0.22 
 -10  -7  -5    1.41    0.18 
  -9  -7  -5    0.46    0.10 
  -8  -7  -5    2.55    0.19 
  -7  -7  -5    3.07    0.46 
  -6  -7  -5    0.49    0.15 
  -5  -7  -5    0.07    0.09 
  -4  -7  -5    0.22    0.08 
  -3  -7  -5    5.95    0.52 
  -2  -7  -5    2.26    0.25 
  -1  -7  -5    2.31    0.22 
   0  -7  -5    1.46    0.27 
   1  -7  -5    4.73    0.71 
   2  -7  -5   22.76    3.39 
   3  -7  -5    1.77    0.21 
   4  -7  -5    7.74    0.81 
   5  -7  -5    2.39    0.26 
   6  -7  -5    0.56    0.15 
   7  -7  -5    0.25    0.18 
   8  -7  -5    1.72    0.50 
   9  -7  -5    3.04    0.72 
  10  -7  -5    0.17    0.27 
  11  -7  -5    0.22    0.29 
  -9  -6  -5    4.53    0.45 
  -8  -6  -5   21.25    1.33 
  -7  -6  -5    7.48    0.93 
  -6  -6  -5    0.17    0.12 
  -5  -6  -5    0.12    0.10 
  -4  -6  -5    0.38    0.08 
  -3  -6  -5    1.34    0.15 
  -2  -6  -5    2.57    0.30 
  -1  -6  -5    3.30    0.38 
   0  -6  -5   26.82    5.59 
   1  -6  -5    0.26    0.09 
   2  -6  -5   60.52   11.09 
   3  -6  -5   49.69    7.05 
   4  -6  -5   13.75    1.38 
   5  -6  -5    0.61    0.10 
   6  -6  -5    0.14    0.07 
   7  -6  -5    4.01    1.03 
   8  -6  -5    2.59    0.53 
   9  -6  -5    4.42    0.87 
  10  -6  -5    1.49    0.44 
  11  -6  -5    0.64    0.34 
  -9  -5  -5   -0.12    0.15 
  -8  -5  -5    1.24    0.14 
  -7  -5  -5   11.79    1.48 
  -6  -5  -5    1.06    0.20 
  -5  -5  -5    6.63    0.71 
  -4  -5  -5    2.45    0.25 
  -3  -5  -5    0.57    0.07 
  -2  -5  -5    0.24    0.06 
  -1  -5  -5    9.23    1.35 
   0  -5  -5    0.27    0.10 
   1  -5  -5   31.73    6.22 
   2  -5  -5   25.59    4.36 
   3  -5  -5   28.58    4.05 
   4  -5  -5   11.19    1.31 
   5  -5  -5    5.72    0.57 
   6  -5  -5    1.84    0.27 
   7  -5  -5    1.18    0.19 
   8  -5  -5   31.95    6.46 
   9  -5  -5   14.28    3.15 
  10  -5  -5    3.69    0.94 
  11  -5  -5    1.32    0.45 
  -8  -4  -5    0.28    0.13 
  -7  -4  -5    1.44    0.25 
  -6  -4  -5    2.42    0.35 
  -5  -4  -5    3.43    0.37 
  -4  -4  -5    1.96    0.21 
  -3  -4  -5    0.32    0.07 
  -2  -4  -5    4.07    0.39 
  -1  -4  -5   21.18    3.17 
   0  -4  -5    6.82    0.97 
   1  -4  -5    5.47    0.84 
   2  -4  -5    0.76    0.13 
   3  -4  -5    3.54    0.52 
   4  -4  -5   28.96    4.05 
   5  -4  -5   68.60    8.06 
   6  -4  -5    2.87    0.39 
   7  -4  -5    2.27    0.34 
   8  -4  -5    1.49    0.34 
   9  -4  -5    0.10    0.23 
  10  -4  -5    1.81    0.63 
  -8  -3  -5    3.15    0.74 
  -7  -3  -5    1.04    0.27 
  -6  -3  -5    6.13    0.83 
  -5  -3  -5    1.16    0.16 
  -4  -3  -5   10.59    0.94 
  -3  -3  -5    0.11    0.05 
  -2  -3  -5    0.44    0.11 
  -1  -3  -5    9.92    1.46 
   0  -3  -5    3.32    0.55 
   1  -3  -5    2.23    0.32 
   2  -3  -5   -0.07    0.04 
   3  -3  -5   24.03    4.46 
   4  -3  -5    6.56    1.16 
   5  -3  -5    0.23    0.09 
   6  -3  -5   13.07    1.73 
   7  -3  -5    0.40    0.10 
   8  -3  -5   28.21    5.43 
   9  -3  -5    0.97    0.40 
  10  -3  -5    0.52    0.29 
  -7  -2  -5    1.47    0.30 
  -6  -2  -5    1.43    0.25 
  -5  -2  -5   10.05    0.94 
  -4  -2  -5   10.57    0.93 
  -3  -2  -5   74.51    6.28 
  -2  -2  -5   68.94    9.88 
  -1  -2  -5    3.46    0.50 
   0  -2  -5    0.55    0.11 
   1  -2  -5    0.67    0.11 
   2  -2  -5    6.52    0.99 
   3  -2  -5    1.43    0.34 
   4  -2  -5   17.40    3.22 
   5  -2  -5    0.03    0.07 
   6  -2  -5    4.97    0.76 
   7  -2  -5   18.60    2.65 
   8  -2  -5   31.22    5.85 
   9  -2  -5    1.44    0.43 
  11  -2  -5    1.02    0.31 
  -7  -1  -5    7.65    1.22 
  -6  -1  -5    0.52    0.14 
  -5  -1  -5    6.90    0.73 
  -4  -1  -5   15.01    1.40 
  -3  -1  -5    4.23    0.41 
  -2  -1  -5   31.91    4.75 
  -1  -1  -5    3.01    0.48 
   0  -1  -5   15.67    2.33 
   1  -1  -5    0.89    0.16 
   2  -1  -5    0.51    0.10 
   3  -1  -5    8.83    1.82 
   4  -1  -5   20.01    3.95 
   5  -1  -5    2.17    0.30 
   6  -1  -5    3.53    0.47 
   7  -1  -5    0.16    0.09 
   8  -1  -5   10.28    2.06 
  11  -1  -5    2.13    0.63 
  -7   0  -5    0.49    0.30 
  -6   0  -5    0.00    0.11 
  -5   0  -5   -0.16    0.07 
  -4   0  -5   -0.02    0.06 
  -3   0  -5    0.01    0.06 
  -2   0  -5    0.00    0.07 
  -1   0  -5   -0.07    0.05 
   0   0  -5   -0.04    0.05 
   1   0  -5    0.01    0.05 
   2   0  -5   -0.05    0.05 
   3   0  -5    0.12    0.07 
   4   0  -5    0.13    0.09 
   5   0  -5    0.19    0.10 
   6   0  -5   -0.02    0.07 
   7   0  -5   -0.05    0.08 
   8   0  -5    0.86    0.22 
  10   0  -5    0.06    0.22 
  11   0  -5   -0.33    0.21 
  -7   1  -5    8.14    1.23 
  -6   1  -5    0.03    0.12 
  -5   1  -5    6.90    0.66 
  -4   1  -5   15.16    1.40 
  -3   1  -5    4.45    0.41 
  -2   1  -5   32.29    6.72 
  -1   1  -5    3.31    0.48 
   0   1  -5   16.02    2.33 
   1   1  -5    1.07    0.16 
   2   1  -5    0.51    0.10 
   3   1  -5    8.65    1.29 
   4   1  -5   18.77    3.95 
   5   1  -5    1.44    0.40 
   6   1  -5    3.09    0.46 
   7   1  -5    0.11    0.09 
   9   1  -5   38.46    9.08 
  10   1  -5    0.77    0.32 
  11   1  -5    2.14    0.63 
  -7   2  -5    1.17    0.31 
  -6   2  -5    1.58    0.25 
  -5   2  -5    9.88    0.95 
  -4   2  -5   10.76    1.02 
  -3   2  -5   75.09    6.88 
  -2   2  -5   64.12   13.98 
  -1   2  -5    3.27    0.49 
   0   2  -5    0.61    0.10 
   1   2  -5    0.59    0.11 
   2   2  -5    7.36    1.00 
   3   2  -5    1.43    0.24 
   4   2  -5   14.06    3.22 
   5   2  -5   -0.02    0.07 
   6   2  -5    5.72    0.62 
   7   2  -5   16.55    2.65 
   8   2  -5   26.89    5.84 
   9   2  -5    1.57    0.42 
  10   2  -5    0.43    0.31 
  11   2  -5   -0.05    0.23 
  -8   3  -5    2.72    0.77 
  -7   3  -5    1.49    0.31 
  -6   3  -5    6.88    0.84 
  -5   3  -5    1.55    0.17 
  -4   3  -5    9.78    0.94 
  -3   3  -5    0.15    0.06 
  -2   3  -5    0.32    0.16 
  -1   3  -5    9.03    2.07 
   0   3  -5    3.78    0.54 
   1   3  -5    1.84    0.32 
   2   3  -5    0.06    0.05 
   3   3  -5   20.95    3.15 
   4   3  -5    5.25    1.16 
   5   3  -5    0.23    0.09 
   6   3  -5   10.61    1.73 
   7   3  -5    0.37    0.13 
   8   3  -5   25.77    5.42 
   9   3  -5    1.92    0.46 
  10   3  -5    0.63    0.27 
  11   3  -5   -0.09    0.22 
  -8   4  -5    0.24    0.14 
  -7   4  -5    1.54    0.28 
  -6   4  -5    2.31    0.37 
  -5   4  -5    3.65    0.42 
  -4   4  -5    2.15    0.23 
  -3   4  -5    0.21    0.08 
  -2   4  -5    4.05    0.50 
  -1   4  -5   20.99    4.49 
   0   4  -5    5.81    1.37 
   1   4  -5    5.65    0.84 
   2   4  -5    0.73    0.14 
   3   4  -5    3.53    0.51 
   4   4  -5   26.06    5.73 
   5   4  -5   68.10    9.87 
   6   4  -5    2.60    0.47 
   7   4  -5    2.45    0.42 
   8   4  -5    0.68    0.28 
   9   4  -5   -0.24    0.19 
  10   4  -5    2.02    0.62 
  11   4  -5    4.43    1.11 
  -9   5  -5    0.24    0.18 
  -8   5  -5    0.93    0.14 
  -7   5  -5   12.27    1.49 
  -6   5  -5    1.14    0.23 
  -5   5  -5    6.29    0.71 
  -4   5  -5    2.32    0.26 
  -3   5  -5    0.27    0.08 
  -2   5  -5    0.16    0.07 
  -1   5  -5    8.39    1.90 
   0   5  -5    0.44    0.16 
   1   5  -5   28.64    6.22 
   2   5  -5   19.92    3.08 
   3   5  -5   27.65    4.05 
   4   5  -5   10.89    1.31 
   5   5  -5    5.21    0.81 
   6   5  -5    1.68    0.33 
   7   5  -5    0.97    0.23 
   8   5  -5   31.99    6.45 
   9   5  -5   15.07    3.14 
  10   5  -5    4.64    0.95 
  -9   6  -5    5.85    0.44 
  -8   6  -5   20.23    1.33 
  -7   6  -5    6.95    0.95 
  -6   6  -5    0.21    0.15 
  -5   6  -5    0.15    0.11 
  -4   6  -5    0.59    0.10 
  -3   6  -5    1.25    0.14 
  -2   6  -5    2.89    0.30 
  -1   6  -5    3.82    0.44 
   0   6  -5   27.38    5.61 
   1   6  -5    0.19    0.12 
   2   6  -5   50.36    7.84 
   3   6  -5   50.05    5.76 
   4   6  -5   13.49    1.59 
   5   6  -5    0.65    0.14 
   6   6  -5   -0.05    0.09 
   7   6  -5    4.72    1.01 
   8   6  -5    2.31    0.50 
   9   6  -5    3.42    0.80 
  10   6  -5    1.44    0.39 
  11   6  -5    0.68    0.28 
 -10   7  -5    1.41    0.19 
  -9   7  -5    0.57    0.12 
  -8   7  -5    2.36    0.20 
  -7   7  -5    3.59    0.50 
  -6   7  -5    0.51    0.16 
  -5   7  -5    0.33    0.13 
  -4   7  -5    0.05    0.07 
  -3   7  -5    5.72    0.52 
  -2   7  -5    2.21    0.23 
  -1   7  -5    1.77    0.25 
   0   7  -5    1.51    0.28 
   1   7  -5    4.86    0.72 
   2   7  -5   24.93    3.39 
   3   7  -5    1.27    0.20 
   4   7  -5    7.97    0.81 
   5   7  -5    2.23    0.36 
   6   7  -5    0.83    0.18 
   7   7  -5    0.00    0.18 
   8   7  -5    1.31    0.48 
   9   7  -5    3.16    0.68 
  10   7  -5    0.50    0.26 
  11   7  -5    0.15    0.20 
 -10   8  -5    0.06    0.08 
  -9   8  -5    0.23    0.10 
  -7   8  -5   -0.03    0.08 
  -6   8  -5    7.96    0.90 
  -5   8  -5    1.28    0.21 
  -4   8  -5    0.13    0.09 
  -3   8  -5    0.13    0.07 
  -2   8  -5   -0.04    0.05 
  -1   8  -5    2.08    0.25 
   0   8  -5   -0.02    0.06 
   1   8  -5   -0.11    0.07 
   2   8  -5    0.58    0.13 
   3   8  -5    4.09    0.48 
   4   8  -5   18.62    1.85 
   5   8  -5    1.13    0.17 
   6   8  -5    1.84    0.25 
   7   8  -5    4.81    0.82 
   8   8  -5    0.19    0.14 
   9   8  -5   -0.18    0.18 
  10   8  -5    0.09    0.20 
 -10   9  -5    2.33    0.18 
  -9   9  -5    0.14    0.08 
  -8   9  -5   -0.03    0.08 
  -7   9  -5    7.59    0.44 
  -6   9  -5    1.72    0.31 
  -5   9  -5    1.77    0.29 
  -4   9  -5   -0.04    0.11 
  -3   9  -5    0.23    0.08 
  -2   9  -5    0.36    0.08 
  -1   9  -5    3.40    0.35 
   0   9  -5   14.06    1.47 
   1   9  -5    5.72    0.86 
   2   9  -5    0.12    0.07 
   3   9  -5   20.04    2.11 
   4   9  -5    9.57    1.08 
   5   9  -5    0.52    0.11 
   6   9  -5   -0.03    0.12 
   7   9  -5    1.23    0.25 
   8   9  -5    2.40    0.36 
   9   9  -5   -0.21    0.21 
  10   9  -5   -0.17    0.17 
 -10  10  -5    0.04    0.06 
  -9  10  -5    1.68    0.15 
  -8  10  -5   11.50    0.68 
  -7  10  -5    6.31    0.39 
  -6  10  -5    1.99    0.29 
  -5  10  -5    0.78    0.16 
  -4  10  -5    8.33    0.94 
  -3  10  -5    0.01    0.10 
  -2  10  -5    2.27    0.24 
  -1  10  -5   -0.05    0.06 
   0  10  -5    2.49    0.36 
   1  10  -5    0.05    0.09 
   2  10  -5   15.87    1.83 
   3  10  -5   29.36    3.26 
   4  10  -5    0.85    0.15 
   5  10  -5    8.99    1.00 
   6  10  -5    5.00    0.70 
   7  10  -5    0.52    0.18 
   8  10  -5    5.33    1.02 
   9  10  -5    2.50    0.81 
  10  10  -5    0.76    0.29 
 -10  11  -5    0.47    0.07 
  -9  11  -5    0.83    0.10 
  -8  11  -5   10.14    0.63 
  -7  11  -5    1.66    0.13 
  -6  11  -5    0.44    0.09 
  -5  11  -5    2.15    0.31 
  -4  11  -5   -0.10    0.11 
  -3  11  -5    0.12    0.11 
  -2  11  -5    3.50    0.49 
  -1  11  -5    0.25    0.11 
   0  11  -5    3.60    0.58 
   1  11  -5    2.69    0.41 
   2  11  -5    0.19    0.09 
   3  11  -5    2.75    0.35 
   4  11  -5    1.39    0.21 
   5  11  -5    0.08    0.13 
   6  11  -5    0.10    0.13 
   7  11  -5    5.13    1.19 
   8  11  -5    0.44    0.27 
   9  11  -5    1.66    0.55 
 -10  12  -5    0.37    0.06 
  -9  12  -5   -0.02    0.06 
  -8  12  -5    0.26    0.08 
  -7  12  -5    2.60    0.17 
  -6  12  -5    1.62    0.12 
  -5  12  -5    0.45    0.21 
  -4  12  -5    0.97    0.22 
  -3  12  -5    1.79    0.33 
  -2  12  -5    3.08    0.50 
  -1  12  -5    7.01    1.30 
   0  12  -5    0.27    0.14 
   1  12  -5   -0.08    0.08 
   2  12  -5    0.22    0.10 
   3  12  -5    0.47    0.15 
   4  12  -5    2.58    0.40 
   5  12  -5    6.59    0.87 
   6  12  -5    1.36    0.28 
   7  12  -5    2.16    0.47 
   8  12  -5    1.47    0.39 
   9  12  -5    3.63    0.89 
  -9  13  -5    1.34    0.10 
  -8  13  -5    0.11    0.07 
  -7  13  -5    1.80    0.14 
  -6  13  -5    0.08    0.07 
  -5  13  -5    0.76    0.09 
  -4  13  -5    0.97    0.22 
  -3  13  -5    0.59    0.17 
  -2  13  -5    0.48    0.16 
  -1  13  -5    0.11    0.20 
   0  13  -5    2.67    0.59 
   1  13  -5    0.03    0.12 
   2  13  -5    1.47    0.26 
   3  13  -5   14.52    1.97 
   4  13  -5    0.29    0.14 
   5  13  -5    0.86    0.22 
   6  13  -5    2.30    0.51 
   7  13  -5   -0.19    0.18 
   8  13  -5    2.39    0.38 
   9  13  -5   -0.04    0.22 
  11  13  -5    0.17    0.21 
  -9  14  -5   -0.01    0.05 
  -8  14  -5    0.14    0.06 
  -7  14  -5    7.99    0.47 
  -6  14  -5   -0.02    0.07 
  -5  14  -5    5.28    0.28 
  -4  14  -5    5.85    0.30 
  -3  14  -5    0.19    0.14 
  -2  14  -5    8.75    2.34 
  -1  14  -5    1.76    0.65 
   0  14  -5    0.18    0.27 
   1  14  -5   -0.03    0.13 
   2  14  -5    0.25    0.14 
   3  14  -5    0.09    0.13 
   4  14  -5    0.32    0.15 
   5  14  -5    0.88    0.31 
   6  14  -5   11.11    1.29 
   7  14  -5    7.88    1.03 
   8  14  -5    5.95    0.81 
   9  14  -5    8.40    1.20 
  10  14  -5    0.51    0.28 
  11  14  -5    6.03    1.05 
  -8  15  -5    3.80    0.22 
  -7  15  -5    0.74    0.08 
  -6  15  -5    0.01    0.07 
  -5  15  -5    2.16    0.13 
  -4  15  -5    0.77    0.09 
  -3  15  -5    1.36    0.13 
  -2  15  -5    0.78    0.38 
  -1  15  -5    0.41    0.32 
   0  15  -5    1.36    0.46 
   1  15  -5   -0.14    0.14 
   2  15  -5    1.82    0.31 
   3  15  -5    1.20    0.27 
   4  15  -5    0.12    0.14 
   5  15  -5    0.04    0.15 
   6  15  -5    0.07    0.16 
   7  15  -5    0.26    0.16 
   8  15  -5    0.81    0.23 
   9  15  -5    1.73    0.45 
  10  15  -5    2.09    0.33 
  11  15  -5    0.24    0.12 
  -8  16  -5    0.03    0.04 
  -7  16  -5    0.01    0.06 
  -6  16  -5    1.88    0.14 
  -5  16  -5    2.13    0.13 
  -4  16  -5    0.06    0.08 
  -3  16  -5    0.62    0.11 
  -2  16  -5    5.19    0.34 
  -1  16  -5    3.80    0.90 
   0  16  -5    0.24    0.27 
   1  16  -5   -0.03    0.16 
   2  16  -5    0.95    0.25 
   3  16  -5    1.04    0.24 
   4  16  -5    8.15    0.67 
   5  16  -5    5.97    0.54 
   6  16  -5    1.51    0.22 
   7  16  -5    6.63    0.55 
   8  16  -5    0.23    0.20 
   9  16  -5    2.20    0.34 
  10  16  -5    1.68    0.23 
  -7  17  -5    0.22    0.06 
  -6  17  -5    0.34    0.07 
  -5  17  -5    0.08    0.07 
  -4  17  -5    2.17    0.17 
  -3  17  -5    0.09    0.09 
  -2  17  -5    2.26    0.19 
  -1  17  -5    0.99    0.14 
   0  17  -5    1.49    0.18 
   1  17  -5    1.35    0.18 
   2  17  -5    0.76    0.15 
   3  17  -5    0.08    0.12 
   4  17  -5    0.38    0.12 
   5  17  -5    0.14    0.13 
   6  17  -5    0.79    0.16 
   7  17  -5    2.78    0.34 
   8  17  -5    0.50    0.18 
   9  17  -5    0.40    0.14 
  10  17  -5    1.04    0.15 
  -7  18  -5    0.18    0.05 
  -6  18  -5    0.58    0.07 
  -5  18  -5    0.55    0.09 
  -4  18  -5   -0.02    0.08 
  -3  18  -5    0.48    0.10 
  -2  18  -5    1.59    0.16 
  -1  18  -5    0.48    0.11 
   0  18  -5    0.64    0.15 
   1  18  -5    0.30    0.11 
   2  18  -5    0.12    0.12 
   3  18  -5   -0.02    0.12 
   4  18  -5    2.08    0.21 
   5  18  -5    1.49    0.18 
   6  18  -5    5.19    0.39 
   7  18  -5    0.53    0.17 
   8  18  -5    0.27    0.13 
   9  18  -5    0.17    0.09 
  -6  19  -5    1.51    0.11 
  -5  19  -5    0.20    0.07 
  -4  19  -5    0.11    0.07 
  -3  19  -5   -0.01    0.09 
  -2  19  -5    0.09    0.10 
  -1  19  -5    0.09    0.10 
   0  19  -5    0.11    0.11 
   1  19  -5    0.30    0.14 
   2  19  -5    0.65    0.15 
   3  19  -5    0.08    0.12 
   4  19  -5   -0.10    0.12 
   5  19  -5    0.06    0.12 
   6  19  -5    0.21    0.13 
   7  19  -5    2.94    0.34 
   8  19  -5    0.23    0.09 
  -5  20  -5    0.01    0.06 
  -4  20  -5   -0.02    0.07 
  -3  20  -5    0.44    0.10 
  -2  20  -5    0.24    0.10 
  -1  20  -5    0.89    0.16 
   0  20  -5    2.07    0.25 
   1  20  -5   -0.09    0.12 
   2  20  -5    0.13    0.14 
   3  20  -5    0.12    0.14 
   4  20  -5    0.85    0.16 
   5  20  -5    0.07    0.10 
   6  20  -5   -0.09    0.10 
   7  20  -5    0.38    0.10 
   8  20  -5    0.05    0.08 
  -5  21  -5    0.21    0.07 
  -4  21  -5   -0.05    0.06 
  -3  21  -5    0.58    0.09 
  -2  21  -5    0.71    0.12 
  -1  21  -5    0.34    0.12 
   0  21  -5    0.18    0.11 
   1  21  -5   -0.10    0.11 
   2  21  -5    0.30    0.14 
   3  21  -5    0.25    0.13 
   4  21  -5    0.05    0.11 
   5  21  -5    0.17    0.11 
   6  21  -5    0.04    0.09 
   7  21  -5    0.59    0.11 
  -3  22  -5    0.13    0.08 
  -2  22  -5    0.04    0.09 
  -1  22  -5    0.73    0.14 
   0  22  -5    0.08    0.10 
   1  22  -5    0.05    0.11 
   2  22  -5    0.05    0.11 
   3  22  -5    0.46    0.13 
   4  22  -5   -0.01    0.10 
   5  22  -5    0.01    0.09 
   6  22  -5    0.42    0.10 
  -2  23  -5    0.10    0.07 
  -1  23  -5    0.14    0.09 
   0  23  -5    0.14    0.09 
   1  23  -5    0.26    0.11 
   2  23  -5    0.52    0.12 
   3  23  -5    0.53    0.13 
   4  23  -5    0.01    0.10 
  -1 -24  -4    0.23    0.10 
   0 -24  -4    0.74    0.12 
   1 -24  -4    0.30    0.08 
   2 -24  -4    0.20    0.10 
  -3 -23  -4    0.06    0.08 
  -2 -23  -4    0.10    0.09 
  -1 -23  -4    0.12    0.09 
   0 -23  -4    0.06    0.09 
   1 -23  -4    0.10    0.09 
   2 -23  -4    0.33    0.13 
   3 -23  -4    0.26    0.10 
   4 -23  -4    0.31    0.09 
   5 -23  -4    1.08    0.30 
  -4 -22  -4   -0.04    0.07 
  -3 -22  -4    0.68    0.10 
  -2 -22  -4    0.54    0.11 
  -1 -22  -4    0.47    0.13 
   0 -22  -4   -0.10    0.10 
   1 -22  -4    0.94    0.16 
   2 -22  -4    5.40    0.53 
   3 -22  -4    0.37    0.13 
   4 -22  -4    0.66    0.13 
   5 -22  -4    0.09    0.08 
   6 -22  -4    0.69    0.11 
  -5 -21  -4    0.32    0.07 
  -4 -21  -4    0.73    0.09 
  -3 -21  -4    0.69    0.10 
  -2 -21  -4   -0.04    0.09 
  -1 -21  -4    0.03    0.11 
   0 -21  -4    1.52    0.21 
   1 -21  -4    0.36    0.14 
   2 -21  -4   -0.08    0.11 
   3 -21  -4    0.64    0.16 
   4 -21  -4    0.60    0.14 
   5 -21  -4    1.47    0.20 
   6 -21  -4    0.04    0.08 
   7 -21  -4    0.43    0.09 
  -6 -20  -4    0.25    0.06 
  -5 -20  -4    0.24    0.08 
  -4 -20  -4    0.23    0.08 
  -3 -20  -4    0.48    0.11 
  -2 -20  -4    0.41    0.11 
  -1 -20  -4    0.02    0.10 
   0 -20  -4    0.78    0.15 
   1 -20  -4   -0.11    0.11 
   2 -20  -4    0.06    0.12 
   3 -20  -4    0.90    0.16 
   4 -20  -4    0.33    0.13 
   5 -20  -4    0.12    0.11 
   6 -20  -4    0.06    0.09 
   7 -20  -4   -0.01    0.09 
   8 -20  -4    0.61    0.09 
  -7 -19  -4    0.21    0.05 
  -6 -19  -4    0.01    0.06 
  -5 -19  -4    1.55    0.13 
  -4 -19  -4    0.37    0.09 
  -3 -19  -4    4.60    0.33 
  -2 -19  -4    0.21    0.09 
  -1 -19  -4    0.04    0.10 
   0 -19  -4    0.35    0.12 
   1 -19  -4    0.14    0.12 
   2 -19  -4   -0.11    0.11 
   3 -19  -4    0.12    0.10 
   4 -19  -4    0.72    0.14 
   5 -19  -4    0.20    0.12 
   6 -19  -4    1.72    0.25 
   7 -19  -4   -0.22    0.09 
   8 -19  -4   -0.01    0.08 
  -7 -18  -4   -0.01    0.04 
  -6 -18  -4    0.75    0.08 
  -5 -18  -4    0.67    0.09 
  -4 -18  -4    2.28    0.17 
  -3 -18  -4    0.46    0.09 
  -2 -18  -4    3.35    0.25 
  -1 -18  -4    3.33    0.27 
   0 -18  -4   -0.29    0.10 
   1 -18  -4    0.42    0.12 
   2 -18  -4    0.49    0.15 
   3 -18  -4    0.95    0.16 
   4 -18  -4    0.30    0.11 
   5 -18  -4    0.06    0.11 
   6 -18  -4    4.78    0.53 
   7 -18  -4    9.11    1.18 
   8 -18  -4    5.78    0.80 
   9 -18  -4    0.68    0.13 
  -8 -17  -4    0.32    0.05 
  -7 -17  -4    1.05    0.08 
  -6 -17  -4    1.46    0.10 
  -5 -17  -4    0.07    0.07 
  -4 -17  -4    1.64    0.13 
  -3 -17  -4    0.75    0.11 
  -2 -17  -4    0.60    0.11 
  -1 -17  -4   -0.10    0.10 
   0 -17  -4    0.94    0.36 
   1 -17  -4    0.34    0.26 
   2 -17  -4    0.25    0.18 
   3 -17  -4    0.29    0.11 
   4 -17  -4    3.62    0.40 
   5 -17  -4    0.98    0.19 
   6 -17  -4    0.13    0.13 
   7 -17  -4    0.80    0.25 
   8 -17  -4    5.02    0.65 
   9 -17  -4    0.83    0.19 
  10 -17  -4    0.29    0.10 
  -8 -16  -4    0.93    0.08 
  -7 -16  -4    0.12    0.06 
  -6 -16  -4    0.07    0.06 
  -5 -16  -4    0.14    0.06 
  -4 -16  -4    2.43    0.16 
  -3 -16  -4    0.16    0.08 
  -2 -16  -4    0.15    0.28 
  -1 -16  -4    0.34    0.30 
   0 -16  -4   -0.31    0.19 
   1 -16  -4    0.08    0.14 
   2 -16  -4    0.02    0.14 
   3 -16  -4    5.25    1.18 
   4 -16  -4    0.31    0.23 
   5 -16  -4    1.52    0.24 
   6 -16  -4    2.71    0.41 
   7 -16  -4    0.01    0.14 
   8 -16  -4   -0.07    0.23 
   9 -16  -4   -0.08    0.11 
  10 -16  -4   -0.03    0.11 
  -9 -15  -4    0.20    0.05 
  -8 -15  -4    0.05    0.06 
  -7 -15  -4    0.80    0.09 
  -6 -15  -4    0.32    0.07 
  -5 -15  -4    3.23    0.17 
  -4 -15  -4    2.18    0.14 
  -3 -15  -4    6.28    0.97 
  -2 -15  -4    1.49    0.44 
  -1 -15  -4    2.32    0.67 
   0 -15  -4    0.00    0.23 
   1 -15  -4    0.12    0.14 
   2 -15  -4    0.13    0.14 
   3 -15  -4   -0.01    0.17 
   4 -15  -4   11.92    2.32 
   5 -15  -4    1.58    0.48 
   6 -15  -4    0.79    0.27 
   7 -15  -4    7.11    0.94 
   8 -15  -4    1.90    0.29 
   9 -15  -4    5.14    1.20 
  10 -15  -4    0.10    0.14 
  11 -15  -4    0.02    0.14 
  -9 -14  -4    1.41    0.10 
  -8 -14  -4    2.34    0.15 
  -7 -14  -4    0.09    0.07 
  -6 -14  -4    0.06    0.06 
  -5 -14  -4    2.54    0.15 
  -4 -14  -4    1.96    0.32 
  -3 -14  -4    0.23    0.12 
  -2 -14  -4    1.68    0.50 
  -1 -14  -4    2.67    0.59 
   0 -14  -4    0.04    0.12 
   1 -14  -4    1.22    0.28 
   2 -14  -4    2.53    0.49 
   3 -14  -4    5.24    1.26 
   4 -14  -4    1.46    0.45 
   5 -14  -4    2.71    0.74 
   6 -14  -4    1.06    0.23 
   7 -14  -4   12.49    2.03 
   8 -14  -4    1.57    0.38 
   9 -14  -4   -0.08    0.25 
 -10 -13  -4    2.25    0.16 
  -9 -13  -4    0.12    0.06 
  -8 -13  -4    0.07    0.07 
  -7 -13  -4    6.39    0.32 
  -6 -13  -4    1.61    0.11 
  -5 -13  -4    0.79    0.20 
  -4 -13  -4    1.33    0.26 
  -3 -13  -4    0.63    0.15 
  -2 -13  -4    0.59    0.19 
  -1 -13  -4   -0.02    0.20 
   0 -13  -4    0.25    0.14 
   1 -13  -4    0.40    0.15 
   2 -13  -4    0.02    0.11 
   3 -13  -4    0.76    0.30 
   4 -13  -4    0.00    0.16 
   5 -13  -4    5.44    1.21 
   6 -13  -4    1.22    0.31 
   7 -13  -4    6.66    1.29 
   8 -13  -4    5.99    1.08 
   9 -13  -4    0.26    0.18 
 -10 -12  -4    0.97    0.09 
  -9 -12  -4    0.21    0.07 
  -8 -12  -4    0.02    0.07 
  -7 -12  -4    4.65    0.25 
  -6 -12  -4    0.83    0.09 
  -5 -12  -4    2.68    0.31 
  -4 -12  -4    0.77    0.19 
  -3 -12  -4    0.02    0.10 
  -2 -12  -4    7.40    0.89 
  -1 -12  -4    0.08    0.08 
   0 -12  -4    0.64    0.13 
   1 -12  -4   -0.14    0.09 
   2 -12  -4    0.03    0.10 
   3 -12  -4    1.44    0.36 
   4 -12  -4    4.21    0.90 
   5 -12  -4    0.72    0.20 
   6 -12  -4    1.02    0.24 
   7 -12  -4    0.27    0.16 
   8 -12  -4    0.73    0.20 
   9 -12  -4    0.58    0.20 
 -10 -11  -4    0.00    0.05 
  -9 -11  -4    1.26    0.11 
  -8 -11  -4    0.03    0.07 
  -7 -11  -4    0.00    0.06 
  -6 -11  -4    0.23    0.12 
  -5 -11  -4    4.44    0.51 
  -4 -11  -4    0.52    0.12 
  -3 -11  -4    8.50    0.81 
  -2 -11  -4    2.41    0.30 
  -1 -11  -4    5.75    0.69 
   0 -11  -4    0.80    0.15 
   1 -11  -4    4.62    0.57 
   2 -11  -4    0.29    0.13 
   3 -11  -4    2.20    0.60 
   4 -11  -4   -0.02    0.08 
   5 -11  -4   12.02    1.86 
   6 -11  -4    1.33    0.29 
   7 -11  -4    0.40    0.17 
   8 -11  -4   -0.02    0.15 
   9 -11  -4    0.27    0.28 
  10 -11  -4    0.69    0.32 
 -11 -10  -4    0.35    0.09 
 -10 -10  -4   -0.04    0.06 
  -9 -10  -4    7.34    0.45 
  -8 -10  -4   17.09    0.84 
  -7 -10  -4    0.27    0.07 
  -6 -10  -4    0.01    0.10 
  -5 -10  -4    4.14    0.48 
  -4 -10  -4    1.66    0.23 
  -3 -10  -4    7.17    0.70 
  -2 -10  -4    0.76    0.11 
  -1 -10  -4   11.94    1.17 
   0 -10  -4    8.90    1.12 
   1 -10  -4   14.60    1.84 
   2 -10  -4  107.57   13.12 
   3 -10  -4   23.73    3.48 
   4 -10  -4    6.11    0.81 
   5 -10  -4    3.66    0.54 
   6 -10  -4    4.00    0.91 
   7 -10  -4    2.91    0.58 
   8 -10  -4    8.15    1.30 
   9 -10  -4    0.13    0.25 
  10 -10  -4    0.32    0.30 
 -11  -9  -4    0.32    0.10 
 -10  -9  -4    4.64    0.35 
  -9  -9  -4    1.96    0.16 
  -8  -9  -4    0.16    0.07 
  -7  -9  -4   -0.10    0.09 
  -6  -9  -4    0.31    0.11 
  -5  -9  -4    0.74    0.14 
  -4  -9  -4    7.86    0.76 
  -3  -9  -4    0.05    0.06 
  -2  -9  -4    0.29    0.07 
  -1  -9  -4    1.79    0.21 
   0  -9  -4    2.76    0.39 
   1  -9  -4    4.88    0.62 
   2  -9  -4   10.12    1.60 
   3  -9  -4    4.52    0.48 
   4  -9  -4    5.38    0.64 
   5  -9  -4    0.98    0.20 
   6  -9  -4    0.91    0.21 
   7  -9  -4    1.18    0.26 
   8  -9  -4   13.86    2.22 
   9  -9  -4   -0.26    0.21 
  10  -9  -4    2.51    0.78 
 -10  -8  -4    2.56    0.24 
  -9  -8  -4    0.37    0.08 
  -8  -8  -4   -0.08    0.08 
  -7  -8  -4    1.39    0.20 
  -6  -8  -4    0.78    0.14 
  -5  -8  -4    0.04    0.08 
  -4  -8  -4    1.32    0.17 
  -3  -8  -4    3.10    0.33 
  -2  -8  -4   18.04    1.54 
  -1  -8  -4    5.54    0.73 
   0  -8  -4    3.59    0.70 
   1  -8  -4   15.53    3.20 
   2  -8  -4    0.30    0.07 
   3  -8  -4    4.10    0.49 
   4  -8  -4    5.59    0.64 
   5  -8  -4   11.22    1.60 
   6  -8  -4    2.28    0.35 
   7  -8  -4    1.45    0.37 
   8  -8  -4    3.16    0.71 
   9  -8  -4    2.17    0.56 
  10  -8  -4    6.04    1.50 
 -10  -7  -4    0.43    0.12 
  -9  -7  -4    7.64    0.48 
  -8  -7  -4    0.47    0.10 
  -7  -7  -4    1.33    0.26 
  -6  -7  -4   -0.17    0.08 
  -5  -7  -4    4.73    0.47 
  -4  -7  -4   -0.02    0.06 
  -3  -7  -4    2.01    0.19 
  -2  -7  -4   14.17    1.28 
  -1  -7  -4    7.20    1.56 
   0  -7  -4    4.30    0.90 
   1  -7  -4   38.83    7.83 
   2  -7  -4    0.15    0.06 
   3  -7  -4   10.37    1.45 
   4  -7  -4    2.13    0.26 
   5  -7  -4    0.85    0.15 
   6  -7  -4    4.86    0.69 
   7  -7  -4    2.66    0.56 
   8  -7  -4    0.59    0.25 
   9  -7  -4    6.89    1.66 
  10  -7  -4    1.47    0.50 
  11  -7  -4   -0.10    0.29 
  -9  -6  -4    0.07    0.09 
  -8  -6  -4   -0.12    0.08 
  -7  -6  -4    6.11    0.79 
  -6  -6  -4    0.03    0.08 
  -5  -6  -4    2.70    0.27 
  -4  -6  -4   10.22    0.99 
  -3  -6  -4   22.65    1.90 
  -2  -6  -4   10.26    2.39 
  -1  -6  -4    1.22    0.27 
   0  -6  -4    0.40    0.12 
   1  -6  -4   36.44    6.76 
   2  -6  -4   11.56    1.59 
   3  -6  -4    2.51    0.39 
   4  -6  -4   -0.07    0.06 
   5  -6  -4    3.54    0.42 
   6  -6  -4   14.71    2.01 
   7  -6  -4    4.94    1.09 
   8  -6  -4   27.56    5.58 
   9  -6  -4    3.44    0.73 
  10  -6  -4    4.86    1.24 
  11  -6  -4   -0.09    0.26 
  -8  -5  -4    1.49    0.18 
  -7  -5  -4    1.57    0.25 
  -6  -5  -4    0.28    0.12 
  -5  -5  -4    0.78    0.11 
  -4  -5  -4    4.11    0.37 
  -3  -5  -4   15.89    1.53 
  -2  -5  -4   -0.01    0.07 
  -1  -5  -4    0.17    0.07 
   0  -5  -4   11.45    2.18 
   1  -5  -4   29.14    4.05 
   2  -5  -4   12.27    1.71 
   3  -5  -4    0.68    0.13 
   4  -5  -4   24.75    3.72 
   5  -5  -4   33.10    4.95 
   6  -5  -4    1.81    0.25 
   7  -5  -4    6.23    1.44 
   8  -5  -4   -0.01    0.18 
   9  -5  -4   14.40    2.81 
  10  -5  -4    3.20    0.70 
  11  -5  -4   -0.59    0.22 
  -8  -4  -4    1.04    0.35 
  -7  -4  -4    0.44    0.15 
  -6  -4  -4    6.33    0.80 
  -5  -4  -4   18.94    1.76 
  -4  -4  -4    3.06    0.26 
  -3  -4  -4    2.88    0.29 
  -2  -4  -4    1.84    0.32 
  -1  -4  -4    6.06    0.87 
   0  -4  -4   33.25    4.85 
   1  -4  -4    0.06    0.04 
   2  -4  -4    7.40    1.15 
   3  -4  -4    1.18    0.18 
   4  -4  -4   78.43   15.16 
   5  -4  -4    5.99    0.90 
   6  -4  -4    0.48    0.15 
   7  -4  -4    0.51    0.11 
   8  -4  -4    4.69    1.06 
   9  -4  -4    0.10    0.23 
  10  -4  -4    0.77    0.30 
  -8  -3  -4    0.75    0.31 
  -7  -3  -4    2.99    0.40 
  -6  -3  -4   15.11    1.55 
  -5  -3  -4    1.56    0.18 
  -4  -3  -4    1.60    0.15 
  -3  -3  -4    0.04    0.07 
  -2  -3  -4    3.86    0.59 
  -1  -3  -4    5.41    0.84 
   0  -3  -4   14.09    2.02 
   1  -3  -4   11.39    1.31 
   2  -3  -4    1.29    0.23 
   3  -3  -4    6.42    1.22 
   4  -3  -4    2.59    0.60 
   5  -3  -4   -0.02    0.06 
   6  -3  -4   20.83    2.56 
   7  -3  -4   16.24    1.96 
   8  -3  -4    4.98    1.05 
   9  -3  -4    1.57    0.37 
  -7  -2  -4    0.16    0.15 
  -6  -2  -4    5.84    0.64 
  -5  -2  -4    7.54    0.72 
  -4  -2  -4    7.68    0.64 
  -3  -2  -4    0.42    0.10 
  -2  -2  -4    2.98    0.50 
  -1  -2  -4   16.20    2.48 
   0  -2  -4   14.25    2.02 
   1  -2  -4    3.39    0.47 
   2  -2  -4    4.62    0.64 
   3  -2  -4   21.98    4.22 
   4  -2  -4    2.13    0.47 
   5  -2  -4    1.13    0.29 
   6  -2  -4    2.88    0.48 
   7  -2  -4    9.66    1.31 
   8  -2  -4    6.18    1.46 
   9  -2  -4    1.72    0.44 
  -7  -1  -4    1.55    0.33 
  -6  -1  -4   26.78    2.76 
  -5  -1  -4    3.42    0.35 
  -4  -1  -4    3.59    0.34 
  -3  -1  -4    0.92    0.19 
  -2  -1  -4    6.92    1.07 
  -1  -1  -4    4.21    0.66 
   0  -1  -4    2.07    0.30 
   1  -1  -4    4.35    0.58 
   2  -1  -4    1.37    0.21 
   3  -1  -4   21.81    4.28 
   4  -1  -4   37.02    7.64 
   5  -1  -4   50.59   10.07 
   6  -1  -4    0.08    0.07 
   7  -1  -4    7.22    1.10 
   8  -1  -4    0.68    0.27 
  11  -1  -4    0.83    0.32 
  -7   0  -4    7.96    1.76 
  -6   0  -4   95.99    9.85 
  -5   0  -4   49.56    5.84 
  -4   0  -4    5.12    0.56 
  -3   0  -4   -0.02    0.06 
  -2   0  -4   27.20    4.02 
  -1   0  -4    3.32    0.45 
   0   0  -4  456.91   66.22 
   1   0  -4   31.82    4.79 
   2   0  -4    0.12    0.05 
   3   0  -4   19.02    2.73 
   4   0  -4   48.92    9.87 
   5   0  -4  357.69   75.30 
   6   0  -4   10.30    1.46 
   7   0  -4   27.17    3.78 
  11   0  -4    0.26    0.26 
  -7   1  -4    1.75    0.34 
  -6   1  -4   27.53    3.91 
  -5   1  -4    3.59    0.35 
  -4   1  -4    4.18    0.38 
  -3   1  -4    1.21    0.29 
  -2   1  -4    6.97    1.06 
  -1   1  -4    4.77    0.66 
   0   1  -4    2.28    0.30 
   1   1  -4    3.95    0.58 
   2   1  -4    1.33    0.21 
   3   1  -4   20.94    3.02 
   4   1  -4   37.64    7.64 
   5   1  -4   47.36   10.07 
   6   1  -4   -0.09    0.08 
   7   1  -4    8.46    1.56 
  10   1  -4    0.31    0.25 
  11   1  -4    0.83    0.33 
  -7   2  -4   -0.08    0.15 
  -6   2  -4    6.01    0.64 
  -5   2  -4    7.60    0.72 
  -4   2  -4    7.57    0.64 
  -3   2  -4    0.12    0.09 
  -2   2  -4    2.84    0.71 
  -1   2  -4   17.26    2.48 
   0   2  -4   13.72    2.01 
   1   2  -4    3.08    0.47 
   2   2  -4    4.41    0.64 
   3   2  -4   20.71    2.98 
   4   2  -4    2.39    0.47 
   5   2  -4    1.59    0.31 
   6   2  -4    2.78    0.68 
   7   2  -4    8.73    1.85 
   9   2  -4    1.04    0.38 
  10   2  -4    6.46    1.42 
  11   2  -4   -0.04    0.20 
  -7   3  -4    2.52    0.41 
  -6   3  -4   14.90    1.80 
  -5   3  -4    1.29    0.18 
  -4   3  -4    1.43    0.15 
  -3   3  -4    0.08    0.07 
  -2   3  -4    3.46    0.59 
  -1   3  -4    5.89    0.83 
   0   3  -4   13.87    2.02 
   1   3  -4   11.08    1.61 
   2   3  -4    1.31    0.23 
   3   3  -4    5.38    0.86 
   4   3  -4    2.91    0.43 
   5   3  -4    0.09    0.07 
   6   3  -4   21.21    3.13 
   7   3  -4   15.26    2.40 
   8   3  -4    4.38    1.04 
   9   3  -4    0.21    0.22 
  10   3  -4   -0.02    0.24 
  -8   4  -4    1.25    0.44 
  -7   4  -4    0.80    0.18 
  -6   4  -4    6.35    0.82 
  -5   4  -4   18.57    1.76 
  -4   4  -4    3.06    0.26 
  -3   4  -4    2.84    0.29 
  -2   4  -4    1.73    0.31 
  -1   4  -4    5.56    0.87 
   0   4  -4   32.50    6.86 
   1   4  -4    0.08    0.05 
   2   4  -4    7.49    1.15 
   3   4  -4    1.05    0.18 
   4   4  -4   73.97   10.72 
   5   4  -4    5.79    0.90 
   6   4  -4    0.81    0.17 
   7   4  -4   -0.02    0.12 
   8   4  -4    4.06    1.06 
   9   4  -4    0.52    0.25 
  10   4  -4    0.30    0.23 
  -8   5  -4    1.48    0.25 
  -7   5  -4    1.66    0.28 
  -6   5  -4    0.45    0.15 
  -5   5  -4    0.78    0.12 
  -4   5  -4    4.11    0.38 
  -3   5  -4   16.26    1.53 
  -2   5  -4   -0.14    0.06 
  -1   5  -4    0.04    0.06 
   0   5  -4   10.59    2.18 
   1   5  -4   25.80    4.05 
   2   5  -4   11.11    1.71 
   3   5  -4    0.68    0.13 
   4   5  -4   25.35    3.72 
   5   5  -4   33.74    4.95 
   6   5  -4    1.73    0.31 
   7   5  -4    6.40    1.00 
   8   5  -4   -0.16    0.17 
   9   5  -4   14.82    2.79 
  -9   6  -4    0.23    0.11 
  -8   6  -4    0.02    0.10 
  -7   6  -4    6.57    0.82 
  -6   6  -4    0.12    0.12 
  -5   6  -4    2.33    0.25 
  -4   6  -4   10.24    0.91 
  -3   6  -4   20.77    1.90 
  -2   6  -4   11.39    1.70 
  -1   6  -4    1.15    0.19 
   0   6  -4    0.51    0.15 
   1   6  -4   31.63    6.77 
   2   6  -4   10.03    1.59 
   3   6  -4    2.59    0.39 
   4   6  -4    0.09    0.07 
   5   6  -4    2.98    0.51 
   6   6  -4   13.59    2.00 
   7   6  -4    4.82    0.77 
   8   6  -4   28.39    5.57 
   9   6  -4    3.24    0.66 
  11   6  -4   -0.07    0.19 
 -10   7  -4    0.32    0.13 
  -9   7  -4    7.10    0.52 
  -8   7  -4    0.41    0.11 
  -7   7  -4    1.79    0.26 
  -6   7  -4   -0.08    0.12 
  -5   7  -4    4.45    0.55 
  -4   7  -4    0.02    0.06 
  -3   7  -4    1.50    0.17 
  -2   7  -4   13.05    1.17 
  -1   7  -4    7.46    1.11 
   0   7  -4    3.61    0.91 
   1   7  -4   36.07    7.84 
   2   7  -4    0.03    0.06 
   3   7  -4    9.38    1.45 
   4   7  -4    1.79    0.22 
   5   7  -4    0.84    0.15 
   6   7  -4    4.52    0.68 
   7   7  -4    2.57    0.55 
   8   7  -4    0.36    0.23 
  10   7  -4    1.29    0.42 
  11   7  -4    0.22    0.22 
 -10   8  -4    2.49    0.25 
  -9   8  -4    0.51    0.10 
  -8   8  -4   -0.07    0.08 
  -7   8  -4    1.44    0.23 
  -6   8  -4    0.39    0.15 
  -5   8  -4    0.08    0.11 
  -4   8  -4    1.71    0.18 
  -3   8  -4    3.26    0.32 
  -2   8  -4   17.73    1.54 
  -1   8  -4    5.79    0.63 
   0   8  -4    3.14    0.41 
   1   8  -4   15.04    3.22 
   2   8  -4    0.33    0.10 
   3   8  -4    3.97    0.43 
   4   8  -4    5.13    0.55 
   5   8  -4   10.94    1.13 
   6   8  -4    1.46    0.26 
   7   8  -4    1.14    0.24 
   8   8  -4    3.11    0.68 
   9   8  -4    2.12    0.51 
  10   8  -4    5.96    1.44 
 -11   9  -4    0.38    0.10 
 -10   9  -4    3.89    0.33 
  -9   9  -4    1.52    0.16 
  -8   9  -4   -0.02    0.08 
  -7   9  -4    0.06    0.13 
  -6   9  -4    0.38    0.15 
  -5   9  -4    0.77    0.17 
  -4   9  -4    7.86    0.77 
  -3   9  -4   -0.03    0.06 
  -2   9  -4    0.37    0.07 
  -1   9  -4    2.11    0.20 
   0   9  -4    3.24    0.48 
   1   9  -4    5.06    0.76 
   2   9  -4   11.85    1.31 
   3   9  -4    4.86    0.56 
   4   9  -4    5.44    0.55 
   5   9  -4    0.73    0.13 
   6   9  -4    0.77    0.16 
   7   9  -4    1.17    0.25 
   8   9  -4   14.55    3.13 
   9   9  -4    0.44    0.26 
  10   9  -4    1.52    0.71 
 -11  10  -4    0.18    0.09 
 -10  10  -4    0.12    0.07 
  -9  10  -4    6.85    0.48 
  -8  10  -4   15.03    0.85 
  -7  10  -4    0.18    0.08 
  -6  10  -4   -0.20    0.11 
  -5  10  -4    3.54    0.49 
  -4  10  -4    1.65    0.25 
  -3  10  -4    7.04    0.64 
  -2  10  -4    0.51    0.09 
  -1  10  -4   12.32    1.17 
   0  10  -4    9.91    1.13 
   1  10  -4   16.29    1.84 
   2  10  -4  117.25   13.13 
   3  10  -4   25.32    2.84 
   4  10  -4    7.45    0.81 
   5  10  -4    3.36    0.37 
   6  10  -4    4.65    0.63 
   7  10  -4    4.05    0.81 
   8  10  -4    8.84    1.82 
   9  10  -4   -0.13    0.20 
  10  10  -4   -0.07    0.22 
 -10  11  -4    0.01    0.06 
  -9  11  -4    0.76    0.10 
  -8  11  -4   -0.03    0.07 
  -7  11  -4    0.10    0.07 
  -6  11  -4    0.56    0.19 
  -5  11  -4    3.76    0.61 
  -4  11  -4    0.51    0.15 
  -3  11  -4    6.93    0.72 
  -2  11  -4    2.44    0.27 
  -1  11  -4    5.29    0.60 
   0  11  -4    0.96    0.16 
   1  11  -4    4.77    0.57 
   2  11  -4    0.27    0.09 
   3  11  -4    2.79    0.35 
   4  11  -4   -0.13    0.07 
   5  11  -4   13.69    1.85 
   6  11  -4    1.88    0.42 
   7  11  -4    0.13    0.20 
   8  11  -4    0.01    0.21 
   9  11  -4    0.23    0.23 
  10  11  -4    0.32    0.25 
 -10  12  -4    1.12    0.10 
  -9  12  -4    0.04    0.07 
  -8  12  -4    0.17    0.08 
  -7  12  -4    4.08    0.25 
  -6  12  -4    0.65    0.10 
  -5  12  -4    2.25    0.38 
  -4  12  -4    0.69    0.20 
  -3  12  -4   -0.21    0.10 
  -2  12  -4    6.59    0.77 
  -1  12  -4    0.08    0.11 
   0  12  -4    0.60    0.14 
   1  12  -4    0.06    0.08 
   2  12  -4    0.05    0.08 
   3  12  -4    1.51    0.21 
   4  12  -4    3.77    0.63 
   5  12  -4    0.63    0.19 
   6  12  -4    1.13    0.35 
   7  12  -4    0.24    0.23 
   8  12  -4    0.42    0.25 
   9  12  -4    0.49    0.26 
 -10  13  -4    2.45    0.16 
  -9  13  -4    0.06    0.06 
  -8  13  -4    0.04    0.07 
  -7  13  -4    5.44    0.31 
  -6  13  -4    1.11    0.11 
  -5  13  -4    0.79    0.23 
  -4  13  -4    2.04    0.31 
  -3  13  -4    0.49    0.18 
  -2  13  -4    0.64    0.21 
  -1  13  -4    0.05    0.13 
   0  13  -4    0.27    0.15 
   1  13  -4    0.38    0.15 
   2  13  -4    0.03    0.11 
   3  13  -4    0.91    0.21 
   4  13  -4    0.18    0.12 
   5  13  -4    6.73    1.21 
   6  13  -4    1.96    0.46 
   7  13  -4    9.95    1.85 
   8  13  -4    6.99    1.53 
   9  13  -4    0.14    0.24 
  -9  14  -4    1.30    0.11 
  -8  14  -4    1.82    0.14 
  -7  14  -4    0.07    0.07 
  -6  14  -4    0.04    0.07 
  -5  14  -4    2.14    0.15 
  -4  14  -4    2.56    0.35 
  -3  14  -4    0.24    0.15 
  -2  14  -4    1.27    0.53 
  -1  14  -4    1.62    0.36 
   0  14  -4   -0.06    0.13 
   1  14  -4    1.98    0.31 
   2  14  -4    3.12    0.50 
   3  14  -4    6.46    0.90 
   4  14  -4    1.79    0.45 
   5  14  -4    3.87    0.77 
   6  14  -4    0.68    0.30 
   7  14  -4   13.72    2.87 
   8  14  -4    3.09    0.61 
   9  14  -4    0.14    0.29 
  11  14  -4    0.50    0.24 
  -9  15  -4    0.20    0.05 
  -8  15  -4    0.06    0.06 
  -7  15  -4    0.69    0.09 
  -6  15  -4    0.30    0.07 
  -5  15  -4    2.81    0.17 
  -4  15  -4    2.00    0.15 
  -3  15  -4    5.60    0.97 
  -2  15  -4    0.63    0.37 
  -1  15  -4    2.35    0.46 
   0  15  -4    0.11    0.15 
   1  15  -4    0.17    0.15 
   2  15  -4    0.09    0.13 
   3  15  -4    0.28    0.20 
   4  15  -4   11.56    2.31 
   5  15  -4    2.52    0.53 
   6  15  -4    1.32    0.28 
   7  15  -4   10.04    1.17 
   8  15  -4    1.48    0.33 
   9  15  -4    8.15    1.21 
  10  15  -4    0.00    0.24 
  11  15  -4    0.12    0.11 
  -8  16  -4    0.81    0.08 
  -7  16  -4    0.13    0.06 
  -6  16  -4    0.18    0.07 
  -5  16  -4    0.08    0.07 
  -4  16  -4    2.71    0.17 
  -3  16  -4    0.33    0.10 
  -2  16  -4   -0.27    0.27 
  -1  16  -4    0.42    0.21 
   0  16  -4    0.17    0.17 
   1  16  -4   -0.07    0.16 
   2  16  -4   -0.10    0.15 
   4  16  -4    0.04    0.18 
   5  16  -4    1.97    0.26 
   6  16  -4    3.71    0.44 
   7  16  -4   -0.08    0.13 
   8  16  -4   -0.08    0.19 
   9  16  -4    0.23    0.31 
  10  16  -4    0.32    0.16 
  -8  17  -4    0.32    0.05 
  -7  17  -4    0.91    0.08 
  -6  17  -4    1.24    0.11 
  -5  17  -4   -0.10    0.07 
  -4  17  -4    1.32    0.12 
  -3  17  -4    0.62    0.11 
  -2  17  -4    0.71    0.12 
  -1  17  -4    0.11    0.10 
   0  17  -4   -0.10    0.16 
   1  17  -4    0.16    0.18 
   2  17  -4    0.68    0.28 
   3  17  -4    0.36    0.13 
   4  17  -4    4.75    0.43 
   5  17  -4    1.20    0.20 
   6  17  -4    0.29    0.15 
   7  17  -4    0.99    0.26 
   8  17  -4    7.56    0.70 
   9  17  -4    1.15    0.24 
  10  17  -4    0.52    0.12 
  -7  18  -4    0.01    0.05 
  -6  18  -4    0.83    0.09 
  -5  18  -4    0.66    0.10 
  -4  18  -4    2.25    0.17 
  -3  18  -4    0.34    0.10 
  -2  18  -4    3.68    0.26 
  -1  18  -4    2.96    0.24 
   0  18  -4   -0.04    0.10 
   1  18  -4    0.20    0.13 
   2  18  -4    0.32    0.13 
   3  18  -4    1.07    0.16 
   4  18  -4    0.14    0.11 
   5  18  -4    0.09    0.12 
   6  18  -4    6.38    0.64 
   7  18  -4   11.55    1.20 
   8  18  -4    8.27    1.02 
   9  18  -4    0.82    0.15 
  -7  19  -4    0.19    0.05 
  -6  19  -4    0.05    0.06 
  -5  19  -4    1.56    0.13 
  -4  19  -4    0.30    0.09 
  -3  19  -4    4.14    0.33 
  -2  19  -4    0.07    0.09 
  -1  19  -4    0.15    0.11 
   0  19  -4    0.57    0.14 
   1  19  -4    0.28    0.13 
   2  19  -4   -0.01    0.12 
   3  19  -4   -0.05    0.11 
   4  19  -4    1.03    0.16 
   5  19  -4    0.23    0.13 
   6  19  -4    2.11    0.27 
   7  19  -4    0.01    0.11 
   8  19  -4    0.14    0.11 
  -6  20  -4    0.31    0.06 
  -5  20  -4    0.19    0.07 
  -4  20  -4    0.20    0.08 
  -3  20  -4    0.52    0.11 
  -2  20  -4    0.47    0.12 
  -1  20  -4    0.01    0.11 
   0  20  -4    0.80    0.18 
   1  20  -4    0.09    0.13 
   2  20  -4    0.28    0.14 
   3  20  -4    0.56    0.15 
   4  20  -4    0.44    0.15 
   5  20  -4    0.26    0.11 
   6  20  -4   -0.01    0.09 
   7  20  -4    0.00    0.09 
   8  20  -4    1.03    0.13 
  -5  21  -4    0.29    0.07 
  -4  21  -4    0.54    0.10 
  -3  21  -4    0.65    0.11 
  -2  21  -4   -0.07    0.09 
  -1  21  -4   -0.14    0.10 
   0  21  -4    1.36    0.24 
   1  21  -4    0.35    0.15 
   2  21  -4   -0.03    0.12 
   3  21  -4    0.74    0.15 
   4  21  -4    0.53    0.15 
   5  21  -4    1.53    0.19 
   6  21  -4    0.04    0.08 
   7  21  -4    0.84    0.12 
  -4  22  -4   -0.04    0.06 
  -3  22  -4    0.53    0.11 
  -2  22  -4    0.19    0.11 
  -1  22  -4    0.54    0.13 
   0  22  -4    0.23    0.12 
   1  22  -4    0.81    0.17 
   2  22  -4    5.66    0.54 
   3  22  -4    0.21    0.12 
   4  22  -4    0.79    0.15 
   5  22  -4    0.13    0.10 
   6  22  -4    0.68    0.12 
  -3  23  -4    0.12    0.07 
  -2  23  -4    0.20    0.09 
  -1  23  -4   -0.03    0.09 
   0  23  -4    0.07    0.10 
   1  23  -4    0.19    0.11 
   2  23  -4    0.31    0.11 
   3  23  -4    0.25    0.11 
   4  23  -4    0.34    0.10 
   5  23  -4    1.72    0.35 
  -1  24  -4    0.15    0.16 
   0  24  -4    0.68    0.11 
   1  24  -4    0.36    0.12 
   2  24  -4    0.22    0.11 
  -2 -24  -3    0.46    0.13 
  -1 -24  -3    0.96    0.13 
   0 -24  -3    2.36    0.31 
   1 -24  -3    0.48    0.10 
   2 -24  -3    0.09    0.08 
   3 -24  -3    0.35    0.10 
  -3 -23  -3    0.80    0.12 
  -2 -23  -3    1.32    0.17 
  -1 -23  -3    0.29    0.11 
   0 -23  -3    0.07    0.09 
   1 -23  -3    0.21    0.11 
   2 -23  -3    2.44    0.27 
   3 -23  -3    0.11    0.09 
   4 -23  -3    0.00    0.08 
   5 -23  -3   -0.05    0.08 
  -5 -22  -3   -0.06    0.06 
  -4 -22  -3    0.11    0.08 
  -3 -22  -3    0.23    0.10 
  -2 -22  -3    0.44    0.11 
  -1 -22  -3    0.59    0.15 
   0 -22  -3    0.37    0.12 
   1 -22  -3    1.02    0.18 
   2 -22  -3    0.22    0.11 
   3 -22  -3    1.61    0.22 
   4 -22  -3    0.97    0.16 
   5 -22  -3    0.36    0.11 
   6 -22  -3   -0.02    0.06 
  -6 -21  -3   -0.09    0.05 
  -5 -21  -3    0.01    0.07 
  -4 -21  -3    0.20    0.08 
  -3 -21  -3    0.00    0.08 
  -2 -21  -3    0.08    0.09 
  -1 -21  -3    0.32    0.12 
   0 -21  -3    0.39    0.13 
   1 -21  -3    0.32    0.15 
   2 -21  -3    3.20    0.32 
   3 -21  -3    0.42    0.14 
   4 -21  -3    0.10    0.11 
   5 -21  -3   -0.08    0.10 
   6 -21  -3    0.16    0.08 
   7 -21  -3    0.00    0.07 
  -7 -20  -3    0.07    0.06 
  -6 -20  -3    0.13    0.06 
  -5 -20  -3    1.82    0.15 
  -4 -20  -3    0.12    0.08 
  -3 -20  -3    0.02    0.08 
  -2 -20  -3    1.31    0.15 
  -1 -20  -3    0.09    0.11 
   0 -20  -3    0.46    0.14 
   1 -20  -3    0.02    0.12 
   2 -20  -3   -0.09    0.10 
   3 -20  -3    1.42    0.24 
   4 -20  -3    1.85    0.22 
   5 -20  -3    6.30    0.74 
   6 -20  -3    3.74    0.41 
   7 -20  -3    0.17    0.10 
   8 -20  -3    0.09    0.06 
  -7 -19  -3    2.59    0.17 
  -6 -19  -3    0.29    0.07 
  -5 -19  -3    1.42    0.13 
  -4 -19  -3    0.67    0.10 
  -3 -19  -3    0.42    0.09 
  -2 -19  -3    0.11    0.09 
  -1 -19  -3    0.58    0.13 
   0 -19  -3    0.48    0.14 
   1 -19  -3    0.14    0.13 
   2 -19  -3    0.49    0.12 
   3 -19  -3   -0.01    0.10 
   4 -19  -3    5.98    0.55 
   5 -19  -3    2.72    0.34 
   6 -19  -3    6.76    0.71 
   7 -19  -3    3.68    0.57 
   8 -19  -3    0.14    0.10 
   9 -19  -3    0.07    0.07 
  -8 -18  -3    0.14    0.04 
  -7 -18  -3    0.21    0.05 
  -6 -18  -3    0.01    0.06 
  -5 -18  -3    0.10    0.08 
  -4 -18  -3    0.06    0.08 
  -3 -18  -3    2.23    0.16 
  -2 -18  -3    0.06    0.10 
  -1 -18  -3   -0.18    0.10 
   0 -18  -3    0.86    0.15 
   1 -18  -3   -0.04    0.11 
   2 -18  -3    0.14    0.10 
   3 -18  -3    1.15    0.17 
   4 -18  -3    1.67    0.24 
   5 -18  -3    0.13    0.12 
   6 -18  -3    0.26    0.13 
   7 -18  -3    2.64    0.45 
   8 -18  -3    0.10    0.12 
   9 -18  -3    0.25    0.11 
  -8 -17  -3    1.89    0.12 
  -7 -17  -3    5.60    0.28 
  -6 -17  -3    0.01    0.06 
  -5 -17  -3    0.20    0.07 
  -4 -17  -3    0.38    0.08 
  -3 -17  -3    0.18    0.09 
  -2 -17  -3    1.20    0.15 
  -1 -17  -3    0.55    0.33 
   0 -17  -3    2.45    0.60 
   1 -17  -3   -0.46    0.21 
   2 -17  -3    0.20    0.17 
   3 -17  -3    5.52    0.83 
   4 -17  -3    0.19    0.13 
   5 -17  -3    0.06    0.14 
   6 -17  -3    6.73    1.14 
   7 -17  -3    6.50    1.07 
   8 -17  -3   -0.17    0.16 
   9 -17  -3   -0.06    0.20 
  10 -17  -3    0.21    0.12 
  -9 -16  -3    0.00    0.04 
  -8 -16  -3    0.11    0.06 
  -7 -16  -3    1.78    0.12 
  -6 -16  -3   -0.02    0.06 
  -5 -16  -3    0.02    0.06 
  -4 -16  -3    0.03    0.08 
  -3 -16  -3    0.07    0.28 
  -2 -16  -3    0.30    0.30 
  -1 -16  -3    1.71    0.52 
   0 -16  -3    1.19    0.43 
   1 -16  -3    0.59    0.19 
   2 -16  -3    0.10    0.15 
   3 -16  -3    0.31    0.18 
   4 -16  -3    3.93    0.98 
   5 -16  -3   11.33    1.53 
   6 -16  -3    2.79    0.46 
   7 -16  -3    0.64    0.22 
   8 -16  -3    0.97    0.36 
   9 -16  -3    0.19    0.24 
  10 -16  -3    0.18    0.14 
  -9 -15  -3   -0.05    0.05 
  -8 -15  -3    0.11    0.06 
  -7 -15  -3    1.80    0.13 
  -6 -15  -3    2.94    0.16 
  -5 -15  -3    0.40    0.07 
  -4 -15  -3    2.47    0.49 
  -3 -15  -3    0.36    0.20 
  -2 -15  -3    0.74    0.38 
  -1 -15  -3    0.22    0.23 
   0 -15  -3    1.57    0.50 
   1 -15  -3    0.23    0.14 
   2 -15  -3    1.71    0.30 
   3 -15  -3    0.61    0.21 
   4 -15  -3    0.76    0.30 
   5 -15  -3    1.72    0.45 
   6 -15  -3    8.16    1.38 
   7 -15  -3    1.45    0.26 
   8 -15  -3    1.31    0.23 
 -10 -14  -3    0.50    0.06 
  -9 -14  -3    1.43    0.11 
  -8 -14  -3    0.56    0.09 
  -7 -14  -3    0.36    0.07 
  -6 -14  -3    0.27    0.07 
  -5 -14  -3    1.05    0.23 
  -4 -14  -3    5.74    0.73 
  -3 -14  -3    3.03    0.53 
  -2 -14  -3    0.70    0.28 
  -1 -14  -3    0.71    0.33 
   0 -14  -3    0.15    0.22 
   1 -14  -3    3.53    0.62 
   2 -14  -3    0.43    0.16 
   3 -14  -3    1.31    0.26 
   4 -14  -3    0.43    0.24 
   5 -14  -3    3.04    0.88 
   6 -14  -3    0.14    0.15 
   7 -14  -3    1.17    0.29 
   8 -14  -3    0.31    0.20 
 -10 -13  -3    0.15    0.05 
  -9 -13  -3    3.84    0.22 
  -8 -13  -3    2.19    0.15 
  -7 -13  -3    1.99    0.13 
  -6 -13  -3    4.56    0.22 
  -5 -13  -3    0.66    0.15 
  -4 -13  -3    6.18    0.64 
  -3 -13  -3   -0.06    0.10 
  -2 -13  -3   -0.10    0.11 
  -1 -13  -3    0.52    0.16 
   0 -13  -3    3.91    0.62 
   1 -13  -3    3.21    0.61 
   2 -13  -3    1.61    0.29 
   3 -13  -3    1.71    0.32 
   4 -13  -3    0.23    0.19 
   5 -13  -3   -0.25    0.14 
   6 -13  -3    9.16    1.88 
   7 -13  -3    8.17    1.75 
   8 -13  -3    2.03    0.45 
   9 -13  -3   -0.03    0.15 
 -10 -12  -3    0.65    0.08 
  -9 -12  -3    0.25    0.07 
  -8 -12  -3    0.36    0.07 
  -7 -12  -3    0.16    0.07 
  -6 -12  -3    3.76    0.41 
  -5 -12  -3    4.41    0.46 
  -4 -12  -3    3.79    0.43 
  -3 -12  -3    5.82    0.59 
  -2 -12  -3    0.92    0.13 
  -1 -12  -3    5.08    0.83 
   0 -12  -3   21.38    2.75 
   1 -12  -3    3.64    0.62 
   2 -12  -3    0.19    0.11 
   3 -12  -3    2.08    0.28 
   4 -12  -3    1.00    0.20 
   5 -12  -3    0.56    0.24 
   6 -12  -3    0.18    0.22 
   7 -12  -3    0.09    0.23 
   8 -12  -3    4.47    0.69 
   9 -12  -3   -0.14    0.15 
 -11 -11  -3    0.14    0.05 
 -10 -11  -3    0.16    0.06 
  -9 -11  -3    1.07    0.11 
  -8 -11  -3    0.23    0.07 
  -7 -11  -3    0.21    0.07 
  -6 -11  -3   -0.04    0.10 
  -5 -11  -3    9.97    1.07 
  -4 -11  -3   -0.06    0.08 
  -3 -11  -3    1.13    0.15 
  -2 -11  -3    6.98    0.67 
  -1 -11  -3    1.74    0.26 
   0 -11  -3    0.03    0.06 
   1 -11  -3   14.19    1.84 
   2 -11  -3   -0.02    0.07 
   3 -11  -3    0.50    0.11 
   4 -11  -3    3.19    0.49 
   5 -11  -3    1.50    0.31 
   6 -11  -3    1.56    0.37 
   7 -11  -3    5.42    1.03 
   8 -11  -3   -0.14    0.23 
   9 -11  -3    2.43    0.41 
  10 -11  -3    1.71    0.60 
 -11 -10  -3    0.56    0.08 
 -10 -10  -3    0.50    0.08 
  -9 -10  -3   -0.03    0.07 
  -8 -10  -3    0.08    0.07 
  -7 -10  -3    1.13    0.23 
  -6 -10  -3    0.61    0.14 
  -5 -10  -3    9.64    1.01 
  -4 -10  -3    0.40    0.10 
  -3 -10  -3    1.82    0.21 
  -2 -10  -3    2.69    0.27 
  -1 -10  -3    1.43    0.16 
   0 -10  -3    1.65    0.23 
   1 -10  -3   29.91    3.24 
   2 -10  -3   34.09    3.63 
   3 -10  -3    0.21    0.09 
   4 -10  -3    0.24    0.11 
   5 -10  -3    0.09    0.11 
   6 -10  -3    0.53    0.23 
   7 -10  -3    0.23    0.23 
   8 -10  -3    7.57    1.54 
   9 -10  -3    5.80    1.49 
  10 -10  -3    1.00    0.38 
 -11  -9  -3    0.06    0.06 
 -10  -9  -3    0.40    0.09 
  -9  -9  -3    1.63    0.13 
  -8  -9  -3    0.94    0.10 
  -7  -9  -3    0.01    0.11 
  -6  -9  -3    0.57    0.14 
  -5  -9  -3    0.14    0.08 
  -4  -9  -3    2.91    0.29 
  -3  -9  -3   54.42    5.11 
  -2  -9  -3   10.92    1.03 
  -1  -9  -3   11.68    1.82 
   0  -9  -3   11.28    2.45 
   1  -9  -3   10.87    1.55 
   2  -9  -3    3.25    0.41 
   3  -9  -3    0.80    0.16 
   4  -9  -3    1.06    0.19 
   5  -9  -3    3.96    0.57 
   6  -9  -3    7.19    1.11 
   7  -9  -3    0.88    0.32 
   8  -9  -3   14.68    3.13 
   9  -9  -3    1.86    0.53 
  10  -9  -3    1.75    0.52 
 -11  -8  -3    0.46    0.12 
 -10  -8  -3    0.36    0.10 
  -9  -8  -3    1.13    0.12 
  -8  -8  -3    1.24    0.11 
  -7  -8  -3    0.21    0.12 
  -6  -8  -3    3.00    0.35 
  -5  -8  -3    0.02    0.06 
  -4  -8  -3    6.79    0.67 
  -3  -8  -3    2.14    0.23 
  -2  -8  -3    3.02    0.32 
  -1  -8  -3   19.30    4.39 
   0  -8  -3   67.83   14.27 
   1  -8  -3    2.30    0.35 
   2  -8  -3    1.13    0.17 
   3  -8  -3    4.27    0.51 
   4  -8  -3    1.28    0.23 
   5  -8  -3    0.08    0.10 
   6  -8  -3    0.12    0.11 
   7  -8  -3   -0.05    0.17 
   8  -8  -3    5.62    1.08 
  10  -8  -3    4.78    0.96 
 -10  -7  -3    2.74    0.29 
  -9  -7  -3    1.54    0.14 
  -8  -7  -3    0.62    0.17 
  -7  -7  -3    1.31    0.21 
  -6  -7  -3    0.43    0.11 
  -5  -7  -3    3.48    0.32 
  -4  -7  -3    4.19    0.43 
  -3  -7  -3    0.84    0.11 
  -2  -7  -3   20.15    4.53 
  -1  -7  -3    1.36    0.33 
   0  -7  -3    6.46    0.93 
   1  -7  -3    9.33    1.32 
   2  -7  -3    6.47    0.87 
   3  -7  -3   10.75    1.47 
   4  -7  -3    2.36    0.30 
   5  -7  -3    2.27    0.40 
   6  -7  -3    0.12    0.11 
   7  -7  -3   -0.03    0.16 
  10  -7  -3    1.99    0.70 
  -9  -6  -3    3.27    0.29 
  -8  -6  -3    0.11    0.13 
  -7  -6  -3    4.66    0.62 
  -6  -6  -3    0.17    0.09 
  -5  -6  -3    1.12    0.15 
  -4  -6  -3   12.46    1.13 
  -3  -6  -3   20.48    2.20 
  -2  -6  -3   12.25    2.92 
  -1  -6  -3    0.77    0.19 
   0  -6  -3    0.24    0.07 
   1  -6  -3   73.71   10.35 
   2  -6  -3   44.14    6.01 
   3  -6  -3    0.07    0.06 
   4  -6  -3    2.73    0.38 
   5  -6  -3    2.75    0.34 
   6  -6  -3    1.63    0.28 
   7  -6  -3   10.54    1.46 
  10  -6  -3    0.59    0.32 
  11  -6  -3    0.12    0.25 
  -8  -5  -3    2.84    0.40 
  -7  -5  -3    2.35    0.43 
  -6  -5  -3    4.48    0.43 
  -5  -5  -3    0.71    0.11 
  -4  -5  -3    3.70    0.38 
  -3  -5  -3   12.99    2.72 
  -2  -5  -3   11.75    1.77 
  -1  -5  -3    0.13    0.10 
   0  -5  -3    4.85    0.72 
   1  -5  -3   28.40    4.03 
   2  -5  -3   48.08    6.90 
   3  -5  -3    0.07    0.05 
   4  -5  -3   36.09    5.29 
   5  -5  -3    7.52    1.17 
   6  -5  -3   10.59    1.50 
   7  -5  -3    1.04    0.34 
   9  -5  -3    2.88    0.70 
  10  -5  -3    2.43    0.51 
  -8  -4  -3    3.08    0.50 
  -7  -4  -3    9.32    1.34 
  -6  -4  -3    7.47    0.67 
  -5  -4  -3   13.98    1.22 
  -4  -4  -3    0.41    0.07 
  -3  -4  -3    1.82    0.31 
  -2  -4  -3   20.41    3.10 
  -1  -4  -3    0.06    0.05 
   0  -4  -3   26.23    3.00 
   1  -4  -3    0.26    0.06 
   2  -4  -3    0.85    0.14 
   3  -4  -3    7.57    1.15 
   4  -4  -3    1.87    0.31 
   5  -4  -3   10.52    1.58 
   6  -4  -3   14.22    2.08 
   7  -4  -3   -0.07    0.15 
   9  -4  -3   16.67    3.21 
  10  -4  -3    8.67    2.21 
  -7  -3  -3    0.20    0.12 
  -6  -3  -3    0.56    0.12 
  -5  -3  -3   24.99    2.32 
  -4  -3  -3   35.72    4.36 
  -3  -3  -3   13.31    2.16 
  -2  -3  -3   29.57    4.49 
  -1  -3  -3    0.93    0.16 
   0  -3  -3  101.76   11.61 
   1  -3  -3    9.23    1.12 
   2  -3  -3   72.69   13.57 
   3  -3  -3    0.20    0.08 
   4  -3  -3   -0.16    0.06 
   5  -3  -3    7.19    1.67 
   6  -3  -3   11.22    1.61 
   7  -3  -3    4.99    0.75 
   9  -3  -3   31.64    6.74 
  -7  -2  -3    2.06    0.57 
  -6  -2  -3    0.29    0.09 
  -5  -2  -3    4.42    0.41 
  -4  -2  -3    3.16    0.54 
  -3  -2  -3    5.56    0.84 
  -2  -2  -3    4.59    0.64 
  -1  -2  -3   19.70    3.05 
   0  -2  -3    5.53    0.85 
   1  -2  -3    5.92    0.81 
   2  -2  -3   25.70    5.16 
   3  -2  -3  236.27   46.72 
   4  -2  -3    0.79    0.24 
   5  -2  -3   12.49    2.47 
   6  -2  -3   32.75    6.73 
   7  -2  -3   49.10    7.77 
   8  -2  -3    5.60    1.27 
   9  -2  -3    0.03    0.21 
  -6  -1  -3    3.98    0.53 
  -5  -1  -3    0.06    0.05 
  -4  -1  -3   30.05    4.57 
  -3  -1  -3    0.60    0.11 
  -2  -1  -3    0.01    0.06 
  -1  -1  -3   37.97    5.62 
   0  -1  -3   53.34    7.60 
   1  -1  -3   -0.08    0.04 
   2  -1  -3   21.79    3.04 
   3  -1  -3  137.62   27.81 
   4  -1  -3   30.07    5.90 
   5  -1  -3   87.74   18.17 
   6  -1  -3    0.66    0.22 
   7  -1  -3    1.37    0.36 
   8  -1  -3    4.57    0.68 
  -6   0  -3    0.03    0.08 
  -5   0  -3    0.13    0.07 
  -4   0  -3    0.09    0.06 
  -3   0  -3    0.14    0.08 
  -2   0  -3   -0.02    0.06 
  -1   0  -3   -0.02    0.05 
   0   0  -3   -0.05    0.03 
   1   0  -3    0.00    0.04 
   2   0  -3   -0.02    0.03 
   3   0  -3    0.04    0.03 
   4   0  -3   -0.08    0.08 
   5   0  -3   -0.07    0.06 
   6   0  -3    0.06    0.10 
   7   0  -3    0.08    0.08 
   8   0  -3    0.16    0.14 
  11   0  -3    0.13    0.23 
  -6   1  -3    4.11    0.46 
  -5   1  -3    0.15    0.06 
  -4   1  -3   32.49    4.58 
  -3   1  -3    0.28    0.08 
  -2   1  -3    0.08    0.05 
  -1   1  -3   38.16    5.62 
   0   1  -3   52.88    7.60 
   1   1  -3   -0.04    0.04 
   2   1  -3   18.47    4.30 
   3   1  -3  137.83   19.66 
   4   1  -3   29.41    5.91 
   5   1  -3   84.06   18.18 
   6   1  -3    1.27    0.26 
   7   1  -3    1.69    0.38 
   8   1  -3    4.43    0.96 
  -7   2  -3    2.66    0.63 
  -6   2  -3    0.44    0.10 
  -5   2  -3    4.45    0.41 
  -4   2  -3    3.79    0.54 
  -3   2  -3    5.54    0.84 
  -2   2  -3    4.30    0.52 
  -1   2  -3   20.75    2.49 
   0   2  -3    5.90    0.85 
   1   2  -3    5.22    0.81 
   2   2  -3   24.60    3.65 
   3   2  -3  231.77   33.03 
   4   2  -3    1.21    0.18 
   5   2  -3   11.25    2.47 
   6   2  -3   33.08    6.74 
   7   2  -3   53.85   10.99 
  10   2  -3    2.18    0.59 
  -7   3  -3    0.07    0.14 
  -6   3  -3    0.68    0.15 
  -5   3  -3   24.55    2.12 
  -4   3  -3   35.97    4.36 
  -3   3  -3   13.95    2.16 
  -2   3  -3   30.33    4.49 
  -1   3  -3    0.88    0.12 
   0   3  -3   95.28   14.22 
   1   3  -3    9.00    1.37 
   2   3  -3   62.09    9.59 
   3   3  -3    0.11    0.05 
   4   3  -3   -0.01    0.06 
   5   3  -3    7.80    1.68 
   6   3  -3    9.76    2.27 
   7   3  -3    4.99    1.06 
   9   3  -3   29.25    6.72 
  -8   4  -3    2.52    0.51 
  -7   4  -3    8.59    1.36 
  -6   4  -3    6.79    0.68 
  -5   4  -3   12.50    1.12 
  -4   4  -3    0.39    0.08 
  -3   4  -3    1.96    0.31 
  -2   4  -3   20.69    3.10 
  -1   4  -3    0.03    0.06 
   0   4  -3   24.29    3.00 
   1   4  -3    0.26    0.06 
   2   4  -3    0.66    0.13 
   3   4  -3    7.85    1.15 
   4   4  -3    2.14    0.31 
   5   4  -3   10.66    2.23 
   6   4  -3   14.45    2.08 
   7   4  -3    0.34    0.13 
   8   4  -3   12.31    2.46 
   9   4  -3   13.96    3.19 
  -8   5  -3    2.39    0.44 
  -7   5  -3    2.74    0.39 
  -6   5  -3    4.26    0.43 
  -5   5  -3    0.73    0.11 
  -4   5  -3    3.74    0.35 
  -3   5  -3   12.71    1.92 
  -2   5  -3   11.60    1.77 
  -1   5  -3    0.25    0.08 
   0   5  -3    4.67    0.59 
   1   5  -3   26.63    5.70 
   2   5  -3   43.47    6.89 
   3   5  -3   -0.07    0.05 
   4   5  -3   35.23    5.29 
   5   5  -3    8.50    1.17 
   6   5  -3    9.71    1.49 
   7   5  -3    0.81    0.22 
   8   5  -3    0.63    0.26 
  -9   6  -3    2.80    0.29 
  -8   6  -3   -0.06    0.16 
  -7   6  -3    4.81    0.66 
  -6   6  -3    0.09    0.10 
  -5   6  -3    1.21    0.16 
  -4   6  -3   11.40    1.03 
  -3   6  -3   20.80    1.97 
  -2   6  -3   14.15    2.07 
  -1   6  -3    0.53    0.14 
   0   6  -3    0.18    0.07 
   1   6  -3   68.76   14.64 
   2   6  -3   38.68    6.01 
   3   6  -3    0.03    0.06 
   4   6  -3    2.11    0.38 
   5   6  -3    2.61    0.34 
   6   6  -3    1.49    0.27 
   7   6  -3    9.45    1.45 
  11   6  -3    0.02    0.17 
 -10   7  -3    2.68    0.29 
  -9   7  -3    1.21    0.15 
  -8   7  -3    0.89    0.23 
  -7   7  -3    1.38    0.25 
  -6   7  -3    0.50    0.13 
  -5   7  -3    2.45    0.32 
  -4   7  -3    4.31    0.39 
  -3   7  -3    0.69    0.10 
  -2   7  -3   21.17    3.20 
  -1   7  -3    1.19    0.24 
   0   7  -3    5.66    0.93 
   1   7  -3    8.12    1.87 
   2   7  -3    5.36    0.87 
   3   7  -3    9.49    1.47 
   4   7  -3    2.23    0.29 
   5   7  -3    2.47    0.31 
   6   7  -3    0.07    0.10 
  10   7  -3    2.43    0.67 
  11   7  -3    0.08    0.21 
 -11   8  -3    0.45    0.13 
 -10   8  -3    0.30    0.11 
  -9   8  -3    0.92    0.13 
  -8   8  -3    1.09    0.12 
  -7   8  -3    0.27    0.16 
  -6   8  -3    3.14    0.38 
  -5   8  -3   -0.05    0.08 
  -4   8  -3    6.85    0.62 
  -3   8  -3    2.03    0.22 
  -2   8  -3    3.11    0.30 
  -1   8  -3   21.00    3.11 
   0   8  -3   67.82   10.09 
   1   8  -3    1.99    0.50 
   2   8  -3    0.76    0.16 
   3   8  -3    4.08    0.51 
   4   8  -3    1.16    0.15 
   5   8  -3    0.20    0.07 
   6   8  -3    0.08    0.09 
   7   8  -3   -0.11    0.14 
   8   8  -3    4.32    1.04 
   9   8  -3    0.80    0.33 
  10   8  -3    3.86    0.88 
 -11   9  -3    0.21    0.08 
 -10   9  -3    0.57    0.11 
  -9   9  -3    1.24    0.13 
  -8   9  -3    0.70    0.11 
  -7   9  -3    0.04    0.15 
  -6   9  -3    0.79    0.17 
  -5   9  -3    0.01    0.10 
  -4   9  -3    2.60    0.30 
  -3   9  -3   53.61    4.67 
  -2   9  -3   10.69    0.87 
  -1   9  -3   12.25    1.49 
   0   9  -3   11.38    1.42 
   1   9  -3    9.53    2.20 
   2   9  -3    3.17    0.50 
   3   9  -3    0.70    0.11 
   4   9  -3    0.85    0.12 
   5   9  -3    3.52    0.40 
   6   9  -3    7.60    1.10 
   7   9  -3    0.77    0.29 
   8   9  -3   13.74    3.12 
   9   9  -3    1.21    0.45 
  10   9  -3    1.31    0.46 
 -11  10  -3    0.76    0.10 
 -10  10  -3    0.46    0.09 
  -9  10  -3    0.03    0.08 
  -8  10  -3   -0.03    0.07 
  -7  10  -3    1.95    0.29 
  -6  10  -3    0.33    0.14 
  -5  10  -3    9.11    1.02 
  -4  10  -3    0.76    0.12 
  -3  10  -3    1.98    0.20 
  -2  10  -3    2.45    0.25 
  -1  10  -3    1.33    0.15 
   0  10  -3    1.46    0.23 
   1  10  -3   33.74    3.74 
   2  10  -3   37.64    4.19 
   3  10  -3    0.28    0.08 
   4  10  -3    0.13    0.07 
   5  10  -3    0.21    0.08 
   6  10  -3    0.37    0.22 
   7  10  -3   -0.02    0.16 
   8  10  -3    8.04    1.53 
   9  10  -3    7.19    1.48 
  10  10  -3    0.54    0.32 
 -11  11  -3    0.10    0.06 
 -10  11  -3    0.24    0.07 
  -9  11  -3    0.79    0.11 
  -8  11  -3    0.10    0.08 
  -7  11  -3    0.13    0.08 
  -6  11  -3   -0.18    0.14 
  -5  11  -3    9.27    1.25 
  -4  11  -3    0.21    0.12 
  -3  11  -3    1.13    0.18 
  -2  11  -3    6.75    0.62 
  -1  11  -3    1.59    0.22 
   0  11  -3   -0.04    0.07 
   1  11  -3   16.42    1.85 
   2  11  -3    0.01    0.07 
   3  11  -3    0.31    0.10 
   4  11  -3    3.56    0.39 
   5  11  -3    1.83    0.30 
   6  11  -3    0.90    0.31 
   7  11  -3    4.41    1.00 
   8  11  -3    0.03    0.18 
   9  11  -3    2.07    0.54 
 -10  12  -3    0.50    0.08 
  -9  12  -3    0.25    0.08 
  -8  12  -3    0.29    0.08 
  -7  12  -3    0.29    0.08 
  -6  12  -3    2.34    0.47 
  -5  12  -3    3.45    0.54 
  -4  12  -3    3.24    0.51 
  -3  12  -3    5.20    0.60 
  -2  12  -3    0.81    0.12 
  -1  12  -3    5.16    0.68 
   0  12  -3   23.93    2.76 
   1  12  -3    4.11    0.51 
   2  12  -3    0.01    0.07 
   3  12  -3    2.22    0.28 
   4  12  -3    0.83    0.19 
   5  12  -3    0.63    0.25 
   6  12  -3    0.30    0.22 
   7  12  -3   -0.03    0.17 
   8  12  -3    3.79    0.93 
   9  12  -3    0.16    0.20 
 -10  13  -3   -0.03    0.05 
  -9  13  -3    3.01    0.22 
  -8  13  -3    1.49    0.14 
  -7  13  -3    1.73    0.13 
  -6  13  -3    3.60    0.23 
  -5  13  -3    0.83    0.21 
  -4  13  -3    5.26    0.76 
  -3  13  -3   -0.03    0.11 
  -2  13  -3   -0.10    0.11 
  -1  13  -3    0.44    0.13 
   0  13  -3    3.43    0.50 
   1  13  -3    4.02    0.50 
   2  13  -3    1.49    0.22 
   3  13  -3    2.42    0.46 
   4  13  -3    0.00    0.13 
   5  13  -3   -0.13    0.15 
   6  13  -3   10.22    1.88 
   7  13  -3    9.94    1.75 
   8  13  -3    3.10    0.65 
   9  13  -3   -0.05    0.20 
 -10  14  -3    0.59    0.06 
  -9  14  -3    1.07    0.11 
  -8  14  -3    0.52    0.08 
  -7  14  -3    0.26    0.07 
  -6  14  -3    0.17    0.08 
  -5  14  -3    0.94    0.24 
  -4  14  -3    4.68    0.73 
  -3  14  -3    2.73    0.44 
  -2  14  -3    0.21    0.14 
  -1  14  -3    0.95    0.24 
   0  14  -3    0.38    0.16 
   1  14  -3    3.84    0.61 
   2  14  -3    0.39    0.16 
   3  14  -3    0.95    0.33 
   4  14  -3    0.36    0.22 
   5  14  -3    4.49    0.89 
   6  14  -3    0.11    0.18 
   7  14  -3    1.85    0.45 
   8  14  -3    0.54    0.19 
  -9  15  -3    0.02    0.05 
  -8  15  -3    0.02    0.06 
  -7  15  -3    1.52    0.13 
  -6  15  -3    2.62    0.16 
  -5  15  -3    0.31    0.07 
  -4  15  -3    1.85    0.49 
  -3  15  -3    0.42    0.17 
  -2  15  -3    0.83    0.28 
  -1  15  -3    0.08    0.16 
   0  15  -3    1.55    0.34 
   1  15  -3   -0.22    0.12 
   2  15  -3    1.27    0.38 
   3  15  -3    0.81    0.26 
   4  15  -3    0.80    0.28 
   5  15  -3    1.43    0.43 
   6  15  -3   11.35    1.39 
   7  15  -3    1.76    0.26 
   8  15  -3    0.77    0.24 
   9  15  -3    1.68    0.51 
  10  15  -3    0.93    0.30 
  11  15  -3    0.22    0.13 
  -9  16  -3    0.08    0.04 
  -8  16  -3    0.02    0.06 
  -7  16  -3    1.35    0.12 
  -6  16  -3    0.01    0.06 
  -5  16  -3    0.15    0.07 
  -4  16  -3   -0.07    0.08 
  -3  16  -3   -0.02    0.14 
  -2  16  -3    0.40    0.20 
  -1  16  -3    1.09    0.33 
   0  16  -3    1.08    0.29 
   1  16  -3    0.48    0.20 
   2  16  -3    0.39    0.25 
   3  16  -3    0.63    0.27 
   4  16  -3    5.03    0.97 
   5  16  -3   15.60    1.55 
   6  16  -3    4.02    0.49 
   7  16  -3    0.85    0.24 
   8  16  -3    0.10    0.34 
   9  16  -3    0.35    0.29 
  10  16  -3    0.58    0.23 
  -8  17  -3    1.59    0.11 
  -7  17  -3    4.67    0.28 
  -6  17  -3   -0.02    0.07 
  -5  17  -3    0.08    0.08 
  -4  17  -3    0.47    0.10 
  -3  17  -3    0.13    0.09 
  -2  17  -3    1.04    0.13 
  -1  17  -3    0.51    0.23 
   0  17  -3    1.91    0.40 
   1  17  -3    0.18    0.24 
   2  17  -3    0.23    0.22 
   3  17  -3    5.80    1.17 
   4  17  -3    0.01    0.12 
   5  17  -3   -0.02    0.13 
   6  17  -3   10.29    0.83 
   7  17  -3    9.91    1.60 
   8  17  -3    0.05    0.20 
   9  17  -3    0.13    0.15 
  10  17  -3    0.58    0.14 
  -8  18  -3    0.23    0.05 
  -7  18  -3    0.23    0.06 
  -6  18  -3    0.11    0.07 
  -5  18  -3   -0.02    0.08 
  -4  18  -3    0.05    0.09 
  -3  18  -3    2.04    0.17 
  -2  18  -3    0.21    0.10 
  -1  18  -3    0.17    0.10 
   0  18  -3    1.05    0.15 
   1  18  -3   -0.04    0.11 
   2  18  -3    0.04    0.12 
   3  18  -3    1.59    0.20 
   4  18  -3    2.48    0.27 
   5  18  -3    0.06    0.12 
   6  18  -3    0.55    0.16 
   7  18  -3    4.34    0.53 
   8  18  -3    0.23    0.17 
   9  18  -3    0.21    0.11 
  -7  19  -3    2.98    0.17 
  -6  19  -3    0.30    0.07 
  -5  19  -3    1.28    0.13 
  -4  19  -3    0.41    0.10 
  -3  19  -3    0.16    0.09 
  -2  19  -3    0.27    0.10 
  -1  19  -3    0.60    0.13 
   0  19  -3    0.37    0.13 
   1  19  -3   -0.05    0.11 
   2  19  -3   -0.09    0.11 
   3  19  -3    0.10    0.11 
   4  19  -3    6.86    0.57 
   5  19  -3    3.27    0.36 
   6  19  -3    7.24    0.85 
   7  19  -3    5.86    0.61 
   8  19  -3    0.12    0.11 
   9  19  -3    0.29    0.09 
  -7  20  -3    0.01    0.06 
  -6  20  -3   -0.05    0.06 
  -5  20  -3    2.07    0.16 
  -4  20  -3    0.11    0.08 
  -3  20  -3    0.02    0.10 
  -2  20  -3    1.30    0.17 
  -1  20  -3    0.06    0.11 
   0  20  -3    0.36    0.12 
   1  20  -3    0.09    0.12 
   2  20  -3    0.15    0.12 
   3  20  -3    2.10    0.21 
   4  20  -3    1.61    0.22 
   5  20  -3    7.68    0.67 
   6  20  -3    5.30    0.55 
   7  20  -3    0.40    0.11 
   8  20  -3    0.57    0.09 
  -6  21  -3   -0.08    0.05 
  -5  21  -3   -0.02    0.07 
  -4  21  -3    0.04    0.08 
  -3  21  -3   -0.08    0.09 
  -2  21  -3   -0.04    0.10 
  -1  21  -3    0.17    0.13 
   0  21  -3    0.70    0.15 
   1  21  -3    0.30    0.14 
   2  21  -3    2.48    0.35 
   3  21  -3    0.21    0.14 
   4  21  -3   -0.05    0.11 
   5  21  -3    0.21    0.10 
   6  21  -3    0.01    0.09 
   7  21  -3    0.10    0.08 
  -5  22  -3    0.07    0.06 
  -4  22  -3    0.14    0.07 
  -3  22  -3    0.41    0.10 
  -2  22  -3    0.20    0.12 
  -1  22  -3    0.36    0.14 
   0  22  -3    0.34    0.12 
   1  22  -3    0.96    0.18 
   2  22  -3    0.25    0.13 
   3  22  -3    1.75    0.23 
   4  22  -3    0.69    0.14 
   5  22  -3    0.49    0.12 
   6  22  -3    0.03    0.08 
  -4  23  -3    0.21    0.16 
  -3  23  -3    0.75    0.13 
  -2  23  -3    1.26    0.18 
  -1  23  -3    0.02    0.11 
   0  23  -3    0.04    0.09 
   1  23  -3    0.00    0.10 
   2  23  -3    2.20    0.27 
   3  23  -3    0.10    0.10 
   4  23  -3    0.20    0.11 
   5  23  -3    0.06    0.08 
  -2  24  -3    0.50    0.12 
  -1  24  -3    0.74    0.13 
   0  24  -3    2.38    0.33 
   1  24  -3    0.28    0.10 
   2  24  -3    0.03    0.08 
   3  24  -3    0.36    0.11 
  -2 -24  -2    0.08    0.09 
  -1 -24  -2   -0.06    0.08 
   0 -24  -2    0.15    0.09 
   1 -24  -2    0.00    0.08 
   2 -24  -2    0.58    0.10 
   3 -24  -2    1.54    0.23 
  -4 -23  -2    0.05    0.07 
  -3 -23  -2    0.21    0.10 
  -2 -23  -2    0.21    0.09 
  -1 -23  -2   -0.18    0.10 
   0 -23  -2    0.19    0.12 
   1 -23  -2    0.16    0.10 
   2 -23  -2   -0.25    0.09 
   3 -23  -2    1.27    0.19 
   4 -23  -2   -0.04    0.08 
   5 -23  -2   -0.07    0.07 
  -5 -22  -2    0.00    0.07 
  -4 -22  -2    0.10    0.08 
  -3 -22  -2    0.02    0.09 
  -2 -22  -2    1.08    0.13 
  -1 -22  -2   -0.03    0.12 
   0 -22  -2   -0.16    0.10 
   1 -22  -2    0.28    0.13 
   2 -22  -2    5.91    0.57 
   3 -22  -2    1.67    0.19 
   4 -22  -2    0.07    0.12 
   5 -22  -2    0.15    0.09 
   6 -22  -2    0.38    0.09 
  -6 -21  -2    0.04    0.06 
  -5 -21  -2   -0.04    0.06 
  -4 -21  -2    0.57    0.09 
  -3 -21  -2    0.39    0.11 
  -2 -21  -2    0.13    0.10 
  -1 -21  -2    0.04    0.12 
   0 -21  -2    0.22    0.13 
   1 -21  -2    0.46    0.14 
   2 -21  -2    3.59    0.34 
   3 -21  -2    3.01    0.32 
   4 -21  -2    0.31    0.12 
   5 -21  -2    0.62    0.14 
   6 -21  -2    0.95    0.15 
   7 -21  -2    0.21    0.07 
  -7 -20  -2    0.06    0.05 
  -6 -20  -2    0.13    0.06 
  -5 -20  -2    0.02    0.07 
  -4 -20  -2    0.02    0.08 
  -3 -20  -2   -0.10    0.09 
  -2 -20  -2    0.34    0.10 
  -1 -20  -2    0.95    0.13 
   0 -20  -2   -0.02    0.11 
   1 -20  -2   -0.01    0.11 
   2 -20  -2    0.02    0.10 
   3 -20  -2    0.25    0.12 
   4 -20  -2    1.72    0.20 
   5 -20  -2    1.72    0.23 
   6 -20  -2    1.18    0.19 
   7 -20  -2    0.51    0.13 
   8 -20  -2   -0.11    0.06 
  -8 -19  -2   -0.05    0.03 
  -7 -19  -2    0.02    0.05 
  -6 -19  -2   -0.06    0.06 
  -5 -19  -2    0.07    0.07 
  -4 -19  -2    0.01    0.08 
  -3 -19  -2    0.05    0.09 
  -2 -19  -2    1.11    0.15 
  -1 -19  -2   -0.14    0.10 
   0 -19  -2   -0.03    0.11 
   1 -19  -2    2.34    0.26 
   2 -19  -2    3.08    0.29 
   3 -19  -2    1.55    0.18 
   4 -19  -2    2.64    0.30 
   5 -19  -2    1.23    0.22 
   6 -19  -2    1.46    0.27 
   7 -19  -2    0.03    0.12 
   8 -19  -2    0.62    0.14 
  -8 -18  -2    3.88    0.22 
  -7 -18  -2    3.64    0.19 
  -6 -18  -2    0.22    0.07 
  -5 -18  -2   -0.03    0.07 
  -4 -18  -2    0.09    0.08 
  -3 -18  -2    0.95    0.12 
  -2 -18  -2    1.97    0.19 
  -1 -18  -2    0.20    0.11 
   0 -18  -2    0.38    0.13 
   1 -18  -2    0.35    0.15 
   2 -18  -2   44.90    3.78 
   3 -18  -2   23.41    2.02 
   4 -18  -2    3.08    0.36 
   5 -18  -2    0.10    0.14 
   6 -18  -2    0.62    0.18 
   7 -18  -2    0.17    0.21 
   8 -18  -2    0.11    0.12 
   9 -18  -2    0.04    0.10 
  -9 -17  -2    0.55    0.05 
  -8 -17  -2    0.36    0.06 
  -7 -17  -2    0.58    0.08 
  -6 -17  -2    0.26    0.06 
  -5 -17  -2    0.00    0.07 
  -4 -17  -2    0.29    0.08 
  -3 -17  -2    0.29    0.10 
  -2 -17  -2   -0.28    0.21 
  -1 -17  -2    0.32    0.31 
   0 -17  -2    0.07    0.27 
   1 -17  -2    9.57    1.96 
   2 -17  -2    1.02    0.28 
   3 -17  -2    8.17    1.19 
   4 -17  -2    1.18    0.24 
   5 -17  -2   -0.13    0.13 
   6 -17  -2   -0.05    0.13 
   7 -17  -2    0.03    0.19 
   8 -17  -2   -0.28    0.24 
   9 -17  -2    0.05    0.21 
  10 -17  -2    0.18    0.09 
  -9 -16  -2    0.42    0.06 
  -8 -16  -2    0.69    0.08 
  -7 -16  -2    0.49    0.07 
  -6 -16  -2    0.21    0.06 
  -5 -16  -2    4.87    0.25 
  -4 -16  -2    0.19    0.08 
  -3 -16  -2    4.90    0.65 
  -2 -16  -2    3.23    0.76 
  -1 -16  -2    1.93    0.58 
   0 -16  -2   10.78    2.52 
   1 -16  -2    6.31    1.51 
   2 -16  -2    1.85    0.34 
   3 -16  -2    4.66    0.73 
   4 -16  -2    1.36    0.35 
   5 -16  -2    0.57    0.21 
   6 -16  -2    8.44    1.25 
   7 -16  -2    1.78    0.45 
   8 -16  -2    2.93    0.67 
  10 -16  -2    0.60    0.25 
 -10 -15  -2    0.42    0.06 
  -9 -15  -2    1.31    0.10 
  -8 -15  -2   -0.01    0.07 
  -7 -15  -2    0.05    0.07 
  -6 -15  -2    0.03    0.06 
  -5 -15  -2    4.84    0.24 
  -4 -15  -2    1.23    0.28 
  -3 -15  -2    4.65    0.82 
  -2 -15  -2    2.18    0.60 
  -1 -15  -2    2.59    0.72 
   0 -15  -2    0.44    0.24 
   1 -15  -2    3.18    0.52 
   2 -15  -2    1.41    0.32 
   3 -15  -2    7.34    1.19 
   4 -15  -2   26.54    5.50 
   5 -15  -2   -0.24    0.19 
   6 -15  -2    0.71    0.22 
   7 -15  -2    0.48    0.36 
   8 -15  -2    0.83    0.24 
  10 -15  -2    0.15    0.22 
 -10 -14  -2    0.44    0.06 
  -9 -14  -2    1.00    0.10 
  -8 -14  -2    4.52    0.23 
  -7 -14  -2    0.86    0.09 
  -6 -14  -2    0.07    0.06 
  -5 -14  -2    3.92    0.47 
  -4 -14  -2    2.37    0.33 
  -3 -14  -2    1.46    0.31 
  -2 -14  -2    1.26    0.25 
  -1 -14  -2    1.30    0.41 
   0 -14  -2    1.53    0.53 
   1 -14  -2    0.15    0.12 
   2 -14  -2   20.69    2.52 
   3 -14  -2   19.82    3.00 
   4 -14  -2    0.67    0.33 
   5 -14  -2    0.02    0.18 
   6 -14  -2    0.29    0.23 
   7 -14  -2    0.05    0.23 
   8 -14  -2    4.84    1.18 
 -10 -13  -2   -0.08    0.05 
  -9 -13  -2    0.65    0.09 
  -8 -13  -2    2.81    0.16 
  -7 -13  -2    0.93    0.09 
  -6 -13  -2    2.27    0.33 
  -5 -13  -2    1.16    0.18 
  -4 -13  -2    2.80    0.34 
  -3 -13  -2    3.89    0.42 
  -2 -13  -2   -0.07    0.08 
  -1 -13  -2   -0.03    0.15 
   0 -13  -2    1.64    0.55 
   1 -13  -2   13.60    1.64 
   2 -13  -2    0.78    0.15 
   3 -13  -2    1.27    0.21 
   4 -13  -2   -0.19    0.15 
   5 -13  -2    1.89    0.62 
   6 -13  -2    0.54    0.23 
   7 -13  -2    0.93    0.32 
   8 -13  -2    6.02    1.52 
   9 -13  -2    0.64    0.20 
 -11 -12  -2    0.39    0.06 
 -10 -12  -2    0.10    0.06 
  -9 -12  -2    0.31    0.08 
  -8 -12  -2    0.04    0.07 
  -7 -12  -2   -0.16    0.06 
  -6 -12  -2    5.47    0.59 
  -5 -12  -2    6.06    0.67 
  -4 -12  -2    1.44    0.21 
  -3 -12  -2    0.23    0.07 
  -2 -12  -2    0.21    0.08 
  -1 -12  -2    3.15    0.60 
   0 -12  -2    4.65    0.80 
   1 -12  -2    4.78    0.60 
   2 -12  -2    2.90    0.39 
   3 -12  -2    0.02    0.08 
   4 -12  -2    2.17    0.40 
   5 -12  -2    0.60    0.31 
   6 -12  -2    7.99    1.52 
   7 -12  -2    3.82    0.78 
   8 -12  -2    0.27    0.25 
   9 -12  -2    0.68    0.36 
 -11 -11  -2    1.65    0.14 
 -10 -11  -2    0.48    0.08 
  -9 -11  -2    0.11    0.07 
  -8 -11  -2    0.08    0.07 
  -7 -11  -2    0.14    0.12 
  -6 -11  -2    1.32    0.19 
  -5 -11  -2    2.97    0.37 
  -4 -11  -2   10.68    1.02 
  -3 -11  -2    0.56    0.10 
  -2 -11  -2   11.04    1.02 
  -1 -11  -2    0.11    0.07 
   0 -11  -2    3.76    0.45 
   1 -11  -2    3.66    0.46 
   2 -11  -2    5.48    0.69 
   3 -11  -2    0.83    0.16 
   4 -11  -2    0.95    0.19 
   5 -11  -2    0.46    0.15 
   6 -11  -2    0.26    0.20 
   7 -11  -2    1.72    0.52 
   8 -11  -2    1.11    0.41 
   9 -11  -2    7.13    1.49 
 -11 -10  -2    0.07    0.06 
 -10 -10  -2    0.37    0.08 
  -9 -10  -2    1.39    0.11 
  -8 -10  -2    0.22    0.07 
  -7 -10  -2    2.27    0.34 
  -6 -10  -2   -0.13    0.08 
  -5 -10  -2    0.76    0.14 
  -4 -10  -2   36.05    3.35 
  -3 -10  -2    4.59    0.44 
  -2 -10  -2   11.90    1.15 
  -1 -10  -2    3.68    0.52 
   0 -10  -2    2.96    0.39 
   1 -10  -2   10.01    1.06 
   2 -10  -2    2.28    0.28 
   3 -10  -2    3.26    0.39 
   4 -10  -2    0.60    0.15 
   5 -10  -2    0.90    0.19 
   6 -10  -2    0.25    0.20 
   7 -10  -2    0.04    0.19 
   8 -10  -2   19.79    4.01 
   9 -10  -2    5.64    1.47 
  10 -10  -2    0.34    0.25 
 -11  -9  -2    1.16    0.12 
 -10  -9  -2    0.16    0.08 
  -9  -9  -2    2.10    0.15 
  -8  -9  -2    1.25    0.11 
  -7  -9  -2    0.08    0.11 
  -6  -9  -2    0.00    0.09 
  -5  -9  -2    0.97    0.14 
  -4  -9  -2    2.10    0.23 
  -3  -9  -2   40.23    3.80 
  -2  -9  -2    4.53    0.51 
  -1  -9  -2    0.15    0.08 
   0  -9  -2   20.38    2.87 
   1  -9  -2   37.26    5.33 
   2  -9  -2    1.59    0.38 
   3  -9  -2    5.39    0.72 
   4  -9  -2   -0.01    0.08 
   5  -9  -2    3.66    0.49 
   6  -9  -2    0.68    0.16 
   7  -9  -2    0.20    0.19 
   8  -9  -2   12.66    2.75 
  10  -9  -2    0.25    0.27 
 -11  -8  -2    0.96    0.13 
 -10  -8  -2    1.28    0.14 
  -9  -8  -2    0.13    0.07 
  -8  -8  -2    0.20    0.13 
  -7  -8  -2    0.08    0.10 
  -6  -8  -2    1.27    0.18 
  -5  -8  -2    3.32    0.34 
  -4  -8  -2    0.07    0.06 
  -3  -8  -2   12.16    1.16 
  -2  -8  -2    7.55    1.81 
  -1  -8  -2   71.68   11.19 
   0  -8  -2   61.31    8.91 
   1  -8  -2   29.41    4.07 
   2  -8  -2   -0.07    0.05 
   3  -8  -2    8.66    1.65 
   4  -8  -2   18.58    2.50 
   5  -8  -2    0.68    0.17 
   6  -8  -2   -0.01    0.10 
   7  -8  -2    0.92    0.32 
   8  -8  -2    0.85    0.33 
  10  -8  -2    0.23    0.30 
 -11  -7  -2    0.16    0.14 
 -10  -7  -2    0.40    0.11 
  -9  -7  -2    0.20    0.08 
  -8  -7  -2    0.20    0.12 
  -7  -7  -2    1.19    0.20 
  -6  -7  -2    0.06    0.07 
  -5  -7  -2    2.33    0.26 
  -4  -7  -2   37.98    3.45 
  -3  -7  -2   17.20    3.94 
  -2  -7  -2    8.56    1.99 
  -1  -7  -2   64.24    9.76 
   0  -7  -2   20.94    3.00 
   1  -7  -2  102.47   13.98 
   2  -7  -2   13.89    1.91 
   3  -7  -2    0.30    0.08 
   4  -7  -2    0.53    0.13 
   5  -7  -2    3.17    0.54 
   6  -7  -2    0.62    0.16 
   7  -7  -2   -0.21    0.17 
   8  -7  -2    2.98    0.65 
  10  -7  -2   11.80    2.72 
 -10  -6  -2    0.39    0.19 
  -9  -6  -2    1.07    0.14 
  -8  -6  -2    5.11    0.61 
  -7  -6  -2    0.74    0.16 
  -6  -6  -2    1.47    0.17 
  -5  -6  -2    0.05    0.06 
  -4  -6  -2   18.17    1.71 
  -3  -6  -2    1.57    0.37 
  -2  -6  -2    0.70    0.17 
  -1  -6  -2   23.35    3.54 
   0  -6  -2   16.30    2.16 
   1  -6  -2    0.17    0.06 
   2  -6  -2    3.62    0.49 
   3  -6  -2    4.07    0.59 
   4  -6  -2    5.53    0.75 
   5  -6  -2    0.92    0.20 
   6  -6  -2    5.46    0.83 
   7  -6  -2   -0.07    0.12 
  10  -6  -2    0.29    0.32 
  11  -6  -2    4.10    0.94 
  -9  -5  -2    0.06    0.18 
  -8  -5  -2    0.11    0.11 
  -7  -5  -2    1.31    0.19 
  -6  -5  -2    7.74    0.78 
  -5  -5  -2    6.03    0.54 
  -4  -5  -2    3.33    0.43 
  -3  -5  -2   21.30    4.84 
  -2  -5  -2   46.41   10.19 
  -1  -5  -2  150.24   22.46 
   0  -5  -2  125.74   17.00 
   1  -5  -2    6.17    0.82 
   2  -5  -2   11.58    1.62 
   3  -5  -2    2.69    0.37 
   4  -5  -2    0.54    0.11 
   5  -5  -2    2.63    0.44 
   6  -5  -2    0.32    0.12 
   7  -5  -2   10.49    2.63 
  10  -5  -2    0.30    0.27 
  -8  -4  -2    0.02    0.17 
  -7  -4  -2    0.54    0.12 
  -6  -4  -2    0.30    0.08 
  -5  -4  -2    1.77    0.19 
  -4  -4  -2    1.43    0.34 
  -3  -4  -2    2.03    0.26 
  -2  -4  -2   33.33    4.92 
  -1  -4  -2   33.48    5.15 
   0  -4  -2  227.52   44.69 
   1  -4  -2   97.48   13.45 
   2  -4  -2    1.20    0.22 
   3  -4  -2    2.15    0.33 
   4  -4  -2   25.22    3.82 
   5  -4  -2   11.51    1.83 
   6  -4  -2    1.27    0.24 
   7  -4  -2    0.14    0.18 
  10  -4  -2    2.59    0.69 
  -7  -3  -2   11.14    1.70 
  -6  -3  -2   -0.08    0.06 
  -5  -3  -2    1.91    0.18 
  -4  -3  -2    7.67    1.16 
  -3  -3  -2    7.29    0.93 
  -2  -3  -2   18.97    2.62 
  -1  -3  -2    9.05    1.37 
   0  -3  -2   73.59   10.36 
   1  -3  -2   27.60    4.06 
   2  -3  -2   57.55   10.99 
   3  -3  -2    1.65    0.29 
   4  -3  -2    1.70    0.29 
   5  -3  -2    0.21    0.09 
   6  -3  -2   30.72    4.80 
   7  -3  -2    5.13    1.27 
  -7  -2  -2    0.15    0.15 
  -6  -2  -2    2.15    0.25 
  -5  -2  -2    3.10    0.36 
  -4  -2  -2    4.67    0.56 
  -3  -2  -2    5.45    0.70 
  -2  -2  -2    8.96    1.07 
  -1  -2  -2   16.19    2.38 
   0  -2  -2    5.87    0.69 
   1  -2  -2    1.79    0.23 
   2  -2  -2    0.15    0.07 
   3  -2  -2   52.02   10.95 
   4  -2  -2    5.62    1.37 
   5  -2  -2    3.39    0.73 
   6  -2  -2    1.25    0.29 
   7  -2  -2   -0.04    0.09 
  -6  -1  -2    0.22    0.11 
  -5  -1  -2    7.03    0.88 
  -4  -1  -2    0.99    0.12 
  -3  -1  -2   21.66    2.23 
  -2  -1  -2  117.88   16.43 
  -1  -1  -2  179.29   21.10 
   0  -1  -2   25.01    3.53 
   1  -1  -2   77.09   10.53 
   2  -1  -2  127.77   26.55 
   3  -1  -2   27.99    4.04 
   4  -1  -2   18.55    4.11 
   5  -1  -2   23.54    5.02 
   6  -1  -2    5.07    1.13 
   7  -1  -2    0.17    0.13 
  -5   0  -2   11.48    1.33 
  -4   0  -2   66.85    6.97 
  -3   0  -2   36.26    3.82 
  -2   0  -2    2.12    0.22 
  -1   0  -2  245.69   34.93 
   0   0  -2   20.70    2.83 
   1   0  -2  130.80   18.69 
   2   0  -2    0.80    0.12 
   3   0  -2   53.93    7.83 
   4   0  -2   69.50   10.02 
   5   0  -2  145.39   30.56 
   6   0  -2   82.20   16.50 
   7   0  -2    0.35    0.17 
   8   0  -2    0.02    0.14 
  -6   1  -2    0.31    0.12 
  -5   1  -2    7.66    0.89 
  -4   1  -2    0.97    0.12 
  -3   1  -2   22.05    2.24 
  -2   1  -2  112.15   13.41 
  -1   1  -2  179.49   21.10 
   0   1  -2   23.62    3.53 
   1   1  -2   66.42   14.90 
   2   1  -2  132.67   18.77 
   3   1  -2   27.14    4.04 
   4   1  -2   19.98    2.91 
   5   1  -2   23.55    5.03 
   6   1  -2    5.80    1.14 
   7   1  -2    0.65    0.17 
   8   1  -2    6.65    1.53 
  -6   2  -2    2.10    0.30 
  -5   2  -2    3.90    0.37 
  -4   2  -2    4.99    0.69 
  -3   2  -2    5.92    0.69 
  -2   2  -2    9.27    1.07 
  -1   2  -2   15.62    1.94 
   0   2  -2    5.36    0.69 
   1   2  -2    1.87    0.29 
   2   2  -2    0.23    0.06 
   3   2  -2   53.61    7.74 
   4   2  -2    6.70    0.97 
   5   2  -2    2.97    0.73 
   6   2  -2    0.91    0.29 
   7   2  -2   -0.05    0.11 
  -7   3  -2   12.56    1.40 
  -6   3  -2    0.03    0.07 
  -5   3  -2    1.78    0.18 
  -4   3  -2    7.79    1.16 
  -3   3  -2    7.94    1.14 
  -2   3  -2   17.13    2.14 
  -1   3  -2    8.71    1.37 
   0   3  -2   67.86    8.46 
   1   3  -2   26.05    4.06 
   2   3  -2   51.36    7.77 
   3   3  -2    1.77    0.29 
   4   3  -2    1.80    0.28 
   5   3  -2    0.43    0.09 
   6   3  -2   34.53    6.80 
   7   3  -2    5.65    1.26 
  -8   4  -2    0.14    0.21 
  -7   4  -2    0.36    0.15 
  -6   4  -2    0.27    0.09 
  -5   4  -2    1.87    0.18 
  -4   4  -2    1.35    0.23 
  -3   4  -2    1.80    0.31 
  -2   4  -2   33.74    4.92 
  -1   4  -2   34.35    5.15 
   0   4  -2  209.34   31.60 
   1   4  -2   89.91   19.02 
   2   4  -2    1.23    0.22 
   3   4  -2    2.33    0.33 
   4   4  -2   26.63    3.82 
   5   4  -2   12.57    1.83 
   6   4  -2    1.04    0.32 
   7   4  -2   -0.06    0.10 
  -9   5  -2    0.39    0.26 
  -8   5  -2    0.13    0.14 
  -7   5  -2    1.01    0.21 
  -6   5  -2    7.18    0.79 
  -5   5  -2    5.71    0.55 
  -4   5  -2    3.52    0.37 
  -3   5  -2   22.75    3.42 
  -2   5  -2   48.76    7.20 
  -1   5  -2  156.49   22.46 
   0   5  -2  111.83   17.00 
   1   5  -2    5.24    0.67 
   2   5  -2   10.43    1.62 
   3   5  -2    2.15    0.37 
   4   5  -2    0.54    0.11 
   5   5  -2    2.83    0.44 
   6   5  -2    0.30    0.11 
   7   5  -2   12.42    2.62 
  11   5  -2    0.45    0.21 
 -10   6  -2    0.91    0.25 
  -9   6  -2    0.52    0.15 
  -8   6  -2    4.34    0.64 
  -7   6  -2    0.71    0.19 
  -6   6  -2    1.28    0.20 
  -5   6  -2   -0.05    0.07 
  -4   6  -2   18.03    1.56 
  -3   6  -2    1.48    0.25 
  -2   6  -2    1.07    0.17 
  -1   6  -2   23.26    3.54 
   0   6  -2   14.70    2.16 
   1   6  -2    0.05    0.04 
   2   6  -2    3.16    0.49 
   3   6  -2    3.39    0.59 
   4   6  -2    4.61    0.75 
   5   6  -2    1.07    0.19 
   6   6  -2    5.12    1.15 
   7   6  -2    0.00    0.14 
  10   6  -2    0.84    0.29 
  11   6  -2    3.84    0.87 
 -11   7  -2    0.30    0.24 
 -10   7  -2    0.28    0.12 
  -9   7  -2   -0.04    0.10 
  -8   7  -2   -0.01    0.14 
  -7   7  -2    1.04    0.24 
  -6   7  -2    0.10    0.12 
  -5   7  -2    2.57    0.27 
  -4   7  -2   35.95    3.15 
  -3   7  -2   19.01    2.79 
  -2   7  -2    9.39    1.41 
  -1   7  -2   66.20    9.76 
   0   7  -2   19.94    3.00 
   1   7  -2   95.48   13.97 
   2   7  -2   12.71    1.91 
   3   7  -2    0.23    0.09 
   4   7  -2    0.31    0.09 
   5   7  -2    3.65    0.53 
   6   7  -2    0.42    0.19 
   9   7  -2   23.59    5.33 
  10   7  -2   10.16    2.68 
 -11   8  -2    0.73    0.15 
 -10   8  -2    1.09    0.14 
  -9   8  -2    0.00    0.08 
  -8   8  -2    0.37    0.16 
  -7   8  -2    0.06    0.13 
  -6   8  -2    1.25    0.24 
  -5   8  -2    3.34    0.35 
  -4   8  -2    0.16    0.07 
  -3   8  -2   12.55    1.07 
  -2   8  -2    8.65    1.28 
  -1   8  -2   76.03   11.19 
   0   8  -2   59.73    8.91 
   1   8  -2   25.80    5.76 
   2   8  -2   -0.01    0.08 
   3   8  -2    7.62    1.15 
   4   8  -2   16.10    2.03 
   5   8  -2    0.73    0.13 
   6   8  -2    0.07    0.08 
   7   8  -2    0.77    0.29 
   8   8  -2    0.47    0.26 
   9   8  -2    1.89    0.55 
  10   8  -2    0.15    0.22 
 -11   9  -2    1.06    0.14 
 -10   9  -2    0.37    0.10 
  -9   9  -2    1.67    0.15 
  -8   9  -2    1.10    0.12 
  -7   9  -2    0.13    0.14 
  -6   9  -2   -0.02    0.12 
  -5   9  -2    1.04    0.15 
  -4   9  -2    2.04    0.21 
  -3   9  -2   38.99    3.21 
  -2   9  -2    4.89    0.51 
  -1   9  -2    0.06    0.06 
   0   9  -2   19.36    2.87 
   1   9  -2   34.23    7.53 
   2   9  -2    1.48    0.26 
   3   9  -2    4.34    0.58 
   4   9  -2   -0.12    0.06 
   5   9  -2    2.34    0.46 
   6   9  -2    0.27    0.10 
   7   9  -2    0.28    0.17 
   8   9  -2   12.27    2.73 
   9   9  -2    1.06    0.37 
  10   9  -2   -0.03    0.19 
 -11  10  -2    0.00    0.07 
 -10  10  -2    0.23    0.09 
  -9  10  -2    0.98    0.11 
  -8  10  -2    0.04    0.07 
  -7  10  -2    2.40    0.38 
  -6  10  -2   -0.06    0.12 
  -5  10  -2    0.88    0.19 
  -4  10  -2   33.10    3.75 
  -3  10  -2    4.09    0.41 
  -2  10  -2   11.76    1.06 
  -1  10  -2    4.11    0.46 
   0  10  -2    2.78    0.39 
   1  10  -2   10.56    1.49 
   2  10  -2    2.11    0.33 
   3  10  -2    3.06    0.33 
   4  10  -2    0.51    0.11 
   5  10  -2    1.09    0.16 
   6  10  -2    0.37    0.19 
   7  10  -2    0.03    0.16 
   8  10  -2   19.32    3.99 
   9  10  -2    6.48    1.47 
  10  10  -2    0.00    0.20 
 -11  11  -2    1.45    0.14 
 -10  11  -2    0.47    0.09 
  -9  11  -2    0.09    0.07 
  -8  11  -2    0.04    0.07 
  -7  11  -2   -0.10    0.15 
  -6  11  -2    1.07    0.24 
  -5  11  -2    2.61    0.44 
  -4  11  -2    9.87    1.03 
  -3  11  -2    0.76    0.11 
  -2  11  -2   10.04    0.93 
  -1  11  -2    0.01    0.06 
   0  11  -2    4.43    0.53 
   1  11  -2    3.51    0.46 
   2  11  -2    6.18    0.68 
   3  11  -2    0.93    0.19 
   4  11  -2    0.66    0.14 
   5  11  -2    0.31    0.11 
   6  11  -2   -0.11    0.13 
   7  11  -2    2.11    0.52 
   8  11  -2    1.48    0.39 
   9  11  -2    6.85    1.46 
 -11  12  -2    0.49    0.07 
 -10  12  -2    0.01    0.07 
  -9  12  -2    0.18    0.08 
  -8  12  -2   -0.10    0.07 
  -7  12  -2    0.13    0.08 
  -6  12  -2    4.88    0.70 
  -5  12  -2    5.82    0.69 
  -4  12  -2    1.22    0.22 
  -3  12  -2    0.12    0.08 
  -2  12  -2   -0.03    0.07 
  -1  12  -2    3.55    0.43 
   0  12  -2    5.95    0.82 
   1  12  -2    5.11    0.60 
   2  12  -2    3.13    0.47 
   3  12  -2    0.11    0.09 
   4  12  -2    2.57    0.40 
   5  12  -2    1.31    0.32 
   6  12  -2    7.36    1.49 
   7  12  -2    3.34    0.73 
   8  12  -2    0.28    0.25 
   9  12  -2    1.11    0.37 
 -10  13  -2    0.00    0.06 
  -9  13  -2    0.36    0.08 
  -8  13  -2    2.08    0.16 
  -7  13  -2    0.86    0.10 
  -6  13  -2    3.20    0.43 
  -5  13  -2    1.01    0.20 
  -4  13  -2    2.46    0.35 
  -3  13  -2    2.97    0.42 
  -2  13  -2    0.20    0.09 
  -1  13  -2   -0.03    0.08 
   0  13  -2    1.86    0.30 
   1  13  -2   13.37    1.64 
   2  13  -2    0.52    0.15 
   3  13  -2    1.36    0.36 
   4  13  -2   -0.04    0.09 
   5  13  -2    3.04    0.64 
   6  13  -2    0.01    0.21 
   7  13  -2    0.45    0.25 
   9  13  -2    0.50    0.17 
 -10  14  -2    0.57    0.07 
  -9  14  -2    0.72    0.09 
  -8  14  -2    3.37    0.23 
  -7  14  -2    0.78    0.09 
  -6  14  -2    0.08    0.07 
  -5  14  -2    3.57    0.48 
  -4  14  -2    2.88    0.36 
  -3  14  -2    1.25    0.26 
  -2  14  -2    0.91    0.20 
  -1  14  -2    1.04    0.28 
   0  14  -2    2.32    0.40 
   1  14  -2    0.27    0.18 
   2  14  -2   21.95    4.37 
   3  14  -2   23.40    4.25 
   4  14  -2    1.26    0.35 
   5  14  -2   -0.13    0.11 
   6  14  -2    0.28    0.15 
   7  14  -2    0.31    0.14 
   8  14  -2    4.76    1.14 
 -10  15  -2    0.53    0.06 
  -9  15  -2    0.92    0.10 
  -8  15  -2    0.02    0.06 
  -7  15  -2   -0.01    0.07 
  -6  15  -2    0.05    0.07 
  -5  15  -2    3.92    0.23 
  -4  15  -2    0.99    0.24 
  -3  15  -2    4.55    0.67 
  -2  15  -2    2.54    0.34 
  -1  15  -2    2.75    0.52 
   0  15  -2   -0.06    0.13 
   1  15  -2    2.66    0.72 
   2  15  -2    1.86    0.46 
   3  15  -2    8.68    1.68 
   4  15  -2   29.49    5.50 
   5  15  -2    0.18    0.14 
   6  15  -2    0.15    0.14 
   7  15  -2    0.97    0.24 
   8  15  -2    1.00    0.22 
  -9  16  -2    0.16    0.06 
  -8  16  -2    0.49    0.08 
  -7  16  -2    0.15    0.07 
  -6  16  -2    0.07    0.07 
  -5  16  -2    3.74    0.23 
  -4  16  -2    0.03    0.08 
  -3  16  -2    3.12    0.65 
  -2  16  -2    2.11    0.51 
  -1  16  -2    2.14    0.42 
   0  16  -2   11.70    2.51 
   1  16  -2    6.71    1.50 
   2  16  -2    1.14    0.44 
   3  16  -2    4.63    1.02 
   4  16  -2    1.52    0.35 
   5  16  -2    0.41    0.21 
   6  16  -2    9.30    1.02 
   7  16  -2    1.47    0.25 
   8  16  -2    3.07    0.70 
  10  16  -2    0.51    0.24 
  -9  17  -2    0.50    0.06 
  -8  17  -2    0.34    0.06 
  -7  17  -2    0.58    0.08 
  -6  17  -2    0.25    0.07 
  -5  17  -2   -0.08    0.08 
  -4  17  -2    0.19    0.09 
  -3  17  -2    0.14    0.09 
  -2  17  -2    0.08    0.20 
  -1  17  -2    0.79    0.34 
   0  17  -2   -0.11    0.21 
   1  17  -2    9.72    1.94 
   2  17  -2    2.17    0.47 
   3  17  -2    7.75    1.68 
   4  17  -2    2.21    0.27 
   5  17  -2   -0.06    0.15 
   6  17  -2   -0.08    0.14 
   7  17  -2    0.10    0.22 
   8  17  -2   -0.26    0.17 
   9  17  -2   -0.18    0.17 
  10  17  -2    0.26    0.12 
  -8  18  -2    3.66    0.21 
  -7  18  -2    3.19    0.19 
  -6  18  -2    0.28    0.08 
  -5  18  -2    0.07    0.08 
  -4  18  -2    0.01    0.08 
  -3  18  -2    0.95    0.12 
  -2  18  -2    1.72    0.17 
  -1  18  -2   -0.08    0.10 
   0  18  -2    0.33    0.13 
   1  18  -2    0.32    0.15 
   2  18  -2   48.28    3.79 
   3  18  -2   26.16    2.03 
   4  18  -2    2.69    0.32 
   5  18  -2    0.90    0.17 
   6  18  -2    0.69    0.19 
   7  18  -2    0.30    0.20 
   8  18  -2    0.72    0.20 
   9  18  -2    0.20    0.13 
  -8  19  -2    0.04    0.04 
  -7  19  -2   -0.03    0.05 
  -6  19  -2   -0.03    0.07 
  -5  19  -2    0.08    0.08 
  -4  19  -2   -0.01    0.09 
  -3  19  -2    0.06    0.09 
  -2  19  -2    0.94    0.15 
  -1  19  -2   -0.13    0.11 
   0  19  -2    0.20    0.12 
   1  19  -2    2.33    0.30 
   2  19  -2    2.58    0.28 
   3  19  -2    1.70    0.21 
   4  19  -2    3.37    0.29 
   5  19  -2    1.46    0.22 
   6  19  -2    2.24    0.30 
   7  19  -2   -0.05    0.11 
   8  19  -2    1.02    0.20 
  -7  20  -2   -0.03    0.05 
  -6  20  -2   -0.04    0.06 
  -5  20  -2    0.10    0.07 
  -4  20  -2   -0.07    0.09 
  -3  20  -2   -0.07    0.09 
  -2  20  -2    0.13    0.11 
  -1  20  -2    0.74    0.14 
   0  20  -2   -0.09    0.11 
   1  20  -2    0.05    0.12 
   2  20  -2    0.05    0.11 
   3  20  -2    0.44    0.13 
   4  20  -2    1.46    0.23 
   5  20  -2    2.22    0.28 
   6  20  -2    1.51    0.21 
   7  20  -2    0.83    0.14 
   8  20  -2    0.01    0.08 
  -6  21  -2   -0.06    0.06 
  -5  21  -2   -0.07    0.06 
  -4  21  -2    0.63    0.11 
  -3  21  -2    0.50    0.13 
  -2  21  -2    0.23    0.11 
  -1  21  -2    0.09    0.13 
   0  21  -2    0.49    0.17 
   1  21  -2    0.48    0.16 
   2  21  -2    2.77    0.33 
   3  21  -2    2.78    0.33 
   4  21  -2    0.35    0.14 
   5  21  -2    1.12    0.16 
   6  21  -2    1.29    0.16 
   7  21  -2    0.25    0.10 
  -5  22  -2    0.11    0.07 
  -4  22  -2    0.17    0.07 
  -3  22  -2    0.17    0.11 
  -2  22  -2    0.68    0.14 
  -1  22  -2    0.01    0.11 
   0  22  -2   -0.18    0.12 
   1  22  -2    0.23    0.14 
   2  22  -2    5.35    0.52 
   3  22  -2    1.29    0.21 
   4  22  -2    0.00    0.11 
   5  22  -2    0.00    0.10 
   6  22  -2    0.64    0.11 
  -4  23  -2   -0.04    0.07 
  -3  23  -2    0.15    0.11 
  -2  23  -2    0.02    0.11 
  -1  23  -2    0.03    0.11 
   0  23  -2    0.16    0.12 
   1  23  -2   -0.04    0.11 
   2  23  -2    0.08    0.09 
   3  23  -2    1.23    0.19 
   4  23  -2    0.02    0.09 
   5  23  -2    0.04    0.08 
  -2  24  -2   -0.08    0.09 
  -1  24  -2   -0.14    0.08 
   0  24  -2   -0.08    0.09 
   1  24  -2    0.09    0.09 
   2  24  -2    0.52    0.14 
   3  24  -2    1.98    0.21 
  -3 -24  -1    0.03    0.07 
  -2 -24  -1    0.12    0.09 
  -1 -24  -1    0.03    0.09 
   0 -24  -1    0.25    0.11 
   1 -24  -1    0.16    0.11 
   2 -24  -1    0.49    0.10 
   3 -24  -1    0.67    0.12 
  -4 -23  -1    0.08    0.08 
  -3 -23  -1    0.00    0.09 
  -2 -23  -1    0.05    0.10 
  -1 -23  -1   -0.09    0.10 
   0 -23  -1    0.23    0.12 
   1 -23  -1    0.00    0.10 
   2 -23  -1   -0.03    0.10 
   3 -23  -1    3.67    0.35 
   4 -23  -1    0.50    0.11 
   5 -23  -1    0.12    0.07 
  -6 -22  -1    0.16    0.08 
  -5 -22  -1    0.17    0.07 
  -4 -22  -1   -0.03    0.08 
  -3 -22  -1    0.71    0.12 
  -2 -22  -1   -0.09    0.12 
  -1 -22  -1    0.30    0.12 
   0 -22  -1    0.07    0.13 
   1 -22  -1    0.10    0.11 
   2 -22  -1   -0.01    0.11 
   3 -22  -1   -0.02    0.10 
   4 -22  -1    0.16    0.11 
   5 -22  -1    0.25    0.09 
   6 -22  -1   -0.02    0.07 
  -6 -21  -1    0.27    0.07 
  -5 -21  -1    0.38    0.09 
  -4 -21  -1    0.05    0.08 
  -3 -21  -1    0.52    0.11 
  -2 -21  -1    0.02    0.12 
  -1 -21  -1    0.05    0.12 
   0 -21  -1    0.40    0.16 
   1 -21  -1   -0.08    0.12 
   2 -21  -1    0.72    0.16 
   3 -21  -1    0.30    0.12 
   4 -21  -1    1.35    0.21 
   5 -21  -1    0.41    0.11 
   6 -21  -1    0.18    0.10 
   7 -21  -1    0.68    0.10 
  -7 -20  -1    0.45    0.07 
  -6 -20  -1    0.11    0.07 
  -5 -20  -1    0.41    0.09 
  -4 -20  -1    0.03    0.08 
  -3 -20  -1    0.05    0.09 
  -2 -20  -1    0.03    0.09 
  -1 -20  -1    3.24    0.34 
   0 -20  -1   14.28    1.31 
   1 -20  -1    1.92    0.21 
   2 -20  -1    2.07    0.31 
   3 -20  -1    0.40    0.13 
   4 -20  -1    2.12    0.29 
   5 -20  -1    0.81    0.17 
   6 -20  -1    0.02    0.12 
   7 -20  -1    0.04    0.09 
   8 -20  -1    1.70    0.27 
  -8 -19  -1    0.13    0.04 
  -7 -19  -1    0.00    0.06 
  -6 -19  -1    0.13    0.07 
  -5 -19  -1    0.51    0.09 
  -4 -19  -1    0.37    0.09 
  -3 -19  -1    0.55    0.11 
  -2 -19  -1    4.76    0.39 
  -1 -19  -1   -0.03    0.10 
   0 -19  -1    0.25    0.13 
   1 -19  -1    0.19    0.13 
   2 -19  -1    8.82    0.77 
   3 -19  -1   -0.19    0.10 
   4 -19  -1   -0.14    0.11 
   5 -19  -1    3.22    0.47 
   6 -19  -1    0.47    0.22 
   7 -19  -1    3.13    0.40 
   8 -19  -1    1.62    0.29 
  -9 -18  -1    0.27    0.04 
  -8 -18  -1    1.49    0.10 
  -7 -18  -1   -0.02    0.06 
  -6 -18  -1    1.65    0.13 
  -5 -18  -1    0.13    0.07 
  -4 -18  -1    0.30    0.08 
  -3 -18  -1    1.10    0.13 
  -2 -18  -1    3.35    0.27 
  -1 -18  -1    1.77    0.22 
   0 -18  -1    4.67    1.13 
   1 -18  -1   -0.07    0.18 
   2 -18  -1    4.29    0.41 
   3 -18  -1    0.34    0.13 
   4 -18  -1    0.58    0.15 
   5 -18  -1    0.64    0.18 
   6 -18  -1    0.03    0.14 
   7 -18  -1    0.06    0.17 
   8 -18  -1    0.00    0.14 
   9 -18  -1    0.33    0.11 
  -9 -17  -1    0.16    0.05 
  -8 -17  -1    0.06    0.05 
  -7 -17  -1    0.05    0.06 
  -6 -17  -1    0.47    0.08 
  -5 -17  -1    0.00    0.07 
  -4 -17  -1    0.00    0.08 
  -3 -17  -1    0.48    0.21 
  -2 -17  -1    1.48    0.44 
  -1 -17  -1    1.28    0.54 
   0 -17  -1    1.47    0.54 
   1 -17  -1    5.68    1.20 
   2 -17  -1   11.12    1.75 
   3 -17  -1    0.98    0.24 
   4 -17  -1    2.36    0.32 
   5 -17  -1    0.24    0.16 
   6 -17  -1    0.29    0.18 
   7 -17  -1    0.52    0.36 
   8 -17  -1    1.45    0.52 
   9 -17  -1    0.39    0.24 
 -10 -16  -1    0.27    0.04 
  -9 -16  -1    0.40    0.06 
  -8 -16  -1    0.09    0.06 
  -7 -16  -1    0.11    0.07 
  -6 -16  -1   -0.03    0.06 
  -5 -16  -1    2.45    0.16 
  -4 -16  -1   -0.13    0.17 
  -3 -16  -1    0.16    0.17 
  -2 -16  -1    2.88    0.73 
  -1 -16  -1    8.94    1.80 
   0 -16  -1   23.83    4.96 
   1 -16  -1   39.64    8.58 
   2 -16  -1    0.14    0.13 
   3 -16  -1   -0.05    0.13 
   4 -16  -1    3.61    0.59 
   5 -16  -1   11.76    1.54 
   6 -16  -1    1.06    0.29 
   7 -16  -1    1.48    0.36 
   9 -16  -1    0.20    0.18 
  10 -16  -1   -0.25    0.15 
 -10 -15  -1    0.42    0.06 
  -9 -15  -1    0.48    0.07 
  -8 -15  -1    1.87    0.13 
  -7 -15  -1   -0.06    0.06 
  -6 -15  -1   -0.01    0.06 
  -5 -15  -1    1.16    0.21 
  -4 -15  -1    0.30    0.14 
  -3 -15  -1    0.48    0.18 
  -2 -15  -1    0.02    0.15 
   0 -15  -1    9.35    1.82 
   1 -15  -1    0.45    0.26 
   2 -15  -1    6.71    1.09 
   3 -15  -1    0.35    0.16 
   4 -15  -1    0.15    0.17 
   5 -15  -1    2.41    0.67 
   6 -15  -1   -0.02    0.21 
   7 -15  -1    3.65    0.83 
   8 -15  -1    0.50    0.29 
 -10 -14  -1    0.45    0.07 
  -9 -14  -1    0.10    0.07 
  -8 -14  -1    3.04    0.16 
  -7 -14  -1   -0.06    0.06 
  -6 -14  -1    0.01    0.06 
  -5 -14  -1    0.15    0.11 
  -4 -14  -1    0.19    0.11 
  -3 -14  -1    0.66    0.15 
  -2 -14  -1   10.69    1.59 
  -1 -14  -1    0.03    0.18 
   0 -14  -1   -0.05    0.12 
   1 -14  -1    1.04    0.18 
   2 -14  -1   17.39    2.65 
   3 -14  -1    3.68    0.68 
   4 -14  -1   12.53    1.90 
   5 -14  -1   -0.01    0.18 
   6 -14  -1    0.11    0.21 
   7 -14  -1    1.74    0.46 
   8 -14  -1    2.57    0.74 
 -11 -13  -1    0.24    0.05 
 -10 -13  -1   -0.02    0.06 
  -9 -13  -1   -0.10    0.07 
  -8 -13  -1    0.08    0.06 
  -7 -13  -1    1.89    0.13 
  -6 -13  -1    0.82    0.18 
  -5 -13  -1    0.05    0.09 
  -4 -13  -1    3.34    0.41 
  -3 -13  -1    0.48    0.11 
  -2 -13  -1    4.85    0.63 
  -1 -13  -1   -0.19    0.13 
   0 -13  -1    5.34    0.80 
   1 -13  -1   20.88    2.48 
   2 -13  -1   -0.02    0.08 
   3 -13  -1    0.65    0.13 
   4 -13  -1    1.42    0.30 
   5 -13  -1    0.13    0.18 
   6 -13  -1    1.10    0.36 
   7 -13  -1    3.58    0.80 
   8 -13  -1    1.69    0.42 
   9 -13  -1    1.07    0.43 
 -11 -12  -1    0.10    0.06 
 -10 -12  -1    0.05    0.07 
  -9 -12  -1    2.33    0.14 
  -8 -12  -1    0.92    0.09 
  -7 -12  -1    2.22    0.35 
  -6 -12  -1    0.09    0.11 
  -5 -12  -1    5.26    0.54 
  -4 -12  -1    5.24    0.55 
  -3 -12  -1    3.39    0.35 
  -2 -12  -1    1.68    0.22 
  -1 -12  -1    9.10    1.51 
   0 -12  -1    0.40    0.15 
   1 -12  -1   49.51    5.97 
   2 -12  -1    3.95    0.50 
   3 -12  -1    0.29    0.11 
   4 -12  -1    1.55    0.24 
   5 -12  -1    0.90    0.30 
   6 -12  -1    4.22    0.95 
   7 -12  -1    1.48    0.42 
   8 -12  -1    0.21    0.25 
   9 -12  -1   -0.03    0.23 
 -11 -11  -1    1.37    0.11 
 -10 -11  -1    1.07    0.11 
  -9 -11  -1    0.08    0.07 
  -8 -11  -1    0.07    0.07 
  -7 -11  -1    0.76    0.18 
  -6 -11  -1   -0.06    0.10 
  -5 -11  -1    0.45    0.11 
  -4 -11  -1    1.04    0.15 
  -3 -11  -1    1.27    0.16 
  -2 -11  -1   34.39    3.68 
  -1 -11  -1    0.72    0.11 
   0 -11  -1    3.24    0.43 
   1 -11  -1    4.28    0.51 
   2 -11  -1   10.62    1.31 
   3 -11  -1    6.33    0.76 
   4 -11  -1    0.05    0.08 
   5 -11  -1    2.74    0.70 
   6 -11  -1    2.00    0.58 
   7 -11  -1    0.94    0.36 
   8 -11  -1    4.69    1.15 
   9 -11  -1    1.12    0.38 
 -12 -10  -1    0.06    0.06 
 -11 -10  -1    0.83    0.10 
 -10 -10  -1    0.29    0.08 
  -9 -10  -1    3.26    0.18 
  -8 -10  -1    0.44    0.08 
  -7 -10  -1    0.02    0.11 
  -6 -10  -1    0.25    0.11 
  -5 -10  -1    1.39    0.18 
  -4 -10  -1   -0.03    0.06 
  -3 -10  -1   23.58    2.25 
  -2 -10  -1   68.59    6.65 
  -1 -10  -1    0.24    0.08 
   0 -10  -1   15.13    1.91 
   1 -10  -1    9.49    1.46 
   2 -10  -1    0.52    0.12 
   3 -10  -1    3.87    0.46 
   4 -10  -1   -0.02    0.07 
   5 -10  -1    0.55    0.15 
   6 -10  -1    0.72    0.29 
   7 -10  -1    9.28    2.09 
   8 -10  -1    0.11    0.22 
   9 -10  -1    1.23    0.36 
 -12  -9  -1    0.26    0.08 
 -11  -9  -1    0.10    0.07 
 -10  -9  -1   -0.01    0.08 
  -9  -9  -1    3.54    0.21 
  -8  -9  -1    0.06    0.11 
  -7  -9  -1   -0.06    0.10 
  -6  -9  -1   -0.05    0.07 
  -5  -9  -1    0.10    0.06 
  -4  -9  -1   50.02    4.60 
  -3  -9  -1    3.44    0.33 
  -2  -9  -1   53.37    6.73 
  -1  -9  -1   74.82   11.15 
   0  -9  -1   18.71    2.78 
   1  -9  -1   57.38    8.07 
   2  -9  -1   13.69    2.63 
   3  -9  -1    0.12    0.08 
   4  -9  -1    8.26    1.00 
   5  -9  -1    0.23    0.11 
   6  -9  -1    4.19    0.68 
   7  -9  -1    0.51    0.33 
   8  -9  -1    3.17    0.67 
   9  -9  -1    2.87    0.75 
 -12  -8  -1    0.02    0.07 
 -11  -8  -1   -0.09    0.08 
 -10  -8  -1    0.76    0.10 
  -9  -8  -1    0.45    0.08 
  -8  -8  -1   -0.04    0.11 
  -7  -8  -1    0.09    0.10 
  -6  -8  -1   -0.08    0.07 
  -5  -8  -1    0.69    0.10 
  -4  -8  -1   14.55    1.20 
  -3  -8  -1    6.15    0.65 
  -2  -8  -1   11.77    1.94 
  -1  -8  -1   35.13    5.14 
   0  -8  -1    0.13    0.07 
   1  -8  -1    5.91    0.79 
   2  -8  -1   -0.07    0.07 
   3  -8  -1    0.52    0.20 
   4  -8  -1    3.10    0.43 
   5  -8  -1   10.21    1.45 
   6  -8  -1    6.25    0.96 
   7  -8  -1    0.95    0.37 
   8  -8  -1    0.95    0.33 
 -11  -7  -1    0.06    0.10 
 -10  -7  -1    0.10    0.08 
  -9  -7  -1    0.10    0.09 
  -8  -7  -1    1.75    0.30 
  -7  -7  -1    0.12    0.10 
  -6  -7  -1    0.03    0.06 
  -5  -7  -1   23.02    1.87 
  -4  -7  -1    2.91    0.26 
  -3  -7  -1    2.34    0.39 
  -2  -7  -1    0.43    0.12 
  -1  -7  -1    0.16    0.07 
   0  -7  -1    4.78    0.68 
   1  -7  -1    8.54    1.20 
   2  -7  -1   18.61    2.54 
   3  -7  -1    0.12    0.10 
   4  -7  -1    0.06    0.11 
   5  -7  -1    2.31    0.53 
   6  -7  -1    3.60    0.50 
   7  -7  -1    0.20    0.19 
   8  -7  -1    1.28    0.41 
 -10  -6  -1    0.86    0.14 
  -9  -6  -1    2.60    0.21 
  -8  -6  -1    0.65    0.14 
  -7  -6  -1    0.37    0.12 
  -6  -6  -1    1.35    0.15 
  -5  -6  -1    9.38    0.79 
  -4  -6  -1    8.12    0.79 
  -3  -6  -1    0.42    0.12 
  -2  -6  -1   14.05    2.25 
  -1  -6  -1  115.85   15.94 
   0  -6  -1    4.57    0.63 
   1  -6  -1   18.43    2.53 
   2  -6  -1   22.65    3.10 
   3  -6  -1    3.24    0.48 
   4  -6  -1   -0.10    0.10 
   5  -6  -1    0.53    0.21 
   6  -6  -1   -0.16    0.12 
   7  -6  -1    7.17    1.15 
  -9  -5  -1    2.82    0.48 
  -8  -5  -1    0.06    0.10 
  -7  -5  -1   -0.14    0.08 
  -6  -5  -1    0.12    0.07 
  -5  -5  -1    0.01    0.05 
  -4  -5  -1   69.59   14.77 
  -3  -5  -1    0.73    0.18 
  -2  -5  -1   54.98    8.78 
  -1  -5  -1  218.56   29.97 
   0  -5  -1    4.28    0.54 
   1  -5  -1  253.45   34.51 
   2  -5  -1   50.71    7.00 
   3  -5  -1   12.45    1.91 
   4  -5  -1    2.87    0.44 
   5  -5  -1   12.03    2.55 
   6  -5  -1   11.43    2.52 
   7  -5  -1    1.19    0.48 
  -9  -4  -1    1.10    0.25 
  -8  -4  -1    0.13    0.12 
  -7  -4  -1    0.07    0.07 
  -6  -4  -1    2.98    0.33 
  -5  -4  -1    0.32    0.08 
  -4  -4  -1   26.40    4.21 
  -3  -4  -1    7.13    1.16 
  -2  -4  -1    3.93    0.62 
  -1  -4  -1  340.37   49.50 
   0  -4  -1  479.56   66.68 
   1  -4  -1   19.02    2.61 
   2  -4  -1   12.92    1.93 
   3  -4  -1    0.31    0.08 
   4  -4  -1    2.93    0.45 
   5  -4  -1   -0.09    0.06 
   6  -4  -1    4.79    1.10 
   7  -4  -1    4.26    0.92 
  -8  -3  -1    1.82    0.32 
  -7  -3  -1    0.26    0.10 
  -6  -3  -1    3.77    0.38 
  -5  -3  -1    1.80    0.22 
  -4  -3  -1   45.03    7.10 
  -3  -3  -1    1.01    0.15 
  -2  -3  -1  120.62   17.39 
  -1  -3  -1  172.78   25.18 
   0  -3  -1   20.15    3.62 
   1  -3  -1   16.07    2.31 
   2  -3  -1   -0.01    0.04 
   3  -3  -1   21.28    3.45 
   4  -3  -1    0.39    0.10 
   5  -3  -1    0.01    0.06 
   6  -3  -1    3.36    0.92 
   7  -3  -1    3.91    0.95 
  -7  -2  -1    0.06    0.09 
  -6  -2  -1    0.93    0.13 
  -5  -2  -1   -0.09    0.07 
  -4  -2  -1    9.95    1.02 
  -3  -2  -1  120.47   12.22 
  -2  -2  -1   34.98    4.08 
  -1  -2  -1   -0.05    0.03 
   0  -2  -1   10.00    1.35 
   1  -2  -1    2.79    0.43 
   2  -2  -1  583.15  128.05 
   3  -2  -1  397.41   90.17 
   4  -2  -1   23.26    5.10 
   5  -2  -1   -0.07    0.06 
   6  -2  -1    5.64    0.95 
   7  -2  -1    1.28    0.45 
  -6  -1  -1    2.62    0.30 
  -5  -1  -1   18.18    1.91 
  -4  -1  -1    0.86    0.11 
  -3  -1  -1    0.03    0.04 
  -2  -1  -1   18.73    1.97 
  -1  -1  -1    9.94    1.17 
   0  -1  -1  184.15   21.48 
   1  -1  -1    2.05    0.45 
   2  -1  -1   27.23    6.20 
   3  -1  -1   66.76   10.01 
   4  -1  -1   98.69   14.93 
   5  -1  -1    4.69    1.19 
   6  -1  -1   -0.14    0.08 
   7  -1  -1    0.12    0.09 
  -6   0  -1   -0.06    0.09 
  -5   0  -1   -0.01    0.05 
  -4   0  -1    0.09    0.05 
  -3   0  -1    0.04    0.04 
  -2   0  -1   -0.04    0.03 
  -1   0  -1    0.01    0.02 
   0   0  -1    0.00    0.01 
   1   0  -1   -0.02    0.01 
   2   0  -1    0.01    0.03 
   3   0  -1    0.03    0.04 
   4   0  -1    0.02    0.05 
   5   0  -1    0.06    0.09 
   6   0  -1   -0.08    0.09 
   7   0  -1    0.00    0.12 
  -6   1  -1    2.85    0.31 
  -5   1  -1   19.07    1.91 
  -4   1  -1    0.76    0.11 
  -3   1  -1    0.13    0.05 
  -2   1  -1   19.20    1.97 
  -1   1  -1    9.69    1.17 
   0   1  -1  174.36   21.48 
   1   1  -1    2.22    0.32 
   2   1  -1   30.36    4.38 
   3   1  -1   66.42   10.01 
   4   1  -1  102.86   14.93 
   5   1  -1    5.75    0.84 
   6   1  -1    0.02    0.10 
   7   1  -1   -0.01    0.12 
   8   1  -1    0.41    0.18 
  -7   2  -1   -0.10    0.11 
  -6   2  -1    0.92    0.13 
  -5   2  -1    0.00    0.06 
  -4   2  -1   10.12    1.02 
  -3   2  -1  121.34   12.22 
  -2   2  -1   35.09    4.08 
  -1   2  -1    0.04    0.02 
   0   2  -1    8.56    1.35 
   1   2  -1    2.94    0.61 
   2   2  -1  663.40  128.06 
   3   2  -1  438.54   63.76 
   4   2  -1   24.91    3.61 
   5   2  -1    0.04    0.05 
   6   2  -1    5.28    1.33 
   7   2  -1    1.46    0.43 
  -8   3  -1    1.50    0.33 
  -7   3  -1    0.17    0.11 
  -6   3  -1    3.46    0.38 
  -5   3  -1    1.25    0.34 
  -4   3  -1   53.33    7.09 
  -3   3  -1    1.12    0.17 
  -2   3  -1  122.35   17.39 
  -1   3  -1  166.08   25.18 
   0   3  -1   16.95    2.56 
   1   3  -1   14.72    3.27 
   2   3  -1    0.04    0.07 
   3   3  -1   24.70    4.88 
   4   3  -1    0.46    0.11 
   5   3  -1    0.11    0.06 
   6   3  -1    5.24    0.92 
   7   3  -1    4.37    0.96 
  -9   4  -1    0.79    0.41 
  -8   4  -1   -0.18    0.14 
  -7   4  -1    0.00    0.09 
  -6   4  -1    2.99    0.30 
  -5   4  -1    0.38    0.09 
  -4   4  -1   31.11    4.20 
  -3   4  -1    8.13    1.16 
  -2   4  -1    3.98    0.62 
  -1   4  -1  322.90   49.50 
   0   4  -1  458.06   66.68 
   1   4  -1   17.83    2.61 
   2   4  -1   13.26    2.73 
   3   4  -1    0.27    0.12 
   4   4  -1    2.85    0.64 
   5   4  -1    0.06    0.07 
   6   4  -1    5.06    1.09 
   7   4  -1    4.43    0.90 
  -9   5  -1    2.47    0.50 
  -8   5  -1    0.07    0.16 
  -7   5  -1    0.06    0.09 
  -6   5  -1    0.16    0.07 
  -5   5  -1   -0.03    0.06 
  -4   5  -1   71.70   10.44 
  -3   5  -1    1.21    0.18 
  -2   5  -1   61.83    8.78 
  -1   5  -1  204.85   29.97 
   0   5  -1    3.40    0.53 
   1   5  -1  233.35   34.51 
   2   5  -1   44.86    9.90 
   3   5  -1   13.73    2.70 
   4   5  -1    2.75    0.63 
   5   5  -1   12.78    1.80 
   6   5  -1   11.39    1.77 
   7   5  -1    1.54    0.47 
 -10   6  -1    0.47    0.14 
  -9   6  -1    2.12    0.23 
  -8   6  -1    0.17    0.15 
  -7   6  -1    0.33    0.15 
  -6   6  -1    1.29    0.17 
  -5   6  -1    8.17    0.86 
  -4   6  -1    8.61    0.79 
  -3   6  -1    0.42    0.11 
  -2   6  -1   15.10    2.25 
  -1   6  -1  110.34   15.93 
   0   6  -1    4.12    0.62 
   1   6  -1   17.39    2.53 
   2   6  -1   19.40    4.38 
   3   6  -1    3.23    0.68 
   4   6  -1   -0.07    0.09 
   5   6  -1    0.44    0.14 
   6   6  -1    0.07    0.09 
   7   6  -1    7.88    1.62 
 -11   7  -1    0.08    0.11 
 -10   7  -1    0.12    0.09 
  -9   7  -1    0.05    0.09 
  -8   7  -1    2.22    0.34 
  -7   7  -1    0.10    0.12 
  -6   7  -1   -0.01    0.08 
  -5   7  -1   20.92    1.87 
  -4   7  -1    2.10    0.26 
  -3   7  -1    2.25    0.38 
  -2   7  -1    0.38    0.11 
  -1   7  -1    0.03    0.06 
   0   7  -1    4.60    0.68 
   1   7  -1    8.43    1.20 
   2   7  -1   16.98    3.60 
   3   7  -1    0.19    0.09 
   4   7  -1    0.17    0.11 
   5   7  -1    1.74    0.35 
   6   7  -1    2.55    0.47 
   8   7  -1    1.21    0.36 
   9   7  -1   -0.25    0.14 
  10   7  -1    0.00    0.20 
 -12   8  -1    0.06    0.12 
 -11   8  -1   -0.03    0.09 
 -10   8  -1    0.46    0.10 
  -9   8  -1    0.25    0.09 
  -8   8  -1   -0.02    0.14 
  -7   8  -1   -0.02    0.12 
  -6   8  -1    0.14    0.10 
  -5   8  -1    0.90    0.11 
  -4   8  -1   13.36    1.20 
  -3   8  -1    5.93    0.65 
  -2   8  -1   13.14    1.94 
  -1   8  -1   33.39    5.14 
   0   8  -1    0.12    0.06 
   1   8  -1    4.94    1.12 
   2   8  -1   -0.03    0.06 
   3   8  -1    0.80    0.21 
   4   8  -1    2.40    0.41 
   5   8  -1    9.21    1.17 
   6   8  -1    5.82    0.77 
   7   8  -1    1.14    0.34 
   8   8  -1    1.29    0.29 
   9   8  -1    8.62    2.18 
 -12   9  -1    0.37    0.09 
 -11   9  -1    0.21    0.08 
 -10   9  -1    0.04    0.08 
  -9   9  -1    2.72    0.21 
  -8   9  -1   -0.11    0.15 
  -7   9  -1    0.01    0.14 
  -6   9  -1   -0.05    0.10 
  -5   9  -1    0.14    0.08 
  -4   9  -1   47.79    5.14 
  -3   9  -1    3.07    0.34 
  -2   9  -1   54.81    8.24 
  -1   9  -1   74.09   11.14 
   0   9  -1   19.16    2.78 
   1   9  -1   55.43   11.42 
   2   9  -1   12.65    2.63 
   3   9  -1   -0.06    0.07 
   4   9  -1    8.07    1.22 
   5   9  -1    0.26    0.09 
   6   9  -1    4.00    0.54 
   7   9  -1    0.81    0.29 
   8   9  -1    1.72    0.56 
   9   9  -1    2.24    0.71 
 -12  10  -1    0.03    0.07 
 -11  10  -1    0.48    0.09 
 -10  10  -1    0.04    0.08 
  -9  10  -1    2.54    0.19 
  -8  10  -1    0.16    0.08 
  -7  10  -1    0.15    0.14 
  -6  10  -1    0.40    0.13 
  -5  10  -1    1.39    0.19 
  -4  10  -1    0.06    0.07 
  -3  10  -1   22.14    2.25 
  -2  10  -1   68.86    6.65 
  -1  10  -1    0.23    0.08 
   0  10  -1   17.29    2.34 
   1  10  -1   10.50    1.46 
   2  10  -1    0.70    0.14 
   3  10  -1    3.60    0.55 
   4  10  -1   -0.08    0.07 
   5  10  -1    0.35    0.10 
   6  10  -1    0.90    0.28 
   7  10  -1    9.55    2.07 
   8  10  -1    0.06    0.20 
   9  10  -1    0.87    0.30 
 -11  11  -1    0.96    0.12 
 -10  11  -1    0.62    0.11 
  -9  11  -1    0.21    0.07 
  -8  11  -1   -0.02    0.07 
  -7  11  -1    0.74    0.21 
  -6  11  -1    0.11    0.12 
  -5  11  -1    0.45    0.13 
  -4  11  -1    1.21    0.16 
  -3  11  -1    1.19    0.18 
  -2  11  -1   33.56    3.29 
  -1  11  -1    0.90    0.13 
   0  11  -1    3.32    0.43 
   1  11  -1    3.90    0.61 
   2  11  -1   12.02    1.31 
   3  11  -1    6.16    0.92 
   4  11  -1    0.01    0.10 
   5  11  -1    3.28    0.40 
   6  11  -1    2.31    0.57 
   7  11  -1    1.32    0.34 
   8  11  -1    5.11    1.11 
   9  11  -1    0.98    0.34 
 -11  12  -1    0.06    0.06 
 -10  12  -1    0.24    0.07 
  -9  12  -1    1.71    0.14 
  -8  12  -1    0.89    0.10 
  -7  12  -1    2.14    0.38 
  -6  12  -1   -0.11    0.11 
  -5  12  -1    4.46    0.54 
  -4  12  -1    4.27    0.56 
  -3  12  -1    3.21    0.36 
  -2  12  -1    1.59    0.20 
  -1  12  -1   10.09    1.07 
   0  12  -1    0.28    0.11 
   1  12  -1   51.96    7.31 
   2  12  -1    4.59    0.61 
   3  12  -1    0.42    0.10 
   4  12  -1    1.47    0.28 
   5  12  -1    1.12    0.29 
   6  12  -1    5.31    0.91 
   7  12  -1    1.58    0.40 
   8  12  -1    0.01    0.20 
   9  12  -1   -0.04    0.20 
 -11  13  -1    0.26    0.06 
 -10  13  -1    0.09    0.06 
  -9  13  -1   -0.01    0.07 
  -8  13  -1    0.03    0.07 
  -7  13  -1    1.69    0.13 
  -6  13  -1    0.42    0.17 
  -5  13  -1   -0.08    0.12 
  -4  13  -1    3.04    0.42 
  -3  13  -1    0.46    0.13 
  -2  13  -1    4.52    0.63 
  -1  13  -1   -0.03    0.08 
   0  13  -1    5.19    0.65 
   1  13  -1   22.38    3.04 
   2  13  -1    0.02    0.08 
   3  13  -1    0.49    0.11 
   4  13  -1    1.99    0.30 
   5  13  -1   -0.09    0.11 
   6  13  -1    0.71    0.30 
   7  13  -1    2.85    0.75 
   8  13  -1    1.05    0.25 
   9  13  -1    1.38    0.41 
 -10  14  -1    0.31    0.07 
  -9  14  -1    0.03    0.07 
  -8  14  -1    2.46    0.17 
  -7  14  -1    0.06    0.07 
  -6  14  -1    0.08    0.08 
  -5  14  -1    0.15    0.13 
  -4  14  -1    0.04    0.11 
  -3  14  -1    0.62    0.17 
  -2  14  -1    9.35    1.30 
  -1  14  -1    0.08    0.10 
   0  14  -1   -0.03    0.10 
   1  14  -1    0.64    0.19 
   2  14  -1   21.51    3.75 
   3  14  -1    5.30    0.67 
   4  14  -1   13.47    1.90 
   5  14  -1    0.06    0.12 
   6  14  -1   -0.18    0.11 
   7  14  -1    1.20    0.27 
   8  14  -1    2.51    0.51 
 -10  15  -1    0.46    0.06 
  -9  15  -1    0.57    0.08 
  -8  15  -1    1.53    0.13 
  -7  15  -1    0.03    0.07 
  -6  15  -1    0.01    0.07 
  -5  15  -1    1.21    0.23 
  -4  15  -1    0.34    0.17 
  -3  15  -1    0.27    0.21 
  -2  15  -1    0.02    0.17 
  -1  15  -1    0.33    0.19 
   0  15  -1    6.79    1.77 
   1  15  -1    0.37    0.24 
   2  15  -1    7.90    1.55 
   3  15  -1    0.65    0.25 
   4  15  -1    0.34    0.15 
   5  15  -1    2.73    0.45 
   6  15  -1    0.03    0.12 
   7  15  -1    3.31    0.56 
   8  15  -1    0.60    0.19 
 -10  16  -1    0.24    0.05 
  -9  16  -1    0.36    0.06 
  -8  16  -1    0.02    0.06 
  -7  16  -1    0.00    0.07 
  -6  16  -1   -0.01    0.07 
  -5  16  -1    1.99    0.16 
  -4  16  -1    0.06    0.20 
  -3  16  -1   -0.19    0.16 
  -2  16  -1    2.39    0.50 
  -1  16  -1    6.94    1.77 
   0  16  -1   24.04    4.95 
   1  16  -1   42.87    8.57 
   2  16  -1   -0.07    0.18 
   3  16  -1    0.10    0.19 
   4  16  -1    3.72    0.83 
   5  16  -1   14.92    1.54 
   6  16  -1    1.16    0.22 
   7  16  -1    1.25    0.32 
   9  16  -1    0.22    0.24 
  10  16  -1    0.09    0.19 
  -9  17  -1    0.05    0.05 
  -8  17  -1    0.06    0.06 
  -7  17  -1   -0.03    0.06 
  -6  17  -1    0.33    0.08 
  -5  17  -1    0.02    0.08 
  -4  17  -1   -0.02    0.09 
  -3  17  -1    0.49    0.25 
  -2  17  -1    0.91    0.41 
  -1  17  -1    1.71    0.57 
   0  17  -1    2.05    0.56 
   1  17  -1    5.06    1.13 
   2  17  -1   12.12    2.47 
   3  17  -1    0.70    0.33 
   4  17  -1    3.06    0.41 
   5  17  -1    0.30    0.17 
   6  17  -1    0.07    0.11 
   7  17  -1    0.68    0.34 
   8  17  -1    2.36    0.59 
   9  17  -1    1.03    0.22 
  -9  18  -1    0.24    0.05 
  -8  18  -1    1.38    0.10 
  -7  18  -1    0.14    0.06 
  -6  18  -1    1.12    0.12 
  -5  18  -1    0.15    0.08 
  -4  18  -1    0.48    0.09 
  -3  18  -1    0.67    0.12 
  -2  18  -1    3.31    0.28 
  -1  18  -1    1.31    0.21 
   0  18  -1    4.16    1.11 
   1  18  -1    0.19    0.18 
   2  18  -1    4.65    0.42 
   3  18  -1    0.13    0.13 
   4  18  -1    0.88    0.19 
   5  18  -1    1.13    0.20 
   6  18  -1    0.18    0.17 
   7  18  -1    0.03    0.17 
   8  18  -1   -0.12    0.14 
   9  18  -1    0.59    0.21 
  -8  19  -1    0.18    0.05 
  -7  19  -1   -0.02    0.06 
  -6  19  -1   -0.04    0.07 
  -5  19  -1    0.25    0.10 
  -4  19  -1    0.12    0.09 
  -3  19  -1    0.40    0.11 
  -2  19  -1    5.95    0.43 
  -1  19  -1    0.10    0.11 
   0  19  -1   -0.01    0.12 
   1  19  -1    0.40    0.14 
   2  19  -1    9.44    0.77 
   3  19  -1    0.19    0.13 
   4  19  -1   -0.05    0.12 
   5  19  -1    3.57    0.41 
   6  19  -1    0.74    0.23 
   7  19  -1    3.92    0.52 
   8  19  -1    2.59    0.28 
  -7  20  -1    0.51    0.07 
  -6  20  -1    0.19    0.07 
  -5  20  -1    0.20    0.09 
  -4  20  -1   -0.13    0.08 
  -3  20  -1    0.00    0.09 
  -2  20  -1   -0.04    0.10 
  -1  20  -1    3.78    0.35 
   0  20  -1   13.05    1.20 
   1  20  -1    1.52    0.21 
   2  20  -1    2.04    0.28 
   3  20  -1    0.36    0.13 
   4  20  -1    2.57    0.28 
   5  20  -1    0.89    0.18 
   6  20  -1    0.30    0.14 
   7  20  -1    0.22    0.12 
   8  20  -1    2.15    0.21 
  -7  21  -1    0.41    0.19 
  -6  21  -1    0.23    0.07 
  -5  21  -1    0.37    0.09 
  -4  21  -1   -0.07    0.08 
  -3  21  -1    0.59    0.12 
  -2  21  -1    0.01    0.10 
  -1  21  -1    0.10    0.14 
   0  21  -1    0.74    0.16 
   1  21  -1    0.09    0.13 
   2  21  -1    0.86    0.19 
   3  21  -1    0.53    0.15 
   4  21  -1    1.42    0.19 
   5  21  -1    0.32    0.12 
   6  21  -1    0.29    0.11 
   7  21  -1    0.73    0.11 
  -6  22  -1    0.12    0.07 
  -5  22  -1    0.28    0.07 
  -4  22  -1    0.03    0.08 
  -3  22  -1    0.52    0.12 
  -2  22  -1   -0.02    0.12 
  -1  22  -1    0.17    0.13 
   0  22  -1    0.41    0.14 
   1  22  -1    0.03    0.12 
   2  22  -1   -0.08    0.12 
   3  22  -1    0.02    0.12 
   4  22  -1    0.00    0.10 
   5  22  -1   -0.11    0.10 
   6  22  -1   -0.02    0.09 
  -4  23  -1    0.02    0.08 
  -3  23  -1    0.05    0.10 
  -2  23  -1    0.04    0.10 
  -1  23  -1    0.11    0.12 
   0  23  -1    0.21    0.12 
   1  23  -1   -0.09    0.11 
   2  23  -1    0.12    0.11 
   3  23  -1    2.97    0.35 
   4  23  -1    0.34    0.11 
   5  23  -1   -0.05    0.08 
  -3  24  -1   -0.06    0.08 
  -2  24  -1    0.05    0.09 
  -1  24  -1    0.03    0.09 
   0  24  -1    0.22    0.11 
   1  24  -1    0.12    0.10 
   2  24  -1    0.46    0.12 
   3  24  -1    1.06    0.14 
  -3 -24   0    0.05    0.08 
  -2 -24   0    0.05    0.09 
  -1 -24   0   -0.03    0.11 
   0 -24   0    0.28    0.11 
   1 -24   0   -0.04    0.09 
   2 -24   0    0.06    0.08 
   3 -24   0    0.01    0.07 
  -5 -23   0    0.46    0.11 
  -4 -23   0   -0.04    0.08 
  -3 -23   0    1.42    0.19 
  -2 -23   0    0.02    0.11 
  -1 -23   0   -0.03    0.09 
   0 -23   0   -0.24    0.10 
   1 -23   0    0.11    0.11 
   2 -23   0    0.14    0.11 
   3 -23   0    1.93    0.21 
   4 -23   0    0.07    0.09 
   5 -23   0    0.75    0.11 
  -6 -22   0    0.50    0.09 
  -5 -22   0    0.65    0.09 
  -4 -22   0   -0.02    0.09 
  -3 -22   0    0.53    0.12 
  -2 -22   0    0.09    0.13 
  -1 -22   0   -0.03    0.10 
   0 -22   0    0.44    0.14 
   1 -22   0    0.00    0.10 
   2 -22   0    0.09    0.11 
   3 -22   0    0.75    0.16 
   4 -22   0    0.15    0.09 
   5 -22   0    0.55    0.12 
   6 -22   0    0.57    0.09 
  -7 -21   0   -0.01    0.05 
  -6 -21   0    1.37    0.15 
  -5 -21   0    0.18    0.08 
  -4 -21   0    0.27    0.09 
  -3 -21   0    0.82    0.14 
  -2 -21   0    1.12    0.19 
  -1 -21   0    1.25    0.18 
   0 -21   0   -0.12    0.11 
   1 -21   0    1.10    0.18 
   2 -21   0    1.22    0.20 
   3 -21   0    1.34    0.18 
   4 -21   0    0.04    0.11 
   5 -21   0    0.14    0.12 
   6 -21   0    1.09    0.17 
   7 -21   0   -0.01    0.05 
  -8 -20   0    1.41    0.15 
  -7 -20   0    0.88    0.09 
  -6 -20   0    0.19    0.07 
  -5 -20   0    0.33    0.09 
  -4 -20   0   -0.06    0.08 
  -3 -20   0    1.36    0.16 
  -2 -20   0    2.14    0.22 
  -1 -20   0    0.34    0.13 
   0 -20   0    0.33    0.13 
   1 -20   0    0.36    0.14 
   2 -20   0    2.33    0.26 
   3 -20   0    1.67    0.20 
   4 -20   0    0.04    0.11 
   5 -20   0    0.46    0.18 
   6 -20   0    0.06    0.11 
   7 -20   0    0.70    0.15 
   8 -20   0    1.35    0.34 
  -8 -19   0    0.18    0.05 
  -7 -19   0    0.12    0.07 
  -6 -19   0    0.86    0.10 
  -5 -19   0    0.06    0.08 
  -4 -19   0    0.06    0.08 
  -3 -19   0    1.39    0.16 
  -2 -19   0    1.05    0.14 
  -1 -19   0    5.50    0.43 
   0 -19   0   -0.21    0.12 
   1 -19   0    5.27    0.49 
   2 -19   0    0.83    0.17 
   3 -19   0    1.31    0.21 
   4 -19   0   -0.18    0.09 
   5 -19   0   -0.11    0.15 
   6 -19   0    1.32    0.29 
   7 -19   0   -0.01    0.15 
   8 -19   0    0.20    0.10 
  -9 -18   0    0.16    0.04 
  -8 -18   0    0.79    0.07 
  -7 -18   0   -0.02    0.06 
  -6 -18   0    0.13    0.08 
  -5 -18   0   -0.08    0.08 
  -4 -18   0    0.87    0.11 
  -3 -18   0    7.38    0.51 
  -2 -18   0    6.77    0.51 
  -1 -18   0    7.83    1.44 
   0 -18   0    0.82    0.38 
   1 -18   0    6.67    0.86 
   2 -18   0    6.93    0.69 
   3 -18   0    7.17    0.75 
   4 -18   0    0.61    0.15 
   5 -18   0    0.05    0.15 
   6 -18   0    0.54    0.21 
   7 -18   0   -0.25    0.23 
   8 -18   0    0.27    0.18 
   9 -18   0    0.02    0.08 
  -9 -17   0    0.66    0.06 
  -8 -17   0    2.25    0.13 
  -7 -17   0    1.45    0.11 
  -6 -17   0    0.53    0.09 
  -5 -17   0    2.02    0.15 
  -4 -17   0    0.18    0.08 
  -3 -17   0    0.99    0.28 
  -2 -17   0    9.36    2.20 
  -1 -17   0    6.31    1.41 
   0 -17   0    0.23    0.28 
   1 -17   0    4.94    1.39 
   2 -17   0   10.70    2.19 
   3 -17   0    1.21    0.29 
   4 -17   0   -0.12    0.12 
   5 -17   0    1.87    0.40 
   6 -17   0    0.56    0.18 
   7 -17   0    1.08    0.42 
   8 -17   0    1.57    0.49 
   9 -17   0    0.08    0.17 
 -10 -16   0    0.03    0.04 
  -9 -16   0    0.00    0.05 
  -8 -16   0    0.38    0.07 
  -7 -16   0    0.99    0.09 
  -6 -16   0   -0.06    0.06 
  -5 -16   0   -0.01    0.07 
  -4 -16   0    1.23    0.29 
  -3 -16   0    0.18    0.16 
  -2 -16   0    4.35    1.19 
  -1 -16   0    0.18    0.27 
   0 -16   0    4.52    1.12 
   1 -16   0    0.60    0.28 
   2 -16   0    5.09    0.83 
   3 -16   0   -0.08    0.13 
   4 -16   0    1.00    0.25 
   5 -16   0   -0.13    0.15 
   6 -16   0    0.01    0.18 
   7 -16   0    1.37    0.38 
   8 -16   0    0.34    0.29 
  10 -16   0    0.14    0.17 
 -10 -15   0    0.12    0.05 
  -9 -15   0    0.80    0.09 
  -8 -15   0    2.62    0.16 
  -7 -15   0    0.51    0.07 
  -6 -15   0    0.61    0.08 
  -5 -15   0   -0.05    0.12 
  -4 -15   0    1.90    0.27 
  -3 -15   0   -0.09    0.14 
  -2 -15   0   20.51    3.18 
  -1 -15   0    1.03    0.37 
   0 -15   0    0.19    0.22 
   1 -15   0    0.52    0.30 
   2 -15   0   21.57    3.18 
   3 -15   0   -0.08    0.11 
   4 -15   0    1.36    0.31 
   5 -15   0    0.06    0.23 
   6 -15   0    0.33    0.24 
   7 -15   0    0.88    0.31 
 -11 -14   0    0.07    0.04 
 -10 -14   0    0.18    0.06 
  -9 -14   0    2.77    0.16 
  -8 -14   0    1.82    0.12 
  -7 -14   0    0.10    0.06 
  -6 -14   0   -0.02    0.11 
  -5 -14   0    1.89    0.26 
  -4 -14   0    0.10    0.11 
  -3 -14   0    2.69    0.35 
  -2 -14   0    0.12    0.13 
  -1 -14   0   13.12    2.09 
   0 -14   0   17.78    2.65 
   1 -14   0   13.29    2.09 
   2 -14   0    0.13    0.12 
   3 -14   0    2.72    0.44 
   4 -14   0    0.02    0.14 
   5 -14   0    1.83    0.37 
   6 -14   0   -0.06    0.21 
   7 -14   0   -0.18    0.20 
   8 -14   0    1.18    0.44 
 -11 -13   0    0.50    0.07 
 -10 -13   0    0.09    0.07 
  -9 -13   0    0.05    0.07 
  -8 -13   0    0.82    0.09 
  -7 -13   0    0.14    0.07 
  -6 -13   0    0.52    0.15 
  -5 -13   0    0.46    0.12 
  -4 -13   0    3.74    0.42 
  -3 -13   0    4.55    0.59 
  -2 -13   0    9.04    1.09 
  -1 -13   0    0.01    0.09 
   0 -13   0   -0.15    0.09 
   1 -13   0    0.09    0.09 
   2 -13   0    8.45    1.09 
   3 -13   0    4.61    0.58 
   4 -13   0    3.49    0.60 
   5 -13   0    0.31    0.16 
   6 -13   0    0.94    0.29 
   7 -13   0    0.13    0.22 
   8 -13   0    0.58    0.32 
 -11 -12   0    1.71    0.12 
 -10 -12   0    0.73    0.09 
  -9 -12   0    1.18    0.10 
  -8 -12   0    0.32    0.08 
  -7 -12   0   -0.03    0.11 
  -6 -12   0    3.21    0.41 
  -5 -12   0    4.01    0.44 
  -4 -12   0    0.20    0.08 
  -3 -12   0    0.41    0.11 
  -2 -12   0    1.50    0.19 
  -1 -12   0   31.44    3.97 
   0 -12   0    0.33    0.12 
   1 -12   0   32.84    3.97 
   2 -12   0    1.21    0.21 
   3 -12   0    0.71    0.14 
   4 -12   0    0.15    0.12 
   5 -12   0    3.25    0.61 
   6 -12   0    3.09    0.72 
   7 -12   0    0.36    0.23 
   8 -12   0   -0.14    0.22 
   9 -12   0    0.77    0.34 
 -12 -11   0    0.09    0.05 
 -11 -11   0    0.43    0.07 
 -10 -11   0    0.46    0.08 
  -9 -11   0    0.03    0.07 
  -8 -11   0    2.65    0.15 
  -7 -11   0    4.91    0.65 
  -6 -11   0    2.63    0.33 
  -5 -11   0   -0.01    0.08 
  -4 -11   0   -0.04    0.06 
  -3 -11   0    0.24    0.07 
  -2 -11   0    1.90    0.22 
  -1 -11   0   25.65    3.21 
   0 -11   0    0.08    0.09 
   1 -11   0   25.52    3.21 
   2 -11   0    1.79    0.28 
   3 -11   0    0.42    0.10 
   4 -11   0    0.24    0.09 
   5 -11   0   -0.30    0.15 
   6 -11   0    2.08    0.57 
   7 -11   0    6.02    1.15 
   8 -11   0    1.77    0.55 
   9 -11   0   -0.26    0.22 
 -12 -10   0    0.11    0.06 
 -11 -10   0    0.13    0.07 
 -10 -10   0   -0.01    0.08 
  -9 -10   0   -0.18    0.06 
  -8 -10   0    0.79    0.18 
  -7 -10   0    2.29    0.26 
  -6 -10   0    1.06    0.16 
  -5 -10   0   -0.03    0.06 
  -4 -10   0   -0.01    0.05 
  -3 -10   0    2.33    0.23 
  -2 -10   0   29.84    2.85 
  -1 -10   0   14.10    1.91 
   0 -10   0    3.44    0.54 
   1 -10   0   17.24    2.35 
   2 -10   0   31.48    3.68 
   3 -10   0    2.43    0.33 
   4 -10   0   -0.03    0.07 
   5 -10   0   -0.01    0.10 
   6 -10   0    0.95    0.33 
   7 -10   0    1.57    0.52 
   8 -10   0    0.92    0.34 
   9 -10   0   -0.12    0.22 
 -12  -9   0    0.20    0.08 
 -11  -9   0    2.84    0.20 
 -10  -9   0    1.18    0.11 
  -9  -9   0    2.50    0.16 
  -8  -9   0    1.06    0.17 
  -7  -9   0    0.00    0.08 
  -6  -9   0    5.06    0.53 
  -5  -9   0    0.13    0.06 
  -4  -9   0    7.15    0.59 
  -3  -9   0    5.64    0.52 
  -2  -9   0    7.24    1.20 
  -1  -9   0    3.00    0.48 
   0  -9   0    0.03    0.06 
   1  -9   0    2.99    0.68 
   2  -9   0    9.65    1.70 
   3  -9   0    6.61    0.74 
   4  -9   0    7.61    1.10 
   5  -9   0    0.20    0.15 
   6  -9   0    4.09    1.07 
   7  -9   0    0.05    0.23 
   8  -9   0    0.83    0.36 
   9  -9   0    1.89    0.56 
 -12  -8   0    0.12    0.08 
 -11  -8   0    2.25    0.18 
 -10  -8   0    0.09    0.07 
  -9  -8   0    2.42    0.16 
  -8  -8   0    2.02    0.25 
  -7  -8   0    4.35    0.45 
  -6  -8   0    6.25    0.59 
  -5  -8   0   37.60    3.34 
  -4  -8   0   17.84    1.41 
  -3  -8   0    1.61    0.31 
  -2  -8   0   14.45    2.38 
  -1  -8   0   19.81    2.92 
   0  -8   0    0.26    0.09 
   1  -8   0   21.85    4.13 
   2  -8   0   18.42    3.37 
   3  -8   0    1.70    0.41 
   4  -8   0   18.17    3.74 
   5  -8   0   37.10    7.47 
   6  -8   0    6.96    1.34 
   7  -8   0    3.52    0.92 
   8  -8   0    1.97    0.53 
   9  -8   0    2.90    0.67 
 -12  -7   0    0.42    0.13 
 -11  -7   0    1.06    0.14 
 -10  -7   0    0.06    0.07 
  -9  -7   0    0.27    0.11 
  -8  -7   0    0.42    0.12 
  -7  -7   0    0.90    0.14 
  -6  -7   0    5.75    0.52 
  -5  -7   0    7.72    0.66 
  -4  -7   0   17.41    1.62 
  -3  -7   0    0.36    0.12 
  -2  -7   0    8.35    1.39 
  -1  -7   0   14.49    2.09 
   0  -7   0   -0.12    0.05 
   1  -7   0   15.52    2.08 
   2  -7   0   10.59    1.97 
   3  -7   0    0.50    0.16 
   4  -7   0   18.31    3.63 
   5  -7   0    7.98    1.62 
   6  -7   0    5.17    1.17 
   8  -7   0    0.25    0.28 
 -11  -6   0    0.98    0.15 
 -10  -6   0    2.20    0.18 
  -9  -6   0    6.21    0.91 
  -8  -6   0    3.11    0.33 
  -7  -6   0    1.11    0.15 
  -6  -6   0   -0.04    0.06 
  -5  -6   0    0.01    0.05 
  -4  -6   0    4.02    0.72 
  -3  -6   0    1.75    0.32 
  -2  -6   0    0.57    0.15 
  -1  -6   0  190.51   27.13 
   0  -6   0  152.96   21.17 
   1  -6   0  192.06   38.34 
   2  -6   0    0.67    0.12 
   3  -6   0    1.64    0.44 
   4  -6   0    4.51    1.01 
   5  -6   0    0.09    0.12 
   6  -6   0    0.11    0.13 
 -11  -5   0    1.89    0.41 
 -10  -5   0    0.49    0.12 
  -9  -5   0    0.88    0.21 
  -8  -5   0    0.46    0.13 
  -7  -5   0    4.18    0.40 
  -6  -5   0    0.46    0.09 
  -5  -5   0    1.03    0.13 
  -4  -5   0    3.07    0.57 
  -3  -5   0   11.20    1.78 
  -2  -5   0   64.67   10.05 
  -1  -5   0  184.99   27.05 
   0  -5   0    0.06    0.05 
   1  -5   0  202.23   27.04 
   2  -5   0   72.82   10.04 
   3  -5   0   12.12    1.76 
   4  -5   0    3.86    0.80 
   5  -5   0    0.91    0.30 
   6  -5   0    0.48    0.20 
 -10  -4   0   12.62    2.57 
  -9  -4   0    0.60    0.18 
  -8  -4   0    0.21    0.11 
  -7  -4   0    0.29    0.08 
  -6  -4   0   13.77    1.18 
  -5  -4   0   13.12    1.42 
  -4  -4   0    1.63    0.28 
  -3  -4   0    7.39    1.20 
  -2  -4   0    0.93    0.19 
  -1  -4   0  213.58   32.06 
   0  -4   0  984.81  135.68 
   1  -4   0  245.14   32.05 
   2  -4   0    1.03    0.17 
   3  -4   0    7.69    1.19 
   4  -4   0    1.37    0.25 
   5  -4   0   12.35    2.83 
   6  -4   0   13.25    2.88 
   7  -4   0    0.08    0.18 
  -9  -3   0    1.06    0.34 
  -8  -3   0    0.06    0.09 
  -7  -3   0    0.22    0.09 
  -6  -3   0    0.81    0.10 
  -5  -3   0    1.50    0.29 
  -4  -3   0   -0.02    0.08 
  -3  -3   0   28.03    4.53 
  -2  -3   0    1.26    0.21 
  -1  -3   0   12.63    1.87 
   0  -3   0    0.09    0.03 
   1  -3   0   13.46    1.87 
   2  -3   0    1.15    0.20 
   3  -3   0   27.39    4.52 
   4  -3   0    0.05    0.05 
   5  -3   0    1.53    0.27 
   6  -3   0    0.50    0.22 
   7  -3   0    0.33    0.17 
  -9  -2   0    0.62    0.26 
  -8  -2   0    0.09    0.13 
  -7  -2   0   -0.02    0.07 
  -6  -2   0    2.69    0.29 
  -5  -2   0    9.84    1.45 
  -4  -2   0    0.62    0.11 
  -3  -2   0    8.58    1.07 
  -2  -2   0   54.01    6.63 
  -1  -2   0    0.89    0.16 
   0  -2   0    6.17    0.82 
   1  -2   0    0.93    0.15 
   2  -2   0   48.55   11.48 
   3  -2   0    7.63    1.30 
   4  -2   0    0.60    0.13 
   5  -2   0    8.48    1.43 
   6  -2   0    2.79    0.65 
   7  -2   0    0.06    0.18 
  -8  -1   0    0.48    0.15 
  -7  -1   0    0.08    0.09 
  -6  -1   0    2.53    0.24 
  -5  -1   0    1.70    0.24 
  -4  -1   0    7.95    0.84 
  -3  -1   0   28.63    2.97 
  -2  -1   0    1.56    0.17 
  -1  -1   0   15.49    1.58 
   0  -1   0    0.01    0.01 
   1  -1   0   13.28    3.15 
   2  -1   0    1.27    0.34 
   3  -1   0   25.09    5.92 
   4  -1   0    6.86    1.66 
   5  -1   0    1.80    0.27 
   6  -1   0    1.93    0.39 
   7  -1   0   -0.03    0.13 
  -8   0   0    1.03    0.34 
  -7   0   0    1.13    0.18 
  -6   0   0    0.26    0.08 
  -5   0   0   12.84    1.34 
  -4   0   0   12.86    1.31 
  -3   0   0   57.36    5.85 
  -2   0   0    4.56    0.48 
  -1   0   0   32.14    3.32 
   3   0   0   52.01   11.69 
   4   0   0   11.97    1.84 
   5   0   0   12.57    1.89 
   6   0   0    0.30    0.13 
   7   0   0    1.01    0.22 
  -8   1   0    0.14    0.16 
  -7   1   0   -0.11    0.09 
  -6   1   0    2.54    0.24 
  -5   1   0    1.71    0.24 
  -4   1   0    8.07    0.84 
  -3   1   0   29.00    2.97 
  -2   1   0    1.64    0.18 
  -1   1   0   15.45    1.82 
   0   1   0    0.03    0.01 
   1   1   0   15.71    3.15 
   2   1   0    1.69    0.34 
   3   1   0   29.62    5.93 
   4   1   0    8.04    1.18 
   5   1   0    1.61    0.28 
   6   1   0    2.61    0.56 
   7   1   0   -0.14    0.10 
  -9   2   0    0.10    0.28 
  -8   2   0    0.30    0.16 
  -7   2   0    0.06    0.09 
  -6   2   0    2.92    0.30 
  -5   2   0   10.42    1.45 
  -4   2   0    0.81    0.12 
  -3   2   0    9.69    1.07 
  -2   2   0   57.76    6.64 
  -1   2   0    1.07    0.16 
   0   2   0    4.98    0.82 
   1   2   0    0.98    0.15 
   2   2   0   57.24    8.12 
   3   2   0    9.43    1.84 
   4   2   0    0.76    0.20 
   5   2   0   10.19    1.44 
   6   2   0    2.79    0.63 
   7   2   0    0.00    0.12 
  -9   3   0    0.77    0.40 
  -8   3   0    0.30    0.13 
  -7   3   0    0.21    0.09 
  -6   3   0    0.56    0.10 
  -5   3   0    1.69    0.29 
  -4   3   0   -0.03    0.05 
  -3   3   0   33.57    3.70 
  -2   3   0    1.13    0.20 
  -1   3   0   12.25    1.87 
   0   3   0   -0.05    0.03 
   1   3   0   12.29    1.86 
   2   3   0    1.24    0.19 
   3   3   0   32.81    4.52 
   4   3   0   -0.04    0.07 
   5   3   0    1.83    0.38 
   6   3   0    0.64    0.15 
   7   3   0    0.38    0.16 
 -10   4   0   10.89    2.59 
  -9   4   0    0.48    0.21 
  -8   4   0    0.12    0.12 
  -7   4   0    0.42    0.11 
  -6   4   0   14.20    1.29 
  -5   4   0   14.37    1.43 
  -4   4   0    1.69    0.22 
  -3   4   0    9.01    1.19 
  -2   4   0    1.34    0.18 
  -1   4   0  206.14   32.05 
   0   4   0  865.03  135.66 
   1   4   0  208.14   32.05 
   2   4   0    1.03    0.17 
   3   4   0    8.30    1.69 
   4   4   0    1.20    0.35 
   5   4   0   13.73    2.82 
   6   4   0   13.55    2.03 
   7   4   0    0.30    0.17 
 -10   5   0    0.15    0.14 
  -9   5   0    0.73    0.25 
  -8   5   0    0.25    0.14 
  -7   5   0    3.90    0.41 
  -6   5   0    0.38    0.09 
  -5   5   0    1.54    0.15 
  -4   5   0    3.87    0.80 
  -3   5   0   12.25    1.77 
  -2   5   0   68.31   10.04 
  -1   5   0  174.89   27.05 
   0   5   0    0.04    0.05 
   1   5   0  175.02   27.04 
   2   5   0   64.82   14.20 
   3   5   0   11.79    2.50 
   4   5   0    3.94    0.79 
   5   5   0    1.08    0.29 
   6   5   0    0.31    0.12 
   7   5   0    3.18    0.89 
 -11   6   0    0.62    0.14 
 -10   6   0    1.58    0.18 
  -9   6   0    4.94    0.93 
  -8   6   0    2.28    0.34 
  -7   6   0    0.58    0.15 
  -6   6   0    0.03    0.07 
  -5   6   0    0.09    0.07 
  -4   6   0    5.27    1.02 
  -3   6   0    2.02    0.31 
  -2   6   0    0.73    0.13 
  -1   6   0  182.96   27.12 
   0   6   0  136.94   21.17 
   1   6   0  177.45   27.12 
   2   6   0    0.91    0.19 
   3   6   0    2.49    0.45 
   4   6   0    5.54    1.01 
   5   6   0   -0.15    0.10 
   6   6   0    0.03    0.10 
 -12   7   0    0.53    0.13 
 -11   7   0    0.61    0.12 
 -10   7   0   -0.01    0.08 
  -9   7   0    0.08    0.14 
  -8   7   0    0.12    0.13 
  -7   7   0    0.56    0.15 
  -6   7   0    5.25    0.53 
  -5   7   0    7.74    0.73 
  -4   7   0   17.33    1.63 
  -3   7   0    0.29    0.10 
  -2   7   0    9.26    1.39 
  -1   7   0   13.71    2.08 
   0   7   0    0.05    0.06 
   1   7   0   13.61    2.08 
   2   7   0    9.89    1.96 
   3   7   0    0.33    0.14 
   4   7   0   16.06    3.62 
   5   7   0    7.56    1.13 
   6   7   0    5.34    0.67 
   7   7   0    0.67    0.24 
   8   7   0    0.42    0.20 
 -12   8   0    0.04    0.07 
 -11   8   0    1.73    0.18 
 -10   8   0    0.03    0.08 
  -9   8   0    1.77    0.17 
  -8   8   0    1.84    0.27 
  -7   8   0    3.64    0.47 
  -6   8   0    5.90    0.60 
  -5   8   0   33.72    3.34 
  -4   8   0   17.69    1.67 
  -3   8   0    1.68    0.29 
  -2   8   0   16.20    2.37 
  -1   8   0   18.36    2.91 
   0   8   0    0.40    0.09 
   1   8   0   20.61    4.12 
   2   8   0   16.21    3.36 
   3   8   0    1.70    0.41 
   4   8   0   18.08    2.63 
   5   8   0   36.51    5.27 
   6   8   0    5.71    0.76 
   7   8   0    3.57    0.87 
   8   8   0    1.41    0.46 
 -12   9   0    0.03    0.07 
 -11   9   0    1.86    0.18 
 -10   9   0    0.86    0.11 
  -9   9   0    1.75    0.15 
  -8   9   0    0.76    0.18 
  -7   9   0    0.11    0.12 
  -6   9   0    4.57    0.55 
  -5   9   0    0.08    0.08 
  -4   9   0    7.04    0.70 
  -3   9   0    5.62    0.57 
  -2   9   0    7.60    1.19 
  -1   9   0    3.07    0.47 
   0   9   0   -0.09    0.05 
   1   9   0    3.66    0.67 
   2   9   0    8.23    1.69 
   3   9   0    6.32    0.89 
   4   9   0    7.45    1.09 
   5   9   0    0.15    0.10 
   6   9   0    4.43    0.73 
   7   9   0   -0.23    0.12 
   8   9   0    0.78    0.30 
 -12  10   0    0.01    0.06 
 -11  10   0    0.19    0.07 
 -10  10   0    0.11    0.08 
  -9  10   0   -0.08    0.07 
  -8  10   0    0.42    0.15 
  -7  10   0    1.78    0.28 
  -6  10   0    0.78    0.17 
  -5  10   0    0.06    0.08 
  -4  10   0   -0.04    0.07 
  -3  10   0    2.50    0.26 
  -2  10   0   28.47    3.19 
  -1  10   0   16.04    1.91 
   0  10   0    3.38    0.53 
   1  10   0   17.40    2.34 
   2  10   0   33.74    3.68 
   3  10   0    2.55    0.39 
   4  10   0   -0.05    0.08 
   5  10   0    0.04    0.09 
   6  10   0    0.72    0.28 
   7  10   0    1.45    0.48 
   8  10   0    0.40    0.24 
 -12  11   0    0.00    0.06 
 -11  11   0    0.27    0.08 
 -10  11   0    0.33    0.09 
  -9  11   0   -0.06    0.07 
  -8  11   0    1.68    0.14 
  -7  11   0    4.71    0.58 
  -6  11   0    1.86    0.29 
  -5  11   0   -0.07    0.10 
  -4  11   0   -0.02    0.07 
  -3  11   0    0.07    0.07 
  -2  11   0    1.93    0.22 
  -1  11   0   26.54    2.78 
   0  11   0    0.01    0.07 
   1  11   0   28.85    3.21 
   2  11   0    2.31    0.28 
   3  11   0    0.40    0.10 
   4  11   0   -0.23    0.08 
   5  11   0    0.07    0.13 
   6  11   0    1.64    0.52 
   7  11   0    5.07    1.10 
   8  11   0    1.68    0.50 
 -11  12   0    1.37    0.12 
 -10  12   0    0.46    0.09 
  -9  12   0    0.81    0.10 
  -8  12   0    0.31    0.08 
  -7  12   0   -0.07    0.11 
  -6  12   0    2.92    0.37 
  -5  12   0    3.50    0.45 
  -4  12   0    0.14    0.09 
  -3  12   0    0.56    0.11 
  -2  12   0    1.04    0.18 
  -1  12   0   30.83    3.97 
   0  12   0    0.26    0.11 
   1  12   0   36.28    3.96 
   2  12   0    1.55    0.20 
   3  12   0    0.87    0.13 
   4  12   0    0.16    0.09 
   5  12   0    3.44    0.82 
   6  12   0    2.27    0.66 
   7  12   0   -0.17    0.15 
   8  12   0    0.36    0.16 
   9  12   0    0.36    0.28 
 -11  13   0    0.45    0.07 
 -10  13   0    0.11    0.06 
  -9  13   0    0.19    0.08 
  -8  13   0    0.64    0.09 
  -7  13   0    0.28    0.07 
  -6  13   0    0.55    0.16 
  -5  13   0    0.40    0.14 
  -4  13   0    3.36    0.44 
  -3  13   0    3.92    0.51 
  -2  13   0    7.34    1.34 
  -1  13   0    0.04    0.10 
   0  13   0    0.32    0.11 
   1  13   0    0.20    0.10 
   2  13   0    9.55    1.08 
   3  13   0    5.37    0.71 
   4  13   0    3.75    0.58 
   5  13   0    0.90    0.18 
   6  13   0    0.48    0.17 
   7  13   0    0.26    0.15 
   8  13   0    0.43    0.26 
 -11  14   0   -0.05    0.04 
 -10  14   0    0.25    0.06 
  -9  14   0    1.64    0.15 
  -8  14   0    1.38    0.12 
  -7  14   0    0.06    0.07 
  -6  14   0   -0.01    0.13 
  -5  14   0    1.32    0.31 
  -4  14   0    0.25    0.15 
  -3  14   0    1.69    0.43 
  -2  14   0   -0.06    0.15 
  -1  14   0   14.70    2.96 
   0  14   0   17.90    2.64 
   1  14   0   14.84    2.08 
   2  14   0    0.34    0.13 
   3  14   0    2.45    0.41 
   4  14   0    0.13    0.12 
   5  14   0    2.13    0.35 
   6  14   0    0.06    0.12 
   7  14   0    0.08    0.13 
   8  14   0    0.78    0.38 
 -10  15   0    0.16    0.06 
  -9  15   0    0.51    0.08 
  -8  15   0    1.81    0.15 
  -7  15   0    0.52    0.08 
  -6  15   0    0.38    0.08 
  -5  15   0    0.11    0.19 
  -4  15   0    1.04    0.35 
  -3  15   0    0.19    0.19 
  -2  15   0   20.25    4.51 
  -1  15   0    0.72    0.31 
   0  15   0    0.34    0.23 
   1  15   0    1.24    0.34 
   2  15   0   22.78    4.49 
   3  15   0   -0.02    0.11 
   4  15   0    1.69    0.31 
   5  15   0    0.00    0.12 
   6  15   0    0.42    0.16 
   7  15   0    0.43    0.16 
 -10  16   0    0.10    0.04 
  -9  16   0    0.02    0.06 
  -8  16   0    0.29    0.07 
  -7  16   0    1.02    0.10 
  -6  16   0    0.00    0.07 
  -5  16   0    0.08    0.08 
  -4  16   0    0.50    0.28 
  -3  16   0   -0.11    0.18 
  -2  16   0    5.25    1.22 
  -1  16   0    0.47    0.27 
   0  16   0    4.85    1.12 
   1  16   0    0.08    0.23 
   2  16   0    5.69    1.18 
   3  16   0    0.09    0.13 
   4  16   0    1.36    0.26 
   5  16   0    0.15    0.12 
   6  16   0    0.00    0.11 
   7  16   0    0.80    0.19 
  -9  17   0    0.43    0.06 
  -8  17   0    1.36    0.12 
  -7  17   0    0.97    0.10 
  -6  17   0    0.46    0.09 
  -5  17   0    1.61    0.15 
  -4  17   0    0.09    0.09 
  -3  17   0    1.01    0.43 
  -2  17   0   10.70    2.22 
  -1  17   0    6.46    1.39 
   0  17   0    0.07    0.20 
   1  17   0    6.56    1.39 
   2  17   0    9.44    2.17 
   3  17   0    1.39    0.42 
   4  17   0    0.11    0.11 
   5  17   0    1.76    0.30 
   6  17   0    0.38    0.16 
   7  17   0    0.97    0.42 
   8  17   0    2.35    0.54 
   9  17   0    1.09    0.27 
  -9  18   0    0.16    0.04 
  -8  18   0    0.70    0.07 
  -7  18   0   -0.05    0.07 
  -6  18   0   -0.04    0.07 
  -5  18   0   -0.07    0.08 
  -4  18   0    0.45    0.11 
  -3  18   0    7.80    0.55 
  -2  18   0    6.29    0.48 
  -1  18   0    6.28    1.42 
   0  18   0    0.73    0.32 
   1  18   0    4.41    1.38 
   2  18   0    7.41    0.62 
   3  18   0    8.95    0.77 
   4  18   0    0.73    0.21 
   5  18   0   -0.06    0.11 
   6  18   0   -0.04    0.18 
   7  18   0    0.23    0.17 
   8  18   0    0.87    0.29 
   9  18   0    0.25    0.12 
  -8  19   0    0.10    0.05 
  -7  19   0    0.16    0.07 
  -6  19   0    1.01    0.11 
  -5  19   0   -0.12    0.08 
  -4  19   0    0.03    0.09 
  -3  19   0    1.40    0.16 
  -2  19   0    0.90    0.14 
  -1  19   0    4.34    0.42 
   0  19   0   -0.27    0.11 
   1  19   0    5.91    0.51 
   2  19   0    1.12    0.19 
   3  19   0    1.58    0.21 
   4  19   0   -0.01    0.13 
   5  19   0   -0.21    0.14 
   6  19   0    0.80    0.21 
   7  19   0    0.26    0.13 
   8  19   0    0.12    0.13 
  -8  20   0    1.14    0.15 
  -7  20   0    0.94    0.10 
  -6  20   0    0.08    0.07 
  -5  20   0    0.36    0.10 
  -4  20   0   -0.09    0.09 
  -3  20   0    1.38    0.16 
  -2  20   0    2.43    0.23 
  -1  20   0    0.38    0.13 
   0  20   0    0.24    0.13 
   1  20   0    0.63    0.16 
   2  20   0    2.35    0.26 
   3  20   0    1.85    0.21 
   4  20   0   -0.06    0.13 
   5  20   0    0.67    0.16 
   6  20   0    0.19    0.14 
   7  20   0    1.36    0.17 
   8  20   0    1.66    0.21 
  -7  21   0    0.06    0.05 
  -6  21   0    1.44    0.15 
  -5  21   0    0.20    0.08 
  -4  21   0    0.25    0.09 
  -3  21   0    0.89    0.15 
  -2  21   0    1.60    0.20 
  -1  21   0    1.17    0.20 
   0  21   0   -0.14    0.13 
   1  21   0    1.02    0.21 
   2  21   0    1.64    0.22 
   3  21   0    1.27    0.19 
   4  21   0    0.47    0.15 
   5  21   0    0.07    0.11 
   6  21   0    1.53    0.18 
   7  21   0   -0.05    0.08 
  -6  22   0    0.48    0.09 
  -5  22   0    0.57    0.09 
  -4  22   0    0.07    0.08 
  -3  22   0    0.64    0.14 
  -2  22   0   -0.04    0.11 
  -1  22   0   -0.11    0.11 
   0  22   0    0.16    0.15 
   1  22   0   -0.06    0.13 
   2  22   0   -0.01    0.11 
   3  22   0    0.77    0.15 
   4  22   0    0.13    0.11 
   5  22   0    0.71    0.14 
   6  22   0    0.48    0.10 
  -5  23   0    0.67    0.15 
  -4  23   0    0.10    0.09 
  -3  23   0    0.83    0.18 
  -2  23   0    0.02    0.11 
  -1  23   0    0.17    0.10 
   0  23   0   -0.12    0.11 
   1  23   0    0.08    0.12 
   2  23   0    0.09    0.12 
   3  23   0    1.79    0.22 
   4  23   0    0.18    0.10 
   5  23   0    0.83    0.12 
  -3  24   0    0.02    0.07 
  -2  24   0   -0.04    0.08 
  -1  24   0    0.06    0.09 
   0  24   0    0.29    0.11 
   1  24   0   -0.05    0.09 
   2  24   0   -0.08    0.08 
   3  24   0    0.10    0.10 
  -3 -24   1    0.73    0.13 
  -2 -24   1    0.31    0.10 
  -1 -24   1    0.19    0.11 
   0 -24   1    0.39    0.11 
   1 -24   1    0.03    0.09 
   2 -24   1   -0.07    0.08 
   3 -24   1    0.02    0.06 
  -5 -23   1   -0.09    0.08 
  -4 -23   1    0.25    0.10 
  -3 -23   1    2.96    0.31 
  -2 -23   1   -0.02    0.11 
  -1 -23   1   -0.04    0.11 
   0 -23   1    0.19    0.12 
   1 -23   1    0.01    0.10 
   2 -23   1    0.06    0.10 
   3 -23   1    0.03    0.09 
   4 -23   1    0.14    0.08 
  -6 -22   1   -0.02    0.07 
  -5 -22   1    0.10    0.07 
  -4 -22   1    0.06    0.10 
  -3 -22   1   -0.06    0.10 
  -2 -22   1    0.05    0.13 
  -1 -22   1    0.05    0.13 
   0 -22   1    0.36    0.13 
   1 -22   1    0.41    0.14 
   2 -22   1    0.14    0.11 
   3 -22   1    0.69    0.15 
   4 -22   1   -0.01    0.08 
   5 -22   1    0.03    0.08 
   6 -22   1    0.14    0.08 
  -7 -21   1    0.50    0.08 
  -6 -21   1    0.22    0.07 
  -5 -21   1    0.30    0.09 
  -4 -21   1    1.15    0.15 
  -3 -21   1    0.32    0.11 
  -2 -21   1    0.65    0.16 
  -1 -21   1   -0.08    0.13 
   0 -21   1    0.65    0.14 
   1 -21   1    0.15    0.14 
   2 -21   1    0.01    0.12 
   3 -21   1    0.65    0.16 
   4 -21   1    0.02    0.10 
   5 -21   1    0.59    0.13 
   6 -21   1    0.17    0.10 
  -8 -20   1    1.76    0.13 
  -7 -20   1    0.10    0.06 
  -6 -20   1    0.13    0.08 
  -5 -20   1    0.70    0.10 
  -4 -20   1    2.25    0.21 
  -3 -20   1    0.48    0.11 
  -2 -20   1    2.32    0.24 
  -1 -20   1    1.73    0.24 
   0 -20   1   13.50    1.31 
   1 -20   1    4.55    0.42 
   2 -20   1    0.04    0.12 
   3 -20   1    0.17    0.12 
   4 -20   1   -0.29    0.11 
   5 -20   1    0.06    0.16 
   6 -20   1    0.10    0.13 
   7 -20   1    0.62    0.12 
  -8 -19   1    1.86    0.14 
  -7 -19   1    3.06    0.20 
  -6 -19   1    0.52    0.09 
  -5 -19   1    3.62    0.24 
  -4 -19   1    0.13    0.08 
  -3 -19   1   -0.06    0.09 
  -2 -19   1    8.22    0.71 
  -1 -19   1    0.50    0.15 
   0 -19   1    0.32    0.13 
   1 -19   1    0.00    0.12 
   2 -19   1    5.59    0.51 
   3 -19   1    0.52    0.14 
   4 -19   1    0.21    0.14 
   5 -19   1    0.66    0.24 
   6 -19   1    0.00    0.18 
   7 -19   1    0.03    0.14 
   8 -19   1    0.35    0.12 
  -9 -18   1    0.21    0.05 
  -8 -18   1    0.14    0.06 
  -7 -18   1   -0.01    0.06 
  -6 -18   1    0.11    0.08 
  -5 -18   1    0.78    0.10 
  -4 -18   1    0.55    0.10 
  -3 -18   1    0.14    0.09 
  -2 -18   1    4.40    0.32 
  -1 -18   1   -0.19    0.18 
   0 -18   1    5.36    1.16 
   1 -18   1    1.48    0.22 
   2 -18   1    3.66    0.38 
   3 -18   1    0.80    0.19 
   4 -18   1    0.41    0.14 
   5 -18   1    0.09    0.16 
   6 -18   1    1.00    0.31 
   7 -18   1    0.58    0.25 
   8 -18   1    1.13    0.26 
   9 -18   1    0.09    0.08 
 -10 -17   1    0.08    0.08 
  -9 -17   1    0.91    0.08 
  -8 -17   1    2.48    0.14 
  -7 -17   1    0.76    0.09 
  -6 -17   1    0.07    0.08 
  -5 -17   1    0.01    0.08 
  -4 -17   1    2.42    0.17 
  -3 -17   1    0.83    0.26 
  -2 -17   1   13.50    2.50 
  -1 -17   1    5.65    1.20 
   0 -17   1    2.76    0.61 
   1 -17   1    2.39    0.60 
   2 -17   1    1.01    0.40 
   3 -17   1    0.72    0.21 
   4 -17   1    0.12    0.12 
   5 -17   1    0.10    0.14 
   6 -17   1    0.17    0.18 
   8 -17   1   -0.04    0.21 
   9 -17   1    0.00    0.11 
 -10 -16   1    0.05    0.04 
  -9 -16   1    0.27    0.06 
  -8 -16   1    0.44    0.08 
  -7 -16   1    2.27    0.12 
  -6 -16   1    1.31    0.11 
  -5 -16   1   13.15    0.67 
  -4 -16   1    3.17    0.59 
  -3 -16   1   -0.02    0.16 
  -2 -16   1    0.02    0.16 
  -1 -16   1   44.89    8.59 
   0 -16   1   24.12    4.95 
   1 -16   1    7.69    1.78 
   2 -16   1    2.78    0.69 
   3 -16   1    0.07    0.14 
   4 -16   1   -0.04    0.14 
   5 -16   1    1.61    0.39 
   6 -16   1    0.19    0.24 
   7 -16   1   -0.19    0.16 
 -10 -15   1    2.51    0.15 
  -9 -15   1    1.06    0.09 
  -8 -15   1    0.86    0.08 
  -7 -15   1    3.95    0.19 
  -6 -15   1   -0.11    0.06 
  -5 -15   1    2.81    0.47 
  -4 -15   1    0.16    0.12 
  -3 -15   1    0.91    0.21 
  -2 -15   1    7.10    1.10 
  -1 -15   1    0.56    0.27 
   0 -15   1    9.58    1.81 
   1 -15   1    0.38    0.23 
   2 -15   1   -0.11    0.12 
   3 -15   1    0.37    0.17 
   4 -15   1    0.05    0.14 
   5 -15   1    1.61    0.32 
   6 -15   1   -0.16    0.21 
   7 -15   1    0.00    0.21 
 -11 -14   1    0.18    0.05 
 -10 -14   1    0.05    0.06 
  -9 -14   1    0.14    0.07 
  -8 -14   1    4.11    0.19 
  -7 -14   1    1.50    0.10 
  -6 -14   1    0.06    0.11 
  -5 -14   1   -0.22    0.10 
  -4 -14   1   12.85    1.56 
  -3 -14   1    4.28    0.56 
  -2 -14   1   16.56    2.17 
  -1 -14   1    0.92    0.18 
   0 -14   1   -0.09    0.11 
   1 -14   1   -0.24    0.12 
   2 -14   1   10.10    1.59 
   3 -14   1    0.51    0.17 
   4 -14   1    0.06    0.13 
   5 -14   1    0.21    0.16 
   6 -14   1    0.12    0.20 
   7 -14   1   -0.01    0.20 
   8 -14   1    2.58    0.65 
 -11 -13   1    3.34    0.20 
 -10 -13   1    0.44    0.08 
  -9 -13   1    1.81    0.11 
  -8 -13   1    1.30    0.10 
  -7 -13   1    3.74    0.20 
  -6 -13   1    0.88    0.19 
  -5 -13   1    0.08    0.10 
  -4 -13   1    1.66    0.22 
  -3 -13   1    0.44    0.12 
  -2 -13   1    0.03    0.10 
  -1 -13   1   18.91    2.48 
   0 -13   1    4.80    0.80 
   1 -13   1    0.05    0.11 
   2 -13   1    4.66    0.63 
   3 -13   1    0.56    0.18 
   4 -13   1    3.84    0.59 
   5 -13   1   -0.01    0.14 
   6 -13   1    0.73    0.32 
   7 -13   1    1.60    0.52 
   8 -13   1    0.29    0.26 
 -11 -12   1    4.20    0.23 
 -10 -12   1    0.46    0.08 
  -9 -12   1   -0.02    0.06 
  -8 -12   1   -0.03    0.06 
  -7 -12   1    1.29    0.23 
  -6 -12   1    3.75    0.52 
  -5 -12   1    0.72    0.16 
  -4 -12   1    1.49    0.17 
  -3 -12   1    0.33    0.10 
  -2 -12   1    4.01    0.45 
  -1 -12   1   47.93    5.97 
   0 -12   1    0.41    0.14 
   1 -12   1    9.40    1.23 
   2 -12   1    2.03    0.27 
   3 -12   1    3.64    0.46 
   4 -12   1    4.48    0.78 
   5 -12   1    4.09    0.75 
   6 -12   1    0.05    0.22 
   7 -12   1    2.11    0.62 
   8 -12   1    0.73    0.34 
   9 -12   1    1.99    0.55 
 -12 -11   1    0.32    0.06 
 -11 -11   1    0.07    0.06 
 -10 -11   1    5.76    0.31 
  -9 -11   1    1.25    0.10 
  -8 -11   1    5.97    0.28 
  -7 -11   1    1.10    0.20 
  -6 -11   1    2.17    0.33 
  -5 -11   1    2.87    0.35 
  -4 -11   1   -0.04    0.06 
  -3 -11   1    5.76    0.53 
  -2 -11   1   10.50    1.14 
  -1 -11   1    3.60    0.51 
   0 -11   1    3.30    0.54 
   1 -11   1    0.74    0.15 
   2 -11   1   35.94    4.25 
   3 -11   1    1.31    0.21 
   4 -11   1    1.04    0.19 
   5 -11   1    0.23    0.15 
   6 -11   1    0.10    0.21 
   7 -11   1    0.61    0.34 
   8 -11   1    0.17    0.24 
   9 -11   1    0.00    0.23 
 -12 -10   1    0.10    0.06 
 -11 -10   1    1.01    0.10 
 -10 -10   1   -0.13    0.06 
  -9 -10   1    0.95    0.09 
  -8 -10   1   -0.02    0.10 
  -7 -10   1   10.70    1.04 
  -6 -10   1    0.93    0.14 
  -5 -10   1    0.23    0.08 
  -4 -10   1   -0.07    0.06 
  -3 -10   1    3.45    0.33 
  -2 -10   1    0.56    0.11 
  -1 -10   1    9.54    1.47 
   0 -10   1   16.24    2.35 
   1 -10   1    0.40    0.12 
   2 -10   1   73.18    8.59 
   3 -10   1   25.12    3.56 
   4 -10   1   -0.05    0.08 
   5 -10   1    1.52    0.28 
   7 -10   1   -0.46    0.20 
   8 -10   1    0.30    0.29 
   9 -10   1    2.19    0.68 
 -12  -9   1    1.31    0.12 
 -11  -9   1    2.08    0.16 
 -10  -9   1    0.80    0.09 
  -9  -9   1    3.50    0.20 
  -8  -9   1    2.81    0.31 
  -7  -9   1    1.33    0.17 
  -6  -9   1    4.38    0.42 
  -5  -9   1    0.09    0.06 
  -4  -9   1    8.29    0.66 
  -3  -9   1    0.00    0.06 
  -2  -9   1   11.65    1.86 
  -1  -9   1   55.15    8.08 
   0  -9   1   20.69    3.95 
   1  -9   1   81.40   15.77 
   2  -9   1   64.06   11.67 
   3  -9   1    3.67    0.53 
   4  -9   1   49.73    7.27 
   5  -9   1    0.29    0.13 
   8  -9   1    0.25    0.25 
   9  -9   1    3.59    0.78 
 -12  -8   1    0.07    0.07 
 -11  -8   1    0.62    0.10 
 -10  -8   1    4.66    0.25 
  -9  -8   1   11.97    0.59 
  -8  -8   1    0.64    0.14 
  -7  -8   1    1.42    0.19 
  -6  -8   1    6.59    0.56 
  -5  -8   1    9.85    0.83 
  -4  -8   1    2.45    0.25 
  -3  -8   1    0.67    0.16 
  -2  -8   1   -0.09    0.07 
  -1  -8   1    5.35    0.80 
   0  -8   1    0.02    0.11 
   1  -8   1   39.41    7.28 
   2  -8   1   15.74    2.75 
   3  -8   1    6.69    1.30 
   4  -8   1   14.42    2.08 
   5  -8   1    0.93    0.19 
   6  -8   1    0.15    0.16 
   9  -8   1    0.43    0.29 
 -12  -7   1    0.25    0.08 
 -11  -7   1    3.42    0.21 
 -10  -7   1    0.07    0.08 
  -9  -7   1    0.07    0.12 
  -8  -7   1    1.20    0.18 
  -7  -7   1    0.29    0.10 
  -6  -7   1    3.13    0.29 
  -5  -7   1    2.25    0.21 
  -4  -7   1    0.11    0.05 
  -3  -7   1    0.03    0.09 
  -2  -7   1   15.68    2.55 
  -1  -7   1    7.93    1.21 
   0  -7   1    4.84    0.69 
   1  -7   1    0.05    0.10 
   2  -7   1    0.72    0.18 
   3  -7   1    2.39    0.54 
   4  -7   1    2.39    0.57 
   5  -7   1   23.13    3.24 
   6  -7   1   -0.04    0.13 
 -12  -6   1    0.34    0.10 
 -11  -6   1    4.14    0.30 
 -10  -6   1    3.88    0.25 
  -9  -6   1    1.90    0.27 
  -8  -6   1    8.13    0.96 
  -7  -6   1    7.95    0.73 
  -6  -6   1    0.08    0.06 
  -5  -6   1    0.63    0.09 
  -4  -6   1   -0.07    0.09 
  -3  -6   1    2.71    0.50 
  -2  -6   1   19.99    3.11 
  -1  -6   1   17.00    2.54 
   0  -6   1    4.51    0.63 
   1  -6   1   96.53   22.52 
   2  -6   1   17.44    3.19 
   3  -6   1    0.60    0.17 
   4  -6   1    8.45    1.76 
   5  -6   1    9.54    1.36 
   6  -6   1    0.71    0.31 
 -12  -5   1    2.37    0.30 
 -11  -5   1    3.56    0.27 
 -10  -5   1    0.78    0.11 
  -9  -5   1    9.47    1.07 
  -8  -5   1    3.05    0.39 
  -7  -5   1    2.05    0.21 
  -6  -5   1   11.89    1.03 
  -5  -5   1   12.07    1.14 
  -4  -5   1    2.75    0.47 
  -3  -5   1   12.52    1.92 
  -2  -5   1   45.35    7.01 
  -1  -5   1  237.13   34.52 
   0  -5   1    3.71    0.54 
   1  -5   1  180.28   42.36 
   2  -5   1   65.10   12.42 
   3  -5   1    0.92    0.26 
   4  -5   1   69.14   14.77 
   5  -5   1   -0.04    0.11 
   6  -5   1    0.20    0.14 
   7  -5   1   -0.03    0.15 
 -11  -4   1    0.50    0.13 
 -10  -4   1   -0.06    0.09 
  -9  -4   1    3.45    0.45 
  -8  -4   1    1.42    0.22 
  -7  -4   1    4.23    0.41 
  -6  -4   1    5.01    0.45 
  -5  -4   1   -0.01    0.09 
  -4  -4   1    2.77    0.47 
  -3  -4   1    0.17    0.10 
  -2  -4   1   12.62    1.94 
  -1  -4   1   17.76    2.13 
   0  -4   1  413.66   94.29 
   1  -4   1  385.57   70.01 
   2  -4   1    4.06    0.61 
   3  -4   1    7.22    1.64 
   4  -4   1   26.78    5.95 
   5  -4   1    0.08    0.13 
   6  -4   1    2.15    0.65 
   7  -4   1    0.10    0.15 
 -10  -3   1    5.80    0.50 
  -9  -3   1    1.35    0.24 
  -8  -3   1    1.03    0.20 
  -7  -3   1    4.45    0.43 
  -6  -3   1    4.25    0.38 
  -5  -3   1    0.00    0.08 
  -4  -3   1    0.55    0.14 
  -3  -3   1   22.40    2.82 
  -2  -3   1    0.05    0.07 
  -1  -3   1   15.98    1.89 
   0  -3   1   17.98    2.56 
   1  -3   1  184.76   35.61 
   2  -3   1  107.21   17.39 
   3  -3   1    0.82    0.16 
   4  -3   1   43.50    7.09 
   5  -3   1    1.09    0.34 
   6  -3   1    2.93    0.75 
   7  -3   1    0.31    0.12 
 -10  -2   1    9.87    1.46 
  -9  -2   1    4.90    0.73 
  -8  -2   1    9.51    1.10 
  -7  -2   1    2.08    0.22 
  -6  -2   1    6.55    0.55 
  -5  -2   1    0.01    0.07 
  -4  -2   1   23.99    2.95 
  -3  -2   1  423.86   52.07 
  -2  -2   1  591.62   73.94 
  -1  -2   1    2.89    0.35 
   0  -2   1   10.40    1.92 
   1  -2   1    0.01    0.05 
   2  -2   1   30.08    4.99 
   3  -2   1  100.94   17.27 
   4  -2   1    8.00    1.43 
   5  -2   1   -0.15    0.08 
   6  -2   1    0.95    0.27 
   7  -2   1    0.09    0.15 
 -10  -1   1    3.00    0.79 
  -9  -1   1    1.46    0.31 
  -8  -1   1    0.23    0.12 
  -7  -1   1    0.00    0.07 
  -6  -1   1   -0.07    0.05 
  -5  -1   1    5.62    0.70 
  -4  -1   1   98.34   12.20 
  -3  -1   1   66.21    8.18 
  -2  -1   1   29.16    3.58 
  -1  -1   1    2.08    0.26 
   0  -1   1  180.10   37.21 
   1  -1   1    9.14    2.02 
   3  -1   1    0.09    0.08 
   4  -1   1    0.89    0.15 
   5  -1   1   15.26    2.69 
   6  -1   1    2.19    0.41 
 -10   0   1    0.18    0.23 
  -9   0   1   -0.18    0.12 
  -8   0   1   -0.22    0.09 
  -7   0   1   -0.11    0.08 
  -6   0   1   -0.06    0.07 
  -5   0   1    0.06    0.07 
  -4   0   1   -0.02    0.06 
  -3   0   1    0.00    0.05 
  -2   0   1    0.02    0.04 
  -1   0   1    0.00    0.03 
   0   0   1    0.02    0.01 
   1   0   1   -0.06    0.03 
   5   0   1   -0.06    0.04 
   6   0   1    0.03    0.07 
 -10   1   1    3.43    0.82 
  -9   1   1    1.43    0.32 
  -8   1   1    0.27    0.12 
  -7   1   1   -0.09    0.08 
  -6   1   1    0.01    0.06 
  -5   1   1    5.99    0.87 
  -4   1   1  105.98   12.20 
  -3   1   1   72.36    8.18 
  -2   1   1   30.73    3.58 
  -1   1   1    2.06    0.32 
   0   1   1  181.71   37.21 
   1   1   1   10.35    2.02 
   2   1   1   19.99    3.94 
   3   1   1    0.06    0.06 
   4   1   1    0.86    0.14 
   5   1   1   20.35    2.69 
   6   1   1    2.43    0.34 
 -10   2   1    9.33    1.48 
  -9   2   1    3.97    0.73 
  -8   2   1    8.50    1.11 
  -7   2   1    1.75    0.22 
  -6   2   1    6.66    0.56 
  -5   2   1    0.13    0.10 
  -4   2   1   25.21    3.62 
  -3   2   1  456.88   52.07 
  -2   2   1  642.77   73.94 
  -1   2   1    2.75    0.35 
   0   2   1    8.36    1.35 
   1   2   1    0.04    0.03 
   2   2   1   36.64    4.99 
   3   2   1  125.97   17.27 
   4   2   1   10.57    1.43 
   5   2   1    0.03    0.11 
   6   2   1    0.85    0.18 
   7   2   1   -0.01    0.13 
 -10   3   1    4.83    0.46 
  -9   3   1    1.37    0.32 
  -8   3   1    1.40    0.23 
  -7   3   1    4.06    0.43 
  -6   3   1    4.20    0.38 
  -5   3   1   -0.05    0.08 
  -4   3   1    0.70    0.14 
  -3   3   1   25.45    2.82 
  -2   3   1    0.09    0.04 
  -1   3   1   15.25    2.31 
   0   3   1   16.88    2.56 
   1   3   1  169.16   25.18 
   2   3   1  124.76   17.39 
   3   3   1    0.88    0.16 
   4   3   1   51.85    7.09 
   5   3   1    1.15    0.34 
   6   3   1    2.61    0.52 
   7   3   1    0.33    0.20 
 -11   4   1    0.63    0.17 
 -10   4   1    0.10    0.10 
  -9   4   1    2.86    0.46 
  -8   4   1    1.01    0.22 
  -7   4   1    3.75    0.42 
  -6   4   1    5.00    0.46 
  -5   4   1    0.06    0.10 
  -4   4   1    3.37    0.48 
  -3   4   1    0.46    0.08 
  -2   4   1   13.42    1.93 
  -1   4   1   16.54    2.61 
   0   4   1  445.73   66.68 
   1   4   1  324.11   49.50 
   2   4   1    4.34    0.61 
   3   4   1    8.14    1.15 
   4   4   1   30.88    5.95 
   5   4   1    0.36    0.15 
   6   4   1    2.86    0.65 
   7   4   1    0.15    0.16 
 -12   5   1    1.90    0.34 
 -11   5   1    2.47    0.27 
 -10   5   1    0.68    0.11 
  -9   5   1    7.75    1.08 
  -8   5   1    2.23    0.39 
  -7   5   1    1.95    0.23 
  -6   5   1   12.61    1.13 
  -5   5   1   12.02    1.28 
  -4   5   1    3.33    0.65 
  -3   5   1   13.06    1.91 
  -2   5   1   47.61    7.00 
  -1   5   1  219.27   34.51 
   0   5   1    3.17    0.53 
   1   5   1  201.86   29.97 
   2   5   1   59.67    8.77 
   3   5   1    1.14    0.26 
   4   5   1   72.33   14.76 
   5   5   1   -0.17    0.09 
   6   5   1    0.20    0.14 
 -12   6   1    0.18    0.10 
 -11   6   1    2.71    0.29 
 -10   6   1    3.07    0.23 
  -9   6   1    1.39    0.28 
  -8   6   1    6.93    0.98 
  -7   6   1    7.54    0.73 
  -6   6   1    0.14    0.07 
  -5   6   1    0.60    0.10 
  -4   6   1    0.13    0.12 
  -3   6   1    3.06    0.48 
  -2   6   1   20.47    3.10 
  -1   6   1   15.99    2.53 
   0   6   1    3.93    0.62 
   1   6   1  106.71   15.93 
   2   6   1   15.25    3.18 
   3   6   1    0.30    0.15 
   4   6   1    8.64    1.76 
   5   6   1   10.15    1.92 
   6   6   1    1.44    0.34 
 -12   7   1    0.13    0.08 
 -11   7   1    1.83    0.21 
 -10   7   1    0.04    0.08 
  -9   7   1    0.00    0.13 
  -8   7   1    1.15    0.20 
  -7   7   1    0.35    0.11 
  -6   7   1    2.65    0.31 
  -5   7   1    2.39    0.24 
  -4   7   1    0.22    0.07 
  -3   7   1    0.00    0.12 
  -2   7   1   17.02    2.54 
  -1   7   1    7.61    1.20 
   0   7   1    4.17    0.68 
   1   7   1    0.05    0.06 
   2   7   1    0.47    0.16 
   3   7   1    2.75    0.54 
   4   7   1    2.21    0.56 
   5   7   1   21.02    3.23 
   6   7   1   -0.01    0.09 
 -12   8   1    0.15    0.07 
 -11   8   1    0.32    0.10 
 -10   8   1    3.06    0.23 
  -9   8   1    9.39    0.57 
  -8   8   1    0.45    0.16 
  -7   8   1    1.18    0.21 
  -6   8   1    5.98    0.61 
  -5   8   1    9.31    0.92 
  -4   8   1    2.67    0.28 
  -3   8   1    0.72    0.22 
  -2   8   1    0.05    0.07 
  -1   8   1    5.35    0.79 
   0   8   1    0.08    0.07 
   1   8   1   33.67    7.27 
   2   8   1   12.80    2.74 
   3   8   1    5.24    1.29 
   4   8   1   13.95    2.07 
   5   8   1    0.91    0.17 
   6   8   1   -0.09    0.08 
 -12   9   1    1.31    0.12 
 -11   9   1    1.91    0.17 
 -10   9   1    0.54    0.09 
  -9   9   1    2.98    0.21 
  -8   9   1    2.03    0.32 
  -7   9   1    0.92    0.19 
  -6   9   1    4.16    0.48 
  -5   9   1    0.24    0.08 
  -4   9   1    7.85    0.78 
  -3   9   1    0.02    0.07 
  -2   9   1   12.50    1.86 
  -1   9   1   53.81    8.08 
   0   9   1   18.45    2.78 
   1   9   1   76.10   15.76 
   2   9   1   58.32   11.66 
   3   9   1    3.15    0.52 
   4   9   1   49.34    7.26 
   5   9   1    0.32    0.11 
   6   9   1    0.11    0.14 
 -12  10   1    0.04    0.06 
 -11  10   1    0.81    0.11 
 -10  10   1    0.00    0.07 
  -9  10   1    0.61    0.10 
  -8  10   1    0.08    0.12 
  -7  10   1    8.91    1.06 
  -6  10   1    0.49    0.15 
  -5  10   1    0.34    0.10 
  -4  10   1    0.04    0.07 
  -3  10   1    3.53    0.36 
  -2  10   1    0.66    0.10 
  -1  10   1    9.53    1.19 
   0  10   1   15.88    2.34 
   1  10   1    0.32    0.08 
   2  10   1   79.57    8.59 
   3  10   1   26.86    2.91 
   4  10   1    0.12    0.09 
   5  10   1    1.76    0.29 
   6  10   1    0.07    0.17 
   9  10   1    2.51    0.67 
 -12  11   1    0.29    0.06 
 -11  11   1    0.00    0.06 
 -10  11   1    4.28    0.29 
  -9  11   1    0.88    0.11 
  -8  11   1    4.60    0.27 
  -7  11   1    0.82    0.19 
  -6  11   1    2.49    0.32 
  -5  11   1    2.71    0.36 
  -4  11   1    0.04    0.08 
  -3  11   1    6.16    0.59 
  -2  11   1    9.66    1.32 
  -1  11   1    4.03    0.62 
   0  11   1    3.61    0.43 
   1  11   1    0.97    0.15 
   2  11   1   38.83    4.25 
   3  11   1    1.55    0.20 
   4  11   1    1.21    0.19 
   5  11   1    0.78    0.22 
   6  11   1    0.28    0.17 
   8  11   1    0.27    0.21 
   9  11   1    0.09    0.21 
 -11  12   1    3.07    0.23 
 -10  12   1    0.36    0.08 
  -9  12   1    0.10    0.07 
  -8  12   1    0.06    0.08 
  -7  12   1    0.86    0.21 
  -6  12   1    3.84    0.48 
  -5  12   1    0.73    0.16 
  -4  12   1    1.44    0.19 
  -3  12   1    0.23    0.10 
  -2  12   1    3.01    0.51 
  -1  12   1   50.35    7.31 
   0  12   1    0.70    0.12 
   1  12   1   11.17    1.23 
   2  12   1    2.16    0.26 
   3  12   1    3.76    0.45 
   4  12   1    5.47    0.77 
   5  12   1    4.75    0.73 
   6  12   1    0.21    0.13 
   7  12   1    2.88    0.62 
   8  12   1    0.52    0.29 
   9  12   1    2.00    0.50 
 -11  13   1    3.01    0.21 
 -10  13   1    0.40    0.08 
  -9  13   1    1.24    0.12 
  -8  13   1    1.03    0.11 
  -7  13   1    2.75    0.22 
  -6  13   1    0.75    0.22 
  -5  13   1    0.12    0.11 
  -4  13   1    0.97    0.25 
  -3  13   1    0.17    0.13 
  -2  13   1    0.20    0.18 
  -1  13   1   20.06    3.04 
   0  13   1    5.29    0.64 
   1  13   1    0.06    0.08 
   2  13   1    5.61    0.63 
   3  13   1    0.64    0.16 
   4  13   1    4.31    0.57 
   5  13   1   -0.15    0.10 
   6  13   1    0.73    0.20 
   7  13   1    1.44    0.44 
   8  13   1   -0.07    0.19 
 -11  14   1    0.11    0.05 
 -10  14   1    0.07    0.06 
  -9  14   1    0.15    0.07 
  -8  14   1    2.76    0.18 
  -7  14   1    1.04    0.11 
  -6  14   1    0.00    0.15 
  -5  14   1    0.10    0.14 
  -4  14   1   11.39    1.92 
  -3  14   1    2.83    0.69 
  -2  14   1   18.04    3.77 
  -1  14   1    1.19    0.33 
   0  14   1   -0.06    0.10 
   1  14   1   -0.07    0.07 
   2  14   1   12.23    1.59 
   3  14   1    0.39    0.15 
   4  14   1    0.21    0.13 
   5  14   1    0.50    0.15 
   6  14   1    0.05    0.12 
   7  14   1   -0.03    0.17 
   8  14   1    2.27    0.62 
 -10  15   1    1.93    0.14 
  -9  15   1    0.66    0.09 
  -8  15   1    0.77    0.09 
  -7  15   1    2.95    0.19 
  -6  15   1    0.03    0.07 
  -5  15   1    2.49    0.52 
  -4  15   1    0.29    0.20 
  -3  15   1   -0.27    0.24 
  -2  15   1    6.62    1.56 
  -1  15   1    0.49    0.26 
   0  15   1    7.81    1.78 
   1  15   1    0.21    0.14 
   2  15   1    0.02    0.12 
   3  15   1    0.38    0.16 
   4  15   1    0.26    0.15 
   5  15   1    1.87    0.32 
   6  15   1   -0.03    0.11 
   7  15   1    0.18    0.19 
 -10  16   1    0.00    0.04 
  -9  16   1    0.19    0.06 
  -8  16   1    0.33    0.08 
  -7  16   1    1.68    0.12 
  -6  16   1    1.18    0.12 
  -5  16   1   11.53    0.70 
  -4  16   1    2.95    0.88 
  -3  16   1    0.00    0.24 
  -2  16   1   -0.30    0.19 
  -1  16   1   36.47    8.57 
   0  16   1   21.66    4.94 
   1  16   1    8.88    1.78 
   2  16   1    2.86    0.48 
   3  16   1    0.41    0.16 
   4  16   1   -0.18    0.13 
   5  16   1    2.03    0.33 
   6  16   1   -0.05    0.15 
   7  16   1    0.02    0.15 
  10  16   1    0.17    0.15 
 -10  17   1   -0.05    0.08 
  -9  17   1    0.74    0.08 
  -8  17   1    2.01    0.14 
  -7  17   1    0.44    0.08 
  -6  17   1   -0.05    0.08 
  -5  17   1    0.16    0.09 
  -4  17   1    2.20    0.19 
  -3  17   1    0.57    0.37 
  -2  17   1   10.57    2.48 
  -1  17   1    3.72    1.14 
   0  17   1    1.51    0.53 
   1  17   1    2.61    0.58 
   2  17   1    0.77    0.34 
   3  17   1    0.43    0.20 
   4  17   1   -0.08    0.12 
   5  17   1    0.05    0.12 
   6  17   1    0.15    0.16 
   7  17   1   -0.35    0.24 
   8  17   1   -0.01    0.20 
   9  17   1    0.18    0.17 
  -9  18   1    0.23    0.05 
  -8  18   1    0.06    0.06 
  -7  18   1    0.05    0.07 
  -6  18   1    0.10    0.08 
  -5  18   1    0.84    0.12 
  -4  18   1    0.67    0.11 
  -3  18   1    0.20    0.11 
  -2  18   1    3.79    0.34 
  -1  18   1   -0.08    0.22 
   0  18   1    4.57    1.11 
   1  18   1    2.09    0.27 
   2  18   1    3.26    0.37 
   3  18   1    0.87    0.19 
   4  18   1    0.29    0.12 
   5  18   1    0.12    0.12 
   6  18   1    1.81    0.47 
   7  18   1   -0.30    0.20 
   8  18   1    1.64    0.27 
   9  18   1    0.32    0.15 
  -8  19   1    1.54    0.13 
  -7  19   1    2.61    0.20 
  -6  19   1    0.46    0.09 
  -5  19   1    3.29    0.27 
  -4  19   1   -0.12    0.08 
  -3  19   1   -0.05    0.10 
  -2  19   1    7.82    0.63 
  -1  19   1    0.23    0.14 
   0  19   1    0.10    0.13 
   1  19   1   -0.04    0.13 
   2  19   1    6.15    0.56 
   3  19   1    0.52    0.15 
   4  19   1    0.32    0.14 
   5  19   1    0.59    0.18 
   6  19   1    0.52    0.19 
   7  19   1   -0.02    0.13 
   8  19   1    0.25    0.11 
  -8  20   1    1.64    0.12 
  -7  20   1    0.14    0.07 
  -6  20   1    0.15    0.08 
  -5  20   1    0.38    0.10 
  -4  20   1    1.79    0.21 
  -3  20   1    0.55    0.12 
  -2  20   1    2.37    0.23 
  -1  20   1    1.03    0.22 
   0  20   1   14.13    1.20 
   1  20   1    3.84    0.38 
   2  20   1    0.04    0.13 
   3  20   1    0.01    0.11 
   4  20   1   -0.08    0.13 
   5  20   1    0.21    0.13 
   6  20   1    0.45    0.15 
   7  20   1    0.94    0.15 
  -7  21   1    0.84    0.09 
  -6  21   1    0.27    0.07 
  -5  21   1    0.39    0.09 
  -4  21   1    0.96    0.14 
  -3  21   1    0.10    0.11 
  -2  21   1    0.39    0.16 
  -1  21   1    0.05    0.15 
   0  21   1    0.58    0.16 
   1  21   1    0.13    0.14 
   2  21   1   -0.03    0.14 
   3  21   1    0.59    0.15 
   4  21   1   -0.14    0.10 
   5  21   1    0.62    0.13 
   6  21   1    0.27    0.11 
  -6  22   1    0.04    0.06 
  -5  22   1    0.06    0.07 
  -4  22   1    0.14    0.09 
  -3  22   1    0.01    0.09 
  -2  22   1   -0.04    0.13 
  -1  22   1   -0.08    0.13 
   0  22   1    0.41    0.15 
   1  22   1    0.21    0.13 
   2  22   1   -0.11    0.12 
   3  22   1    0.77    0.17 
   4  22   1    0.02    0.10 
   5  22   1   -0.01    0.10 
   6  22   1    0.31    0.09 
  -5  23   1   -0.06    0.07 
  -4  23   1    0.45    0.11 
  -3  23   1    2.72    0.29 
  -2  23   1    0.05    0.11 
  -1  23   1    0.10    0.12 
   0  23   1    0.09    0.12 
   1  23   1    0.03    0.10 
   2  23   1    0.03    0.11 
   3  23   1   -0.06    0.10 
   4  23   1   -0.07    0.09 
  -3  24   1    0.56    0.13 
  -2  24   1    0.39    0.11 
  -1  24   1    0.06    0.10 
   0  24   1    0.22    0.11 
   1  24   1   -0.12    0.10 
   2  24   1    0.03    0.09 
   3  24   1    0.13    0.09 
  -3 -24   2    1.60    0.18 
  -2 -24   2    0.32    0.10 
  -1 -24   2   -0.16    0.09 
   0 -24   2   -0.09    0.11 
   1 -24   2   -0.17    0.08 
   2 -24   2   -0.13    0.07 
  -5 -23   2   -0.01    0.07 
  -4 -23   2    0.05    0.08 
  -3 -23   2    1.21    0.17 
  -2 -23   2    0.04    0.11 
  -1 -23   2   -0.13    0.11 
   0 -23   2    0.30    0.11 
   1 -23   2    0.14    0.11 
   2 -23   2    0.33    0.11 
   3 -23   2    0.11    0.09 
   4 -23   2    0.07    0.07 
  -6 -22   2    0.38    0.09 
  -5 -22   2    0.09    0.08 
  -4 -22   2    0.13    0.10 
  -3 -22   2    1.19    0.20 
  -2 -22   2    4.69    0.51 
  -1 -22   2    0.26    0.14 
   0 -22   2   -0.04    0.10 
   1 -22   2    0.08    0.12 
   2 -22   2    0.54    0.14 
   3 -22   2   -0.09    0.11 
   4 -22   2    0.09    0.09 
   5 -22   2   -0.04    0.08 
  -7 -21   2    0.09    0.06 
  -6 -21   2    1.05    0.11 
  -5 -21   2    0.64    0.12 
  -4 -21   2    0.22    0.10 
  -3 -21   2    3.29    0.34 
  -2 -21   2    3.70    0.34 
  -1 -21   2    0.39    0.15 
   0 -21   2    0.27    0.13 
   1 -21   2   -0.11    0.14 
   2 -21   2    0.00    0.12 
   3 -21   2    0.51    0.14 
   4 -21   2    0.64    0.13 
   5 -21   2   -0.12    0.08 
   6 -21   2   -0.08    0.08 
  -8 -20   2    0.01    0.04 
  -7 -20   2    0.62    0.09 
  -6 -20   2    1.29    0.13 
  -5 -20   2    1.89    0.17 
  -4 -20   2    1.26    0.16 
  -3 -20   2    0.40    0.11 
  -2 -20   2    0.06    0.10 
  -1 -20   2   -0.04    0.12 
   0 -20   2    0.00    0.11 
   1 -20   2    0.63    0.15 
   2 -20   2    0.08    0.11 
   3 -20   2   -0.07    0.11 
   4 -20   2    0.14    0.12 
   5 -20   2   -0.02    0.11 
   6 -20   2    0.04    0.12 
   7 -20   2   -0.14    0.08 
  -8 -19   2    0.74    0.08 
  -7 -19   2    0.16    0.07 
  -6 -19   2    1.91    0.15 
  -5 -19   2    1.46    0.15 
  -4 -19   2    2.27    0.20 
  -3 -19   2    1.48    0.17 
  -2 -19   2    2.52    0.24 
  -1 -19   2    2.02    0.25 
   0 -19   2    0.00    0.12 
   1 -19   2   -0.01    0.12 
   2 -19   2    1.07    0.17 
   3 -19   2    0.11    0.12 
   4 -19   2   -0.18    0.12 
   5 -19   2   -0.28    0.12 
   6 -19   2   -0.17    0.16 
   7 -19   2   -0.18    0.13 
   8 -19   2    0.03    0.09 
  -9 -18   2    0.01    0.04 
  -8 -18   2    0.24    0.07 
  -7 -18   2    0.35    0.07 
  -6 -18   2    0.48    0.09 
  -5 -18   2    0.39    0.09 
  -4 -18   2    2.87    0.20 
  -3 -18   2   22.80    1.57 
  -2 -18   2   43.02    3.09 
  -1 -18   2    0.61    0.14 
   0 -18   2    0.05    0.13 
   1 -18   2    0.08    0.12 
   2 -18   2    1.75    0.25 
   3 -18   2    1.19    0.21 
   4 -18   2    0.02    0.13 
   5 -18   2   -0.05    0.11 
   6 -18   2   -0.27    0.25 
   7 -18   2    3.46    0.56 
   8 -18   2    4.23    0.84 
 -10 -17   2    0.30    0.04 
  -9 -17   2    0.00    0.05 
  -8 -17   2    0.11    0.06 
  -7 -17   2    0.14    0.07 
  -6 -17   2   -0.08    0.07 
  -5 -17   2    0.17    0.09 
  -4 -17   2    1.37    0.14 
  -3 -17   2    7.25    1.19 
  -2 -17   2    1.10    0.29 
  -1 -17   2    9.27    1.96 
   0 -17   2   -0.27    0.18 
   1 -17   2    0.68    0.33 
   2 -17   2    0.02    0.20 
   3 -17   2    0.11    0.15 
   4 -17   2    0.12    0.13 
   5 -17   2   -0.07    0.13 
   6 -17   2    0.58    0.21 
   7 -17   2    0.66    0.34 
   8 -17   2    0.52    0.26 
   9 -17   2    0.23    0.15 
 -10 -16   2    0.70    0.06 
  -9 -16   2    0.16    0.06 
  -8 -16   2    2.64    0.15 
  -7 -16   2    1.54    0.11 
  -6 -16   2    8.82    0.44 
  -5 -16   2    0.39    0.10 
  -4 -16   2    0.74    0.25 
  -3 -16   2    4.17    0.74 
  -2 -16   2    1.68    0.35 
  -1 -16   2    7.27    1.52 
   0 -16   2   12.16    2.52 
   1 -16   2    2.23    0.59 
   2 -16   2    2.32    0.71 
   3 -16   2    3.20    0.62 
   4 -16   2    0.12    0.15 
   5 -16   2    4.01    0.57 
   6 -16   2    0.10    0.23 
 -11 -15   2    0.78    0.07 
 -10 -15   2    0.43    0.06 
  -9 -15   2    0.63    0.08 
  -8 -15   2    0.91    0.08 
  -7 -15   2    1.48    0.10 
  -6 -15   2    0.40    0.08 
  -5 -15   2    0.28    0.16 
  -4 -15   2   25.11    3.90 
  -3 -15   2    7.78    1.20 
  -2 -15   2    1.43    0.32 
  -1 -15   2    3.12    0.52 
   0 -15   2    0.26    0.21 
   1 -15   2    2.78    0.72 
   2 -15   2    2.13    0.57 
   3 -15   2    5.30    0.81 
   4 -15   2    1.10    0.27 
   5 -15   2    3.50    0.69 
   6 -15   2   -0.19    0.20 
   7 -15   2   -0.03    0.21 
 -11 -14   2    2.93    0.17 
 -10 -14   2    0.91    0.08 
  -9 -14   2   -0.13    0.06 
  -8 -14   2    6.17    0.29 
  -7 -14   2    0.17    0.07 
  -6 -14   2    0.40    0.14 
  -5 -14   2    0.14    0.14 
  -4 -14   2    1.14    0.21 
  -3 -14   2   19.69    3.01 
  -2 -14   2   21.18    3.10 
  -1 -14   2    0.10    0.12 
   0 -14   2    1.82    0.54 
   1 -14   2    1.17    0.39 
   2 -14   2    1.46    0.25 
   3 -14   2    1.40    0.31 
   4 -14   2    3.07    0.49 
   5 -14   2    5.00    0.70 
   6 -14   2    0.31    0.25 
   7 -14   2    0.12    0.28 
 -11 -13   2    1.01    0.08 
 -10 -13   2    7.46    0.38 
  -9 -13   2    0.51    0.08 
  -8 -13   2    8.15    0.36 
  -7 -13   2    0.53    0.16 
  -6 -13   2    0.26    0.12 
  -5 -13   2    2.77    0.37 
  -4 -13   2   -0.11    0.09 
  -3 -13   2    1.71    0.25 
  -2 -13   2    0.42    0.14 
  -1 -13   2   12.97    1.65 
   0 -13   2    2.35    0.40 
   1 -13   2    0.22    0.12 
   2 -13   2   -0.07    0.09 
   3 -13   2    3.92    0.61 
   4 -13   2    2.60    0.49 
   5 -13   2    0.80    0.25 
   6 -13   2    3.04    0.50 
   7 -13   2    0.74    0.34 
   8 -13   2    1.96    0.59 
 -12 -12   2    0.39    0.06 
 -11 -12   2    1.51    0.10 
 -10 -12   2    0.03    0.07 
  -9 -12   2    1.43    0.11 
  -8 -12   2    0.34    0.07 
  -7 -12   2    3.39    0.43 
  -6 -12   2    6.84    0.86 
  -5 -12   2    0.94    0.18 
  -4 -12   2    2.56    0.29 
  -3 -12   2    0.04    0.08 
  -2 -12   2    2.60    0.40 
  -1 -12   2    4.18    0.60 
   0 -12   2    5.12    0.66 
   1 -12   2    3.88    0.61 
   2 -12   2    0.05    0.09 
   3 -12   2   -0.08    0.09 
   4 -12   2    1.55    0.43 
   5 -12   2    6.00    0.95 
   6 -12   2    4.65    0.83 
   7 -12   2   -0.07    0.25 
   8 -12   2    0.48    0.27 
 -12 -11   2    0.03    0.05 
 -11 -11   2    0.59    0.08 
 -10 -11   2    3.08    0.19 
  -9 -11   2    7.63    0.36 
  -8 -11   2    1.24    0.19 
  -7 -11   2    2.04    0.26 
  -6 -11   2   -0.12    0.08 
  -5 -11   2    0.34    0.09 
  -4 -11   2    0.72    0.12 
  -3 -11   2    0.89    0.14 
  -2 -11   2    5.07    0.69 
  -1 -11   2    3.19    0.47 
   0 -11   2    4.38    0.53 
   1 -11   2    0.01    0.07 
   2 -11   2   11.27    1.62 
   3 -11   2    0.34    0.16 
   4 -11   2   11.59    1.63 
   5 -11   2    3.59    0.77 
   6 -11   2    1.21    0.39 
   7 -11   2   -0.32    0.20 
   8 -11   2   -0.15    0.23 
   9 -11   2   -0.06    0.23 
 -12 -10   2    0.83    0.09 
 -11 -10   2    1.88    0.13 
 -10 -10   2    0.11    0.07 
  -9 -10   2    8.30    0.37 
  -8 -10   2   20.18    2.00 
  -7 -10   2    0.01    0.09 
  -6 -10   2    0.12    0.09 
  -5 -10   2    0.79    0.11 
  -4 -10   2    0.58    0.09 
  -3 -10   2    2.88    0.28 
  -2 -10   2    2.04    0.29 
  -1 -10   2    9.74    1.23 
   0 -10   2    3.24    0.49 
   1 -10   2    4.22    0.65 
   2 -10   2   12.33    1.83 
   3 -10   2    4.55    0.71 
   4 -10   2   36.60    5.30 
   5 -10   2    0.82    0.29 
   6 -10   2    0.12    0.19 
   8 -10   2   -0.23    0.22 
   9 -10   2    0.82    0.38 
 -12  -9   2    0.19    0.07 
 -11  -9   2   -0.02    0.07 
 -10  -9   2   -0.01    0.06 
  -9  -9   2    1.38    0.11 
  -8  -9   2   13.84    1.38 
  -7  -9   2    0.03    0.09 
  -6  -9   2    0.21    0.08 
  -5  -9   2    2.79    0.28 
  -4  -9   2    0.00    0.05 
  -3  -9   2    4.49    0.51 
  -2  -9   2    1.68    0.28 
  -1  -9   2   39.14    7.56 
   0  -9   2   20.79    4.08 
   1  -9   2    0.16    0.13 
   2  -9   2    4.61    0.73 
   3  -9   2   42.98    6.01 
   4  -9   2    1.83    0.35 
   5  -9   2    0.95    0.22 
   6  -9   2    0.14    0.20 
   9  -9   2    2.37    0.57 
 -13  -8   2    0.01    0.06 
 -12  -8   2    0.23    0.08 
 -11  -8   2    0.52    0.09 
 -10  -8   2    0.29    0.08 
  -9  -8   2    2.56    0.34 
  -8  -8   2    0.86    0.15 
  -7  -8   2    1.00    0.16 
  -6  -8   2   -0.08    0.06 
  -5  -8   2    0.55    0.09 
  -4  -8   2   17.19    1.44 
  -3  -8   2    7.03    1.17 
  -2  -8   2   -0.09    0.07 
  -1  -8   2   27.43    4.08 
   0  -8   2   66.41   12.63 
   1  -8   2   87.77   15.84 
   2  -8   2    9.44    1.82 
   3  -8   2   13.10    1.84 
   4  -8   2    0.03    0.09 
   5  -8   2    3.20    0.53 
   6  -8   2    0.86    0.34 
   9  -8   2   -0.03    0.24 
 -13  -7   2    0.75    0.09 
 -12  -7   2    0.91    0.11 
 -11  -7   2    1.29    0.13 
 -10  -7   2   14.75    0.71 
  -9  -7   2   27.21    3.09 
  -8  -7   2    2.63    0.32 
  -7  -7   2   -0.09    0.07 
  -6  -7   2    0.55    0.10 
  -5  -7   2    3.38    0.31 
  -4  -7   2    0.37    0.09 
  -3  -7   2    0.32    0.12 
  -2  -7   2   12.43    1.92 
  -1  -7   2   92.30   13.98 
   0  -7   2   21.70    4.25 
   1  -7   2   75.61   13.81 
   2  -7   2   11.04    2.00 
   3  -7   2   20.92    3.95 
   4  -7   2   39.14    5.46 
   5  -7   2    2.32    0.41 
   6  -7   2    0.14    0.12 
 -13  -6   2    0.05    0.07 
 -12  -6   2    0.17    0.08 
 -11  -6   2    4.56    0.26 
 -10  -6   2    0.73    0.10 
  -9  -6   2   -0.03    0.10 
  -8  -6   2    2.28    0.33 
  -7  -6   2    0.03    0.07 
  -6  -6   2    5.42    0.48 
  -5  -6   2    1.00    0.12 
  -4  -6   2    4.68    0.77 
  -3  -6   2    3.87    0.61 
  -2  -6   2    2.80    0.51 
  -1  -6   2    0.19    0.05 
   0  -6   2   14.80    2.16 
   1  -6   2   29.00    5.02 
   2  -6   2    1.13    0.25 
   3  -6   2    1.67    0.37 
   4  -6   2   19.38    3.82 
   5  -6   2    0.19    0.13 
   6  -6   2    1.10    0.36 
 -13  -5   2    0.61    0.14 
 -12  -5   2   -0.02    0.07 
 -11  -5   2    0.25    0.08 
 -10  -5   2    0.11    0.08 
  -9  -5   2   13.32    1.47 
  -8  -5   2    1.03    0.20 
  -7  -5   2   13.40    1.18 
  -6  -5   2    0.22    0.06 
  -5  -5   2    2.95    0.30 
  -4  -5   2    0.32    0.13 
  -3  -5   2    2.22    0.39 
  -2  -5   2   10.91    1.63 
  -1  -5   2    5.65    0.67 
   2  -5   2   55.80   10.19 
   3  -5   2   25.09    4.84 
   4  -5   2    2.88    0.72 
   5  -5   2    4.97    1.20 
   6  -5   2    6.57    1.09 
 -13  -4   2   -0.08    0.20 
 -12  -4   2    0.31    0.11 
 -11  -4   2    2.09    0.16 
 -10  -4   2    3.14    0.21 
  -9  -4   2    5.59    0.73 
  -8  -4   2    5.55    0.70 
  -7  -4   2    0.12    0.08 
  -6  -4   2    1.15    0.13 
  -5  -4   2   11.75    1.85 
  -4  -4   2   24.47    3.83 
  -3  -4   2    1.72    0.34 
  -2  -4   2    1.37    0.18 
  -1  -4   2   91.84   10.98 
   0  -4   2  225.91   31.60 
   1  -4   2   41.87    7.30 
   2  -4   2   35.61    6.96 
   3  -4   2    2.11    0.44 
   4  -4   2    1.11    0.32 
   5  -4   2    1.27    0.40 
   6  -4   2    0.18    0.10 
 -12  -3   2    2.50    0.25 
 -11  -3   2    2.80    0.22 
 -10  -3   2    0.35    0.09 
  -9  -3   2   10.01    1.17 
  -8  -3   2    3.99    0.44 
  -7  -3   2    6.37    0.58 
  -6  -3   2   33.36    2.78 
  -5  -3   2    0.17    0.11 
  -4  -3   2    1.59    0.31 
  -3  -3   2    1.84    0.24 
  -2  -3   2   50.20    6.35 
  -1  -3   2   30.11    4.06 
   0  -3   2   75.17   10.37 
   1  -3   2   10.72    1.94 
   2  -3   2   19.75    3.71 
   3  -3   2    7.15    1.61 
   4  -3   2    7.28    1.63 
   5  -3   2    1.52    0.42 
   6  -3   2    0.05    0.08 
   7  -3   2   12.00    2.41 
 -12  -2   2    0.14    0.11 
 -11  -2   2    0.43    0.10 
 -10  -2   2    1.06    0.23 
  -9  -2   2    5.46    0.89 
  -8  -2   2    0.56    0.13 
  -7  -2   2    0.11    0.07 
  -6  -2   2    1.34    0.15 
  -5  -2   2    3.46    0.54 
  -4  -2   2    6.68    0.80 
  -3  -2   2   51.10    6.33 
  -2  -2   2    0.16    0.05 
  -1  -2   2    2.13    0.29 
   0  -2   2    6.12    0.84 
   1  -2   2   17.45    2.38 
   2  -2   2    8.92    1.85 
   3  -2   2    5.17    1.20 
   4  -2   2    3.73    0.68 
   5  -2   2    2.72    0.49 
   6  -2   2    1.48    0.47 
 -12  -1   2    1.74    0.29 
 -11  -1   2    3.61    0.32 
 -10  -1   2    8.94    1.28 
  -9  -1   2   13.87    1.70 
  -8  -1   2    7.19    0.90 
  -7  -1   2    0.25    0.08 
  -6  -1   2    5.15    0.52 
  -5  -1   2   21.05    5.06 
  -4  -1   2   19.75    2.92 
  -3  -1   2   26.56    4.05 
  -2  -1   2  125.77   18.78 
  -1  -1   2   73.20   10.54 
   0  -1   2   24.27    3.53 
   1  -1   2  166.04   36.54 
   2  -1   2  105.39   16.42 
   3  -1   2   20.68    3.16 
   4  -1   2    0.72    0.16 
   5  -1   2    6.81    1.07 
   6  -1   2    0.29    0.14 
 -12   0   2    0.66    0.20 
 -11   0   2    0.51    0.11 
 -10   0   2   18.94    2.33 
  -9   0   2    0.41    0.15 
  -8   0   2   -0.01    0.11 
  -7   0   2    0.48    0.12 
  -6   0   2   78.73    8.26 
  -5   0   2  148.89   30.61 
  -4   0   2   66.20   10.03 
  -3   0   2   52.18    7.84 
  -2   0   2    0.47    0.13 
  -1   0   2  125.99   18.70 
   0   0   2   18.04    2.83 
   1   0   2  231.70   34.93 
   2   0   2    1.92    0.31 
   3   0   2   38.33    7.63 
   4   0   2   69.42   13.94 
   5   0   2   11.18    1.33 
   6   0   2    7.88    1.69 
 -12   1   2    1.69    0.25 
 -11   1   2    3.31    0.32 
 -10   1   2    7.45    1.29 
  -9   1   2   13.66    1.70 
  -8   1   2    7.23    0.90 
  -7   1   2    0.05    0.08 
  -6   1   2    5.39    0.47 
  -5   1   2   26.01    3.57 
  -4   1   2   19.67    2.92 
  -3   1   2   27.07    4.05 
  -2   1   2  126.49   18.78 
  -1   1   2   68.67   10.54 
   0   1   2   22.45    4.99 
   1   1   2  171.48   36.54 
   2   1   2  114.14   23.22 
   3   1   2   22.47    4.46 
   4   1   2    1.06    0.22 
   5   1   2    7.47    1.07 
   6   1   2    0.29    0.11 
 -12   2   2    0.04    0.12 
 -11   2   2    0.35    0.11 
 -10   2   2    0.97    0.28 
  -9   2   2    5.74    0.74 
  -8   2   2    0.59    0.13 
  -7   2   2   -0.05    0.07 
  -6   2   2    0.98    0.13 
  -5   2   2    3.50    0.55 
  -4   2   2    6.36    0.99 
  -3   2   2   54.35    7.75 
  -2   2   2    0.10    0.08 
  -1   2   2    1.89    0.24 
   0   2   2    5.43    1.19 
   1   2   2   15.07    3.36 
   2   2   2    9.75    1.84 
   3   2   2    6.49    0.85 
   4   2   2    4.99    0.68 
   5   2   2    3.27    0.71 
   6   2   2    2.40    0.51 
 -12   3   2    1.98    0.27 
 -11   3   2    2.29    0.22 
 -10   3   2    0.17    0.10 
  -9   3   2    8.31    1.44 
  -8   3   2    3.67    0.45 
  -7   3   2    5.82    0.53 
  -6   3   2   32.96    2.78 
  -5   3   2    0.28    0.12 
  -4   3   2    1.83    0.31 
  -3   3   2    1.73    0.30 
  -2   3   2   54.82    6.35 
  -1   3   2   27.60    4.06 
   0   3   2   68.76   10.36 
   1   3   2    9.11    1.36 
   2   3   2   17.88    2.62 
   3   3   2    8.44    1.14 
   4   3   2    7.83    1.15 
   5   3   2    1.56    0.42 
   6   3   2   -0.03    0.12 
   7   3   2    9.19    2.40 
 -12   4   2    0.23    0.10 
 -11   4   2    1.47    0.16 
 -10   4   2    2.29    0.22 
  -9   4   2    5.61    0.75 
  -8   4   2    5.52    0.71 
  -7   4   2    0.20    0.08 
  -6   4   2    1.31    0.15 
  -5   4   2   13.79    1.86 
  -4   4   2   28.11    3.84 
  -3   4   2    2.13    0.36 
  -2   4   2    1.56    0.19 
  -1   4   2   88.48   13.45 
   0   4   2  205.22   31.60 
   1   4   2   34.47    5.15 
   2   4   2   31.96    4.91 
   3   4   2    1.91    0.31 
   4   4   2    1.33    0.33 
   5   4   2    1.65    0.42 
   6   4   2    0.33    0.18 
 -13   5   2    0.67    0.14 
 -12   5   2   -0.09    0.08 
 -11   5   2    0.21    0.09 
 -10   5   2    0.09    0.09 
  -9   5   2   10.65    1.48 
  -8   5   2    0.91    0.20 
  -7   5   2   12.34    1.32 
  -6   5   2    0.20    0.07 
  -5   5   2    2.76    0.30 
  -4   5   2    0.41    0.14 
  -3   5   2    2.26    0.53 
  -2   5   2   10.91    1.62 
  -1   5   2    5.41    0.82 
   0   5   2  109.49   17.00 
   1   5   2  152.16   22.46 
   2   5   2   47.00    7.20 
   3   5   2   23.52    4.84 
   4   5   2    3.04    0.73 
   5   5   2    4.62    1.20 
   6   5   2    7.44    1.56 
 -13   6   2    0.04    0.08 
 -12   6   2    0.26    0.09 
 -11   6   2    3.42    0.26 
 -10   6   2    0.71    0.11 
  -9   6   2    0.08    0.14 
  -8   6   2    2.02    0.34 
  -7   6   2    0.00    0.08 
  -6   6   2    5.44    0.52 
  -5   6   2    0.95    0.13 
  -4   6   2    4.65    1.08 
  -3   6   2    4.68    0.86 
  -2   6   2    3.12    0.49 
  -1   6   2    0.03    0.06 
   0   6   2   13.95    2.16 
   1   6   2   23.48    3.54 
   2   6   2    0.91    0.16 
   3   6   2    1.14    0.36 
   4   6   2   18.38    3.82 
   5   6   2    0.20    0.15 
   6   6   2    1.66    0.39 
 -13   7   2    0.60    0.09 
 -12   7   2    0.55    0.09 
 -11   7   2    0.84    0.12 
 -10   7   2   11.36    0.71 
  -9   7   2   24.66    3.10 
  -8   7   2    2.13    0.37 
  -7   7   2   -0.03    0.09 
  -6   7   2    0.52    0.11 
  -5   7   2    3.26    0.31 
  -4   7   2    0.40    0.09 
  -3   7   2    0.16    0.14 
  -2   7   2   12.32    1.91 
  -1   7   2   91.73   13.98 
   0   7   2   19.37    3.00 
   1   7   2   64.40    9.76 
   2   7   2    8.77    2.00 
   3   7   2   17.78    3.95 
   4   7   2   33.67    7.71 
   5   7   2    3.00    0.60 
   6   7   2    0.07    0.15 
 -13   8   2    0.01    0.06 
 -12   8   2    0.29    0.08 
 -11   8   2    0.29    0.09 
 -10   8   2    0.34    0.08 
  -9   8   2    1.98    0.36 
  -8   8   2    0.95    0.17 
  -7   8   2    0.91    0.17 
  -6   8   2    0.06    0.07 
  -5   8   2    0.56    0.11 
  -4   8   2   16.45    1.58 
  -3   8   2    8.71    1.65 
  -2   8   2   -0.04    0.05 
  -1   8   2   27.56    4.07 
   0   8   2   58.29    8.91 
   1   8   2   74.13   15.83 
   2   8   2    8.54    1.81 
   3   8   2   11.00    2.60 
   4   8   2    0.04    0.08 
   5   8   2    3.71    0.76 
   9   8   2    0.01    0.21 
 -12   9   2    0.07    0.07 
 -11   9   2    0.00    0.07 
 -10   9   2    0.08    0.08 
  -9   9   2    0.79    0.11 
  -8   9   2   12.36    1.39 
  -7   9   2   -0.01    0.10 
  -6   9   2    0.30    0.10 
  -5   9   2    2.88    0.31 
  -4   9   2    0.12    0.06 
  -3   9   2    4.92    0.59 
  -2   9   2    1.36    0.38 
  -1   9   2   34.98    5.33 
   0   9   2   18.14    2.87 
   1   9   2    0.05    0.10 
   2   9   2    4.73    0.72 
   3   9   2   44.34    4.90 
   4   9   2    2.44    0.35 
   5   9   2    0.84    0.31 
   9   9   2    1.85    0.49 
 -12  10   2    0.76    0.09 
 -11  10   2    1.21    0.12 
 -10  10   2    0.03    0.07 
  -9  10   2    5.77    0.36 
  -8  10   2   17.19    2.32 
  -7  10   2    0.01    0.11 
  -6  10   2    0.27    0.11 
  -5  10   2    0.67    0.13 
  -4  10   2    0.48    0.10 
  -3  10   2    3.00    0.31 
  -2  10   2    1.60    0.28 
  -1  10   2   10.20    1.22 
   0  10   2    3.27    0.39 
   1  10   2    4.73    0.53 
   2  10   2   13.35    1.49 
   3  10   2    5.06    0.57 
   4  10   2   38.27    4.32 
   5  10   2    0.79    0.27 
   7  10   2    3.10    0.63 
   8  10   2    0.66    0.26 
   9  10   2    1.23    0.38 
 -12  11   2    0.00    0.05 
 -11  11   2    0.44    0.08 
 -10  11   2    2.18    0.19 
  -9  11   2    6.12    0.37 
  -8  11   2    1.11    0.26 
  -7  11   2    1.75    0.33 
  -6  11   2    0.02    0.11 
  -5  11   2    0.27    0.11 
  -4  11   2    0.85    0.14 
  -3  11   2    0.83    0.14 
  -2  11   2    5.20    0.69 
  -1  11   2    3.80    0.46 
   0  11   2    4.18    0.52 
   1  11   2    0.10    0.07 
   2  11   2   11.73    1.32 
   3  11   2    0.64    0.12 
   4  11   2   11.43    1.32 
   5  11   2    3.64    0.71 
   6  11   2    1.17    0.36 
   7  11   2   -0.02    0.19 
   8  11   2    0.09    0.19 
   9  11   2    0.20    0.22 
 -12  12   2    0.38    0.06 
 -11  12   2    1.16    0.11 
 -10  12   2    0.01    0.07 
  -9  12   2    0.91    0.11 
  -8  12   2    0.25    0.08 
  -7  12   2    2.05    0.43 
  -6  12   2    6.18    0.89 
  -5  12   2    0.84    0.20 
  -4  12   2    1.92    0.29 
  -3  12   2    0.01    0.11 
  -2  12   2    2.85    0.40 
  -1  12   2    4.65    0.74 
   0  12   2    5.27    0.66 
   1  12   2    4.49    0.50 
   2  12   2    0.15    0.09 
   3  12   2   -0.02    0.07 
   4  12   2    1.78    0.28 
   5  12   2    7.17    1.34 
   6  12   2    6.22    1.15 
   7  12   2    0.19    0.21 
   8  12   2   -0.21    0.19 
 -11  13   2    0.80    0.09 
 -10  13   2    5.76    0.41 
  -9  13   2    0.28    0.08 
  -8  13   2    6.24    0.37 
  -7  13   2    0.60    0.22 
  -6  13   2    0.12    0.15 
  -5  13   2    2.27    0.39 
  -4  13   2   -0.10    0.15 
  -3  13   2    1.20    0.27 
  -2  13   2    0.49    0.26 
  -1  13   2   14.10    2.02 
   0  13   2    2.28    0.31 
   1  13   2   -0.01    0.08 
   2  13   2    0.13    0.09 
   3  13   2    3.52    0.57 
   4  13   2    3.64    0.48 
   5  13   2    1.02    0.34 
   6  13   2    2.50    0.65 
   7  13   2    1.00    0.32 
   8  13   2    3.09    0.63 
 -11  14   2    2.38    0.17 
 -10  14   2    0.51    0.08 
  -9  14   2   -0.05    0.07 
  -8  14   2    4.66    0.28 
  -7  14   2    0.14    0.07 
  -6  14   2    0.12    0.16 
  -5  14   2    0.02    0.14 
  -4  14   2    1.08    0.40 
  -3  14   2   17.84    4.26 
  -2  14   2   19.55    4.38 
  -1  14   2    0.31    0.15 
   0  14   2    2.16    0.31 
   1  14   2    1.66    0.29 
   2  14   2    0.72    0.22 
   3  14   2    1.85    0.30 
   4  14   2    2.95    0.46 
   5  14   2    5.33    0.94 
   6  14   2    0.11    0.18 
   7  14   2    1.28    0.33 
 -11  15   2    0.68    0.07 
 -10  15   2    0.21    0.06 
  -9  15   2    0.49    0.08 
  -8  15   2    0.78    0.09 
  -7  15   2    0.89    0.10 
  -6  15   2    0.39    0.09 
  -5  15   2   -0.19    0.17 
  -4  15   2   23.48    5.53 
  -3  15   2    6.64    1.74 
  -2  15   2    2.09    0.53 
  -1  15   2    2.75    0.74 
   0  15   2    0.19    0.15 
   1  15   2    3.22    0.51 
   2  15   2    1.59    0.37 
   3  15   2    5.36    0.80 
   4  15   2    0.94    0.24 
   5  15   2    4.78    0.97 
   6  15   2   -0.06    0.18 
   7  15   2    0.04    0.19 
 -10  16   2    0.51    0.06 
  -9  16   2    0.11    0.06 
  -8  16   2    2.00    0.15 
  -7  16   2    1.16    0.11 
  -6  16   2    7.43    0.44 
  -5  16   2    0.62    0.11 
  -4  16   2    0.03    0.33 
  -3  16   2    3.70    1.05 
  -2  16   2    1.89    0.52 
  -1  16   2    6.57    1.51 
   0  16   2   11.80    2.52 
   1  16   2    1.89    0.39 
   2  16   2    3.86    0.52 
   3  16   2    4.27    0.62 
   4  16   2    0.16    0.13 
   5  16   2    4.26    0.69 
   6  16   2    0.25    0.16 
   9  16   2    0.29    0.19 
 -10  17   2    0.34    0.05 
  -9  17   2   -0.03    0.05 
  -8  17   2    0.15    0.06 
  -7  17   2    0.12    0.08 
  -6  17   2   -0.11    0.08 
  -5  17   2    0.02    0.09 
  -4  17   2    1.55    0.15 
  -3  17   2    6.49    1.73 
  -2  17   2    0.91    0.41 
  -1  17   2    6.88    1.93 
   0  17   2    0.00    0.21 
   1  17   2    1.10    0.25 
   2  17   2   -0.25    0.13 
   3  17   2    0.21    0.13 
   4  17   2    0.33    0.15 
   5  17   2    0.21    0.15 
   6  17   2    0.53    0.19 
   7  17   2    0.70    0.33 
   8  17   2    0.82    0.25 
   9  17   2    0.53    0.19 
  -9  18   2   -0.03    0.04 
  -8  18   2    0.21    0.07 
  -7  18   2    0.20    0.08 
  -6  18   2    0.62    0.09 
  -5  18   2    0.10    0.09 
  -4  18   2    2.42    0.22 
  -3  18   2   22.67    1.57 
  -2  18   2   42.28    3.09 
  -1  18   2    0.53    0.15 
   0  18   2    0.32    0.16 
   1  18   2    0.14    0.14 
   2  18   2    1.56    0.22 
   3  18   2    0.93    0.17 
   4  18   2    0.03    0.12 
   5  18   2    0.08    0.13 
   6  18   2    0.06    0.18 
   7  18   2    3.49    0.54 
   8  18   2    5.11    0.84 
  -9  19   2    0.27    0.19 
  -8  19   2    0.82    0.09 
  -7  19   2    0.13    0.08 
  -6  19   2    1.39    0.14 
  -5  19   2    1.20    0.14 
  -4  19   2    2.34    0.22 
  -3  19   2    1.54    0.18 
  -2  19   2    2.39    0.25 
  -1  19   2    2.28    0.28 
   0  19   2    0.28    0.15 
   1  19   2   -0.05    0.13 
   2  19   2    1.10    0.18 
   3  19   2   -0.09    0.10 
   4  19   2   -0.15    0.16 
   5  19   2    0.00    0.17 
   6  19   2   -0.07    0.15 
   7  19   2   -0.06    0.13 
   8  19   2   -0.08    0.10 
  -8  20   2   -0.05    0.05 
  -7  20   2    0.46    0.08 
  -6  20   2    1.01    0.12 
  -5  20   2    1.57    0.18 
  -4  20   2    1.27    0.17 
  -3  20   2    0.36    0.13 
  -2  20   2    0.07    0.12 
  -1  20   2    0.13    0.13 
   0  20   2   -0.10    0.12 
   1  20   2    0.70    0.15 
   2  20   2    0.06    0.12 
   3  20   2    0.12    0.13 
   4  20   2    0.05    0.15 
   5  20   2   -0.24    0.12 
   6  20   2    0.19    0.13 
   7  20   2    0.00    0.10 
  -7  21   2    0.13    0.06 
  -6  21   2    0.81    0.11 
  -5  21   2    0.84    0.12 
  -4  21   2    0.01    0.09 
  -3  21   2    2.57    0.33 
  -2  21   2    2.36    0.33 
  -1  21   2    0.24    0.15 
   0  21   2    0.77    0.19 
   1  21   2    0.26    0.16 
   2  21   2    0.25    0.13 
   3  21   2    0.77    0.15 
   4  21   2    0.54    0.16 
   5  21   2   -0.06    0.10 
   6  21   2   -0.05    0.09 
  -6  22   2    0.42    0.09 
  -5  22   2    0.19    0.07 
  -4  22   2    0.05    0.10 
  -3  22   2    1.23    0.20 
  -2  22   2    4.69    0.58 
  -1  22   2    0.44    0.14 
   0  22   2   -0.18    0.13 
   1  22   2   -0.04    0.12 
   2  22   2    0.94    0.17 
   3  22   2   -0.09    0.10 
   4  22   2    0.03    0.11 
   5  22   2    0.15    0.10 
  -5  23   2   -0.13    0.08 
  -4  23   2    0.03    0.09 
  -3  23   2    1.26    0.18 
  -2  23   2    0.12    0.12 
  -1  23   2   -0.03    0.10 
   0  23   2    0.40    0.13 
   1  23   2    0.03    0.11 
   2  23   2    0.42    0.12 
   3  23   2    0.35    0.10 
   4  23   2    0.11    0.09 
  -3  24   2    1.38    0.18 
  -2  24   2    0.32    0.10 
  -1  24   2    0.04    0.11 
   0  24   2   -0.08    0.09 
   1  24   2    0.08    0.09 
   2  24   2   -0.02    0.09 
  -3 -24   3    0.09    0.08 
  -2 -24   3    0.07    0.09 
  -1 -24   3    0.47    0.12 
   0 -24   3    2.15    0.27 
   1 -24   3    0.85    0.17 
   2 -24   3    0.48    0.11 
  -5 -23   3   -0.02    0.07 
  -4 -23   3    0.00    0.08 
  -3 -23   3    0.01    0.10 
  -2 -23   3    1.85    0.26 
  -1 -23   3    0.06    0.11 
   0 -23   3    0.16    0.11 
   1 -23   3    0.24    0.11 
   2 -23   3    1.28    0.19 
   3 -23   3    0.79    0.13 
  -6 -22   3    0.00    0.06 
  -5 -22   3    0.37    0.10 
  -4 -22   3    0.76    0.13 
  -3 -22   3    1.41    0.22 
  -2 -22   3    0.19    0.13 
  -1 -22   3    1.10    0.19 
   0 -22   3    0.22    0.14 
   1 -22   3    0.40    0.13 
   2 -22   3    0.24    0.14 
   3 -22   3    0.33    0.11 
   4 -22   3    0.13    0.09 
   5 -22   3   -0.07    0.06 
  -7 -21   3    0.02    0.06 
  -6 -21   3    0.01    0.07 
  -5 -21   3    0.18    0.09 
  -4 -21   3    0.37    0.09 
  -3 -21   3    0.45    0.16 
  -2 -21   3    3.26    0.37 
  -1 -21   3    0.37    0.14 
   0 -21   3    0.67    0.18 
   1 -21   3   -0.07    0.12 
   2 -21   3    0.06    0.12 
   3 -21   3    0.25    0.11 
   4 -21   3    0.06    0.11 
   5 -21   3   -0.08    0.09 
   6 -21   3   -0.13    0.06 
  -8 -20   3    0.08    0.05 
  -7 -20   3    0.18    0.07 
  -6 -20   3    4.18    0.30 
  -5 -20   3    6.25    0.50 
  -4 -20   3    1.52    0.17 
  -3 -20   3    1.51    0.18 
  -2 -20   3    0.06    0.12 
  -1 -20   3    0.28    0.12 
   0 -20   3    0.48    0.16 
   1 -20   3    0.03    0.11 
   2 -20   3    1.31    0.19 
   3 -20   3    0.08    0.12 
   4 -20   3    0.34    0.15 
   5 -20   3    2.19    0.30 
   6 -20   3    0.06    0.11 
   7 -20   3   -0.06    0.12 
  -9 -19   3    0.18    0.05 
  -8 -19   3    0.25    0.06 
  -7 -19   3    4.74    0.32 
  -6 -19   3    7.01    0.44 
  -5 -19   3    2.66    0.22 
  -4 -19   3    6.18    0.44 
  -3 -19   3    0.01    0.09 
  -2 -19   3   -0.08    0.11 
  -1 -19   3    0.09    0.12 
   0 -19   3    0.47    0.15 
   1 -19   3    0.82    0.15 
   2 -19   3    0.27    0.14 
   3 -19   3    0.15    0.14 
   4 -19   3    0.53    0.22 
   5 -19   3    1.27    0.25 
   6 -19   3    0.57    0.19 
   7 -19   3    2.92    0.46 
  -9 -18   3    0.23    0.05 
  -8 -18   3    0.20    0.06 
  -7 -18   3    2.83    0.19 
  -6 -18   3    0.24    0.09 
  -5 -18   3    0.04    0.08 
  -4 -18   3    1.52    0.17 
  -3 -18   3    1.17    0.15 
  -2 -18   3    0.07    0.11 
  -1 -18   3    0.07    0.13 
   0 -18   3    0.91    0.18 
   1 -18   3    0.04    0.12 
   2 -18   3    0.04    0.14 
   3 -18   3    1.98    0.30 
   4 -18   3    0.21    0.13 
   5 -18   3   -0.19    0.14 
   6 -18   3    0.08    0.16 
   7 -18   3    0.13    0.24 
   8 -18   3    0.49    0.18 
 -10 -17   3    0.34    0.04 
  -9 -17   3    0.02    0.05 
  -8 -17   3    0.21    0.07 
  -7 -17   3    7.48    0.43 
  -6 -17   3    7.85    0.45 
  -5 -17   3    0.01    0.08 
  -4 -17   3    0.06    0.09 
  -3 -17   3    4.74    0.83 
  -2 -17   3    0.15    0.16 
  -1 -17   3    0.11    0.24 
   0 -17   3    2.07    0.57 
   1 -17   3    0.41    0.27 
   2 -17   3    1.06    0.26 
   3 -17   3   -0.05    0.16 
   4 -17   3    0.65    0.16 
   5 -17   3    0.29    0.15 
   6 -17   3   -0.06    0.19 
   7 -17   3    5.06    1.13 
 -10 -16   3    0.44    0.06 
  -9 -16   3    0.15    0.06 
  -8 -16   3    0.71    0.08 
  -7 -16   3    0.62    0.09 
  -6 -16   3    4.04    0.22 
  -5 -16   3   13.49    0.74 
  -4 -16   3    4.05    1.00 
  -3 -16   3    0.80    0.23 
  -2 -16   3    0.34    0.18 
  -1 -16   3    0.54    0.27 
   0 -16   3    1.80    0.43 
   1 -16   3    1.88    0.49 
   2 -16   3    0.52    0.28 
   3 -16   3    0.27    0.17 
   4 -16   3    0.13    0.16 
   5 -16   3    0.07    0.16 
   6 -16   3   -0.09    0.13 
   9 -16   3   -0.06    0.14 
 -11 -15   3    0.11    0.04 
 -10 -15   3    0.43    0.06 
  -9 -15   3    1.64    0.12 
  -8 -15   3    1.33    0.09 
  -7 -15   3    1.82    0.12 
  -6 -15   3   10.17    0.52 
  -5 -15   3    1.65    0.48 
  -4 -15   3    0.55    0.30 
  -3 -15   3    0.43    0.19 
  -2 -15   3    1.31    0.29 
  -1 -15   3    0.05    0.14 
   0 -15   3    1.98    0.51 
   1 -15   3    0.15    0.22 
   2 -15   3    1.67    0.44 
   3 -15   3    0.31    0.18 
   4 -15   3    3.65    0.52 
   5 -15   3    0.30    0.17 
   6 -15   3    2.70    0.48 
 -11 -14   3    0.55    0.06 
 -10 -14   3   -0.01    0.05 
  -9 -14   3    7.12    0.32 
  -8 -14   3    0.89    0.08 
  -7 -14   3    1.59    0.11 
  -6 -14   3    0.14    0.11 
  -5 -14   3    3.78    0.93 
  -4 -14   3    0.62    0.27 
  -3 -14   3    0.94    0.27 
  -2 -14   3    0.44    0.17 
  -1 -14   3    4.24    0.63 
   0 -14   3    0.06    0.18 
   1 -14   3    1.23    0.35 
   2 -14   3    0.48    0.25 
   3 -14   3    3.07    0.53 
   4 -14   3    5.54    0.88 
   5 -14   3    1.49    0.29 
   6 -14   3    0.08    0.17 
   7 -14   3    0.38    0.27 
 -11 -13   3    1.37    0.10 
 -10 -13   3    0.39    0.07 
  -9 -13   3    0.24    0.07 
  -8 -13   3    2.98    0.15 
  -7 -13   3    8.68    1.01 
  -6 -13   3    9.19    1.09 
  -5 -13   3   -0.05    0.10 
  -4 -13   3    0.18    0.19 
  -3 -13   3    1.61    0.32 
  -2 -13   3    1.29    0.24 
  -1 -13   3    3.49    0.50 
   0 -13   3    4.23    0.50 
   1 -13   3    0.42    0.17 
   2 -13   3    0.00    0.12 
   3 -13   3    0.10    0.14 
   4 -13   3    5.38    0.91 
   5 -13   3    0.62    0.23 
   6 -13   3    4.32    0.68 
   7 -13   3    1.96    0.56 
 -12 -12   3    0.16    0.04 
 -11 -12   3    0.04    0.05 
 -10 -12   3    0.27    0.08 
  -9 -12   3    0.00    0.06 
  -8 -12   3    4.63    0.23 
  -7 -12   3   -0.08    0.11 
  -6 -12   3    0.17    0.12 
  -5 -12   3    0.60    0.15 
  -4 -12   3    0.65    0.20 
  -3 -12   3    1.85    0.29 
  -2 -12   3   -0.04    0.08 
  -1 -12   3    3.86    0.52 
   0 -12   3   22.94    2.76 
   1 -12   3    5.16    0.84 
   2 -12   3    0.43    0.18 
   3 -12   3    4.12    0.81 
   4 -12   3    3.45    0.88 
   5 -12   3    3.46    0.91 
   6 -12   3    4.33    0.86 
   7 -12   3    0.18    0.25 
   8 -12   3   -0.12    0.23 
 -12 -11   3    0.04    0.04 
 -11 -11   3    0.25    0.07 
 -10 -11   3    2.92    0.16 
  -9 -11   3    2.35    0.14 
  -8 -11   3   -0.17    0.10 
  -7 -11   3    4.46    0.51 
  -6 -11   3    0.99    0.16 
  -5 -11   3    1.84    0.22 
  -4 -11   3    2.69    0.34 
  -3 -11   3    0.66    0.14 
  -2 -11   3   -0.09    0.08 
  -1 -11   3   15.31    1.85 
   0 -11   3   -0.05    0.08 
   1 -11   3    1.73    0.33 
   2 -11   3    6.92    0.87 
   3 -11   3    1.37    0.21 
   4 -11   3    0.27    0.20 
   5 -11   3    9.42    2.14 
   6 -11   3   -0.06    0.18 
   8 -11   3    0.00    0.22 
 -12 -10   3    0.01    0.05 
 -11 -10   3    1.28    0.11 
 -10 -10   3    1.17    0.10 
  -9 -10   3    7.77    0.36 
  -8 -10   3    7.87    0.77 
  -7 -10   3    0.29    0.10 
  -6 -10   3    0.34    0.11 
  -5 -10   3    0.12    0.07 
  -4 -10   3    0.06    0.06 
  -3 -10   3    0.16    0.08 
  -2 -10   3   33.82    4.20 
  -1 -10   3   30.82    3.75 
   0 -10   3    1.77    0.24 
   1 -10   3    1.25    0.18 
   2 -10   3    2.28    0.34 
   3 -10   3    1.99    0.28 
   4 -10   3    0.65    0.13 
   5 -10   3    8.66    2.02 
   6 -10   3    0.50    0.27 
   8 -10   3   -0.05    0.23 
   9 -10   3    0.02    0.27 
 -12  -9   3    0.10    0.06 
 -11  -9   3    0.08    0.07 
 -10  -9   3    2.20    0.14 
  -9  -9   3    2.12    0.13 
  -8  -9   3   16.18    1.57 
  -7  -9   3    0.95    0.16 
  -6  -9   3    7.20    0.65 
  -5  -9   3    3.84    0.34 
  -4  -9   3    0.79    0.11 
  -3  -9   3    0.71    0.12 
  -2  -9   3    3.09    0.53 
  -1  -9   3   11.10    2.23 
   0  -9   3   12.55    1.76 
   1  -9   3   12.19    1.49 
   2  -9   3   10.57    1.63 
   3  -9   3   57.15    8.08 
   4  -9   3    2.56    0.37 
   5  -9   3   -0.03    0.17 
   6  -9   3    0.41    0.27 
   9  -9   3    2.07    0.49 
 -13  -8   3    0.57    0.07 
 -12  -8   3    0.31    0.07 
 -11  -8   3    1.35    0.12 
 -10  -8   3    4.57    0.23 
  -9  -8   3    1.13    0.21 
  -8  -8   3    5.05    0.53 
  -7  -8   3    0.06    0.09 
  -6  -8   3    0.04    0.06 
  -5  -8   3    0.05    0.06 
  -4  -8   3    1.23    0.13 
  -3  -8   3    3.94    0.45 
  -2  -8   3    0.65    0.18 
  -1  -8   3    1.97    0.53 
   0  -8   3   73.48   10.10 
   1  -8   3   22.24    3.12 
   2  -8   3    3.57    0.51 
   3  -8   3    2.08    0.37 
   4  -8   3    7.19    0.87 
   5  -8   3   -0.05    0.08 
   6  -8   3    2.89    0.71 
   9  -8   3    0.40    0.35 
 -13  -7   3    0.01    0.05 
 -12  -7   3    0.46    0.08 
 -11  -7   3   -0.11    0.07 
 -10  -7   3    3.01    0.19 
  -9  -7   3    2.19    0.33 
  -8  -7   3    0.02    0.10 
  -7  -7   3   -0.04    0.08 
  -6  -7   3    0.35    0.08 
  -5  -7   3    2.19    0.23 
  -4  -7   3    2.26    0.24 
  -3  -7   3    8.74    1.48 
  -2  -7   3    5.81    0.89 
  -1  -7   3    8.85    1.33 
   0  -7   3    6.59    0.93 
   1  -7   3    1.66    0.25 
   2  -7   3   24.67    4.54 
   3  -7   3    0.90    0.23 
   4  -7   3    4.57    0.67 
   5  -7   3    3.13    0.49 
   6  -7   3    0.14    0.21 
 -13  -6   3    0.37    0.06 
 -12  -6   3    0.37    0.08 
 -11  -6   3    0.06    0.07 
 -10  -6   3    0.50    0.08 
  -9  -6   3    6.66    0.80 
  -8  -6   3    0.36    0.12 
  -7  -6   3   10.71    0.85 
  -6  -6   3    1.34    0.16 
  -5  -6   3    2.60    0.23 
  -4  -6   3    2.10    0.41 
  -3  -6   3    0.03    0.08 
  -2  -6   3   41.31    6.03 
  -1  -6   3   71.59   10.36 
   0  -6   3    0.25    0.08 
   1  -6   3    0.77    0.14 
   2  -6   3   14.84    2.07 
   3  -6   3   23.60    4.39 
   4  -6   3   12.29    1.78 
   5  -6   3    1.01    0.22 
 -13  -5   3    0.12    0.05 
 -12  -5   3    1.12    0.12 
 -11  -5   3    1.90    0.14 
 -10  -5   3    1.54    0.13 
  -9  -5   3    3.06    0.39 
  -8  -5   3    0.67    0.14 
  -7  -5   3    1.35    0.17 
  -6  -5   3   10.10    0.87 
  -5  -5   3    8.00    0.69 
  -4  -5   3   33.87    5.31 
  -3  -5   3    0.09    0.09 
  -2  -5   3   48.81    6.90 
  -1  -5   3   27.94    4.03 
   0  -5   3    5.27    0.73 
   1  -5   3    0.19    0.08 
   2  -5   3   12.94    1.77 
   3  -5   3   13.12    1.92 
   4  -5   3    3.96    0.59 
   5  -5   3    0.46    0.14 
   6  -5   3    3.84    0.93 
 -13  -4   3   -0.08    0.05 
 -12  -4   3    2.30    0.20 
 -11  -4   3    3.34    0.21 
 -10  -4   3   11.46    0.59 
  -9  -4   3   16.22    1.85 
  -8  -4   3   11.82    1.24 
  -7  -4   3    0.34    0.09 
  -6  -4   3   14.33    1.32 
  -5  -4   3   10.76    1.13 
  -4  -4   3    1.41    0.49 
  -3  -4   3    6.87    1.66 
  -2  -4   3    0.75    0.14 
  -1  -4   3    0.17    0.07 
   0  -4   3   25.55    3.68 
   1  -4   3    0.07    0.06 
   2  -4   3   22.59    3.10 
   3  -4   3    1.89    0.43 
   4  -4   3    0.21    0.09 
   5  -4   3   12.27    2.71 
   6  -4   3    7.02    1.48 
 -13  -3   3    0.37    0.08 
 -12  -3   3    0.61    0.10 
 -11  -3   3    0.13    0.08 
 -10  -3   3    0.00    0.09 
  -9  -3   3   34.76    3.37 
  -8  -3   3    7.78    0.84 
  -7  -3   3    4.91    0.49 
  -6  -3   3   11.38    1.03 
  -5  -3   3    8.73    1.74 
  -4  -3   3   -0.01    0.14 
  -3  -3   3    0.10    0.06 
  -2  -3   3   65.53    9.60 
  -1  -3   3   10.12    1.38 
   0  -3   3   95.96   14.22 
   1  -3   3    0.92    0.15 
   2  -3   3   32.11    4.49 
   3  -3   3   15.34    2.16 
   4  -3   3   36.97    5.34 
   5  -3   3   25.45    5.17 
   6  -3   3    0.59    0.22 
 -13  -2   3    0.04    0.07 
 -12  -2   3    0.01    0.08 
 -11  -2   3    6.54    0.42 
 -10  -2   3    3.20    0.38 
  -9  -2   3    0.10    0.10 
  -8  -2   3    5.87    0.64 
  -7  -2   3   54.62    4.93 
  -6  -2   3   32.15    3.02 
  -5  -2   3   10.37    2.51 
  -4  -2   3    0.99    0.19 
  -3  -2   3  212.68   33.04 
  -2  -2   3   24.64    3.65 
  -1  -2   3    5.65    0.82 
   0  -2   3    5.67    0.85 
   1  -2   3   22.37    3.05 
   2  -2   3    4.92    0.64 
   3  -2   3    5.60    0.83 
   4  -2   3    3.43    0.53 
   5  -2   3    3.08    0.89 
   6  -2   3    0.35    0.16 
 -13  -1   3    0.02    0.07 
 -12  -1   3    0.55    0.11 
 -11  -1   3    0.20    0.08 
 -10  -1   3    5.49    0.68 
  -9  -1   3    0.09    0.13 
  -8  -1   3    4.20    0.50 
  -7  -1   3    1.44    0.18 
  -6  -1   3    0.80    0.12 
  -5  -1   3   80.55   18.21 
  -4  -1   3   27.07    4.18 
  -3  -1   3  129.77   19.67 
  -2  -1   3   20.71    3.05 
  -1  -1   3   -0.04    0.05 
   0  -1   3   49.47    7.60 
   1  -1   3   40.12    5.62 
   2  -1   3    0.06    0.05 
   3  -1   3    0.41    0.09 
   4  -1   3   31.46    6.46 
   5  -1   3    0.11    0.10 
   6  -1   3    3.83    0.63 
 -13   0   3   -0.02    0.07 
 -12   0   3    0.01    0.09 
 -11   0   3   -0.09    0.07 
 -10   0   3    0.00    0.13 
  -9   0   3    0.02    0.12 
  -8   0   3   -0.14    0.09 
  -7   0   3   -0.02    0.07 
  -6   0   3    0.09    0.06 
  -5   0   3    0.05    0.08 
  -4   0   3    0.00    0.08 
  -3   0   3   -0.08    0.06 
  -2   0   3    0.02    0.06 
  -1   0   3    0.00    0.05 
   0   0   3    0.02    0.04 
   1   0   3    0.00    0.03 
   2   0   3    0.06    0.04 
   3   0   3    0.05    0.05 
   4   0   3    0.00    0.07 
   5   0   3    0.12    0.09 
   6   0   3    0.07    0.14 
 -13   1   3    0.08    0.07 
 -12   1   3    0.91    0.12 
 -11   1   3    0.14    0.08 
 -10   1   3    4.48    0.67 
  -9   1   3    0.37    0.15 
  -8   1   3    3.98    0.58 
  -7   1   3    1.50    0.19 
  -6   1   3    0.82    0.11 
  -5   1   3   92.01   12.87 
  -4   1   3   27.72    4.19 
  -3   1   3  132.28   19.68 
  -2   1   3   20.23    3.05 
  -1   1   3    0.16    0.06 
   0   1   3   51.15   10.74 
   1   1   3   35.15    7.94 
   2   1   3    0.14    0.04 
   3   1   3    0.38    0.12 
   4   1   3   29.53    6.45 
   5   1   3    0.24    0.08 
   6   1   3    3.90    0.91 
 -13   2   3    0.13    0.07 
 -12   2   3    0.09    0.08 
 -11   2   3    6.21    0.42 
 -10   2   3    1.96    0.36 
  -9   2   3    0.18    0.14 
  -8   2   3    5.67    0.64 
  -7   2   3   52.97    4.93 
  -6   2   3   32.33    2.76 
  -5   2   3   12.11    1.77 
  -4   2   3    0.98    0.21 
  -3   2   3  225.58   33.05 
  -2   2   3   24.47    2.98 
  -1   2   3    5.26    0.82 
   0   2   3    5.59    1.20 
   1   2   3   19.06    4.31 
   2   2   3    3.85    0.63 
   3   2   3    5.39    1.17 
   4   2   3    3.27    0.53 
   5   2   3    3.50    0.91 
   6   2   3    0.77    0.22 
 -13   3   3    0.42    0.08 
 -12   3   3    0.49    0.10 
 -11   3   3   -0.08    0.08 
 -10   3   3   -0.05    0.10 
  -9   3   3   31.18    3.37 
  -8   3   3    7.55    0.84 
  -7   3   3    4.67    0.45 
  -6   3   3   10.51    0.94 
  -5   3   3    8.34    1.22 
  -4   3   3    0.08    0.09 
  -3   3   3    0.09    0.09 
  -2   3   3   65.04    7.84 
  -1   3   3    9.47    1.12 
   0   3   3   92.24   14.22 
   1   3   3    0.75    0.15 
   2   3   3   30.02    4.48 
   3   3   3   15.60    2.16 
   4   3   3   36.86    5.34 
   5   3   3   27.14    5.19 
   6   3   3    0.73    0.26 
 -13   4   3    0.06    0.06 
 -12   4   3    2.08    0.19 
 -11   4   3    2.34    0.20 
 -10   4   3    9.37    0.58 
  -9   4   3   14.19    1.60 
  -8   4   3   11.18    1.24 
  -7   4   3    0.28    0.08 
  -6   4   3   13.48    1.21 
  -5   4   3   10.88    1.01 
  -4   4   3    2.04    0.34 
  -3   4   3    8.58    1.17 
  -2   4   3    0.85    0.12 
  -1   4   3    0.25    0.07 
   0   4   3   23.75    3.68 
   1   4   3    0.03    0.05 
   2   4   3   20.23    3.09 
   3   4   3    1.69    0.30 
   4   4   3    0.29    0.15 
   5   4   3   13.71    2.73 
   6   4   3    5.90    1.49 
 -13   5   3    0.08    0.06 
 -12   5   3    0.71    0.11 
 -11   5   3    1.47    0.14 
 -10   5   3    1.55    0.13 
  -9   5   3    2.35    0.40 
  -8   5   3    0.26    0.13 
  -7   5   3    1.16    0.15 
  -6   5   3   10.14    0.81 
  -5   5   3    7.81    0.69 
  -4   5   3   39.23    5.32 
  -3   5   3   -0.08    0.08 
  -2   5   3   47.84    6.90 
  -1   5   3   26.03    4.03 
   0   5   3    4.73    0.73 
   1   5   3    0.47    0.09 
   2   5   3   11.46    1.76 
   3   5   3   12.80    2.72 
   4   5   3    3.74    0.83 
   5   5   3    0.66    0.24 
   6   5   3    4.91    0.97 
 -13   6   3    0.27    0.06 
 -12   6   3    0.27    0.08 
 -11   6   3   -0.02    0.07 
 -10   6   3    0.39    0.09 
  -9   6   3    5.75    0.82 
  -8   6   3    0.38    0.16 
  -7   6   3    8.72    0.92 
  -6   6   3    1.36    0.16 
  -5   6   3    2.54    0.25 
  -4   6   3    2.63    0.57 
  -3   6   3    0.02    0.11 
  -2   6   3   41.01    6.01 
  -1   6   3   66.42   10.35 
   0   6   3    0.09    0.07 
   1   6   3    0.88    0.14 
   2   6   3   13.79    2.07 
   3   6   3   21.00    4.39 
   4   6   3   12.19    2.52 
   5   6   3    1.20    0.33 
 -13   7   3    0.03    0.04 
 -12   7   3    0.25    0.08 
 -11   7   3    0.09    0.08 
 -10   7   3    2.96    0.20 
  -9   7   3    2.17    0.35 
  -8   7   3   -0.13    0.11 
  -7   7   3    0.02    0.09 
  -6   7   3    0.27    0.08 
  -5   7   3    2.44    0.24 
  -4   7   3    2.23    0.31 
  -3   7   3   10.28    2.09 
  -2   7   3    6.05    1.25 
  -1   7   3    8.91    1.33 
   0   7   3    6.34    0.93 
   1   7   3    1.41    0.24 
   2   7   3   21.18    4.53 
   3   7   3    0.56    0.15 
   4   7   3    4.04    0.95 
   5   7   3    3.27    0.71 
   8   7   3    1.05    0.32 
 -13   8   3    0.32    0.06 
 -12   8   3    0.18    0.07 
 -11   8   3    1.00    0.12 
 -10   8   3    3.56    0.23 
  -9   8   3    1.17    0.24 
  -8   8   3    3.79    0.63 
  -7   8   3    0.12    0.12 
  -6   8   3   -0.01    0.07 
  -5   8   3    0.09    0.07 
  -4   8   3    1.06    0.15 
  -3   8   3    4.29    0.91 
  -2   8   3    0.92    0.25 
  -1   8   3    2.23    0.36 
   0   8   3   66.02   10.09 
   1   8   3   20.90    3.11 
   2   8   3    3.59    0.50 
   3   8   3    2.72    0.37 
   4   8   3    7.74    1.06 
   5   8   3    0.04    0.14 
   7   8   3    0.35    0.21 
   8   8   3    0.98    0.36 
 -12   9   3    0.02    0.06 
 -11   9   3    0.08    0.07 
 -10   9   3    1.51    0.13 
  -9   9   3    1.68    0.14 
  -8   9   3   13.34    1.83 
  -7   9   3    0.63    0.20 
  -6   9   3    7.06    0.93 
  -5   9   3    2.99    0.37 
  -4   9   3    0.68    0.12 
  -3   9   3    0.70    0.12 
  -2   9   3    3.26    0.42 
  -1   9   3    9.99    1.55 
   0   9   3   12.18    1.42 
   1   9   3   13.10    1.82 
   2   9   3   12.61    1.63 
   3   9   3   58.14    8.08 
   4   9   3    2.84    0.46 
   5   9   3    0.17    0.14 
   6   9   3    0.93    0.27 
   7   9   3   -0.16    0.16 
   8   9   3    1.27    0.34 
   9   9   3    1.69    0.43 
 -12  10   3    0.07    0.06 
 -11  10   3    0.92    0.11 
 -10  10   3    0.76    0.10 
  -9  10   3    6.12    0.37 
  -8  10   3    5.63    0.90 
  -7  10   3    0.09    0.14 
  -6  10   3    0.14    0.13 
  -5  10   3    0.07    0.09 
  -4  10   3   -0.05    0.07 
  -3  10   3    0.03    0.07 
  -2  10   3   34.15    4.20 
  -1  10   3   30.80    3.24 
   0  10   3    1.78    0.24 
   1  10   3    1.51    0.21 
   2  10   3    2.95    0.34 
   3  10   3    1.83    0.33 
   4  10   3    0.35    0.15 
   5  10   3   10.71    2.02 
   6  10   3    0.59    0.25 
   7  10   3    1.52    0.42 
   8  10   3    0.08    0.20 
 -12  11   3    0.08    0.05 
 -11  11   3    0.21    0.07 
 -10  11   3    2.10    0.16 
  -9  11   3    1.72    0.14 
  -8  11   3    0.16    0.15 
  -7  11   3    3.77    0.61 
  -6  11   3    0.53    0.19 
  -5  11   3    1.25    0.27 
  -4  11   3    2.46    0.31 
  -3  11   3    0.32    0.13 
  -2  11   3    0.06    0.09 
  -1  11   3   15.41    1.85 
   0  11   3    0.16    0.08 
   1  11   3    2.27    0.27 
   2  11   3    7.87    0.87 
   3  11   3    1.17    0.24 
   4  11   3    0.29    0.16 
   5  11   3   11.30    2.13 
   6  11   3   -0.04    0.18 
   7  11   3    0.86    0.28 
   8  11   3    0.10    0.22 
 -12  12   3    0.12    0.05 
 -11  12   3   -0.01    0.06 
 -10  12   3    0.35    0.08 
  -9  12   3   -0.05    0.07 
  -8  12   3    3.89    0.22 
  -7  12   3    0.10    0.15 
  -6  12   3    0.23    0.16 
  -5  12   3    0.45    0.16 
  -4  12   3    0.77    0.16 
  -3  12   3    1.38    0.28 
  -2  12   3    0.02    0.09 
  -1  12   3    3.81    0.63 
   0  12   3   24.52    3.38 
   1  12   3    6.02    0.68 
   2  12   3    0.81    0.15 
   3  12   3    5.77    1.17 
   4  12   3    3.85    0.83 
   5  12   3    4.50    0.91 
   6  12   3    4.34    0.82 
   7  12   3    0.13    0.21 
   8  12   3    0.67    0.28 
 -11  13   3    1.09    0.10 
 -10  13   3    0.43    0.08 
  -9  13   3    0.08    0.07 
  -8  13   3    2.35    0.15 
  -7  13   3    6.31    1.03 
  -6  13   3    7.41    1.10 
  -5  13   3    0.02    0.12 
  -4  13   3    0.39    0.26 
  -3  13   3    1.27    0.26 
  -2  13   3    1.21    0.29 
  -1  13   3    3.89    0.61 
   0  13   3    3.24    0.61 
   1  13   3    0.59    0.13 
   2  13   3   -0.20    0.10 
   3  13   3    0.35    0.20 
   4  13   3    5.84    1.27 
   5  13   3    1.08    0.31 
   6  13   3    3.98    0.93 
   7  13   3    1.22    0.46 
 -11  14   3    0.48    0.07 
 -10  14   3    0.04    0.06 
  -9  14   3    4.68    0.30 
  -8  14   3    0.65    0.08 
  -7  14   3    1.20    0.11 
  -6  14   3    0.03    0.16 
  -5  14   3    3.55    0.95 
  -4  14   3    0.15    0.26 
  -3  14   3    1.32    0.41 
  -2  14   3    0.24    0.16 
  -1  14   3    3.28    0.62 
   0  14   3    0.14    0.14 
   1  14   3    1.00    0.23 
   2  14   3    0.52    0.17 
   3  14   3    3.89    0.76 
   4  14   3    6.25    1.23 
   5  14   3    1.85    0.41 
   6  14   3    0.23    0.25 
   7  14   3    0.29    0.24 
 -11  15   3    0.02    0.04 
 -10  15   3    0.51    0.07 
  -9  15   3    1.30    0.12 
  -8  15   3    1.04    0.10 
  -7  15   3    1.05    0.11 
  -6  15   3    8.01    0.53 
  -5  15   3    1.15    0.48 
  -4  15   3    0.33    0.32 
  -3  15   3    0.63    0.34 
  -2  15   3    1.10    0.41 
  -1  15   3    0.22    0.17 
   0  15   3    1.79    0.34 
   1  15   3   -0.02    0.13 
   2  15   3    1.52    0.28 
   3  15   3    0.53    0.24 
   4  15   3    3.34    0.71 
   5  15   3    0.24    0.22 
   6  15   3    2.37    0.63 
 -10  16   3    0.36    0.06 
  -9  16   3    0.16    0.06 
  -8  16   3    0.45    0.08 
  -7  16   3    0.61    0.09 
  -6  16   3    2.67    0.22 
  -5  16   3   11.36    0.72 
  -4  16   3    3.08    1.00 
  -3  16   3    0.72    0.38 
  -2  16   3    0.52    0.30 
  -1  16   3    0.46    0.20 
   0  16   3    1.12    0.28 
   1  16   3    1.75    0.34 
   2  16   3    0.26    0.16 
   3  16   3    0.12    0.18 
   4  16   3   -0.19    0.14 
   5  16   3   -0.20    0.16 
   6  16   3   -0.03    0.19 
   9  16   3    0.02    0.18 
 -10  17   3    0.34    0.05 
  -9  17   3    0.01    0.05 
  -8  17   3    0.17    0.07 
  -7  17   3    6.31    0.43 
  -6  17   3    6.43    0.45 
  -5  17   3    0.05    0.09 
  -4  17   3    0.13    0.10 
  -3  17   3    4.21    1.20 
  -2  17   3    0.38    0.31 
  -1  17   3    0.27    0.27 
   0  17   3    1.64    0.38 
   1  17   3    0.42    0.19 
   2  17   3    1.46    0.20 
   3  17   3    0.12    0.15 
   4  17   3    0.40    0.17 
   5  17   3    0.15    0.17 
   6  17   3    0.03    0.24 
   7  17   3    5.84    1.12 
  -9  18   3    0.22    0.06 
  -8  18   3    0.15    0.07 
  -7  18   3    2.24    0.18 
  -6  18   3    0.17    0.09 
  -5  18   3    0.14    0.09 
  -4  18   3    1.93    0.19 
  -3  18   3    1.27    0.17 
  -2  18   3    0.05    0.12 
  -1  18   3   -0.25    0.12 
   0  18   3    0.88    0.18 
   1  18   3    0.01    0.11 
   2  18   3    0.16    0.13 
   3  18   3    1.55    0.28 
   4  18   3   -0.02    0.14 
   5  18   3    0.10    0.19 
   6  18   3   -0.18    0.21 
   7  18   3    0.22    0.15 
   8  18   3   -0.01    0.18 
  -9  19   3    0.21    0.06 
  -8  19   3    0.20    0.07 
  -7  19   3    4.78    0.30 
  -6  19   3    5.58    0.46 
  -5  19   3    2.45    0.22 
  -4  19   3    6.18    0.47 
  -3  19   3    0.04    0.10 
  -2  19   3   -0.11    0.12 
  -1  19   3    0.10    0.14 
   0  19   3    0.76    0.16 
   1  19   3    0.80    0.16 
   2  19   3    0.39    0.13 
   3  19   3    0.36    0.14 
   4  19   3    0.78    0.20 
   5  19   3    1.40    0.25 
   6  19   3    0.34    0.17 
   7  19   3    3.32    0.46 
  -8  20   3    0.09    0.06 
  -7  20   3    0.24    0.08 
  -6  20   3    3.99    0.31 
  -5  20   3    6.61    0.47 
  -4  20   3    1.30    0.18 
  -3  20   3    1.30    0.19 
  -2  20   3    0.13    0.13 
  -1  20   3    0.09    0.14 
   0  20   3    0.43    0.14 
   1  20   3   -0.03    0.12 
   2  20   3    2.27    0.27 
   3  20   3   -0.12    0.14 
   4  20   3    0.24    0.14 
   5  20   3    2.05    0.26 
   6  20   3   -0.03    0.11 
   7  20   3    0.00    0.09 
  -7  21   3    0.05    0.07 
  -6  21   3    0.00    0.06 
  -5  21   3    0.14    0.09 
  -4  21   3   -0.04    0.10 
  -3  21   3    0.26    0.14 
  -2  21   3    2.01    0.35 
  -1  21   3    0.81    0.19 
   0  21   3    0.55    0.15 
   1  21   3    0.39    0.14 
   2  21   3   -0.11    0.13 
   3  21   3    0.04    0.11 
   4  21   3    0.34    0.11 
   5  21   3    0.08    0.08 
   6  21   3   -0.02    0.07 
  -6  22   3    0.00    0.07 
  -5  22   3    0.40    0.11 
  -4  22   3    0.70    0.15 
  -3  22   3    1.07    0.19 
  -2  22   3    0.18    0.14 
  -1  22   3    0.63    0.18 
   0  22   3    0.09    0.13 
   1  22   3    0.24    0.13 
   2  22   3    0.57    0.15 
   3  22   3    0.57    0.14 
   4  22   3    0.15    0.08 
   5  22   3   -0.02    0.07 
  -5  23   3   -0.05    0.07 
  -4  23   3   -0.01    0.09 
  -3  23   3    0.00    0.09 
  -2  23   3    1.93    0.27 
  -1  23   3    0.15    0.11 
   0  23   3    0.10    0.12 
   1  23   3    0.21    0.12 
   2  23   3    1.53    0.19 
   3  23   3    0.53    0.13 
   4  23   3    0.01    0.16 
  -3  24   3    0.37    0.10 
  -2  24   3    0.10    0.10 
  -1  24   3    0.51    0.11 
   0  24   3    2.33    0.28 
   1  24   3    0.92    0.17 
   2  24   3    0.60    0.13 
  -2 -24   4    0.11    0.09 
  -1 -24   4    0.12    0.10 
   0 -24   4    0.40    0.11 
   1 -24   4    0.10    0.19 
  -5 -23   4    1.35    0.34 
  -4 -23   4    0.05    0.11 
  -3 -23   4    0.21    0.10 
  -2 -23   4    0.16    0.11 
  -1 -23   4    0.02    0.10 
   0 -23   4    0.21    0.11 
   1 -23   4    0.12    0.11 
   2 -23   4   -0.05    0.09 
   3 -23   4    0.26    0.09 
  -6 -22   4    0.64    0.12 
  -5 -22   4    0.25    0.10 
  -4 -22   4    0.73    0.14 
  -3 -22   4    0.50    0.13 
  -2 -22   4    5.25    0.59 
  -1 -22   4    0.47    0.13 
   0 -22   4    0.02    0.13 
   1 -22   4    0.25    0.12 
   2 -22   4    0.45    0.14 
   3 -22   4    0.59    0.12 
   4 -22   4    0.09    0.08 
  -7 -21   4    0.41    0.08 
  -6 -21   4    0.06    0.08 
  -5 -21   4    1.37    0.15 
  -4 -21   4    0.52    0.14 
  -3 -21   4    0.51    0.14 
  -2 -21   4   -0.01    0.13 
  -1 -21   4    0.41    0.14 
   0 -21   4    1.64    0.25 
   1 -21   4    0.05    0.11 
   2 -21   4    0.29    0.13 
   3 -21   4    0.71    0.14 
   4 -21   4    0.54    0.12 
   5 -21   4    0.47    0.09 
  -8 -20   4    0.71    0.08 
  -7 -20   4    0.12    0.07 
  -6 -20   4    0.18    0.08 
  -5 -20   4    0.08    0.09 
  -4 -20   4    0.16    0.12 
  -3 -20   4    0.42    0.15 
  -2 -20   4    0.16    0.14 
  -1 -20   4    0.11    0.12 
   0 -20   4    0.69    0.16 
   1 -20   4    0.20    0.13 
   2 -20   4    0.49    0.14 
   3 -20   4    0.49    0.15 
   4 -20   4    0.34    0.13 
   5 -20   4    0.15    0.12 
   6 -20   4    0.17    0.08 
  -8 -19   4    0.04    0.06 
  -7 -19   4    0.08    0.07 
  -6 -19   4    1.92    0.16 
  -5 -19   4    0.05    0.09 
  -4 -19   4    0.87    0.13 
  -3 -19   4   -0.14    0.10 
  -2 -19   4   -0.03    0.11 
  -1 -19   4   -0.04    0.11 
   0 -19   4    0.50    0.14 
   1 -19   4    0.14    0.11 
   2 -19   4    0.01    0.12 
   3 -19   4    5.31    0.62 
   4 -19   4    0.19    0.16 
   5 -19   4    1.34    0.31 
   6 -19   4    0.27    0.12 
   7 -19   4    0.34    0.13 
  -9 -18   4    0.72    0.07 
  -8 -18   4    6.62    0.44 
  -7 -18   4    9.80    0.62 
  -6 -18   4    4.89    0.34 
  -5 -18   4    0.05    0.09 
  -4 -18   4    0.08    0.09 
  -3 -18   4    0.80    0.14 
  -2 -18   4    0.24    0.11 
  -1 -18   4    0.20    0.14 
   0 -18   4   -0.16    0.11 
   1 -18   4    2.76    0.34 
   2 -18   4    3.08    0.37 
   3 -18   4    0.17    0.15 
   4 -18   4    1.93    0.33 
   5 -18   4    0.73    0.22 
   6 -18   4    0.76    0.22 
   7 -18   4    0.13    0.22 
 -10 -17   4    0.33    0.05 
  -9 -17   4    0.83    0.09 
  -8 -17   4    5.94    0.32 
  -7 -17   4    0.73    0.10 
  -6 -17   4    0.16    0.08 
  -5 -17   4    1.02    0.12 
  -4 -17   4    3.72    0.29 
  -3 -17   4    0.20    0.10 
  -2 -17   4    0.47    0.21 
  -1 -17   4   -0.08    0.25 
   0 -17   4    0.44    0.25 
   1 -17   4   -0.06    0.13 
   2 -17   4    0.53    0.18 
   3 -17   4    0.62    0.22 
   4 -17   4    1.37    0.28 
   5 -17   4    0.10    0.23 
   6 -17   4    1.30    0.40 
   7 -17   4    1.19    0.36 
   8 -17   4    0.49    0.21 
 -10 -16   4    0.22    0.05 
  -9 -16   4    0.15    0.06 
  -8 -16   4    0.03    0.06 
  -7 -16   4   -0.07    0.07 
  -6 -16   4    2.95    0.20 
  -5 -16   4    1.56    0.15 
  -4 -16   4   -0.09    0.23 
  -3 -16   4    6.22    0.87 
  -2 -16   4    0.32    0.17 
  -1 -16   4    0.21    0.16 
   0 -16   4    0.19    0.23 
   1 -16   4    0.71    0.33 
   2 -16   4   -0.05    0.19 
   3 -16   4    0.04    0.19 
   4 -16   4    2.04    0.36 
   5 -16   4    0.10    0.17 
   8 -16   4    1.52    0.37 
 -11 -15   4    0.14    0.04 
 -10 -15   4    0.17    0.05 
  -9 -15   4    6.52    0.31 
  -8 -15   4    2.06    0.12 
  -7 -15   4    8.35    0.43 
  -6 -15   4    1.14    0.12 
  -5 -15   4    1.11    0.48 
  -4 -15   4   10.97    2.33 
  -3 -15   4    0.16    0.16 
  -2 -15   4   -0.01    0.14 
  -1 -15   4    0.23    0.14 
   0 -15   4    0.01    0.19 
   1 -15   4    2.30    0.65 
   2 -15   4    0.66    0.35 
   3 -15   4    5.89    0.95 
   4 -15   4    2.10    0.41 
   5 -15   4    2.45    0.50 
   6 -15   4    0.21    0.16 
 -11 -14   4    0.37    0.05 
 -10 -14   4    1.25    0.10 
  -9 -14   4    0.17    0.07 
  -8 -14   4    2.60    0.14 
  -7 -14   4   16.06    0.69 
  -6 -14   4    0.75    0.23 
  -5 -14   4    3.66    0.82 
  -4 -14   4    1.35    0.45 
  -3 -14   4    5.42    0.90 
  -2 -14   4    3.04    0.51 
  -1 -14   4    1.20    0.29 
   0 -14   4    0.06    0.13 
   1 -14   4    2.30    0.54 
   2 -14   4    1.70    0.49 
   3 -14   4    0.00    0.14 
   4 -14   4    1.92    0.39 
   5 -14   4    2.22    0.44 
   6 -14   4    0.05    0.16 
   7 -14   4    0.24    0.24 
 -11 -13   4    1.25    0.09 
 -10 -13   4    2.17    0.14 
  -9 -13   4    0.41    0.07 
  -8 -13   4    8.47    0.35 
  -7 -13   4    9.95    0.48 
  -6 -13   4    2.14    0.28 
  -5 -13   4    5.04    1.24 
  -4 -13   4    0.20    0.20 
  -3 -13   4    1.10    0.33 
  -2 -13   4    0.16    0.12 
  -1 -13   4    0.27    0.14 
   0 -13   4    0.60    0.16 
   1 -13   4    0.30    0.19 
   2 -13   4    0.57    0.29 
   3 -13   4    0.27    0.26 
   4 -13   4    1.72    0.50 
   5 -13   4    1.47    0.42 
   6 -13   4    0.93    0.29 
   7 -13   4    3.72    1.24 
 -12 -12   4    1.85    0.12 
 -11 -12   4    1.23    0.10 
 -10 -12   4    0.13    0.07 
  -9 -12   4    0.57    0.08 
  -8 -12   4    0.54    0.08 
  -7 -12   4    0.06    0.11 
  -6 -12   4    0.88    0.19 
  -5 -12   4    0.77    0.21 
  -4 -12   4    4.79    0.96 
  -3 -12   4    1.03    0.27 
  -2 -12   4    0.03    0.09 
  -1 -12   4   -0.10    0.08 
   0 -12   4    0.56    0.14 
   1 -12   4    0.12    0.12 
   2 -12   4    6.77    1.54 
   3 -12   4   -0.24    0.14 
   4 -12   4    1.51    0.39 
   5 -12   4    2.13    0.62 
   6 -12   4    1.12    0.36 
   7 -12   4    4.33    1.02 
 -12 -11   4    0.09    0.05 
 -11 -11   4    1.38    0.11 
 -10 -11   4    0.37    0.07 
  -9 -11   4    0.32    0.07 
  -8 -11   4    0.02    0.07 
  -7 -11   4    0.00    0.11 
  -6 -11   4    1.38    0.20 
  -5 -11   4   13.22    1.52 
  -4 -11   4   -0.06    0.09 
  -3 -11   4    3.15    0.47 
  -2 -11   4    0.01    0.09 
  -1 -11   4    4.45    0.59 
   0 -11   4    0.91    0.17 
   1 -11   4    5.22    0.69 
   2 -11   4    2.45    0.35 
   3 -11   4    6.52    1.13 
   4 -11   4    0.77    0.28 
   5 -11   4    5.34    1.08 
   6 -11   4    0.98    0.30 
   7 -11   4    0.15    0.26 
   8 -11   4   -0.28    0.24 
 -12 -10   4    0.43    0.06 
 -11 -10   4    0.69    0.08 
 -10 -10   4    0.16    0.07 
  -9 -10   4   -0.10    0.07 
  -8 -10   4    9.47    0.92 
  -7 -10   4    3.74    0.42 
  -6 -10   4    4.26    0.46 
  -5 -10   4    3.56    0.35 
  -4 -10   4    6.88    0.71 
  -3 -10   4   23.03    3.49 
  -2 -10   4  107.75   13.14 
  -1 -10   4   14.48    1.85 
   0 -10   4    8.92    1.13 
   1 -10   4   12.53    1.52 
   2 -10   4    0.26    0.11 
   3 -10   4    7.15    0.90 
   4 -10   4    2.11    0.50 
   5 -10   4    3.50    0.95 
   6 -10   4    0.01    0.19 
   7 -10   4    0.27    0.25 
 -12  -9   4    0.08    0.06 
 -11  -9   4    0.33    0.08 
 -10  -9   4    3.95    0.20 
  -9  -9   4    0.23    0.08 
  -8  -9   4   15.84    1.57 
  -7  -9   4    1.38    0.19 
  -6  -9   4    0.97    0.15 
  -5  -9   4    0.91    0.13 
  -4  -9   4    4.91    0.50 
  -3  -9   4    3.94    0.57 
  -2  -9   4   10.68    1.62 
  -1  -9   4    5.10    0.63 
   0  -9   4    2.92    0.40 
   1  -9   4    2.10    0.25 
   2  -9   4    0.30    0.09 
   3  -9   4   -0.10    0.06 
   4  -9   4    7.65    0.98 
   5  -9   4    0.73    0.31 
   6  -9   4    0.07    0.24 
   7  -9   4   -0.21    0.21 
 -13  -8   4    0.06    0.04 
 -12  -8   4    0.07    0.06 
 -11  -8   4    0.01    0.07 
 -10  -8   4    7.38    0.36 
  -9  -8   4    1.57    0.29 
  -8  -8   4    3.22    0.40 
  -7  -8   4    1.20    0.18 
  -6  -8   4    2.20    0.22 
  -5  -8   4   10.87    1.02 
  -4  -8   4    5.00    0.50 
  -3  -8   4    3.98    0.51 
  -2  -8   4    0.11    0.11 
  -1  -8   4   14.76    3.24 
   0  -8   4    2.89    0.51 
   1  -8   4    5.72    0.73 
   2  -8   4   17.38    1.88 
   3  -8   4    3.69    0.44 
   4  -8   4    1.51    0.23 
   5  -8   4    0.16    0.20 
   6  -8   4    0.69    0.27 
   7  -8   4    0.78    0.38 
 -13  -7   4    0.18    0.05 
 -12  -7   4    0.06    0.06 
 -11  -7   4    0.36    0.07 
 -10  -7   4    1.82    0.13 
  -9  -7   4    8.16    0.96 
  -8  -7   4    0.19    0.12 
  -7  -7   4    1.93    0.27 
  -6  -7   4    4.78    0.44 
  -5  -7   4    0.99    0.13 
  -4  -7   4    2.06    0.24 
  -3  -7   4    9.87    2.10 
  -2  -7   4    0.06    0.16 
  -1  -7   4   38.42    5.55 
   0  -7   4    4.57    0.65 
   1  -7   4    7.49    1.11 
   2  -7   4   13.73    2.01 
   3  -7   4    1.62    0.28 
   4  -7   4    0.04    0.09 
   6  -7   4    0.00    0.20 
   7  -7   4    1.48    0.47 
 -13  -6   4   -0.07    0.05 
 -12  -6   4    0.27    0.07 
 -11  -6   4    0.02    0.06 
 -10  -6   4    6.16    0.31 
  -9  -6   4    2.57    0.38 
  -8  -6   4   28.70    3.22 
  -7  -6   4    5.12    0.50 
  -6  -6   4   14.06    1.16 
  -5  -6   4    3.18    0.34 
  -4  -6   4    0.08    0.10 
  -3  -6   4    2.26    0.61 
  -2  -6   4   10.92    2.29 
  -1  -6   4   32.54    4.79 
   0  -6   4    0.41    0.11 
   1  -6   4    0.90    0.19 
   2  -6   4   12.36    1.70 
   3  -6   4   22.48    3.28 
   4  -6   4   10.77    1.57 
   5  -6   4    1.33    0.54 
 -13  -5   4    1.34    0.11 
 -12  -5   4    2.08    0.15 
 -11  -5   4    0.09    0.06 
 -10  -5   4    2.84    0.18 
  -9  -5   4   14.20    1.40 
  -8  -5   4    0.12    0.10 
  -7  -5   4    7.44    0.65 
  -6  -5   4    1.89    0.19 
  -5  -5   4   35.67    2.87 
  -4  -5   4   23.91    5.30 
  -3  -5   4    0.57    0.22 
  -2  -5   4   11.97    1.72 
  -1  -5   4   28.78    4.06 
   0  -5   4   10.05    1.54 
   1  -5   4   -0.03    0.06 
   2  -5   4    0.15    0.07 
   3  -5   4   17.64    2.41 
   4  -5   4    3.88    0.89 
   5  -5   4    0.85    0.25 
 -13  -4   4    0.13    0.06 
 -12  -4   4    0.05    0.07 
 -11  -4   4    1.71    0.13 
 -10  -4   4    0.09    0.07 
  -9  -4   4    0.64    0.14 
  -8  -4   4    5.16    0.54 
  -7  -4   4    0.43    0.10 
  -6  -4   4    0.88    0.12 
  -5  -4   4    6.45    0.58 
  -4  -4   4   62.07   15.19 
  -3  -4   4    1.29    0.32 
  -2  -4   4    8.12    1.16 
  -1  -4   4    0.12    0.06 
   0  -4   4   33.40    4.85 
   1  -4   4    6.09    0.87 
   2  -4   4    2.01    0.31 
   3  -4   4    3.04    0.44 
   4  -4   4    2.30    0.65 
 -13  -3   4    0.09    0.06 
 -12  -3   4    0.57    0.09 
 -11  -3   4    0.30    0.08 
 -10  -3   4    0.53    0.09 
  -9  -3   4    0.84    0.15 
  -8  -3   4    4.81    0.54 
  -7  -3   4   16.87    1.53 
  -6  -3   4   22.64    1.99 
  -5  -3   4    0.06    0.06 
  -4  -3   4    1.95    0.66 
  -3  -3   4    5.54    0.88 
  -2  -3   4    1.63    0.24 
  -1  -3   4   11.24    1.62 
   0  -3   4   13.36    2.02 
   1  -3   4    5.82    0.83 
   2  -3   4    4.23    0.59 
   3  -3   4   -0.05    0.06 
   4  -3   4    1.04    0.33 
   5  -3   4    1.90    0.38 
   6  -3   4   12.83    3.07 
 -13  -2   4    0.17    0.07 
 -12  -2   4    0.00    0.08 
 -11  -2   4    0.03    0.07 
 -10  -2   4    6.64    0.83 
  -9  -2   4    1.48    0.21 
  -8  -2   4    7.24    0.74 
  -7  -2   4    8.71    0.84 
  -6  -2   4    3.25    0.32 
  -5  -2   4    0.57    0.34 
  -4  -2   4    1.80    0.34 
  -3  -2   4   19.33    2.99 
  -2  -2   4    3.87    0.65 
  -1  -2   4    2.93    0.47 
   0  -2   4   13.40    2.02 
   1  -2   4   17.13    2.48 
   2  -2   4    3.56    0.49 
   3  -2   4    0.35    0.12 
   4  -2   4    6.82    1.54 
   5  -2   4    6.86    1.58 
   6  -2   4    5.78    1.24 
 -13  -1   4    0.21    0.07 
 -12  -1   4    0.85    0.11 
 -11  -1   4    0.45    0.09 
 -10  -1   4    0.33    0.15 
  -9  -1   4    0.36    0.14 
  -8  -1   4    0.75    0.14 
  -7  -1   4    7.16    0.71 
  -6  -1   4    0.01    0.05 
  -5  -1   4   42.69   10.11 
  -4  -1   4   35.77    5.41 
  -3  -1   4   19.59    3.04 
  -2  -1   4    1.29    0.22 
  -1  -1   4    3.85    0.58 
   0  -1   4    2.03    0.30 
   1  -1   4    4.37    0.66 
   2  -1   4    7.47    1.50 
   3  -1   4    0.91    0.25 
   4  -1   4    3.74    0.81 
   5  -1   4    3.42    0.74 
   6  -1   4   22.93    5.51 
 -13   0   4    0.01    0.06 
 -12   0   4    1.21    0.13 
 -11   0   4    0.59    0.09 
 -10   0   4    0.63    0.18 
  -9   0   4    3.70    0.50 
  -8   0   4    6.73    0.86 
  -7   0   4   24.85    2.19 
  -6   0   4    9.64    0.85 
  -5   0   4  365.87   53.26 
  -4   0   4   46.40    6.99 
  -3   0   4   17.73    2.75 
  -2   0   4   -0.04    0.06 
  -1   0   4   34.20    6.78 
   0   0   4  445.22   93.65 
   1   0   4    2.79    0.44 
   2   0   4   27.31    5.68 
   3   0   4   -0.03    0.07 
   4   0   4    5.02    1.09 
   5   0   4   45.63   10.08 
   6   0   4   90.09   19.69 
 -13   1   4    0.22    0.07 
 -12   1   4    0.90    0.11 
 -11   1   4    0.82    0.10 
 -10   1   4    0.21    0.17 
  -9   1   4    0.25    0.14 
  -8   1   4    0.70    0.14 
  -7   1   4    7.11    0.71 
  -6   1   4   -0.05    0.05 
  -5   1   4   50.02    7.14 
  -4   1   4   36.61    5.42 
  -3   1   4   20.14    3.04 
  -2   1   4    1.21    0.23 
  -1   1   4    3.83    0.58 
   0   1   4    1.75    0.30 
   1   1   4    4.04    0.94 
   2   1   4    7.30    1.50 
   3   1   4    1.05    0.25 
   4   1   4    3.59    0.80 
   5   1   4    3.55    0.54 
   6   1   4   25.56    5.52 
 -13   2   4    0.18    0.07 
 -12   2   4    0.05    0.07 
 -11   2   4   -0.05    0.07 
 -10   2   4    6.07    0.84 
  -9   2   4    1.18    0.21 
  -8   2   4    6.27    0.74 
  -7   2   4    8.18    0.84 
  -6   2   4    2.96    0.29 
  -5   2   4    1.32    0.25 
  -4   2   4    2.24    0.36 
  -3   2   4   19.63    3.00 
  -2   2   4    4.35    0.65 
  -1   2   4    2.99    0.47 
   0   2   4   12.79    2.85 
   1   2   4   15.73    3.50 
   2   2   4    3.08    0.69 
   3   2   4    0.29    0.11 
   4   2   4    6.84    1.09 
   5   2   4    6.48    1.59 
   6   2   4    4.82    1.27 
 -13   3   4    0.09    0.06 
 -12   3   4    0.54    0.09 
 -11   3   4    0.37    0.09 
 -10   3   4    0.36    0.09 
  -9   3   4    0.59    0.15 
  -8   3   4    4.86    0.54 
  -7   3   4   16.21    1.40 
  -6   3   4   20.99    1.82 
  -5   3   4    0.02    0.06 
  -4   3   4    3.08    0.46 
  -3   3   4    6.34    0.89 
  -2   3   4    1.42    0.19 
  -1   3   4   11.04    1.32 
   0   3   4   12.65    2.86 
   1   3   4    4.73    1.17 
   2   3   4    3.87    0.59 
   3   3   4    0.04    0.06 
   4   3   4    1.17    0.24 
   5   3   4    1.81    0.41 
   6   3   4   15.63    3.10 
 -13   4   4    0.06    0.05 
 -12   4   4    0.02    0.07 
 -11   4   4    1.36    0.13 
 -10   4   4   -0.15    0.07 
  -9   4   4    0.42    0.14 
  -8   4   4    4.27    0.54 
  -7   4   4    0.32    0.09 
  -6   4   4    0.75    0.11 
  -5   4   4    5.62    0.53 
  -4   4   4   74.13   10.74 
  -3   4   4    0.80    0.20 
  -2   4   4    8.10    0.95 
  -1   4   4    0.04    0.06 
   0   4   4   32.44    4.85 
   1   4   4    5.43    0.87 
   2   4   4    1.97    0.31 
   3   4   4    2.58    0.44 
   4   4   4    2.46    0.67 
   5   4   4   17.44    3.92 
 -13   5   4    1.03    0.11 
 -12   5   4    1.83    0.15 
 -11   5   4    0.11    0.08 
 -10   5   4    2.51    0.18 
  -9   5   4   11.43    1.40 
  -8   5   4    0.09    0.10 
  -7   5   4    6.36    0.59 
  -6   5   4    1.65    0.19 
  -5   5   4   33.21    2.87 
  -4   5   4   27.08    3.75 
  -3   5   4    0.47    0.15 
  -2   5   4   11.16    2.43 
  -1   5   4   27.10    4.05 
   0   5   4   10.09    1.54 
   1   5   4    0.02    0.06 
   2   5   4    0.03    0.06 
   3   5   4   15.85    3.41 
   4   5   4    4.20    0.64 
   5   5   4    0.34    0.24 
 -13   6   4   -0.06    0.04 
 -12   6   4    0.34    0.08 
 -11   6   4    0.04    0.07 
 -10   6   4    5.05    0.31 
  -9   6   4    2.16    0.33 
  -8   6   4   24.57    2.79 
  -7   6   4    4.93    0.49 
  -6   6   4   13.19    1.16 
  -5   6   4    3.08    0.31 
  -4   6   4   -0.01    0.07 
  -3   6   4    2.44    0.58 
  -2   6   4   11.20    2.27 
  -1   6   4   30.94    4.79 
   0   6   4    0.27    0.10 
   1   6   4    1.02    0.19 
   2   6   4   11.02    1.69 
   3   6   4   24.63    3.28 
   4   6   4   11.88    1.58 
   5   6   4    2.54    0.41 
   6   6   4    0.20    0.17 
 -13   7   4    0.10    0.05 
 -12   7   4   -0.04    0.07 
 -11   7   4    0.35    0.08 
 -10   7   4    1.35    0.13 
  -9   7   4    7.27    0.97 
  -8   7   4    0.13    0.12 
  -7   7   4    2.03    0.28 
  -6   7   4    3.58    0.44 
  -5   7   4    0.76    0.13 
  -4   7   4    1.73    0.24 
  -3   7   4   10.03    2.07 
  -2   7   4   -0.04    0.11 
  -1   7   4   37.21    5.54 
   0   7   4    4.14    0.65 
   1   7   4    7.22    1.11 
   2   7   4   14.65    2.02 
   3   7   4    1.40    0.28 
   4   7   4    0.09    0.10 
   5   7   4    4.93    1.04 
   6   7   4    0.17    0.18 
   7   7   4    1.54    0.43 
 -13   8   4    0.04    0.04 
 -12   8   4    0.03    0.06 
 -11   8   4   -0.11    0.07 
 -10   8   4    6.26    0.36 
  -9   8   4    2.01    0.33 
  -8   8   4    1.94    0.39 
  -7   8   4    0.92    0.19 
  -6   8   4    1.64    0.22 
  -5   8   4   10.36    1.02 
  -4   8   4    4.96    0.51 
  -3   8   4    3.75    0.51 
  -2   8   4    0.04    0.10 
  -1   8   4   15.50    2.27 
   0   8   4    3.41    0.41 
   1   8   4    6.42    0.73 
   2   8   4   19.43    2.66 
   3   8   4    3.26    0.52 
   4   8   4    1.69    0.29 
   5   8   4    0.05    0.16 
   6   8   4    0.38    0.24 
   7   8   4    1.52    0.39 
 -13   9   4    1.30    0.24 
 -12   9   4    0.01    0.06 
 -11   9   4    0.29    0.08 
 -10   9   4    3.09    0.20 
  -9   9   4    0.18    0.08 
  -8   9   4   14.05    1.83 
  -7   9   4    1.21    0.21 
  -6   9   4    0.55    0.15 
  -5   9   4    0.66    0.13 
  -4   9   4    4.86    0.50 
  -3   9   4    4.59    0.49 
  -2   9   4   10.15    1.32 
  -1   9   4    5.18    0.77 
   0   9   4    3.43    0.39 
   1   9   4    2.34    0.35 
   2   9   4    0.36    0.13 
   3   9   4    0.19    0.11 
   4   9   4    8.44    1.20 
   5   9   4    0.90    0.29 
   6   9   4    0.28    0.21 
   7   9   4    0.13    0.21 
   8   9   4    0.45    0.26 
 -12  10   4    0.35    0.07 
 -11  10   4    0.34    0.08 
 -10  10   4    0.10    0.07 
  -9  10   4    0.07    0.07 
  -8  10   4    7.11    1.07 
  -7  10   4    3.05    0.50 
  -6  10   4    3.23    0.46 
  -5  10   4    2.79    0.35 
  -4  10   4    5.88    0.71 
  -3  10   4   22.33    2.46 
  -2  10   4  105.56   13.13 
  -1  10   4   15.13    1.84 
   0  10   4    9.23    1.13 
   1  10   4   14.19    1.86 
   2  10   4    0.68    0.16 
   3  10   4    8.03    1.10 
   4  10   4    1.44    0.43 
   5  10   4    5.71    0.95 
   6  10   4    0.21    0.20 
   7  10   4   -0.01    0.20 
   8  10   4   17.81    3.34 
 -12  11   4   -0.05    0.05 
 -11  11   4    1.03    0.11 
 -10  11   4    0.32    0.08 
  -9  11   4    0.30    0.08 
  -8  11   4    0.05    0.08 
  -7  11   4    0.13    0.14 
  -6  11   4    1.51    0.28 
  -5  11   4   11.03    1.32 
  -4  11   4   -0.07    0.08 
  -3  11   4    2.59    0.37 
  -2  11   4    0.38    0.11 
  -1  11   4    4.43    0.58 
   0  11   4    1.10    0.17 
   1  11   4    5.95    0.85 
   2  11   4    2.76    0.43 
   3  11   4    8.39    1.61 
   4  11   4    0.70    0.25 
   5  11   4    5.19    1.02 
   6  11   4    0.76    0.28 
   7  11   4    0.30    0.24 
   8  11   4   -0.41    0.17 
 -12  12   4    1.48    0.12 
 -11  12   4    1.09    0.10 
 -10  12   4    0.10    0.07 
  -9  12   4    0.30    0.08 
  -8  12   4    0.31    0.08 
  -7  12   4   -0.04    0.14 
  -6  12   4    0.74    0.21 
  -5  12   4    0.54    0.18 
  -4  12   4    3.63    0.68 
  -3  12   4    1.03    0.22 
  -2  12   4    0.00    0.10 
  -1  12   4   -0.01    0.11 
   0  12   4    0.52    0.17 
   1  12   4   -0.18    0.08 
   2  12   4    7.94    1.09 
   3  12   4    0.11    0.17 
   4  12   4    0.84    0.31 
   5  12   4    2.25    0.60 
   6  12   4    0.72    0.30 
   7  12   4    5.97    1.01 
 -11  13   4    0.89    0.09 
 -10  13   4    1.56    0.13 
  -9  13   4    0.26    0.07 
  -8  13   4    6.47    0.35 
  -7  13   4    8.05    0.48 
  -6  13   4    1.11    0.33 
  -5  13   4    4.67    0.87 
  -4  13   4   -0.06    0.17 
  -3  13   4    0.76    0.24 
  -2  13   4   -0.29    0.11 
  -1  13   4    0.22    0.15 
   0  13   4    0.04    0.13 
   1  13   4    0.30    0.20 
   2  13   4    0.79    0.27 
   3  13   4    0.92    0.28 
   4  13   4    1.86    0.47 
   5  13   4    1.06    0.34 
   6  13   4    1.14    0.39 
   7  13   4    5.90    1.26 
 -11  14   4    0.25    0.06 
 -10  14   4    0.92    0.10 
  -9  14   4    0.04    0.07 
  -8  14   4    2.15    0.14 
  -7  14   4   12.22    0.71 
  -6  14   4    0.79    0.25 
  -5  14   4    2.11    0.77 
  -4  14   4    1.30    0.49 
  -3  14   4    5.28    0.94 
  -2  14   4    2.98    0.52 
  -1  14   4    1.39    0.31 
   0  14   4    0.07    0.15 
   1  14   4    1.85    0.37 
   2  14   4    1.82    0.49 
   3  14   4   -0.07    0.18 
   4  14   4    2.37    0.55 
   5  14   4    2.33    0.59 
   6  14   4    0.21    0.23 
   7  14   4    0.11    0.23 
 -11  15   4    0.11    0.05 
 -10  15   4    0.02    0.05 
  -9  15   4    4.66    0.29 
  -8  15   4    1.44    0.12 
  -7  15   4    6.85    0.40 
  -6  15   4    0.82    0.12 
  -5  15   4    1.74    0.57 
  -4  15   4    8.17    2.33 
  -3  15   4    0.03    0.17 
  -2  15   4    0.03    0.15 
  -1  15   4   -0.14    0.14 
   0  15   4    0.02    0.15 
   1  15   4    2.86    0.48 
   2  15   4    1.38    0.39 
   3  15   4    5.83    1.34 
   4  15   4    1.88    0.54 
   5  15   4    2.18    0.68 
   6  15   4    0.49    0.23 
 -10  16   4    0.21    0.05 
  -9  16   4   -0.01    0.06 
  -8  16   4    0.05    0.07 
  -7  16   4   -0.08    0.08 
  -6  16   4    3.07    0.21 
  -5  16   4    1.23    0.15 
  -4  16   4    0.46    0.32 
  -3  16   4    3.67    1.20 
  -2  16   4    0.08    0.19 
  -1  16   4    0.04    0.15 
   0  16   4    0.01    0.15 
   1  16   4    1.00    0.33 
   2  16   4    0.41    0.26 
   3  16   4    0.02    0.17 
   4  16   4    2.23    0.44 
   5  16   4    0.33    0.18 
   6  16   4    0.21    0.26 
   8  16   4    1.96    0.38 
 -10  17   4    0.31    0.06 
  -9  17   4    0.55    0.08 
  -8  17   4    4.39    0.33 
  -7  17   4    0.60    0.10 
  -6  17   4    0.13    0.09 
  -5  17   4    0.77    0.12 
  -4  17   4    3.77    0.30 
  -3  17   4    0.31    0.12 
  -2  17   4    0.53    0.31 
  -1  17   4   -0.08    0.15 
   0  17   4   -0.12    0.16 
   1  17   4    0.08    0.13 
   2  17   4    0.70    0.18 
   3  17   4    0.95    0.22 
   4  17   4    2.39    0.37 
   5  17   4   -0.20    0.14 
   6  17   4    1.27    0.42 
   7  17   4    1.04    0.36 
   8  17   4    0.17    0.21 
  -9  18   4    0.67    0.07 
  -8  18   4    6.19    0.43 
  -7  18   4    8.86    0.59 
  -6  18   4    4.35    0.31 
  -5  18   4   -0.01    0.09 
  -4  18   4    0.22    0.11 
  -3  18   4    0.90    0.16 
  -2  18   4    0.28    0.14 
  -1  18   4    0.54    0.14 
   0  18   4   -0.10    0.11 
   1  18   4    3.66    0.33 
   2  18   4    3.99    0.39 
   3  18   4    0.44    0.16 
   4  18   4    2.30    0.34 
   5  18   4    1.16    0.27 
   6  18   4    0.91    0.24 
   7  18   4    0.43    0.22 
  -8  19   4    0.01    0.06 
  -7  19   4    0.06    0.07 
  -6  19   4    1.74    0.16 
  -5  19   4    0.17    0.10 
  -4  19   4    0.65    0.14 
  -3  19   4    0.04    0.12 
  -2  19   4    0.07    0.13 
  -1  19   4   -0.04    0.13 
   0  19   4    0.53    0.14 
   1  19   4    0.05    0.13 
   2  19   4    0.17    0.14 
   3  19   4    6.18    0.56 
   4  19   4    0.38    0.18 
   5  19   4    2.11    0.29 
   6  19   4    0.14    0.13 
   7  19   4    0.11    0.14 
  -8  20   4    0.63    0.08 
  -7  20   4    0.07    0.06 
  -6  20   4    0.16    0.08 
  -5  20   4    0.19    0.09 
  -4  20   4    0.36    0.11 
  -3  20   4    0.40    0.16 
  -2  20   4    0.04    0.12 
  -1  20   4    0.25    0.13 
   0  20   4    0.41    0.19 
   1  20   4    0.11    0.13 
   2  20   4    0.51    0.16 
   3  20   4    0.87    0.16 
   4  20   4    0.26    0.16 
   5  20   4    0.18    0.13 
   6  20   4    0.46    0.10 
  -7  21   4    0.48    0.09 
  -6  21   4    0.02    0.08 
  -5  21   4    1.22    0.16 
  -4  21   4    0.59    0.12 
  -3  21   4    0.65    0.17 
  -2  21   4   -0.05    0.13 
  -1  21   4    0.38    0.14 
   0  21   4    1.84    0.26 
   1  21   4    0.08    0.14 
   2  21   4    0.04    0.11 
   3  21   4    0.68    0.14 
   4  21   4    0.57    0.14 
   5  21   4    0.43    0.09 
  -6  22   4    0.66    0.11 
  -5  22   4    0.21    0.10 
  -4  22   4    0.52    0.13 
  -3  22   4    0.17    0.13 
  -2  22   4    5.15    0.60 
  -1  22   4    0.75    0.15 
   0  22   4    0.10    0.13 
   1  22   4    0.36    0.14 
   2  22   4    0.20    0.12 
   3  22   4    0.53    0.12 
   4  22   4   -0.06    0.07 
  -5  23   4    0.65    0.32 
  -4  23   4    0.21    0.10 
  -3  23   4    0.40    0.11 
  -2  23   4    0.36    0.11 
  -1  23   4    0.00    0.10 
   0  23   4    0.22    0.12 
   1  23   4    0.02    0.10 
   2  23   4   -0.03    0.09 
   3  23   4    0.13    0.11 
  -2  24   4    0.17    0.09 
  -1  24   4    0.22    0.11 
   0  24   4    0.61    0.14 
   1  24   4    0.13    0.13 
  -4 -23   5   -0.01    0.07 
  -3 -23   5    0.09    0.12 
  -2 -23   5    0.35    0.11 
  -1 -23   5    0.18    0.11 
   0 -23   5   -0.04    0.09 
   1 -23   5    0.31    0.10 
   2 -23   5    0.00    0.10 
  -6 -22   5    0.44    0.10 
  -5 -22   5    0.34    0.10 
  -4 -22   5    0.01    0.09 
  -3 -22   5    0.35    0.11 
  -2 -22   5    0.13    0.11 
  -1 -22   5   -0.17    0.10 
   0 -22   5    0.02    0.13 
   1 -22   5    0.72    0.15 
   2 -22   5    0.19    0.11 
   3 -22   5    0.29    0.10 
  -7 -21   5    0.45    0.09 
  -6 -21   5    0.06    0.09 
  -5 -21   5    0.08    0.09 
  -4 -21   5   -0.07    0.11 
  -3 -21   5    0.22    0.12 
  -2 -21   5    0.21    0.14 
  -1 -21   5   -0.01    0.13 
   0 -21   5    0.00    0.11 
   1 -21   5    0.48    0.15 
   2 -21   5    0.74    0.14 
   3 -21   5    0.53    0.13 
   4 -21   5    0.03    0.08 
   5 -21   5    0.14    0.07 
  -8 -20   5    0.04    0.04 
  -7 -20   5    0.32    0.07 
  -6 -20   5    0.04    0.08 
  -5 -20   5    0.13    0.10 
  -4 -20   5    0.71    0.16 
  -3 -20   5    0.19    0.13 
  -2 -20   5    0.03    0.12 
  -1 -20   5   -0.10    0.14 
   0 -20   5    2.37    0.27 
   1 -20   5    0.93    0.18 
   2 -20   5    0.32    0.13 
   3 -20   5    0.73    0.15 
   4 -20   5    0.06    0.11 
   5 -20   5    0.11    0.11 
  -8 -19   5    0.20    0.06 
  -7 -19   5    3.02    0.23 
  -6 -19   5    0.26    0.09 
  -5 -19   5    0.02    0.10 
  -4 -19   5   -0.03    0.11 
  -3 -19   5    0.00    0.11 
  -2 -19   5    0.61    0.15 
  -1 -19   5    0.18    0.13 
   0 -19   5    0.04    0.12 
   1 -19   5    0.00    0.11 
   2 -19   5    0.06    0.14 
   3 -19   5    0.12    0.15 
   4 -19   5    0.04    0.14 
   5 -19   5    0.12    0.15 
   6 -19   5    1.29    0.21 
  -9 -18   5    0.04    0.04 
  -8 -18   5    0.15    0.07 
  -7 -18   5    0.53    0.09 
  -6 -18   5    3.74    0.26 
  -5 -18   5    1.14    0.14 
  -4 -18   5    1.24    0.16 
  -3 -18   5   -0.05    0.11 
  -2 -18   5   -0.07    0.10 
  -1 -18   5    0.21    0.15 
   0 -18   5    0.81    0.16 
   1 -18   5    0.15    0.13 
   2 -18   5    1.27    0.22 
   3 -18   5    0.48    0.17 
   4 -18   5    0.12    0.17 
   5 -18   5    0.35    0.20 
   6 -18   5    0.76    0.20 
   7 -18   5    0.07    0.19 
 -10 -17   5    0.95    0.08 
  -9 -17   5    0.30    0.07 
  -8 -17   5    0.68    0.08 
  -7 -17   5    1.88    0.15 
  -6 -17   5    0.61    0.10 
  -5 -17   5    0.00    0.09 
  -4 -17   5    0.21    0.10 
  -3 -17   5   -0.06    0.11 
  -2 -17   5    0.98    0.14 
  -1 -17   5    1.71    0.24 
   0 -17   5    1.35    0.21 
   1 -17   5    1.01    0.19 
   2 -17   5    2.53    0.34 
   3 -17   5   -0.17    0.13 
   4 -17   5    1.94    0.33 
   5 -17   5    0.20    0.19 
   6 -17   5    0.45    0.23 
   7 -17   5    0.55    0.25 
 -10 -16   5    1.61    0.10 
  -9 -16   5    1.43    0.11 
  -8 -16   5    0.32    0.08 
  -7 -16   5    5.28    0.30 
  -6 -16   5    1.13    0.12 
  -5 -16   5    5.16    0.35 
  -4 -16   5    6.57    0.47 
  -3 -16   5    0.81    0.34 
  -2 -16   5    0.52    0.21 
  -1 -16   5    0.48    0.18 
   0 -16   5    0.07    0.22 
   1 -16   5    3.47    0.85 
   2 -16   5    4.93    0.89 
   3 -16   5    0.80    0.25 
   4 -16   5    0.14    0.16 
   5 -16   5    1.81    0.34 
   7 -16   5    0.44    0.20 
   8 -16   5    0.17    0.18 
 -11 -15   5   -0.06    0.04 
 -10 -15   5    1.87    0.11 
  -9 -15   5    1.47    0.11 
  -8 -15   5    0.93    0.10 
  -7 -15   5    0.17    0.08 
  -6 -15   5    0.13    0.08 
  -5 -15   5    0.06    0.12 
  -4 -15   5   -0.06    0.22 
  -3 -15   5    0.87    0.37 
  -2 -15   5    1.25    0.30 
  -1 -15   5    0.17    0.16 
   0 -15   5    0.98    0.40 
   1 -15   5   -0.08    0.22 
   2 -15   5    0.49    0.29 
   3 -15   5    0.94    0.41 
   4 -15   5    0.49    0.23 
   5 -15   5    1.64    0.39 
 -11 -14   5    5.01    0.27 
 -10 -14   5    0.46    0.06 
  -9 -14   5    6.00    0.30 
  -8 -14   5    5.82    0.28 
  -7 -14   5    6.92    0.37 
  -6 -14   5    8.99    0.61 
  -5 -14   5    0.69    0.33 
  -4 -14   5    0.01    0.19 
  -3 -14   5    0.00    0.19 
  -2 -14   5    0.03    0.13 
  -1 -14   5    0.05    0.14 
   0 -14   5    0.01    0.15 
   1 -14   5    2.30    0.64 
   2 -14   5   10.43    2.32 
   3 -14   5    0.08    0.15 
   4 -14   5    5.20    0.92 
   5 -14   5    6.26    0.90 
   6 -14   5    0.19    0.18 
 -11 -13   5    0.09    0.05 
 -10 -13   5    0.03    0.06 
  -9 -13   5    0.52    0.08 
  -8 -13   5    1.83    0.11 
  -7 -13   5   -0.04    0.07 
  -6 -13   5    1.86    0.35 
  -5 -13   5    1.13    0.36 
  -4 -13   5    0.08    0.17 
  -3 -13   5   12.98    2.79 
  -2 -13   5    1.77    0.29 
  -1 -13   5    0.10    0.12 
   0 -13   5    1.66    0.36 
   1 -13   5    0.21    0.21 
   2 -13   5    0.73    0.31 
   3 -13   5    0.00    0.24 
   4 -13   5    0.47    0.34 
   5 -13   5    0.40    0.32 
   6 -13   5    0.45    0.28 
 -12 -12   5    0.35    0.05 
 -11 -12   5    0.94    0.08 
 -10 -12   5    0.04    0.07 
  -9 -12   5    4.80    0.22 
  -8 -12   5    1.39    0.10 
  -7 -12   5    1.34    0.26 
  -6 -12   5    0.94    0.28 
  -5 -12   5    5.18    0.88 
  -4 -12   5    1.70    0.56 
  -3 -12   5    0.96    0.28 
  -2 -12   5    0.09    0.10 
  -1 -12   5   -0.15    0.09 
   0 -12   5    0.15    0.10 
   1 -12   5    5.95    0.88 
   2 -12   5    4.41    0.91 
   3 -12   5    1.98    0.56 
   4 -12   5    0.82    0.33 
   5 -12   5    1.17    0.38 
   6 -12   5    1.79    0.51 
   7 -12   5    2.92    0.71 
 -12 -11   5    0.42    0.05 
 -11 -11   5    0.22    0.07 
 -10 -11   5    2.94    0.17 
  -9 -11   5    2.66    0.15 
  -8 -11   5    0.75    0.08 
  -7 -11   5    5.62    0.61 
  -6 -11   5    0.25    0.10 
  -5 -11   5    0.12    0.14 
  -4 -11   5    1.33    0.39 
  -3 -11   5    1.78    0.44 
  -2 -11   5    0.02    0.09 
  -1 -11   5    2.13    0.34 
   0 -11   5    3.67    0.48 
   1 -11   5    0.39    0.12 
   2 -11   5    3.37    0.60 
   3 -11   5    0.35    0.22 
   4 -11   5    0.38    0.21 
   5 -11   5    1.97    0.58 
   6 -11   5    0.35    0.27 
   7 -11   5    1.29    0.49 
 -12 -10   5    0.07    0.05 
 -11 -10   5    1.44    0.11 
 -10 -10   5    0.60    0.08 
  -9 -10   5    4.49    0.21 
  -8 -10   5    4.87    0.50 
  -7 -10   5    0.24    0.12 
  -6 -10   5    4.62    0.50 
  -5 -10   5    8.01    1.00 
  -4 -10   5    0.78    0.17 
  -3 -10   5   25.72    4.02 
  -2 -10   5   14.79    1.84 
  -1 -10   5   -0.06    0.08 
   0 -10   5    2.71    0.37 
   1 -10   5    0.04    0.08 
   2 -10   5    2.36    0.28 
   3 -10   5   -0.06    0.12 
   4 -10   5    8.58    1.87 
   5 -10   5    0.74    0.30 
   6 -10   5    1.50    0.51 
 -12  -9   5    1.04    0.09 
 -11  -9   5    0.11    0.07 
 -10  -9   5    0.05    0.06 
  -9  -9   5    0.09    0.07 
  -8  -9   5    1.88    0.26 
  -7  -9   5    1.10    0.18 
  -6  -9   5   -0.10    0.08 
  -5  -9   5    0.38    0.10 
  -4  -9   5    8.71    0.94 
  -3  -9   5   16.18    2.12 
  -2  -9   5    0.17    0.12 
  -1  -9   5    5.46    0.71 
   0  -9   5   13.55    1.70 
   1  -9   5    3.24    0.38 
   2  -9   5    0.29    0.09 
   3  -9   5    0.24    0.10 
   4  -9   5   -0.21    0.19 
   5  -9   5    2.37    0.59 
   6  -9   5    2.96    0.65 
   7  -9   5    6.91    1.75 
 -13  -8   5    0.04    0.04 
 -12  -8   5    0.11    0.06 
 -11  -8   5    0.57    0.09 
 -10  -8   5   -0.03    0.07 
  -9  -8   5   -0.10    0.07 
  -8  -8   5    0.08    0.12 
  -7  -8   5    5.82    0.59 
  -6  -8   5    1.67    0.21 
  -5  -8   5    1.07    0.14 
  -4  -8   5   17.20    1.86 
  -3  -8   5    4.18    0.43 
  -2  -8   5    0.56    0.15 
  -1  -8   5    0.05    0.07 
   0  -8   5    0.09    0.06 
   1  -8   5    2.75    0.29 
   2  -8   5    0.13    0.07 
   3  -8   5    0.00    0.07 
   4  -8   5    0.00    0.18 
   5  -8   5    1.10    0.38 
   6  -8   5    8.67    1.78 
   7  -8   5    0.09    0.22 
 -13  -7   5    0.02    0.04 
 -12  -7   5    0.44    0.07 
 -11  -7   5   -0.01    0.06 
 -10  -7   5    0.53    0.08 
  -9  -7   5    2.76    0.40 
  -8  -7   5    1.92    0.29 
  -7  -7   5   -0.02    0.08 
  -6  -7   5    0.69    0.12 
  -5  -7   5    2.07    0.24 
  -4  -7   5    7.37    0.82 
  -3  -7   5    1.33    0.28 
  -2  -7   5   21.92    3.40 
  -1  -7   5    4.21    0.73 
   0  -7   5    1.51    0.23 
   1  -7   5    2.16    0.25 
   2  -7   5    2.78    0.41 
   3  -7   5    5.72    0.88 
   4  -7   5   -0.03    0.11 
   6  -7   5    0.00    0.21 
   7  -7   5    3.14    0.83 
 -13  -6   5   -0.06    0.04 
 -12  -6   5    0.05    0.06 
 -11  -6   5    0.74    0.09 
 -10  -6   5    1.04    0.10 
  -9  -6   5    3.10    0.46 
  -8  -6   5    2.23    0.29 
  -7  -6   5    4.51    0.59 
  -6  -6   5    0.11    0.07 
  -5  -6   5    0.72    0.10 
  -4  -6   5   13.64    1.39 
  -3  -6   5   45.29   10.02 
  -2  -6   5   51.78   11.13 
  -1  -6   5    0.30    0.08 
   0  -6   5   27.88    3.97 
   1  -6   5    3.34    0.53 
   2  -6   5    3.18    0.37 
   3  -6   5    1.36    0.24 
   4  -6   5    0.24    0.13 
 -13  -5   5    0.44    0.06 
 -12  -5   5    2.43    0.16 
 -11  -5   5    1.63    0.12 
 -10  -5   5    4.69    0.24 
  -9  -5   5   16.07    1.58 
  -8  -5   5   33.24    3.23 
  -7  -5   5    1.16    0.16 
  -6  -5   5    1.83    0.22 
  -5  -5   5    5.78    0.53 
  -4  -5   5   10.28    1.62 
  -3  -5   5   24.05    5.76 
  -2  -5   5   20.53    3.09 
  -1  -5   5   28.42    4.40 
   0  -5   5    0.62    0.12 
   1  -5   5    9.43    1.35 
   2  -5   5    0.16    0.07 
   3  -5   5    0.52    0.13 
   4  -5   5    3.16    0.42 
 -13  -4   5    0.03    0.05 
 -12  -4   5    1.16    0.12 
 -11  -4   5    5.55    0.29 
 -10  -4   5    2.78    0.17 
  -9  -4   5    0.00    0.11 
  -8  -4   5    0.65    0.14 
  -7  -4   5    2.63    0.28 
  -6  -4   5    3.34    0.32 
  -5  -4   5   68.44    6.25 
  -4  -4   5   25.03    5.77 
  -3  -4   5    2.86    0.78 
  -2  -4   5    0.80    0.15 
  -1  -4   5    5.85    0.85 
   0  -4   5    6.48    0.97 
   1  -4   5   22.31    3.17 
   2  -4   5    4.28    0.85 
   3  -4   5    0.43    0.10 
   4  -4   5    1.90    0.34 
   5  -4   5    3.46    0.56 
 -13  -3   5   -0.06    0.05 
 -12  -3   5    1.36    0.13 
 -11  -3   5    0.09    0.07 
 -10  -3   5    0.26    0.07 
  -9  -3   5    1.63    0.22 
  -8  -3   5   27.41    2.72 
  -7  -3   5    0.24    0.09 
  -6  -3   5   11.96    1.11 
  -5  -3   5    0.05    0.07 
  -4  -3   5    4.12    1.21 
  -3  -3   5   20.84    3.16 
  -2  -3   5    0.01    0.06 
  -1  -3   5    2.09    0.33 
   0  -3   5    3.80    0.55 
   1  -3   5   10.03    1.46 
   2  -3   5    0.46    0.15 
   3  -3   5    0.27    0.11 
   4  -3   5    9.80    2.09 
   5  -3   5    1.19    0.32 
 -13  -2   5    0.02    0.06 
 -12  -2   5    0.10    0.07 
 -11  -2   5    0.17    0.07 
 -10  -2   5    1.08    0.11 
  -9  -2   5    1.65    0.22 
  -8  -2   5   28.35    2.93 
  -7  -2   5   18.13    1.69 
  -6  -2   5    4.89    0.50 
  -5  -2   5    0.01    0.06 
  -4  -2   5   14.77    2.29 
  -3  -2   5    1.49    0.26 
  -2  -2   5    6.70    1.00 
  -1  -2   5    0.48    0.12 
   0  -2   5    0.34    0.10 
   1  -2   5    3.11    0.70 
   2  -2   5   66.90   13.97 
   3  -2   5   72.51   15.37 
   4  -2   5   11.13    2.25 
   5  -2   5    9.38    2.09 
 -13  -1   5    0.08    0.06 
 -12  -1   5    0.06    0.07 
 -11  -1   5    2.69    0.17 
 -10  -1   5    0.84    0.17 
  -9  -1   5   45.59    4.55 
  -8  -1   5    9.82    1.04 
  -7  -1   5    0.01    0.08 
  -6  -1   5    2.82    0.32 
  -5  -1   5    1.49    0.22 
  -4  -1   5   18.45    2.81 
  -3  -1   5    8.83    1.30 
  -2  -1   5    0.74    0.13 
  -1  -1   5    0.85    0.17 
   0  -1   5   15.70    3.30 
   1  -1   5    2.91    0.68 
   2  -1   5   32.34    6.71 
   3  -1   5    3.88    0.89 
   4  -1   5   13.85    3.11 
   5  -1   5    6.34    1.43 
 -13   0   5    0.00    0.06 
 -12   0   5    0.00    0.07 
 -11   0   5    0.16    0.07 
 -10   0   5    0.32    0.14 
  -9   0   5   -0.06    0.12 
  -8   0   5   -0.08    0.09 
  -7   0   5   -0.06    0.06 
  -6   0   5    0.00    0.05 
  -5   0   5    0.02    0.07 
  -4   0   5   -0.05    0.08 
  -3   0   5   -0.02    0.07 
  -2   0   5    0.09    0.07 
  -1   0   5    0.10    0.06 
   0   0   5   -0.02    0.08 
   1   0   5   -0.02    0.07 
   2   0   5   -0.06    0.07 
   3   0   5   -0.03    0.08 
   4   0   5    0.02    0.09 
   5   0   5    0.01    0.10 
 -13   1   5   -0.11    0.05 
 -12   1   5    0.03    0.07 
 -11   1   5    2.44    0.17 
 -10   1   5    0.91    0.21 
  -9   1   5   43.30    5.26 
  -8   1   5    9.28    1.04 
  -7   1   5   -0.10    0.06 
  -6   1   5    2.80    0.28 
  -5   1   5    1.90    0.20 
  -4   1   5   18.70    2.81 
  -3   1   5    9.21    1.30 
  -2   1   5    0.40    0.12 
  -1   1   5    0.94    0.17 
   0   1   5   15.25    3.30 
   1   1   5    3.07    0.68 
   2   1   5   32.26    6.71 
   3   1   5    3.81    0.89 
   4   1   5   13.71    3.11 
   5   1   5    6.58    1.02 
 -13   2   5    0.11    0.06 
 -12   2   5    0.11    0.07 
 -11   2   5    0.16    0.07 
 -10   2   5    0.89    0.11 
  -9   2   5    1.33    0.22 
  -8   2   5   26.81    2.93 
  -7   2   5   18.29    1.69 
  -6   2   5    4.88    0.42 
  -5   2   5    0.02    0.05 
  -4   2   5   15.90    2.30 
  -3   2   5    1.57    0.27 
  -2   2   5    6.56    1.00 
  -1   2   5    0.30    0.16 
   0   2   5    0.56    0.16 
   1   2   5    2.81    0.69 
   2   2   5   66.72   13.96 
   3   2   5   68.17   15.36 
   4   2   5   10.82    1.60 
   5   2   5    9.52    2.11 
 -13   3   5   -0.01    0.05 
 -12   3   5    1.23    0.12 
 -11   3   5   -0.03    0.07 
 -10   3   5    0.17    0.08 
  -9   3   5    1.30    0.22 
  -8   3   5   24.15    2.71 
  -7   3   5    0.16    0.09 
  -6   3   5   11.39    1.01 
  -5   3   5    0.16    0.06 
  -4   3   5    5.17    0.84 
  -3   3   5   21.31    3.17 
  -2   3   5    0.09    0.08 
  -1   3   5    2.23    0.47 
   0   3   5    3.20    0.77 
   1   3   5    9.74    2.06 
   2   3   5    0.38    0.14 
   3   3   5    0.05    0.07 
   4   3   5    8.88    1.48 
   5   3   5    0.52    0.31 
 -13   4   5    0.04    0.05 
 -12   4   5    0.94    0.11 
 -11   4   5    4.67    0.28 
 -10   4   5    2.33    0.16 
  -9   4   5    0.06    0.12 
  -8   4   5    0.44    0.14 
  -7   4   5    2.34    0.26 
  -6   4   5    3.05    0.29 
  -5   4   5   66.74    5.71 
  -4   4   5   30.24    4.08 
  -3   4   5    3.43    0.54 
  -2   4   5    0.80    0.16 
  -1   4   5    5.65    0.84 
   0   4   5    6.27    0.97 
   1   4   5   21.00    3.17 
   2   4   5    3.70    0.60 
   3   4   5    0.35    0.10 
   4   4   5    2.00    0.51 
   5   4   5    3.29    0.82 
 -13   5   5    0.31    0.06 
 -12   5   5    1.89    0.15 
 -11   5   5    1.18    0.12 
 -10   5   5    3.79    0.23 
  -9   5   5   14.42    1.58 
  -8   5   5   29.12    3.23 
  -7   5   5    1.21    0.16 
  -6   5   5    2.27    0.21 
  -5   5   5    5.05    0.48 
  -4   5   5   11.03    1.15 
  -3   5   5   29.24    4.07 
  -2   5   5   20.12    4.37 
  -1   5   5   30.73    4.40 
   0   5   5    0.61    0.11 
   1   5   5    8.67    1.34 
   2   5   5    0.23    0.08 
   3   5   5    0.60    0.11 
   4   5   5    2.89    0.44 
 -13   6   5   -0.05    0.05 
 -12   6   5    0.12    0.07 
 -11   6   5    0.47    0.09 
 -10   6   5    0.97    0.10 
  -9   6   5    3.15    0.41 
  -8   6   5    1.21    0.24 
  -7   6   5    4.35    0.53 
  -6   6   5    0.03    0.07 
  -5   6   5    0.31    0.09 
  -4   6   5   12.01    1.39 
  -3   6   5   46.28    7.07 
  -2   6   5   54.55   11.11 
  -1   6   5    0.11    0.08 
   0   6   5   25.72    3.96 
   1   6   5    3.30    0.53 
   2   6   5    2.95    0.38 
   3   6   5    1.41    0.25 
   4   6   5    0.51    0.15 
   5   6   5    0.13    0.17 
 -13   7   5   -0.09    0.04 
 -12   7   5    0.22    0.07 
 -11   7   5    0.00    0.07 
 -10   7   5    0.33    0.08 
  -9   7   5    2.45    0.35 
  -8   7   5    1.96    0.27 
  -7   7   5    0.06    0.10 
  -6   7   5    0.86    0.13 
  -5   7   5    2.06    0.25 
  -4   7   5    7.43    0.82 
  -3   7   5    1.21    0.21 
  -2   7   5   22.05    3.40 
  -1   7   5    4.96    0.73 
   0   7   5    1.77    0.23 
   1   7   5    1.99    0.28 
   2   7   5    3.21    0.41 
   3   7   5    5.61    0.89 
   4   7   5    0.04    0.10 
   5   7   5    0.35    0.19 
 -13   8   5    0.00    0.04 
 -12   8   5    0.15    0.06 
 -11   8   5    0.42    0.09 
 -10   8   5   -0.06    0.07 
  -9   8   5   -0.01    0.07 
  -8   8   5    0.01    0.12 
  -7   8   5    4.80    0.60 
  -6   8   5    1.37    0.22 
  -5   8   5    0.73    0.14 
  -4   8   5   17.01    1.86 
  -3   8   5    3.33    0.43 
  -2   8   5    0.35    0.14 
  -1   8   5    0.00    0.09 
   0   8   5    0.15    0.06 
   1   8   5    2.38    0.32 
   2   8   5   -0.04    0.09 
   3   8   5    0.09    0.11 
   4   8   5   -0.04    0.13 
   5   8   5    1.01    0.33 
   6   8   5    8.79    1.75 
 -13   9   5    0.31    0.12 
 -12   9   5    0.84    0.09 
 -11   9   5    0.14    0.07 
 -10   9   5    0.18    0.07 
  -9   9   5    0.06    0.07 
  -8   9   5    1.45    0.26 
  -7   9   5    0.63    0.18 
  -6   9   5    0.01    0.10 
  -5   9   5    0.31    0.10 
  -4   9   5    8.21    0.94 
  -3   9   5   16.87    1.83 
  -2   9   5    0.01    0.09 
  -1   9   5    5.97    0.87 
   0   9   5   14.15    1.46 
   1   9   5    3.57    0.54 
   2   9   5    0.56    0.15 
   3   9   5    0.19    0.13 
   4   9   5    0.11    0.17 
   5   9   5    2.11    0.54 
   6   9   5    3.16    0.60 
 -12  10   5    0.01    0.06 
 -11  10   5    0.87    0.10 
 -10  10   5    0.61    0.08 
  -9  10   5    3.16    0.20 
  -8  10   5    3.35    0.58 
  -7  10   5    0.24    0.13 
  -6  10   5    3.72    0.50 
  -5  10   5    7.53    1.01 
  -4  10   5    0.77    0.14 
  -3  10   5   25.31    3.27 
  -2  10   5   13.69    1.84 
  -1  10   5   -0.07    0.11 
   0  10   5    3.22    0.65 
   1  10   5   -0.15    0.09 
   2  10   5    2.43    0.41 
   3  10   5    0.01    0.16 
   4  10   5    9.32    1.85 
   5  10   5    0.83    0.29 
   6  10   5    1.77    0.49 
   7  10   5    7.85    1.53 
 -12  11   5    0.28    0.06 
 -11  11   5    0.26    0.07 
 -10  11   5    2.39    0.17 
  -9  11   5    2.04    0.15 
  -8  11   5    0.41    0.08 
  -7  11   5    5.22    0.72 
  -6  11   5   -0.03    0.11 
  -5  11   5    0.14    0.13 
  -4  11   5    1.26    0.20 
  -3  11   5    2.48    0.37 
  -2  11   5    0.01    0.10 
  -1  11   5    2.79    0.61 
   0  11   5    3.82    0.81 
   1  11   5    0.46    0.11 
   2  11   5    3.89    0.59 
   3  11   5    0.39    0.20 
   4  11   5   -0.18    0.15 
   5  11   5    1.74    0.53 
   6  11   5    0.70    0.27 
   7  11   5    2.07    0.50 
 -12  12   5    0.31    0.06 
 -11  12   5    0.72    0.08 
 -10  12   5    0.13    0.07 
  -9  12   5    3.37    0.21 
  -8  12   5    0.92    0.10 
  -7  12   5    1.45    0.28 
  -6  12   5    1.51    0.26 
  -5  12   5    4.57    0.73 
  -4  12   5    2.14    0.43 
  -3  12   5    0.31    0.15 
  -2  12   5    0.19    0.12 
  -1  12   5    0.01    0.13 
   0  12   5    0.34    0.23 
   1  12   5    4.94    0.88 
   2  12   5    5.27    0.89 
   3  12   5    3.13    0.59 
   4  12   5    0.96    0.31 
   5  12   5    1.28    0.36 
   6  12   5    1.71    0.47 
   7  12   5    2.02    0.65 
 -11  13   5    0.15    0.06 
 -10  13   5    0.07    0.07 
  -9  13   5    0.21    0.07 
  -8  13   5    1.30    0.11 
  -7  13   5    0.07    0.08 
  -6  13   5    1.67    0.31 
  -5  13   5    0.84    0.29 
  -4  13   5   -0.13    0.15 
  -3  13   5   11.38    1.99 
  -2  13   5    1.25    0.30 
  -1  13   5   -0.03    0.15 
   0  13   5    2.24    0.54 
   1  13   5   -0.14    0.16 
   2  13   5    0.45    0.17 
   3  13   5    0.39    0.25 
   4  13   5    1.02    0.33 
   5  13   5    1.25    0.37 
   6  13   5    0.01    0.20 
 -11  14   5    4.15    0.27 
 -10  14   5    0.45    0.07 
  -9  14   5    4.29    0.28 
  -8  14   5    4.79    0.27 
  -7  14   5    5.81    0.38 
  -6  14   5    7.44    0.53 
  -5  14   5    0.62    0.27 
  -4  14   5    0.24    0.20 
  -3  14   5    0.20    0.17 
  -2  14   5    0.60    0.19 
  -1  14   5   -0.04    0.16 
   0  14   5    0.29    0.21 
   1  14   5    2.81    0.65 
   2  14   5   11.84    2.32 
   3  14   5    0.00    0.20 
   4  14   5    5.74    1.27 
   5  14   5    6.91    1.24 
   6  14   5   -0.06    0.20 
 -11  15   5    0.02    0.04 
 -10  15   5    1.43    0.12 
  -9  15   5    1.25    0.11 
  -8  15   5    0.72    0.10 
  -7  15   5    0.13    0.09 
  -6  15   5    0.03    0.09 
  -5  15   5    0.02    0.14 
  -4  15   5   -0.07    0.19 
  -3  15   5    1.44    0.31 
  -2  15   5    1.33    0.33 
  -1  15   5    0.09    0.16 
   0  15   5    1.69    0.47 
   1  15   5    0.57    0.28 
   2  15   5    0.74    0.31 
   3  15   5    1.18    0.37 
   4  15   5    0.67    0.21 
   5  15   5    1.72    0.37 
 -10  16   5    1.42    0.10 
  -9  16   5    1.09    0.11 
  -8  16   5    0.08    0.08 
  -7  16   5    3.93    0.28 
  -6  16   5    0.81    0.12 
  -5  16   5    3.66    0.29 
  -4  16   5    6.21    0.50 
  -3  16   5    0.74    0.27 
  -2  16   5    1.01    0.27 
  -1  16   5   -0.01    0.17 
   0  16   5    0.17    0.24 
   1  16   5    2.98    0.80 
   2  16   5    5.93    0.72 
   3  16   5    0.96    0.23 
   4  16   5    0.19    0.16 
   5  16   5    2.17    0.43 
   6  16   5    2.29    0.57 
   7  16   5   -0.02    0.24 
   8  16   5    0.07    0.20 
 -10  17   5    0.81    0.08 
  -9  17   5    0.20    0.07 
  -8  17   5    0.41    0.08 
  -7  17   5    1.53    0.15 
  -6  17   5    0.52    0.11 
  -5  17   5   -0.07    0.09 
  -4  17   5    0.28    0.12 
  -3  17   5    0.10    0.11 
  -2  17   5    0.53    0.16 
  -1  17   5    1.45    0.23 
   0  17   5    1.65    0.23 
   1  17   5    1.23    0.23 
   2  17   5    3.19    0.37 
   3  17   5   -0.04    0.15 
   4  17   5    1.86    0.34 
   5  17   5    0.11    0.29 
   6  17   5    0.68    0.30 
   7  17   5    0.19    0.17 
  -9  18   5    0.03    0.06 
  -8  18   5    0.06    0.07 
  -7  18   5    0.50    0.10 
  -6  18   5    3.10    0.25 
  -5  18   5    0.99    0.15 
  -4  18   5    1.42    0.17 
  -3  18   5   -0.13    0.12 
  -2  18   5    0.12    0.13 
  -1  18   5    0.41    0.15 
   0  18   5    1.03    0.18 
   1  18   5    0.32    0.13 
   2  18   5    1.95    0.28 
   3  18   5    0.87    0.16 
   4  18   5    0.24    0.17 
   5  18   5    0.71    0.24 
   6  18   5    0.71    0.22 
   7  18   5    0.18    0.14 
  -8  19   5    0.18    0.08 
  -7  19   5    2.60    0.23 
  -6  19   5   -0.04    0.08 
  -5  19   5    0.01    0.09 
  -4  19   5   -0.01    0.11 
  -3  19   5    0.14    0.11 
  -2  19   5    0.40    0.16 
  -1  19   5   -0.23    0.13 
   0  19   5    0.07    0.12 
   1  19   5   -0.01    0.12 
   2  19   5    0.25    0.16 
   3  19   5    0.01    0.15 
   4  19   5    0.16    0.15 
   5  19   5    0.26    0.14 
   6  19   5    1.79    0.23 
  -8  20   5    0.12    0.07 
  -7  20   5    0.35    0.08 
  -6  20   5   -0.05    0.09 
  -5  20   5    0.03    0.10 
  -4  20   5    0.57    0.16 
  -3  20   5    0.10    0.13 
  -2  20   5   -0.11    0.13 
  -1  20   5    0.11    0.15 
   0  20   5    2.24    0.28 
   1  20   5    1.08    0.19 
   2  20   5    0.17    0.14 
   3  20   5    0.43    0.15 
   4  20   5    0.06    0.11 
   5  20   5    0.06    0.11 
  -7  21   5    0.55    0.10 
  -6  21   5    0.04    0.08 
  -5  21   5   -0.01    0.11 
  -4  21   5   -0.13    0.11 
  -3  21   5    0.39    0.13 
  -2  21   5    0.45    0.14 
  -1  21   5    0.06    0.14 
   0  21   5    0.09    0.14 
   1  21   5    0.39    0.13 
   2  21   5    0.38    0.15 
   3  21   5    0.17    0.12 
   4  21   5   -0.03    0.07 
   5  21   5    0.10    0.09 
  -6  22   5    0.30    0.10 
  -5  22   5    0.17    0.10 
  -4  22   5    0.12    0.10 
  -3  22   5    0.28    0.13 
  -2  22   5    0.21    0.12 
  -1  22   5    0.30    0.12 
   0  22   5    0.01    0.12 
   1  22   5    0.67    0.13 
   2  22   5    0.00    0.10 
   3  22   5    0.22    0.09 
  -4  23   5    0.01    0.08 
  -3  23   5    0.32    0.11 
  -2  23   5    0.49    0.14 
  -1  23   5    0.03    0.10 
   0  23   5    0.07    0.10 
   1  23   5    0.13    0.09 
   2  23   5    0.15    0.10 
  -3 -23   6   -0.12    0.08 
  -2 -23   6    0.41    0.10 
  -1 -23   6    0.07    0.08 
   0 -23   6    0.31    0.10 
   1 -23   6    0.47    0.19 
  -5 -22   6    0.05    0.10 
  -4 -22   6    0.83    0.13 
  -3 -22   6    0.34    0.12 
  -2 -22   6    0.06    0.11 
  -1 -22   6   -0.04    0.10 
   0 -22   6    0.07    0.11 
   1 -22   6    0.07    0.10 
   2 -22   6    0.39    0.11 
  -6 -21   6    0.02    0.07 
  -5 -21   6   -0.18    0.08 
  -4 -21   6    0.12    0.12 
  -3 -21   6    0.32    0.14 
  -2 -21   6    0.45    0.15 
  -1 -21   6    0.12    0.13 
   0 -21   6    0.18    0.12 
   1 -21   6    0.32    0.13 
   2 -21   6    0.08    0.10 
   3 -21   6    0.05    0.10 
   4 -21   6    0.53    0.10 
  -7 -20   6    0.11    0.06 
  -6 -20   6    1.80    0.20 
  -5 -20   6    0.53    0.12 
  -4 -20   6    0.23    0.12 
  -3 -20   6    1.43    0.26 
  -2 -20   6    0.72    0.15 
  -1 -20   6    0.03    0.13 
   0 -20   6    0.02    0.12 
   1 -20   6    1.52    0.24 
   2 -20   6    0.96    0.16 
   3 -20   6    0.10    0.11 
   4 -20   6    0.24    0.11 
   5 -20   6    0.09    0.07 
  -8 -19   6   -0.03    0.05 
  -7 -19   6    4.09    0.36 
  -6 -19   6    0.24    0.09 
  -5 -19   6   -0.01    0.10 
  -4 -19   6    0.38    0.14 
  -3 -19   6    0.71    0.18 
  -2 -19   6   -0.11    0.12 
  -1 -19   6    0.14    0.14 
   0 -19   6    0.46    0.15 
   1 -19   6    0.01    0.12 
   2 -19   6   -0.06    0.14 
   3 -19   6    0.84    0.18 
   4 -19   6    0.13    0.13 
   5 -19   6   -0.03    0.10 
   6 -19   6    0.93    0.16 
  -9 -18   6    0.38    0.06 
  -8 -18   6    0.45    0.07 
  -7 -18   6    1.11    0.12 
  -6 -18   6    0.22    0.09 
  -5 -18   6    1.53    0.17 
  -4 -18   6    0.48    0.13 
  -3 -18   6    0.02    0.12 
  -2 -18   6    0.85    0.16 
  -1 -18   6    0.08    0.12 
   0 -18   6    1.17    0.18 
   1 -18   6    0.28    0.12 
   2 -18   6    4.69    0.55 
   3 -18   6    2.70    0.41 
   4 -18   6    2.27    0.43 
   5 -18   6    0.98    0.24 
   6 -18   6    1.03    0.22 
  -9 -17   6    1.02    0.10 
  -8 -17   6    0.03    0.06 
  -7 -17   6    0.03    0.08 
  -6 -17   6    0.95    0.12 
  -5 -17   6    0.46    0.11 
  -4 -17   6    0.83    0.14 
  -3 -17   6    0.13    0.12 
  -2 -17   6    0.28    0.13 
  -1 -17   6    1.05    0.16 
   0 -17   6    0.62    0.14 
   1 -17   6    0.12    0.13 
   2 -17   6    0.26    0.16 
   3 -17   6    0.52    0.20 
   4 -17   6    0.68    0.44 
   5 -17   6   -0.04    0.16 
   6 -17   6    0.76    0.24 
   7 -17   6    0.11    0.10 
 -10 -16   6    0.03    0.05 
  -9 -16   6   -0.04    0.06 
  -8 -16   6    2.14    0.16 
  -7 -16   6    0.33    0.09 
  -6 -16   6    0.19    0.09 
  -5 -16   6    2.48    0.19 
  -4 -16   6   -0.05    0.10 
  -3 -16   6    0.11    0.12 
  -2 -16   6    0.13    0.13 
  -1 -16   6    1.98    0.24 
   0 -16   6    0.86    0.19 
   1 -16   6    0.32    0.17 
   2 -16   6    0.24    0.20 
   3 -16   6   -0.19    0.16 
   4 -16   6    2.15    0.40 
   5 -16   6   -0.15    0.27 
   7 -16   6    0.36    0.20 
 -10 -15   6    0.18    0.06 
  -9 -15   6    5.72    0.30 
  -8 -15   6    1.55    0.12 
  -7 -15   6    3.55    0.21 
  -6 -15   6    5.09    0.32 
  -5 -15   6    0.27    0.10 
  -4 -15   6    0.16    0.26 
  -3 -15   6    0.10    0.23 
  -2 -15   6    0.00    0.13 
  -1 -15   6    0.55    0.20 
   0 -15   6    1.20    0.27 
   1 -15   6    0.12    0.24 
   2 -15   6    0.00    0.16 
   3 -15   6    1.58    0.40 
   4 -15   6    1.09    0.23 
   5 -15   6    1.07    0.34 
   6 -15   6   -0.34    0.25 
 -11 -14   6    0.86    0.07 
 -10 -14   6    2.81    0.15 
  -9 -14   6    0.12    0.06 
  -8 -14   6    0.05    0.07 
  -7 -14   6    0.28    0.08 
  -6 -14   6    0.09    0.09 
  -5 -14   6   -0.11    0.22 
  -4 -14   6    0.39    0.24 
  -3 -14   6    2.89    0.64 
  -2 -14   6    5.21    0.76 
  -1 -14   6   -0.01    0.13 
   0 -14   6   -0.18    0.12 
   1 -14   6   -0.05    0.19 
   2 -14   6   -0.11    0.22 
   3 -14   6    4.51    0.97 
   4 -14   6    0.06    0.26 
   5 -14   6    0.14    0.19 
 -11 -13   6    1.35    0.09 
 -10 -13   6    0.21    0.06 
  -9 -13   6   -0.07    0.06 
  -8 -13   6    0.55    0.09 
  -7 -13   6    0.02    0.08 
  -6 -13   6    5.40    0.91 
  -5 -13   6    0.84    0.35 
  -4 -13   6   -0.11    0.17 
  -3 -13   6   -0.10    0.21 
  -2 -13   6    0.14    0.23 
  -1 -13   6    0.05    0.13 
   0 -13   6    0.02    0.13 
   1 -13   6    1.70    0.39 
   2 -13   6    2.52    0.59 
   3 -13   6    1.62    0.52 
   4 -13   6   -0.23    0.21 
   5 -13   6   -0.06    0.26 
   6 -13   6    0.83    0.44 
 -12 -12   6    1.05    0.08 
 -11 -12   6    3.31    0.19 
 -10 -12   6    5.36    0.28 
  -9 -12   6    0.32    0.07 
  -8 -12   6    1.13    0.10 
  -7 -12   6    0.38    0.10 
  -6 -12   6    6.01    0.85 
  -5 -12   6    0.74    0.29 
  -4 -12   6    0.82    0.32 
  -3 -12   6    0.03    0.23 
  -2 -12   6    0.40    0.22 
  -1 -12   6   11.53    1.74 
   0 -12   6   -0.07    0.12 
   1 -12   6    3.16    0.60 
   2 -12   6    0.50    0.26 
   3 -12   6    2.55    0.73 
   4 -12   6    6.90    1.34 
   5 -12   6    0.44    0.32 
   6 -12   6    3.78    0.90 
 -12 -11   6    0.14    0.05 
 -11 -11   6   -0.01    0.06 
 -10 -11   6    0.97    0.10 
  -9 -11   6   -0.02    0.06 
  -8 -11   6    6.45    0.27 
  -7 -11   6    5.64    0.71 
  -6 -11   6    5.33    0.88 
  -5 -11   6   -0.03    0.13 
  -4 -11   6    1.09    0.43 
  -3 -11   6    6.82    1.69 
  -2 -11   6    1.15    0.28 
  -1 -11   6    0.89    0.18 
   0 -11   6    0.15    0.11 
   1 -11   6    2.80    0.51 
   2 -11   6    0.38    0.15 
   3 -11   6    0.32    0.22 
   4 -11   6    6.78    1.59 
   5 -11   6    2.48    0.57 
   6 -11   6    2.21    0.68 
   7 -11   6    3.33    1.04 
 -12 -10   6   -0.01    0.05 
 -11 -10   6    0.09    0.06 
 -10 -10   6    0.68    0.08 
  -9 -10   6    0.01    0.06 
  -8 -10   6    5.03    0.32 
  -7 -10   6   15.67    1.60 
  -6 -10   6    0.44    0.14 
  -5 -10   6    0.77    0.15 
  -4 -10   6    2.34    0.38 
  -3 -10   6    0.46    0.17 
  -2 -10   6    0.10    0.13 
  -1 -10   6    1.93    0.28 
   0 -10   6    0.74    0.16 
   1 -10   6    3.33    0.44 
   2 -10   6    7.99    1.04 
   3 -10   6    5.50    1.10 
   4 -10   6    0.07    0.22 
   5 -10   6    1.44    0.46 
   6 -10   6   -0.02    0.23 
   7 -10   6    0.28    0.28 
 -12  -9   6    4.64    0.25 
 -11  -9   6    1.58    0.12 
 -10  -9   6    2.43    0.14 
  -9  -9   6   -0.01    0.06 
  -8  -9   6    0.36    0.14 
  -7  -9   6   13.80    1.35 
  -6  -9   6    5.35    0.69 
  -5  -9   6    0.96    0.17 
  -4  -9   6   11.70    1.28 
  -3  -9   6    3.43    0.57 
  -2  -9   6   15.71    2.46 
  -1  -9   6   20.98    3.19 
   0  -9   6    0.98    0.18 
   1  -9   6    0.75    0.13 
   2  -9   6    2.19    0.30 
   3  -9   6    5.66    0.94 
   4  -9   6    1.82    0.45 
   5  -9   6    1.29    0.41 
   6  -9   6    5.37    1.19 
   7  -9   6    2.02    0.62 
 -13  -8   6    0.50    0.06 
 -12  -8   6    0.02    0.05 
 -11  -8   6    0.41    0.08 
 -10  -8   6    0.00    0.06 
  -9  -8   6    3.07    0.16 
  -8  -8   6    0.96    0.20 
  -7  -8   6    0.84    0.16 
  -6  -8   6    0.93    0.14 
  -5  -8   6   27.86    3.35 
  -4  -8   6   12.13    1.25 
  -3  -8   6    2.23    0.34 
  -2  -8   6    2.34    0.41 
  -1  -8   6    8.14    1.09 
   0  -8   6    0.12    0.07 
   1  -8   6    8.71    0.92 
   2  -8   6    0.09    0.08 
   3  -8   6    2.67    0.33 
   4  -8   6    1.14    0.43 
   5  -8   6   14.97    3.39 
   6  -8   6   26.35    5.86 
   7  -8   6    7.28    1.48 
 -13  -7   6    0.07    0.05 
 -12  -7   6    0.08    0.06 
 -11  -7   6    8.01    0.40 
 -10  -7   6   -0.07    0.06 
  -9  -7   6    0.55    0.12 
  -8  -7   6    0.11    0.13 
  -7  -7   6    0.07    0.11 
  -6  -7   6   10.78    1.13 
  -5  -7   6    4.33    0.49 
  -4  -7   6    1.71    0.22 
  -3  -7   6   12.53    1.69 
  -2  -7   6    3.48    0.62 
  -1  -7   6    2.47    0.36 
   0  -7   6    3.03    0.34 
   1  -7   6   -0.01    0.07 
   2  -7   6    0.04    0.09 
   3  -7   6    0.14    0.09 
   4  -7   6    0.58    0.26 
   6  -7   6    0.43    0.32 
   7  -7   6    5.84    1.67 
 -13  -6   6    2.61    0.15 
 -12  -6   6    0.19    0.07 
 -11  -6   6    0.20    0.07 
 -10  -6   6    0.47    0.08 
  -9  -6   6    1.30    0.23 
  -8  -6   6    0.54    0.16 
  -7  -6   6    0.00    0.09 
  -6  -6   6    7.68    0.74 
  -5  -6   6    7.50    0.70 
  -4  -6   6    0.02    0.07 
  -3  -6   6    0.96    0.19 
  -2  -6   6    0.89    0.19 
  -1  -6   6    7.31    0.94 
   0  -6   6   25.79    3.14 
   1  -6   6   21.83    3.32 
   2  -6   6    0.99    0.18 
   3  -6   6    0.25    0.11 
   4  -6   6   -0.11    0.15 
 -13  -5   6    0.32    0.06 
 -12  -5   6    0.08    0.06 
 -11  -5   6    7.01    0.36 
 -10  -5   6    3.79    0.21 
  -9  -5   6    0.91    0.20 
  -8  -5   6    5.55    0.74 
  -7  -5   6   14.60    1.82 
  -6  -5   6    0.37    0.11 
  -5  -5   6   18.60    1.71 
  -4  -5   6    0.16    0.08 
  -3  -5   6   10.59    1.49 
  -2  -5   6    1.01    0.16 
  -1  -5   6    0.97    0.16 
   0  -5   6   39.88    4.85 
   1  -5   6   28.80    4.35 
   2  -5   6    0.70    0.16 
   3  -5   6   12.03    1.80 
   4  -5   6    0.31    0.13 
   5  -5   6    3.12    0.82 
   8  -5   6    8.53    2.21 
 -13  -4   6    0.20    0.06 
 -12  -4   6    0.61    0.08 
 -11  -4   6    0.57    0.08 
 -10  -4   6   10.69    0.52 
  -9  -4   6    7.10    0.75 
  -8  -4   6    1.92    0.24 
  -7  -4   6    0.07    0.09 
  -6  -4   6   -0.02    0.07 
  -5  -4   6   11.93    1.08 
  -4  -4   6   14.67    1.78 
  -3  -4   6    3.37    0.87 
  -2  -4   6    0.42    0.11 
  -1  -4   6    0.39    0.11 
   0  -4   6   41.56    6.45 
   1  -4   6   54.80    8.23 
   2  -4   6    2.91    0.48 
   3  -4   6    0.24    0.10 
   4  -4   6    0.05    0.10 
   5  -4   6    0.15    0.16 
 -13  -3   6   -0.04    0.05 
 -12  -3   6    4.27    0.24 
 -11  -3   6    4.58    0.24 
 -10  -3   6    3.91    0.21 
  -9  -3   6    0.01    0.11 
  -8  -3   6    1.92    0.26 
  -7  -3   6    0.01    0.08 
  -6  -3   6    2.27    0.26 
  -5  -3   6    4.07    0.42 
  -4  -3   6    4.09    0.53 
  -3  -3   6    3.64    0.54 
  -2  -3   6    0.55    0.13 
  -1  -3   6    0.14    0.08 
   0  -3   6    0.31    0.11 
   1  -3   6    3.21    0.52 
   2  -3   6    1.29    0.22 
   3  -3   6    0.28    0.13 
   4  -3   6    0.80    0.22 
   6  -3   6    3.41    0.73 
 -13  -2   6    0.61    0.08 
 -12  -2   6    1.03    0.10 
 -11  -2   6    0.56    0.09 
 -10  -2   6    0.34    0.07 
  -9  -2   6    1.84    0.26 
  -8  -2   6    7.82    0.83 
  -7  -2   6    0.23    0.09 
  -6  -2   6    1.73    0.22 
  -5  -2   6    0.04    0.06 
  -4  -2   6    4.92    0.54 
  -3  -2   6    0.19    0.10 
  -2  -2   6    3.95    0.63 
  -1  -2   6    2.30    0.42 
   0  -2   6    1.53    0.37 
   1  -2   6    2.35    0.58 
   2  -2   6    1.14    0.24 
   3  -2   6    0.42    0.14 
   4  -2   6    1.18    0.34 
 -13  -1   6    0.14    0.06 
 -12  -1   6    0.07    0.07 
 -11  -1   6    3.33    0.20 
 -10  -1   6    7.64    0.39 
  -9  -1   6    3.95    0.47 
  -8  -1   6    0.13    0.10 
  -7  -1   6    3.02    0.35 
  -6  -1   6    0.29    0.09 
  -5  -1   6    0.28    0.08 
  -4  -1   6    5.23    0.71 
  -3  -1   6   -0.03    0.08 
  -2  -1   6    3.73    0.61 
  -1  -1   6    0.07    0.09 
   0  -1   6   19.65    3.93 
   1  -1   6   42.77    9.33 
   2  -1   6    0.04    0.09 
   3  -1   6    3.91    0.63 
   4  -1   6    0.08    0.11 
 -13   0   6    0.61    0.08 
 -12   0   6    0.68    0.09 
 -11   0   6    5.24    0.29 
 -10   0   6   23.57    1.16 
  -9   0   6    7.55    0.95 
  -8   0   6    0.02    0.09 
  -7   0   6    2.84    0.32 
  -6   0   6    3.02    0.35 
  -5   0   6   21.63    2.17 
  -4   0   6  143.42   21.12 
  -3   0   6    1.20    0.22 
  -2   0   6    1.58    0.31 
  -1   0   6    6.65    1.42 
   0   0   6  399.91   86.02 
   1   0   6  350.45   75.12 
   2   0   6   12.23    2.72 
   3   0   6    0.80    0.19 
   4   0   6    5.26    0.84 
   5   0   6    1.45    0.43 
 -13   1   6    0.14    0.06 
 -12   1   6    0.04    0.07 
 -11   1   6    3.19    0.20 
 -10   1   6    7.24    0.39 
  -9   1   6    4.06    0.56 
  -8   1   6    0.46    0.14 
  -7   1   6    3.18    0.36 
  -6   1   6    0.33    0.09 
  -5   1   6    0.29    0.07 
  -4   1   6    5.40    0.88 
  -3   1   6    0.08    0.09 
  -2   1   6    4.25    0.87 
  -1   1   6    0.02    0.09 
   0   1   6   17.94    3.92 
   1   1   6   43.42    9.33 
   2   1   6    0.14    0.07 
   3   1   6    4.23    0.63 
   4   1   6    0.03    0.08 
   5   1   6   -0.02    0.09 
 -13   2   6    0.81    0.09 
 -12   2   6    0.92    0.10 
 -11   2   6    0.56    0.09 
 -10   2   6    0.03    0.07 
  -9   2   6    1.89    0.31 
  -8   2   6    7.08    0.96 
  -7   2   6    0.34    0.12 
  -6   2   6    1.74    0.20 
  -5   2   6    0.02    0.06 
  -4   2   6    4.64    0.62 
  -3   2   6   -0.16    0.07 
  -2   2   6    4.54    0.90 
  -1   2   6    2.75    0.59 
   0   2   6    1.49    0.37 
   1   2   6    3.10    0.59 
   2   2   6    0.75    0.16 
   3   2   6    0.37    0.11 
   4   2   6    1.37    0.25 
 -13   3   6    0.09    0.05 
 -12   3   6    3.71    0.25 
 -11   3   6    3.85    0.23 
 -10   3   6    3.52    0.21 
  -9   3   6    0.02    0.13 
  -8   3   6    1.62    0.26 
  -7   3   6   -0.03    0.07 
  -6   3   6    2.42    0.24 
  -5   3   6    4.09    0.39 
  -4   3   6    3.66    0.52 
  -3   3   6    3.14    0.54 
  -2   3   6    0.26    0.17 
  -1   3   6    0.18    0.12 
   0   3   6    0.05    0.10 
   1   3   6    3.76    0.53 
   2   3   6    1.32    0.22 
   3   3   6    0.08    0.09 
   4   3   6    0.75    0.15 
 -13   4   6    0.13    0.06 
 -12   4   6    0.72    0.09 
 -11   4   6    0.41    0.08 
 -10   4   6    9.85    0.52 
  -9   4   6    5.88    0.88 
  -8   4   6    1.30    0.23 
  -7   4   6    0.28    0.09 
  -6   4   6    0.07    0.07 
  -5   4   6   11.30    0.99 
  -4   4   6   14.81    1.78 
  -3   4   6    4.22    0.84 
  -2   4   6    0.16    0.12 
  -1   4   6    0.45    0.11 
   0   4   6   44.09    6.45 
   1   4   6   55.25    6.72 
   2   4   6    3.11    0.39 
   3   4   6    0.18    0.09 
   4   4   6    0.04    0.14 
 -13   5   6    0.45    0.06 
 -12   5   6   -0.02    0.06 
 -11   5   6    6.52    0.36 
 -10   5   6    3.36    0.21 
  -9   5   6    0.88    0.18 
  -8   5   6    6.03    0.65 
  -7   5   6   14.32    1.58 
  -6   5   6    0.40    0.09 
  -5   5   6   18.18    1.56 
  -4   5   6    0.11    0.08 
  -3   5   6   12.14    1.83 
  -2   5   6    0.73    0.25 
  -1   5   6    0.99    0.28 
   0   5   6   39.90    4.85 
   1   5   6   29.90    3.55 
   2   5   6    1.06    0.15 
   3   5   6   10.61    2.55 
   4   5   6    0.44    0.21 
 -13   6   6    2.13    0.15 
 -12   6   6    0.14    0.07 
 -11   6   6    0.08    0.07 
 -10   6   6    0.49    0.09 
  -9   6   6    1.16    0.21 
  -8   6   6    0.55    0.15 
  -7   6   6    0.05    0.10 
  -6   6   6    7.14    0.67 
  -5   6   6    7.51    0.64 
  -4   6   6   -0.03    0.08 
  -3   6   6    0.90    0.23 
  -2   6   6    0.52    0.17 
  -1   6   6    7.45    0.94 
   0   6   6   25.95    2.72 
   1   6   6   23.88    2.35 
   2   6   6    0.67    0.14 
   3   6   6    0.34    0.13 
   8   6   6   -0.18    0.20 
 -13   7   6    0.04    0.05 
 -12   7   6    0.10    0.06 
 -11   7   6    6.46    0.41 
 -10   7   6    0.04    0.07 
  -9   7   6    0.40    0.14 
  -8   7   6   -0.02    0.12 
  -7   7   6    0.04    0.10 
  -6   7   6   10.03    1.01 
  -5   7   6    3.76    0.43 
  -4   7   6    1.09    0.24 
  -3   7   6   13.62    2.07 
  -2   7   6    3.87    0.50 
  -1   7   6    3.01    0.36 
   0   7   6    2.88    0.34 
   1   7   6    0.12    0.07 
   2   7   6    0.00    0.10 
   3   7   6    0.07    0.12 
   4   7   6    0.86    0.27 
   8   7   6    3.10    0.67 
 -13   8   6    0.52    0.06 
 -12   8   6    0.09    0.06 
 -11   8   6    0.29    0.08 
 -10   8   6   -0.02    0.07 
  -9   8   6    2.72    0.16 
  -8   8   6    0.91    0.19 
  -7   8   6    0.85    0.17 
  -6   8   6    0.63    0.15 
  -5   8   6   26.22    2.90 
  -4   8   6   10.79    1.45 
  -3   8   6    2.15    0.42 
  -2   8   6    1.99    0.40 
  -1   8   6    9.46    1.09 
   0   8   6    0.15    0.07 
   1   8   6    8.93    0.92 
   2   8   6   -0.10    0.10 
   3   8   6    2.53    0.57 
   4   8   6    1.60    0.40 
   5   8   6   18.94    3.38 
   8   8   6    0.35    0.26 
 -12   9   6    3.72    0.24 
 -11   9   6    1.14    0.11 
 -10   9   6    2.16    0.15 
  -9   9   6   -0.03    0.07 
  -8   9   6    0.34    0.14 
  -7   9   6   10.77    1.36 
  -6   9   6    5.18    0.61 
  -5   9   6    0.64    0.16 
  -4   9   6   10.92    1.49 
  -3   9   6    2.53    0.53 
  -2   9   6   15.17    2.46 
  -1   9   6   21.72    2.61 
   0   9   6    0.78    0.16 
   1   9   6    0.88    0.15 
   2   9   6    1.69    0.35 
   3   9   6    6.58    1.33 
   4   9   6    0.91    0.35 
   5   9   6    0.96    0.36 
 -12  10   6    0.07    0.06 
 -11  10   6    0.14    0.07 
 -10  10   6    0.61    0.09 
  -9  10   6    0.00    0.07 
  -8  10   6    4.23    0.32 
  -7  10   6   13.79    1.61 
  -6  10   6    0.09    0.13 
  -5  10   6    0.67    0.18 
  -4  10   6    2.37    0.38 
  -3  10   6    0.29    0.13 
  -2  10   6    0.14    0.13 
  -1  10   6    2.03    0.35 
   0  10   6    1.12    0.20 
   1  10   6    3.30    0.43 
   2  10   6   10.58    1.30 
   3  10   6    4.95    1.11 
   4  10   6    0.09    0.22 
   5  10   6    1.24    0.41 
   6  10   6   -0.19    0.20 
   7  10   6    0.15    0.24 
 -12  11   6    0.16    0.05 
 -11  11   6    0.06    0.06 
 -10  11   6    0.98    0.10 
  -9  11   6    0.04    0.07 
  -8  11   6    5.25    0.27 
  -7  11   6    4.93    0.72 
  -6  11   6    5.43    0.72 
  -5  11   6   -0.08    0.12 
  -4  11   6    1.18    0.34 
  -3  11   6    7.55    0.99 
  -2  11   6    1.40    0.29 
  -1  11   6    1.19    0.35 
   0  11   6    0.40    0.21 
   1  11   6    3.34    0.51 
   2  11   6    0.24    0.13 
   3  11   6    0.03    0.20 
   4  11   6    7.69    1.58 
   5  11   6    1.71    0.53 
   6  11   6    3.19    0.71 
   7  11   6    5.45    1.07 
 -12  12   6    1.01    0.08 
 -11  12   6    2.75    0.19 
 -10  12   6    4.80    0.28 
  -9  12   6    0.35    0.07 
  -8  12   6    1.04    0.11 
  -7  12   6    0.21    0.10 
  -6  12   6    4.49    0.68 
  -5  12   6    0.15    0.20 
  -4  12   6    0.73    0.26 
  -3  12   6    1.04    0.25 
  -2  12   6    0.11    0.20 
  -1  12   6   10.66    2.48 
   0  12   6    0.09    0.20 
   1  12   6    3.96    0.60 
   2  12   6    0.42    0.17 
   3  12   6    2.92    0.50 
   4  12   6    6.06    1.31 
   5  12   6    1.07    0.32 
   6  12   6    3.91    0.63 
 -11  13   6    1.00    0.09 
 -10  13   6    0.11    0.07 
  -9  13   6   -0.04    0.07 
  -8  13   6    0.53    0.09 
  -7  13   6    0.01    0.08 
  -6  13   6    5.19    0.95 
  -5  13   6    1.12    0.32 
  -4  13   6    0.13    0.18 
  -3  13   6    0.13    0.17 
  -2  13   6    0.30    0.26 
  -1  13   6   -0.27    0.20 
   0  13   6    0.08    0.22 
   1  13   6    3.01    0.63 
   2  13   6    1.79    0.36 
   3  13   6    1.75    0.35 
   4  13   6    0.44    0.17 
   5  13   6    0.27    0.17 
   6  13   6    0.98    0.28 
 -11  14   6    0.63    0.07 
 -10  14   6    2.10    0.14 
  -9  14   6    0.16    0.08 
  -8  14   6    0.06    0.07 
  -7  14   6    0.21    0.09 
  -6  14   6    0.17    0.10 
  -5  14   6    0.27    0.21 
  -4  14   6    0.38    0.21 
  -3  14   6    1.99    0.45 
  -2  14   6    3.24    1.04 
  -1  14   6    0.11    0.26 
   0  14   6   -0.02    0.19 
   1  14   6   -0.22    0.19 
   2  14   6    0.39    0.24 
   3  14   6    4.77    0.56 
   4  14   6   -0.03    0.13 
   5  14   6    0.44    0.19 
 -10  15   6    0.20    0.06 
  -9  15   6    4.43    0.32 
  -8  15   6    1.05    0.11 
  -7  15   6    2.86    0.21 
  -6  15   6    4.44    0.33 
  -5  15   6    0.18    0.10 
  -4  15   6    0.14    0.22 
  -3  15   6   -0.24    0.17 
  -2  15   6   -0.29    0.24 
  -1  15   6    0.27    0.31 
   0  15   6    0.42    0.34 
   1  15   6   -0.01    0.20 
   2  15   6    0.22    0.20 
   3  15   6    2.12    0.42 
   4  15   6    1.24    0.23 
   5  15   6    0.40    0.22 
 -10  16   6    0.01    0.05 
  -9  16   6    0.05    0.07 
  -8  16   6    1.73    0.16 
  -7  16   6    0.46    0.10 
  -6  16   6    0.04    0.09 
  -5  16   6    1.90    0.18 
  -4  16   6   -0.08    0.11 
  -3  16   6    0.16    0.11 
  -2  16   6   -0.12    0.17 
  -1  16   6    1.91    0.32 
   0  16   6    0.90    0.21 
   1  16   6    0.16    0.18 
   2  16   6    0.24    0.15 
   3  16   6    0.48    0.21 
   4  16   6    3.56    0.52 
   5  16   6   -0.03    0.26 
   6  16   6    0.27    0.27 
   7  16   6    0.72    0.30 
  -9  17   6    0.78    0.10 
  -8  17   6   -0.01    0.08 
  -7  17   6   -0.12    0.08 
  -6  17   6    0.86    0.13 
  -5  17   6    0.46    0.11 
  -4  17   6    0.57    0.13 
  -3  17   6    0.10    0.12 
  -2  17   6    0.31    0.16 
  -1  17   6    0.68    0.18 
   0  17   6    0.38    0.15 
   1  17   6   -0.11    0.13 
   2  17   6    0.49    0.17 
   3  17   6    0.29    0.18 
   4  17   6    2.00    0.54 
   5  17   6    0.10    0.20 
   6  17   6    0.40    0.28 
   7  17   6    0.06    0.13 
  -9  18   6    0.43    0.08 
  -8  18   6    0.39    0.09 
  -7  18   6    0.82    0.13 
  -6  18   6    0.07    0.10 
  -5  18   6    1.58    0.19 
  -4  18   6    0.36    0.12 
  -3  18   6    0.09    0.15 
  -2  18   6    0.65    0.17 
  -1  18   6    0.05    0.14 
   0  18   6    1.61    0.21 
   1  18   6    0.25    0.13 
   2  18   6    5.20    0.51 
   3  18   6    3.26    0.44 
   4  18   6    2.29    0.44 
   5  18   6    0.81    0.23 
   6  18   6    1.01    0.24 
  -8  19   6    0.04    0.07 
  -7  19   6    4.15    0.34 
  -6  19   6    0.13    0.09 
  -5  19   6    0.17    0.11 
  -4  19   6    0.21    0.13 
  -3  19   6    0.45    0.17 
  -2  19   6    0.08    0.15 
  -1  19   6   -0.02    0.14 
   0  19   6    0.36    0.17 
   1  19   6    0.05    0.14 
   2  19   6    0.17    0.13 
   3  19   6    0.89    0.19 
   4  19   6    0.16    0.14 
   5  19   6   -0.04    0.11 
   6  19   6    1.21    0.18 
  -7  20   6    0.09    0.07 
  -6  20   6    1.82    0.21 
  -5  20   6    0.91    0.12 
  -4  20   6    0.22    0.13 
  -3  20   6    1.06    0.23 
  -2  20   6    0.84    0.19 
  -1  20   6    0.03    0.13 
   0  20   6    0.03    0.15 
   1  20   6    2.05    0.26 
   2  20   6    0.66    0.15 
   3  20   6   -0.03    0.10 
   4  20   6    0.28    0.11 
   5  20   6   -0.03    0.08 
  -6  21   6   -0.06    0.09 
  -5  21   6    0.11    0.11 
  -4  21   6    0.32    0.12 
  -3  21   6    0.19    0.13 
  -2  21   6    0.32    0.15 
  -1  21   6    0.12    0.12 
   0  21   6    0.02    0.12 
   1  21   6    0.26    0.12 
   2  21   6   -0.19    0.10 
   3  21   6    0.09    0.08 
   4  21   6    0.57    0.11 
  -5  22   6    0.00    0.08 
  -4  22   6    0.79    0.16 
  -3  22   6    0.17    0.11 
  -2  22   6    0.31    0.12 
  -1  22   6    0.05    0.11 
   0  22   6   -0.05    0.09 
   1  22   6   -0.10    0.09 
   2  22   6    0.14    0.09 
   3  22   6    0.25    0.09 
  -3  23   6    0.08    0.10 
  -2  23   6    0.26    0.10 
  -1  23   6    0.01    0.09 
   0  23   6   -0.15    0.09 
   1  23   6    0.18    0.12 
  -4 -22   7    0.54    0.10 
  -3 -22   7   -0.05    0.09 
  -2 -22   7   -0.06    0.11 
  -1 -22   7    0.69    0.11 
   0 -22   7    0.00    0.08 
   1 -22   7   -0.01    0.09 
  -6 -21   7    0.32    0.08 
  -5 -21   7    0.45    0.11 
  -4 -21   7    0.30    0.11 
  -3 -21   7    0.81    0.17 
  -2 -21   7    0.88    0.15 
  -1 -21   7    0.02    0.11 
   0 -21   7   -0.06    0.11 
   1 -21   7    0.16    0.11 
   2 -21   7   -0.04    0.09 
   3 -21   7   -0.05    0.08 
  -7 -20   7   -0.01    0.04 
  -6 -20   7    0.03    0.09 
  -5 -20   7    0.08    0.10 
  -4 -20   7    0.94    0.16 
  -3 -20   7   -0.07    0.12 
  -2 -20   7    0.60    0.13 
  -1 -20   7    0.80    0.19 
   0 -20   7    4.21    0.44 
   1 -20   7    0.59    0.13 
   2 -20   7   -0.01    0.12 
   3 -20   7    0.05    0.09 
   4 -20   7    0.13    0.08 
  -8 -19   7    0.07    0.05 
  -7 -19   7   -0.09    0.06 
  -6 -19   7   -0.08    0.08 
  -5 -19   7    0.24    0.12 
  -4 -19   7    0.01    0.12 
  -3 -19   7   -0.12    0.13 
  -2 -19   7    0.48    0.15 
  -1 -19   7    0.92    0.17 
   0 -19   7    1.22    0.22 
   1 -19   7    0.26    0.13 
   2 -19   7    2.36    0.26 
   3 -19   7   -0.04    0.11 
   4 -19   7   -0.06    0.11 
   5 -19   7   -0.05    0.07 
  -9 -18   7    0.90    0.10 
  -8 -18   7   -0.03    0.05 
  -7 -18   7    0.43    0.09 
  -6 -18   7   -0.11    0.09 
  -5 -18   7    0.03    0.11 
  -4 -18   7    1.48    0.21 
  -3 -18   7    0.66    0.15 
  -2 -18   7    0.03    0.13 
  -1 -18   7   -0.04    0.11 
   0 -18   7   -0.05    0.12 
   1 -18   7   -0.01    0.12 
   2 -18   7   -0.16    0.15 
   3 -18   7    0.17    0.14 
   4 -18   7    0.20    0.17 
   5 -18   7    0.22    0.12 
   6 -18   7    0.52    0.16 
  -9 -17   7    0.92    0.10 
  -8 -17   7    0.32    0.07 
  -7 -17   7    0.14    0.08 
  -6 -17   7    0.75    0.13 
  -5 -17   7    0.05    0.10 
  -4 -17   7    3.11    0.32 
  -3 -17   7   -0.07    0.12 
  -2 -17   7    1.05    0.20 
  -1 -17   7    1.54    0.18 
   0 -17   7    2.91    0.32 
   1 -17   7   -0.12    0.12 
   2 -17   7    0.71    0.17 
   3 -17   7    1.06    0.31 
   4 -17   7    0.08    0.20 
   5 -17   7    1.48    0.32 
   6 -17   7    0.21    0.15 
 -10 -16   7    0.19    0.05 
  -9 -16   7    0.07    0.06 
  -8 -16   7    0.81    0.10 
  -7 -16   7    0.17    0.09 
  -6 -16   7    0.40    0.10 
  -5 -16   7    0.30    0.11 
  -4 -16   7    1.82    0.18 
  -3 -16   7    0.45    0.14 
  -2 -16   7    1.58    0.21 
  -1 -16   7    7.80    0.80 
   0 -16   7    2.91    0.33 
   1 -16   7    2.92    0.38 
   2 -16   7    0.02    0.15 
   3 -16   7   -0.41    0.15 
   4 -16   7   -0.17    0.20 
   5 -16   7   -0.03    0.25 
   6 -16   7    0.28    0.24 
   7 -16   7    0.00    0.11 
 -10 -15   7    1.69    0.12 
  -9 -15   7    0.26    0.07 
  -8 -15   7    3.00    0.21 
  -7 -15   7   -0.04    0.07 
  -6 -15   7   -0.10    0.08 
  -5 -15   7    0.05    0.09 
  -4 -15   7    2.23    0.19 
  -3 -15   7    0.00    0.12 
  -2 -15   7    0.62    0.30 
  -1 -15   7    1.15    0.31 
   0 -15   7    0.83    0.18 
   1 -15   7    0.60    0.20 
   2 -15   7    0.47    0.18 
   3 -15   7    0.17    0.21 
   4 -15   7    0.25    0.20 
   6 -15   7    0.46    0.28 
 -11 -14   7    0.99    0.08 
 -10 -14   7    1.87    0.13 
  -9 -14   7    2.74    0.17 
  -8 -14   7    0.71    0.10 
  -7 -14   7    0.28    0.08 
  -6 -14   7    6.25    0.39 
  -5 -14   7    0.38    0.10 
  -4 -14   7    0.17    0.19 
  -3 -14   7    0.36    0.28 
  -2 -14   7    0.00    0.21 
  -1 -14   7    0.11    0.16 
   0 -14   7    0.65    0.21 
   1 -14   7    0.64    0.23 
   2 -14   7    0.04    0.19 
   3 -14   7    3.15    0.61 
   4 -14   7    0.66    0.36 
   5 -14   7    0.53    0.43 
 -11 -13   7    7.40    0.39 
 -10 -13   7    3.35    0.19 
  -9 -13   7   -0.09    0.07 
  -8 -13   7    0.60    0.09 
  -7 -13   7    0.06    0.08 
  -6 -13   7   -0.02    0.08 
  -5 -13   7    0.03    0.23 
  -4 -13   7   -0.10    0.21 
  -3 -13   7    0.30    0.24 
  -2 -13   7    1.13    0.47 
  -1 -13   7   10.33    1.57 
   0 -13   7    3.04    0.58 
   1 -13   7    0.08    0.17 
   2 -13   7    5.69    1.28 
   3 -13   7    1.50    0.35 
   4 -13   7    5.57    1.20 
   5 -13   7    0.46    0.29 
 -11 -12   7    0.07    0.05 
 -10 -12   7    0.04    0.06 
  -9 -12   7    0.09    0.07 
  -8 -12   7    4.56    0.24 
  -7 -12   7    1.20    0.12 
  -6 -12   7    0.00    0.15 
  -5 -12   7    9.23    2.27 
  -4 -12   7    0.11    0.21 
  -3 -12   7   -0.26    0.15 
  -2 -12   7    0.42    0.26 
  -1 -12   7    0.44    0.17 
   0 -12   7   -0.10    0.13 
   1 -12   7    1.40    0.27 
   2 -12   7    4.57    0.74 
   3 -12   7    2.65    0.62 
   4 -12   7    1.12    0.37 
   5 -12   7   18.57    3.48 
   6 -12   7    2.89    0.90 
 -12 -11   7    0.04    0.04 
 -11 -11   7    0.97    0.08 
 -10 -11   7    0.01    0.07 
  -9 -11   7    0.12    0.06 
  -8 -11   7    0.22    0.07 
  -7 -11   7    0.75    0.24 
  -6 -11   7    2.08    0.45 
  -5 -11   7    0.30    0.17 
  -4 -11   7    0.51    0.25 
  -3 -11   7    0.16    0.21 
  -2 -11   7    1.84    0.45 
  -1 -11   7    0.09    0.12 
   0 -11   7    0.70    0.20 
   1 -11   7    3.34    0.53 
   2 -11   7    5.95    0.92 
   3 -11   7    7.50    1.61 
   4 -11   7    1.99    0.53 
   5 -11   7    1.41    0.41 
   6 -11   7    2.06    0.60 
 -12 -10   7    2.01    0.12 
 -11 -10   7    0.47    0.07 
 -10 -10   7    0.03    0.06 
  -9 -10   7    9.01    0.37 
  -8 -10   7    4.65    0.24 
  -7 -10   7    8.11    0.96 
  -6 -10   7    0.31    0.14 
  -5 -10   7    2.09    0.39 
  -4 -10   7    0.17    0.15 
  -3 -10   7    0.51    0.23 
  -2 -10   7    5.73    1.06 
  -1 -10   7   10.13    1.28 
   0 -10   7    2.61    0.46 
   1 -10   7    1.24    0.28 
   2 -10   7    3.90    0.74 
   3 -10   7   19.52    4.47 
   4 -10   7   12.95    2.64 
   5 -10   7    1.42    0.47 
   6 -10   7    0.16    0.28 
 -12  -9   7    0.14    0.05 
 -11  -9   7    1.81    0.12 
 -10  -9   7    2.42    0.13 
  -9  -9   7    3.83    0.18 
  -8  -9   7    0.45    0.16 
  -7  -9   7    0.17    0.13 
  -6  -9   7    3.89    0.52 
  -5  -9   7    7.74    0.91 
  -4  -9   7    3.71    0.62 
  -3  -9   7   -0.05    0.13 
  -2  -9   7    1.60    0.34 
  -1  -9   7    2.04    0.32 
   0  -9   7    0.58    0.18 
   1  -9   7    2.51    0.41 
   2  -9   7   10.76    1.69 
   3  -9   7    9.81    1.64 
   4  -9   7   21.64    4.91 
   5  -9   7   10.21    2.02 
   6  -9   7   -0.28    0.23 
   7  -9   7    0.16    0.27 
 -13  -8   7    0.09    0.05 
 -12  -8   7    0.82    0.08 
 -11  -8   7    0.02    0.06 
 -10  -8   7    3.67    0.19 
  -9  -8   7    2.28    0.14 
  -8  -8   7    0.67    0.18 
  -7  -8   7    0.15    0.11 
  -6  -8   7    0.04    0.11 
  -5  -8   7    5.13    0.62 
  -4  -8   7    0.33    0.13 
  -3  -8   7    0.71    0.15 
  -2  -8   7    2.43    0.49 
  -1  -8   7    0.75    0.15 
   0  -8   7    8.95    1.41 
   1  -8   7    2.13    0.31 
   2  -8   7    3.32    0.54 
   3  -8   7    0.11    0.15 
   4  -8   7    6.00    1.50 
   5  -8   7   18.76    4.34 
   6  -8   7    4.47    1.19 
   7  -8   7    0.69    0.30 
 -13  -7   7    0.08    0.05 
 -12  -7   7    1.11    0.09 
 -11  -7   7    1.73    0.13 
 -10  -7   7    2.62    0.16 
  -9  -7   7    5.61    0.26 
  -8  -7   7    0.36    0.14 
  -7  -7   7    2.65    0.35 
  -6  -7   7    0.31    0.12 
  -5  -7   7   -0.13    0.08 
  -4  -7   7    2.42    0.38 
  -3  -7   7    5.60    0.83 
  -2  -7   7   14.34    1.91 
  -1  -7   7    0.07    0.10 
   0  -7   7    0.14    0.08 
   1  -7   7    8.74    1.37 
   2  -7   7    3.19    0.52 
   3  -7   7    3.45    0.85 
   4  -7   7    0.53    0.22 
   6  -7   7    7.68    1.70 
   7  -7   7   -0.10    0.21 
 -13  -6   7    0.57    0.06 
 -12  -6   7    0.23    0.07 
 -11  -6   7    1.51    0.13 
 -10  -6   7    0.28    0.07 
  -9  -6   7    0.27    0.08 
  -8  -6   7    7.43    0.95 
  -7  -6   7    5.32    0.61 
  -6  -6   7   -0.01    0.09 
  -5  -6   7    0.99    0.16 
  -4  -6   7    0.79    0.19 
  -3  -6   7   16.10    1.94 
  -2  -6   7    0.80    0.17 
  -1  -6   7    4.96    0.64 
   0  -6   7    0.19    0.09 
   1  -6   7    2.00    0.37 
   2  -6   7    9.32    1.34 
   3  -6   7   14.65    2.95 
   4  -6   7    4.34    1.07 
   7  -6   7    0.33    0.27 
 -13  -5   7    0.54    0.06 
 -12  -5   7    0.27    0.07 
 -11  -5   7    0.61    0.08 
 -10  -5   7    0.37    0.07 
  -9  -5   7    0.75    0.19 
  -8  -5   7    0.85    0.17 
  -7  -5   7    0.85    0.18 
  -6  -5   7    0.71    0.13 
  -5  -5   7    3.60    0.40 
  -4  -5   7    0.26    0.11 
  -3  -5   7    4.98    0.67 
  -2  -5   7    0.00    0.06 
  -1  -5   7    0.20    0.08 
   0  -5   7    3.47    0.54 
   1  -5   7    0.98    0.20 
   2  -5   7    7.31    1.08 
   3  -5   7    6.59    1.03 
   4  -5   7   17.77    3.91 
   5  -5   7    4.57    1.14 
 -13  -4   7   -0.01    0.05 
 -12  -4   7    1.99    0.13 
 -11  -4   7   11.92    0.58 
 -10  -4   7   11.95    0.57 
  -9  -4   7    4.61    0.56 
  -8  -4   7    0.02    0.11 
  -7  -4   7   -0.07    0.10 
  -6  -4   7   -0.05    0.08 
  -5  -4   7    0.21    0.09 
  -4  -4   7    5.28    0.69 
  -3  -4   7    0.65    0.15 
  -2  -4   7    0.32    0.11 
  -1  -4   7   11.04    1.74 
   0  -4   7   55.41    8.12 
   1  -4   7    0.12    0.08 
   2  -4   7    4.50    0.72 
   3  -4   7    0.72    0.17 
   4  -4   7    3.19    0.68 
   5  -4   7    9.51    2.07 
 -13  -3   7    2.81    0.17 
 -12  -3   7    0.14    0.06 
 -11  -3   7    0.33    0.07 
 -10  -3   7    0.66    0.09 
  -9  -3   7    9.20    0.99 
  -8  -3   7    0.22    0.11 
  -7  -3   7    0.96    0.15 
  -6  -3   7   -0.19    0.07 
  -5  -3   7    0.92    0.16 
  -4  -3   7   -0.03    0.08 
  -3  -3   7    1.45    0.21 
  -2  -3   7    1.78    0.25 
  -1  -3   7    2.59    0.38 
   0  -3   7    0.40    0.13 
   1  -3   7    5.26    0.77 
   2  -3   7    4.31    0.88 
   3  -3   7    0.41    0.13 
   4  -3   7    0.64    0.24 
   5  -3   7   19.38    4.12 
   6  -3   7    2.40    0.52 
 -13  -2   7    0.12    0.06 
 -12  -2   7    1.42    0.11 
 -11  -2   7    0.81    0.09 
 -10  -2   7    0.05    0.07 
  -9  -2   7    0.50    0.14 
  -8  -2   7    0.12    0.10 
  -7  -2   7    0.68    0.14 
  -6  -2   7    0.19    0.08 
  -5  -2   7    0.57    0.12 
  -4  -2   7    0.48    0.14 
  -3  -2   7    0.14    0.09 
  -2  -2   7   34.17    5.30 
  -1  -2   7   16.50    2.55 
   0  -2   7    3.72    0.58 
   1  -2   7    6.68    0.84 
   2  -2   7    7.89    1.22 
   3  -2   7    9.54    2.01 
   6  -2   7    0.24    0.19 
 -13  -1   7    0.74    0.08 
 -12  -1   7    0.22    0.06 
 -11  -1   7    0.04    0.07 
 -10  -1   7    4.89    0.26 
  -9  -1   7    1.26    0.20 
  -8  -1   7    0.19    0.11 
  -7  -1   7    0.52    0.12 
  -6  -1   7    0.11    0.08 
  -5  -1   7    0.05    0.07 
  -4  -1   7    0.22    0.08 
  -3  -1   7   -0.10    0.07 
  -2  -1   7    0.36    0.12 
  -1  -1   7    0.03    0.07 
   0  -1   7    0.33    0.09 
   1  -1   7    6.04    0.95 
   2  -1   7   -0.03    0.07 
   3  -1   7    7.66    1.54 
   7  -1   7    0.24    0.21 
 -13   0   7    0.06    0.05 
 -12   0   7    0.06    0.07 
 -11   0   7    0.06    0.06 
 -10   0   7    0.01    0.07 
  -9   0   7   -0.15    0.11 
  -8   0   7   -0.05    0.10 
  -7   0   7    0.08    0.09 
  -6   0   7   -0.04    0.07 
  -5   0   7    0.18    0.07 
  -4   0   7   -0.02    0.06 
  -3   0   7   -0.07    0.08 
  -2   0   7   -0.15    0.06 
  -1   0   7   -0.03    0.07 
   0   0   7   -0.05    0.07 
   1   0   7    0.02    0.07 
   2   0   7    0.07    0.07 
   3   0   7   -0.04    0.07 
 -13   1   7    0.77    0.08 
 -12   1   7    0.18    0.07 
 -11   1   7   -0.05    0.06 
 -10   1   7    4.77    0.27 
  -9   1   7    1.10    0.22 
  -8   1   7    0.22    0.11 
  -7   1   7    0.54    0.12 
  -6   1   7    0.04    0.08 
  -5   1   7   -0.02    0.06 
  -4   1   7    0.17    0.08 
  -3   1   7    0.06    0.09 
  -2   1   7    0.41    0.12 
  -1   1   7    0.07    0.06 
   0   1   7    0.45    0.11 
   1   1   7    5.90    0.95 
   2   1   7    0.05    0.08 
   3   1   7    7.77    1.09 
   4   1   7    7.77    1.15 
 -13   2   7    0.24    0.06 
 -12   2   7    1.21    0.11 
 -11   2   7    0.78    0.09 
 -10   2   7    0.08    0.07 
  -9   2   7    0.42    0.16 
  -8   2   7    0.16    0.12 
  -7   2   7    0.53    0.14 
  -6   2   7    0.15    0.07 
  -5   2   7    0.79    0.11 
  -4   2   7    0.72    0.13 
  -3   2   7    0.13    0.09 
  -2   2   7   35.91    5.31 
  -1   2   7   17.24    2.56 
   0   2   7    3.40    0.58 
   1   2   7    6.69    1.03 
   2   2   7    8.04    1.22 
   3   2   7   10.03    1.42 
   4   2   7    0.65    0.16 
   5   2   7    0.32    0.19 
 -13   3   7    2.82    0.17 
 -12   3   7    0.07    0.06 
 -11   3   7    0.27    0.07 
 -10   3   7    0.53    0.09 
  -9   3   7    8.88    1.15 
  -8   3   7    0.03    0.13 
  -7   3   7    0.68    0.18 
  -6   3   7   -0.01    0.07 
  -5   3   7    1.10    0.14 
  -4   3   7    0.06    0.07 
  -3   3   7    1.54    0.24 
  -2   3   7    1.51    0.30 
  -1   3   7    2.36    0.38 
   0   3   7    0.81    0.15 
   1   3   7    5.11    0.77 
   2   3   7    3.97    0.51 
   3   3   7    0.31    0.10 
   4   3   7    0.47    0.23 
   5   3   7   21.64    4.12 
   6   3   7    1.39    0.48 
 -13   4   7    0.05    0.05 
 -12   4   7    1.63    0.13 
 -11   4   7   11.38    0.57 
 -10   4   7   11.40    0.59 
  -9   4   7    3.42    0.55 
  -8   4   7    0.20    0.14 
  -7   4   7    0.04    0.12 
  -6   4   7   -0.05    0.08 
  -5   4   7    0.18    0.08 
  -4   4   7    4.90    0.69 
  -3   4   7    0.61    0.14 
  -2   4   7    0.31    0.10 
  -1   4   7   11.51    1.43 
   0   4   7   55.05    6.63 
   1   4   7    0.09    0.07 
   2   4   7    4.56    0.59 
   3   4   7    0.75    0.15 
   4   4   7    2.76    0.67 
   5   4   7   10.31    2.07 
   6   4   7   -0.13    0.20 
 -13   5   7    0.45    0.07 
 -12   5   7    0.23    0.07 
 -11   5   7    0.41    0.08 
 -10   5   7    0.12    0.07 
  -9   5   7    0.56    0.19 
  -8   5   7    0.62    0.18 
  -7   5   7    0.58    0.18 
  -6   5   7    0.46    0.12 
  -5   5   7    2.87    0.39 
  -4   5   7    0.42    0.12 
  -3   5   7    4.93    0.66 
  -2   5   7   -0.01    0.07 
  -1   5   7    0.04    0.08 
   0   5   7    3.36    0.39 
   1   5   7    0.99    0.14 
   2   5   7    7.42    0.89 
   3   5   7    6.76    1.04 
   4   5   7   19.43    3.91 
   5   5   7    4.52    1.15 
   6   5   7   -0.04    0.21 
   7   5   7    0.30    0.27 
 -13   6   7    0.43    0.06 
 -12   6   7    0.15    0.07 
 -11   6   7    1.55    0.14 
 -10   6   7    0.27    0.08 
  -9   6   7    0.10    0.08 
  -8   6   7    6.88    0.97 
  -7   6   7    3.61    0.61 
  -6   6   7    0.04    0.12 
  -5   6   7    0.85    0.18 
  -4   6   7    0.93    0.23 
  -3   6   7   14.74    1.94 
  -2   6   7    0.93    0.17 
  -1   6   7    5.01    0.64 
   0   6   7    0.25    0.08 
   1   6   7    2.40    0.28 
   2   6   7    8.78    0.95 
   3   6   7   16.61    2.96 
   4   6   7    4.86    1.08 
   5   6   7   13.22    2.46 
   6   6   7    0.44    0.26 
   7   6   7    0.17    0.24 
 -13   7   7   -0.01    0.05 
 -12   7   7    0.87    0.10 
 -11   7   7    1.41    0.13 
 -10   7   7    2.22    0.16 
  -9   7   7    5.02    0.26 
  -8   7   7    0.24    0.17 
  -7   7   7    1.59    0.34 
  -6   7   7    0.25    0.14 
  -5   7   7    0.06    0.10 
  -4   7   7    2.13    0.46 
  -3   7   7    6.49    0.84 
  -2   7   7   15.60    1.91 
  -1   7   7   -0.09    0.08 
   0   7   7    0.13    0.09 
   1   7   7    9.19    0.97 
   2   7   7    3.45    0.44 
   3   7   7    4.11    0.60 
   4   7   7    0.05    0.18 
   5   7   7   24.44    4.69 
   6   7   7    8.90    1.68 
   7   7   7   -0.13    0.21 
 -13   8   7    0.09    0.05 
 -12   8   7    0.78    0.08 
 -11   8   7    0.08    0.07 
 -10   8   7    3.28    0.19 
  -9   8   7    2.24    0.14 
  -8   8   7    0.53    0.21 
  -7   8   7    0.32    0.16 
  -6   8   7    0.08    0.17 
  -5   8   7    3.34    0.76 
  -4   8   7    0.26    0.15 
  -3   8   7    0.71    0.19 
  -2   8   7    3.00    0.40 
  -1   8   7    0.51    0.14 
   0   8   7    9.04    1.15 
   1   8   7    2.41    0.32 
   2   8   7    3.09    0.43 
   3   8   7    0.07    0.14 
   4   8   7    7.09    1.48 
   5   8   7   22.36    4.33 
   6   8   7    6.37    1.18 
   7   8   7    0.47    0.30 
 -12   9   7    0.22    0.06 
 -11   9   7    1.63    0.13 
 -10   9   7    1.85    0.13 
  -9   9   7    2.82    0.18 
  -8   9   7    0.89    0.19 
  -7   9   7    0.27    0.22 
  -6   9   7    3.53    0.67 
  -5   9   7    5.64    1.14 
  -4   9   7    5.19    1.11 
  -3   9   7    0.02    0.13 
  -2   9   7    2.11    0.35 
  -1   9   7    2.43    0.32 
   0   9   7    0.60    0.14 
   1   9   7    2.38    0.40 
   2   9   7   12.40    1.69 
   3   9   7   12.32    1.64 
   4   9   7   25.14    3.46 
   5   9   7   10.88    2.00 
   6   9   7   -0.10    0.23 
   7   9   7    0.37    0.26 
 -12  10   7    1.70    0.12 
 -11  10   7    0.43    0.08 
 -10  10   7    0.04    0.07 
  -9  10   7    7.11    0.38 
  -8  10   7    3.44    0.23 
  -7  10   7    5.39    1.19 
  -6  10   7    0.60    0.24 
  -5  10   7    1.36    0.39 
  -4  10   7   -0.23    0.20 
  -3  10   7    0.20    0.25 
  -2  10   7    7.19    1.05 
  -1  10   7   11.16    1.28 
   0  10   7    3.32    0.48 
   1  10   7    1.48    0.29 
   2  10   7    5.08    0.74 
   3  10   7   22.81    3.16 
   4  10   7   12.88    1.85 
   5  10   7    1.46    0.44 
   6  10   7    0.49    0.29 
 -12  11   7    0.00    0.05 
 -11  11   7    0.75    0.08 
 -10  11   7   -0.04    0.07 
  -9  11   7    0.00    0.07 
  -8  11   7   -0.10    0.07 
  -7  11   7    0.65    0.26 
  -6  11   7    1.75    0.48 
  -5  11   7   -0.05    0.18 
  -4  11   7   -0.15    0.22 
  -3  11   7    0.40    0.26 
  -2  11   7    1.48    0.46 
  -1  11   7    0.24    0.23 
   0  11   7    0.63    0.20 
   1  11   7    2.95    0.52 
   2  11   7    6.74    0.92 
   3  11   7    7.15    1.13 
   4  11   7    1.75    0.34 
   5  11   7    0.88    0.23 
   6  11   7    2.47    0.60 
 -11  12   7   -0.07    0.05 
 -10  12   7    0.09    0.07 
  -9  12   7    0.20    0.08 
  -8  12   7    3.95    0.24 
  -7  12   7    1.03    0.12 
  -6  12   7   -0.09    0.19 
  -5  12   7    8.80    1.63 
  -4  12   7   -0.17    0.26 
  -3  12   7    0.32    0.25 
  -2  12   7    0.81    0.31 
  -1  12   7    0.66    0.30 
   0  12   7   -0.11    0.22 
   1  12   7    0.93    0.25 
   2  12   7    5.04    0.73 
   3  12   7    2.33    0.40 
   4  12   7    0.26    0.18 
   5  12   7   16.48    2.43 
   6  12   7    5.14    0.91 
 -11  13   7    6.71    0.39 
 -10  13   7    2.66    0.17 
  -9  13   7    0.06    0.07 
  -8  13   7    0.46    0.09 
  -7  13   7    0.09    0.09 
  -6  13   7    0.01    0.09 
  -5  13   7    0.07    0.22 
  -4  13   7    0.01    0.25 
  -3  13   7    0.25    0.25 
  -2  13   7    1.31    0.50 
  -1  13   7    9.56    2.23 
   0  13   7    3.47    0.86 
   1  13   7    0.02    0.24 
   2  13   7    5.65    0.88 
   3  13   7    1.57    0.32 
   4  13   7    5.07    0.80 
   5  13   7    0.20    0.18 
 -11  14   7    0.75    0.08 
 -10  14   7    1.49    0.13 
  -9  14   7    2.31    0.17 
  -8  14   7    0.32    0.09 
  -7  14   7    0.29    0.09 
  -6  14   7    5.41    0.36 
  -5  14   7    0.21    0.11 
  -4  14   7    0.01    0.29 
  -3  14   7    0.12    0.27 
  -2  14   7    0.02    0.21 
  -1  14   7    0.15    0.24 
   0  14   7    0.80    0.34 
   1  14   7    1.03    0.35 
   2  14   7    0.21    0.19 
   3  14   7    4.40    0.60 
   4  14   7    0.57    0.20 
 -10  15   7    1.33    0.12 
  -9  15   7    0.36    0.08 
  -8  15   7    2.28    0.21 
  -7  15   7    0.08    0.09 
  -6  15   7    0.13    0.09 
  -5  15   7    0.18    0.11 
  -4  15   7    1.51    0.20 
  -3  15   7    0.20    0.14 
  -2  15   7    0.35    0.35 
  -1  15   7    1.22    0.45 
   0  15   7    0.81    0.22 
   1  15   7    0.58    0.19 
   2  15   7    0.25    0.20 
   3  15   7    0.78    0.23 
   4  15   7    0.03    0.13 
   5  15   7    0.38    0.30 
   6  15   7   -0.01    0.24 
   7  15   7    0.79    0.28 
 -10  16   7    0.18    0.06 
  -9  16   7    0.09    0.07 
  -8  16   7    0.64    0.10 
  -7  16   7    0.32    0.10 
  -6  16   7    0.18    0.10 
  -5  16   7    0.43    0.12 
  -4  16   7    1.37    0.20 
  -3  16   7    0.83    0.16 
  -2  16   7    1.26    0.23 
  -1  16   7    8.76    0.82 
   0  16   7    3.98    0.36 
   1  16   7    2.87    0.39 
   2  16   7    0.22    0.16 
   3  16   7    0.08    0.17 
   4  16   7   -0.26    0.30 
   5  16   7   -0.01    0.25 
   6  16   7    0.03    0.22 
   7  16   7   -0.02    0.18 
  -9  17   7    0.74    0.10 
  -8  17   7    0.14    0.08 
  -7  17   7    0.01    0.09 
  -6  17   7    0.79    0.14 
  -5  17   7   -0.09    0.11 
  -4  17   7    2.83    0.32 
  -3  17   7    0.15    0.15 
  -2  17   7    1.27    0.26 
  -1  17   7    1.02    0.20 
   0  17   7    2.67    0.30 
   1  17   7   -0.02    0.13 
   2  17   7    1.12    0.21 
   3  17   7    1.25    0.26 
   4  17   7    0.16    0.15 
   5  17   7    1.71    0.34 
   6  17   7   -0.03    0.13 
  -9  18   7    0.87    0.10 
  -8  18   7    0.16    0.07 
  -7  18   7    0.53    0.11 
  -6  18   7    0.00    0.10 
  -5  18   7   -0.11    0.13 
  -4  18   7    1.37    0.22 
  -3  18   7    0.49    0.16 
  -2  18   7    0.35    0.14 
  -1  18   7   -0.17    0.12 
   0  18   7   -0.10    0.12 
   1  18   7    0.02    0.14 
   2  18   7    0.23    0.15 
   3  18   7    0.09    0.16 
   4  18   7    0.34    0.16 
   5  18   7    0.46    0.18 
   6  18   7    0.90    0.15 
  -8  19   7    0.19    0.08 
  -7  19   7    0.00    0.07 
  -6  19   7    0.10    0.09 
  -5  19   7    0.38    0.15 
  -4  19   7   -0.10    0.13 
  -3  19   7   -0.23    0.12 
  -2  19   7    0.65    0.19 
  -1  19   7    0.69    0.19 
   0  19   7    1.51    0.22 
   1  19   7    0.45    0.14 
   2  19   7    2.31    0.27 
   3  19   7   -0.07    0.12 
   4  19   7    0.00    0.11 
   5  19   7    0.00    0.09 
  -7  20   7   -0.01    0.08 
  -6  20   7    0.16    0.11 
  -5  20   7    0.43    0.13 
  -4  20   7    0.99    0.20 
  -3  20   7   -0.01    0.11 
  -2  20   7    0.34    0.14 
  -1  20   7    0.87    0.19 
   0  20   7    3.35    0.42 
   1  20   7    0.41    0.13 
   2  20   7    0.20    0.12 
   3  20   7   -0.13    0.10 
   4  20   7    0.10    0.08 
  -6  21   7    0.59    0.12 
  -5  21   7    0.30    0.12 
  -4  21   7    0.41    0.13 
  -3  21   7    1.05    0.19 
  -2  21   7    0.87    0.17 
  -1  21   7   -0.01    0.10 
   0  21   7   -0.13    0.10 
   1  21   7    0.06    0.10 
   2  21   7    0.09    0.09 
   3  21   7    0.19    0.08 
  -4  22   7    0.47    0.11 
  -3  22   7   -0.05    0.09 
  -2  22   7    0.08    0.11 
  -1  22   7    0.16    0.09 
   0  22   7   -0.02    0.08 
   1  22   7    0.04    0.08 
  -3 -22   8    0.16    0.10 
  -2 -22   8    1.48    0.20 
  -1 -22   8    0.31    0.11 
  -5 -21   8    0.59    0.09 
  -4 -21   8   -0.04    0.10 
  -3 -21   8    0.13    0.10 
  -2 -21   8    0.00    0.10 
  -1 -21   8    0.07    0.10 
   0 -21   8   -0.03    0.09 
   1 -21   8   -0.01    0.10 
   2 -21   8    0.29    0.10 
  -6 -20   8   -0.04    0.07 
  -5 -20   8    0.19    0.10 
  -4 -20   8    0.04    0.10 
  -3 -20   8   -0.08    0.11 
  -2 -20   8    0.32    0.13 
  -1 -20   8   -0.08    0.10 
   0 -20   8    0.06    0.11 
   1 -20   8    0.03    0.09 
   2 -20   8   -0.11    0.09 
   3 -20   8    0.06    0.07 
  -7 -19   8   -0.02    0.06 
  -6 -19   8    0.13    0.10 
  -5 -19   8    0.77    0.13 
  -4 -19   8    0.46    0.14 
  -3 -19   8    0.13    0.12 
  -2 -19   8    0.09    0.13 
  -1 -19   8    1.62    0.20 
   0 -19   8    0.71    0.17 
   1 -19   8    0.05    0.11 
   2 -19   8    0.15    0.13 
   3 -19   8    0.32    0.10 
   4 -19   8    0.16    0.08 
  -8 -18   8    0.44    0.08 
  -7 -18   8   -0.05    0.08 
  -6 -18   8    0.69    0.14 
  -5 -18   8   -0.17    0.11 
  -4 -18   8    0.22    0.14 
  -3 -18   8    0.30    0.13 
  -2 -18   8    9.83    1.14 
  -1 -18   8    3.87    0.43 
   0 -18   8    0.07    0.13 
   1 -18   8    0.59    0.15 
   2 -18   8    0.79    0.15 
   3 -18   8    0.09    0.13 
   4 -18   8    0.50    0.13 
   5 -18   8   -0.04    0.08 
  -9 -17   8   -0.07    0.04 
  -8 -17   8   -0.03    0.07 
  -7 -17   8    0.05    0.08 
  -6 -17   8   -0.08    0.09 
  -5 -17   8    0.03    0.11 
  -4 -17   8    0.55    0.16 
  -3 -17   8    1.79    0.21 
  -2 -17   8    0.87    0.15 
  -1 -17   8    2.03    0.23 
   0 -17   8    0.26    0.12 
   1 -17   8    0.39    0.16 
   2 -17   8    0.09    0.14 
   3 -17   8    0.52    0.18 
   4 -17   8    0.23    0.14 
   5 -17   8    0.62    0.18 
  -9 -16   8    1.45    0.12 
  -8 -16   8   -0.02    0.07 
  -7 -16   8   -0.15    0.08 
  -6 -16   8    0.68    0.12 
  -5 -16   8    0.04    0.10 
  -4 -16   8    1.54    0.21 
  -3 -16   8    0.64    0.16 
  -2 -16   8    2.21    0.25 
  -1 -16   8    0.09    0.12 
   0 -16   8   -0.03    0.11 
   1 -16   8    0.10    0.15 
   2 -16   8    0.26    0.16 
   3 -16   8    0.45    0.19 
   4 -16   8    0.12    0.20 
   5 -16   8    0.37    0.28 
   6 -16   8    0.05    0.10 
 -10 -15   8    0.52    0.07 
  -9 -15   8    1.80    0.14 
  -8 -15   8    0.25    0.08 
  -7 -15   8    0.67    0.11 
  -6 -15   8    0.24    0.09 
  -5 -15   8    0.00    0.10 
  -4 -15   8    1.41    0.16 
  -3 -15   8    0.23    0.13 
  -2 -15   8    0.99    0.18 
  -1 -15   8    5.59    0.56 
   0 -15   8    0.35    0.13 
   1 -15   8   -0.10    0.14 
   2 -15   8    3.23    0.42 
   3 -15   8    0.48    0.18 
   4 -15   8    0.83    0.35 
   5 -15   8    0.20    0.28 
   6 -15   8    0.61    0.27 
   7 -15   8    0.00    0.08 
 -10 -14   8    0.12    0.06 
  -9 -14   8    0.17    0.07 
  -8 -14   8    1.67    0.14 
  -7 -14   8    0.12    0.09 
  -6 -14   8    0.60    0.11 
  -5 -14   8    0.33    0.11 
  -4 -14   8    2.73    0.27 
  -3 -14   8    3.78    0.36 
  -2 -14   8    1.48    0.49 
  -1 -14   8    3.80    0.57 
   0 -14   8    0.21    0.13 
   1 -14   8    0.56    0.16 
   2 -14   8    0.29    0.24 
   3 -14   8    3.35    0.58 
   4 -14   8    0.55    0.32 
   5 -14   8    0.52    0.44 
 -11 -13   8    0.55    0.07 
 -10 -13   8    2.91    0.19 
  -9 -13   8    3.49    0.23 
  -8 -13   8    1.38    0.12 
  -7 -13   8    0.31    0.09 
  -6 -13   8    0.54    0.10 
  -5 -13   8    0.29    0.10 
  -4 -13   8    0.46    0.25 
  -3 -13   8    1.52    0.60 
  -2 -13   8   -0.01    0.21 
  -1 -13   8    0.83    0.33 
   0 -13   8    3.35    0.49 
   1 -13   8    0.22    0.19 
   2 -13   8    2.11    0.49 
   3 -13   8    0.23    0.21 
   4 -13   8    1.70    0.41 
 -11 -12   8   -0.01    0.05 
 -10 -12   8    0.60    0.08 
  -9 -12   8    0.44    0.09 
  -8 -12   8    0.05    0.08 
  -7 -12   8    0.64    0.10 
  -6 -12   8    0.40    0.10 
  -5 -12   8    2.21    0.50 
  -4 -12   8   -0.28    0.17 
  -3 -12   8    0.37    0.28 
  -2 -12   8    0.94    0.37 
  -1 -12   8    0.38    0.28 
   0 -12   8   14.08    2.18 
   1 -12   8    7.29    1.03 
   2 -12   8    0.79    0.23 
   3 -12   8    1.20    0.44 
   4 -12   8    1.45    0.45 
   5 -12   8    5.60    0.99 
 -12 -11   8    0.17    0.04 
 -11 -11   8    0.28    0.06 
 -10 -11   8    0.13    0.07 
  -9 -11   8    0.08    0.07 
  -8 -11   8    0.85    0.10 
  -7 -11   8    0.21    0.09 
  -6 -11   8    0.13    0.17 
  -5 -11   8    3.11    0.83 
  -4 -11   8    0.44    0.27 
  -3 -11   8    0.69    0.32 
  -2 -11   8    2.50    0.62 
  -1 -11   8    1.11    0.41 
   0 -11   8    0.61    0.20 
   1 -11   8    0.05    0.14 
   2 -11   8    1.42    0.31 
   3 -11   8    1.19    0.40 
   4 -11   8    2.81    0.76 
   5 -11   8    7.35    1.61 
 -12 -10   8    0.81    0.07 
 -11 -10   8    0.10    0.05 
 -10 -10   8    0.16    0.07 
  -9 -10   8    0.93    0.10 
  -8 -10   8    1.50    0.12 
  -7 -10   8    6.67    0.60 
  -6 -10   8   -0.13    0.15 
  -5 -10   8    0.51    0.20 
  -4 -10   8   -0.26    0.18 
  -3 -10   8    0.17    0.20 
  -2 -10   8    4.45    1.15 
  -1 -10   8    4.62    1.08 
   0 -10   8    6.80    1.04 
   1 -10   8    0.04    0.14 
   2 -10   8    0.15    0.16 
   3 -10   8   12.18    1.93 
   4 -10   8   16.62    3.55 
   5 -10   8    7.33    1.62 
   6 -10   8    0.34    0.25 
 -12  -9   8    0.09    0.05 
 -11  -9   8    0.08    0.06 
 -10  -9   8    2.07    0.14 
  -9  -9   8    9.12    0.41 
  -8  -9   8    1.54    0.12 
  -7  -9   8    0.80    0.19 
  -6  -9   8    0.04    0.12 
  -5  -9   8    6.74    1.18 
  -4  -9   8    1.40    0.28 
  -3  -9   8    0.39    0.25 
  -2  -9   8   -0.09    0.14 
  -1  -9   8    3.45    0.90 
   0  -9   8    0.63    0.19 
   1  -9   8   -0.07    0.12 
   2  -9   8    3.11    0.53 
   3  -9   8   -0.01    0.15 
   4  -9   8    6.31    1.42 
   5  -9   8    6.62    1.43 
   6  -9   8    0.07    0.27 
 -12  -8   8    0.26    0.06 
 -11  -8   8    0.06    0.06 
 -10  -8   8    9.10    0.41 
  -9  -8   8    0.61    0.08 
  -8  -8   8   -0.04    0.08 
  -7  -8   8    0.43    0.18 
  -6  -8   8    1.11    0.20 
  -5  -8   8    2.16    0.43 
  -4  -8   8    0.03    0.15 
  -3  -8   8    1.02    0.21 
  -2  -8   8    2.54    0.61 
  -1  -8   8    0.20    0.20 
   0  -8   8   25.53    3.96 
   1  -8   8   29.24    4.33 
   2  -8   8    5.89    1.03 
   3  -8   8   11.14    1.69 
   4  -8   8    0.90    0.23 
   5  -8   8   12.17    2.58 
   6  -8   8    0.41    0.30 
 -13  -7   8    0.38    0.05 
 -12  -7   8    0.60    0.07 
 -11  -7   8    0.17    0.06 
 -10  -7   8    0.38    0.07 
  -9  -7   8    0.27    0.07 
  -8  -7   8    2.89    0.37 
  -7  -7   8    3.50    0.61 
  -6  -7   8    0.44    0.15 
  -5  -7   8    1.89    0.36 
  -4  -7   8    0.95    0.20 
  -3  -7   8    0.19    0.12 
  -2  -7   8    0.84    0.27 
  -1  -7   8    0.43    0.26 
   0  -7   8    0.08    0.09 
   1  -7   8    0.00    0.10 
   2  -7   8   34.10    7.46 
   3  -7   8    0.47    0.27 
   4  -7   8   19.01    4.22 
   5  -7   8   10.32    2.12 
   6  -7   8    0.81    0.39 
 -13  -6   8    5.01    0.30 
 -12  -6   8   -0.02    0.06 
 -11  -6   8   -0.11    0.06 
 -10  -6   8    1.49    0.11 
  -9  -6   8    0.13    0.06 
  -8  -6   8    5.52    0.68 
  -7  -6   8    0.68    0.17 
  -6  -6   8   12.09    2.81 
  -5  -6   8    0.91    0.20 
  -4  -6   8    0.30    0.14 
  -3  -6   8    7.54    1.17 
  -2  -6   8    5.22    0.83 
  -1  -6   8    3.25    0.55 
   0  -6   8    0.84    0.21 
   1  -6   8    2.39    0.39 
   2  -6   8    2.18    0.44 
   3  -6   8    0.74    0.31 
   4  -6   8   21.06    4.57 
   5  -6   8    1.98    0.63 
   7  -6   8    1.39    0.56 
 -13  -5   8    0.28    0.05 
 -12  -5   8    0.17    0.06 
 -11  -5   8    0.14    0.07 
 -10  -5   8    5.09    0.25 
  -9  -5   8    4.14    0.21 
  -8  -5   8    2.68    0.37 
  -7  -5   8    3.42    0.48 
  -6  -5   8    0.05    0.23 
  -5  -5   8    2.94    0.41 
  -4  -5   8    0.01    0.10 
  -3  -5   8    0.12    0.11 
  -2  -5   8    0.05    0.11 
  -1  -5   8    1.10    0.17 
   0  -5   8    1.01    0.19 
   1  -5   8    0.10    0.10 
   2  -5   8    3.85    0.90 
   3  -5   8    7.26    1.73 
   4  -5   8    1.40    0.44 
   5  -5   8    2.47    0.68 
 -13  -4   8    0.40    0.06 
 -12  -4   8    0.10    0.06 
 -11  -4   8    5.17    0.29 
 -10  -4   8    1.69    0.12 
  -9  -4   8    3.61    0.22 
  -8  -4   8    1.04    0.21 
  -7  -4   8    0.23    0.12 
  -6  -4   8    1.15    0.31 
  -5  -4   8    1.28    0.33 
  -4  -4   8   -0.06    0.09 
  -3  -4   8    0.26    0.14 
  -2  -4   8    0.02    0.07 
  -1  -4   8   16.00    1.95 
   0  -4   8    2.07    0.30 
   1  -4   8   20.56    3.05 
   2  -4   8    1.27    0.25 
   3  -4   8    1.45    0.46 
   4  -4   8    7.34    1.80 
   5  -4   8    1.43    0.43 
 -13  -3   8    0.25    0.05 
 -12  -3   8    3.16    0.18 
 -11  -3   8    3.86    0.21 
 -10  -3   8    0.01    0.06 
  -9  -3   8    0.49    0.17 
  -8  -3   8    0.39    0.15 
  -7  -3   8    0.53    0.15 
  -6  -3   8    1.01    0.20 
  -5  -3   8    0.05    0.13 
  -4  -3   8    0.18    0.21 
  -3  -3   8    0.46    0.10 
  -2  -3   8    0.41    0.11 
  -1  -3   8   13.92    1.67 
   0  -3   8    9.00    1.17 
   1  -3   8    4.22    0.62 
   2  -3   8    2.31    0.39 
   3  -3   8    0.99    0.29 
   4  -3   8    3.45    0.85 
   5  -3   8    2.47    0.51 
   6  -3   8    0.90    0.31 
 -13  -2   8    1.29    0.10 
 -12  -2   8    0.65    0.08 
 -11  -2   8    1.47    0.11 
 -10  -2   8    2.01    0.13 
  -9  -2   8    0.39    0.14 
  -8  -2   8    0.21    0.11 
  -7  -2   8    0.15    0.10 
  -6  -2   8   -0.01    0.10 
  -5  -2   8    1.40    0.25 
  -4  -2   8    0.13    0.18 
  -3  -2   8    0.63    0.15 
  -2  -2   8    5.19    0.70 
  -1  -2   8    0.80    0.14 
   0  -2   8    7.25    0.90 
   1  -2   8    0.30    0.09 
   2  -2   8    0.00    0.08 
   3  -2   8   -0.16    0.11 
   4  -2   8    0.73    0.31 
   5  -2   8   13.20    2.66 
   6  -2   8    2.00    0.52 
 -13  -1   8   -0.02    0.05 
 -12  -1   8   -0.08    0.06 
 -11  -1   8    2.38    0.15 
 -10  -1   8    0.96    0.09 
  -9  -1   8   -0.13    0.11 
  -8  -1   8    0.48    0.13 
  -7  -1   8    1.00    0.18 
  -6  -1   8    1.39    0.21 
  -5  -1   8    1.03    0.17 
  -4  -1   8    0.29    0.11 
  -3  -1   8    0.13    0.10 
  -2  -1   8    4.21    0.55 
  -1  -1   8   37.44    4.68 
   0  -1   8    0.10    0.08 
   1  -1   8    1.94    0.27 
   2  -1   8    0.33    0.09 
   5  -1   8    0.51    0.23 
   6  -1   8    3.61    0.94 
   7  -1   8    3.97    0.78 
 -13   0   8   -0.13    0.05 
 -12   0   8    0.67    0.08 
 -11   0   8    2.11    0.13 
 -10   0   8    5.38    0.29 
  -9   0   8    9.20    0.98 
  -8   0   8    2.99    0.37 
  -7   0   8    1.46    0.20 
  -6   0   8    4.41    0.51 
  -5   0   8    3.29    0.45 
  -4   0   8    6.43    0.83 
  -3   0   8    0.03    0.10 
  -2   0   8    0.20    0.08 
  -1   0   8    2.21    0.32 
   0   0   8   47.62    5.96 
   1   0   8    6.78    1.13 
   2   0   8    2.36    0.44 
   3   0   8   11.37    2.52 
   7   0   8    9.02    1.96 
 -13   1   8   -0.02    0.05 
 -12   1   8   -0.05    0.06 
 -11   1   8    2.28    0.15 
 -10   1   8    0.97    0.09 
  -9   1   8   -0.12    0.13 
  -8   1   8    0.38    0.14 
  -7   1   8    0.79    0.17 
  -6   1   8    0.95    0.22 
  -5   1   8    1.23    0.18 
  -4   1   8    0.37    0.10 
  -3   1   8   -0.15    0.07 
  -2   1   8    4.36    0.67 
  -1   1   8   38.72    4.68 
   0   1   8    0.18    0.08 
   1   1   8    2.15    0.34 
   2   1   8    0.33    0.12 
   3   1   8    1.51    0.35 
   4   1   8    1.78    0.52 
   7   1   8    3.42    0.78 
 -13   2   8    1.50    0.10 
 -12   2   8    0.95    0.09 
 -11   2   8    1.47    0.11 
 -10   2   8    2.03    0.14 
  -9   2   8    0.59    0.18 
  -8   2   8    0.34    0.14 
  -7   2   8    0.14    0.10 
  -6   2   8   -0.21    0.10 
  -5   2   8    1.48    0.21 
  -4   2   8    0.41    0.12 
  -3   2   8    0.61    0.15 
  -2   2   8    5.44    0.86 
  -1   2   8    0.89    0.15 
   0   2   8    7.14    1.10 
   1   2   8    0.26    0.11 
   2   2   8    0.09    0.09 
   3   2   8   -0.15    0.15 
   4   2   8    1.41    0.36 
   5   2   8   10.96    2.65 
 -13   3   8    0.24    0.06 
 -12   3   8    2.94    0.18 
 -11   3   8    3.75    0.22 
 -10   3   8   -0.01    0.07 
  -9   3   8    0.28    0.16 
  -8   3   8    0.18    0.13 
  -7   3   8    0.80    0.15 
  -6   3   8    0.77    0.16 
  -5   3   8   -0.08    0.08 
  -4   3   8    0.34    0.11 
  -3   3   8    0.44    0.12 
  -2   3   8    0.73    0.13 
  -1   3   8   14.08    2.05 
   0   3   8    9.18    1.44 
   1   3   8    4.11    0.51 
   2   3   8    2.14    0.32 
   3   3   8    1.29    0.33 
   4   3   8    3.81    0.86 
   5   3   8    1.64    0.47 
 -13   4   8    0.40    0.06 
 -12   4   8    0.03    0.06 
 -11   4   8    5.12    0.29 
 -10   4   8    1.59    0.12 
  -9   4   8    3.48    0.21 
  -8   4   8    0.98    0.21 
  -7   4   8    0.20    0.13 
  -6   4   8    1.72    0.28 
  -5   4   8    1.53    0.27 
  -4   4   8   -0.14    0.09 
  -3   4   8    0.32    0.12 
  -2   4   8    0.09    0.08 
  -1   4   8   14.88    1.95 
   0   4   8    2.11    0.30 
   1   4   8   21.50    2.49 
   2   4   8    1.42    0.21 
   3   4   8    2.52    0.50 
   4   4   8    8.75    1.82 
   5   4   8    1.57    0.45 
   6   4   8    1.51    0.42 
 -13   5   8    0.26    0.06 
 -12   5   8    0.29    0.06 
 -11   5   8    0.12    0.07 
 -10   5   8    4.92    0.26 
  -9   5   8    4.25    0.21 
  -8   5   8    1.93    0.36 
  -7   5   8    3.45    0.49 
  -6   5   8    0.49    0.19 
  -5   5   8    3.11    0.41 
  -4   5   8    0.06    0.10 
  -3   5   8   -0.02    0.09 
  -2   5   8    0.09    0.09 
  -1   5   8    0.72    0.17 
   0   5   8    1.34    0.18 
   1   5   8    0.24    0.10 
   2   5   8    3.95    0.52 
   3   5   8    8.10    1.73 
   4   5   8    2.20    0.48 
   5   5   8    2.50    0.69 
   6   5   8    0.84    0.30 
 -13   6   8    4.47    0.28 
 -12   6   8    0.04    0.06 
 -11   6   8    0.02    0.07 
 -10   6   8    1.29    0.11 
  -9   6   8    0.05    0.07 
  -8   6   8    4.23    0.69 
  -7   6   8    0.45    0.18 
  -6   6   8   10.86    2.82 
  -5   6   8    0.64    0.31 
  -4   6   8    0.26    0.13 
  -3   6   8    9.46    1.17 
  -2   6   8    4.64    0.69 
  -1   6   8    3.22    0.45 
   0   6   8    0.81    0.17 
   1   6   8    2.14    0.32 
   2   6   8    1.81    0.42 
   3   6   8    1.34    0.35 
   4   6   8   23.30    4.58 
   5   6   8    3.16    0.70 
   6   6   8    0.72    0.30 
   7   6   8    2.38    0.56 
 -13   7   8    0.25    0.05 
 -12   7   8    0.63    0.08 
 -11   7   8    0.05    0.07 
 -10   7   8    0.47    0.08 
  -9   7   8    0.23    0.07 
  -8   7   8    1.40    0.35 
  -7   7   8    2.58    0.61 
  -6   7   8    0.46    0.28 
  -5   7   8    1.71    0.52 
  -4   7   8    0.80    0.36 
  -3   7   8    0.02    0.11 
  -2   7   8    0.76    0.16 
  -1   7   8    0.81    0.17 
   0   7   8    0.02    0.09 
   1   7   8    0.02    0.10 
   2   7   8   38.61    7.47 
   3   7   8    1.10    0.31 
   4   7   8   21.73    4.24 
   5   7   8    8.53    2.07 
   6   7   8    1.57    0.42 
 -12   8   8    0.28    0.06 
 -11   8   8    0.00    0.07 
 -10   8   8    8.33    0.43 
  -9   8   8    0.57    0.08 
  -8   8   8   -0.07    0.09 
  -7   8   8    0.27    0.19 
  -6   8   8    0.93    0.38 
  -5   8   8    2.39    0.64 
  -4   8   8    0.07    0.21 
  -3   8   8    0.78    0.25 
  -2   8   8    2.34    0.35 
  -1   8   8    0.27    0.12 
   0   8   8   28.16    3.24 
   1   8   8   29.73    4.33 
   2   8   8    6.98    1.04 
   3   8   8   11.60    2.38 
   4   8   8    1.12    0.32 
   5   8   8   12.78    2.55 
   6   8   8    0.66    0.29 
 -12   9   8    0.06    0.05 
 -11   9   8    0.01    0.07 
 -10   9   8    1.64    0.13 
  -9   9   8    8.09    0.43 
  -8   9   8    1.08    0.12 
  -7   9   8    0.39    0.24 
  -6   9   8    0.25    0.25 
  -5   9   8    6.44    1.72 
  -4   9   8    0.45    0.36 
  -3   9   8    0.69    0.31 
  -2   9   8    0.16    0.15 
  -1   9   8    4.35    0.64 
   0   9   8    0.58    0.19 
   1   9   8    0.07    0.13 
   2   9   8    2.93    0.52 
   3   9   8    0.20    0.16 
   4   9   8    7.36    1.39 
   5   9   8    7.10    1.41 
   6   9   8   -0.08    0.21 
 -12  10   8    0.69    0.07 
 -11  10   8    0.03    0.06 
 -10  10   8    0.17    0.07 
  -9  10   8    0.78    0.10 
  -8  10   8    1.08    0.13 
  -7  10   8    4.80    0.67 
  -6  10   8    0.35    0.29 
  -5  10   8    0.42    0.32 
  -4  10   8    0.00    0.22 
  -3  10   8    0.26    0.24 
  -2  10   8    5.11    1.20 
  -1  10   8    5.47    0.77 
   0  10   8    7.70    1.06 
   1  10   8   -0.14    0.12 
   2  10   8    0.45    0.17 
   3  10   8   13.40    1.93 
   4  10   8   18.18    3.54 
   5  10   8    8.99    1.61 
   6  10   8    0.07    0.22 
 -12  11   8    0.18    0.05 
 -11  11   8    0.34    0.07 
 -10  11   8    0.19    0.07 
  -9  11   8    0.14    0.08 
  -8  11   8    0.78    0.11 
  -7  11   8    0.16    0.09 
  -6  11   8   -0.02    0.27 
  -5  11   8    2.03    0.83 
  -4  11   8    0.53    0.31 
  -3  11   8    0.83    0.36 
  -2  11   8    1.88    0.61 
  -1  11   8    2.07    0.51 
   0  11   8    0.43    0.21 
   1  11   8    0.02    0.14 
   2  11   8    1.23    0.31 
   3  11   8    1.40    0.28 
   4  11   8    3.09    0.52 
   5  11   8    8.14    1.60 
 -11  12   8    0.04    0.05 
 -10  12   8    0.47    0.08 
  -9  12   8    0.58    0.09 
  -8  12   8    0.20    0.08 
  -7  12   8    0.46    0.10 
  -6  12   8    0.58    0.12 
  -5  12   8    0.63    0.48 
  -4  12   8    0.07    0.28 
  -3  12   8    0.52    0.34 
  -2  12   8    1.50    0.45 
  -1  12   8    0.35    0.31 
   0  12   8   14.85    2.18 
   1  12   8    5.70    1.02 
   2  12   8    1.01    0.24 
   3  12   8    1.44    0.30 
   4  12   8    1.52    0.29 
   5  12   8    5.01    0.91 
 -11  13   8    0.54    0.07 
 -10  13   8    2.47    0.19 
  -9  13   8    3.08    0.22 
  -8  13   8    1.02    0.12 
  -7  13   8    0.22    0.10 
  -6  13   8    0.41    0.12 
  -5  13   8    0.13    0.12 
  -4  13   8   -0.32    0.24 
  -3  13   8    2.23    0.66 
  -2  13   8   -0.07    0.25 
  -1  13   8    0.87    0.38 
   0  13   8    1.83    0.67 
   1  13   8    0.36    0.18 
   2  13   8    3.64    0.43 
   3  13   8    0.46    0.16 
   4  13   8    3.19    0.40 
 -10  14   8    0.05    0.07 
  -9  14   8    0.07    0.08 
  -8  14   8    1.39    0.15 
  -7  14   8    0.24    0.10 
  -6  14   8    0.37    0.12 
  -5  14   8    0.47    0.12 
  -4  14   8    2.25    0.27 
  -3  14   8    3.46    0.38 
  -2  14   8    1.05    0.32 
  -1  14   8    3.38    0.57 
   0  14   8    0.00    0.17 
   1  14   8    0.54    0.22 
   2  14   8    1.32    0.21 
   3  14   8    3.61    0.56 
   4  14   8    0.05    0.33 
   6  14   8    1.27    0.35 
 -10  15   8    0.53    0.08 
  -9  15   8    1.39    0.15 
  -8  15   8    0.22    0.10 
  -7  15   8    0.56    0.12 
  -6  15   8    0.17    0.10 
  -5  15   8    0.03    0.11 
  -4  15   8    0.78    0.17 
  -3  15   8    0.23    0.16 
  -2  15   8    0.81    0.19 
  -1  15   8    5.14    0.51 
   0  15   8    0.48    0.17 
   1  15   8    0.28    0.17 
   2  15   8    3.33    0.45 
   3  15   8    0.23    0.19 
   4  15   8    0.43    0.23 
   5  15   8    0.21    0.25 
   6  15   8    0.62    0.29 
   7  15   8    0.18    0.17 
  -9  16   8    1.02    0.12 
  -8  16   8    0.09    0.08 
  -7  16   8   -0.07    0.09 
  -6  16   8    0.55    0.13 
  -5  16   8   -0.15    0.11 
  -4  16   8    1.74    0.23 
  -3  16   8    1.03    0.19 
  -2  16   8    1.80    0.26 
  -1  16   8    0.23    0.15 
   0  16   8    0.07    0.14 
   1  16   8    0.33    0.15 
   2  16   8    0.27    0.17 
   3  16   8    1.14    0.27 
   4  16   8    0.12    0.17 
   5  16   8    0.38    0.19 
   6  16   8   -0.12    0.12 
  -9  17   8    0.00    0.07 
  -8  17   8    0.04    0.07 
  -7  17   8   -0.03    0.09 
  -6  17   8   -0.03    0.10 
  -5  17   8    0.21    0.12 
  -4  17   8    0.76    0.21 
  -3  17   8    1.17    0.21 
  -2  17   8    0.31    0.15 
  -1  17   8    1.40    0.23 
   0  17   8    0.07    0.13 
   1  17   8    0.43    0.18 
   2  17   8    0.26    0.16 
   3  17   8    0.29    0.18 
   4  17   8    0.39    0.18 
   5  17   8    0.69    0.16 
  -8  18   8    0.62    0.11 
  -7  18   8    0.18    0.10 
  -6  18   8    0.86    0.15 
  -5  18   8    0.03    0.13 
  -4  18   8    0.03    0.15 
  -3  18   8    0.00    0.15 
  -2  18   8    9.91    1.03 
  -1  18   8    4.23    0.45 
   0  18   8    0.12    0.16 
   1  18   8    0.24    0.14 
   2  18   8    0.67    0.16 
   3  18   8    0.24    0.13 
   4  18   8    0.72    0.16 
   5  18   8   -0.07    0.09 
  -7  19   8    0.09    0.09 
  -6  19   8    0.32    0.12 
  -5  19   8    0.42    0.12 
  -4  19   8    0.17    0.13 
  -3  19   8    0.28    0.14 
  -2  19   8    0.11    0.14 
  -1  19   8    1.03    0.20 
   0  19   8    0.71    0.17 
   1  19   8    0.13    0.13 
   2  19   8    0.09    0.11 
   3  19   8    0.19    0.10 
   4  19   8   -0.09    0.08 
  -6  20   8   -0.02    0.09 
  -5  20   8    0.19    0.11 
  -4  20   8   -0.01    0.10 
  -3  20   8    0.10    0.11 
  -2  20   8    0.23    0.13 
  -1  20   8   -0.02    0.11 
   0  20   8    0.00    0.11 
   1  20   8    0.32    0.11 
   2  20   8   -0.08    0.09 
   3  20   8   -0.07    0.07 
  -5  21   8    0.51    0.11 
  -4  21   8    0.06    0.11 
  -3  21   8    0.20    0.10 
  -2  21   8    0.07    0.10 
  -1  21   8    0.01    0.09 
   0  21   8   -0.01    0.10 
   1  21   8    0.12    0.09 
   2  21   8    0.37    0.11 
  -3  22   8    0.23    0.13 
  -2  22   8    1.34    0.21 
  -1  22   8    0.23    0.10 
  -3 -21   9    0.14    0.10 
  -2 -21   9    0.10    0.08 
  -1 -21   9    0.35    0.11 
   0 -21   9    0.30    0.12 
  -5 -20   9    3.19    0.39 
  -4 -20   9    0.85    0.15 
  -3 -20   9    0.23    0.11 
  -2 -20   9    0.38    0.11 
  -1 -20   9    0.38    0.12 
   0 -20   9    0.29    0.10 
   1 -20   9    0.00    0.08 
   2 -20   9    0.57    0.14 
  -7 -19   9    0.01    0.04 
  -6 -19   9   -0.05    0.07 
  -5 -19   9    1.21    0.18 
  -4 -19   9    0.19    0.12 
  -3 -19   9    0.29    0.12 
  -2 -19   9    0.39    0.14 
  -1 -19   9    0.58    0.14 
   0 -19   9    0.24    0.12 
   1 -19   9   -0.06    0.09 
   2 -19   9    0.13    0.09 
   3 -19   9    0.12    0.09 
  -8 -18   9    0.02    0.05 
  -7 -18   9   -0.07    0.07 
  -6 -18   9    0.52    0.13 
  -5 -18   9    0.09    0.11 
  -4 -18   9   -0.04    0.12 
  -3 -18   9    0.10    0.12 
  -2 -18   9    0.82    0.18 
  -1 -18   9   -0.01    0.13 
   0 -18   9    0.02    0.11 
   1 -18   9    2.60    0.28 
   2 -18   9    0.02    0.10 
   3 -18   9    1.09    0.15 
   4 -18   9    0.12    0.09 
  -8 -17   9   -0.08    0.06 
  -7 -17   9   -0.01    0.08 
  -6 -17   9    0.16    0.12 
  -5 -17   9    0.44    0.13 
  -4 -17   9    0.04    0.12 
  -3 -17   9    0.60    0.18 
  -2 -17   9   -0.07    0.13 
  -1 -17   9    0.08    0.14 
   0 -17   9    0.31    0.13 
   1 -17   9   -0.07    0.13 
   2 -17   9    2.04    0.26 
   3 -17   9    0.03    0.11 
   4 -17   9   -0.20    0.10 
  -9 -16   9    0.01    0.06 
  -8 -16   9    0.58    0.09 
  -7 -16   9    0.01    0.08 
  -6 -16   9    0.04    0.10 
  -5 -16   9    2.27    0.28 
  -4 -16   9    0.24    0.12 
  -3 -16   9    1.64    0.25 
  -2 -16   9   -0.01    0.12 
  -1 -16   9    0.36    0.15 
   0 -16   9    0.28    0.14 
   1 -16   9    0.27    0.16 
   2 -16   9    2.01    0.33 
   3 -16   9    0.22    0.16 
   4 -16   9    0.97    0.27 
   5 -16   9    0.38    0.12 
 -10 -15   9    0.02    0.05 
  -9 -15   9    0.86    0.11 
  -8 -15   9    0.02    0.07 
  -7 -15   9    0.00    0.09 
  -6 -15   9    1.45    0.18 
  -5 -15   9    0.23    0.10 
  -4 -15   9    0.06    0.12 
  -3 -15   9    0.28    0.13 
  -2 -15   9    0.73    0.16 
  -1 -15   9    1.36    0.20 
   0 -15   9    0.37    0.13 
   1 -15   9    0.40    0.16 
   2 -15   9    0.57    0.23 
   3 -15   9    1.24    0.33 
   4 -15   9    0.18    0.29 
   5 -15   9    0.01    0.16 
   6 -15   9   -0.05    0.18 
 -10 -14   9   -0.01    0.06 
  -9 -14   9   -0.07    0.06 
  -8 -14   9    0.51    0.10 
  -7 -14   9    0.82    0.13 
  -6 -14   9    1.23    0.13 
  -5 -14   9   -0.07    0.09 
  -4 -14   9    0.38    0.13 
  -3 -14   9    0.00    0.12 
  -2 -14   9    1.38    0.21 
  -1 -14   9    0.05    0.13 
   0 -14   9    1.80    0.22 
   1 -14   9    0.33    0.16 
   2 -14   9    0.89    0.20 
   3 -14   9    0.70    0.27 
   4 -14   9    2.09    0.40 
   5 -14   9    0.36    0.28 
   6 -14   9   -0.03    0.19 
 -11 -13   9    0.00    0.04 
 -10 -13   9    1.18    0.10 
  -9 -13   9    0.34    0.08 
  -8 -13   9    2.15    0.16 
  -7 -13   9    0.06    0.08 
  -6 -13   9    0.68    0.11 
  -5 -13   9    1.46    0.17 
  -4 -13   9    2.31    0.24 
  -3 -13   9    0.77    0.17 
  -2 -13   9    1.32    0.20 
  -1 -13   9    0.65    0.18 
   0 -13   9    0.69    0.15 
   1 -13   9    0.08    0.14 
   2 -13   9    2.29    0.42 
   3 -13   9    0.20    0.23 
   4 -13   9    0.50    0.31 
   6 -13   9    1.13    0.39 
   7 -13   9    0.02    0.17 
 -11 -12   9    0.19    0.05 
 -10 -12   9    7.87    0.50 
  -9 -12   9    0.77    0.09 
  -8 -12   9    2.47    0.19 
  -7 -12   9    0.02    0.08 
  -6 -12   9    0.93    0.13 
  -5 -12   9   -0.05    0.09 
  -4 -12   9    0.01    0.21 
  -3 -12   9   -0.11    0.21 
  -2 -12   9    0.38    0.27 
  -1 -12   9    0.46    0.35 
   0 -12   9    6.42    1.10 
   1 -12   9   21.38    2.64 
   2 -12   9    0.20    0.16 
   3 -12   9    3.73    0.77 
   4 -12   9    0.76    0.31 
 -11 -11   9    0.40    0.06 
 -10 -11   9    0.58    0.09 
  -9 -11   9   -0.03    0.07 
  -8 -11   9    0.94    0.11 
  -7 -11   9    2.80    0.19 
  -6 -11   9    0.10    0.08 
  -5 -11   9    0.63    0.34 
  -4 -11   9    3.05    0.80 
  -3 -11   9    0.60    0.32 
  -2 -11   9    0.42    0.25 
  -1 -11   9    4.71    1.04 
   0 -11   9    1.01    0.25 
   1 -11   9    0.48    0.17 
   2 -11   9    1.14    0.21 
   3 -11   9    0.09    0.24 
   4 -11   9    1.18    0.45 
 -12 -10   9    2.77    0.17 
 -11 -10   9    0.51    0.07 
 -10 -10   9    0.25    0.07 
  -9 -10   9   -0.03    0.07 
  -8 -10   9    0.70    0.10 
  -7 -10   9    2.82    0.20 
  -6 -10   9    3.16    0.59 
  -5 -10   9    3.07    0.54 
  -4 -10   9    3.39    0.80 
  -3 -10   9    0.30    0.25 
  -2 -10   9    0.33    0.25 
  -1 -10   9    1.31    0.45 
   0 -10   9    1.32    0.30 
   1 -10   9    0.81    0.21 
   2 -10   9    1.97    0.38 
   3 -10   9   30.13    4.55 
   4 -10   9    0.08    0.30 
   5 -10   9    1.77    0.55 
 -12  -9   9    1.33    0.09 
 -11  -9   9    0.41    0.07 
 -10  -9   9    0.52    0.08 
  -9  -9   9    1.32    0.12 
  -8  -9   9    5.90    0.31 
  -7  -9   9    0.29    0.09 
  -6  -9   9    4.89    0.72 
  -5  -9   9    0.48    0.18 
  -4  -9   9    0.03    0.16 
  -3  -9   9    0.42    0.24 
  -2  -9   9    3.62    1.05 
  -1  -9   9    3.96    1.13 
   0  -9   9   14.73    2.02 
   1  -9   9    5.03    0.85 
   2  -9   9   25.63    3.75 
   3  -9   9    6.71    0.96 
   4  -9   9    0.10    0.28 
   5  -9   9    0.10    0.27 
 -12  -8   9    0.22    0.05 
 -11  -8   9    0.03    0.06 
 -10  -8   9    1.28    0.10 
  -9  -8   9    4.91    0.27 
  -8  -8   9    0.34    0.09 
  -7  -8   9    3.53    0.82 
  -6  -8   9    0.06    0.17 
  -5  -8   9    1.15    0.29 
  -4  -8   9    0.89    0.26 
  -3  -8   9    0.32    0.20 
  -2  -8   9    2.07    0.50 
  -1  -8   9    1.86    0.52 
   0  -8   9   14.11    2.24 
   1  -8   9   42.47    5.92 
   2  -8   9    7.40    1.15 
   3  -8   9    0.04    0.15 
   4  -8   9    5.09    0.80 
   5  -8   9    6.45    1.37 
 -12  -7   9    0.79    0.07 
 -11  -7   9    0.05    0.06 
 -10  -7   9    2.83    0.15 
  -9  -7   9    0.05    0.07 
  -8  -7   9    0.70    0.10 
  -7  -7   9    7.17    1.51 
  -6  -7   9   -0.01    0.24 
  -5  -7   9    2.25    0.46 
  -4  -7   9    1.38    0.31 
  -3  -7   9    0.12    0.14 
  -2  -7   9    1.36    0.38 
  -1  -7   9    5.24    1.17 
   0  -7   9    0.08    0.12 
   1  -7   9    0.14    0.15 
   2  -7   9    1.46    0.43 
   3  -7   9    3.54    0.67 
   4  -7   9    0.54    0.20 
   5  -7   9    0.87    0.38 
   6  -7   9    0.24    0.25 
 -12  -6   9    0.16    0.05 
 -11  -6   9    0.07    0.06 
 -10  -6   9    0.37    0.06 
  -9  -6   9    2.34    0.15 
  -8  -6   9    0.07    0.10 
  -7  -6   9   17.97    4.19 
  -6  -6   9    1.23    0.37 
  -5  -6   9    0.51    0.19 
  -4  -6   9    1.89    0.32 
  -3  -6   9    0.15    0.13 
  -2  -6   9   -0.01    0.12 
  -1  -6   9    5.10    0.94 
   0  -6   9    8.23    1.72 
   1  -6   9    2.58    0.58 
   2  -6   9    0.40    0.24 
   3  -6   9   24.65    5.21 
   4  -6   9   13.48    2.87 
   5  -6   9    2.21    0.61 
   6  -6   9    0.95    0.38 
 -13  -5   9    1.17    0.07 
 -12  -5   9    0.08    0.06 
 -11  -5   9    0.05    0.06 
 -10  -5   9    1.97    0.12 
  -9  -5   9   -0.01    0.07 
  -8  -5   9    4.27    0.60 
  -7  -5   9    1.78    0.63 
  -6  -5   9    5.80    1.49 
  -5  -5   9   -0.14    0.20 
  -4  -5   9   12.01    1.92 
  -3  -5   9    4.97    0.87 
  -2  -5   9    4.89    0.85 
  -1  -5   9    1.50    0.23 
   0  -5   9   16.42    2.37 
   1  -5   9    1.44    0.40 
   2  -5   9    3.93    0.81 
   3  -5   9    4.25    0.97 
   4  -5   9    0.81    0.29 
   5  -5   9    0.64    0.29 
 -13  -4   9    0.86    0.07 
 -12  -4   9    0.13    0.06 
 -11  -4   9    2.43    0.15 
 -10  -4   9    1.08    0.09 
  -9  -4   9    0.02    0.06 
  -8  -4   9    0.07    0.13 
  -7  -4   9    0.01    0.14 
  -6  -4   9    1.03    0.40 
  -5  -4   9    5.26    1.36 
  -4  -4   9    7.14    1.14 
  -3  -4   9   -0.07    0.11 
  -2  -4   9    0.37    0.11 
  -1  -4   9    1.71    0.27 
   0  -4   9    1.50    0.28 
   1  -4   9    5.12    1.10 
   2  -4   9    0.14    0.19 
   3  -4   9    9.99    2.30 
   4  -4   9   16.92    3.46 
   5  -4   9    4.38    1.05 
   6  -4   9    4.45    0.89 
 -13  -3   9    0.40    0.06 
 -12  -3   9    0.02    0.05 
 -11  -3   9    0.12    0.07 
 -10  -3   9    5.00    0.25 
  -9  -3   9    0.38    0.07 
  -8  -3   9   -0.11    0.12 
  -7  -3   9    0.09    0.17 
  -6  -3   9    0.24    0.22 
  -5  -3   9    0.25    0.22 
  -4  -3   9   -0.04    0.16 
  -3  -3   9    0.55    0.18 
  -2  -3   9    0.21    0.10 
  -1  -3   9    0.09    0.08 
   0  -3   9    6.04    0.78 
   1  -3   9    0.21    0.17 
   2  -3   9    0.79    0.27 
   3  -3   9    6.20    1.47 
   4  -3   9    7.69    1.70 
   5  -3   9    6.81    1.60 
   6  -3   9    0.35    0.25 
 -13  -2   9    0.12    0.05 
 -12  -2   9    0.05    0.06 
 -11  -2   9   -0.02    0.06 
 -10  -2   9    0.11    0.06 
  -9  -2   9    0.02    0.06 
  -8  -2   9   -0.08    0.12 
  -7  -2   9    2.43    0.59 
  -6  -2   9   17.70    2.82 
  -5  -2   9    0.81    0.30 
  -4  -2   9    0.00    0.16 
  -3  -2   9    9.05    1.09 
  -2  -2   9   23.14    2.78 
  -1  -2   9    3.15    0.45 
   0  -2   9    0.39    0.12 
   1  -2   9    0.27    0.12 
   2  -2   9    2.33    0.63 
   3  -2   9    6.76    1.63 
   4  -2   9    7.84    1.60 
   5  -2   9    9.69    2.03 
   6  -2   9    5.07    0.97 
 -13  -1   9    0.03    0.05 
 -12  -1   9    0.27    0.06 
 -11  -1   9    0.20    0.07 
 -10  -1   9    0.53    0.08 
  -9  -1   9    5.04    0.25 
  -8  -1   9    0.26    0.13 
  -7  -1   9    1.73    0.39 
  -6  -1   9    5.52    0.98 
  -5  -1   9    4.75    0.77 
  -4  -1   9   20.69    3.15 
  -3  -1   9   20.11    3.01 
  -2  -1   9    0.55    0.12 
  -1  -1   9   -0.11    0.07 
   0  -1   9    1.94    0.30 
   1  -1   9    3.65    0.48 
   2  -1   9    5.35    0.90 
   3  -1   9   -0.02    0.15 
   4  -1   9   -0.08    0.18 
   5  -1   9    0.95    0.37 
   6  -1   9    1.51    0.54 
 -13   0   9   -0.06    0.05 
 -12   0   9   -0.03    0.06 
 -11   0   9   -0.04    0.06 
 -10   0   9   -0.10    0.06 
  -9   0   9    0.07    0.06 
  -8   0   9   -0.13    0.13 
  -7   0   9    0.03    0.12 
  -6   0   9    0.15    0.13 
  -5   0   9    0.13    0.13 
  -4   0   9   -0.17    0.12 
  -3   0   9    0.11    0.12 
  -2   0   9    0.08    0.08 
  -1   0   9    0.08    0.08 
   0   0   9   -0.11    0.07 
   1   0   9   -0.04    0.07 
   2   0   9   -0.14    0.09 
   3   0   9   -0.09    0.10 
   4   0   9   -0.12    0.17 
   5   0   9   -0.03    0.18 
   6   0   9    0.51    0.26 
 -13   1   9    0.07    0.05 
 -12   1   9    0.29    0.07 
 -11   1   9    0.05    0.07 
 -10   1   9    0.62    0.08 
  -9   1   9    5.20    0.26 
  -8   1   9    0.30    0.16 
  -7   1   9    2.63    0.35 
  -6   1   9    6.91    0.81 
  -5   1   9    5.04    0.63 
  -4   1   9   19.97    3.16 
  -3   1   9   19.56    3.01 
  -2   1   9    0.29    0.14 
  -1   1   9   -0.11    0.07 
   0   1   9    2.28    0.31 
   1   1   9    3.85    0.48 
   2   1   9    5.47    1.27 
   3   1   9   -0.16    0.14 
   6   1   9    2.70    0.59 
 -13   2   9    0.15    0.05 
 -12   2   9    0.06    0.06 
 -11   2   9    0.00    0.07 
 -10   2   9    0.04    0.06 
  -9   2   9    0.09    0.07 
  -8   2   9    0.07    0.15 
  -7   2   9    3.90    0.51 
  -6   2   9   18.86    2.30 
  -5   2   9    0.70    0.17 
  -4   2   9    0.07    0.10 
  -3   2   9    7.90    1.34 
  -2   2   9   22.08    4.83 
  -1   2   9    3.42    0.45 
   0   2   9    0.46    0.12 
   1   2   9    0.18    0.17 
   2   2   9    2.93    0.66 
   3   2   9    6.77    1.64 
 -13   3   9    0.59    0.06 
 -12   3   9    0.01    0.06 
 -11   3   9   -0.02    0.07 
 -10   3   9    5.80    0.26 
  -9   3   9    0.39    0.08 
  -8   3   9    0.17    0.18 
  -7   3   9    0.44    0.17 
  -6   3   9    0.13    0.13 
  -5   3   9    0.25    0.16 
  -4   3   9    0.10    0.11 
  -3   3   9    0.59    0.15 
  -2   3   9    0.11    0.13 
  -1   3   9    0.25    0.11 
   0   3   9    6.64    0.97 
   1   3   9   -0.05    0.11 
   2   3   9    0.29    0.24 
   3   3   9    7.82    1.49 
   4   3   9    8.59    1.71 
   5   3   9    7.77    1.60 
 -13   4   9    0.85    0.07 
 -12   4   9    0.12    0.06 
 -11   4   9    2.51    0.16 
 -10   4   9    1.16    0.10 
  -9   4   9    0.01    0.07 
  -8   4   9    0.04    0.19 
  -7   4   9    0.22    0.17 
  -6   4   9    0.96    0.29 
  -5   4   9    5.71    0.98 
  -4   4   9    7.01    0.94 
  -3   4   9    0.05    0.10 
  -2   4   9   -0.03    0.09 
  -1   4   9    1.94    0.34 
   0   4   9    1.04    0.27 
   1   4   9    4.99    0.78 
   2   4   9   -0.15    0.16 
   3   4   9   11.14    2.31 
   4   4   9   16.08    3.46 
   5   4   9    5.82    1.09 
 -13   5   9    1.16    0.08 
 -12   5   9    0.13    0.06 
 -11   5   9    0.02    0.07 
 -10   5   9    1.89    0.12 
  -9   5   9    0.03    0.07 
  -8   5   9    4.15    0.75 
  -7   5   9    1.64    0.63 
  -6   5   9    6.27    1.52 
  -5   5   9    0.15    0.17 
  -4   5   9   11.38    1.93 
  -3   5   9    5.91    0.72 
  -2   5   9    4.94    0.69 
  -1   5   9    1.79    0.29 
   0   5   9   16.62    3.35 
   1   5   9    1.42    0.41 
   2   5   9    3.49    0.79 
   3   5   9    5.21    1.00 
   4   5   9    0.38    0.27 
   5   5   9    0.63    0.32 
   6   5   9    3.81    0.77 
 -12   6   9    0.24    0.06 
 -11   6   9    0.06    0.07 
 -10   6   9    0.31    0.07 
  -9   6   9    2.91    0.16 
  -8   6   9   -0.02    0.11 
  -7   6   9   17.26    4.20 
  -6   6   9    0.45    0.34 
  -5   6   9    0.72    0.24 
  -4   6   9    1.02    0.29 
  -3   6   9   -0.01    0.14 
  -2   6   9    0.10    0.13 
  -1   6   9    3.78    0.67 
   0   6   9    7.24    1.72 
   1   6   9    1.96    0.54 
   2   6   9    0.31    0.24 
   3   6   9   28.94    5.22 
   4   6   9   14.66    2.88 
   5   6   9    2.09    0.61 
   6   6   9   -0.03    0.23 
 -12   7   9    0.83    0.08 
 -11   7   9    0.01    0.06 
 -10   7   9    2.60    0.16 
  -9   7   9    0.03    0.07 
  -8   7   9    0.53    0.11 
  -7   7   9    4.14    1.45 
  -6   7   9   -0.26    0.20 
  -4   7   9    1.36    0.33 
  -3   7   9    0.07    0.16 
  -2   7   9    1.37    0.28 
  -1   7   9    4.64    0.82 
   0   7   9    0.40    0.16 
   1   7   9    0.20    0.21 
   2   7   9    1.45    0.41 
   3   7   9    2.21    0.62 
   4   7   9    0.13    0.24 
   5   7   9    0.78    0.35 
   6   7   9    0.03    0.25 
 -12   8   9    0.25    0.06 
 -11   8   9    0.03    0.06 
 -10   8   9    1.14    0.10 
  -9   8   9    4.88    0.27 
  -8   8   9    0.31    0.10 
  -7   8   9    2.22    0.78 
  -6   8   9   -0.18    0.19 
  -5   8   9    1.40    0.46 
  -4   8   9    0.88    0.42 
  -3   8   9    0.08    0.15 
  -2   8   9    1.11    0.34 
  -1   8   9    1.55    0.37 
   0   8   9   16.46    2.25 
   1   8   9   43.49    5.92 
   2   8   9    8.25    1.62 
   3   8   9    0.28    0.24 
   4   8   9    4.66    1.11 
   5   8   9    7.55    1.37 
 -12   9   9    1.19    0.09 
 -11   9   9    0.40    0.07 
 -10   9   9    0.50    0.09 
  -9   9   9    1.12    0.12 
  -8   9   9    4.92    0.32 
  -7   9   9    0.31    0.10 
  -6   9   9    2.82    0.99 
  -5   9   9    0.50    0.30 
  -4   9   9    0.69    0.35 
  -3   9   9    0.65    0.32 
  -2   9   9    4.41    0.78 
  -1   9   9    4.93    0.83 
   0   9   9   14.51    2.03 
   1   9   9    4.86    0.84 
   2   9   9   26.80    5.30 
   3   9   9    6.71    1.35 
   4   9   9    0.55    0.28 
   5   9   9    0.56    0.28 
 -12  10   9    2.58    0.18 
 -11  10   9    0.45    0.07 
 -10  10   9    0.12    0.07 
  -9  10   9   -0.03    0.07 
  -8  10   9    0.68    0.11 
  -7  10   9    2.29    0.21 
  -6  10   9    3.11    0.90 
  -5  10   9    1.72    0.74 
  -4  10   9    2.05    0.78 
  -3  10   9    0.17    0.27 
  -2  10   9    0.24    0.21 
  -1  10   9    1.64    0.36 
   0  10   9    1.09    0.29 
   1  10   9    0.54    0.20 
   2  10   9    1.54    0.35 
   3  10   9   36.58    6.44 
   4  10   9    0.27    0.24 
   5  10   9    3.07    0.61 
 -11  11   9    0.40    0.07 
 -10  11   9    0.51    0.09 
  -9  11   9    0.00    0.08 
  -8  11   9    0.65    0.12 
  -7  11   9    2.43    0.21 
  -6  11   9    0.24    0.11 
  -5  11   9    1.17    0.46 
  -4  11   9    2.39    0.79 
  -3  11   9    0.51    0.36 
  -2  11   9   -0.16    0.29 
  -1  11   9    4.47    0.75 
   0  11   9    0.76    0.24 
   1  11   9    0.20    0.17 
   2  11   9    0.47    0.20 
   3  11   9    0.37    0.27 
   4  11   9    1.52    0.41 
 -11  12   9    0.20    0.07 
 -10  12   9    7.27    0.50 
  -9  12   9    0.70    0.10 
  -8  12   9    1.75    0.17 
  -7  12   9   -0.01    0.09 
  -6  12   9    0.82    0.14 
  -5  12   9    0.19    0.12 
  -4  12   9    0.37    0.33 
  -3  12   9    0.44    0.31 
  -2  12   9    0.10    0.28 
  -1  12   9    1.56    0.48 
   0  12   9    7.45    1.11 
   1  12   9   23.41    2.65 
   2  12   9    0.35    0.18 
   3  12   9    3.60    0.44 
   4  12   9    0.36    0.20 
 -11  13   9   -0.03    0.05 
 -10  13   9    0.99    0.11 
  -9  13   9    0.28    0.08 
  -8  13   9    1.70    0.17 
  -7  13   9   -0.02    0.09 
  -6  13   9    0.18    0.12 
  -5  13   9    1.20    0.17 
  -4  13   9    1.79    0.27 
  -3  13   9    1.11    0.20 
  -2  13   9    1.42    0.23 
  -1  13   9    1.06    0.22 
   0  13   9    0.57    0.21 
   1  13   9    0.25    0.15 
   2  13   9    2.84    0.43 
   3  13   9    0.73    0.21 
   4  13   9    0.46    0.32 
   5  13   9    0.20    0.29 
 -10  14   9   -0.10    0.06 
  -9  14   9    0.01    0.07 
  -8  14   9    0.60    0.11 
  -7  14   9    0.93    0.13 
  -6  14   9    0.79    0.16 
  -5  14   9    0.20    0.11 
  -4  14   9   -0.06    0.13 
  -3  14   9   -0.20    0.13 
  -2  14   9    1.73    0.24 
  -1  14   9    0.29    0.16 
   0  14   9    1.36    0.26 
   1  14   9    0.00    0.17 
   2  14   9    0.34    0.17 
   3  14   9    0.38    0.33 
   4  14   9    1.68    0.54 
   5  14   9    0.60    0.29 
   6  14   9    0.31    0.22 
 -10  15   9   -0.11    0.06 
  -9  15   9    0.63    0.11 
  -8  15   9    0.05    0.08 
  -7  15   9    0.01    0.09 
  -6  15   9    1.67    0.19 
  -5  15   9    0.36    0.13 
  -4  15   9   -0.07    0.12 
  -3  15   9   -0.05    0.15 
  -2  15   9    0.79    0.19 
  -1  15   9    1.50    0.22 
   0  15   9    0.21    0.17 
   1  15   9    0.64    0.20 
   2  15   9    0.52    0.22 
   3  15   9    2.37    0.28 
   4  15   9    0.40    0.21 
   5  15   9   -0.02    0.17 
   6  15   9    0.00    0.16 
  -9  16   9    0.02    0.07 
  -8  16   9    0.55    0.11 
  -7  16   9    0.10    0.10 
  -6  16   9   -0.09    0.10 
  -5  16   9    2.07    0.26 
  -4  16   9    0.11    0.13 
  -3  16   9    1.40    0.23 
  -2  16   9    0.01    0.14 
  -1  16   9    0.49    0.16 
   0  16   9    0.52    0.17 
   1  16   9    0.03    0.17 
   2  16   9    1.90    0.32 
   3  16   9    0.38    0.17 
   4  16   9    1.61    0.30 
   5  16   9    0.34    0.17 
  -8  17   9    0.00    0.08 
  -7  17   9   -0.07    0.08 
  -6  17   9   -0.07    0.11 
  -5  17   9    0.54    0.17 
  -4  17   9    0.01    0.13 
  -3  17   9    0.39    0.17 
  -2  17   9    0.27    0.17 
  -1  17   9   -0.13    0.14 
   0  17   9    0.20    0.15 
   1  17   9    0.07    0.13 
   2  17   9    1.82    0.27 
   3  17   9   -0.14    0.12 
   4  17   9   -0.01    0.09 
  -8  18   9    0.14    0.09 
  -7  18   9    0.07    0.10 
  -6  18   9    0.45    0.14 
  -5  18   9    0.23    0.13 
  -4  18   9    0.09    0.13 
  -3  18   9    0.08    0.13 
  -2  18   9    0.68    0.18 
  -1  18   9    0.02    0.14 
   0  18   9   -0.05    0.12 
   1  18   9    1.44    0.23 
   2  18   9    0.02    0.11 
   3  18   9    0.59    0.14 
   4  18   9    0.14    0.07 
  -7  19   9    0.09    0.09 
  -6  19   9   -0.04    0.08 
  -5  19   9    1.55    0.20 
  -4  19   9    0.24    0.12 
  -3  19   9    0.41    0.14 
  -2  19   9    0.29    0.14 
  -1  19   9    0.18    0.13 
   0  19   9    0.37    0.13 
   1  19   9   -0.03    0.09 
   2  19   9    0.14    0.10 
   3  19   9    0.08    0.08 
  -6  20   9   -0.03    0.18 
  -5  20   9    2.65    0.35 
  -4  20   9    0.79    0.15 
  -3  20   9    0.23    0.10 
  -2  20   9    0.09    0.12 
  -1  20   9    0.31    0.12 
   0  20   9    0.16    0.10 
   1  20   9    0.03    0.09 
   2  20   9    0.29    0.12 
  -4  21   9   -0.13    0.16 
  -3  21   9    0.16    0.09 
  -2  21   9    0.10    0.09 
  -1  21   9    0.27    0.12 
   0  21   9    0.24    0.11 
  -4 -20  10    0.09    0.10 
  -3 -20  10   -0.04    0.09 
  -2 -20  10    0.09    0.09 
  -1 -20  10   -0.07    0.08 
  -6 -19  10    0.04    0.06 
  -5 -19  10    0.44    0.12 
  -4 -19  10    0.12    0.10 
  -3 -19  10    0.12    0.10 
  -2 -19  10    0.34    0.12 
  -1 -19  10    0.02    0.09 
   0 -19  10    0.17    0.10 
   1 -19  10    0.99    0.15 
  -7 -18  10    0.56    0.10 
  -6 -18  10    0.09    0.08 
  -5 -18  10   -0.01    0.09 
  -4 -18  10    0.11    0.12 
  -3 -18  10    1.09    0.18 
  -2 -18  10    0.08    0.10 
  -1 -18  10    0.04    0.11 
   0 -18  10   -0.10    0.09 
   1 -18  10   -0.01    0.10 
   2 -18  10    0.00    0.08 
   3 -18  10    4.42    0.59 
  -8 -17  10   -0.06    0.05 
  -7 -17  10    0.58    0.11 
  -6 -17  10    0.66    0.13 
  -5 -17  10    0.06    0.12 
  -4 -17  10    1.36    0.19 
  -3 -17  10    0.33    0.14 
  -2 -17  10    0.49    0.14 
  -1 -17  10    0.00    0.13 
   0 -17  10    0.69    0.14 
   1 -17  10    0.75    0.14 
   2 -17  10    0.11    0.09 
   3 -17  10    0.58    0.11 
  -8 -16  10    0.38    0.09 
  -7 -16  10    0.06    0.09 
  -6 -16  10    0.99    0.15 
  -5 -16  10    4.03    0.47 
  -4 -16  10    0.52    0.15 
  -3 -16  10    0.27    0.16 
  -2 -16  10    0.13    0.13 
  -1 -16  10    0.44    0.15 
   0 -16  10    0.50    0.14 
   1 -16  10    0.98    0.16 
   2 -16  10    1.07    0.21 
   3 -16  10    1.16    0.21 
   4 -16  10   -0.07    0.09 
  -9 -15  10   -0.09    0.07 
  -8 -15  10    3.03    0.24 
  -7 -15  10    0.58    0.12 
  -6 -15  10   -0.05    0.10 
  -5 -15  10    0.11    0.12 
  -4 -15  10    4.01    0.42 
  -3 -15  10    0.07    0.12 
  -2 -15  10    2.98    0.32 
  -1 -15  10    0.45    0.14 
   0 -15  10    1.27    0.22 
   1 -15  10    0.19    0.14 
   2 -15  10    0.15    0.17 
   3 -15  10    0.77    0.19 
   4 -15  10    0.56    0.15 
   5 -15  10    0.09    0.13 
 -10 -14  10    0.32    0.07 
  -9 -14  10    0.03    0.06 
  -8 -14  10    0.28    0.08 
  -7 -14  10    1.00    0.13 
  -6 -14  10    0.57    0.13 
  -5 -14  10    0.85    0.15 
  -4 -14  10    1.14    0.20 
  -3 -14  10    0.05    0.13 
  -2 -14  10    1.58    0.25 
  -1 -14  10    3.71    0.37 
   0 -14  10    0.07    0.13 
   1 -14  10    0.33    0.18 
   2 -14  10    0.09    0.16 
   3 -14  10    0.70    0.24 
   4 -14  10    1.69    0.38 
   5 -14  10   -0.20    0.18 
 -10 -13  10   -0.02    0.05 
  -9 -13  10    0.04    0.07 
  -8 -13  10    0.01    0.08 
  -7 -13  10    0.34    0.10 
  -6 -13  10    4.05    0.36 
  -5 -13  10    1.12    0.17 
  -4 -13  10    0.97    0.15 
  -3 -13  10    1.62    0.21 
  -2 -13  10    1.83    0.26 
  -1 -13  10    0.04    0.13 
   0 -13  10   -0.05    0.13 
   1 -13  10   -0.03    0.13 
   2 -13  10    1.27    0.26 
   3 -13  10    3.12    1.02 
   4 -13  10    6.94    1.27 
   5 -13  10    0.23    0.24 
   6 -13  10    0.42    0.20 
 -11 -12  10    0.13    0.05 
 -10 -12  10    1.35    0.13 
  -9 -12  10    0.37    0.08 
  -8 -12  10    0.41    0.10 
  -7 -12  10    0.20    0.09 
  -6 -12  10   -0.02    0.09 
  -5 -12  10    0.66    0.13 
  -4 -12  10    0.14    0.13 
  -3 -12  10    0.10    0.13 
  -2 -12  10    0.30    0.14 
  -1 -12  10    0.90    0.19 
   0 -12  10    4.41    0.55 
   1 -12  10    0.50    0.16 
   2 -12  10    0.53    0.19 
   3 -12  10   -0.32    0.26 
   4 -12  10    0.49    0.34 
   5 -12  10   -0.15    0.22 
   6 -12  10    0.25    0.23 
 -11 -11  10    0.12    0.05 
 -10 -11  10    2.79    0.20 
  -9 -11  10    0.06    0.07 
  -8 -11  10    0.69    0.11 
  -7 -11  10    1.12    0.13 
  -6 -11  10    0.61    0.12 
  -5 -11  10    8.80    0.69 
  -4 -11  10    0.26    0.13 
  -3 -11  10    0.21    0.16 
  -2 -11  10    0.49    0.34 
  -1 -11  10   16.82    1.83 
   0 -11  10    4.84    0.68 
   1 -11  10   -0.10    0.13 
   2 -11  10    1.20    0.35 
   3 -11  10    2.37    0.54 
 -11 -10  10   -0.11    0.05 
 -10 -10  10    0.04    0.06 
  -9 -10  10    0.93    0.11 
  -8 -10  10    1.04    0.12 
  -7 -10  10   16.59    1.12 
  -6 -10  10    1.29    0.14 
  -5 -10  10    7.65    0.62 
  -4 -10  10    7.19    1.33 
  -3 -10  10    9.79    2.17 
  -2 -10  10   29.28    6.30 
  -1 -10  10   24.22    4.76 
   0 -10  10    2.53    0.71 
   1 -10  10    0.22    0.15 
   2 -10  10    0.12    0.14 
   3 -10  10    8.94    1.33 
   4 -10  10    1.32    0.37 
 -12  -9  10    1.21    0.11 
 -11  -9  10    0.03    0.06 
 -10  -9  10    0.27    0.07 
  -9  -9  10   -0.02    0.08 
  -8  -9  10    1.55    0.15 
  -7  -9  10    0.24    0.10 
  -6  -9  10   10.34    0.69 
  -5  -9  10    1.58    0.40 
  -4  -9  10    8.61    1.95 
  -3  -9  10    3.19    0.73 
  -2  -9  10    4.32    1.03 
  -1  -9  10    0.13    0.20 
   0  -9  10    0.32    0.21 
   1  -9  10    2.65    0.48 
   2  -9  10    0.03    0.16 
   3  -9  10    3.26    0.59 
   4  -9  10    1.11    0.38 
 -12  -8  10    0.59    0.07 
 -11  -8  10    0.15    0.06 
 -10  -8  10    0.31    0.08 
  -9  -8  10    0.16    0.08 
  -8  -8  10    1.14    0.12 
  -7  -8  10    0.66    0.11 
  -6  -8  10    0.02    0.18 
  -5  -8  10    0.15    0.17 
  -4  -8  10   -0.22    0.13 
  -3  -8  10    1.39    0.49 
  -2  -8  10    0.23    0.22 
  -1  -8  10    7.78    1.47 
   0  -8  10   23.26    4.84 
   1  -8  10   22.52    3.28 
   2  -8  10    8.56    1.14 
   3  -8  10    1.69    0.32 
   4  -8  10    1.06    0.29 
 -12  -7  10    0.47    0.06 
 -11  -7  10    0.03    0.06 
 -10  -7  10   -0.05    0.06 
  -9  -7  10    3.29    0.19 
  -8  -7  10    0.13    0.08 
  -7  -7  10    2.48    0.20 
  -6  -7  10    1.64    0.55 
  -5  -7  10    6.66    1.12 
  -4  -7  10    2.61    0.50 
  -3  -7  10    1.82    0.38 
  -2  -7  10    1.46    0.44 
  -1  -7  10    9.36    1.92 
   0  -7  10    9.60    2.07 
   1  -7  10    1.87    0.35 
   2  -7  10    0.63    0.21 
   3  -7  10    6.29    0.82 
   4  -7  10    5.53    1.00 
   5  -7  10    9.75    1.97 
 -12  -6  10    0.63    0.07 
 -11  -6  10    0.06    0.06 
 -10  -6  10    0.00    0.07 
  -9  -6  10    0.21    0.08 
  -8  -6  10    1.66    0.14 
  -7  -6  10    4.66    1.10 
  -6  -6  10    2.07    0.62 
  -5  -6  10    2.27    0.42 
  -4  -6  10    0.14    0.15 
  -3  -6  10    0.05    0.13 
  -2  -6  10   11.16    1.78 
  -1  -6  10   12.35    2.71 
   0  -6  10    0.63    0.28 
   1  -6  10   -0.10    0.16 
   2  -6  10    1.76    0.45 
   3  -6  10    3.30    0.72 
   4  -6  10    0.06    0.24 
   5  -6  10    1.39    0.32 
 -12  -5  10    2.26    0.14 
 -11  -5  10    1.18    0.10 
 -10  -5  10    0.03    0.07 
  -9  -5  10    0.26    0.08 
  -8  -5  10    0.99    0.12 
  -7  -5  10    0.01    0.24 
  -6  -5  10    8.06    1.79 
  -5  -5  10   28.54    6.55 
  -4  -5  10    0.10    0.16 
  -3  -5  10    2.84    0.45 
  -2  -5  10    0.29    0.17 
  -1  -5  10    2.84    0.78 
   0  -5  10    2.61    0.54 
   1  -5  10    2.11    0.62 
   2  -5  10    0.82    0.32 
   3  -5  10    1.17    0.36 
   4  -5  10    6.56    1.51 
   5  -5  10    1.29    0.47 
 -12  -4  10    0.77    0.07 
 -11  -4  10    1.21    0.10 
 -10  -4  10    0.71    0.08 
  -9  -4  10   -0.05    0.07 
  -8  -4  10    0.06    0.08 
  -7  -4  10    0.02    0.23 
  -6  -4  10   -0.06    0.21 
  -5  -4  10    1.85    0.54 
  -4  -4  10   25.10    3.76 
  -3  -4  10    0.90    0.24 
  -2  -4  10    2.67    0.49 
  -1  -4  10    0.18    0.15 
   0  -4  10    8.20    1.80 
   1  -4  10    4.95    1.08 
   2  -4  10   -0.24    0.13 
   3  -4  10    0.31    0.24 
   4  -4  10    2.09    0.50 
 -13  -3  10    0.20    0.05 
 -12  -3  10    0.35    0.06 
 -11  -3  10    0.17    0.06 
 -10  -3  10    0.69    0.08 
  -9  -3  10    0.37    0.08 
  -8  -3  10    0.27    0.09 
  -7  -3  10    1.51    0.46 
  -6  -3  10    3.44    0.90 
  -5  -3  10    0.93    0.36 
  -4  -3  10    0.84    0.30 
  -3  -3  10    1.45    0.31 
  -2  -3  10    1.66    0.33 
  -1  -3  10   -0.22    0.10 
   0  -3  10    0.22    0.13 
   1  -3  10    0.09    0.16 
   2  -3  10    0.63    0.33 
   3  -3  10   -0.29    0.15 
   4  -3  10    0.23    0.29 
   5  -3  10    1.78    0.43 
 -13  -2  10   -0.01    0.04 
 -12  -2  10    0.09    0.05 
 -11  -2  10    0.08    0.06 
 -10  -2  10    0.04    0.06 
  -9  -2  10   -0.06    0.07 
  -8  -2  10    0.11    0.16 
  -7  -2  10    0.87    0.24 
  -6  -2  10    0.91    0.39 
  -5  -2  10   -0.02    0.19 
  -4  -2  10    0.25    0.24 
  -3  -2  10    0.93    0.18 
  -2  -2  10    0.02    0.12 
  -1  -2  10    0.18    0.14 
   0  -2  10    0.28    0.14 
   1  -2  10   -0.01    0.13 
   2  -2  10    0.56    0.27 
   3  -2  10    0.21    0.21 
   4  -2  10    0.59    0.27 
   5  -2  10   -0.04    0.23 
   6  -2  10    0.55    0.30 
 -13  -1  10    0.60    0.06 
 -12  -1  10    0.53    0.07 
 -11  -1  10    0.49    0.07 
 -10  -1  10    0.92    0.09 
  -9  -1  10    0.10    0.07 
  -8  -1  10   -0.09    0.18 
  -7  -1  10    2.70    0.54 
  -6  -1  10    3.71    1.06 
  -5  -1  10    7.79    1.78 
  -4  -1  10    2.08    0.57 
  -3  -1  10    2.70    0.53 
  -2  -1  10    0.95    0.23 
  -1  -1  10    0.18    0.13 
   0  -1  10    0.12    0.13 
   1  -1  10    1.36    0.26 
   2  -1  10    0.58    0.18 
   3  -1  10    6.22    1.39 
   4  -1  10    9.64    2.10 
   5  -1  10    3.19    0.62 
   6  -1  10    0.99    0.34 
 -13   0  10    0.78    0.07 
 -12   0  10    0.43    0.06 
 -11   0  10   -0.02    0.06 
 -10   0  10    2.46    0.15 
  -9   0  10    4.97    0.27 
  -8   0  10    0.57    0.23 
  -7   0  10    0.14    0.15 
  -6   0  10    4.68    0.88 
  -5   0  10   11.93    2.91 
  -4   0  10  106.19   24.63 
  -3   0  10    4.81    1.19 
  -2   0  10    1.18    0.26 
  -1   0  10    0.10    0.12 
   0   0  10    0.20    0.14 
   1   0  10   10.38    1.77 
   2   0  10    3.69    0.60 
   3   0  10    0.01    0.16 
   4   0  10    0.17    0.23 
   5   0  10   20.29    3.98 
   6   0  10    0.79    0.34 
 -13   1  10    0.64    0.06 
 -12   1  10    0.53    0.07 
 -11   1  10    0.61    0.08 
 -10   1  10    1.05    0.10 
  -9   1  10    0.08    0.08 
  -8   1  10    0.19    0.19 
  -7   1  10    2.98    0.56 
  -6   1  10    4.21    0.75 
  -5   1  10    6.59    1.25 
  -4   1  10    1.64    0.54 
  -3   1  10    4.27    0.80 
  -2   1  10    0.58    0.31 
  -1   1  10    0.17    0.14 
   0   1  10    0.01    0.12 
   1   1  10    1.09    0.25 
   2   1  10    0.47    0.17 
   3   1  10    6.11    0.98 
   4   1  10   11.39    2.11 
   5   1  10    1.09    0.52 
   6   1  10    1.16    0.35 
 -13   2  10    0.02    0.04 
 -12   2  10    0.20    0.06 
 -11   2  10    0.08    0.06 
 -10   2  10   -0.01    0.07 
  -9   2  10    0.03    0.08 
  -8   2  10    0.08    0.14 
  -7   2  10    0.29    0.22 
  -6   2  10    1.05    0.28 
  -5   2  10    0.01    0.15 
  -4   2  10    0.46    0.27 
  -3   2  10    0.90    0.36 
  -2   2  10    0.27    0.20 
  -1   2  10   -0.03    0.12 
   0   2  10    0.40    0.16 
   1   2  10   -0.04    0.13 
   2   2  10    0.66    0.18 
   3   2  10    0.09    0.14 
   4   2  10    0.25    0.17 
   5   2  10    0.59    0.23 
   6   2  10    0.03    0.23 
 -13   3  10    0.13    0.05 
 -12   3  10    0.42    0.06 
 -11   3  10    0.10    0.07 
 -10   3  10    0.68    0.09 
  -9   3  10    0.37    0.09 
  -8   3  10    0.08    0.09 
  -7   3  10    0.57    0.30 
  -6   3  10    3.29    0.64 
  -5   3  10    0.76    0.24 
  -4   3  10    0.76    0.21 
  -3   3  10    1.09    0.43 
  -2   3  10    1.90    0.49 
  -1   3  10   -0.03    0.18 
   0   3  10    0.18    0.13 
   1   3  10    0.02    0.13 
   2   3  10    1.23    0.38 
   3   3  10    0.12    0.20 
   4   3  10    1.20    0.37 
   5   3  10    1.47    0.38 
 -12   4  10    0.79    0.08 
 -11   4  10    1.22    0.10 
 -10   4  10    0.73    0.09 
  -9   4  10    0.20    0.08 
  -8   4  10    0.18    0.09 
  -7   4  10    0.24    0.22 
  -6   4  10    0.07    0.18 
  -5   4  10    1.56    0.38 
  -4   4  10   22.09    3.76 
  -3   4  10    0.96    0.24 
  -2   4  10    2.88    0.71 
  -1   4  10   -0.19    0.18 
   0   4  10    8.00    1.27 
   1   4  10    4.91    1.11 
   2   4  10    0.28    0.22 
   3   4  10    0.82    0.32 
   4   4  10    2.13    0.51 
   5   4  10   12.00    2.54 
 -12   5  10    2.31    0.14 
 -11   5  10    1.05    0.10 
 -10   5  10    0.00    0.07 
  -9   5  10    0.09    0.08 
  -8   5  10    0.96    0.13 
  -7   5  10    0.15    0.28 
  -6   5  10    6.08    1.25 
  -5   5  10   27.92    4.64 
  -4   5  10    0.34    0.18 
  -3   5  10    2.00    0.45 
  -2   5  10    0.07    0.21 
  -1   5  10    3.29    0.81 
   0   5  10    1.28    0.47 
   1   5  10    2.14    0.63 
   2   5  10    1.47    0.39 
   3   5  10    1.39    0.42 
   4   5  10    7.31    1.54 
   5   5  10    1.70    0.50 
 -12   6  10    0.59    0.07 
 -11   6  10    0.02    0.06 
 -10   6  10   -0.03    0.07 
  -9   6  10    0.23    0.09 
  -8   6  10    1.79    0.16 
  -7   6  10    3.48    1.06 
  -6   6  10    2.34    0.65 
  -5   6  10    1.80    0.42 
  -4   6  10    0.13    0.17 
  -3   6  10   -0.08    0.15 
  -2   6  10   12.54    1.80 
  -1   6  10   15.20    2.74 
   0   6  10    0.77    0.30 
   1   6  10    0.41    0.26 
   2   6  10    0.74    0.41 
   3   6  10    2.32    0.69 
   4   6  10    0.02    0.27 
   5   6  10    2.11    0.50 
 -12   7  10    0.43    0.06 
 -11   7  10   -0.08    0.06 
 -10   7  10    0.04    0.07 
  -9   7  10    3.25    0.20 
  -8   7  10    0.33    0.10 
  -7   7  10    2.24    0.21 
  -6   7  10    1.49    0.55 
  -5   7  10    6.22    1.62 
  -4   7  10    2.62    0.52 
  -3   7  10    2.15    0.41 
  -2   7  10    1.68    0.34 
  -1   7  10    9.23    1.37 
   0   7  10   10.04    2.09 
   1   7  10    1.75    0.51 
   2   7  10    0.32    0.28 
   3   7  10    5.98    1.16 
   4   7  10    6.32    1.42 
   5   7  10    9.89    1.96 
 -12   8  10    0.70    0.08 
 -11   8  10    0.14    0.07 
 -10   8  10    0.42    0.08 
  -9   8  10    0.22    0.08 
  -8   8  10    1.00    0.13 
  -7   8  10    0.53    0.12 
  -6   8  10   -0.26    0.26 
  -5   8  10    0.21    0.31 
  -4   8  10   -0.02    0.27 
  -3   8  10    1.92    0.39 
  -2   8  10    0.07    0.17 
  -1   8  10    6.35    1.06 
   0   8  10   24.80    4.86 
   1   8  10   22.43    4.65 
   2   8  10    7.30    1.62 
   3   8  10    0.98    0.42 
   4   8  10    1.34    0.43 
 -12   9  10    1.24    0.16 
 -11   9  10    0.00    0.07 
 -10   9  10    0.20    0.07 
  -9   9  10    0.10    0.08 
  -8   9  10    1.84    0.16 
  -7   9  10    0.21    0.10 
  -6   9  10   10.44    0.74 
  -5   9  10    2.54    0.65 
  -4   9  10    7.83    2.00 
  -3   9  10    2.59    0.51 
  -2   9  10    3.73    0.74 
  -1   9  10    0.12    0.19 
   0   9  10    0.02    0.16 
   1   9  10    3.28    0.71 
   2   9  10    0.03    0.24 
   3   9  10    3.77    0.86 
   4   9  10    0.97    0.37 
 -11  10  10   -0.07    0.07 
 -10  10  10    0.05    0.07 
  -9  10  10    0.86    0.12 
  -8  10  10    1.65    0.14 
  -7  10  10   16.81    1.04 
  -6  10  10    1.50    0.19 
  -5  10  10    7.61    0.60 
  -4  10  10    3.37    1.25 
  -3  10  10    9.14    2.22 
  -2  10  10   29.28    4.46 
  -1  10  10   22.67    3.38 
   0  10  10    3.37    0.54 
   1  10  10   -0.12    0.17 
   2  10  10   -0.04    0.20 
   3  10  10    9.15    1.89 
   4  10  10    0.19    0.26 
 -11  11  10    0.10    0.07 
 -10  11  10    2.34    0.20 
  -9  11  10    0.03    0.08 
  -8  11  10    0.52    0.12 
  -7  11  10    0.89    0.14 
  -6  11  10    0.60    0.15 
  -5  11  10    9.26    0.75 
  -4  11  10    0.29    0.15 
  -3  11  10    0.34    0.22 
  -2  11  10    0.56    0.31 
  -1  11  10   16.91    1.65 
   0  11  10    5.68    0.55 
   1  11  10   -0.15    0.14 
   2  11  10    2.79    0.37 
   3  11  10    2.81    0.77 
   5  11  10    1.27    0.44 
 -11  12  10    0.09    0.06 
 -10  12  10    1.26    0.13 
  -9  12  10    0.48    0.09 
  -8  12  10    0.50    0.11 
  -7  12  10    0.46    0.11 
  -6  12  10   -0.08    0.12 
  -5  12  10    0.52    0.15 
  -4  12  10    0.02    0.14 
  -3  12  10    0.25    0.18 
  -2  12  10   -0.12    0.15 
  -1  12  10    1.24    0.23 
   0  12  10    4.98    0.51 
   1  12  10    1.04    0.21 
   2  12  10    0.48    0.20 
   3  12  10    0.04    0.24 
   4  12  10    0.52    0.39 
   5  12  10    0.34    0.29 
 -10  13  10    0.02    0.06 
  -9  13  10    0.05    0.08 
  -8  13  10    0.07    0.09 
  -7  13  10    0.43    0.11 
  -6  13  10    3.24    0.39 
  -5  13  10    1.21    0.17 
  -4  13  10    1.05    0.20 
  -3  13  10    1.56    0.23 
  -2  13  10    2.43    0.29 
  -1  13  10   -0.10    0.15 
   0  13  10   -0.31    0.15 
   1  13  10   -0.09    0.15 
   2  13  10    1.81    0.26 
   3  13  10    5.79    0.79 
   4  13  10    6.34    1.33 
   5  13  10    0.12    0.25 
   6  13  10    0.42    0.21 
 -10  14  10    0.21    0.07 
  -9  14  10    0.03    0.07 
  -8  14  10    0.20    0.10 
  -7  14  10    0.94    0.14 
  -6  14  10    0.65    0.15 
  -5  14  10    0.86    0.19 
  -4  14  10    0.94    0.21 
  -3  14  10    0.12    0.15 
  -2  14  10    1.39    0.26 
  -1  14  10    3.35    0.38 
   0  14  10   -0.18    0.15 
   1  14  10    0.41    0.16 
   2  14  10   -0.10    0.22 
   3  14  10    0.40    0.23 
   4  14  10    2.53    0.43 
   5  14  10   -0.11    0.13 
  -9  15  10    0.02    0.07 
  -8  15  10    2.67    0.24 
  -7  15  10    0.44    0.12 
  -6  15  10   -0.17    0.11 
  -5  15  10    0.01    0.13 
  -4  15  10    2.96    0.43 
  -3  15  10    0.05    0.15 
  -2  15  10    2.51    0.31 
  -1  15  10    0.37    0.15 
   0  15  10    0.65    0.19 
   1  15  10    0.25    0.16 
   2  15  10    0.25    0.18 
   3  15  10    0.56    0.19 
   4  15  10    0.33    0.15 
   5  15  10    0.21    0.13 
  -8  16  10    0.47    0.11 
  -7  16  10    0.10    0.10 
  -6  16  10    0.94    0.16 
  -5  16  10    2.91    0.41 
  -4  16  10    0.42    0.18 
  -3  16  10    0.38    0.18 
  -2  16  10    0.14    0.15 
  -1  16  10    0.44    0.20 
   0  16  10    0.51    0.14 
   1  16  10    0.65    0.16 
   2  16  10    0.12    0.15 
   3  16  10    0.86    0.21 
   4  16  10   -0.03    0.10 
  -8  17  10   -0.07    0.06 
  -7  17  10    0.75    0.14 
  -6  17  10    0.40    0.13 
  -5  17  10    0.03    0.11 
  -4  17  10    1.07    0.22 
  -3  17  10    0.17    0.15 
  -2  17  10    0.71    0.16 
  -1  17  10    0.02    0.12 
   0  17  10    0.33    0.15 
   1  17  10    0.49    0.12 
   2  17  10   -0.08    0.08 
   3  17  10    0.47    0.12 
  -7  18  10    0.55    0.10 
  -6  18  10    0.19    0.09 
  -5  18  10    0.01    0.10 
  -4  18  10    0.13    0.12 
  -3  18  10    0.67    0.18 
  -2  18  10   -0.07    0.12 
  -1  18  10   -0.13    0.10 
   0  18  10    0.14    0.12 
   1  18  10    0.17    0.11 
   2  18  10    0.01    0.08 
  -6  19  10   -0.05    0.07 
  -5  19  10    0.54    0.11 
  -4  19  10   -0.05    0.11 
  -3  19  10    0.02    0.10 
  -2  19  10    0.18    0.11 
  -1  19  10   -0.05    0.10 
   0  19  10    0.04    0.10 
   1  19  10    0.85    0.16 
  -4  20  10   -0.03    0.09 
  -3  20  10   -0.02    0.10 
  -2  20  10    0.01    0.08 
  -1  20  10   -0.05    0.08 
   0  20  10    0.09    0.17 
  -4 -19  11    0.09    0.06 
  -3 -19  11    0.13    0.09 
  -2 -19  11    0.04    0.10 
  -1 -19  11    0.33    0.10 
  -6 -18  11   -0.01    0.04 
  -5 -18  11    1.53    0.17 
  -4 -18  11   -0.05    0.08 
  -3 -18  11    0.14    0.10 
  -2 -18  11    0.29    0.11 
  -1 -18  11    0.04    0.09 
   0 -18  11    0.04    0.09 
   1 -18  11    0.06    0.08 
  -7 -17  11    0.10    0.06 
  -6 -17  11    2.18    0.19 
  -5 -17  11    0.93    0.16 
  -4 -17  11    0.18    0.10 
  -3 -17  11    0.46    0.13 
  -2 -17  11    0.13    0.12 
  -1 -17  11    0.36    0.12 
   0 -17  11    0.07    0.10 
   1 -17  11   -0.10    0.08 
   2 -17  11    1.64    0.19 
  -8 -16  11    0.15    0.07 
  -7 -16  11    1.01    0.15 
  -6 -16  11    0.47    0.11 
  -5 -16  11    0.11    0.12 
  -4 -16  11    3.62    0.40 
  -3 -16  11    0.09    0.13 
  -2 -16  11    0.46    0.15 
  -1 -16  11    0.03    0.11 
   0 -16  11    1.93    0.25 
   1 -16  11    4.01    0.40 
   2 -16  11    0.12    0.10 
   3 -16  11    0.39    0.10 
  -8 -15  11    0.16    0.08 
  -7 -15  11    0.20    0.11 
  -6 -15  11    0.41    0.13 
  -5 -15  11    3.26    0.33 
  -4 -15  11    1.28    0.20 
  -3 -15  11   -0.12    0.12 
  -2 -15  11    0.58    0.17 
  -1 -15  11    0.17    0.13 
   0 -15  11    1.10    0.21 
   1 -15  11   -0.02    0.12 
   2 -15  11    0.15    0.11 
   3 -15  11    0.20    0.12 
   4 -15  11    0.53    0.11 
  -9 -14  11    0.01    0.06 
  -8 -14  11    0.74    0.13 
  -7 -14  11   -0.06    0.09 
  -6 -14  11    1.62    0.27 
  -5 -14  11    1.06    0.18 
  -4 -14  11    0.19    0.15 
  -3 -14  11    0.52    0.15 
  -2 -14  11    1.26    0.20 
  -1 -14  11    0.25    0.14 
   0 -14  11    0.18    0.13 
   1 -14  11    0.14    0.15 
   2 -14  11    0.06    0.14 
   3 -14  11    1.08    0.25 
   4 -14  11    0.02    0.11 
 -10 -13  11   -0.04    0.06 
  -9 -13  11    0.00    0.06 
  -8 -13  11   -0.05    0.08 
  -7 -13  11   -0.07    0.09 
  -6 -13  11    1.84    0.24 
  -5 -13  11    1.67    0.25 
  -4 -13  11    1.36    0.20 
  -3 -13  11    7.42    0.82 
  -2 -13  11    1.44    0.19 
  -1 -13  11    0.08    0.12 
   0 -13  11    0.15    0.13 
   1 -13  11    0.79    0.19 
   2 -13  11    0.32    0.17 
   3 -13  11    0.23    0.14 
   4 -13  11    0.14    0.16 
   5 -13  11    0.02    0.18 
 -10 -12  11    0.18    0.07 
  -9 -12  11    0.04    0.07 
  -8 -12  11   -0.03    0.08 
  -7 -12  11    0.08    0.10 
  -6 -12  11    0.63    0.12 
  -5 -12  11    0.48    0.14 
  -4 -12  11    0.07    0.12 
  -3 -12  11    7.92    0.81 
  -2 -12  11    0.03    0.12 
  -1 -12  11   -0.10    0.12 
   0 -12  11    2.18    0.30 
   1 -12  11    0.46    0.16 
   2 -12  11   -0.05    0.19 
   3 -12  11    0.04    0.18 
   4 -12  11    0.13    0.24 
   5 -12  11    0.13    0.14 
 -10 -11  11    0.57    0.08 
  -9 -11  11    0.32    0.08 
  -8 -11  11    0.33    0.09 
  -7 -11  11    3.63    0.30 
  -6 -11  11   -0.01    0.09 
  -5 -11  11    1.66    0.23 
  -4 -11  11    0.01    0.12 
  -3 -11  11    1.00    0.18 
  -2 -11  11    0.23    0.13 
  -1 -11  11   -0.01    0.13 
   0 -11  11    0.11    0.14 
   1 -11  11    0.08    0.16 
   2 -11  11    0.27    0.17 
   3 -11  11    1.74    0.57 
   4 -11  11    0.01    0.22 
   5 -11  11    0.45    0.25 
   6 -11  11   -0.09    0.17 
 -11 -10  11    0.32    0.06 
 -10 -10  11    0.04    0.07 
  -9 -10  11   -0.01    0.07 
  -8 -10  11    0.54    0.10 
  -7 -10  11    1.12    0.14 
  -6 -10  11    1.31    0.18 
  -5 -10  11    1.77    0.21 
  -4 -10  11    1.27    0.20 
  -3 -10  11    5.65    0.54 
  -2 -10  11   22.39    1.97 
  -1 -10  11   11.52    1.40 
   0 -10  11    0.81    0.19 
   1 -10  11    0.13    0.17 
   2 -10  11    0.87    0.22 
   3 -10  11    0.54    0.32 
   4 -10  11    0.42    0.34 
   6 -10  11    0.02    0.17 
 -11  -9  11    0.04    0.06 
 -10  -9  11   -0.07    0.06 
  -9  -9  11    0.03    0.07 
  -8  -9  11    0.29    0.09 
  -7  -9  11    1.70    0.17 
  -6  -9  11    3.73    0.31 
  -5  -9  11    9.76    0.77 
  -4  -9  11   -0.03    0.12 
  -3  -9  11   17.22    1.63 
  -2  -9  11   15.65    1.78 
  -1  -9  11    6.91    0.85 
   0  -9  11    8.78    1.07 
   1  -9  11   -0.11    0.14 
   2  -9  11    0.42    0.17 
   3  -9  11    0.47    0.18 
   5  -9  11    0.57    0.28 
 -11  -8  11    0.01    0.06 
 -10  -8  11    0.54    0.09 
  -9  -8  11    0.06    0.07 
  -8  -8  11    0.95    0.12 
  -7  -8  11    1.03    0.13 
  -6  -8  11    0.03    0.10 
  -5  -8  11    0.34    0.11 
  -4  -8  11    4.11    0.66 
  -3  -8  11    5.34    0.93 
  -2  -8  11    0.68    0.32 
  -1  -8  11   -0.11    0.20 
   0  -8  11    3.51    0.54 
   1  -8  11    3.01    0.48 
   2  -8  11   -0.03    0.16 
   3  -8  11    0.29    0.21 
 -12  -7  11    0.03    0.05 
 -11  -7  11    0.03    0.06 
 -10  -7  11    0.22    0.07 
  -9  -7  11    1.66    0.14 
  -8  -7  11    0.90    0.11 
  -7  -7  11    0.12    0.10 
  -6  -7  11    0.09    0.10 
  -5  -7  11    0.43    0.22 
  -4  -7  11    5.97    1.11 
  -3  -7  11   -0.07    0.18 
  -2  -7  11    6.84    1.46 
  -1  -7  11    0.77    0.35 
   0  -7  11    1.03    0.37 
   1  -7  11    0.70    0.18 
   2  -7  11    0.97    0.21 
   3  -7  11    0.92    0.28 
   4  -7  11    0.06    0.16 
 -12  -6  11    0.79    0.08 
 -11  -6  11    0.06    0.06 
 -10  -6  11   -0.06    0.07 
  -9  -6  11    0.04    0.07 
  -8  -6  11    2.29    0.19 
  -7  -6  11    0.08    0.09 
  -6  -6  11    7.51    0.65 
  -5  -6  11    0.78    0.36 
  -4  -6  11    2.24    0.47 
  -3  -6  11   36.71    8.35 
  -2  -6  11   38.33    7.63 
  -1  -6  11    6.67    1.57 
   0  -6  11    1.95    0.47 
   1  -6  11    0.80    0.22 
   2  -6  11    1.01    0.24 
   3  -6  11   -0.22    0.15 
   4  -6  11    0.15    0.18 
 -12  -5  11    0.37    0.06 
 -11  -5  11    0.13    0.07 
 -10  -5  11    0.22    0.07 
  -9  -5  11    0.00    0.07 
  -8  -5  11    5.39    0.34 
  -7  -5  11    2.66    0.21 
  -6  -5  11    8.58    2.30 
  -5  -5  11    0.39    0.31 
  -4  -5  11    1.82    0.39 
  -3  -5  11   19.41    2.96 
  -2  -5  11    3.45    0.67 
  -1  -5  11    6.80    1.54 
   0  -5  11    0.67    0.35 
   1  -5  11    0.25    0.22 
   2  -5  11    0.12    0.25 
   3  -5  11    1.83    0.52 
   4  -5  11    3.27    0.68 
 -12  -4  11    0.09    0.05 
 -11  -4  11    0.07    0.06 
 -10  -4  11    0.23    0.08 
  -9  -4  11    0.03    0.08 
  -8  -4  11    0.51    0.10 
  -7  -4  11    0.86    0.13 
  -6  -4  11    2.59    0.72 
  -5  -4  11   29.99    6.85 
  -4  -4  11    0.69    0.41 
  -3  -4  11    4.41    0.80 
  -2  -4  11    0.12    0.16 
  -1  -4  11    0.12    0.16 
   0  -4  11    0.85    0.32 
   1  -4  11   -0.07    0.22 
   2  -4  11    0.70    0.35 
   3  -4  11    0.95    0.42 
   4  -4  11    2.17    0.52 
 -12  -3  11    0.02    0.05 
 -11  -3  11    0.11    0.06 
 -10  -3  11   -0.06    0.07 
  -9  -3  11    0.08    0.08 
  -8  -3  11    2.71    0.20 
  -7  -3  11    7.36    0.51 
  -6  -3  11    7.34    1.64 
  -5  -3  11    0.50    0.27 
  -4  -3  11    2.68    0.93 
  -3  -3  11    7.21    1.23 
  -2  -3  11    1.07    0.29 
  -1  -3  11    0.24    0.17 
   0  -3  11    0.00    0.14 
   1  -3  11    1.12    0.35 
   2  -3  11    1.27    0.38 
   3  -3  11    1.65    0.47 
   4  -3  11    0.10    0.23 
 -12  -2  11    0.06    0.05 
 -11  -2  11    0.12    0.06 
 -10  -2  11    0.13    0.07 
  -9  -2  11    0.29    0.08 
  -8  -2  11    2.46    0.22 
  -7  -2  11   18.61    3.06 
  -6  -2  11    2.67    0.86 
  -5  -2  11    1.10    0.37 
  -4  -2  11    8.13    1.93 
  -3  -2  11    0.13    0.28 
  -2  -2  11    3.38    0.58 
  -1  -2  11    0.46    0.19 
   0  -2  11    1.01    0.26 
   1  -2  11   -0.03    0.18 
   2  -2  11    3.27    0.79 
   3  -2  11    0.42    0.28 
   4  -2  11   12.17    2.36 
   5  -2  11    0.73    0.29 
 -12  -1  11    0.39    0.06 
 -11  -1  11    0.09    0.06 
 -10  -1  11   -0.02    0.07 
  -9  -1  11    2.53    0.17 
  -8  -1  11    2.95    0.20 
  -7  -1  11    1.51    0.50 
  -6  -1  11    0.54    0.29 
  -5  -1  11    7.40    1.58 
  -4  -1  11   10.13    2.38 
  -3  -1  11    0.25    0.25 
  -2  -1  11    0.00    0.15 
  -1  -1  11    0.15    0.15 
   0  -1  11   -0.20    0.12 
   1  -1  11    0.56    0.20 
   2  -1  11    0.05    0.19 
   3  -1  11    1.24    0.38 
   4  -1  11   -0.25    0.19 
   5  -1  11    2.84    0.64 
 -12   0  11   -0.03    0.05 
 -11   0  11   -0.07    0.06 
 -10   0  11    0.03    0.07 
  -9   0  11    0.04    0.07 
  -8   0  11    0.04    0.08 
  -7   0  11    0.15    0.19 
  -6   0  11    0.17    0.24 
  -5   0  11   -0.08    0.19 
  -4   0  11    0.09    0.22 
  -3   0  11   -0.03    0.21 
  -2   0  11   -0.01    0.22 
  -1   0  11   -0.16    0.14 
   0   0  11    0.00    0.13 
   1   0  11    0.08    0.14 
   2   0  11    0.01    0.15 
   3   0  11    0.10    0.19 
   4   0  11    0.41    0.25 
   5   0  11   -0.11    0.23 
 -12   1  11    0.38    0.06 
 -11   1  11    0.09    0.07 
 -10   1  11   -0.06    0.07 
  -9   1  11    2.37    0.17 
  -8   1  11    2.77    0.20 
  -7   1  11    1.37    0.35 
  -6   1  11    0.50    0.33 
  -5   1  11    5.73    1.59 
  -4   1  11    9.76    2.38 
  -3   1  11    0.24    0.26 
  -2   1  11    0.08    0.21 
  -1   1  11    0.08    0.15 
   0   1  11    0.36    0.15 
   1   1  11    0.71    0.21 
   2   1  11    0.16    0.16 
   3   1  11    0.71    0.24 
   4   1  11    0.12    0.22 
   5   1  11    2.54    0.61 
 -12   2  11    0.09    0.05 
 -11   2  11    0.13    0.07 
 -10   2  11    0.10    0.08 
  -9   2  11    0.40    0.09 
  -8   2  11    3.14    0.21 
  -7   2  11   22.95    2.50 
  -6   2  11    3.57    0.64 
  -5   2  11    0.32    0.28 
  -4   2  11    7.36    1.92 
  -3   2  11    0.30    0.25 
  -2   2  11    4.06    0.86 
  -1   2  11    0.62    0.21 
   0   2  11    1.30    0.28 
   1   2  11    0.05    0.13 
   2   2  11    3.87    0.58 
   3   2  11    0.38    0.19 
   4   2  11   11.47    2.35 
   5   2  11    0.87    0.29 
 -12   3  11   -0.03    0.05 
 -11   3  11    0.12    0.06 
 -10   3  11   -0.10    0.08 
  -9   3  11    0.17    0.09 
  -8   3  11    3.17    0.21 
  -7   3  11    7.62    0.50 
  -6   3  11    7.19    1.17 
  -5   3  11    0.32    0.19 
  -4   3  11    3.77    0.96 
  -3   3  11    7.49    1.76 
  -2   3  11    1.15    0.42 
  -1   3  11    0.51    0.27 
   0   3  11    0.02    0.14 
   1   3  11    0.92    0.24 
   2   3  11    0.79    0.25 
   3   3  11    1.83    0.35 
   4   3  11    0.43    0.20 
 -12   4  11    0.07    0.06 
 -11   4  11   -0.07    0.06 
 -10   4  11    0.11    0.08 
  -9   4  11    0.01    0.09 
  -8   4  11    0.57    0.12 
  -7   4  11    0.67    0.12 
  -6   4  11    2.32    0.49 
  -5   4  11   29.76    4.85 
  -4   4  11    1.31    0.46 
  -3   4  11    4.77    1.17 
  -2   4  11   -0.39    0.19 
  -1   4  11   -0.16    0.23 
   0   4  11    0.59    0.23 
   1   4  11    0.02    0.15 
   2   4  11    1.25    0.30 
   3   4  11    1.12    0.31 
   4   4  11    2.21    0.38 
 -12   5  11    0.48    0.07 
 -11   5  11    0.09    0.07 
 -10   5  11    0.08    0.08 
  -9   5  11    0.11    0.09 
  -8   5  11    5.22    0.33 
  -7   5  11    2.92    0.24 
  -6   5  11    9.60    1.63 
  -5   5  11    0.28    0.20 
  -4   5  11    1.35    0.37 
  -3   5  11   21.05    4.21 
  -2   5  11    4.33    1.00 
  -1   5  11    7.53    1.58 
   0   5  11    1.47    0.43 
   1   5  11   -0.06    0.15 
   2   5  11    0.63    0.22 
   3   5  11    1.61    0.37 
   4   5  11    3.00    0.48 
 -12   6  11    0.59    0.08 
 -11   6  11   -0.05    0.07 
 -10   6  11   -0.09    0.07 
  -9   6  11    0.05    0.09 
  -8   6  11    2.83    0.21 
  -7   6  11    0.23    0.11 
  -6   6  11    7.01    0.66 
  -5   6  11    0.58    0.27 
  -4   6  11    2.28    0.50 
  -3   6  11   38.21    5.91 
  -2   6  11   38.75    7.65 
  -1   6  11    7.50    1.60 
   0   6  11    1.57    0.47 
   1   6  11    0.63    0.23 
   2   6  11    0.86    0.21 
   3   6  11    0.25    0.27 
   4   6  11   -0.01    0.17 
 -12   7  11    0.09    0.06 
 -11   7  11   -0.01    0.07 
 -10   7  11    0.11    0.08 
  -9   7  11    1.62    0.16 
  -8   7  11    0.89    0.13 
  -7   7  11    0.01    0.10 
  -6   7  11    0.03    0.12 
  -5   7  11    0.74    0.25 
  -4   7  11    7.54    1.14 
  -3   7  11   -0.11    0.19 
  -2   7  11    6.22    1.51 
  -1   7  11    1.31    0.44 
   0   7  11    1.22    0.43 
   1   7  11    0.29    0.26 
   2   7  11   -0.03    0.33 
   3   7  11    1.69    0.47 
   4   7  11    0.21    0.27 
 -11   8  11    0.07    0.07 
 -10   8  11    0.41    0.09 
  -9   8  11    0.04    0.08 
  -8   8  11    0.69    0.12 
  -7   8  11    1.07    0.14 
  -6   8  11    0.10    0.12 
  -5   8  11    0.40    0.15 
  -4   8  11    3.36    0.66 
  -3   8  11    2.84    0.62 
  -2   8  11    0.86    0.26 
  -1   8  11    0.34    0.31 
   0   8  11    5.84    0.76 
   1   8  11    4.34    0.55 
   2   8  11    0.06    0.27 
   3   8  11    1.08    0.39 
 -11   9  11    0.09    0.07 
 -10   9  11   -0.02    0.07 
  -9   9  11    0.25    0.09 
  -8   9  11    0.02    0.09 
  -7   9  11    1.80    0.18 
  -6   9  11    3.65    0.35 
  -5   9  11   10.20    0.84 
  -4   9  11    0.07    0.16 
  -3   9  11   18.64    1.65 
  -2   9  11   17.09    1.47 
  -1   9  11    8.18    0.80 
   0   9  11    9.69    1.10 
   1   9  11    0.09    0.19 
   2   9  11    0.32    0.24 
   3   9  11    0.49    0.31 
 -11  10  11    0.43    0.08 
 -10  10  11   -0.14    0.08 
  -9  10  11   -0.08    0.08 
  -8  10  11    0.62    0.12 
  -7  10  11    1.01    0.15 
  -6  10  11    1.38    0.20 
  -5  10  11    1.82    0.23 
  -4  10  11    1.26    0.23 
  -3  10  11    5.95    0.63 
  -2  10  11   23.09    1.83 
  -1  10  11   11.49    1.01 
   0  10  11    1.03    0.23 
   1  10  11    0.14    0.19 
   2  10  11    1.59    0.34 
   3  10  11    0.34    0.42 
   5  10  11    0.10    0.25 
 -10  11  11    0.52    0.09 
  -9  11  11    0.39    0.10 
  -8  11  11    0.37    0.11 
  -7  11  11    3.78    0.32 
  -6  11  11   -0.15    0.11 
  -5  11  11    2.31    0.28 
  -4  11  11    0.12    0.16 
  -3  11  11    1.29    0.22 
  -2  11  11    0.09    0.16 
  -1  11  11    0.14    0.15 
   0  11  11    0.45    0.18 
   1  11  11    0.40    0.21 
   2  11  11    0.31    0.20 
   3  11  11    3.28    0.73 
   4  11  11    0.16    0.29 
   5  11  11    0.26    0.24 
   6  11  11   -0.10    0.17 
 -10  12  11    0.20    0.08 
  -9  12  11   -0.09    0.08 
  -8  12  11    0.02    0.10 
  -7  12  11    0.18    0.12 
  -6  12  11    0.28    0.13 
  -5  12  11   -0.01    0.15 
  -4  12  11    0.03    0.17 
  -3  12  11    7.61    0.75 
  -2  12  11   -0.25    0.15 
  -1  12  11   -0.13    0.16 
   0  12  11    2.43    0.27 
   1  12  11    0.20    0.17 
   2  12  11    0.14    0.25 
   3  12  11    0.33    0.24 
   4  12  11    0.00    0.17 
   5  12  11    0.27    0.21 
 -10  13  11    0.03    0.07 
  -9  13  11    0.05    0.07 
  -8  13  11    0.01    0.09 
  -7  13  11    0.06    0.11 
  -6  13  11    1.79    0.25 
  -5  13  11    1.81    0.25 
  -4  13  11    1.12    0.25 
  -3  13  11    7.12    0.77 
  -2  13  11    1.15    0.21 
  -1  13  11    0.17    0.15 
   0  13  11   -0.05    0.16 
   1  13  11    1.05    0.25 
   2  13  11    1.21    0.23 
   3  13  11    0.03    0.19 
   4  13  11   -0.08    0.16 
   5  13  11   -0.06    0.16 
  -9  14  11    0.04    0.08 
  -8  14  11    0.81    0.12 
  -7  14  11    0.02    0.11 
  -6  14  11    1.55    0.29 
  -5  14  11    0.35    0.18 
  -4  14  11    0.21    0.15 
  -3  14  11    0.29    0.19 
  -2  14  11    1.00    0.20 
  -1  14  11    0.30    0.15 
   0  14  11    0.13    0.16 
   1  14  11   -0.12    0.14 
   2  14  11   -0.33    0.13 
   3  14  11    1.00    0.26 
   4  14  11   -0.03    0.14 
  -8  15  11    0.13    0.10 
  -7  15  11    0.02    0.10 
  -6  15  11    0.26    0.14 
  -5  15  11    2.13    0.36 
  -4  15  11    0.62    0.17 
  -3  15  11   -0.23    0.14 
  -2  15  11    0.21    0.15 
  -1  15  11   -0.07    0.13 
   0  15  11    1.17    0.19 
   1  15  11    0.05    0.12 
   2  15  11    0.12    0.12 
   3  15  11    0.03    0.10 
   4  15  11    0.25    0.11 
  -8  16  11    0.30    0.08 
  -7  16  11    1.04    0.16 
  -6  16  11    0.41    0.13 
  -5  16  11   -0.04    0.13 
  -4  16  11    2.90    0.40 
  -3  16  11    0.34    0.13 
  -2  16  11    0.30    0.15 
  -1  16  11   -0.13    0.13 
   0  16  11    2.01    0.24 
   1  16  11    3.46    0.45 
   2  16  11    0.07    0.08 
   3  16  11    0.14    0.09 
  -7  17  11    0.17    0.10 
  -6  17  11    1.40    0.19 
  -5  17  11    0.45    0.15 
  -4  17  11    0.23    0.13 
  -3  17  11    0.53    0.14 
  -2  17  11    0.28    0.13 
  -1  17  11    0.68    0.14 
   0  17  11    0.00    0.10 
   1  17  11   -0.12    0.07 
   2  17  11    1.44    0.19 
  -6  18  11    0.08    0.09 
  -5  18  11    1.39    0.18 
  -4  18  11   -0.05    0.10 
  -3  18  11    0.04    0.11 
  -2  18  11    0.09    0.13 
  -1  18  11    0.13    0.10 
   0  18  11   -0.18    0.08 
   1  18  11    0.03    0.08 
  -4  19  11    0.09    0.10 
  -3  19  11   -0.02    0.09 
  -2  19  11   -0.09    0.09 
  -1  19  11    0.26    0.11 
  -3 -18  12    0.11    0.11 
  -2 -18  12    1.30    0.34 
  -5 -17  12    1.48    0.17 
  -4 -17  12   -0.05    0.07 
  -3 -17  12    0.17    0.09 
  -2 -17  12    0.41    0.11 
  -1 -17  12    0.00    0.10 
   0 -17  12    0.14    0.09 
  -7 -16  12    0.24    0.06 
  -6 -16  12    0.25    0.08 
  -5 -16  12   -0.09    0.08 
  -4 -16  12    0.23    0.10 
  -3 -16  12   -0.04    0.10 
  -2 -16  12    0.03    0.10 
  -1 -16  12    0.17    0.09 
   0 -16  12    1.68    0.21 
   1 -16  12    0.04    0.07 
  -7 -15  12    0.01    0.07 
  -6 -15  12    1.23    0.17 
  -5 -15  12    0.51    0.14 
  -4 -15  12    0.47    0.14 
  -3 -15  12    1.23    0.17 
  -2 -15  12    0.33    0.12 
  -1 -15  12    1.57    0.23 
   0 -15  12    0.58    0.12 
   1 -15  12    0.08    0.09 
   2 -15  12    0.10    0.07 
  -8 -14  12    0.28    0.09 
  -7 -14  12    1.22    0.16 
  -6 -14  12    0.12    0.11 
  -5 -14  12    2.42    0.26 
  -4 -14  12   -0.15    0.12 
  -3 -14  12    0.52    0.16 
  -2 -14  12    0.09    0.11 
  -1 -14  12    1.41    0.23 
   0 -14  12   -0.09    0.10 
   1 -14  12    0.00    0.11 
   2 -14  12    0.06    0.10 
   3 -14  12    1.15    0.19 
  -9 -13  12   -0.07    0.06 
  -8 -13  12    0.09    0.09 
  -7 -13  12    0.36    0.11 
  -6 -13  12    0.97    0.17 
  -5 -13  12    2.15    0.27 
  -4 -13  12    3.90    0.38 
  -3 -13  12    0.60    0.17 
  -2 -13  12    0.32    0.14 
  -1 -13  12    1.01    0.20 
   0 -13  12    0.20    0.12 
   1 -13  12    0.03    0.11 
   2 -13  12    0.06    0.12 
   3 -13  12   -0.03    0.10 
   4 -13  12   -0.11    0.09 
  -9 -12  12    0.33    0.08 
  -8 -12  12    0.04    0.09 
  -7 -12  12    0.04    0.12 
  -6 -12  12    1.87    0.25 
  -5 -12  12    3.67    0.43 
  -4 -12  12    0.07    0.13 
  -3 -12  12    5.15    0.45 
  -2 -12  12   -0.12    0.11 
  -1 -12  12    0.76    0.17 
   0 -12  12    0.10    0.14 
   1 -12  12    0.23    0.15 
   2 -12  12    0.11    0.16 
   3 -12  12    0.54    0.18 
   4 -12  12    0.03    0.13 
 -10 -11  12    0.34    0.08 
  -9 -11  12    0.48    0.10 
  -8 -11  12    1.09    0.14 
  -7 -11  12   -0.11    0.10 
  -6 -11  12    4.68    0.58 
  -5 -11  12    4.16    0.45 
  -4 -11  12    3.54    0.34 
  -3 -11  12    1.45    0.20 
  -2 -11  12    0.67    0.16 
  -1 -11  12   -0.22    0.11 
   0 -11  12    0.88    0.17 
   1 -11  12    1.60    0.29 
   2 -11  12   -0.17    0.13 
   3 -11  12    0.51    0.18 
   4 -11  12    0.11    0.13 
   5 -11  12    0.36    0.14 
 -10 -10  12    0.25    0.07 
  -9 -10  12    0.27    0.08 
  -8 -10  12    0.10    0.08 
  -7 -10  12    1.40    0.17 
  -6 -10  12    7.60    0.86 
  -5 -10  12    0.25    0.12 
  -4 -10  12    1.54    0.22 
  -3 -10  12    6.19    0.59 
  -2 -10  12   -0.17    0.11 
  -1 -10  12    0.57    0.15 
   0 -10  12    1.36    0.25 
   1 -10  12   -0.02    0.15 
   2 -10  12    0.23    0.19 
   3 -10  12   -0.06    0.21 
   4 -10  12    0.12    0.21 
   5 -10  12   -0.03    0.19 
 -11  -9  12   -0.01    0.06 
 -10  -9  12    0.12    0.07 
  -9  -9  12    0.11    0.08 
  -8  -9  12   -0.05    0.08 
  -7  -9  12    0.91    0.14 
  -6  -9  12    0.33    0.11 
  -5  -9  12    6.34    0.59 
  -4  -9  12    2.62    0.29 
  -3  -9  12    0.77    0.16 
  -2  -9  12    0.23    0.13 
  -1  -9  12    1.48    0.26 
   0  -9  12    0.24    0.14 
   1  -9  12    0.19    0.16 
   2  -9  12   -0.02    0.27 
   3  -9  12    0.19    0.27 
   4  -9  12    0.04    0.19 
   5  -9  12    0.07    0.17 
 -11  -8  12   -0.03    0.05 
 -10  -8  12    0.20    0.07 
  -9  -8  12    0.13    0.08 
  -8  -8  12    0.02    0.08 
  -7  -8  12   -0.07    0.09 
  -6  -8  12    0.32    0.11 
  -5  -8  12   14.87    1.28 
  -4  -8  12   14.74    1.39 
  -3  -8  12    8.42    0.88 
  -2  -8  12   -0.04    0.13 
  -1  -8  12    0.31    0.14 
   0  -8  12    2.18    0.34 
   1  -8  12    0.18    0.15 
   2  -8  12    0.19    0.21 
   3  -8  12   -0.36    0.24 
   5  -8  12    0.17    0.18 
 -11  -7  12    0.06    0.06 
 -10  -7  12    0.94    0.11 
  -9  -7  12    0.72    0.11 
  -8  -7  12    1.07    0.15 
  -7  -7  12    0.19    0.10 
  -6  -7  12    0.44    0.13 
  -5  -7  12    2.41    0.27 
  -4  -7  12    2.57    0.26 
  -3  -7  12   31.06    2.85 
  -2  -7  12    2.14    0.27 
  -1  -7  12   -0.08    0.12 
   0  -7  12    0.41    0.16 
   1  -7  12   -0.22    0.17 
   2  -7  12    0.01    0.14 
   4  -7  12   -0.01    0.24 
 -11  -6  12    0.48    0.08 
 -10  -6  12    0.05    0.07 
  -9  -6  12    0.83    0.12 
  -8  -6  12    1.67    0.15 
  -7  -6  12    0.55    0.12 
  -6  -6  12   15.70    1.11 
  -5  -6  12    3.81    0.35 
  -4  -6  12    3.40    0.34 
  -3  -6  12    1.69    0.21 
  -2  -6  12    0.55    0.16 
  -1  -6  12    0.14    0.13 
   0  -6  12    0.25    0.17 
   1  -6  12    0.03    0.17 
   2  -6  12    0.02    0.13 
   3  -6  12    0.49    0.20 
 -11  -5  12    0.13    0.07 
 -10  -5  12    0.87    0.10 
  -9  -5  12    0.15    0.09 
  -8  -5  12    0.08    0.09 
  -7  -5  12    6.59    0.53 
  -6  -5  12    0.29    0.11 
  -5  -5  12    2.14    0.24 
  -4  -5  12   11.69    1.60 
  -3  -5  12    2.45    0.45 
  -2  -5  12    1.81    0.36 
  -1  -5  12    3.75    0.66 
   0  -5  12    0.11    0.15 
   1  -5  12    0.68    0.23 
   2  -5  12    1.83    0.34 
   3  -5  12    0.36    0.19 
 -12  -4  12    0.18    0.06 
 -11  -4  12    0.06    0.06 
 -10  -4  12    0.97    0.11 
  -9  -4  12    0.01    0.08 
  -8  -4  12    0.19    0.10 
  -7  -4  12    0.28    0.11 
  -6  -4  12    0.36    0.13 
  -5  -4  12    2.22    0.26 
  -4  -4  12    9.65    2.16 
  -3  -4  12   11.72    2.26 
  -2  -4  12    2.56    0.50 
  -1  -4  12    1.54    0.44 
   0  -4  12    0.38    0.20 
   1  -4  12   -0.03    0.16 
   2  -4  12    4.65    0.76 
   3  -4  12   -0.28    0.21 
 -12  -3  12    0.06    0.05 
 -11  -3  12    0.58    0.08 
 -10  -3  12    1.25    0.12 
  -9  -3  12    0.15    0.09 
  -8  -3  12   -0.12    0.09 
  -7  -3  12    0.04    0.10 
  -6  -3  12    0.03    0.11 
  -5  -3  12    0.39    0.31 
  -4  -3  12    7.54    1.73 
  -3  -3  12    7.11    1.75 
  -2  -3  12    0.59    0.22 
  -1  -3  12    0.70    0.23 
   0  -3  12    4.19    0.90 
   1  -3  12    0.02    0.22 
   2  -3  12    0.37    0.25 
   3  -3  12    0.38    0.27 
 -12  -2  12    0.27    0.06 
 -11  -2  12    0.03    0.07 
 -10  -2  12    0.50    0.09 
  -9  -2  12   -0.07    0.09 
  -8  -2  12    0.66    0.11 
  -7  -2  12    8.84    0.60 
  -6  -2  12    3.30    0.28 
  -5  -2  12    0.05    0.30 
  -4  -2  12    0.02    0.26 
  -3  -2  12    1.99    0.77 
  -2  -2  12    0.10    0.18 
  -1  -2  12    0.10    0.16 
   0  -2  12    0.22    0.17 
   1  -2  12    0.55    0.25 
   2  -2  12    0.14    0.23 
   3  -2  12    0.26    0.24 
 -12  -1  12    0.02    0.05 
 -11  -1  12    0.17    0.07 
 -10  -1  12    0.66    0.09 
  -9  -1  12    0.04    0.09 
  -8  -1  12    0.68    0.12 
  -7  -1  12    1.20    0.15 
  -6  -1  12   -0.08    0.10 
  -5  -1  12    0.02    0.29 
  -4  -1  12    0.86    0.39 
  -3  -1  12    0.16    0.33 
  -2  -1  12   -0.08    0.15 
  -1  -1  12   -0.01    0.16 
   0  -1  12    0.46    0.20 
   1  -1  12    0.02    0.16 
   2  -1  12    4.05    0.74 
   3  -1  12    1.02    0.40 
 -12   0  12   -0.03    0.05 
 -11   0  12    0.03    0.06 
 -10   0  12    1.48    0.13 
  -9   0  12    1.79    0.16 
  -8   0  12    0.21    0.10 
  -7   0  12    0.27    0.10 
  -6   0  12    8.70    0.64 
  -5   0  12   39.46    9.18 
  -4   0  12   18.11    3.63 
  -3   0  12   20.82    4.64 
  -2   0  12    1.55    0.46 
  -1   0  12    0.46    0.19 
   0   0  12   -0.05    0.16 
   1   0  12   10.20    1.53 
   2   0  12    8.36    1.58 
   3   0  12   -0.11    0.20 
 -12   1  12   -0.03    0.05 
 -11   1  12    0.12    0.07 
 -10   1  12    0.47    0.09 
  -9   1  12   -0.03    0.09 
  -8   1  12    0.63    0.12 
  -7   1  12    1.17    0.15 
  -6   1  12   -0.01    0.12 
  -5   1  12    0.11    0.25 
  -4   1  12    0.96    0.41 
  -3   1  12    0.16    0.30 
  -2   1  12   -0.31    0.23 
  -1   1  12   -0.09    0.16 
   0   1  12    0.83    0.24 
   1   1  12   -0.19    0.13 
   2   1  12    3.74    0.53 
   3   1  12    1.89    0.44 
 -12   2  12    0.33    0.06 
 -11   2  12   -0.02    0.06 
 -10   2  12    0.49    0.09 
  -9   2  12   -0.05    0.08 
  -8   2  12    0.59    0.11 
  -7   2  12    8.52    0.57 
  -6   2  12    2.89    0.26 
  -5   2  12    0.65    0.34 
  -4   2  12   -0.66    0.20 
  -3   2  12    3.18    0.82 
  -2   2  12   -0.07    0.25 
  -1   2  12    0.29    0.28 
   0   2  12    0.10    0.17 
   1   2  12    0.81    0.23 
   2   2  12    0.05    0.17 
   3   2  12    0.19    0.18 
 -12   3  12    0.03    0.05 
 -11   3  12    0.41    0.08 
 -10   3  12    1.07    0.13 
  -9   3  12   -0.05    0.08 
  -8   3  12    0.00    0.09 
  -7   3  12   -0.13    0.09 
  -6   3  12   -0.04    0.11 
  -5   3  12    0.56    0.36 
  -4   3  12    5.96    1.72 
  -3   3  12    8.05    1.78 
  -2   3  12    0.37    0.30 
  -1   3  12    0.35    0.30 
   0   3  12    4.43    0.66 
   1   3  12    0.09    0.16 
   2   3  12    0.55    0.20 
   3   3  12   -0.10    0.17 
 -12   4  12    0.32    0.06 
 -11   4  12    0.00    0.06 
 -10   4  12    0.96    0.11 
  -9   4  12   -0.03    0.09 
  -8   4  12    0.29    0.10 
  -7   4  12    0.28    0.11 
  -6   4  12    0.33    0.11 
  -5   4  12    1.95    0.26 
  -4   4  12    8.90    2.15 
  -3   4  12    9.76    2.27 
  -2   4  12    2.54    0.73 
  -1   4  12    1.60    0.48 
   0   4  12    0.49    0.27 
   1   4  12   -0.10    0.15 
   2   4  12    5.13    0.63 
   3   4  12    0.19    0.18 
 -11   5  12    0.19    0.07 
 -10   5  12    0.79    0.10 
  -9   5  12    0.05    0.09 
  -8   5  12   -0.01    0.09 
  -7   5  12    5.92    0.47 
  -6   5  12    0.45    0.12 
  -5   5  12    1.84    0.21 
  -4   5  12   13.12    1.63 
  -3   5  12    2.55    0.67 
  -2   5  12    1.79    0.54 
  -1   5  12    3.35    0.57 
   0   5  12   -0.03    0.20 
   1   5  12    0.50    0.19 
   2   5  12    1.88    0.31 
   3   5  12    0.19    0.16 
 -11   6  12    0.37    0.08 
 -10   6  12    0.14    0.08 
  -9   6  12    0.89    0.12 
  -8   6  12    1.89    0.18 
  -7   6  12    0.68    0.13 
  -6   6  12   14.26    1.11 
  -5   6  12    4.51    0.35 
  -4   6  12    2.90    0.41 
  -3   6  12    2.02    0.26 
  -2   6  12    0.57    0.20 
  -1   6  12    0.25    0.18 
   0   6  12   -0.30    0.20 
   1   6  12   -0.11    0.19 
   2   6  12    0.03    0.18 
   3   6  12    0.29    0.36 
   4   6  12   -0.03    0.27 
 -11   7  12   -0.02    0.07 
 -10   7  12    1.04    0.12 
  -9   7  12    0.57    0.12 
  -8   7  12    1.31    0.15 
  -7   7  12    0.16    0.11 
  -6   7  12    0.55    0.15 
  -5   7  12    2.58    0.24 
  -4   7  12    2.33    0.27 
  -3   7  12   32.23    2.86 
  -2   7  12    1.92    0.30 
  -1   7  12    0.18    0.17 
   0   7  12    0.61    0.25 
   1   7  12   -0.26    0.18 
   2   7  12   -0.11    0.22 
   6   7  12   -0.04    0.15 
 -11   8  12   -0.03    0.07 
 -10   8  12    0.40    0.09 
  -9   8  12    0.03    0.09 
  -8   8  12    0.23    0.10 
  -7   8  12   -0.01    0.11 
  -6   8  12    0.39    0.13 
  -5   8  12   14.36    1.40 
  -4   8  12   14.20    1.30 
  -3   8  12    8.99    0.83 
  -2   8  12    0.14    0.16 
  -1   8  12    0.16    0.16 
   0   8  12    2.21    0.33 
   1   8  12    0.42    0.22 
   2   8  12    0.44    0.26 
   3   8  12   -0.01    0.29 
   5   8  12   -0.17    0.22 
   6   8  12    0.51    0.20 
 -11   9  12    0.00    0.13 
 -10   9  12    0.18    0.09 
  -9   9  12    0.15    0.09 
  -8   9  12   -0.05    0.10 
  -7   9  12    1.07    0.15 
  -6   9  12    0.46    0.15 
  -5   9  12    5.87    0.55 
  -4   9  12    2.54    0.32 
  -3   9  12    1.35    0.19 
  -2   9  12   -0.08    0.15 
  -1   9  12    2.13    0.28 
   0   9  12    0.45    0.19 
   1   9  12    0.19    0.18 
   2   9  12    0.05    0.32 
   3   9  12    0.17    0.29 
   5   9  12    0.01    0.21 
 -10  10  12    0.26    0.09 
  -9  10  12    0.29    0.10 
  -8  10  12    0.21    0.10 
  -7  10  12    1.47    0.20 
  -6  10  12   10.94    0.89 
  -5  10  12    0.22    0.15 
  -4  10  12    1.03    0.24 
  -3  10  12    6.80    0.63 
  -2  10  12    0.13    0.14 
  -1  10  12    0.21    0.17 
   0  10  12    1.87    0.30 
   1  10  12    0.05    0.17 
   2  10  12   -0.09    0.23 
   3  10  12   -0.27    0.26 
   4  10  12    0.19    0.19 
   5  10  12   -0.06    0.20 
 -10  11  12    0.44    0.09 
  -9  11  12    0.57    0.11 
  -8  11  12    1.18    0.15 
  -7  11  12   -0.24    0.11 
  -6  11  12    5.28    0.59 
  -5  11  12    3.43    0.42 
  -4  11  12    2.89    0.35 
  -3  11  12    2.00    0.26 
  -2  11  12    0.64    0.17 
  -1  11  12    0.08    0.14 
   0  11  12    1.01    0.29 
   1  11  12    1.12    0.31 
   2  11  12   -0.03    0.17 
   3  11  12    0.51    0.23 
   4  11  12   -0.09    0.16 
   5  11  12    0.27    0.20 
  -9  12  12    0.23    0.09 
  -8  12  12    0.06    0.10 
  -7  12  12    0.07    0.11 
  -6  12  12    1.33    0.29 
  -5  12  12    2.78    0.44 
  -4  12  12    0.17    0.16 
  -3  12  12    4.23    0.50 
  -2  12  12    0.13    0.15 
  -1  12  12    0.75    0.19 
   0  12  12   -0.19    0.16 
   1  12  12    0.71    0.23 
   2  12  12    0.30    0.18 
   3  12  12    0.68    0.19 
   4  12  12    0.05    0.15 
  -9  13  12   -0.01    0.08 
  -8  13  12    0.04    0.11 
  -7  13  12    0.12    0.12 
  -6  13  12    0.51    0.15 
  -5  13  12    0.88    0.25 
  -4  13  12    3.02    0.39 
  -3  13  12    0.42    0.17 
  -2  13  12    0.39    0.17 
  -1  13  12    1.05    0.20 
   0  13  12    0.14    0.13 
   1  13  12    0.23    0.15 
   2  13  12    0.09    0.15 
   3  13  12   -0.10    0.12 
   4  13  12   -0.06    0.12 
  -8  14  12    0.19    0.09 
  -7  14  12    0.63    0.16 
  -6  14  12    0.22    0.12 
  -5  14  12    1.75    0.30 
  -4  14  12   -0.14    0.14 
  -3  14  12    0.31    0.14 
  -2  14  12    0.03    0.12 
  -1  14  12    1.82    0.31 
   0  14  12   -0.02    0.11 
   1  14  12    0.02    0.11 
   2  14  12    0.11    0.11 
   3  14  12    1.09    0.17 
  -8  15  12    0.94    0.29 
  -7  15  12   -0.05    0.09 
  -6  15  12    0.86    0.17 
  -5  15  12    0.50    0.14 
  -4  15  12    0.57    0.15 
  -3  15  12    1.28    0.21 
  -2  15  12    0.15    0.12 
  -1  15  12    1.28    0.23 
   0  15  12    0.56    0.14 
   1  15  12    0.13    0.10 
   2  15  12    0.08    0.09 
  -7  16  12    0.35    0.11 
  -6  16  12    0.06    0.09 
  -5  16  12    0.02    0.11 
  -4  16  12    0.04    0.12 
  -3  16  12    0.05    0.11 
  -2  16  12   -0.05    0.10 
  -1  16  12   -0.01    0.08 
   0  16  12    1.33    0.21 
   1  16  12   -0.06    0.08 
  -5  17  12    1.12    0.18 
  -4  17  12    0.02    0.11 
  -3  17  12    0.37    0.12 
  -2  17  12    0.46    0.12 
  -1  17  12    0.00    0.09 
   0  17  12    0.29    0.09 
  -3  18  12   -0.20    0.11 
  -2  18  12    1.00    0.29 
  -5 -16  13    0.44    0.09 
  -4 -16  13    0.01    0.05 
  -3 -16  13   -0.02    0.06 
  -2 -16  13   -0.03    0.07 
  -1 -16  13   -0.08    0.06 
  -6 -15  13    1.11    0.14 
  -5 -15  13   -0.09    0.07 
  -4 -15  13    0.04    0.08 
  -3 -15  13    0.00    0.08 
  -2 -15  13    0.47    0.12 
  -1 -15  13    0.09    0.09 
   0 -15  13    0.30    0.09 
  -7 -14  13    0.86    0.13 
  -6 -14  13    0.25    0.10 
  -5 -14  13    1.04    0.15 
  -4 -14  13   -0.05    0.10 
  -3 -14  13    0.70    0.15 
  -2 -14  13   -0.09    0.09 
  -1 -14  13    1.86    0.25 
   0 -14  13    0.86    0.14 
   1 -14  13   -0.15    0.08 
  -8 -13  13    0.30    0.09 
  -7 -13  13    0.16    0.09 
  -6 -13  13    0.89    0.15 
  -5 -13  13    0.05    0.11 
  -4 -13  13    0.08    0.10 
  -3 -13  13    1.08    0.19 
  -2 -13  13   -0.01    0.11 
  -1 -13  13    0.10    0.11 
   0 -13  13    0.28    0.10 
   1 -13  13    0.02    0.08 
   2 -13  13   -0.01    0.08 
  -8 -12  13    0.92    0.14 
  -7 -12  13    0.49    0.12 
  -6 -12  13    0.18    0.10 
  -5 -12  13    5.18    0.61 
  -4 -12  13    8.89    0.85 
  -3 -12  13    0.06    0.13 
  -2 -12  13    0.28    0.14 
  -1 -12  13    0.02    0.11 
   0 -12  13    0.00    0.10 
   1 -12  13    0.62    0.14 
   2 -12  13    0.07    0.10 
   3 -12  13    0.22    0.10 
  -9 -11  13   -0.01    0.07 
  -8 -11  13    0.96    0.14 
  -7 -11  13    0.28    0.11 
  -6 -11  13    3.49    0.40 
  -5 -11  13    0.49    0.14 
  -4 -11  13    0.04    0.13 
  -3 -11  13    1.37    0.21 
  -2 -11  13    1.43    0.24 
  -1 -11  13    1.94    0.26 
   0 -11  13    0.22    0.11 
   1 -11  13    0.09    0.12 
   2 -11  13   -0.18    0.10 
   3 -11  13   -0.06    0.09 
  -9 -10  13   -0.16    0.07 
  -8 -10  13   -0.02    0.09 
  -7 -10  13    1.60    0.20 
  -6 -10  13    1.04    0.22 
  -5 -10  13    2.49    0.31 
  -4 -10  13    1.26    0.23 
  -3 -10  13    0.16    0.13 
  -2 -10  13    0.17    0.14 
  -1 -10  13    1.31    0.20 
   0 -10  13    0.45    0.15 
   1 -10  13    0.00    0.12 
   2 -10  13    0.01    0.12 
   3 -10  13    0.08    0.12 
   4 -10  13    0.06    0.10 
 -10  -9  13    0.02    0.07 
  -9  -9  13    0.00    0.07 
  -8  -9  13    2.66    0.30 
  -7  -9  13   -0.09    0.09 
  -6  -9  13    0.23    0.15 
  -5  -9  13    6.59    0.86 
  -4  -9  13    0.45    0.13 
  -3  -9  13    3.14    0.35 
  -2  -9  13    0.49    0.13 
  -1  -9  13    4.22    0.42 
   0  -9  13    0.08    0.16 
   1  -9  13    0.17    0.16 
   2  -9  13    0.29    0.19 
   3  -9  13    0.25    0.16 
   4  -9  13   -0.04    0.10 
 -10  -8  13   -0.01    0.07 
  -9  -8  13    0.27    0.09 
  -8  -8  13    0.05    0.08 
  -7  -8  13   -0.05    0.12 
  -6  -8  13    0.41    0.15 
  -5  -8  13    0.84    0.22 
  -4  -8  13    8.64    0.82 
  -3  -8  13    2.20    0.25 
  -2  -8  13   -0.10    0.10 
  -1  -8  13    0.20    0.13 
   0  -8  13    0.38    0.14 
   1  -8  13    0.62    0.22 
   2  -8  13    0.02    0.16 
   3  -8  13   -0.07    0.15 
   4  -8  13    0.22    0.19 
 -10  -7  13    0.10    0.07 
  -9  -7  13    0.07    0.08 
  -8  -7  13    1.68    0.18 
  -7  -7  13    1.18    0.19 
  -6  -7  13    0.33    0.12 
  -5  -7  13    2.34    0.28 
  -4  -7  13    1.58    0.22 
  -3  -7  13    0.12    0.11 
  -2  -7  13    2.05    0.26 
  -1  -7  13   -0.03    0.11 
   0  -7  13    1.09    0.21 
   1  -7  13    0.16    0.20 
   2  -7  13    0.09    0.18 
   3  -7  13   -0.05    0.24 
   4  -7  13    0.23    0.22 
   5  -7  13    1.14    0.27 
 -11  -6  13    0.00    0.06 
 -10  -6  13    0.13    0.07 
  -9  -6  13    0.08    0.08 
  -8  -6  13    2.35    0.23 
  -7  -6  13    6.41    0.62 
  -6  -6  13    2.74    0.30 
  -5  -6  13    0.06    0.14 
  -4  -6  13    0.17    0.12 
  -3  -6  13   -0.10    0.12 
  -2  -6  13    3.57    0.34 
  -1  -6  13    0.24    0.14 
   0  -6  13    4.34    0.46 
   1  -6  13   -0.08    0.14 
   2  -6  13    0.38    0.27 
   3  -6  13   -0.34    0.19 
   4  -6  13    0.26    0.22 
 -11  -5  13   -0.04    0.06 
 -10  -5  13    0.06    0.07 
  -9  -5  13    0.36    0.09 
  -8  -5  13    0.14    0.09 
  -7  -5  13    0.36    0.12 
  -6  -5  13    0.17    0.12 
  -5  -5  13    5.01    0.49 
  -4  -5  13   -0.09    0.13 
  -3  -5  13    0.70    0.15 
  -2  -5  13    6.77    0.70 
  -1  -5  13    3.33    0.41 
   0  -5  13    0.36    0.18 
   1  -5  13   -0.17    0.14 
   2  -5  13    0.20    0.25 
   3  -5  13    0.01    0.21 
   5  -5  13    0.16    0.20 
 -11  -4  13    1.34    0.14 
 -10  -4  13    0.57    0.10 
  -9  -4  13    0.45    0.11 
  -8  -4  13    0.24    0.11 
  -7  -4  13    0.06    0.11 
  -6  -4  13    0.42    0.14 
  -5  -4  13    5.06    0.44 
  -4  -4  13    6.96    0.66 
  -3  -4  13    1.49    0.20 
  -2  -4  13    5.09    0.46 
  -1  -4  13    0.70    0.19 
   0  -4  13    0.48    0.16 
   1  -4  13    0.53    0.22 
   2  -4  13    0.28    0.20 
   4  -4  13    0.14    0.20 
 -11  -3  13    0.27    0.07 
 -10  -3  13   -0.01    0.08 
  -9  -3  13    1.18    0.15 
  -8  -3  13    0.15    0.10 
  -7  -3  13    0.73    0.14 
  -6  -3  13    0.20    0.11 
  -5  -3  13    5.52    0.57 
  -4  -3  13    0.14    0.15 
  -3  -3  13    2.53    0.30 
  -2  -3  13    0.88    0.17 
  -1  -3  13    0.05    0.13 
   0  -3  13    0.35    0.18 
   1  -3  13    0.33    0.20 
   2  -3  13    0.77    0.23 
   3  -3  13    0.10    0.24 
   5  -3  13    0.35    0.24 
 -11  -2  13    2.14    0.19 
 -10  -2  13    0.05    0.07 
  -9  -2  13    1.41    0.15 
  -8  -2  13    0.05    0.10 
  -7  -2  13    0.35    0.12 
  -6  -2  13    4.16    0.36 
  -5  -2  13    0.11    0.13 
  -4  -2  13    0.17    0.14 
  -3  -2  13    3.72    0.40 
  -2  -2  13   18.70    1.80 
  -1  -2  13    3.88    0.51 
   0  -2  13   -0.04    0.15 
   1  -2  13    0.60    0.18 
   2  -2  13    0.05    0.25 
   3  -2  13    0.02    0.22 
 -11  -1  13    0.46    0.08 
 -10  -1  13    0.10    0.08 
  -9  -1  13    0.94    0.14 
  -8  -1  13    0.03    0.11 
  -7  -1  13   -0.16    0.10 
  -6  -1  13    1.11    0.17 
  -5  -1  13    7.10    0.62 
  -4  -1  13    0.97    0.18 
  -3  -1  13   12.72    1.20 
  -2  -1  13    5.62    0.58 
  -1  -1  13    1.04    0.20 
   0  -1  13    0.11    0.17 
   1  -1  13    0.24    0.20 
   2  -1  13   -0.05    0.17 
 -11   0  13   -0.03    0.06 
 -10   0  13    0.08    0.08 
  -9   0  13   -0.02    0.09 
  -8   0  13    0.02    0.11 
  -7   0  13    0.00    0.11 
  -6   0  13   -0.11    0.11 
  -5   0  13    0.08    0.13 
  -4   0  13    0.01    0.15 
  -3   0  13   -0.14    0.13 
  -2   0  13   -0.16    0.14 
  -1   0  13    0.05    0.13 
   0   0  13    0.01    0.14 
   1   0  13   -0.15    0.14 
   2   0  13    0.25    0.18 
   3   0  13    0.09    0.26 
   5   0  13    0.23    0.21 
 -11   1  13    0.31    0.08 
 -10   1  13    0.06    0.08 
  -9   1  13    1.06    0.14 
  -8   1  13    0.17    0.10 
  -7   1  13   -0.05    0.10 
  -6   1  13    1.06    0.19 
  -5   1  13    5.55    0.60 
  -4   1  13    0.79    0.18 
  -3   1  13   13.27    1.20 
  -2   1  13    5.07    0.58 
  -1   1  13    1.37    0.24 
   0   1  13    0.21    0.15 
   1   1  13    0.27    0.15 
   2   1  13   -0.03    0.21 
   4   1  13    0.24    0.24 
 -11   2  13    2.14    0.18 
 -10   2  13    0.08    0.07 
  -9   2  13    1.40    0.15 
  -8   2  13   -0.07    0.10 
  -7   2  13    0.56    0.12 
  -6   2  13    4.08    0.39 
  -5   2  13    0.13    0.13 
  -4   2  13   -0.04    0.13 
  -3   2  13    3.28    0.40 
  -2   2  13   19.50    1.82 
  -1   2  13    4.92    0.61 
   0   2  13   -0.32    0.14 
   1   2  13    0.35    0.18 
   2   2  13    0.18    0.16 
 -11   3  13    0.07    0.06 
 -10   3  13    0.04    0.07 
  -9   3  13    1.36    0.15 
  -8   3  13    0.11    0.10 
  -7   3  13    1.00    0.16 
  -6   3  13   -0.03    0.12 
  -5   3  13    5.55    0.53 
  -4   3  13    0.12    0.14 
  -3   3  13    2.33    0.31 
  -2   3  13    1.01    0.20 
  -1   3  13    0.19    0.17 
   0   3  13    0.41    0.23 
   1   3  13    0.55    0.19 
   2   3  13    0.49    0.19 
   3   3  13    0.49    0.28 
   5   3  13   -0.31    0.17 
 -11   4  13    1.51    0.14 
 -10   4  13    0.94    0.11 
  -9   4  13    0.38    0.10 
  -8   4  13    0.10    0.11 
  -7   4  13    0.10    0.12 
  -6   4  13    0.50    0.15 
  -5   4  13    3.85    0.48 
  -4   4  13    6.05    0.66 
  -3   4  13    1.47    0.24 
  -2   4  13    4.55    0.51 
  -1   4  13    0.46    0.22 
   0   4  13    0.25    0.20 
   1   4  13    0.70    0.18 
   2   4  13    0.35    0.32 
   3   4  13   -0.01    0.23 
   4   4  13    0.21    0.23 
   5   4  13   -0.06    0.15 
 -11   5  13    0.11    0.07 
 -10   5  13    0.02    0.07 
  -9   5  13    0.53    0.10 
  -8   5  13   -0.01    0.11 
  -7   5  13    0.23    0.13 
  -6   5  13    0.51    0.14 
  -5   5  13    5.10    0.51 
  -4   5  13   -0.07    0.15 
  -3   5  13    0.64    0.20 
  -2   5  13    7.15    0.72 
  -1   5  13    4.66    0.46 
   0   5  13    0.67    0.22 
   1   5  13   -0.18    0.17 
   2   5  13    0.05    0.21 
   3   5  13   -0.19    0.25 
   4   5  13    0.28    0.23 
 -11   6  13   -0.01    0.06 
 -10   6  13    0.18    0.07 
  -9   6  13    0.10    0.09 
  -8   6  13    2.49    0.23 
  -7   6  13    6.84    0.59 
  -6   6  13    2.52    0.29 
  -5   6  13    0.49    0.18 
  -4   6  13    0.08    0.16 
  -3   6  13    0.36    0.16 
  -2   6  13    3.68    0.40 
  -1   6  13   -0.25    0.15 
   0   6  13    3.54    0.47 
   1   6  13   -0.01    0.18 
   2   6  13    0.13    0.30 
   3   6  13    0.06    0.27 
   4   6  13    0.15    0.22 
   5   6  13    0.92    0.30 
 -10   7  13    0.26    0.08 
  -9   7  13    0.12    0.08 
  -8   7  13    2.41    0.20 
  -7   7  13    0.69    0.20 
  -6   7  13    0.08    0.13 
  -5   7  13    2.27    0.30 
  -4   7  13    1.34    0.24 
  -3   7  13    0.29    0.15 
  -2   7  13    2.26    0.27 
  -1   7  13    0.05    0.17 
   0   7  13    1.66    0.27 
   1   7  13    0.20    0.20 
   2   7  13   -0.25    0.25 
   3   7  13    0.13    0.26 
   4   7  13    0.17    0.17 
   5   7  13    0.69    0.27 
 -10   8  13    0.04    0.09 
  -9   8  13    0.31    0.10 
  -8   8  13    0.10    0.10 
  -7   8  13   -0.09    0.12 
  -6   8  13    0.61    0.18 
  -5   8  13    1.07    0.24 
  -4   8  13    8.08    0.83 
  -3   8  13    2.12    0.28 
  -2   8  13   -0.07    0.14 
  -1   8  13    0.58    0.17 
   0   8  13    0.19    0.17 
   1   8  13    0.58    0.31 
   2   8  13   -0.03    0.19 
   3   8  13    0.44    0.30 
   4   8  13    0.23    0.16 
 -10   9  13    0.10    0.08 
  -9   9  13   -0.07    0.09 
  -8   9  13    3.37    0.32 
  -7   9  13    0.12    0.11 
  -6   9  13    0.28    0.17 
  -5   9  13    7.75    0.91 
  -4   9  13    0.38    0.18 
  -3   9  13    3.32    0.36 
  -2   9  13    0.67    0.17 
  -1   9  13    4.99    0.52 
   0   9  13    0.30    0.18 
   1   9  13    0.37    0.20 
   2   9  13   -0.02    0.20 
   3   9  13    0.05    0.18 
   4   9  13   -0.03    0.13 
  -9  10  13    0.05    0.08 
  -8  10  13    0.11    0.10 
  -7  10  13    1.40    0.21 
  -6  10  13    1.02    0.20 
  -5  10  13    2.54    0.37 
  -4  10  13    1.30    0.23 
  -3  10  13    0.15    0.16 
  -2  10  13    0.28    0.19 
  -1  10  13    1.03    0.22 
   0  10  13    0.53    0.19 
   1  10  13    0.12    0.16 
   2  10  13    0.25    0.17 
   3  10  13    0.04    0.13 
   4  10  13   -0.06    0.12 
  -9  11  13   -0.13    0.09 
  -8  11  13    0.70    0.16 
  -7  11  13    0.03    0.11 
  -6  11  13    3.80    0.47 
  -5  11  13    0.49    0.16 
  -4  11  13    0.17    0.17 
  -3  11  13    1.26    0.23 
  -2  11  13    1.65    0.25 
  -1  11  13    2.26    0.33 
   0  11  13    0.06    0.15 
   1  11  13   -0.15    0.13 
   2  11  13    0.17    0.15 
   3  11  13    0.12    0.11 
  -8  12  13    0.90    0.15 
  -7  12  13    0.13    0.12 
  -6  12  13    0.08    0.13 
  -5  12  13    4.38    0.55 
  -4  12  13    8.59    1.12 
  -3  12  13    0.20    0.16 
  -2  12  13    0.43    0.15 
  -1  12  13   -0.03    0.12 
   0  12  13    0.01    0.12 
   1  12  13    0.61    0.17 
   2  12  13   -0.15    0.11 
   3  12  13    0.46    0.13 
  -8  13  13    0.41    0.11 
  -7  13  13   -0.11    0.09 
  -6  13  13    0.41    0.14 
  -5  13  13   -0.03    0.13 
  -4  13  13    0.04    0.11 
  -3  13  13    1.01    0.20 
  -2  13  13    0.28    0.14 
  -1  13  13    0.07    0.11 
   0  13  13    0.21    0.13 
   1  13  13   -0.10    0.10 
   2  13  13    0.10    0.09 
  -7  14  13    0.78    0.15 
  -6  14  13    0.16    0.11 
  -5  14  13    0.70    0.15 
  -4  14  13   -0.10    0.10 
  -3  14  13    0.34    0.14 
  -2  14  13   -0.03    0.10 
  -1  14  13    2.19    0.27 
   0  14  13    1.15    0.16 
   1  14  13    0.00    0.09 
  -6  15  13    0.99    0.16 
  -5  15  13    0.03    0.10 
  -4  15  13   -0.02    0.10 
  -3  15  13   -0.07    0.12 
  -2  15  13    0.34    0.12 
  -1  15  13    0.06    0.09 
   0  15  13    0.08    0.09 
  -5  16  13    0.58    0.13 
  -4  16  13    0.12    0.09 
  -3  16  13    0.03    0.09 
  -2  16  13    0.08    0.10 
  -1  16  13    0.04    0.07 
  -5 -14  14    0.06    0.06 
  -4 -14  14   -0.02    0.06 
  -3 -14  14    0.19    0.08 
  -2 -14  14    0.03    0.07 
  -1 -14  14    1.28    0.18 
  -6 -13  14   -0.01    0.07 
  -5 -13  14    0.30    0.08 
  -4 -13  14    0.10    0.10 
  -3 -13  14   -0.10    0.08 
  -2 -13  14    0.32    0.09 
  -1 -13  14    0.03    0.07 
   0 -13  14    0.13    0.07 
  -7 -12  14    0.91    0.13 
  -6 -12  14    0.33    0.12 
  -5 -12  14    0.04    0.10 
  -4 -12  14    0.00    0.10 
  -3 -12  14    0.18    0.11 
  -2 -12  14    0.26    0.11 
  -1 -12  14    0.14    0.09 
   0 -12  14    0.25    0.10 
   1 -12  14    1.04    0.13 
  -8 -11  14    0.12    0.08 
  -7 -11  14    0.08    0.09 
  -6 -11  14    1.28    0.20 
  -5 -11  14    2.67    0.31 
  -4 -11  14    1.07    0.18 
  -3 -11  14    0.09    0.10 
  -2 -11  14   -0.07    0.11 
  -1 -11  14    1.89    0.26 
   0 -11  14    0.15    0.09 
   1 -11  14    0.54    0.11 
   2 -11  14    0.00    0.06 
  -8 -10  14   -0.08    0.08 
  -7 -10  14    3.63    0.45 
  -6 -10  14    1.88    0.26 
  -5 -10  14    0.54    0.13 
  -4 -10  14    0.64    0.17 
  -3 -10  14    0.75    0.16 
  -2 -10  14    0.47    0.14 
  -1 -10  14    7.17    0.77 
   0 -10  14    0.06    0.09 
   1 -10  14    0.01    0.09 
   2 -10  14    0.07    0.07 
  -9  -9  14   -0.01    0.07 
  -8  -9  14    3.01    0.34 
  -7  -9  14    0.74    0.12 
  -6  -9  14   -0.08    0.12 
  -5  -9  14   -0.15    0.11 
  -4  -9  14   -0.23    0.11 
  -3  -9  14    0.25    0.15 
  -2  -9  14    0.29    0.13 
  -1  -9  14    0.50    0.13 
   0  -9  14    0.34    0.12 
   1  -9  14    1.19    0.18 
   2  -9  14    0.30    0.12 
   3  -9  14    0.10    0.08 
  -9  -8  14    2.71    0.34 
  -8  -8  14    0.18    0.10 
  -7  -8  14    1.37    0.24 
  -6  -8  14    0.07    0.11 
  -5  -8  14    1.16    0.21 
  -4  -8  14    0.64    0.17 
  -3  -8  14    0.24    0.13 
  -2  -8  14    2.72    0.31 
  -1  -8  14    0.96    0.17 
   0  -8  14   -0.04    0.12 
   1  -8  14    0.06    0.13 
   2  -8  14    0.12    0.11 
   3  -8  14    0.28    0.09 
 -10  -7  14    0.06    0.08 
  -9  -7  14    0.01    0.09 
  -8  -7  14    0.81    0.14 
  -7  -7  14    2.70    0.34 
  -6  -7  14    1.94    0.25 
  -5  -7  14    0.43    0.14 
  -4  -7  14    0.22    0.15 
  -3  -7  14    0.15    0.12 
  -2  -7  14    0.32    0.15 
  -1  -7  14    0.77    0.17 
   0  -7  14    0.59    0.15 
   1  -7  14    0.24    0.15 
   2  -7  14    0.04    0.12 
   3  -7  14    0.09    0.12 
 -10  -6  14    0.42    0.12 
  -9  -6  14    0.41    0.11 
  -8  -6  14    2.10    0.22 
  -7  -6  14    0.25    0.11 
  -6  -6  14    0.92    0.20 
  -5  -6  14    0.04    0.13 
  -4  -6  14    0.48    0.17 
  -3  -6  14    0.53    0.15 
  -2  -6  14    0.03    0.13 
  -1  -6  14    4.98    0.54 
   0  -6  14    0.54    0.17 
   1  -6  14   -0.14    0.13 
   2  -6  14    0.12    0.15 
   3  -6  14    0.21    0.12 
   4  -6  14    0.99    0.33 
 -10  -5  14    0.01    0.07 
  -9  -5  14    0.11    0.09 
  -8  -5  14    0.72    0.15 
  -7  -5  14    2.09    0.31 
  -6  -5  14    2.27    0.33 
  -5  -5  14    0.62    0.16 
  -4  -5  14    0.75    0.15 
  -3  -5  14    0.59    0.19 
  -2  -5  14    2.81    0.27 
  -1  -5  14    0.11    0.13 
   0  -5  14    0.47    0.19 
   1  -5  14    1.70    0.26 
   2  -5  14   -0.05    0.16 
   3  -5  14   -0.15    0.12 
   4  -5  14   -0.03    0.09 
 -10  -4  14    0.79    0.11 
  -9  -4  14    1.61    0.17 
  -8  -4  14   -0.13    0.09 
  -7  -4  14    0.11    0.13 
  -6  -4  14   -0.09    0.12 
  -5  -4  14    1.43    0.23 
  -4  -4  14    0.75    0.17 
  -3  -4  14    0.28    0.13 
  -2  -4  14    0.07    0.11 
  -1  -4  14    0.27    0.13 
   0  -4  14    2.02    0.30 
   1  -4  14   -0.24    0.15 
   2  -4  14    0.07    0.16 
   3  -4  14   -0.08    0.19 
   4  -4  14    0.02    0.09 
 -10  -3  14    0.37    0.09 
  -9  -3  14    0.10    0.10 
  -8  -3  14    0.19    0.11 
  -7  -3  14    0.38    0.14 
  -6  -3  14    0.88    0.17 
  -5  -3  14    1.42    0.21 
  -4  -3  14    0.13    0.15 
  -3  -3  14    1.40    0.21 
  -2  -3  14    0.28    0.12 
  -1  -3  14    0.13    0.14 
   0  -3  14    0.14    0.16 
   1  -3  14    0.28    0.18 
   2  -3  14    0.27    0.16 
   3  -3  14    0.03    0.14 
   4  -3  14   -0.24    0.15 
 -10  -2  14   -0.15    0.07 
  -9  -2  14    0.14    0.10 
  -8  -2  14    1.27    0.17 
  -7  -2  14    0.07    0.12 
  -6  -2  14   -0.09    0.12 
  -5  -2  14   -0.01    0.12 
  -4  -2  14    0.79    0.17 
  -3  -2  14    0.01    0.13 
  -2  -2  14    0.42    0.14 
  -1  -2  14    0.11    0.13 
   0  -2  14    0.63    0.19 
   1  -2  14    0.35    0.20 
   2  -2  14    0.23    0.27 
   3  -2  14   -0.02    0.15 
   4  -2  14    0.05    0.17 
 -10  -1  14    0.02    0.08 
  -9  -1  14    0.13    0.09 
  -8  -1  14    1.59    0.18 
  -7  -1  14    1.19    0.19 
  -6  -1  14   -0.14    0.12 
  -5  -1  14    0.23    0.15 
  -4  -1  14    0.57    0.16 
  -3  -1  14    1.41    0.23 
  -2  -1  14    4.40    0.54 
  -1  -1  14    1.39    0.20 
   0  -1  14    0.00    0.15 
   1  -1  14    0.02    0.18 
   2  -1  14    0.13    0.20 
   3  -1  14    0.19    0.24 
   4  -1  14    0.40    0.16 
 -11   0  14    0.10    0.15 
 -10   0  14    0.21    0.09 
  -9   0  14    0.89    0.14 
  -8   0  14    0.03    0.11 
  -7   0  14    0.32    0.15 
  -6   0  14    0.59    0.16 
  -5   0  14    0.39    0.16 
  -4   0  14    4.13    0.43 
  -3   0  14    6.73    0.67 
  -2   0  14    3.91    0.42 
  -1   0  14    1.02    0.23 
   0   0  14    4.10    0.52 
   1   0  14    4.48    0.95 
   2   0  14    0.13    0.17 
   3   0  14    1.58    0.45 
   4   0  14   -0.03    0.24 
 -10   1  14   -0.05    0.07 
  -9   1  14   -0.02    0.09 
  -8   1  14    1.07    0.16 
  -7   1  14    1.02    0.19 
  -6   1  14    0.23    0.14 
  -5   1  14   -0.03    0.13 
  -4   1  14    0.89    0.19 
  -3   1  14    2.38    0.26 
  -2   1  14    4.55    0.45 
  -1   1  14    1.20    0.27 
   0   1  14    0.00    0.15 
   1   1  14   -0.03    0.18 
   2   1  14    0.71    0.31 
   3   1  14   -0.14    0.18 
   4   1  14    0.21    0.23 
 -10   2  14    0.00    0.07 
  -9   2  14    0.00    0.09 
  -8   2  14    1.27    0.18 
  -7   2  14    0.15    0.12 
  -6   2  14    0.19    0.16 
  -5   2  14    0.09    0.13 
  -4   2  14    0.68    0.17 
  -3   2  14    0.10    0.15 
  -2   2  14    0.06    0.14 
  -1   2  14   -0.07    0.14 
   0   2  14    0.69    0.23 
   1   2  14    0.37    0.22 
   2   2  14   -0.10    0.15 
   3   2  14    0.02    0.18 
   4   2  14   -0.06    0.12 
 -10   3  14    0.22    0.09 
  -9   3  14    0.05    0.09 
  -8   3  14    0.26    0.11 
  -7   3  14    0.36    0.15 
  -6   3  14    0.88    0.21 
  -5   3  14    1.38    0.23 
  -4   3  14    0.41    0.15 
  -3   3  14    1.39    0.21 
  -2   3  14   -0.02    0.14 
  -1   3  14    0.42    0.17 
   0   3  14    0.53    0.20 
   1   3  14    0.10    0.21 
   2   3  14    0.13    0.17 
   3   3  14   -0.05    0.21 
   4   3  14    0.15    0.17 
 -10   4  14    1.12    0.12 
  -9   4  14    1.88    0.17 
  -8   4  14   -0.07    0.10 
  -7   4  14   -0.08    0.13 
  -6   4  14   -0.12    0.15 
  -5   4  14    1.84    0.23 
  -4   4  14    1.11    0.21 
  -3   4  14    0.16    0.15 
  -2   4  14    0.04    0.14 
  -1   4  14    0.24    0.15 
   0   4  14    1.43    0.32 
   1   4  14    0.16    0.18 
   2   4  14    0.08    0.18 
   3   4  14    0.07    0.15 
   4   4  14   -0.17    0.13 
 -10   5  14   -0.03    0.06 
  -9   5  14   -0.04    0.09 
  -8   5  14    0.98    0.15 
  -7   5  14    2.94    0.30 
  -6   5  14    2.47    0.36 
  -5   5  14    0.66    0.19 
  -4   5  14    0.50    0.17 
  -3   5  14    0.84    0.18 
  -2   5  14    2.18    0.28 
  -1   5  14    0.03    0.14 
   0   5  14    0.78    0.23 
   1   5  14    1.38    0.27 
   2   5  14   -0.22    0.17 
   3   5  14    0.06    0.14 
   4   5  14    0.07    0.12 
 -10   6  14    0.71    0.11 
  -9   6  14    0.37    0.11 
  -8   6  14    1.93    0.27 
  -7   6  14   -0.06    0.13 
  -6   6  14    1.02    0.24 
  -5   6  14    0.36    0.19 
  -4   6  14    1.20    0.22 
  -3   6  14    0.38    0.17 
  -2   6  14    0.18    0.15 
  -1   6  14    4.64    0.55 
   0   6  14    0.22    0.20 
   1   6  14   -0.04    0.17 
   2   6  14    0.07    0.15 
   3   6  14    0.09    0.15 
   4   6  14    1.04    0.24 
 -10   7  14   -0.04    0.10 
  -9   7  14    0.14    0.09 
  -8   7  14    0.69    0.16 
  -7   7  14    2.50    0.35 
  -6   7  14    1.43    0.26 
  -5   7  14    0.45    0.19 
  -4   7  14    0.43    0.19 
  -3   7  14    0.33    0.17 
  -2   7  14    0.44    0.20 
  -1   7  14    0.68    0.19 
   0   7  14    0.77    0.21 
   1   7  14    0.22    0.19 
   2   7  14   -0.14    0.13 
   3   7  14    0.30    0.14 
  -9   8  14    3.31    0.36 
  -8   8  14   -0.06    0.10 
  -7   8  14    1.18    0.23 
  -6   8  14    0.05    0.13 
  -5   8  14    1.11    0.21 
  -4   8  14    0.90    0.22 
  -3   8  14    0.25    0.17 
  -2   8  14    2.89    0.34 
  -1   8  14    1.41    0.22 
   0   8  14    0.20    0.17 
   1   8  14    0.27    0.16 
   2   8  14    0.11    0.15 
   3   8  14    0.51    0.15 
  -9   9  14    0.03    0.08 
  -8   9  14    3.03    0.36 
  -7   9  14    0.38    0.14 
  -6   9  14   -0.02    0.12 
  -5   9  14   -0.05    0.13 
  -4   9  14   -0.22    0.15 
  -3   9  14    0.59    0.19 
  -2   9  14    0.58    0.17 
  -1   9  14    0.56    0.16 
   0   9  14    0.36    0.17 
   1   9  14    1.35    0.21 
   2   9  14    0.34    0.16 
   3   9  14    0.30    0.12 
  -8  10  14    0.01    0.10 
  -7  10  14    3.27    0.47 
  -6  10  14    1.90    0.27 
  -5  10  14    0.57    0.17 
  -4  10  14    0.51    0.16 
  -3  10  14    0.60    0.19 
  -2  10  14    0.63    0.19 
  -1  10  14    7.89    0.71 
   0  10  14    0.24    0.15 
   1  10  14    0.10    0.13 
   2  10  14    0.01    0.10 
  -8  11  14    0.09    0.08 
  -7  11  14   -0.08    0.09 
  -6  11  14    1.40    0.21 
  -5  11  14    2.17    0.31 
  -4  11  14    0.89    0.20 
  -3  11  14    0.38    0.14 
  -2  11  14    0.03    0.14 
  -1  11  14    3.01    0.30 
   0  11  14    0.16    0.12 
   1  11  14    1.19    0.18 
   2  11  14    0.11    0.09 
  -7  12  14    0.63    0.13 
  -6  12  14    0.22    0.13 
  -5  12  14    0.02    0.10 
  -4  12  14   -0.03    0.12 
  -3  12  14    0.27    0.14 
  -2  12  14    0.22    0.13 
  -1  12  14   -0.08    0.11 
   0  12  14    0.25    0.11 
   1  12  14    1.73    0.19 
  -6  13  14    0.15    0.11 
  -5  13  14    0.03    0.12 
  -4  13  14    0.05    0.09 
  -3  13  14    0.15    0.11 
  -2  13  14    0.19    0.11 
  -1  13  14    0.05    0.10 
   0  13  14    0.08    0.10 
  -5  14  14    0.16    0.11 
  -4  14  14   -0.02    0.10 
  -3  14  14    0.30    0.11 
  -2  14  14    0.04    0.08 
  -1  14  14    0.75    0.17 
  -5 -12  15   -0.09    0.06 
  -4 -12  15    0.50    0.08 
  -3 -12  15    0.16    0.07 
  -2 -12  15    0.34    0.07 
  -6 -11  15    1.01    0.16 
  -5 -11  15    0.31    0.10 
  -4 -11  15    0.39    0.10 
  -3 -11  15    0.04    0.08 
  -2 -11  15    0.01    0.07 
  -1 -11  15    0.11    0.07 
   0 -11  15    1.21    0.26 
  -7 -10  15    1.82    0.23 
  -6 -10  15    0.71    0.12 
  -5 -10  15   -0.05    0.09 
  -4 -10  15    1.05    0.17 
  -3 -10  15   -0.09    0.09 
  -2 -10  15    0.03    0.09 
  -1 -10  15   -0.06    0.07 
   0 -10  15    0.19    0.07 
  -8  -9  15    0.61    0.23 
  -7  -9  15    0.70    0.15 
  -6  -9  15    0.10    0.10 
  -5  -9  15   -0.02    0.10 
  -4  -9  15   -0.01    0.11 
  -3  -9  15    0.61    0.14 
  -2  -9  15    0.83    0.14 
  -1  -9  15    0.45    0.12 
   0  -9  15    0.13    0.09 
   1  -9  15    0.02    0.06 
  -8  -8  15    0.08    0.08 
  -7  -8  15    0.29    0.10 
  -6  -8  15    0.65    0.14 
  -5  -8  15    0.30    0.13 
  -4  -8  15   -0.03    0.11 
  -3  -8  15    0.07    0.12 
  -2  -8  15    0.50    0.13 
  -1  -8  15    0.27    0.10 
   0  -8  15    0.08    0.09 
   1  -8  15    0.08    0.06 
   2  -8  15    2.00    0.29 
  -8  -7  15    0.11    0.09 
  -7  -7  15    0.65    0.14 
  -6  -7  15   -0.04    0.10 
  -5  -7  15    0.17    0.11 
  -4  -7  15    0.10    0.12 
  -3  -7  15    0.13    0.11 
  -2  -7  15    0.10    0.12 
  -1  -7  15    0.06    0.10 
   0  -7  15    0.21    0.10 
   1  -7  15    0.06    0.09 
   2  -7  15    0.18    0.06 
  -9  -6  15    0.32    0.09 
  -8  -6  15    0.78    0.15 
  -7  -6  15    2.03    0.32 
  -6  -6  15    4.23    0.58 
  -5  -6  15    0.32    0.12 
  -4  -6  15    1.25    0.20 
  -3  -6  15    0.07    0.11 
  -2  -6  15    3.44    0.34 
  -1  -6  15    0.10    0.11 
   0  -6  15    0.64    0.13 
   1  -6  15    0.17    0.11 
   2  -6  15   -0.10    0.07 
  -9  -5  15    0.27    0.10 
  -8  -5  15    0.51    0.14 
  -7  -5  15    0.35    0.12 
  -6  -5  15    0.59    0.15 
  -5  -5  15   -0.09    0.11 
  -4  -5  15    0.53    0.15 
  -3  -5  15    0.65    0.15 
  -2  -5  15   -0.01    0.11 
  -1  -5  15    0.88    0.17 
   0  -5  15    0.27    0.12 
   1  -5  15    0.76    0.15 
   2  -5  15    0.03    0.08 
  -9  -4  15    0.13    0.09 
  -8  -4  15    0.07    0.10 
  -7  -4  15    0.40    0.14 
  -6  -4  15    0.08    0.11 
  -5  -4  15    2.51    0.34 
  -4  -4  15    1.00    0.17 
  -3  -4  15    0.28    0.13 
  -2  -4  15    0.02    0.12 
  -1  -4  15    0.17    0.11 
   0  -4  15    0.12    0.14 
   1  -4  15   -0.05    0.11 
   2  -4  15   -0.04    0.09 
   3  -4  15    0.92    0.19 
  -9  -3  15    2.62    0.36 
  -8  -3  15    2.32    0.34 
  -7  -3  15    0.10    0.13 
  -6  -3  15    0.09    0.11 
  -5  -3  15    0.90    0.17 
  -4  -3  15    0.21    0.17 
  -3  -3  15    1.27    0.19 
  -2  -3  15    0.58    0.17 
  -1  -3  15    0.77    0.16 
   0  -3  15    0.49    0.15 
   1  -3  15   -0.02    0.12 
   2  -3  15    0.00    0.10 
   3  -3  15    0.01    0.07 
  -9  -2  15    0.52    0.13 
  -8  -2  15    0.11    0.10 
  -7  -2  15    0.11    0.14 
  -6  -2  15    0.50    0.16 
  -5  -2  15    0.11    0.12 
  -4  -2  15    0.05    0.14 
  -3  -2  15    0.11    0.13 
  -2  -2  15    0.13    0.12 
  -1  -2  15   -0.06    0.13 
   0  -2  15    0.39    0.13 
   1  -2  15    0.13    0.13 
   2  -2  15    1.14    0.25 
   3  -2  15   -0.10    0.07 
 -10  -1  15    0.12    0.19 
  -9  -1  15    0.13    0.11 
  -8  -1  15    0.06    0.12 
  -7  -1  15    0.08    0.12 
  -6  -1  15   -0.21    0.13 
  -5  -1  15    0.30    0.15 
  -4  -1  15    0.06    0.13 
  -3  -1  15    2.12    0.30 
  -2  -1  15    0.11    0.12 
  -1  -1  15   -0.14    0.11 
   0  -1  15    0.42    0.16 
   1  -1  15    0.28    0.14 
   2  -1  15    0.02    0.14 
   3  -1  15    0.22    0.14 
 -10   0  15    0.04    0.09 
  -9   0  15    0.14    0.10 
  -8   0  15   -0.07    0.11 
  -7   0  15    0.20    0.15 
  -6   0  15   -0.07    0.13 
  -5   0  15    0.03    0.15 
  -4   0  15    0.06    0.13 
  -3   0  15    0.12    0.12 
  -2   0  15    0.13    0.12 
  -1   0  15    0.07    0.13 
   0   0  15    0.05    0.12 
   1   0  15    0.08    0.13 
   2   0  15   -0.04    0.11 
   3   0  15    0.05    0.11 
 -10   1  15    0.23    0.21 
  -9   1  15    0.25    0.10 
  -8   1  15   -0.02    0.12 
  -7   1  15    0.00    0.14 
  -6   1  15    0.05    0.13 
  -5   1  15   -0.12    0.13 
  -4   1  15    0.35    0.16 
  -3   1  15    1.69    0.26 
  -2   1  15    0.08    0.13 
  -1   1  15   -0.04    0.13 
   0   1  15    0.29    0.14 
   1   1  15    0.29    0.16 
   2   1  15    0.07    0.12 
   3   1  15    0.14    0.10 
  -9   2  15    0.46    0.12 
  -8   2  15    0.06    0.10 
  -7   2  15    0.05    0.15 
  -6   2  15    0.31    0.17 
  -5   2  15    0.06    0.15 
  -4   2  15   -0.07    0.15 
  -3   2  15    0.18    0.13 
  -2   2  15    0.27    0.13 
  -1   2  15    0.14    0.14 
   0   2  15    0.28    0.14 
   1   2  15   -0.29    0.12 
   2   2  15    1.03    0.24 
   3   2  15   -0.05    0.08 
  -9   3  15    2.58    0.32 
  -8   3  15    2.42    0.39 
  -7   3  15    0.22    0.13 
  -6   3  15    0.03    0.15 
  -5   3  15    0.45    0.19 
  -4   3  15   -0.06    0.13 
  -3   3  15    0.85    0.22 
  -2   3  15    0.53    0.16 
  -1   3  15    0.94    0.17 
   0   3  15    0.64    0.19 
   1   3  15    0.00    0.14 
   2   3  15   -0.04    0.11 
   3   3  15    0.21    0.12 
  -9   4  15    0.20    0.10 
  -8   4  15   -0.12    0.10 
  -7   4  15    0.14    0.14 
  -6   4  15    0.41    0.14 
  -5   4  15    2.69    0.37 
  -4   4  15    0.94    0.20 
  -3   4  15    0.45    0.16 
  -2   4  15    0.05    0.15 
  -1   4  15    0.25    0.14 
   0   4  15    0.04    0.14 
   1   4  15   -0.01    0.13 
   2   4  15   -0.10    0.11 
   3   4  15    0.75    0.19 
  -9   5  15    0.62    0.12 
  -8   5  15    0.81    0.15 
  -7   5  15    0.37    0.15 
  -6   5  15    0.75    0.19 
  -5   5  15   -0.10    0.14 
  -4   5  15    0.86    0.21 
  -3   5  15    0.59    0.17 
  -2   5  15   -0.29    0.12 
  -1   5  15    1.02    0.18 
   0   5  15    0.07    0.13 
   1   5  15    1.02    0.18 
   2   5  15    0.44    0.14 
  -9   6  15    0.20    0.09 
  -8   6  15    1.13    0.16 
  -7   6  15    2.56    0.33 
  -6   6  15    2.95    0.49 
  -5   6  15    0.33    0.16 
  -4   6  15    0.89    0.22 
  -3   6  15    0.21    0.17 
  -2   6  15    2.93    0.36 
  -1   6  15    0.03    0.13 
   0   6  15    0.61    0.17 
   1   6  15    0.09    0.12 
   2   6  15   -0.02    0.11 
  -8   7  15    0.21    0.09 
  -7   7  15    0.62    0.15 
  -6   7  15   -0.02    0.12 
  -5   7  15    0.29    0.15 
  -4   7  15    0.11    0.14 
  -3   7  15   -0.11    0.16 
  -2   7  15    0.27    0.16 
  -1   7  15   -0.06    0.12 
   0   7  15   -0.06    0.13 
   1   7  15   -0.07    0.10 
   2   7  15    0.07    0.09 
  -8   8  15    0.11    0.08 
  -7   8  15    0.19    0.10 
  -6   8  15    0.26    0.14 
  -5   8  15    0.18    0.14 
  -4   8  15    0.32    0.15 
  -3   8  15   -0.05    0.13 
  -2   8  15    0.39    0.17 
  -1   8  15    0.15    0.13 
   0   8  15    0.11    0.11 
   1   8  15   -0.07    0.09 
   2   8  15    1.05    0.36 
  -7   9  15    0.67    0.14 
  -6   9  15   -0.16    0.10 
  -5   9  15   -0.03    0.12 
  -4   9  15    0.27    0.14 
  -3   9  15    0.64    0.17 
  -2   9  15    1.16    0.20 
  -1   9  15    0.20    0.14 
   0   9  15    0.24    0.10 
   1   9  15   -0.07    0.08 
  -7  10  15    1.73    0.25 
  -6  10  15    0.23    0.11 
  -5  10  15    0.01    0.11 
  -4  10  15    1.08    0.18 
  -3  10  15    0.14    0.12 
  -2  10  15   -0.07    0.11 
  -1  10  15    0.00    0.11 
   0  10  15    0.51    0.13 
  -6  11  15    0.72    0.13 
  -5  11  15    0.30    0.11 
  -4  11  15    0.40    0.13 
  -3  11  15    0.11    0.11 
  -2  11  15   -0.09    0.10 
  -1  11  15    0.12    0.12 
   0  11  15    1.62    0.24 
  -5  12  15    0.02    0.07 
  -4  12  15    0.21    0.10 
  -3  12  15    0.03    0.11 
  -2  12  15    0.34    0.10 
  -5  -9  16   -0.08    0.09 
  -4  -9  16    0.31    0.11 
  -3  -9  16   -0.04    0.06 
  -2  -9  16    0.06    0.06 
  -6  -8  16    0.09    0.08 
  -5  -8  16   -0.02    0.08 
  -4  -8  16   -0.04    0.08 
  -3  -8  16    0.48    0.12 
  -2  -8  16    0.01    0.07 
  -1  -8  16    1.21    0.24 
  -7  -7  16    1.07    0.18 
  -6  -7  16   -0.07    0.09 
  -5  -7  16    1.13    0.17 
  -4  -7  16   -0.04    0.09 
  -3  -7  16   -0.04    0.10 
  -2  -7  16   -0.04    0.08 
  -1  -7  16    0.11    0.07 
   0  -7  16    2.38    0.25 
  -7  -6  16    0.62    0.13 
  -6  -6  16    0.54    0.13 
  -5  -6  16    0.92    0.17 
  -4  -6  16   -0.01    0.10 
  -3  -6  16    0.05    0.10 
  -2  -6  16    0.08    0.10 
  -1  -6  16    2.49    0.31 
   0  -6  16    0.01    0.06 
  -8  -5  16   -0.08    0.18 
  -7  -5  16   -0.09    0.10 
  -6  -5  16    0.56    0.13 
  -5  -5  16    0.12    0.10 
  -4  -5  16    0.33    0.13 
  -3  -5  16    0.27    0.12 
  -2  -5  16    0.16    0.09 
  -1  -5  16    0.00    0.09 
   0  -5  16   -0.02    0.07 
   1  -5  16    0.42    0.09 
  -8  -4  16    0.31    0.09 
  -7  -4  16    0.15    0.11 
  -6  -4  16    0.03    0.10 
  -5  -4  16    0.10    0.11 
  -4  -4  16    0.10    0.10 
  -3  -4  16    0.08    0.11 
  -2  -4  16    0.18    0.10 
  -1  -4  16    0.22    0.10 
   0  -4  16    0.01    0.09 
   1  -4  16    0.44    0.08 
  -8  -3  16    0.07    0.09 
  -7  -3  16    0.02    0.10 
  -6  -3  16    1.53    0.23 
  -5  -3  16    2.19    0.29 
  -4  -3  16    0.28    0.12 
  -3  -3  16    0.06    0.10 
  -2  -3  16    0.01    0.11 
  -1  -3  16   -0.01    0.10 
   0  -3  16    0.60    0.13 
   1  -3  16   -0.03    0.07 
  -8  -2  16    0.68    0.16 
  -7  -2  16    0.47    0.14 
  -6  -2  16    0.19    0.12 
  -5  -2  16   -0.10    0.11 
  -4  -2  16    0.14    0.13 
  -3  -2  16    0.22    0.12 
  -2  -2  16   -0.08    0.09 
  -1  -2  16   -0.11    0.10 
   0  -2  16    0.01    0.08 
   1  -2  16    0.08    0.07 
  -8  -1  16   -0.01    0.11 
  -7  -1  16   -0.03    0.11 
  -6  -1  16    1.95    0.28 
  -5  -1  16    0.04    0.12 
  -4  -1  16    0.45    0.14 
  -3  -1  16   -0.07    0.12 
  -2  -1  16    0.23    0.11 
  -1  -1  16    0.10    0.11 
   0  -1  16   -0.11    0.08 
   1  -1  16    0.24    0.08 
  -8   0  16    0.19    0.10 
  -7   0  16    0.22    0.13 
  -6   0  16    2.22    0.31 
  -5   0  16    5.07    0.59 
  -4   0  16    0.15    0.11 
  -3   0  16    1.15    0.22 
  -2   0  16    0.03    0.11 
  -1   0  16    0.96    0.15 
   0   0  16    0.37    0.12 
   1   0  16   -0.15    0.08 
  -8   1  16   -0.17    0.09 
  -7   1  16   -0.17    0.11 
  -6   1  16    1.99    0.25 
  -5   1  16    0.31    0.13 
  -4   1  16    0.34    0.15 
  -3   1  16   -0.14    0.10 
  -2   1  16    0.24    0.13 
  -1   1  16    0.20    0.11 
   0   1  16    0.14    0.09 
   1   1  16    0.16    0.09 
  -8   2  16    1.04    0.17 
  -7   2  16    0.66    0.16 
  -6   2  16    0.62    0.14 
  -5   2  16    0.06    0.13 
  -4   2  16    0.25    0.15 
  -3   2  16    0.19    0.14 
  -2   2  16    0.05    0.10 
  -1   2  16   -0.04    0.11 
   0   2  16    0.15    0.09 
   1   2  16   -0.06    0.08 
  -8   3  16    0.24    0.11 
  -7   3  16    0.27    0.13 
  -6   3  16    1.18    0.24 
  -5   3  16    1.40    0.28 
  -4   3  16    0.09    0.14 
  -3   3  16   -0.10    0.12 
  -2   3  16   -0.01    0.10 
  -1   3  16   -0.01    0.11 
   0   3  16    0.70    0.13 
   1   3  16    0.09    0.08 
  -8   4  16    0.36    0.10 
  -7   4  16   -0.04    0.11 
  -6   4  16    0.18    0.14 
  -5   4  16    0.00    0.13 
  -4   4  16    0.21    0.13 
  -3   4  16    0.13    0.12 
  -2   4  16   -0.10    0.12 
  -1   4  16    0.26    0.11 
   0   4  16    0.18    0.10 
   1   4  16    0.28    0.09 
  -7   5  16   -0.03    0.09 
  -6   5  16    0.32    0.16 
  -5   5  16   -0.07    0.12 
  -4   5  16    0.47    0.16 
  -3   5  16    0.07    0.11 
  -2   5  16    0.07    0.12 
  -1   5  16   -0.07    0.10 
   0   5  16    0.08    0.09 
   1   5  16    0.67    0.13 
  -7   6  16    0.73    0.14 
  -6   6  16    0.75    0.15 
  -5   6  16    0.75    0.17 
  -4   6  16   -0.03    0.13 
  -3   6  16    0.01    0.12 
  -2   6  16    0.09    0.11 
  -1   6  16    2.71    0.38 
   0   6  16   -0.04    0.09 
  -7   7  16    1.50    0.20 
  -6   7  16    0.09    0.09 
  -5   7  16    1.25    0.21 
  -4   7  16   -0.07    0.12 
  -3   7  16   -0.04    0.11 
  -2   7  16    0.16    0.12 
  -1   7  16   -0.09    0.09 
   0   7  16    1.54    0.21 
  -6   8  16   -0.03    0.08 
  -5   8  16    0.13    0.10 
  -4   8  16    0.04    0.12 
  -3   8  16    0.64    0.14 
  -2   8  16    0.16    0.11 
  -1   8  16    1.29    0.22 
  -5   9  16   -0.06    0.08 
  -4   9  16    0.25    0.11 
  -3   9  16    0.06    0.11 
  -2   9  16   -0.06    0.08 
  -4  -5  17    0.15    0.09 
  -3  -5  17    0.78    0.28 
  -5  -4  17    0.11    0.08 
  -4  -4  17    0.43    0.14 
  -3  -4  17    0.07    0.08 
  -2  -4  17    0.53    0.12 
  -6  -3  17    0.36    0.25 
  -5  -3  17    2.17    0.29 
  -4  -3  17    0.15    0.09 
  -3  -3  17    0.34    0.12 
  -2  -3  17    0.16    0.08 
  -6  -2  17    0.42    0.15 
  -5  -2  17    0.80    0.16 
  -4  -2  17   -0.04    0.09 
  -3  -2  17    0.10    0.09 
  -2  -2  17    0.93    0.14 
  -6  -1  17    0.04    0.08 
  -5  -1  17    1.57    0.26 
  -4  -1  17    0.00    0.09 
  -3  -1  17    0.52    0.13 
  -2  -1  17    0.88    0.15 
  -1  -1  17    0.14    0.11 
  -6   0  17   -0.12    0.08 
  -5   0  17   -0.03    0.09 
  -4   0  17   -0.10    0.10 
  -3   0  17    0.06    0.09 
  -2   0  17    0.03    0.08 
  -1   0  17   -0.03    0.09 
  -6   1  17   -0.14    0.10 
  -5   1  17    1.30    0.26 
  -4   1  17   -0.05    0.09 
  -3   1  17    0.47    0.13 
  -2   1  17    0.48    0.13 
  -1   1  17    0.01    0.11 
  -6   2  17    0.80    0.18 
  -5   2  17    0.65    0.14 
  -4   2  17    0.03    0.10 
  -3   2  17    0.21    0.10 
  -2   2  17    0.61    0.14 
  -6   3  17    0.59    0.18 
  -5   3  17    1.75    0.33 
  -4   3  17    0.21    0.10 
  -3   3  17    0.22    0.10 
  -2   3  17   -0.02    0.10 
  -5   4  17    0.12    0.12 
  -4   4  17    0.80    0.17 
  -3   4  17    0.05    0.09 
  -2   4  17    0.02    0.11 
  -4   5  17    0.07    0.11 
  -3   5  17    0.74    0.20 
   0   0   0    0.00    0.00 
;
_shelx_hkl_checksum              75102
loop_
_space_group_symop_operation_xyz
'x, y, z'
'-x, y+1/2, -z+1/2'
'-x, -y, -z'
'x, -y-1/2, z-1/2'
loop_
_atom_site_label
_atom_site_type_symbol
_atom_site_fract_x
_atom_site_fract_y
_atom_site_fract_z
_atom_site_U_iso_or_equiv
_atom_site_adp_type
_atom_site_occupancy
_atom_site_site_symmetry_order
_atom_site_calc_flag
_atom_site_refinement_flags_posn
_atom_site_refinement_flags_adp
_atom_site_refinement_flags_occupancy
_atom_site_disorder_assembly
_atom_site_disorder_group
C1 C 0.55336(18) 0.60272(9) 0.50257(14) 0.0365(4) Uani 1 1 d . . . . .
H1 H 0.5885 0.6026 0.5710 0.044 Uiso 1 1 calc R U . . .
C2 C 0.43417(17) 0.61767(9) 0.47310(13) 0.0343(4) Uani 1 1 d . . . . .
C3 C 0.36387(17) 0.63320(9) 0.54337(13) 0.0346(4) Uani 1 1 d . . . . .
C4 C 0.24331(18) 0.64428(10) 0.51328(14) 0.0378(4) Uani 1 1 d . . . . .
H4 H 0.2116 0.6428 0.4445 0.045 Uiso 1 1 calc R U . . .
C11 C 0.63666(18) 0.58655(10) 0.44279(14) 0.0376(4) Uani 1 1 d . . . . .
C12 C 0.6269(2) 0.61407(11) 0.35028(16) 0.0477(5) Uani 1 1 d . . . . .
H12 H 0.5633 0.6442 0.3237 0.057 Uiso 1 1 calc R U . . .
C13 C 0.7074(2) 0.59821(14) 0.29814(17) 0.0569(6) Uani 1 1 d . . . . .
H13 H 0.6981 0.6178 0.2361 0.068 Uiso 1 1 calc R U . . .
C14 C 0.8014(2) 0.55474(14) 0.33273(17) 0.0591(7) Uani 1 1 d D . . . .
C15 C 0.8128(2) 0.52708(12) 0.42485(17) 0.0507(6) Uani 1 1 d . . . . .
H15 H 0.8766 0.4969 0.4509 0.061 Uiso 1 1 calc R U . . .
C16 C 0.73195(18) 0.54339(10) 0.47831(15) 0.0413(5) Uani 1 1 d . . . . .
H16 H 0.7421 0.5245 0.5409 0.050 Uiso 1 1 calc R U . . .
C17A C 0.8825(3) 0.54601(17) 0.2650(2) 0.0359(7) Uani 0.625 1 d D . P A 1
H17A H 0.8954 0.5893 0.2366 0.043 Uiso 0.625 1 calc R U P A 1
C18A C 0.8196(13) 0.4982(7) 0.1816(8) 0.054(3) Uani 0.625 1 d . . P A 1
H18A H 0.8717 0.4921 0.1377 0.065 Uiso 0.625 1 calc R U P A 1
H18B H 0.7414 0.5166 0.1451 0.065 Uiso 0.625 1 calc R U P A 1
H18C H 0.8063 0.4560 0.2096 0.065 Uiso 0.625 1 calc R U P A 1
C19A C 1.0057(3) 0.51749(18) 0.3216(3) 0.0453(8) Uani 0.625 1 d . . P A 1
H19A H 1.0422 0.5457 0.3774 0.054 Uiso 0.625 1 calc R U P A 1
H19B H 1.0597 0.5150 0.2788 0.054 Uiso 0.625 1 calc R U P A 1
H19C H 0.9936 0.4735 0.3449 0.054 Uiso 0.625 1 calc R U P A 1
C17B C 0.8978(6) 0.5125(4) 0.2893(5) 0.0512(16) Uiso 0.375 1 d D . P A 2
H17B H 0.9274 0.4732 0.3308 0.061 Uiso 0.375 1 calc R U P A 2
C18B C 0.832(3) 0.4925(15) 0.1876(17) 0.071(7) Uiso 0.375 1 d . . P A 2
H18D H 0.7666 0.4620 0.1897 0.085 Uiso 0.375 1 calc R U P A 2
H18E H 0.8891 0.4710 0.1570 0.085 Uiso 0.375 1 calc R U P A 2
H18F H 0.7976 0.5313 0.1498 0.085 Uiso 0.375 1 calc R U P A 2
C19B C 1.0001(7) 0.5567(4) 0.2885(6) 0.0651(18) Uiso 0.375 1 d . . P A 2
H19D H 1.0451 0.5672 0.3556 0.078 Uiso 0.375 1 calc R U P A 2
H19E H 0.9685 0.5972 0.2539 0.078 Uiso 0.375 1 calc R U P A 2
H19F H 1.0545 0.5351 0.2554 0.078 Uiso 0.375 1 calc R U P A 2
C21 C 0.36643(17) 0.61481(9) 0.36696(13) 0.0345(4) Uani 1 1 d . . . . .
C22 C 0.3175(2) 0.67031(10) 0.31427(14) 0.0425(5) Uani 1 1 d . . . . .
H22 H 0.3238 0.7114 0.3463 0.051 Uiso 1 1 calc R U . . .
C23 C 0.2597(2) 0.66633(11) 0.21555(15) 0.0467(5) Uani 1 1 d . . . . .
H23 H 0.2274 0.7049 0.1808 0.056 Uiso 1 1 calc R U . . .
C24 C 0.24824(19) 0.60671(10) 0.16646(14) 0.0410(5) Uani 1 1 d D . . . .
C25 C 0.29612(18) 0.55158(10) 0.21945(14) 0.0389(5) Uani 1 1 d . . . . .
H25 H 0.2887 0.5103 0.1876 0.047 Uiso 1 1 calc R U . . .
C26 C 0.35481(17) 0.55524(9) 0.31819(13) 0.0359(4) Uani 1 1 d . . . . .
H26 H 0.3873 0.5167 0.3527 0.043 Uiso 1 1 calc R U . . .
C27A C 0.185(2) 0.6049(13) 0.0580(6) 0.054(3) Uani 0.65 1 d D . P B 1
H27A H 0.1873 0.5584 0.0366 0.065 Uiso 0.65 1 calc R U P B 1
C27B C 0.183(4) 0.595(3) 0.0593(11) 0.054(3) Uani 0.35 1 d D . P B 2
H27B H 0.2353 0.5686 0.0280 0.065 Uiso 0.35 1 calc R U P B 2
C28A C 0.2549(6) 0.6457(3) -0.0006(3) 0.0888(17) Uani 0.65 1 d . . P B 1
H28A H 0.2157 0.6408 -0.0704 0.107 Uiso 0.65 1 calc R U P B 1
H28B H 0.3390 0.6302 0.0137 0.107 Uiso 0.65 1 calc R U P B 1
H28C H 0.2542 0.6919 0.0177 0.107 Uiso 0.65 1 calc R U P B 1
C29A C 0.0569(4) 0.6241(3) 0.0343(4) 0.0886(16) Uani 0.65 1 d . . P B 1
H29A H 0.0194 0.6174 -0.0354 0.106 Uiso 0.65 1 calc R U P B 1
H29B H 0.0508 0.6704 0.0504 0.106 Uiso 0.65 1 calc R U P B 1
H29C H 0.0147 0.5973 0.0720 0.106 Uiso 0.65 1 calc R U P B 1
C28B C 0.1525(12) 0.6595(5) 0.0067(6) 0.086(3) Uani 0.35 1 d . . P B 2
H28D H 0.2277 0.6832 0.0084 0.103 Uiso 0.35 1 calc R U P B 2
H28E H 0.1025 0.6859 0.0385 0.103 Uiso 0.35 1 calc R U P B 2
H28F H 0.1074 0.6513 -0.0612 0.103 Uiso 0.35 1 calc R U P B 2
C29B C 0.0593(7) 0.5587(5) 0.0514(5) 0.068(2) Uani 0.35 1 d . . P B 2
H29D H 0.0760 0.5153 0.0813 0.082 Uiso 0.35 1 calc R U P B 2
H29E H 0.0147 0.5539 -0.0173 0.082 Uiso 0.35 1 calc R U P B 2
H29F H 0.0103 0.5840 0.0853 0.082 Uiso 0.35 1 calc R U P B 2
C31 C 0.43086(16) 0.63483(9) 0.64968(13) 0.0319(4) Uani 1 1 d . . . . .
C32 C 0.47703(18) 0.69320(10) 0.69542(14) 0.0385(4) Uani 1 1 d . . . . .
H32 H 0.4717 0.7321 0.6580 0.046 Uiso 1 1 calc R U . . .
C33 C 0.53062(19) 0.69502(10) 0.79496(14) 0.0420(5) Uani 1 1 d . . . . .
H33 H 0.5619 0.7353 0.8246 0.050 Uiso 1 1 calc R U . . .
C34 C 0.53961(18) 0.63943(10) 0.85224(14) 0.0389(5) Uani 1 1 d D . . . .
C35 C 0.49577(18) 0.58124(10) 0.80598(14) 0.0401(5) Uani 1 1 d . . . . .
H35 H 0.5023 0.5422 0.8433 0.048 Uiso 1 1 calc R U . . .
C36 C 0.44251(18) 0.57868(10) 0.70622(14) 0.0378(4) Uani 1 1 d . . . . .
H36 H 0.4138 0.5381 0.6764 0.045 Uiso 1 1 calc R U . . .
C37A C 0.6035(4) 0.6442(3) 0.9613(4) 0.0440(12) Uani 0.7 1 d D . P C 1
H37A H 0.5722 0.6072 0.9936 0.053 Uiso 0.7 1 calc R U P C 1
C38A C 0.5769(4) 0.7066(2) 1.0094(3) 0.0711(11) Uani 0.7 1 d . . P C 1
H38A H 0.4888 0.7128 0.9950 0.085 Uiso 0.7 1 calc R U P C 1
H38B H 0.6131 0.7439 0.9842 0.085 Uiso 0.7 1 calc R U P C 1
H38C H 0.6117 0.7034 1.0800 0.085 Uiso 0.7 1 calc R U P C 1
C39A C 0.7386(4) 0.6351(3) 0.9827(3) 0.0642(12) Uani 0.7 1 d . . P C 1
H39A H 0.7748 0.6356 1.0533 0.077 Uiso 0.7 1 calc R U P C 1
H39B H 0.7732 0.6706 0.9525 0.077 Uiso 0.7 1 calc R U P C 1
H39C H 0.7559 0.5930 0.9562 0.077 Uiso 0.7 1 calc R U P C 1
C37B C 0.5925(17) 0.6300(12) 0.9621(7) 0.0440(12) Uani 0.15 1 d D . P C 2
H37B H 0.6308 0.5860 0.9776 0.053 Uiso 0.15 1 calc R U P C 2
C38B C 0.4889(16) 0.6401(10) 1.0102(14) 0.070(5) Uiso 0.15 1 d D . P C 2
H38D H 0.5200 0.6344 1.0808 0.084 Uiso 0.15 1 calc R U P C 2
H38E H 0.4559 0.6844 0.9961 0.084 Uiso 0.15 1 calc R U P C 2
H38F H 0.4246 0.6080 0.9844 0.084 Uiso 0.15 1 calc R U P C 2
C39B C 0.6858(18) 0.6853(12) 0.9955(19) 0.086(6) Uiso 0.15 1 d D . P C 2
H39D H 0.7228 0.6817 1.0659 0.103 Uiso 0.15 1 calc R U P C 2
H39E H 0.7491 0.6817 0.9611 0.103 Uiso 0.15 1 calc R U P C 2
H39F H 0.6450 0.7277 0.9810 0.103 Uiso 0.15 1 calc R U P C 2
C37C C 0.572(3) 0.6362(15) 0.963(2) 0.0440(12) Uani 0.15 1 d D . P C 3
H37C H 0.5307 0.6746 0.9832 0.053 Uiso 0.15 1 calc R U P C 3
C38C C 0.5369(19) 0.5775(10) 1.0152(15) 0.076(5) Uiso 0.15 1 d D . P C 3
H38G H 0.5656 0.5842 1.0857 0.091 Uiso 0.15 1 calc R U P C 3
H38H H 0.4483 0.5726 0.9961 0.091 Uiso 0.15 1 calc R U P C 3
H38I H 0.5742 0.5378 0.9973 0.091 Uiso 0.15 1 calc R U P C 3
C39C C 0.708(3) 0.6527(17) 0.994(3) 0.086(6) Uiso 0.15 1 d D . P C 3
H39G H 0.7376 0.6518 1.0650 0.103 Uiso 0.15 1 calc R U P C 3
H39H H 0.7530 0.6205 0.9660 0.103 Uiso 0.15 1 calc R U P C 3
H39I H 0.7208 0.6965 0.9701 0.103 Uiso 0.15 1 calc R U P C 3
C41 C 0.15068(17) 0.65821(9) 0.56468(13) 0.0341(4) Uani 1 1 d . . . . .
C42 C 0.03183(18) 0.66664(10) 0.50753(14) 0.0396(5) Uani 1 1 d . . . . .
H42 H 0.0162 0.6645 0.4387 0.048 Uiso 1 1 calc R U . . .
C43 C -0.06391(18) 0.67797(10) 0.54704(14) 0.0398(5) Uani 1 1 d . . . . .
H43 H -0.1435 0.6836 0.5052 0.048 Uiso 1 1 calc R U . . .
C44 C -0.04556(18) 0.68134(9) 0.64756(14) 0.0360(4) Uani 1 1 d . . . . .
C45 C 0.07298(18) 0.67414(10) 0.70483(14) 0.0395(4) Uani 1 1 d . . . . .
H45 H 0.0883 0.6773 0.7736 0.047 Uiso 1 1 calc R U . . .
C46 C 0.16920(18) 0.66265(10) 0.66620(14) 0.0381(4) Uani 1 1 d . . . . .
H46 H 0.2487 0.6577 0.7083 0.046 Uiso 1 1 calc R U . . .
C47 C -0.15192(19) 0.68969(11) 0.69139(16) 0.0439(5) Uani 1 1 d . . . . .
H47 H -0.2254 0.7000 0.6370 0.053 Uiso 1 1 calc R U . . .
C48 C -0.1328(3) 0.74616(13) 0.7635(2) 0.0687(8) Uani 1 1 d . . . . .
H48A H -0.2061 0.7521 0.7859 0.082 Uiso 1 1 calc R U . . .
H48B H -0.1164 0.7863 0.7317 0.082 Uiso 1 1 calc R U . . .
H48C H -0.0636 0.7364 0.8194 0.082 Uiso 1 1 calc R U . . .
C49 C -0.1774(2) 0.62678(11) 0.73910(16) 0.0495(5) Uani 1 1 d . . . . .
H49A H -0.1903 0.5910 0.6916 0.059 Uiso 1 1 calc R U . . .
H49B H -0.2504 0.6324 0.7620 0.059 Uiso 1 1 calc R U . . .
H49C H -0.1080 0.6164 0.7945 0.059 Uiso 1 1 calc R U . . .
loop_
_atom_site_aniso_label
_atom_site_aniso_U_11
_atom_site_aniso_U_22
_atom_site_aniso_U_33
_atom_site_aniso_U_23
_atom_site_aniso_U_13
_atom_site_aniso_U_12
C1 0.0335(11) 0.0418(10) 0.0339(9) -0.0057(8) 0.0089(8) -0.0042(8)
C2 0.0346(11) 0.0358(10) 0.0328(9) -0.0028(7) 0.0098(8) -0.0029(7)
C3 0.0317(11) 0.0394(10) 0.0320(9) -0.0032(7) 0.0075(8) -0.0014(7)
C4 0.0356(11) 0.0457(11) 0.0309(9) -0.0024(8) 0.0070(8) 0.0003(8)
C11 0.0346(11) 0.0418(10) 0.0383(10) -0.0098(8) 0.0132(8) -0.0103(8)
C12 0.0489(14) 0.0525(12) 0.0451(11) -0.0004(9) 0.0185(10) -0.0158(10)
C13 0.0473(15) 0.0817(17) 0.0468(12) -0.0043(11) 0.0215(11) -0.0210(12)
C14 0.0441(14) 0.0933(19) 0.0477(12) -0.0317(12) 0.0260(11) -0.0310(13)
C15 0.0340(12) 0.0637(14) 0.0564(13) -0.0235(11) 0.0156(10) -0.0089(9)
C16 0.0352(11) 0.0495(12) 0.0417(10) -0.0113(9) 0.0145(9) -0.0085(8)
C17A 0.0363(18) 0.0356(17) 0.0417(17) 0.0017(13) 0.0206(14) 0.0000(13)
C18A 0.056(4) 0.072(5) 0.039(3) -0.022(3) 0.023(2) -0.008(3)
C19A 0.036(2) 0.053(2) 0.054(2) -0.0039(16) 0.0236(16) 0.0080(14)
C21 0.0309(10) 0.0415(10) 0.0321(9) -0.0023(7) 0.0102(8) -0.0016(7)
C22 0.0501(13) 0.0391(11) 0.0385(10) -0.0034(8) 0.0121(9) 0.0016(9)
C23 0.0543(14) 0.0464(12) 0.0385(11) 0.0033(9) 0.0111(10) 0.0090(9)
C24 0.0397(12) 0.0499(11) 0.0325(10) -0.0020(8) 0.0083(9) 0.0036(9)
C25 0.0388(12) 0.0427(11) 0.0354(10) -0.0070(8) 0.0103(8) 0.0000(8)
C26 0.0342(11) 0.0395(10) 0.0352(10) 0.0001(7) 0.0112(8) 0.0016(8)
C27A 0.0573(18) 0.063(8) 0.0340(11) -0.0045(15) -0.0006(11) 0.011(3)
C27B 0.0573(18) 0.063(8) 0.0340(11) -0.0045(15) -0.0006(11) 0.011(3)
C28A 0.094(4) 0.136(5) 0.036(2) 0.007(2) 0.015(2) -0.012(3)
C29A 0.059(3) 0.122(5) 0.065(3) -0.002(3) -0.018(2) 0.004(3)
C28B 0.128(10) 0.080(6) 0.039(4) 0.013(4) 0.005(5) 0.003(6)
C29B 0.048(5) 0.105(7) 0.044(4) -0.008(4) 0.001(3) -0.004(4)
C31 0.0254(10) 0.0396(10) 0.0313(9) -0.0035(7) 0.0089(7) 0.0012(7)
C32 0.0389(12) 0.0385(10) 0.0377(10) -0.0028(8) 0.0094(8) -0.0018(8)
C33 0.0408(12) 0.0442(11) 0.0390(10) -0.0104(8) 0.0071(9) -0.0019(8)
C34 0.0302(11) 0.0537(12) 0.0329(10) -0.0043(8) 0.0085(8) 0.0049(8)
C35 0.0359(11) 0.0457(11) 0.0379(10) 0.0028(8) 0.0086(8) 0.0023(8)
C36 0.0346(11) 0.0382(10) 0.0388(10) -0.0036(8) 0.0064(8) -0.0008(8)
C37A 0.035(3) 0.063(3) 0.0326(11) -0.0037(13) 0.0071(19) 0.001(2)
C38A 0.081(3) 0.084(3) 0.0423(18) -0.0163(18) 0.0076(18) 0.019(2)
C39A 0.044(2) 0.106(4) 0.0343(17) -0.0040(19) -0.0031(15) 0.015(2)
C37B 0.035(3) 0.063(3) 0.0326(11) -0.0037(13) 0.0071(19) 0.001(2)
C37C 0.035(3) 0.063(3) 0.0326(11) -0.0037(13) 0.0071(19) 0.001(2)
C41 0.0303(11) 0.0359(9) 0.0348(9) -0.0017(7) 0.0064(8) 0.0001(7)
C42 0.0382(12) 0.0461(11) 0.0317(9) -0.0013(8) 0.0045(8) 0.0033(8)
C43 0.0316(11) 0.0439(11) 0.0397(10) 0.0005(8) 0.0021(8) 0.0046(8)
C44 0.0349(11) 0.0318(9) 0.0415(10) 0.0007(7) 0.0109(8) 0.0027(7)
C45 0.0359(12) 0.0481(11) 0.0337(9) 0.0011(8) 0.0084(8) 0.0034(8)
C46 0.0312(11) 0.0474(11) 0.0338(10) 0.0012(8) 0.0055(8) 0.0035(8)
C47 0.0354(12) 0.0513(12) 0.0457(11) -0.0005(9) 0.0123(9) 0.0067(9)
C48 0.0696(18) 0.0528(14) 0.095(2) -0.0181(14) 0.0424(16) 0.0064(12)
C49 0.0452(13) 0.0582(13) 0.0499(12) -0.0050(10) 0.0212(10) -0.0035(10)
loop_
_atom_type_symbol
_atom_type_description
_atom_type_scat_dispersion_real
_atom_type_scat_dispersion_imag
_atom_type_scat_source
C C 0.0181 0.0091 'International Tables Vol C Tables 4.2.6.8 and 6.1.1.4'
H H 0.0000 0.0000 'International Tables Vol C Tables 4.2.6.8 and 6.1.1.4'
loop_
_geom_angle_atom_site_label_1
_geom_angle_atom_site_label_2
_geom_angle_atom_site_label_3
_geom_angle
C2 C1 C11 128.70(18)
C1 C2 C3 121.70(17)
C1 C2 C21 120.55(16)
C3 C2 C21 117.65(16)
C4 C3 C2 121.07(17)
C4 C3 C31 121.14(16)
C2 C3 C31 117.78(16)
C3 C4 C41 133.33(18)
C16 C11 C12 116.86(19)
C16 C11 C1 119.77(18)
C12 C11 C1 123.4(2)
C13 C12 C11 121.2(2)
C12 C13 C14 122.1(2)
C13 C14 C15 117.5(2)
C13 C14 C17A 113.5(2)
C15 C14 C17A 129.0(3)
C13 C14 C17B 137.7(3)
C15 C14 C17B 103.7(3)
C16 C15 C14 120.6(2)
C11 C16 C15 121.7(2)
C14 C17A C19A 109.8(3)
C14 C17A C18A 108.9(5)
C19A C17A C18A 109.4(7)
C19B C17B C18B 110.5(12)
C19B C17B C14 107.1(5)
C18B C17B C14 107.2(12)
C26 C21 C22 118.24(17)
C26 C21 C2 119.41(17)
C22 C21 C2 122.32(17)
C23 C22 C21 120.82(19)
C22 C23 C24 121.04(19)
C25 C24 C23 117.87(18)
C25 C24 C27A 123.0(11)
C23 C24 C27A 119.1(11)
C25 C24 C27B 116(2)
C23 C24 C27B 126(2)
C24 C25 C26 121.42(18)
C25 C26 C21 120.60(18)
C29A C27A C24 113.5(16)
C29A C27A C28A 111.2(15)
C24 C27A C28A 111.4(12)
C28B C27B C24 111(3)
C28B C27B C29B 107(3)
C24 C27B C29B 109(2)
C36 C31 C32 118.10(17)
C36 C31 C3 120.69(17)
C32 C31 C3 121.11(17)
C33 C32 C31 120.62(18)
C32 C33 C34 121.53(19)
C35 C34 C33 117.55(18)
C35 C34 C37C 114.3(11)
C33 C34 C37C 127.2(12)
C35 C34 C37B 111.8(9)
C33 C34 C37B 130.6(9)
C35 C34 C37A 123.3(3)
C33 C34 C37A 119.0(3)
C34 C35 C36 121.47(19)
C31 C36 C35 120.69(18)
C39A C37A C38A 109.4(4)
C39A C37A C34 112.4(4)
C38A C37A C34 114.4(4)
C34 C37B C38B 107.5(13)
C34 C37B C39B 105.9(16)
C38B C37B C39B 108.5(10)
C34 C37C C38C 121(2)
C34 C37C C39C 104(2)
C38C C37C C39C 114(3)
C42 C41 C46 116.51(17)
C42 C41 C4 116.87(17)
C46 C41 C4 126.61(18)
C43 C42 C41 122.52(18)
C42 C43 C44 120.83(19)
C45 C44 C43 116.91(18)
C45 C44 C47 122.15(18)
C43 C44 C47 120.89(18)
C46 C45 C44 122.75(18)
C45 C46 C41 120.47(19)
C44 C47 C49 111.12(17)
C44 C47 C48 112.21(18)
C49 C47 C48 110.45(19)
loop_
_geom_bond_atom_site_label_1
_geom_bond_atom_site_label_2
_geom_bond_distance
C1 C2 1.347(3)
C1 C11 1.475(3)
C2 C3 1.477(3)
C2 C21 1.503(2)
C3 C4 1.347(3)
C3 C31 1.503(2)
C4 C41 1.468(3)
C11 C16 1.386(3)
C11 C12 1.410(3)
C12 C13 1.367(3)
C13 C14 1.379(4)
C14 C15 1.403(4)
C14 C17A 1.517(3)
C14 C17B 1.644(6)
C15 C16 1.387(3)
C17A C19A 1.536(5)
C17A C18A 1.556(11)
C17B C19B 1.480(10)
C17B C18B 1.50(3)
C21 C26 1.390(3)
C21 C22 1.391(3)
C22 C23 1.386(3)
C23 C24 1.393(3)
C24 C25 1.384(3)
C24 C27A 1.520(6)
C24 C27B 1.526(9)
C25 C26 1.388(3)
C27A C29A 1.46(3)
C27A C28A 1.54(2)
C27B C28B 1.50(5)
C27B C29B 1.58(5)
C31 C36 1.387(3)
C31 C32 1.393(3)
C32 C33 1.386(3)
C33 C34 1.386(3)
C34 C35 1.386(3)
C34 C37C 1.52(3)
C34 C37B 1.531(10)
C34 C37A 1.532(6)
C35 C36 1.389(3)
C37A C39A 1.502(6)
C37A C38A 1.516(8)
C37B C38B 1.532(10)
C37B C39B 1.537(10)
C37C C38C 1.524(10)
C37C C39C 1.533(10)
C41 C42 1.393(3)
C41 C46 1.408(3)
C42 C43 1.377(3)
C43 C44 1.393(3)
C44 C45 1.388(3)
C44 C47 1.517(3)
C45 C46 1.375(3)
C47 C49 1.519(3)
C47 C48 1.521(3)
loop_
_geom_torsion_atom_site_label_1
_geom_torsion_atom_site_label_2
_geom_torsion_atom_site_label_3
_geom_torsion_atom_site_label_4
_geom_torsion
C11 C1 C2 C3 -179.57(18)
C11 C1 C2 C21 4.4(3)
C1 C2 C3 C4 -176.05(19)
C21 C2 C3 C4 0.1(3)
C1 C2 C3 C31 2.7(3)
C21 C2 C3 C31 178.86(16)
C2 C3 C4 C41 177.56(19)
C31 C3 C4 C41 -1.1(3)
C2 C1 C11 C16 -148.2(2)
C2 C1 C11 C12 33.3(3)
C16 C11 C12 C13 0.6(3)
C1 C11 C12 C13 179.1(2)
C11 C12 C13 C14 0.1(4)
C12 C13 C14 C15 -0.4(3)
C12 C13 C14 C17A -177.9(2)
C12 C13 C14 C17B 165.3(4)
C13 C14 C15 C16 -0.1(3)
C17A C14 C15 C16 177.0(2)
C17B C14 C15 C16 -170.2(3)
C12 C11 C16 C15 -1.1(3)
C1 C11 C16 C15 -179.64(18)
C14 C15 C16 C11 0.8(3)
C13 C14 C17A C19A 160.3(3)
C15 C14 C17A C19A -16.8(4)
C13 C14 C17A C18A -79.8(7)
C15 C14 C17A C18A 103.0(7)
C13 C14 C17B C19B 83.6(6)
C15 C14 C17B C19B -109.4(5)
C13 C14 C17B C18B -35.0(14)
C15 C14 C17B C18B 132.0(12)
C1 C2 C21 C26 63.1(2)
C3 C2 C21 C26 -113.1(2)
C1 C2 C21 C22 -114.9(2)
C3 C2 C21 C22 68.9(2)
C26 C21 C22 C23 -0.6(3)
C2 C21 C22 C23 177.43(19)
C21 C22 C23 C24 0.4(3)
C22 C23 C24 C25 0.1(3)
C22 C23 C24 C27A -179.5(12)
C22 C23 C24 C27B 178(2)
C23 C24 C25 C26 -0.6(3)
C27A C24 C25 C26 179.0(12)
C27B C24 C25 C26 -178(2)
C24 C25 C26 C21 0.4(3)
C22 C21 C26 C25 0.2(3)
C2 C21 C26 C25 -177.92(17)
C25 C24 C27A C29A 117.0(15)
C23 C24 C27A C29A -63.4(18)
C25 C24 C27A C28A -116.6(14)
C23 C24 C27A C28A 63(2)
C25 C24 C27B C28B -171(2)
C23 C24 C27B C28B 11(4)
C25 C24 C27B C29B 71(4)
C23 C24 C27B C29B -107(3)
C4 C3 C31 C36 89.2(2)
C2 C3 C31 C36 -89.5(2)
C4 C3 C31 C32 -87.2(2)
C2 C3 C31 C32 94.1(2)
C36 C31 C32 C33 -1.4(3)
C3 C31 C32 C33 175.14(17)
C31 C32 C33 C34 -0.3(3)
C32 C33 C34 C35 1.6(3)
C32 C33 C34 C37C -166.9(16)
C32 C33 C34 C37B -179.0(10)
C32 C33 C34 C37A 178.1(3)
C33 C34 C35 C36 -1.3(3)
C37C C34 C35 C36 168.8(14)
C37B C34 C35 C36 179.2(8)
C37A C34 C35 C36 -177.5(3)
C32 C31 C36 C35 1.7(3)
C3 C31 C36 C35 -174.78(17)
C34 C35 C36 C31 -0.4(3)
C35 C34 C37A C39A 90.1(5)
C33 C34 C37A C39A -86.1(5)
C35 C34 C37A C38A -144.4(3)
C33 C34 C37A C38A 39.4(4)
C35 C34 C37B C38B -89.5(13)
C33 C34 C37B C38B 91.1(14)
C35 C34 C37B C39B 154.6(10)
C33 C34 C37B C39B -24.8(17)
C35 C34 C37C C38C -11(3)
C33 C34 C37C C38C 158.3(18)
C35 C34 C37C C39C 119.6(19)
C33 C34 C37C C39C -72(3)
C3 C4 C41 C42 -179.5(2)
C3 C4 C41 C46 -0.9(4)
C46 C41 C42 C43 -0.8(3)
C4 C41 C42 C43 178.00(19)
C41 C42 C43 C44 -0.2(3)
C42 C43 C44 C45 1.3(3)
C42 C43 C44 C47 -176.25(18)
C43 C44 C45 C46 -1.5(3)
C47 C44 C45 C46 176.03(19)
C44 C45 C46 C41 0.5(3)
C42 C41 C46 C45 0.6(3)
C4 C41 C46 C45 -178.05(19)
C45 C44 C47 C49 -70.0(2)
C43 C44 C47 C49 107.4(2)
C45 C44 C47 C48 54.2(3)
C43 C44 C47 C48 -128.4(2)
