#------------------------------------------------------------------------------
#$Date: 2017-10-03 05:15:38 +0300 (Tue, 03 Oct 2017) $
#$Revision: 201571 $
#$URL: file:///home/coder/svn-repositories/cod/cif/7/12/07/7120734.cif $
#------------------------------------------------------------------------------
#
# This file is available in the Crystallography Open Database (COD),
# http://www.crystallography.net/
#
# All data on this site have been placed in the public domain by the
# contributors.
#
data_7120734
loop_
_publ_author_name
'Fang, Wei'
'Wei, Yin'
'Shi, Min'
_publ_section_title
;
 Gold(I)-Catalyzed Intramolecular Tandem Cyclization Reaction of
 Alkylidenecyclopropane-Containing Alkynes
;
_journal_name_full               'Chem. Commun.'
_journal_paper_doi               10.1039/C7CC07042J
_journal_year                    2017
_chemical_formula_sum            'C19 H16'
_chemical_formula_weight         244.32
_chemical_name_systematic
; 
 ? 
;
_space_group_crystal_system      orthorhombic
_space_group_IT_number           61
_space_group_name_Hall           '-P 2ac 2ab'
_space_group_name_H-M_alt        'P b c a'
_symmetry_space_group_name_Hall  '-P 2ac 2ab'
_symmetry_space_group_name_H-M   'P b c a'
_atom_sites_solution_hydrogens   geom
_audit_creation_method           SHELXL-2013
_audit_update_record
;
2017-07-03 deposited with the CCDC.
2017-10-02 downloaded from the CCDC.
;
_cell_angle_alpha                90
_cell_angle_beta                 90
_cell_angle_gamma                90
_cell_formula_units_Z            8
_cell_length_a                   10.220(7)
_cell_length_b                   14.584(10)
_cell_length_c                   17.645(12)
_cell_measurement_reflns_used    2214
_cell_measurement_temperature    293(2)
_cell_measurement_theta_max      45.019
_cell_measurement_theta_min      5.363
_cell_volume                     2630(3)
_computing_cell_refinement       'Bruker SMART'
_computing_data_collection       'Bruker SMART'
_computing_data_reduction        'Bruker SHELXTL'
_computing_molecular_graphics    'Bruker SHELXTL'
_computing_publication_material  'Bruker SHELXTL'
_computing_structure_refinement  'SHELXL-2013 (Sheldrick, 2013)'
_computing_structure_solution    'Bruker SHELXTL'
_diffrn_ambient_temperature      293(2)
_diffrn_measured_fraction_theta_full 0.973
_diffrn_measured_fraction_theta_max 0.999
_diffrn_measurement_device_type  'CCD area detector'
_diffrn_measurement_method       'phi and omega scans'
_diffrn_radiation_type           MoK\a
_diffrn_radiation_wavelength     0.71073
_diffrn_reflns_av_R_equivalents  0.1160
_diffrn_reflns_av_unetI/netI     0.0647
_diffrn_reflns_Laue_measured_fraction_full 0.973
_diffrn_reflns_Laue_measured_fraction_max 0.999
_diffrn_reflns_limit_h_max       11
_diffrn_reflns_limit_h_min       -12
_diffrn_reflns_limit_k_max       17
_diffrn_reflns_limit_k_min       -16
_diffrn_reflns_limit_l_max       20
_diffrn_reflns_limit_l_min       -19
_diffrn_reflns_number            12948
_diffrn_reflns_point_group_measured_fraction_full 0.973
_diffrn_reflns_point_group_measured_fraction_max 0.999
_diffrn_reflns_theta_full        25.242
_diffrn_reflns_theta_max         24.989
_diffrn_reflns_theta_min         2.308
_exptl_absorpt_coefficient_mu    0.069
_exptl_absorpt_correction_T_max  0.7456
_exptl_absorpt_correction_T_min  0.5713
_exptl_absorpt_correction_type   multi-scan
_exptl_absorpt_process_details   sadabs
_exptl_crystal_colour            colorless
_exptl_crystal_density_diffrn    1.234
_exptl_crystal_description       prismatic
_exptl_crystal_F_000             1040
_exptl_crystal_size_max          0.200
_exptl_crystal_size_mid          0.170
_exptl_crystal_size_min          0.130
_refine_diff_density_max         0.199
_refine_diff_density_min         -0.152
_refine_diff_density_rms         0.047
_refine_ls_extinction_method     none
_refine_ls_goodness_of_fit_ref   1.050
_refine_ls_hydrogen_treatment    constr
_refine_ls_matrix_type           full
_refine_ls_number_parameters     172
_refine_ls_number_reflns         2314
_refine_ls_number_restraints     0
_refine_ls_restrained_S_all      1.050
_refine_ls_R_factor_all          0.1070
_refine_ls_R_factor_gt           0.0661
_refine_ls_shift/su_max          0.000
_refine_ls_shift/su_mean         0.000
_refine_ls_structure_factor_coef Fsqd
_refine_ls_weighting_details
'w=1/[\s^2^(Fo^2^)+(0.0760P)^2^+0.7947P] where P=(Fo^2^+2Fc^2^)/3'
_refine_ls_weighting_scheme      calc
_refine_ls_wR_factor_gt          0.1530
_refine_ls_wR_factor_ref         0.1744
_reflns_Friedel_coverage         0.000
_reflns_number_gt                1496
_reflns_number_total             2314
_reflns_threshold_expression     'I > 2\s(I)'
_cod_data_source_file            c7cc07042j2.cif
_cod_data_source_block           cd17382
_cod_database_code               7120734
_shelx_space_group_comment
; 
The symmetry employed for this shelxl refinement is uniquely defined 
by the following loop, which should always be used as a source of 
symmetry information in preference to the above space-group names. 
They are only intended as comments. 
;
_shelx_estimated_absorpt_t_min   0.986
_shelx_estimated_absorpt_t_max   0.991
_shelxl_version_number           2013-4
_shelx_res_file
; 
TITL cd17382 in Pbca 
CELL 0.71073  10.2205  14.5840  17.6454  90.000  90.000  90.000 
ZERR    8.00   0.0068   0.0097   0.0118   0.000   0.000   0.000 
LATT 1 
SYMM 0.5-X, -Y, 0.5+Z 
SYMM -X, 0.5+Y, 0.5-Z 
SYMM 0.5+X, 0.5-Y, -Z 
SFAC C  H 
UNIT 152 128 
OMIT  -3.00  50.00 
L.S. 10 
ACTA 
BOND  $H 
FMAP 2 
PLAN 20 
wpdb -1 
size 0.20 0.17 0.13 
mpla c17 c18 c19 
mpla c11 > c16 
mpla c1 > c10 
htab 
conf 
WGHT    0.076000    0.794700 
FVAR       0.07935 
MOLE 1 
C1    1    0.880354    0.215592    0.413965    11.00000    0.03317    0.05351 = 
         0.04253   -0.01414   -0.00504    0.00768 
C2    1    1.013309    0.238318    0.422464    11.00000    0.04497    0.07040 = 
         0.05822   -0.01860   -0.00715    0.00783 
AFIX  43 
H2    2    1.068941    0.197635    0.447140    11.00000   -1.20000 
AFIX   0 
C3    1    1.061107    0.316998    0.395852    11.00000    0.03694    0.09072 = 
         0.06434   -0.02731    0.00537   -0.00986 
AFIX  43 
H3    2    1.149528    0.330421    0.401490    11.00000   -1.20000 
AFIX   0 
C4    1    0.979405    0.378604    0.359907    11.00000    0.05295    0.06404 = 
         0.05721   -0.01590    0.01107   -0.01459 
AFIX  43 
H4    2    1.013130    0.433484    0.341501    11.00000   -1.20000 
AFIX   0 
C5    1    0.851012    0.359777    0.351288    11.00000    0.04297    0.05307 = 
         0.04853   -0.00611    0.00597   -0.00552 
AFIX  43 
H5    2    0.797121    0.402348    0.327509    11.00000   -1.20000 
AFIX   0 
C6    1    0.797614    0.277552    0.377421    11.00000    0.03207    0.04245 = 
         0.03786   -0.01196    0.00459   -0.00061 
C7    1    0.663102    0.254333    0.366077    11.00000    0.03622    0.04477 = 
         0.03329   -0.00104    0.00079    0.00360 
C8    1    0.618837    0.170860    0.388165    11.00000    0.03611    0.03959 = 
         0.03378   -0.00105    0.00047    0.00067 
C9    1    0.702479    0.111211    0.426643    11.00000    0.05282    0.03960 = 
         0.04742    0.00302   -0.00707    0.00165 
AFIX  43 
H9    2    0.670602    0.055179    0.443736    11.00000   -1.20000 
AFIX   0 
C10   1    0.828948    0.133392    0.439517    11.00000    0.04788    0.04797 = 
         0.04910   -0.00358   -0.01162    0.01113 
AFIX  43 
H10   2    0.882260    0.092800    0.465951    11.00000   -1.20000 
AFIX   0 
C11   1    0.486518    0.136472    0.369725    11.00000    0.03627    0.03377 = 
         0.03989    0.00150    0.00026    0.00134 
C12   1    0.441584    0.137287    0.296338    11.00000    0.04588    0.04836 = 
         0.04475    0.00242   -0.00151   -0.00330 
AFIX  43 
H12   2    0.493715    0.162409    0.258457    11.00000   -1.20000 
AFIX   0 
C13   1    0.322714    0.102204    0.277941    11.00000    0.05436    0.05382 = 
         0.05931    0.00272   -0.01925   -0.00405 
AFIX  43 
H13   2    0.294423    0.102718    0.227850    11.00000   -1.20000 
AFIX   0 
C14   1    0.245026    0.066219    0.333254    11.00000    0.04264    0.05224 = 
         0.08660    0.00847   -0.01097   -0.00498 
AFIX  43 
H14   2    0.162883    0.042888    0.321326    11.00000   -1.20000 
AFIX   0 
C15   1    0.288649    0.064756    0.405864    11.00000    0.04515    0.05394 = 
         0.06778    0.01274    0.00899   -0.00560 
AFIX  43 
H15   2    0.236154    0.039479    0.443504    11.00000   -1.20000 
AFIX   0 
C16   1    0.407447    0.099500    0.424534    11.00000    0.04626    0.04562 = 
         0.04711    0.00323   -0.00017   -0.00167 
AFIX  43 
H16   2    0.435356    0.098237    0.474688    11.00000   -1.20000 
AFIX   0 
C17   1    0.577643    0.322383    0.329630    11.00000    0.03936    0.04674 = 
         0.04988    0.00826   -0.00154    0.00351 
AFIX  13 
H17   2    0.587779    0.327372    0.274557    11.00000   -1.20000 
AFIX   0 
C18   1    0.550080    0.410805    0.369370    11.00000    0.05446    0.03969 = 
         0.09955    0.00266   -0.00450    0.00468 
AFIX  23 
H18A  2    0.584804    0.418669    0.420116    11.00000   -1.20000 
H18B  2    0.547283    0.466255    0.339056    11.00000   -1.20000 
AFIX   0 
C19   1    0.443656    0.342322    0.358434    11.00000    0.04393    0.04712 = 
         0.07978    0.00740    0.00143    0.00966 
AFIX  23 
H19A  2    0.413695    0.308697    0.402574    11.00000   -1.20000 
H19B  2    0.376183    0.356272    0.321534    11.00000   -1.20000 
AFIX   0 
HKLF 4 
  
REM  cd17382 in Pbca 
REM R1 =  0.0661 for    1496 Fo > 4sig(Fo)  and  0.1070 for all    2314 data 
REM    172 parameters refined using      0 restraints 
  
END 
  
WGHT      0.0706      0.9592 
  
REM No hydrogen bonds found for HTAB generation 
  
REM Highest difference peak  0.199,  deepest hole -0.152,  1-sigma level  0.047 
Q1    1   0.9087  0.3821  0.3959  11.00000  0.05    0.20 
Q2    1   0.7693  0.1194  0.3879  11.00000  0.05    0.20 
Q3    1   0.6187  0.2332  0.4105  11.00000  0.05    0.19 
Q4    1   0.7986  0.3375  0.3894  11.00000  0.05    0.18 
Q5    1   0.9490  0.2183  0.3844  11.00000  0.05    0.18 
Q6    1   0.7190  0.2768  0.3892  11.00000  0.05    0.17 
Q7    1   0.6120  0.3817  0.3319  11.00000  0.05    0.17 
Q8    1   0.8327  0.2085  0.3635  11.00000  0.05    0.17 
Q9    1   0.4447  0.1785  0.3417  11.00000  0.05    0.16 
Q10   1   0.7286  0.2535  0.3349  11.00000  0.05    0.15 
Q11   1   1.1250  0.3207  0.3503  11.00000  0.05    0.15 
Q12   1   1.1422  0.1606  0.4150  11.00000  0.05    0.15 
Q13   1   1.0730  0.2403  0.3810  11.00000  0.05    0.14 
Q14   1   0.7278  0.1241  0.4860  11.00000  0.05    0.14 
Q15   1   0.5585  0.1436  0.3699  11.00000  0.05    0.14 
Q16   1   0.6528  0.1694  0.3384  11.00000  0.05    0.14 
Q17   1   0.3779  0.1267  0.1788  11.00000  0.05    0.14 
Q18   1   0.6370  0.3053  0.3878  11.00000  0.05    0.14 
Q19   1   0.6484  0.1604  0.4346  11.00000  0.05    0.14 
Q20   1   0.8228  0.3772  0.2932  11.00000  0.05    0.14 
;
_shelx_res_checksum              93196
_shelx_hkl_file
; 
   1   0   0    0.00    0.01 
   3   0   0    0.00    0.02 
   4   0   0    0.02    0.03 
   5   0   0    0.01    0.04 
  -7   0   0   -0.09    0.08 
   7   0   0   -0.05    0.09 
  -8   0   0    3.53    0.23 
  -9   0   0   -0.13    0.10 
  -9   0   0   -0.18    0.13 
 -10   0   0   -0.14    0.12 
 -11   0   0    0.23    0.14 
 -12   0   0    0.02    0.15 
 -13   1   0    0.58    0.20 
 -12   1   0    0.35    0.16 
 -11   1   0   -0.05    0.14 
 -10   1   0    0.22    0.15 
  -9   1   0    0.08    0.15 
  -9   1   0    0.01    0.11 
  -8   1   0   -0.10    0.09 
  -8   1   0   -0.09    0.12 
  -7   1   0    0.00    0.09 
  -7   1   0   -0.08    0.11 
  -6   1   0    0.99    0.15 
  -2   1   0   15.93    0.74 
  -1   1   0   -0.05    0.03 
   0  -1   0   -0.29    0.01 
   0  -1   0   -0.32    0.01 
   0   1   0   -0.32    0.01 
  -1  -1   0   -0.05    0.02 
  -1  -1   0   -0.09    0.04 
   1   1   0   -0.08    0.01 
  -2  -1   0   18.03    0.65 
  -3  -1   0   -0.01    0.03 
   3   1   0    0.02    0.03 
  -4  -1   0    9.30    0.33 
   4   1   0    7.07    0.40 
  -5  -1   0    0.00    0.06 
   5   1   0    0.11    0.08 
  -6  -1   0    1.19    0.13 
   6   1   0    1.12    0.13 
  -7  -1   0   -0.03    0.08 
   7   1   0    0.03    0.11 
  -8  -1   0    0.15    0.11 
   8   1   0   -0.07    0.14 
  -9  -1   0   -0.04    0.10 
   9   1   0    0.01    0.16 
 -10  -1   0    0.41    0.16 
 -11  -1   0    0.23    0.15 
 -12  -1   0    0.40    0.15 
 -13   2   0    0.26    0.19 
 -12   2   0    0.16    0.18 
 -11   2   0   -0.05    0.15 
 -10   2   0   -0.08    0.13 
  -9   2   0    0.05    0.12 
  -9   2   0   -0.06    0.16 
  -8   2   0    0.00    0.14 
  -8   2   0   -0.09    0.10 
  -7   2   0    0.06    0.13 
  -6   2   0    2.95    0.24 
  -5   2   0    0.06    0.10 
  -4   2   0   19.80    0.95 
  -3   2   0    0.04    0.06 
  -2   2   0   51.17    2.32 
  -1   2   0   -0.04    0.04 
   0  -2   0  210.51   10.83 
   0  -2   0  213.76    7.44 
  -1  -2   0   -0.01    0.02 
  -1  -2   0   -0.05    0.04 
   1   2   0   -0.05    0.04 
  -2  -2   0   52.04    1.84 
  -2  -2   0   52.56    2.69 
  -3  -2   0   -0.03    0.03 
   3   2   0    0.02    0.03 
  -4  -2   0   18.47    0.64 
   4   2   0   16.08    0.81 
  -6  -2   0    3.26    0.18 
   6   2   0    2.83    0.21 
  -7  -2   0   -0.01    0.08 
   7   2   0    0.01    0.11 
  -8  -2   0   -0.01    0.10 
   8   2   0   -0.11    0.13 
  -9  -2   0   -0.01    0.11 
 -10  -2   0    0.60    0.15 
 -11  -2   0   -0.14    0.14 
 -12  -2   0    0.46    0.30 
 -13  -2   0    0.10    0.28 
 -13   3   0    0.65    0.22 
 -12   3   0    0.07    0.17 
 -11   3   0   -0.17    0.15 
 -10   3   0    0.88    0.20 
  -9   3   0   -0.09    0.16 
  -9   3   0   -0.13    0.13 
  -8   3   0    4.25    0.33 
  -7   3   0    0.00    0.14 
  -6   3   0    1.00    0.17 
  -5   3   0    0.00    0.10 
  -4   3   0    0.01    0.07 
  -3   3   0    0.02    0.07 
  -2   3   0   51.58    2.34 
  -1   3   0   -0.05    0.05 
   0  -3   0    0.00    0.05 
   0   3   0    0.03    0.05 
  -1  -3   0    0.00    0.06 
  -1  -3   0   -0.04    0.02 
   1   3   0   -0.10    0.05 
  -2  -3   0   55.60    2.90 
  -2  -3   0   57.05    1.98 
   2   3   0   56.21    2.54 
  -3  -3   0    0.01    0.03 
  -3  -3   0   -0.07    0.07 
   3   3   0    0.01    0.02 
  -4  -3   0    0.26    0.05 
  -4  -3   0    0.20    0.11 
  -5  -3   0   -0.10    0.05 
  -5  -3   0    0.03    0.13 
   5   3   0    0.09    0.07 
  -6  -3   0    0.86    0.10 
   6   3   0    1.07    0.14 
  -7  -3   0    0.09    0.10 
   7   3   0    0.22    0.11 
  -8  -3   0    4.01    0.23 
   8   3   0    3.59    0.29 
  -9  -3   0   -0.32    0.22 
  -9  -3   0   -0.01    0.11 
 -10  -3   0    0.52    0.16 
 -10  -3   0    1.01    0.31 
 -11  -3   0   -0.17    0.25 
 -12  -3   0    0.28    0.28 
 -13  -3   0    0.29    0.30 
 -13   4   0    0.27    0.19 
 -12   4   0    0.06    0.17 
 -11   4   0    0.00    0.16 
 -10   4   0    0.35    0.19 
 -10   4   0    0.35    0.17 
  -9   4   0   -0.08    0.15 
  -8   4   0    2.58    0.28 
  -7   4   0   -0.06    0.14 
  -6   4   0    0.04    0.13 
  -5   4   0    0.08    0.11 
  -4   4   0    0.30    0.11 
  -3   4   0    0.02    0.07 
  -2   4   0   29.45    1.37 
  -1   4   0   -0.03    0.07 
   0  -4   0  450.33   21.63 
   0   4   0  401.58   18.94 
  -1  -4   0   -0.01    0.03 
  -1  -4   0    0.10    0.08 
   1   4   0    0.02    0.07 
  -2  -4   0   24.48    1.41 
  -2  -4   0   28.18    0.96 
   2   4   0   28.44    1.25 
  -3  -4   0    0.15    0.10 
  -4  -4   0    0.45    0.14 
  -4  -4   0    0.32    0.05 
  -5  -4   0    0.15    0.06 
  -5  -4   0    0.14    0.13 
   5   4   0    0.11    0.07 
  -6  -4   0    0.15    0.07 
  -6  -4   0   -0.12    0.14 
   6   4   0    0.02    0.09 
  -7  -4   0   -0.19    0.16 
  -7  -4   0   -0.15    0.08 
   7   4   0    0.11    0.11 
  -8  -4   0    2.17    0.19 
  -8  -4   0    2.29    0.30 
   8   4   0    2.46    0.25 
  -9  -4   0   -0.17    0.10 
  -9  -4   0   -0.09    0.24 
 -10  -4   0    0.36    0.27 
 -11  -4   0   -0.10    0.25 
 -12  -4   0    0.08    0.27 
 -13  -4   0    0.27    0.30 
 -13   5   0    0.09    0.18 
 -12   5   0    0.53    0.19 
 -11   5   0    0.11    0.17 
 -10   5   0    0.01    0.15 
 -10   5   0    0.43    0.19 
  -9   5   0    0.19    0.16 
  -8   5   0   17.33    0.93 
  -7   5   0    0.02    0.16 
  -6   5   0    2.36    0.23 
  -5   5   0   -0.03    0.10 
  -4   5   0    1.45    0.16 
  -3   5   0    0.05    0.09 
  -2   5   0   12.21    0.62 
  -1   5   0    0.07    0.08 
   0  -5   0    0.01    0.08 
   0   5   0   -0.04    0.08 
  -1  -5   0    0.07    0.09 
  -1  -5   0    0.03    0.04 
   1   5   0    0.01    0.08 
  -2  -5   0   12.55    0.70 
  -2  -5   0   11.91    0.45 
   2   5   0   13.08    0.63 
  -3  -5   0    0.06    0.10 
   3   5   0    0.01    0.08 
  -4  -5   0    1.76    0.10 
   4   5   0    1.25    0.14 
  -5  -5   0    0.02    0.05 
  -5  -5   0   -0.09    0.12 
   5   5   0    0.05    0.05 
  -6  -5   0    2.04    0.14 
  -6  -5   0    2.50    0.26 
   6   5   0    2.35    0.20 
  -7  -5   0    0.08    0.08 
  -7  -5   0   -0.05    0.18 
   7   5   0    0.05    0.12 
  -8  -5   0   16.53    0.67 
  -8  -5   0   17.69    1.03 
   8   5   0   17.03    0.86 
  -9  -5   0    0.04    0.23 
 -10  -5   0    0.33    0.26 
 -11  -5   0    0.07    0.26 
 -12  -5   0   -0.05    0.28 
 -13  -5   0    0.08    0.29 
 -12   6   0    0.42    0.18 
 -11   6   0   -0.13    0.16 
 -10   6   0    0.81    0.23 
  -9   6   0    0.10    0.18 
  -8   6   0    0.24    0.19 
  -7   6   0   -0.03    0.16 
  -6   6   0    2.06    0.23 
  -5   6   0    0.02    0.11 
  -4   6   0    9.99    0.55 
  -3   6   0    0.32    0.13 
  -2   6   0   37.54    1.76 
  -1   6   0   -0.06    0.08 
   0  -6   0   19.93    1.02 
   0   6   0   17.69    0.92 
  -1  -6   0   -0.03    0.04 
  -1  -6   0   -0.02    0.10 
   1   6   0   -0.04    0.09 
  -2  -6   0   41.73    2.16 
  -2  -6   0   41.10    1.46 
   2   6   0   41.38    1.92 
  -4  -6   0   10.33    0.40 
  -4  -6   0   10.64    0.64 
   4   6   0   11.24    0.57 
  -5  -6   0    0.10    0.14 
  -5  -6   0    0.01    0.05 
   5   6   0    0.01    0.07 
  -6  -6   0    2.16    0.25 
  -6  -6   0    1.96    0.13 
   6   6   0    1.74    0.17 
  -7  -6   0    0.81    0.11 
  -7  -6   0    0.30    0.23 
   7   6   0    0.11    0.14 
  -8  -6   0    0.29    0.25 
  -9  -6   0    0.17    0.25 
 -10  -6   0    1.02    0.31 
 -11  -6   0   -0.11    0.25 
 -12  -6   0    0.12    0.28 
 -12   7   0    0.67    0.20 
 -11   7   0   -0.05    0.16 
 -10   7   0    0.17    0.21 
  -9   7   0   -0.07    0.18 
  -8   7   0    0.53    0.22 
  -7   7   0   -0.06    0.16 
  -6   7   0    0.88    0.22 
  -5   7   0    0.03    0.13 
  -4   7   0    4.87    0.34 
  -3   7   0    0.22    0.14 
  -2   7   0   22.24    1.10 
  -1   7   0    0.12    0.12 
   0  -7   0   -0.07    0.11 
   0   7   0    0.00    0.11 
  -1  -7   0    0.22    0.14 
   1   7   0    0.09    0.12 
  -2  -7   0   22.03    0.81 
  -2  -7   0   22.31    1.22 
   2   7   0   23.37    1.10 
  -3  -7   0    0.38    0.16 
   3   7   0    0.51    0.15 
  -4  -7   0    5.17    0.38 
   4   7   0    5.30    0.35 
  -5  -7   0    0.01    0.15 
   5   7   0   -0.05    0.11 
  -6  -7   0    1.03    0.25 
  -6  -7   0    0.68    0.10 
  -7  -7   0    0.28    0.23 
   7   7   0    0.04    0.14 
  -8  -7   0    0.64    0.28 
  -9  -7   0   -0.05    0.24 
 -10  -7   0    0.06    0.25 
 -11  -7   0   -0.23    0.25 
 -12  -7   0   -0.19    0.28 
 -12   8   0    0.70    0.20 
 -11   8   0    0.12    0.18 
 -10   8   0    0.15    0.21 
  -9   8   0   -0.11    0.19 
  -8   8   0    0.08    0.18 
  -7   8   0   -0.13    0.16 
  -6   8   0   20.96    1.10 
  -5   8   0   -0.02    0.15 
  -4   8   0    0.85    0.21 
  -3   8   0   -0.03    0.13 
  -2   8   0    1.41    0.19 
  -1   8   0   -0.02    0.14 
   0  -8   0   10.79    0.58 
   0   8   0    8.00    0.53 
  -1  -8   0    0.07    0.14 
   1   8   0   -0.02    0.13 
  -2  -8   0    1.58    0.10 
  -2  -8   0    1.39    0.20 
   2   8   0    1.82    0.21 
  -3  -8   0    0.15    0.16 
   3   8   0    0.17    0.15 
  -4  -8   0    0.95    0.23 
   4   8   0    1.21    0.21 
  -5  -8   0   -0.01    0.18 
   5   8   0    0.01    0.14 
  -6  -8   0   23.02    1.19 
   6   8   0   17.75    1.01 
  -7  -8   0   -0.13    0.21 
   7   8   0    0.02    0.11 
  -8  -8   0   -0.13    0.24 
  -9  -8   0   -0.07    0.24 
 -10  -8   0    0.39    0.27 
 -11  -8   0    0.25    0.27 
 -12  -8   0    0.53    0.32 
 -12   9   0    0.65    0.19 
 -10   9   0    0.12    0.21 
  -9   9   0    0.02    0.20 
  -8   9   0    0.89    0.26 
  -7   9   0    0.02    0.19 
  -6   9   0    2.21    0.29 
  -5   9   0   -0.26    0.14 
  -4   9   0    7.84    0.50 
  -3   9   0   -0.01    0.16 
  -2   9   0    4.24    0.34 
  -1   9   0   -0.05    0.13 
   0  -9   0   -0.08    0.15 
   0   9   0   -0.02    0.14 
  -1  -9   0   -0.04    0.15 
   1   9   0   -0.06    0.14 
  -2  -9   0    4.21    0.33 
   2   9   0    4.06    0.32 
  -3  -9   0    0.12    0.17 
   3   9   0   -0.01    0.16 
  -4  -9   0    8.16    0.55 
   4   9   0    8.52    0.52 
  -5  -9   0   -0.18    0.21 
   5   9   0   -0.01    0.17 
  -6  -9   0    2.68    0.35 
   6   9   0    3.06    0.31 
  -7  -9   0    0.51    0.26 
   7   9   0    0.12    0.11 
  -8  -9   0    1.12    0.31 
  -9  -9   0   -0.07    0.24 
 -10  -9   0   -0.13    0.26 
 -11  -9   0    0.03    0.27 
 -12  -9   0    0.54    0.30 
 -10  10   0    0.81    0.28 
  -9  10   0   -0.01    0.22 
  -8  10   0    0.65    0.25 
  -7  10   0    0.00    0.19 
  -6  10   0    1.98    0.28 
  -5  10   0   -0.28    0.18 
  -4  10   0    0.75    0.22 
  -3  10   0   -0.13    0.14 
  -2  10   0    0.20    0.17 
  -1  10   0    0.03    0.17 
   0  10   0    2.16    0.25 
  -1 -10   0   -0.14    0.17 
   1  10   0   -0.04    0.16 
  -2 -10   0    0.24    0.19 
   2  10   0    0.37    0.21 
  -3 -10   0    0.10    0.19 
   3  10   0   -0.05    0.20 
  -4 -10   0    0.98    0.25 
   4  10   0    1.13    0.26 
  -5 -10   0    0.03    0.24 
   5  10   0    0.30    0.20 
  -6 -10   0    1.77    0.35 
   6  10   0    2.46    0.29 
  -7 -10   0   -0.12    0.25 
   7  10   0   -0.10    0.16 
  -8 -10   0    1.02    0.33 
  -9 -10   0   -0.06    0.26 
 -10 -10   0    0.77    0.34 
 -11 -10   0    0.21    0.33 
 -10  11   0    0.07    0.24 
  -9  11   0   -0.02    0.23 
  -8  11   0    0.34    0.24 
  -7  11   0    0.09    0.21 
  -6  11   0    1.12    0.27 
  -5  11   0   -0.01    0.21 
  -4  11   0    0.02    0.19 
  -3  11   0    0.06    0.17 
  -2  11   0    3.76    0.35 
  -1  11   0   -0.01    0.16 
   0  11   0   -0.19    0.16 
  -1 -11   0   -0.02    0.18 
   1  11   0   -0.14    0.17 
  -2 -11   0    3.42    0.31 
   2  11   0    3.38    0.33 
  -3 -11   0    0.19    0.21 
   3  11   0   -0.03    0.21 
  -4 -11   0   -0.38    0.21 
   4  11   0   -0.10    0.20 
  -5 -11   0   -0.05    0.23 
   5  11   0    0.39    0.22 
  -6 -11   0    1.06    0.31 
   6  11   0    1.81    0.24 
  -7 -11   0    0.05    0.28 
  -8 -11   0    0.37    0.30 
  -9 -11   0   -0.18    0.29 
 -10 -11   0    0.14    0.32 
 -11 -11   0   -0.21    0.29 
 -10  12   0    0.55    0.29 
  -9  12   0    0.10    0.24 
  -8  12   0    0.47    0.27 
  -7  12   0   -0.12    0.20 
  -6  12   0    1.11    0.28 
  -5  12   0   -0.02    0.22 
  -4  12   0    0.55    0.25 
  -3  12   0    0.18    0.20 
  -2  12   0    1.00    0.26 
  -1  12   0   -0.06    0.17 
   0  12   0    0.30    0.20 
  -1 -12   0    0.04    0.21 
   1  12   0    0.11    0.19 
  -2 -12   0    1.19    0.26 
   2  12   0    0.89    0.25 
  -3 -12   0    0.30    0.23 
   3  12   0   -0.09    0.22 
  -4 -12   0    0.72    0.27 
   4  12   0    1.85    0.33 
  -5 -12   0   -0.15    0.22 
   5  12   0   -0.24    0.20 
  -6 -12   0    2.15    0.37 
   6  12   0    2.24    0.29 
  -7 -12   0   -0.26    0.27 
  -8 -12   0    0.09    0.31 
  -9 -12   0   -0.14    0.30 
 -10 -12   0    0.26    0.34 
  -9  13   0    0.67    0.29 
  -8  13   0    0.66    0.30 
  -7  13   0    0.07    0.23 
  -6  13   0    0.39    0.24 
  -5  13   0   -0.14    0.22 
  -4  13   0   -0.13    0.20 
  -3  13   0    0.32    0.28 
  -2  13   0    9.78    0.65 
  -1  13   0    0.07    0.20 
   0  13   0   -0.21    0.20 
  -1 -13   0   -0.07    0.23 
   1  13   0    0.21    0.21 
  -2 -13   0    9.60    0.65 
   2  13   0   10.39    0.64 
  -3 -13   0    0.30    0.23 
   3  13   0    0.19    0.25 
  -4 -13   0   -0.03    0.23 
   4  13   0   -0.26    0.24 
  -5 -13   0    0.03    0.25 
   5  13   0   -0.26    0.24 
  -6 -13   0    0.55    0.30 
   6  13   0    1.30    0.28 
  -7 -13   0   -0.15    0.28 
  -8 -13   0    0.69    0.36 
  -9 -13   0   -0.11    0.35 
 -10 -13   0    0.24    0.32 
  -9  14   0    0.27    0.26 
  -8  14   0    0.41    0.29 
  -7  14   0   -0.27    0.23 
  -6  14   0    0.24    0.26 
  -5  14   0   -0.04    0.23 
  -4  14   0    1.06    0.34 
  -3  14   0    0.02    0.25 
  -2  14   0    0.02    0.24 
  -1  14   0   -0.15    0.21 
   0  14   0    0.15    0.22 
   1  14   0    0.19    0.21 
  -2 -14   0    0.08    0.25 
   2  14   0    0.31    0.25 
  -3 -14   0    0.25    0.25 
   3  14   0    0.13    0.24 
  -4 -14   0    1.28    0.32 
   4  14   0    1.13    0.35 
  -5 -14   0    0.13    0.28 
   5  14   0    0.37    0.25 
  -6 -14   0   -0.27    0.27 
   6  14   0    0.62    0.25 
  -7 -14   0   -0.20    0.30 
  -8 -14   0    0.55    0.37 
  -9 -14   0    0.09    0.33 
  -8  15   0    0.28    0.29 
  -7  15   0   -0.18    0.23 
  -6  15   0    0.10    0.25 
  -5  15   0    0.08    0.27 
  -4  15   0    0.07    0.27 
  -3  15   0    0.20    0.28 
  -2  15   0    2.48    0.35 
  -1  15   0    0.00    0.24 
   0  15   0   -0.06    0.23 
   1  15   0   -0.19    0.22 
  -2 -15   0    3.08    0.37 
   2  15   0    3.16    0.35 
  -3 -15   0    0.71    0.29 
   3  15   0    0.51    0.31 
  -4 -15   0    0.00    0.27 
   4  15   0    0.19    0.29 
  -5 -15   0    0.21    0.30 
   5  15   0    0.50    0.30 
  -6 -15   0   -0.33    0.28 
  -7 -15   0   -0.45    0.29 
  -8 -15   0   -0.43    0.33 
  -7  16   0    0.01    0.24 
  -6  16   0    0.45    0.28 
  -5  16   0    0.22    0.29 
  -4  16   0    0.63    0.31 
  -3  16   0    0.29    0.25 
  -2  16   0    0.75    0.29 
  -1  16   0   -0.29    0.23 
   0  16   0    0.01    0.23 
   1  16   0    0.01    0.23 
   2  16   0    0.55    0.31 
  -3 -16   0   -0.04    0.28 
   3  16   0    0.41    0.28 
  -4 -16   0    0.18    0.29 
   4  16   0    1.04    0.33 
  -5 -16   0   -0.19    0.28 
   5  16   0    0.73    0.29 
  -6 -16   0    0.15    0.33 
  -7 -16   0   -0.14    0.32 
  -6  17   0    0.18    0.22 
  -5  17   0   -0.15    0.23 
  -4  17   0   -0.18    0.26 
  -3  17   0    0.40    0.27 
  -2  17   0    0.31    0.24 
  -1  17   0    0.02    0.23 
   0  17   0    0.32    0.26 
   1  17   0   -0.12    0.24 
   2  17   0    0.64    0.27 
  -3 -17   0   -0.41    0.29 
   3  17   0    0.52    0.25 
  -4 -17   0   -0.19    0.29 
   4  17   0    0.82    0.31 
  -5 -17   0   -0.62    0.27 
   5  17   0    0.60    0.29 
  -6 -17   0   -0.30    0.28 
  -4  18   0    0.56    0.25 
  -3  18   0    0.39    0.22 
  -2  18   0    0.73    0.29 
  -1  18   0    0.32    0.23 
   0  18   0    0.12    0.23 
   1  18   0    0.42    0.24 
   2  18   0    0.91    0.28 
   3  18   0    0.71    0.28 
  -4 -18   0   -0.32    0.31 
   4  18   0    0.88    0.31 
  -5 -18   0   -0.34    0.30 
  -1  19   0    0.36    0.22 
   0  19   0    0.13    0.22 
   1  19   0    0.45    0.27 
   2  19   0    1.08    0.29 
   2  19  -1    1.20    0.28 
   1  19  -1    0.38    0.25 
   0  19  -1    0.57    0.25 
  -1  19  -1    0.44    0.22 
  -5 -18   1   -0.30    0.30 
   4  18  -1    1.33    0.33 
  -4 -18   1    0.40    0.35 
   3  18  -1    1.01    0.31 
  -3 -18   1   -0.04    0.33 
   2  18  -1    0.60    0.26 
   1  18  -1    0.32    0.23 
   0  18  -1    0.41    0.24 
  -1  18  -1    0.06    0.23 
  -2  18  -1    0.34    0.24 
  -3  18  -1    0.34    0.24 
  -4  18  -1    0.53    0.25 
  -6 -17   1   -0.35    0.30 
  -5 -17   1   -0.42    0.28 
   4  17  -1    1.34    0.34 
  -4 -17   1    0.04    0.31 
   3  17  -1    0.12    0.26 
  -3 -17   1   -0.22    0.31 
   2  17  -1    0.71    0.29 
   1  17  -1    0.34    0.26 
   0  17  -1    0.07    0.25 
  -1  17  -1    0.27    0.25 
  -2  17  -1    0.15    0.24 
  -3  17  -1    0.49    0.25 
  -4  17  -1    0.39    0.23 
  -5  17  -1    0.20    0.25 
  -6  17  -1    0.13    0.25 
  -7 -16   1   -0.39    0.31 
  -6 -16   1   -0.34    0.31 
  -5 -16   1   -0.12    0.29 
   4  16  -1    0.98    0.31 
  -4 -16   1    0.08    0.28 
   3  16  -1    0.27    0.25 
  -3 -16   1   -0.04    0.29 
   2  16  -1    0.60    0.28 
  -2 -16   1    0.09    0.31 
   1  16  -1    0.09    0.26 
   0  16  -1    0.07    0.24 
  -1  16  -1   -0.14    0.25 
  -2  16  -1    0.12    0.27 
  -3  16  -1    0.14    0.24 
  -4  16  -1    0.34    0.28 
  -5  16  -1   -0.07    0.26 
  -6  16  -1    0.16    0.23 
  -7  16  -1    0.20    0.25 
  -8 -15   1   -0.22    0.31 
  -7 -15   1   -0.39    0.30 
  -6 -15   1   -0.08    0.30 
   5  15  -1    0.59    0.29 
  -5 -15   1    0.44    0.32 
   4  15  -1    0.42    0.28 
  -4 -15   1   -0.09    0.26 
   3  15  -1    2.64    0.39 
  -3 -15   1    1.97    0.31 
   2  15  -1    0.23    0.24 
  -2 -15   1    0.14    0.29 
   1  15  -1    0.19    0.22 
   0  15  -1    0.06    0.24 
  -1  15  -1   -0.11    0.23 
  -2  15  -1    0.25    0.27 
  -3  15  -1    1.41    0.35 
  -4  15  -1    0.03    0.24 
  -5  15  -1    0.22    0.26 
  -6  15  -1    0.21    0.26 
  -7  15  -1   -0.11    0.26 
  -8  15  -1    0.04    0.25 
  -9 -14   1    0.24    0.33 
  -8 -14   1    0.13    0.31 
  -7 -14   1    0.04    0.30 
  -6 -14   1   -0.14    0.28 
   5  14  -1    0.16    0.26 
  -5 -14   1    0.17    0.28 
   4  14  -1    0.48    0.31 
  -4 -14   1    0.78    0.31 
   3  14  -1    0.47    0.25 
  -3 -14   1    0.19    0.25 
   2  14  -1    0.25    0.25 
  -2 -14   1   -0.07    0.25 
   1  14  -1    0.38    0.23 
  -1 -14   1    0.00    0.25 
   0  14  -1    1.00    0.26 
  -1  14  -1   -0.07    0.22 
  -2  14  -1   -0.04    0.24 
  -3  14  -1    0.22    0.23 
  -4  14  -1    0.47    0.27 
  -5  14  -1   -0.06    0.22 
  -6  14  -1    0.15    0.22 
  -7  14  -1   -0.06    0.26 
  -8  14  -1    0.42    0.27 
  -9  14  -1    0.52    0.26 
 -10 -13   1    0.05    0.29 
  -9 -13   1   -0.07    0.30 
  -8 -13   1    0.00    0.30 
  -7 -13   1   -0.29    0.25 
   5  13  -1    0.34    0.25 
  -5 -13   1    0.19    0.28 
   4  13  -1    0.39    0.26 
  -4 -13   1    0.40    0.26 
   3  13  -1    0.80    0.29 
  -3 -13   1    0.69    0.27 
   2  13  -1    0.50    0.25 
  -2 -13   1    0.62    0.26 
   1  13  -1    1.04    0.27 
  -1 -13   1    1.74    0.32 
   0  13  -1   -0.11    0.19 
  -1  13  -1    1.10    0.28 
  -2  13  -1    0.87    0.27 
  -3  13  -1    0.42    0.25 
  -4  13  -1   -0.20    0.21 
  -5  13  -1    0.15    0.23 
  -6  13  -1    0.12    0.22 
  -7  13  -1    0.20    0.24 
  -8  13  -1    0.21    0.25 
  -9  13  -1    0.31    0.26 
 -10 -12   1    0.02    0.32 
  -9 -12   1    0.04    0.30 
  -8 -12   1   -0.19    0.27 
  -7 -12   1   -0.15    0.26 
   6  12  -1    1.63    0.28 
  -6 -12   1    1.21    0.31 
   5  12  -1    0.07    0.20 
  -5 -12   1   -0.07    0.23 
   4  12  -1    2.22    0.33 
  -4 -12   1    2.01    0.34 
   3  12  -1    3.17    0.32 
  -3 -12   1    2.79    0.32 
   2  12  -1    2.44    0.29 
  -2 -12   1    2.61    0.28 
   1  12  -1    1.41    0.27 
  -1 -12   1    1.65    0.25 
   0  12  -1    0.34    0.21 
  -1  12  -1    1.28    0.27 
  -2  12  -1    2.36    0.30 
  -3  12  -1    2.77    0.32 
  -4  12  -1    0.88    0.25 
  -5  12  -1    0.08    0.20 
  -6  12  -1    0.82    0.27 
  -7  12  -1    0.14    0.20 
  -8  12  -1    0.16    0.24 
  -9  12  -1    0.14    0.23 
 -10  12  -1    0.37    0.26 
 -11 -11   1    0.44    0.35 
 -10 -11   1    0.12    0.32 
  -9 -11   1   -0.01    0.29 
  -8 -11   1    0.16    0.28 
  -7 -11   1   -0.02    0.24 
   6  11  -1    0.46    0.21 
  -6 -11   1    0.26    0.25 
   5  11  -1    1.36    0.30 
  -5 -11   1    1.06    0.29 
   4  11  -1    0.14    0.22 
  -4 -11   1   -0.01    0.23 
   3  11  -1    1.16    0.30 
  -3 -11   1    1.78    0.29 
   2  11  -1    0.79    0.26 
  -2 -11   1    1.43    0.25 
   1  11  -1   -0.04    0.18 
  -1 -11   1    0.00    0.19 
   0  11  -1   -0.11    0.16 
  -1  11  -1   -0.11    0.15 
  -2  11  -1    1.07    0.24 
  -3  11  -1    0.95    0.23 
  -4  11  -1   -0.06    0.17 
  -5  11  -1    0.59    0.24 
  -6  11  -1    0.29    0.23 
  -7  11  -1    0.14    0.22 
  -8  11  -1    0.04    0.22 
  -9  11  -1   -0.10    0.21 
 -10  11  -1    0.31    0.26 
 -11  11  -1    0.32    0.24 
 -11 -10   1    0.38    0.28 
 -10 -10   1    0.06    0.29 
  -9 -10   1    0.64    0.31 
  -8 -10   1    1.07    0.32 
  -7 -10   1    0.49    0.26 
   6  10  -1    0.57    0.22 
  -6 -10   1    0.78    0.28 
   5  10  -1    1.11    0.26 
  -5 -10   1    0.73    0.27 
   4  10  -1    0.14    0.20 
  -4 -10   1   -0.16    0.18 
   3  10  -1    1.74    0.29 
  -3 -10   1    1.45    0.12 
  -3 -10   1    1.70    0.27 
   2  10  -1    9.16    0.55 
  -2 -10   1    9.07    0.58 
  -2 -10   1    8.95    0.37 
   1  10  -1    0.89    0.22 
  -1 -10   1    0.71    0.21 
   0  10  -1    1.46    0.25 
   0 -10   1    1.39    0.25 
  -1  10  -1    0.43    0.20 
  -2  10  -1    6.73    0.45 
  -3  10  -1    1.02    0.22 
  -4  10  -1    0.08    0.16 
  -5  10  -1   -0.13    0.19 
  -6  10  -1    0.29    0.22 
  -7  10  -1    0.30    0.21 
  -8  10  -1    0.61    0.26 
  -9  10  -1    0.44    0.25 
 -10  10  -1    0.09    0.22 
 -11  10  -1    0.26    0.25 
 -12  -9   1    0.50    0.30 
 -11  -9   1    0.35    0.29 
 -10  -9   1    0.16    0.29 
  -9  -9   1    0.19    0.26 
  -8  -9   1    0.22    0.26 
  -7  -9   1    2.24    0.31 
   5   9  -1    0.68    0.21 
  -5  -9   1    0.38    0.23 
   4   9  -1    0.58    0.20 
  -4  -9   1    0.55    0.21 
   3   9  -1    0.23    0.19 
  -3  -9   1    0.20    0.07 
  -3  -9   1    0.24    0.19 
   2   9  -1    1.74    0.21 
  -2  -9   1    1.49    0.11 
  -2  -9   1    1.73    0.22 
   1   9  -1   -0.02    0.13 
  -1  -9   1   -0.03    0.15 
  -1  -9   1   -0.03    0.06 
   0   9  -1   -0.02    0.14 
   0  -9   1   -0.05    0.16 
  -1   9  -1    0.01    0.14 
  -2   9  -1    1.90    0.22 
  -3   9  -1    0.34    0.17 
  -4   9  -1    0.13    0.16 
  -5   9  -1    0.43    0.18 
  -6   9  -1    1.25    0.27 
  -7   9  -1    1.91    0.27 
  -8   9  -1    0.10    0.19 
  -9   9  -1    0.08    0.21 
 -10   9  -1   -0.25    0.19 
 -11   9  -1    0.17    0.23 
 -12   9  -1    0.36    0.18 
 -12  -8   1    0.19    0.29 
 -11  -8   1    0.08    0.27 
 -10  -8   1    0.24    0.26 
  -9  -8   1    0.10    0.24 
  -8  -8   1   -0.10    0.22 
   7   8  -1    0.46    0.17 
  -7  -8   1    0.69    0.27 
   6   8  -1    0.63    0.18 
  -6  -8   1    0.81    0.25 
  -5  -8   1    1.57    0.24 
  -5  -8   1    1.37    0.11 
   4   8  -1    2.43    0.24 
  -4  -8   1    2.25    0.13 
  -4  -8   1    2.29    0.26 
   3   8  -1    2.67    0.25 
  -3  -8   1    2.46    0.26 
  -3  -8   1    2.28    0.13 
   2   8  -1    0.37    0.16 
  -2  -8   1    0.54    0.17 
  -2  -8   1    0.46    0.08 
   1   8  -1    2.76    0.25 
  -1  -8   1    2.90    0.15 
  -1  -8   1    2.90    0.25 
   0   8  -1    1.51    0.20 
   0  -8   1    1.55    0.19 
  -1   8  -1    2.20    0.22 
  -2   8  -1    0.55    0.16 
  -3   8  -1    1.46    0.20 
  -4   8  -1    1.97    0.23 
  -5   8  -1    1.03    0.21 
  -6   8  -1    0.30    0.20 
  -7   8  -1    0.29    0.19 
  -8   8  -1   -0.14    0.16 
  -9   8  -1   -0.05    0.21 
 -10   8  -1    0.02    0.21 
 -11   8  -1    0.15    0.21 
 -12   8  -1    0.29    0.18 
 -12  -7   1    0.61    0.34 
 -11  -7   1    0.47    0.29 
 -10  -7   1    0.02    0.25 
  -9  -7   1    0.57    0.28 
  -8  -7   1    0.20    0.24 
   7   7  -1    4.26    0.31 
  -7  -7   1    4.39    0.39 
   6   7  -1    1.29    0.17 
  -6  -7   1    1.11    0.12 
  -6  -7   1    1.26    0.25 
  -5  -7   1    1.14    0.24 
  -5  -7   1    0.87    0.09 
   4   7  -1    0.14    0.13 
  -4  -7   1    0.38    0.18 
  -4  -7   1    0.32    0.07 
   3   7  -1    5.49    0.35 
  -3  -7   1    6.22    0.41 
  -3  -7   1    5.68    0.24 
   2   7  -1    5.49    0.35 
  -2  -7   1    5.32    0.23 
  -2  -7   1    5.62    0.37 
   1   7  -1   11.10    0.58 
  -1  -7   1   11.06    0.63 
  -1  -7   1   10.56    0.42 
   0   7  -1   -0.08    0.10 
   0  -7   1   -0.11    0.11 
  -1   7  -1    8.81    0.50 
  -2   7  -1    7.50    0.44 
  -3   7  -1    5.15    0.34 
  -4   7  -1    0.09    0.12 
  -5   7  -1    0.80    0.18 
  -6   7  -1    1.12    0.22 
  -7   7  -1    3.86    0.33 
  -8   7  -1    0.05    0.18 
  -9   7  -1    0.71    0.23 
 -10   7  -1    0.41    0.21 
 -12   7  -1    0.32    0.18 
 -12  -6   1    0.18    0.29 
 -11  -6   1    0.18    0.27 
 -10  -6   1    0.43    0.29 
  -9  -6   1    1.33    0.33 
  -8  -6   1    4.34    0.41 
   7   6  -1    1.11    0.18 
  -7  -6   1    1.38    0.14 
  -7  -6   1    1.32    0.28 
   6   6  -1   -0.02    0.09 
  -6  -6   1   -0.01    0.07 
  -6  -6   1   -0.17    0.15 
   5   6  -1    0.00    0.08 
  -5  -6   1    0.10    0.15 
  -5  -6   1    0.12    0.06 
   4   6  -1    0.07    0.05 
  -4  -6   1    0.16    0.06 
  -4  -6   1    0.30    0.17 
   3   6  -1   35.54    1.58 
  -3  -6   1   33.02    1.20 
  -3  -6   1   33.17    1.79 
   2   6  -1    0.86    0.15 
  -2  -6   1    0.71    0.07 
  -2  -6   1    1.02    0.16 
   1   6  -1    9.52    0.48 
  -1  -6   1    8.71    0.34 
  -1  -6   1    8.52    0.51 
   0   6  -1    5.11    0.31 
   0  -6   1    5.23    0.32 
   0  -6   1    5.02    0.22 
  -1   6  -1    6.79    0.39 
  -3   6  -1   28.04    1.34 
  -4   6  -1    0.25    0.12 
  -5   6  -1   -0.08    0.11 
  -6   6  -1    0.00    0.13 
  -7   6  -1    1.03    0.23 
  -8   6  -1    4.12    0.36 
  -9   6  -1    1.19    0.26 
 -10   6  -1    0.55    0.22 
 -12   6  -1    0.23    0.18 
 -13  -5   1    0.21    0.31 
 -12  -5   1    0.25    0.29 
 -11  -5   1    0.34    0.27 
 -10  -5   1   -0.16    0.24 
  -9  -5   1    1.57    0.34 
  -8  -5   1    0.18    0.13 
  -8  -5   1    0.28    0.24 
   7   5  -1    0.06    0.11 
  -7  -5   1   -0.12    0.17 
  -7  -5   1    0.04    0.09 
   6   5  -1    0.92    0.14 
  -6  -5   1    1.00    0.11 
  -6  -5   1    1.29    0.23 
   5   5  -1    0.09    0.07 
  -5  -5   1   -0.02    0.14 
  -5  -5   1    0.05    0.06 
   4   5  -1    1.18    0.13 
  -4  -5   1    1.30    0.09 
  -4  -5   1    1.27    0.18 
   3   5  -1    0.02    0.04 
  -3  -5   1    0.30    0.13 
   2   5  -1    3.40    0.23 
  -2  -5   1    3.57    0.26 
  -2  -5   1    3.67    0.15 
   1   5  -1   17.21    0.85 
  -1  -5   1   17.75    0.95 
  -1  -5   1   18.00    0.64 
   0   5  -1   -0.02    0.07 
   0  -5   1   -0.02    0.08 
   0  -5   1   -0.07    0.04 
  -1   5  -1   14.40    0.71 
  -2   5  -1    3.68    0.24 
  -3   5  -1   -0.01    0.08 
  -4   5  -1    1.16    0.15 
  -5   5  -1    0.01    0.11 
  -6   5  -1    1.54    0.23 
  -7   5  -1    0.03    0.16 
  -8   5  -1    0.24    0.19 
  -9   5  -1    1.22    0.26 
 -10   5  -1    0.02    0.17 
 -11   5  -1    0.17    0.19 
 -12   5  -1    0.50    0.19 
 -13   5  -1    0.58    0.20 
 -13  -4   1    0.70    0.34 
 -12  -4   1    0.54    0.31 
 -11  -4   1    0.12    0.26 
 -10  -4   1   -0.03    0.25 
  -9  -4   1    0.24    0.13 
  -9  -4   1    0.02    0.24 
  -8  -4   1    2.84    0.20 
  -8  -4   1    2.55    0.32 
   7   4  -1    1.19    0.15 
  -7  -4   1    1.37    0.15 
  -7  -4   1    1.54    0.28 
   6   4  -1    3.13    0.21 
  -6  -4   1    3.02    0.17 
  -6  -4   1    3.00    0.29 
   5   4  -1    3.23    0.21 
  -5  -4   1    3.24    0.28 
  -5  -4   1    3.30    0.17 
   4   4  -1    0.82    0.10 
  -4  -4   1    1.01    0.17 
  -4  -4   1    0.87    0.08 
   3   4  -1   12.98    0.62 
  -3  -4   1   13.12    0.73 
  -3  -4   1   12.66    0.48 
  -2  -4   1   33.27    1.11 
  -2  -4   1   29.29    1.63 
   1   4  -1   43.21    1.95 
  -1  -4   1   43.71    1.50 
  -1  -4   1   41.11    2.20 
   0   4  -1   77.82    3.32 
   0  -4   1   73.18    3.76 
   0  -4   1   69.78    2.57 
  -1   4  -1   34.18    1.58 
  -2   4  -1   26.98    1.26 
  -3   4  -1   11.54    0.59 
  -4   4  -1    0.85    0.15 
  -5   4  -1    3.35    0.25 
  -6   4  -1    3.08    0.26 
  -7   4  -1    1.67    0.25 
  -8   4  -1    2.67    0.28 
  -9   4  -1    0.34    0.19 
 -10   4  -1   -0.09    0.17 
 -11   4  -1   -0.01    0.16 
 -12   4  -1    0.67    0.19 
 -13   4  -1    0.52    0.20 
 -13  -3   1    0.62    0.33 
 -12  -3   1   -0.04    0.27 
 -11  -3   1    0.02    0.26 
 -10  -3   1    1.13    0.18 
  -9  -3   1    0.46    0.13 
   8   3  -1   -0.06    0.12 
  -8  -3   1    0.06    0.10 
   7   3  -1    0.37    0.12 
  -7  -3   1    0.50    0.11 
   6   3  -1    0.86    0.12 
  -6  -3   1    0.99    0.11 
   5   3  -1    1.05    0.11 
  -5  -3   1    0.94    0.10 
   4   3  -1    9.02    0.44 
  -4  -3   1    8.78    0.35 
  -4  -3   1    9.15    0.54 
   3   3  -1    0.53    0.08 
  -3  -3   1    0.85    0.07 
  -3  -3   1    0.63    0.13 
   2   3  -1    1.40    0.11 
  -2  -3   1    1.84    0.09 
  -2  -3   1    1.80    0.15 
   1   3  -1    9.13    0.46 
  -1  -3   1   10.12    0.35 
  -1  -3   1    8.95    0.51 
   0   3  -1   -0.01    0.04 
   0  -3   1   -0.03    0.03 
   0  -3   1    0.01    0.05 
  -1   3  -1    6.95    0.36 
  -2   3  -1    1.94    0.15 
  -3   3  -1    0.44    0.10 
  -4   3  -1    8.42    0.46 
  -5   3  -1    1.16    0.17 
  -6   3  -1    1.07    0.18 
  -7   3  -1    0.10    0.15 
  -8   3  -1    0.28    0.17 
  -9   3  -1    0.46    0.19 
 -10   3  -1    1.08    0.21 
 -10   3  -1    0.90    0.23 
 -11   3  -1   -0.19    0.15 
 -12   3  -1    0.24    0.17 
 -13   3  -1    0.48    0.20 
 -13  -2   1    0.90    0.35 
 -11  -2   1    0.21    0.15 
 -10  -2   1    1.06    0.18 
  -9  -2   1    0.07    0.11 
   8   2  -1    1.22    0.19 
   7   2  -1    0.16    0.11 
  -7  -2   1    0.01    0.09 
   6   2  -1    0.74    0.12 
  -6  -2   1    0.73    0.11 
   5   2  -1   13.44    0.66 
  -5  -2   1   14.25    0.54 
   4   2  -1    1.33    0.10 
  -4  -2   1    1.27    0.10 
   3   2  -1    0.88    0.08 
  -3  -2   1    1.26    0.08 
   2   2  -1   65.92    2.82 
  -2  -2   1   61.45    2.20 
  -2  -2   1   60.73    3.22 
  -1  -2   1    0.26    0.03 
  -1  -2   1    0.13    0.06 
   0   2  -1   14.41    0.66 
   0  -2   1   14.23    0.74 
   0  -2   1   13.90    0.51 
  -1   2  -1    0.12    0.05 
  -2   2  -1   55.26    2.50 
  -3   2  -1    0.80    0.11 
  -4   2  -1    1.21    0.13 
  -5   2  -1   12.69    0.65 
  -6   2  -1    0.72    0.15 
  -7   2  -1   -0.03    0.12 
  -8   2  -1    1.44    0.23 
  -9   2  -1    0.21    0.17 
 -10   2  -1    0.94    0.22 
 -10   2  -1    0.74    0.19 
 -11   2  -1   -0.10    0.14 
 -12   2  -1    0.11    0.16 
 -13   2  -1    0.50    0.20 
 -12  -1   1    0.27    0.16 
 -11  -1   1    0.26    0.15 
 -10  -1   1    0.69    0.17 
  -9  -1   1    1.88    0.17 
   8   1  -1    0.04    0.12 
  -8  -1   1    0.09    0.10 
   7   1  -1    0.36    0.12 
  -7  -1   1    0.17    0.10 
   6   1  -1    3.34    0.23 
  -6  -1   1    3.79    0.21 
   5   1  -1    4.48    0.26 
  -5  -1   1    4.90    0.23 
   4   1  -1    6.22    0.33 
  -4  -1   1    6.75    0.28 
  -3  -1   1    2.62    0.13 
  -2  -1   1   17.66    0.64 
  -1  -1   1   18.16    0.65 
   0   1  -1   -0.01    0.01 
   0  -1   1   -0.01    0.01 
   0  -1   1   -0.02    0.01 
   1  -1   1   14.41    0.67 
   2  -1   1   14.22    0.67 
   3  -1   1    2.00    0.14 
   4  -1   1    6.63    0.35 
   5  -1   1    4.27    0.27 
   6  -1   1    3.67    0.25 
   7  -1   1    0.34    0.14 
  -8   1  -1   -0.10    0.13 
  -9   1  -1    1.87    0.19 
  -9   1  -1    1.72    0.27 
 -10   1  -1    0.56    0.17 
 -11   1  -1   -0.12    0.13 
 -12   1  -1    0.10    0.16 
 -13   1  -1    0.18    0.16 
 -13   0   1    0.30    0.17 
 -12   0   1    0.19    0.16 
 -11   0   1   -0.04    0.14 
 -10   0   1   -0.19    0.12 
  -9   0   1    0.03    0.11 
  -8   0   1   -0.06    0.12 
  -8   0   1   -0.05    0.10 
  -7   0   1   -0.16    0.10 
  -7   0   1    0.04    0.09 
  -6   0   1   -0.02    0.07 
  -5   0   1    0.41    0.10 
   4   0  -1    0.00    0.05 
  -4   0   1   -0.01    0.04 
   3   0  -1   -0.01    0.04 
  -3   0   1    0.00    0.03 
  -2   0   1   -0.04    0.02 
  -1   0   1   -0.01    0.02 
   0   0   1    0.00    0.01 
   0   0   1    0.00    0.00 
   1   0   1    0.00    0.02 
   3   0   1   -0.04    0.04 
   4   0   1    0.07    0.06 
   5   0   1    0.20    0.10 
   6   0   1    0.04    0.09 
   7   0   1   -0.08    0.11 
  -8   0  -1   -0.02    0.10 
   8   0   1    0.03    0.14 
  -9   0  -1    0.04    0.10 
 -10   0  -1   -0.25    0.13 
 -11   0  -1    0.15    0.14 
 -12   0  -1    0.31    0.15 
 -13   1   1   -0.06    0.16 
 -12   1   1    0.18    0.16 
 -11   1   1    0.09    0.14 
 -10   1   1    0.64    0.18 
  -9   1   1    2.01    0.20 
  -8   1   1    0.01    0.10 
  -8   1   1   -0.10    0.13 
  -7   1   1    0.16    0.13 
  -7   1   1    0.21    0.10 
  -6   1   1    3.65    0.26 
  -6   1   1    3.89    0.21 
  -5   1   1    5.23    0.30 
  -5   1   1    4.64    0.24 
  -4   1   1    7.35    0.38 
  -3   1   1    2.71    0.17 
  -2   1   1   19.35    0.89 
  -1   1   1   22.45    1.02 
   0   1   1    0.02    0.02 
   0   1   1    0.00    0.00 
  -1  -1  -1   15.51    0.87 
   1   1   1   18.21    0.78 
   2   1   1   17.03    0.79 
   3   1   1    2.14    0.14 
   4   1   1    6.73    0.35 
   5   1   1    4.17    0.26 
  -6  -1  -1    3.83    0.20 
   6   1   1    3.26    0.24 
  -7  -1  -1    0.23    0.10 
   7   1   1    0.20    0.11 
  -8  -1  -1   -0.06    0.09 
   8   1   1   -0.01    0.09 
  -9  -1  -1    1.81    0.20 
 -10  -1  -1    0.67    0.16 
 -11  -1  -1    0.21    0.15 
 -13  -1  -1    0.49    0.33 
 -13   2   1    0.71    0.20 
 -12   2   1    0.25    0.16 
 -11   2   1    0.16    0.17 
 -10   2   1    0.90    0.20 
  -9   2   1    0.25    0.17 
  -9   2   1    0.41    0.14 
  -8   2   1    1.21    0.17 
  -8   2   1    1.40    0.22 
  -7   2   1   -0.11    0.09 
  -7   2   1    0.15    0.13 
  -6   2   1    0.79    0.15 
  -5   2   1   14.63    0.73 
  -4   2   1    1.42    0.13 
  -3   2   1    0.96    0.10 
  -2   2   1   61.47    2.77 
  -1   2   1    0.14    0.05 
   0  -2  -1   14.01    0.78 
   0   2   1   15.83    0.70 
  -1  -2  -1    0.15    0.05 
   1   2   1    0.10    0.04 
  -2  -2  -1   55.60    2.94 
   2   2   1   58.94    2.58 
  -3  -2  -1    0.74    0.12 
  -3  -2  -1    0.52    0.06 
   3   2   1    0.55    0.08 
  -4  -2  -1    1.28    0.09 
  -5  -2  -1   12.61    0.46 
   5   2   1   10.41    0.57 
  -6  -2  -1    0.65    0.09 
   6   2   1    0.36    0.10 
  -7  -2  -1   -0.13    0.08 
   7   2   1    0.01    0.08 
  -8  -2  -1    1.36    0.16 
  -9  -2  -1    0.19    0.12 
   9   2   1    0.01    0.15 
 -10  -2  -1    1.07    0.18 
 -11  -2  -1    0.14    0.27 
 -12  -2  -1    0.25    0.29 
 -13  -2  -1    0.53    0.31 
 -13   3   1    0.57    0.20 
 -12   3   1    0.27    0.18 
 -11   3   1   -0.20    0.16 
 -10   3   1    0.95    0.20 
  -9   3   1    0.53    0.16 
  -9   3   1    0.64    0.20 
  -8   3   1   -0.25    0.11 
  -8   3   1    0.08    0.16 
  -7   3   1    0.26    0.16 
  -6   3   1    1.04    0.17 
  -5   3   1    1.07    0.16 
  -4   3   1    8.48    0.45 
  -3   3   1    0.50    0.09 
  -2   3   1    1.91    0.14 
  -1   3   1    8.73    0.44 
   0  -3  -1    0.06    0.06 
   0   3   1   -0.02    0.05 
  -1  -3  -1    8.34    0.48 
   1   3   1    9.09    0.43 
  -2  -3  -1    1.93    0.15 
   2   3   1    1.62    0.13 
  -3  -3  -1    0.53    0.11 
   3   3   1    0.55    0.09 
  -4  -3  -1    7.93    0.32 
  -4  -3  -1    8.61    0.51 
   4   3   1    8.48    0.43 
  -5  -3  -1    0.96    0.09 
  -5  -3  -1    1.22    0.20 
   5   3   1    0.96    0.13 
  -6  -3  -1    0.89    0.10 
  -6  -3  -1    0.86    0.20 
  -7  -3  -1    0.07    0.10 
  -7  -3  -1    0.13    0.19 
   7   3   1    0.11    0.08 
  -8  -3  -1   -0.10    0.21 
  -8  -3  -1    0.06    0.10 
   8   3   1    0.11    0.13 
  -9  -3  -1    0.43    0.13 
  -9  -3  -1    0.13    0.26 
 -10  -3  -1    1.27    0.33 
 -11  -3  -1    0.09    0.26 
 -12  -3  -1    0.13    0.28 
 -13  -3  -1    0.23    0.31 
 -13   4   1    0.61    0.20 
 -12   4   1    0.71    0.22 
 -11   4   1    0.07    0.17 
 -10   4   1   -0.01    0.15 
  -9   4   1    0.41    0.20 
  -9   4   1    0.14    0.16 
  -8   4   1    2.89    0.28 
  -7   4   1    1.56    0.23 
  -6   4   1    3.15    0.25 
  -5   4   1    3.29    0.24 
  -4   4   1    0.95    0.14 
  -3   4   1   11.77    0.59 
  -2   4   1   29.73    1.38 
  -1   4   1   39.70    1.82 
   0  -4  -1   70.16    3.45 
   0   4   1   64.51    3.04 
  -1  -4  -1   35.70    1.90 
   1   4   1   37.79    1.69 
  -2  -4  -1   30.21    1.62 
   2   4   1   31.69    1.43 
  -3  -4  -1   12.79    0.73 
   3   4   1   13.40    0.64 
  -4  -4  -1    0.96    0.17 
   4   4   1    1.00    0.13 
  -5  -4  -1    2.74    0.15 
  -5  -4  -1    3.58    0.28 
   5   4   1    3.15    0.22 
  -6  -4  -1    3.13    0.28 
  -6  -4  -1    2.54    0.16 
  -7  -4  -1    1.14    0.14 
  -7  -4  -1    1.30    0.26 
  -8  -4  -1    2.24    0.18 
  -8  -4  -1    2.42    0.31 
   8   4   1    2.48    0.24 
  -9  -4  -1    0.21    0.25 
 -10  -4  -1    0.10    0.26 
 -11  -4  -1    0.16    0.26 
 -12  -4  -1    0.38    0.30 
 -13  -4  -1    0.15    0.29 
 -13   5   1    0.65    0.21 
 -12   5   1    0.32    0.19 
 -11   5   1    0.26    0.17 
 -10   5   1   -0.14    0.15 
  -9   5   1    1.06    0.20 
  -9   5   1    1.29    0.24 
  -8   5   1    0.14    0.19 
  -7   5   1   -0.08    0.14 
  -6   5   1    1.23    0.20 
  -5   5   1    0.10    0.11 
  -4   5   1    1.22    0.15 
  -3   5   1    0.10    0.10 
  -2   5   1    3.45    0.24 
  -1   5   1   15.67    0.78 
   0  -5  -1   -0.03    0.09 
   0   5   1    0.01    0.08 
  -1  -5  -1   15.32    0.83 
   1   5   1   15.40    0.75 
  -2  -5  -1    3.46    0.24 
   2   5   1    3.34    0.23 
  -3  -5  -1    0.07    0.10 
   3   5   1    0.03    0.09 
  -4  -5  -1    1.41    0.19 
   4   5   1    1.43    0.15 
  -5  -5  -1    0.06    0.14 
   5   5   1    0.02    0.09 
  -6  -5  -1    1.38    0.24 
  -6  -5  -1    0.68    0.10 
   6   5   1    1.04    0.15 
  -7  -5  -1   -0.12    0.08 
  -7  -5  -1    0.08    0.19 
   7   5   1    0.03    0.08 
  -8  -5  -1    0.64    0.26 
   8   5   1    0.25    0.15 
  -9  -5  -1    1.50    0.32 
 -10  -5  -1   -0.12    0.24 
 -11  -5  -1    0.30    0.28 
 -12  -5  -1    0.33    0.30 
 -13  -5  -1    0.22    0.29 
 -12   6   1    0.23    0.18 
 -11   6   1   -0.17    0.15 
 -10   6   1    0.21    0.18 
 -10   6   1    0.54    0.21 
  -9   6   1    1.51    0.26 
  -8   6   1    3.89    0.34 
  -7   6   1    1.23    0.25 
  -6   6   1   -0.12    0.13 
  -5   6   1    0.02    0.12 
  -4   6   1    0.23    0.13 
  -3   6   1   31.81    1.51 
  -2   6   1    0.91    0.16 
  -1   6   1    7.98    0.45 
   0  -6  -1    4.94    0.31 
   0   6   1    4.19    0.29 
  -1  -6  -1    7.22    0.44 
   1   6   1    7.28    0.41 
   2   6   1    0.58    0.15 
  -3  -6  -1   32.13    1.67 
   3   6   1   30.54    1.48 
  -4  -6  -1    0.47    0.16 
  -5  -6  -1   -0.01    0.15 
   5   6   1   -0.06    0.10 
  -6  -6  -1    0.10    0.17 
  -6  -6  -1    0.10    0.06 
   6   6   1    0.19    0.13 
  -7  -6  -1    1.09    0.28 
  -8  -6  -1    3.89    0.37 
   8   6   1    2.85    0.26 
  -9  -6  -1    1.48    0.33 
 -10  -6  -1    0.43    0.26 
 -11  -6  -1    0.07    0.24 
 -12  -6  -1    0.06    0.28 
 -12   7   1    0.31    0.20 
 -11   7   1   -0.05    0.16 
 -10   7   1   -0.27    0.14 
 -10   7   1   -0.03    0.19 
  -9   7   1    0.37    0.22 
  -8   7   1   -0.14    0.16 
  -7   7   1    3.74    0.33 
  -6   7   1    1.20    0.24 
  -5   7   1    0.99    0.21 
  -4   7   1    0.10    0.14 
  -3   7   1    5.72    0.38 
  -2   7   1    5.19    0.35 
  -1   7   1    8.77    0.50 
   0  -7  -1   -0.12    0.12 
   0   7   1   -0.03    0.10 
  -1  -7  -1    8.56    0.54 
   1   7   1   10.24    0.52 
  -2  -7  -1    5.18    0.36 
   2   7   1    5.20    0.35 
  -3  -7  -1    5.45    0.38 
   3   7   1    5.43    0.36 
  -4  -7  -1    0.34    0.17 
   4   7   1    0.17    0.15 
  -5  -7  -1    1.39    0.24 
   5   7   1    1.09    0.19 
  -6  -7  -1    1.35    0.27 
   6   7   1    1.40    0.22 
  -7  -7  -1    4.31    0.40 
   7   7   1    3.50    0.30 
  -8  -7  -1    0.09    0.25 
   8   7   1    0.10    0.11 
  -9  -7  -1    0.62    0.28 
 -10  -7  -1    0.12    0.25 
 -11  -7  -1    0.11    0.26 
 -12  -7  -1    0.21    0.29 
 -12   8   1    0.54    0.20 
 -11   8   1    0.42    0.19 
 -10   8   1   -0.06    0.18 
 -10   8   1   -0.04    0.16 
  -9   8   1    0.01    0.20 
  -8   8   1   -0.05    0.18 
  -7   8   1    0.73    0.23 
  -6   8   1   -0.06    0.21 
  -5   8   1    1.87    0.27 
  -4   8   1    2.19    0.24 
  -3   8   1    1.96    0.23 
  -2   8   1    0.59    0.18 
  -1   8   1    2.92    0.27 
   0  -8  -1    1.39    0.20 
   0   8   1    1.30    0.22 
  -1  -8  -1    2.36    0.22 
   1   8   1    2.44    0.23 
  -2  -8  -1    0.38    0.16 
   2   8   1    0.18    0.16 
  -3  -8  -1    1.99    0.23 
   3   8   1    1.93    0.23 
  -4  -8  -1    2.39    0.25 
   4   8   1    2.26    0.25 
  -5  -8  -1    1.52    0.24 
   5   8   1    1.75    0.25 
  -6  -8  -1    1.16    0.28 
   6   8   1    1.14    0.24 
  -7  -8  -1    0.37    0.25 
  -8  -8  -1   -0.24    0.23 
  -9  -8  -1    0.14    0.26 
 -10  -8  -1    0.26    0.27 
 -11  -8  -1    0.07    0.28 
 -12  -8  -1    0.03    0.31 
 -12   9   1    0.38    0.18 
 -11   9   1    0.10    0.18 
  -9   9   1    0.14    0.21 
  -8   9   1    0.38    0.23 
  -7   9   1    2.14    0.28 
  -6   9   1    2.20    0.29 
  -5   9   1    0.32    0.21 
  -4   9   1    0.09    0.16 
  -3   9   1    0.15    0.17 
  -2   9   1    2.09    0.28 
  -1   9   1   -0.04    0.14 
   0   9   1   -0.05    0.14 
  -1  -9  -1   -0.04    0.15 
   1   9   1   -0.02    0.15 
  -2  -9  -1    1.44    0.22 
   2   9   1    1.86    0.26 
  -3  -9  -1    0.18    0.19 
   3   9   1    0.23    0.18 
  -4  -9  -1    0.69    0.21 
   4   9   1    0.26    0.22 
  -5  -9  -1    0.39    0.25 
   5   9   1    0.46    0.20 
  -6  -9  -1    2.72    0.35 
   6   9   1    2.85    0.31 
  -7  -9  -1    2.16    0.32 
   7   9   1    2.21    0.27 
  -8  -9  -1    0.21    0.27 
  -9  -9  -1   -0.09    0.25 
 -10  -9  -1   -0.14    0.26 
 -11  -9  -1    0.11    0.29 
 -12  -9  -1    0.06    0.27 
 -11  10   1    0.01    0.18 
 -10  10   1    0.33    0.24 
  -9  10   1    0.16    0.23 
  -8  10   1    1.04    0.29 
  -7  10   1    0.14    0.22 
  -6  10   1    0.52    0.23 
  -5  10   1   -0.05    0.20 
  -4  10   1   -0.05    0.16 
  -3  10   1    1.32    0.25 
  -2  10   1    8.12    0.54 
  -1  10   1    0.59    0.20 
   0  10   1    1.12    0.24 
  -1 -10  -1    0.80    0.22 
   1  10   1    0.83    0.21 
  -2 -10  -1    6.94    0.47 
   2  10   1    6.97    0.47 
  -3 -10  -1    1.71    0.27 
   3  10   1    1.56    0.28 
  -4 -10  -1   -0.08    0.20 
   4  10   1    0.19    0.22 
  -5 -10  -1   -0.01    0.25 
   5  10   1    0.26    0.20 
  -6 -10  -1    0.61    0.29 
   6  10   1    0.78    0.23 
  -7 -10  -1    0.24    0.27 
   7  10   1    0.64    0.20 
  -8 -10  -1    1.36    0.36 
  -9 -10  -1    0.22    0.29 
 -10 -10  -1   -0.22    0.29 
 -11 -10  -1   -0.07    0.33 
 -11  11   1    0.11    0.17 
 -10  11   1    0.15    0.26 
  -9  11   1    0.07    0.23 
  -8  11   1   -0.04    0.24 
  -7  11   1    0.06    0.22 
  -6  11   1    0.07    0.20 
  -5  11   1    0.75    0.25 
  -4  11   1   -0.24    0.18 
  -3  11   1    0.92    0.24 
  -2  11   1    0.72    0.23 
  -1  11   1   -0.08    0.16 
   0  11   1   -0.09    0.16 
  -1 -11  -1    0.11    0.20 
   1  11   1    0.16    0.18 
  -2 -11  -1    1.25    0.24 
   2  11   1    0.92    0.25 
  -3 -11  -1    1.51    0.28 
   3  11   1    1.23    0.28 
  -4 -11  -1   -0.28    0.21 
   4  11   1   -0.06    0.19 
  -5 -11  -1    0.92    0.30 
   5  11   1    1.36    0.28 
  -6 -11  -1    0.63    0.28 
   6  11   1    0.57    0.23 
  -7 -11  -1   -0.04    0.27 
   7  11   1    0.41    0.21 
  -8 -11  -1    0.10    0.28 
  -9 -11  -1   -0.33    0.30 
 -10 -11  -1    0.40    0.32 
 -11 -11  -1    0.39    0.33 
 -10  12   1    0.67    0.29 
  -9  12   1    0.09    0.23 
  -8  12   1    0.17    0.23 
  -7  12   1    0.19    0.23 
  -6  12   1    0.86    0.29 
  -5  12   1   -0.13    0.21 
  -4  12   1    1.11    0.27 
  -3  12   1    2.81    0.34 
  -2  12   1    1.72    0.30 
  -1  12   1    1.27    0.27 
   0  12   1    0.25    0.21 
  -1 -12  -1    1.70    0.26 
   1  12   1    1.20    0.26 
  -2 -12  -1    2.07    0.27 
   2  12   1    2.18    0.28 
  -3 -12  -1    2.64    0.31 
   3  12   1    3.15    0.32 
  -4 -12  -1    1.85    0.33 
   4  12   1    2.25    0.36 
  -5 -12  -1   -0.06    0.23 
   5  12   1    0.03    0.23 
  -6 -12  -1    0.94    0.34 
   6  12   1    1.55    0.30 
  -7 -12  -1   -0.16    0.28 
   7  12   1    0.36    0.21 
  -8 -12  -1   -0.02    0.31 
  -9 -12  -1   -0.20    0.31 
 -10 -12  -1    0.19    0.34 
  -9  13   1    0.12    0.25 
  -8  13   1   -0.33    0.23 
  -7  13   1   -0.26    0.23 
  -6  13   1   -0.13    0.22 
  -5  13   1    0.13    0.23 
  -4  13   1    0.04    0.25 
  -3  13   1    0.35    0.27 
  -2  13   1   -0.01    0.23 
  -1  13   1    0.55    0.26 
   0  13   1   -0.23    0.19 
   1  13   1    1.05    0.26 
  -2 -13  -1    0.40    0.25 
   2  13   1    0.58    0.28 
  -3 -13  -1    0.68    0.25 
   3  13   1    0.39    0.28 
  -4 -13  -1    0.09    0.24 
   4  13   1   -0.06    0.26 
  -5 -13  -1   -0.09    0.25 
   5  13   1   -0.19    0.23 
  -6 -13  -1   -0.15    0.29 
   6  13   1    0.34    0.24 
  -7 -13  -1   -0.19    0.30 
  -8 -13  -1    0.11    0.33 
  -9 -13  -1   -0.08    0.33 
 -10 -13  -1   -0.14    0.34 
  -9  14   1    0.65    0.29 
  -8  14   1    0.49    0.29 
  -7  14   1    0.27    0.27 
  -6  14   1   -0.06    0.21 
  -5  14   1   -0.14    0.25 
  -4  14   1    0.68    0.29 
  -3  14   1    0.20    0.27 
  -2  14   1   -0.11    0.24 
  -1  14   1    0.06    0.23 
   0  14   1    0.82    0.27 
   1  14   1    0.38    0.23 
  -2 -14  -1    0.22    0.26 
   2  14   1    0.42    0.25 
  -3 -14  -1    0.32    0.25 
   3  14   1    0.21    0.27 
  -4 -14  -1    0.74    0.28 
   4  14   1    0.92    0.33 
  -5 -14  -1   -0.16    0.26 
   5  14   1    0.26    0.28 
  -6 -14  -1   -0.11    0.28 
   6  14   1    0.67    0.26 
  -7 -14  -1   -0.14    0.33 
  -8 -14  -1    0.40    0.39 
  -9 -14  -1   -0.21    0.31 
  -8  15   1    0.10    0.26 
  -7  15   1   -0.04    0.25 
  -6  15   1    0.07    0.26 
  -5  15   1    0.58    0.29 
  -4  15   1    0.21    0.28 
  -3  15   1    1.41    0.37 
  -2  15   1   -0.08    0.26 
  -1  15   1    0.20    0.27 
   0  15   1    0.01    0.21 
   1  15   1    0.11    0.24 
  -2 -15  -1    0.25    0.29 
   2  15   1    0.48    0.26 
  -3 -15  -1    2.09    0.38 
   3  15   1    2.36    0.40 
  -4 -15  -1    0.07    0.27 
   4  15   1    0.14    0.28 
  -5 -15  -1    0.06    0.27 
   5  15   1    0.80    0.31 
  -6 -15  -1   -0.27    0.29 
   6  15   1    0.82    0.28 
  -7 -15  -1   -0.45    0.31 
  -8 -15  -1   -0.35    0.33 
  -7  16   1    0.25    0.25 
  -6  16   1    0.03    0.25 
  -5  16   1    0.02    0.25 
  -4  16   1    0.49    0.29 
  -3  16   1    0.08    0.26 
  -2  16   1    0.34    0.27 
  -1  16   1   -0.05    0.23 
   0  16   1   -0.15    0.22 
   1  16   1    0.24    0.25 
   2  16   1    0.38    0.29 
  -3 -16  -1   -0.15    0.28 
   3  16   1    0.34    0.28 
  -4 -16  -1   -0.09    0.27 
   4  16   1    0.53    0.31 
  -5 -16  -1   -0.23    0.28 
   5  16   1    0.57    0.30 
  -6 -16  -1   -0.29    0.29 
  -7 -16  -1   -0.30    0.33 
  -6  17   1    0.17    0.24 
  -5  17   1    0.68    0.25 
  -4  17   1    0.06    0.27 
  -3  17   1    0.56    0.26 
  -2  17   1    0.22    0.23 
  -1  17   1    0.21    0.22 
   0  17   1    0.62    0.26 
   1  17   1    0.13    0.27 
   2  17   1    0.32    0.25 
  -3 -17  -1   -0.14    0.30 
   3  17   1    0.51    0.28 
  -4 -17  -1   -0.14    0.30 
   4  17   1    0.55    0.29 
  -5 -17  -1   -0.39    0.28 
   5  17   1    0.88    0.30 
  -6 -17  -1   -0.15    0.30 
  -4  18   1    0.25    0.21 
  -3  18   1    0.61    0.25 
  -2  18   1    0.22    0.24 
  -1  18   1    0.23    0.22 
   0  18   1    0.23    0.22 
   1  18   1    0.51    0.25 
   2  18   1    0.45    0.25 
   3  18   1    0.96    0.29 
  -4 -18  -1    0.16    0.33 
   4  18   1    0.98    0.32 
  -5 -18  -1   -0.13    0.29 
  -1  19   1    0.22    0.21 
   0  19   1    0.45    0.23 
   1  19   1    0.76    0.27 
   2  19   1    0.71    0.27 
   1  19  -2    0.71    0.26 
   0  19  -2    0.60    0.24 
  -1  19  -2    0.35    0.23 
  -5 -18   2   -0.16    0.30 
  -4 -18   2   -0.40    0.31 
   3  18  -2    0.49    0.25 
  -3 -18   2   -0.48    0.31 
   2  18  -2    0.65    0.26 
   1  18  -2    0.27    0.25 
   0  18  -2    0.47    0.25 
  -1  18  -2    0.17    0.23 
  -2  18  -2    0.53    0.27 
  -3  18  -2    0.50    0.25 
  -4  18  -2    0.33    0.24 
  -6 -17   2   -0.49    0.29 
  -5 -17   2    0.06    0.31 
   4  17  -2    1.09    0.31 
  -4 -17   2    0.44    0.32 
   3  17  -2    0.21    0.25 
  -3 -17   2   -0.13    0.32 
   2  17  -2    0.61    0.27 
   1  17  -2    0.31    0.24 
   0  17  -2   -0.07    0.24 
  -1  17  -2    0.04    0.27 
  -2  17  -2    0.15    0.24 
  -3  17  -2    0.24    0.22 
  -4  17  -2    0.64    0.26 
  -5  17  -2    0.40    0.30 
  -6  17  -2   -0.16    0.22 
  -7 -16   2   -0.23    0.32 
  -6 -16   2    0.13    0.33 
  -5 -16   2   -0.07    0.31 
   4  16  -2    0.36    0.27 
  -4 -16   2   -0.01    0.29 
   3  16  -2    0.76    0.28 
  -3 -16   2    0.51    0.32 
   2  16  -2    0.48    0.26 
  -2 -16   2   -0.19    0.30 
   1  16  -2    0.01    0.25 
   0  16  -2   -0.06    0.24 
  -1  16  -2    0.37    0.27 
  -2  16  -2    0.10    0.26 
  -3  16  -2    0.71    0.29 
  -4  16  -2    0.40    0.26 
  -5  16  -2    0.12    0.25 
  -6  16  -2    0.35    0.27 
  -7  16  -2   -0.10    0.23 
  -8 -15   2    0.03    0.32 
  -7 -15   2    0.00    0.33 
  -6 -15   2   -0.23    0.29 
  -5 -15   2   -0.13    0.29 
   4  15  -2    0.85    0.28 
  -4 -15   2    0.34    0.29 
   3  15  -2    4.87    0.43 
  -3 -15   2    4.58    0.43 
   2  15  -2    0.40    0.24 
  -2 -15   2   -0.11    0.26 
   1  15  -2    0.06    0.23 
   0  15  -2   -0.07    0.23 
  -1  15  -2   -0.27    0.22 
  -2  15  -2   -0.14    0.25 
  -4  15  -2    0.25    0.26 
  -5  15  -2    0.11    0.26 
  -6  15  -2    0.00    0.23 
  -7  15  -2   -0.03    0.23 
  -8  15  -2    0.17    0.25 
  -9 -14   2   -0.06    0.31 
  -8 -14   2   -0.17    0.30 
  -7 -14   2   -0.25    0.28 
  -6 -14   2    0.09    0.30 
   5  14  -2    1.26    0.30 
  -5 -14   2    0.77    0.32 
   4  14  -2    0.24    0.27 
  -4 -14   2   -0.01    0.26 
   3  14  -2    0.26    0.25 
  -3 -14   2    0.35    0.26 
   2  14  -2    0.52    0.25 
  -2 -14   2    0.00    0.25 
   1  14  -2    0.37    0.22 
  -1 -14   2    0.20    0.27 
   0  14  -2    0.16    0.20 
  -1  14  -2    0.06    0.23 
  -2  14  -2    0.48    0.28 
  -3  14  -2    0.00    0.21 
  -4  14  -2    0.28    0.23 
  -5  14  -2    0.51    0.25 
  -6  14  -2    0.12    0.23 
  -7  14  -2    0.07    0.25 
  -8  14  -2    0.73    0.30 
  -9  14  -2    0.25    0.25 
 -10 -13   2   -0.02    0.32 
  -9 -13   2   -0.13    0.27 
  -8 -13   2   -0.32    0.27 
  -7 -13   2   -0.18    0.27 
  -6 -13   2   -0.07    0.26 
   5  13  -2    1.34    0.31 
  -5 -13   2    1.36    0.35 
   4  13  -2    2.27    0.30 
  -4 -13   2    2.06    0.31 
   3  13  -2    5.91    0.46 
  -3 -13   2    5.78    0.47 
   2  13  -2    0.22    0.23 
  -2 -13   2    0.20    0.23 
   1  13  -2    3.83    0.36 
  -1 -13   2    3.42    0.36 
   0  13  -2   -0.10    0.19 
  -1  13  -2    3.41    0.36 
  -2  13  -2    0.24    0.22 
  -4  13  -2    0.95    0.26 
  -5  13  -2    0.50    0.24 
  -6  13  -2    0.18    0.23 
  -7  13  -2    0.14    0.23 
  -8  13  -2    0.07    0.24 
  -9  13  -2    0.31    0.23 
 -10 -12   2    0.06    0.32 
  -9 -12   2   -0.22    0.27 
  -8 -12   2   -0.15    0.25 
  -7 -12   2   -0.14    0.25 
  -6 -12   2    0.22    0.27 
   5  12  -2   -0.07    0.19 
  -5 -12   2    0.05    0.24 
   4  12  -2    0.32    0.22 
  -4 -12   2   -0.05    0.24 
   3  12  -2    0.78    0.25 
  -3 -12   2    1.02    0.27 
   2  12  -2    0.75    0.25 
  -2 -12   2    0.76    0.24 
   1  12  -2    0.25    0.19 
  -1 -12   2    0.23    0.23 
   0  12  -2    0.16    0.19 
  -1  12  -2    0.24    0.21 
  -2  12  -2    0.68    0.22 
  -3  12  -2    0.55    0.21 
  -4  12  -2    0.02    0.19 
  -5  12  -2    0.11    0.19 
  -6  12  -2    0.07    0.20 
  -7  12  -2    0.04    0.21 
  -8  12  -2    0.18    0.24 
  -9  12  -2   -0.06    0.23 
 -10  12  -2    0.43    0.25 
 -11 -11   2    0.58    0.29 
 -10 -11   2   -0.11    0.30 
  -9 -11   2    0.25    0.28 
  -8 -11   2   -0.35    0.24 
  -7 -11   2   -0.18    0.23 
  -6 -11   2    0.55    0.26 
   5  11  -2    0.19    0.23 
  -5 -11   2   -0.09    0.23 
   4  11  -2    1.80    0.31 
  -4 -11   2    1.64    0.31 
   3  11  -2    0.26    0.23 
  -3 -11   2    0.55    0.22 
  -3 -11   2    0.59    0.12 
   2  11  -2   -0.06    0.21 
  -2 -11   2   -0.08    0.08 
  -2 -11   2   -0.09    0.19 
   1  11  -2    3.81    0.34 
  -1 -11   2    3.33    0.32 
   0  11  -2   -0.09    0.17 
   0 -11   2   -0.19    0.21 
  -1  11  -2    3.26    0.32 
  -2  11  -2    0.23    0.17 
  -3  11  -2    0.37    0.19 
  -4  11  -2    0.71    0.23 
  -5  11  -2   -0.17    0.19 
  -6  11  -2    0.62    0.24 
  -7  11  -2   -0.20    0.17 
  -8  11  -2    0.13    0.21 
  -9  11  -2    0.42    0.27 
 -10  11  -2    0.22    0.24 
 -11  11  -2    0.16    0.23 
 -11 -10   2    1.36    0.36 
 -10 -10   2    0.18    0.27 
  -9 -10   2    0.07    0.27 
  -8 -10   2   -0.06    0.23 
  -7 -10   2    0.51    0.26 
   6  10  -2    1.40    0.24 
  -6 -10   2    2.13    0.35 
   5  10  -2    8.38    0.54 
  -5 -10   2    8.60    0.60 
   4  10  -2    0.15    0.21 
  -4 -10   2   -0.06    0.20 
  -4 -10   2    0.08    0.08 
   3  10  -2    0.21    0.20 
  -3 -10   2    0.05    0.08 
  -3 -10   2    0.34    0.20 
   2  10  -2    0.81    0.23 
  -2 -10   2    1.36    0.25 
  -2 -10   2    0.93    0.12 
   1  10  -2    0.10    0.18 
  -1 -10   2   -0.04    0.08 
  -1 -10   2    0.04    0.18 
   0  10  -2    1.11    0.24 
   0 -10   2    1.26    0.24 
  -1  10  -2   -0.01    0.16 
  -2  10  -2    1.07    0.22 
  -3  10  -2    0.19    0.16 
  -4  10  -2    0.08    0.17 
  -5  10  -2    7.59    0.53 
  -6  10  -2    0.84    0.24 
  -7  10  -2    0.26    0.20 
  -8  10  -2   -0.16    0.19 
  -9  10  -2   -0.06    0.20 
 -10  10  -2   -0.10    0.21 
 -11  10  -2    0.62    0.27 
 -12  -9   2    0.05    0.30 
 -11  -9   2    0.27    0.31 
 -10  -9   2    0.16    0.29 
  -9  -9   2    0.09    0.26 
  -8  -9   2    0.10    0.23 
  -7  -9   2    0.07    0.21 
   6   9  -2    0.39    0.18 
  -6  -9   2    0.53    0.26 
   5   9  -2    0.09    0.10 
  -5  -9   2    0.11    0.09 
  -5  -9   2    0.14    0.21 
   4   9  -2    4.35    0.34 
  -4  -9   2    4.04    0.36 
  -4  -9   2    4.43    0.21 
   3   9  -2    0.95    0.22 
  -3  -9   2    0.98    0.11 
  -3  -9   2    0.97    0.22 
   2   9  -2    0.71    0.20 
  -2  -9   2    0.75    0.10 
  -2  -9   2    0.77    0.21 
   1   9  -2    0.41    0.18 
  -1  -9   2    0.56    0.09 
  -1  -9   2    0.74    0.19 
   0   9  -2    0.01    0.15 
   0  -9   2   -0.01    0.16 
  -1   9  -2    0.42    0.16 
  -2   9  -2    0.78    0.20 
  -3   9  -2    0.87    0.21 
  -4   9  -2    2.77    0.27 
  -5   9  -2    0.01    0.15 
  -6   9  -2    0.04    0.19 
  -7   9  -2    0.05    0.17 
  -8   9  -2    0.14    0.20 
  -9   9  -2    0.02    0.22 
 -10   9  -2    0.22    0.23 
 -11   9  -2    0.25    0.25 
 -12  -8   2    0.42    0.30 
 -11  -8   2    0.61    0.32 
 -10  -8   2    0.32    0.27 
  -9  -8   2    0.16    0.25 
  -8  -8   2   -0.04    0.23 
  -7  -8   2    1.13    0.29 
   6   8  -2    0.18    0.14 
  -6  -8   2    0.03    0.10 
  -6  -8   2    0.31    0.23 
   5   8  -2    0.25    0.15 
  -5  -8   2    0.35    0.08 
  -5  -8   2    0.40    0.19 
   4   8  -2    0.32    0.15 
  -4  -8   2    0.56    0.09 
  -4  -8   2    0.58    0.21 
   3   8  -2   11.03    0.62 
  -3  -8   2   11.59    0.45 
  -3  -8   2   11.90    0.70 
   2   8  -2    0.48    0.17 
  -2  -8   2    0.62    0.18 
  -2  -8   2    0.59    0.08 
   1   8  -2   22.19    1.12 
  -1  -8   2   22.69    1.23 
  -1  -8   2   23.15    0.84 
   0   8  -2    0.15    0.13 
   0  -8   2    0.03    0.07 
   0  -8   2    0.02    0.14 
  -1   8  -2   17.29    0.88 
  -2   8  -2    0.43    0.15 
  -3   8  -2    9.32    0.55 
  -4   8  -2    0.43    0.16 
  -5   8  -2    0.28    0.15 
  -6   8  -2    0.03    0.17 
  -7   8  -2    0.79    0.23 
  -8   8  -2    0.22    0.19 
  -9   8  -2    0.01    0.20 
 -10   8  -2    0.26    0.22 
 -11   8  -2    0.85    0.27 
 -12  -7   2    0.20    0.29 
 -11  -7   2   -0.03    0.28 
 -10  -7   2   -0.06    0.24 
  -9  -7   2    1.58    0.34 
  -8  -7   2   -0.13    0.22 
  -7  -7   2    0.22    0.23 
  -7  -7   2    0.34    0.11 
   6   7  -2    1.30    0.17 
  -6  -7   2    1.09    0.12 
  -6  -7   2    1.46    0.27 
   5   7  -2    0.22    0.12 
  -5  -7   2    0.24    0.08 
  -5  -7   2    0.40    0.20 
  -4  -7   2    1.67    0.23 
  -4  -7   2    2.42    0.13 
   3   7  -2    1.85    0.20 
  -3  -7   2    2.06    0.23 
  -3  -7   2    1.99    0.12 
   2   7  -2    0.66    0.16 
  -2  -7   2    0.69    0.08 
  -2  -7   2    0.92    0.18 
   1   7  -2    0.90    0.17 
  -1  -7   2    0.83    0.09 
  -1  -7   2    0.87    0.16 
   0   7  -2    0.01    0.10 
   0  -7   2   -0.05    0.11 
   0  -7   2    0.01    0.05 
  -1   7  -2    0.58    0.15 
  -2   7  -2    0.52    0.14 
  -3   7  -2    1.85    0.19 
  -4   7  -2    1.26    0.20 
  -5   7  -2    0.21    0.14 
  -6   7  -2    0.99    0.22 
  -7   7  -2    0.13    0.18 
  -8   7  -2    0.00    0.17 
  -9   7  -2    1.30    0.27 
 -10   7  -2    0.03    0.19 
 -11   7  -2    0.33    0.21 
 -12  -6   2    0.28    0.29 
 -11  -6   2    0.65    0.32 
 -10  -6   2    0.34    0.28 
  -9  -6   2    0.06    0.23 
  -8  -6   2    0.19    0.11 
  -8  -6   2   -0.06    0.22 
  -7  -6   2    9.10    0.61 
  -7  -6   2    8.12    0.38 
  -6  -6   2    1.02    0.24 
  -6  -6   2    0.97    0.12 
   5   6  -2    2.23    0.18 
  -5  -6   2    2.00    0.25 
  -5  -6   2    2.04    0.13 
   4   6  -2   -0.06    0.08 
  -4  -6   2    0.00    0.06 
  -4  -6   2   -0.01    0.14 
  -3  -6   2    2.44    0.13 
  -3  -6   2    2.36    0.22 
   2   6  -2   10.93    0.56 
  -2  -6   2   10.92    0.41 
  -2  -6   2   10.24    0.61 
   1   6  -2    0.49    0.12 
  -1  -6   2    0.17    0.11 
  -1  -6   2    0.21    0.05 
   0   6  -2    6.66    0.38 
   0  -6   2    6.82    0.28 
   0  -6   2    7.04    0.41 
  -1   6  -2    0.06    0.09 
   1  -6   2    0.22    0.06 
  -2   6  -2    8.28    0.46 
  -3   6  -2    2.04    0.20 
  -4   6  -2    0.02    0.10 
  -5   6  -2    1.79    0.20 
  -6   6  -2    1.08    0.22 
  -7   6  -2    8.61    0.55 
  -8   6  -2    0.04    0.17 
  -9   6  -2    0.16    0.20 
 -10   6  -2    0.28    0.21 
 -11   6  -2    0.33    0.21 
 -12   6  -2    0.06    0.17 
 -13  -5   2    0.51    0.31 
 -12  -5   2    0.50    0.29 
 -11  -5   2    0.20    0.27 
 -10  -5   2    0.03    0.24 
  -9  -5   2    2.74    0.22 
  -9  -5   2    2.74    0.35 
  -8  -5   2    0.15    0.12 
  -8  -5   2    0.05    0.23 
  -7  -5   2    1.19    0.14 
  -7  -5   2    1.10    0.27 
   6   5  -2    0.33    0.10 
  -6  -5   2    0.43    0.09 
  -6  -5   2    0.41    0.19 
   5   5  -2    1.04    0.12 
  -5  -5   2    1.14    0.10 
  -5  -5   2    1.45    0.24 
   4   5  -2    0.61    0.11 
  -4  -5   2    0.80    0.18 
  -4  -5   2    0.60    0.08 
   3   5  -2   26.28    1.18 
  -3  -5   2   24.44    1.36 
  -3  -5   2   25.14    0.91 
  -2  -5   2    3.18    0.24 
  -2  -5   2    3.56    0.15 
   1   5  -2   18.56    0.89 
  -1  -5   2   19.13    0.68 
  -1  -5   2   18.10    0.99 
   0   5  -2   -0.06    0.07 
   0  -5   2    0.03    0.08 
   0  -5   2    0.00    0.04 
  -1   5  -2   15.24    0.74 
   1  -5   2   14.72    0.56 
  -2   5  -2    2.78    0.21 
  -3   5  -2   21.58    1.05 
  -4   5  -2    0.66    0.15 
  -5   5  -2    1.23    0.19 
  -6   5  -2    0.44    0.17 
  -7   5  -2    1.05    0.23 
  -8   5  -2   -0.02    0.16 
  -9   5  -2    2.51    0.30 
 -10   5  -2   -0.01    0.19 
 -11   5  -2    0.26    0.20 
 -12   5  -2    0.29    0.19 
 -13   5  -2    1.25    0.22 
 -13  -4   2    0.72    0.33 
 -12  -4   2    0.30    0.27 
 -11  -4   2    0.29    0.26 
 -10  -4   2    0.15    0.26 
 -10  -4   2   -0.01    0.12 
  -9  -4   2    0.62    0.15 
  -9  -4   2    0.64    0.28 
  -8  -4   2   -0.25    0.21 
  -8  -4   2    0.17    0.11 
  -7  -4   2    0.16    0.19 
  -7  -4   2    0.25    0.10 
  -6  -4   2    0.22    0.09 
  -6  -4   2    0.32    0.17 
  -5  -4   2    0.45    0.08 
  -5  -4   2    0.36    0.17 
   4   4  -2    1.48    0.13 
  -4  -4   2    2.04    0.11 
  -4  -4   2    1.60    0.19 
   3   4  -2    1.61    0.13 
  -3  -4   2    1.80    0.10 
  -3  -4   2    1.54    0.18 
   2   4  -2   10.13    0.56 
  -2  -4   2   12.64    0.43 
  -2  -4   2   11.81    0.65 
   1   4  -2    0.80    0.11 
  -1  -4   2    0.86    0.07 
  -1  -4   2    0.81    0.11 
   0   4  -2   14.61    0.68 
   0  -4   2   14.07    0.75 
   0  -4   2   13.60    0.52 
  -1   4  -2    0.70    0.11 
   1  -4   2    0.81    0.08 
  -2   4  -2   10.21    0.53 
  -3   4  -2    1.56    0.15 
  -4   4  -2    1.40    0.16 
  -5   4  -2    0.61    0.15 
  -6   4  -2    0.19    0.13 
  -7   4  -2    0.03    0.16 
  -8   4  -2   -0.09    0.16 
  -9   4  -2    0.81    0.22 
 -10   4  -2    0.20    0.19 
 -12   4  -2    0.25    0.18 
 -13   4  -2    0.68    0.20 
 -13  -3   2    1.67    0.42 
 -12  -3   2    0.29    0.30 
 -11  -3   2   -0.05    0.14 
 -10  -3   2    0.08    0.13 
  -9  -3   2    2.38    0.20 
  -8  -3   2    0.32    0.12 
  -7  -3   2    9.69    0.42 
  -6  -3   2    0.11    0.08 
  -5  -3   2    1.62    0.12 
  -4  -3   2    4.46    0.21 
  -3  -3   2    4.28    0.30 
  -3  -3   2    4.38    0.19 
   2   3  -2    4.10    0.21 
  -2  -3   2    3.70    0.26 
  -2  -3   2    3.78    0.17 
  -1  -3   2   77.17    2.64 
  -1  -3   2   73.83    3.86 
   0   3  -2   -0.01    0.05 
   0  -3   2   -0.04    0.03 
   0  -3   2   -0.01    0.05 
  -1   3  -2   62.42    2.87 
   1  -3   2   64.86    2.24 
  -2   3  -2    3.24    0.21 
  -3   3  -2    3.59    0.23 
  -4   3  -2    3.93    0.26 
  -5   3  -2    1.34    0.16 
  -6   3  -2    0.20    0.13 
  -7   3  -2    8.50    0.52 
  -8   3  -2    0.08    0.17 
  -9   3  -2    2.14    0.26 
 -10   3  -2   -0.03    0.18 
 -11   3  -2    0.10    0.16 
 -12   3  -2    0.28    0.17 
 -13   3  -2    1.01    0.22 
 -11  -2   2    0.26    0.15 
 -10  -2   2    0.07    0.13 
  -9  -2   2    0.15    0.12 
  -8  -2   2    1.05    0.15 
  -7  -2   2    3.74    0.22 
  -6  -2   2    1.02    0.12 
  -5  -2   2   16.11    0.62 
  -4  -2   2    0.68    0.08 
  -3  -2   2   15.27    0.57 
  -2  -2   2    0.32    0.05 
   1   2  -2  159.63    6.70 
  -1  -2   2  141.50    7.58 
  -1  -2   2  146.07    5.19 
   0   2  -2    3.75    0.20 
   0  -2   2    3.65    0.15 
  -1   2  -2  108.78    5.01 
   1  -2   2  115.12    3.91 
   3  -2   2   10.80    0.54 
   4  -2   2    0.69    0.11 
   5  -2   2   13.25    0.67 
  -7   2  -2    2.86    0.26 
  -9   2  -2    0.12    0.16 
 -10   2  -2   -0.10    0.14 
 -10   2  -2    0.23    0.18 
 -11   2  -2    0.17    0.16 
 -12   2  -2    0.29    0.15 
 -13   2  -2    0.40    0.18 
 -12  -1   2    0.28    0.16 
 -11  -1   2    0.28    0.15 
 -10  -1   2    0.10    0.13 
  -9  -1   2    0.75    0.15 
  -8  -1   2    0.98    0.15 
  -7  -1   2    3.26    0.21 
  -6  -1   2    5.00    0.25 
  -5  -1   2    7.77    0.34 
  -4  -1   2    0.00    0.05 
  -3  -1   2    0.30    0.05 
  -2  -1   2    0.05    0.04 
  -1  -1   2   14.03    0.51 
   0  -1   2   -0.09    0.03 
   0  -1   2   -0.11    0.03 
   0  -1   2   -0.11    0.03 
   1  -1   2   11.43    0.41 
   1  -1   2   11.05    0.53 
   2  -1   2    0.00    0.04 
   3  -1   2    0.27    0.07 
   4  -1   2    0.15    0.07 
   5  -1   2    6.11    0.36 
   6  -1   2    4.09    0.28 
   7  -1   2    2.57    0.24 
   8  -1   2    1.16    0.22 
  -9   1  -2    0.43    0.19 
 -10   1  -2    0.07    0.13 
 -10   1  -2   -0.04    0.16 
 -11   1  -2    0.05    0.13 
 -12   1  -2    0.10    0.16 
 -13   0   2    0.28    0.18 
 -12   0   2    0.46    0.16 
 -11   0   2    0.56    0.17 
 -10   0   2    1.93    0.21 
  -9   0   2    0.00    0.12 
  -8   0   2    0.71    0.13 
  -8   0   2    0.66    0.16 
  -7   0   2    0.55    0.12 
  -7   0   2    0.56    0.14 
  -6   0   2    0.20    0.10 
  -6   0   2    0.26    0.09 
  -5   0   2   90.30    3.23 
  -5   0   2   92.46    4.11 
  -4   0   2    2.61    0.15 
  -3   0   2    2.82    0.14 
  -2   0   2    2.18    0.11 
  -1   0   2   79.79    2.79 
   0   0   2   -1.24    0.03 
   0   0   2   -1.17    0.03 
   1   0   2   55.66    2.39 
   1   0   2   50.39    1.86 
   2   0   2    1.45    0.11 
   3   0   2    2.17    0.15 
   4   0   2    1.98    0.16 
   5   0   2   71.39    3.24 
   6   0   2    0.21    0.11 
   7   0   2    0.59    0.17 
   8   0   2    0.83    0.20 
  -9   0  -2   -0.04    0.10 
   9   0   2    0.01    0.17 
 -10   0  -2    1.91    0.22 
 -11   0  -2    0.53    0.17 
 -12   0  -2    0.65    0.17 
 -13   1   2    0.39    0.18 
 -12   1   2   -0.01    0.15 
 -11   1   2    0.27    0.17 
 -10   1   2   -0.01    0.14 
  -9   1   2    0.70    0.15 
  -8   1   2    1.21    0.17 
  -8   1   2    1.22    0.19 
  -7   1   2    3.29    0.22 
  -7   1   2    3.48    0.25 
  -6   1   2    5.17    0.26 
  -6   1   2    4.90    0.30 
  -5   1   2    8.28    0.43 
  -5   1   2    8.30    0.36 
  -4   1   2   -0.02    0.06 
  -4   1   2   -0.03    0.05 
  -3   1   2    0.31    0.06 
  -3   1   2    0.30    0.06 
  -2   1   2   -0.01    0.03 
  -2   1   2    0.01    0.04 
  -1   1   2   15.15    0.58 
  -1   1   2   17.34    0.75 
   0   1   2   -0.12    0.01 
   0   1   2   -0.11    0.04 
  -1  -1  -2   11.69    0.63 
   1   1   2   12.40    0.57 
   1   1   2   11.80    0.43 
  -2  -1  -2   -0.04    0.05 
   2   1   2   -0.04    0.04 
   3   1   2    0.17    0.06 
   4   1   2    0.08    0.06 
   5   1   2    7.03    0.40 
   6   1   2    4.41    0.29 
   7   1   2    2.77    0.24 
   8   1   2    1.15    0.21 
  -9  -1  -2    0.69    0.14 
   9   1   2    0.83    0.21 
 -10  -1  -2    0.07    0.12 
 -11  -1  -2   -0.09    0.13 
 -12  -1  -2    0.11    0.28 
 -13  -1  -2    0.02    0.29 
 -13   2   2    0.27    0.18 
 -12   2   2    0.26    0.17 
 -11   2   2    0.37    0.18 
 -10   2   2    0.07    0.16 
  -9   2   2    0.09    0.13 
  -8   2   2    1.17    0.20 
  -8   2   2    1.10    0.17 
  -7   2   2    4.28    0.25 
  -7   2   2    4.03    0.29 
  -6   2   2    1.21    0.14 
  -6   2   2    1.12    0.16 
  -5   2   2   17.80    0.69 
  -5   2   2   17.45    0.85 
  -4   2   2    0.77    0.09 
  -4   2   2    0.77    0.11 
  -3   2   2   15.98    0.75 
  -3   2   2   15.80    0.60 
  -2   2   2    0.37    0.06 
  -2   2   2    0.40    0.08 
  -1   2   2  149.36    5.38 
  -1   2   2  159.78    6.92 
   0   2   2    2.89    0.15 
   0   2   2    2.12    0.10 
  -1  -2  -2  117.37    6.02 
   1   2   2  118.88    5.29 
  -2  -2  -2    0.37    0.08 
   2   2   2    0.26    0.07 
  -3  -2  -2   13.56    0.73 
   3   2   2   13.12    0.65 
  -4  -2  -2    0.70    0.14 
   4   2   2    0.69    0.11 
  -5  -2  -2   15.57    0.87 
   5   2   2   15.11    0.76 
  -6  -2  -2    0.83    0.10 
   6   2   2    1.00    0.14 
  -7  -2  -2    3.16    0.20 
   7   2   2    3.45    0.27 
  -8  -2  -2    0.83    0.15 
   8   2   2    1.12    0.21 
  -9  -2  -2    0.37    0.12 
   9   2   2    0.26    0.17 
 -10  -2  -2    0.08    0.25 
 -10  -2  -2   -0.31    0.12 
 -11  -2  -2   -0.12    0.27 
 -12  -2  -2    0.03    0.27 
 -13  -2  -2    0.47    0.32 
 -13   3   2    1.33    0.23 
 -12   3   2   -0.03    0.16 
 -11   3   2    0.22    0.18 
 -10   3   2    0.26    0.17 
  -9   3   2    2.81    0.24 
  -8   3   2    0.40    0.17 
  -8   3   2    0.22    0.13 
  -7   3   2    9.26    0.44 
  -7   3   2    9.50    0.53 
  -6   3   2    0.19    0.11 
  -6   3   2    0.33    0.09 
  -5   3   2    1.39    0.15 
  -4   3   2    4.76    0.28 
  -3   3   2    4.61    0.27 
  -2   3   2    4.06    0.24 
  -1   3   2   83.52    3.76 
   0   3   2    0.06    0.06 
  -1  -3  -2   68.20    3.38 
   1   3   2   63.95    2.98 
  -2  -3  -2    3.36    0.22 
   2   3   2    3.26    0.20 
  -3  -3  -2    4.06    0.26 
   3   3   2    3.77    0.23 
  -4  -3  -2    4.33    0.30 
  -4  -3  -2    4.11    0.18 
   4   3   2    4.36    0.26 
  -5  -3  -2    1.16    0.10 
  -5  -3  -2    1.41    0.18 
   5   3   2    1.28    0.14 
  -6  -3  -2    0.08    0.14 
  -6  -3  -2    0.11    0.07 
   6   3   2    0.27    0.11 
  -7  -3  -2    8.32    0.37 
  -7  -3  -2    8.76    0.57 
   7   3   2    8.40    0.49 
  -8  -3  -2    0.13    0.11 
  -8  -3  -2   -0.07    0.21 
   8   3   2    0.24    0.18 
  -9  -3  -2    1.90    0.29 
  -9  -3  -2    2.09    0.19 
   9   3   2    1.63    0.25 
 -10  -3  -2    0.09    0.25 
 -11  -3  -2   -0.37    0.25 
 -12  -3  -2   -0.07    0.26 
 -13  -3  -2    0.72    0.34 
 -13   4   2    0.34    0.19 
 -12   4   2    0.23    0.17 
 -11   4   2    0.03    0.17 
 -10   4   2    0.17    0.17 
  -9   4   2    0.59    0.18 
  -9   4   2    0.59    0.20 
  -8   4   2   -0.14    0.12 
  -8   4   2   -0.08    0.15 
  -7   4   2    0.05    0.11 
  -7   4   2    0.15    0.15 
  -6   4   2    0.14    0.12 
  -5   4   2    0.48    0.13 
  -4   4   2    1.46    0.15 
  -3   4   2    1.60    0.15 
  -2   4   2   11.75    0.59 
  -1   4   2    1.00    0.13 
   0  -4  -2   13.38    0.71 
   0   4   2   12.91    0.65 
  -1  -4  -2    1.01    0.13 
   1   4   2    0.74    0.12 
  -2  -4  -2   10.25    0.55 
   2   4   2    9.31    0.50 
  -3  -4  -2    1.82    0.16 
   3   4   2    1.43    0.15 
  -4  -4  -2    1.39    0.16 
   4   4   2    1.33    0.14 
  -5  -4  -2    0.33    0.07 
  -5  -4  -2    0.56    0.16 
   5   4   2    0.63    0.12 
  -6  -4  -2    0.13    0.16 
  -6  -4  -2    0.07    0.07 
   6   4   2    0.27    0.12 
  -7  -4  -2    0.03    0.20 
  -7  -4  -2    0.01    0.08 
   7   4   2    0.37    0.15 
  -8  -4  -2   -0.11    0.10 
  -8  -4  -2    0.15    0.21 
   8   4   2    0.24    0.17 
  -9  -4  -2    0.61    0.27 
   9   4   2    0.22    0.15 
 -10  -4  -2    0.00    0.26 
 -11  -4  -2    0.00    0.25 
 -12  -4  -2    0.00    0.27 
 -13  -4  -2    0.39    0.30 
 -13   5   2    0.61    0.20 
 -12   5   2    0.18    0.18 
 -11   5   2    0.20    0.18 
 -10   5   2    0.01    0.16 
  -9   5   2    3.33    0.27 
  -9   5   2    2.75    0.29 
  -8   5   2   -0.04    0.18 
  -8   5   2   -0.23    0.12 
  -7   5   2    1.33    0.23 
  -6   5   2    0.41    0.15 
  -5   5   2    1.32    0.19 
  -4   5   2    0.53    0.14 
  -3   5   2   24.27    1.16 
  -2   5   2    3.45    0.24 
  -1   5   2   16.97    0.83 
   0  -5  -2   -0.09    0.09 
   0   5   2   -0.01    0.08 
  -1  -5  -2   15.88    0.84 
   1   5   2   15.20    0.76 
  -2  -5  -2    3.04    0.23 
   2   5   2    3.36    0.23 
  -3  -5  -2   23.44    1.26 
   3   5   2   23.31    1.12 
  -4  -5  -2    0.69    0.16 
   4   5   2    0.42    0.12 
  -5  -5  -2    1.49    0.22 
   5   5   2    1.16    0.15 
  -6  -5  -2    0.20    0.07 
  -6  -5  -2    0.32    0.18 
   6   5   2    0.67    0.15 
  -7  -5  -2    1.51    0.28 
   7   5   2    1.29    0.21 
  -8  -5  -2    0.55    0.24 
   8   5   2    0.96    0.22 
  -9  -5  -2    2.37    0.32 
 -10  -5  -2    0.13    0.26 
 -11  -5  -2    0.09    0.27 
 -12  -5  -2    0.19    0.29 
 -13  -5  -2    0.61    0.31 
 -12   6   2    0.11    0.19 
 -11   6   2    0.15    0.19 
 -10   6   2    0.46    0.19 
  -9   6   2   -0.11    0.14 
  -9   6   2    0.03    0.17 
  -8   6   2   -0.02    0.17 
  -7   6   2    9.57    0.58 
  -6   6   2    1.06    0.21 
  -5   6   2    2.13    0.22 
  -4   6   2    0.01    0.11 
  -3   6   2    2.28    0.22 
  -2   6   2   10.92    0.59 
  -1   6   2    0.16    0.11 
   0  -6  -2    6.80    0.42 
   0   6   2    7.10    0.40 
  -1  -6  -2    0.24    0.12 
   1   6   2    0.17    0.11 
  -2  -6  -2    9.54    0.56 
   2   6   2    9.75    0.52 
  -3  -6  -2    3.29    0.26 
  -4  -6  -2    0.13    0.14 
   4   6   2   -0.08    0.10 
  -5  -6  -2    2.06    0.23 
   5   6   2    2.05    0.20 
  -6  -6  -2    1.27    0.26 
   6   6   2    1.33    0.20 
  -7  -6  -2    8.68    0.60 
   7   6   2    9.06    0.53 
  -8  -6  -2    0.08    0.24 
   8   6   2    0.39    0.17 
  -9  -6  -2    0.31    0.27 
 -10  -6  -2    0.44    0.27 
 -11  -6  -2    0.64    0.29 
 -12  -6  -2    0.14    0.27 
 -12   7   2    0.19    0.19 
 -11   7   2    0.54    0.19 
 -10   7   2    0.00    0.15 
  -9   7   2    1.32    0.27 
  -9   7   2    1.26    0.22 
  -8   7   2    0.00    0.17 
  -7   7   2    0.31    0.19 
  -6   7   2    1.93    0.27 
  -5   7   2    0.27    0.15 
  -4   7   2    1.75    0.25 
  -3   7   2    1.90    0.21 
  -2   7   2    0.64    0.17 
  -1   7   2    0.86    0.18 
   0   7   2   -0.03    0.10 
  -1  -7  -2    0.75    0.16 
   1   7   2    0.83    0.16 
  -2  -7  -2    0.69    0.16 
   2   7   2    0.49    0.16 
  -3  -7  -2    2.12    0.21 
   3   7   2    1.47    0.20 
  -4  -7  -2    1.62    0.21 
   4   7   2    1.71    0.22 
  -5  -7  -2    0.42    0.19 
   5   7   2    0.16    0.14 
  -6  -7  -2    1.67    0.26 
   6   7   2    1.78    0.24 
  -7  -7  -2    0.41    0.25 
   7   7   2    0.36    0.19 
  -8  -7  -2   -0.10    0.25 
   8   7   2    0.10    0.16 
  -9  -7  -2    1.29    0.32 
 -10  -7  -2   -0.12    0.25 
 -11  -7  -2    0.01    0.26 
 -12  -7  -2    0.27    0.28 
 -12   8   2    0.73    0.21 
 -11   8   2    1.04    0.23 
 -10   8   2   -0.07    0.16 
  -9   8   2    0.18    0.20 
  -9   8   2   -0.02    0.15 
  -8   8   2   -0.06    0.17 
  -7   8   2    1.31    0.27 
  -6   8   2   -0.08    0.19 
  -5   8   2    0.61    0.20 
  -4   8   2    0.46    0.18 
  -3   8   2   13.11    0.72 
  -2   8   2    0.70    0.19 
  -1   8   2   19.09    0.97 
   0   8   2    0.05    0.13 
  -1  -8  -2   17.09    0.91 
   1   8   2   15.46    0.84 
  -2  -8  -2    0.49    0.17 
   2   8   2    0.60    0.18 
  -3  -8  -2   10.59    0.64 
   3   8   2   10.50    0.60 
  -4  -8  -2    0.66    0.20 
   4   8   2    0.38    0.18 
  -5  -8  -2    0.37    0.22 
   5   8   2    0.39    0.19 
  -6  -8  -2    0.45    0.26 
   6   8   2    0.07    0.17 
  -7  -8  -2    1.00    0.30 
   7   8   2    1.27    0.24 
  -8  -8  -2   -0.01    0.24 
   8   8   2    0.16    0.15 
  -9  -8  -2    0.16    0.26 
 -10  -8  -2    0.17    0.27 
 -11  -8  -2    0.78    0.32 
 -12  -8  -2    0.23    0.29 
 -11   9   2    0.14    0.20 
 -10   9   2    0.19    0.18 
 -10   9   2    0.24    0.22 
  -9   9   2    0.13    0.21 
  -8   9   2    0.07    0.20 
  -7   9   2    0.12    0.19 
  -6   9   2    0.41    0.24 
  -5   9   2   -0.10    0.18 
  -4   9   2    3.19    0.32 
  -3   9   2    1.16    0.24 
  -2   9   2    0.72    0.21 
  -1   9   2    0.40    0.17 
   0   9   2    0.08    0.14 
  -1  -9  -2    0.39    0.18 
   1   9   2    0.47    0.18 
  -2  -9  -2    0.86    0.21 
   2   9   2    0.70    0.20 
  -3  -9  -2    1.13    0.22 
   3   9   2    0.90    0.24 
  -4  -9  -2    3.45    0.33 
   4   9   2    3.67    0.33 
  -5  -9  -2   -0.25    0.22 
   5   9   2    0.20    0.19 
  -6  -9  -2    0.56    0.27 
   6   9   2    0.13    0.21 
  -7  -9  -2    0.13    0.26 
   7   9   2    0.18    0.15 
  -8  -9  -2   -0.06    0.27 
   8   9   2    0.44    0.17 
  -9  -9  -2    0.02    0.27 
 -10  -9  -2    0.10    0.28 
 -11  -9  -2   -0.09    0.28 
 -12  -9  -2    0.29    0.30 
 -11  10   2    1.13    0.24 
 -10  10   2    0.13    0.16 
 -10  10   2    0.34    0.24 
  -9  10   2    0.47    0.26 
  -8  10   2    0.03    0.23 
  -7  10   2    0.43    0.24 
  -6  10   2    1.40    0.29 
  -5  10   2    8.55    0.57 
  -4  10   2    0.03    0.19 
  -3  10   2   -0.03    0.17 
  -2  10   2    0.77    0.21 
  -1  10   2   -0.01    0.18 
   0  10   2    0.91    0.22 
  -1 -10  -2   -0.02    0.19 
   1  10   2    0.05    0.18 
  -2 -10  -2    1.00    0.21 
   2  10   2    0.53    0.22 
  -3 -10  -2    0.13    0.19 
   3  10   2   -0.06    0.22 
  -4 -10  -2   -0.09    0.22 
   4  10   2    0.13    0.22 
  -5 -10  -2    8.50    0.63 
   5  10   2    9.65    0.57 
  -6 -10  -2    1.69    0.36 
   6  10   2    2.10    0.31 
  -7 -10  -2    0.42    0.30 
   7  10   2    0.82    0.21 
  -8 -10  -2   -0.18    0.27 
  -9 -10  -2    0.07    0.29 
 -10 -10  -2    0.07    0.30 
 -11 -10  -2    0.47    0.36 
 -11  11   2    0.66    0.20 
 -10  11   2    0.25    0.17 
 -10  11   2    0.15    0.26 
  -9  11   2    0.22    0.24 
  -8  11   2    0.25    0.25 
  -7  11   2    0.04    0.21 
  -6  11   2    0.53    0.25 
  -5  11   2   -0.20    0.20 
  -4  11   2    0.93    0.26 
  -3  11   2    0.48    0.21 
  -2  11   2    0.05    0.18 
  -1  11   2    2.85    0.30 
   0  11   2    0.07    0.16 
  -1 -11  -2    3.12    0.30 
   1  11   2    2.92    0.30 
  -2 -11  -2    0.05    0.18 
   2  11   2   -0.04    0.19 
  -3 -11  -2    0.46    0.22 
   3  11   2    0.47    0.23 
  -4 -11  -2    1.27    0.30 
   4  11   2    1.12    0.28 
  -5 -11  -2    0.43    0.28 
   5  11   2   -0.02    0.21 
  -6 -11  -2    0.80    0.30 
   6  11   2    0.93    0.25 
  -7 -11  -2   -0.16    0.28 
   7  11   2    0.09    0.20 
  -8 -11  -2   -0.16    0.27 
  -9 -11  -2    0.20    0.31 
 -10 -11  -2    0.11    0.33 
 -11 -11  -2   -0.01    0.32 
 -10  12   2    0.17    0.17 
 -10  12   2    0.27    0.30 
  -9  12   2    0.28    0.27 
  -8  12   2    0.10    0.24 
  -7  12   2   -0.08    0.23 
  -6  12   2    0.12    0.25 
  -5  12   2   -0.01    0.21 
  -4  12   2    0.24    0.23 
  -3  12   2    0.61    0.24 
  -2  12   2    0.22    0.22 
  -1  12   2    0.18    0.21 
   0  12   2    0.08    0.19 
  -1 -12  -2    0.03    0.22 
   1  12   2    0.37    0.22 
  -2 -12  -2    0.39    0.23 
   2  12   2    0.66    0.25 
  -3 -12  -2    1.18    0.27 
   3  12   2    0.61    0.29 
  -4 -12  -2    0.02    0.24 
   4  12   2    0.02    0.24 
  -5 -12  -2   -0.21    0.25 
   5  12   2   -0.11    0.22 
  -6 -12  -2    0.12    0.28 
   6  12   2    0.09    0.23 
  -7 -12  -2    0.00    0.29 
   7  12   2    0.57    0.24 
  -8 -12  -2    0.09    0.31 
  -9 -12  -2   -0.04    0.32 
 -10 -12  -2   -0.03    0.33 
 -10  13   2    0.05    0.16 
  -9  13   2    0.21    0.28 
  -8  13   2    0.09    0.25 
  -7  13   2   -0.11    0.23 
  -6  13   2    0.04    0.21 
  -5  13   2    1.11    0.32 
  -4  13   2    1.17    0.31 
  -3  13   2    5.33    0.45 
  -2  13   2    0.14    0.26 
  -1  13   2    2.50    0.32 
   0  13   2   -0.25    0.17 
   1  13   2    2.90    0.33 
  -2 -13  -2    0.12    0.24 
   2  13   2    0.38    0.25 
  -3 -13  -2    4.78    0.41 
   3  13   2    4.95    0.44 
  -4 -13  -2    1.98    0.34 
   4  13   2    2.43    0.38 
  -5 -13  -2    0.90    0.33 
   5  13   2    0.93    0.31 
  -6 -13  -2    0.07    0.29 
   6  13   2    0.15    0.24 
  -7 -13  -2   -0.15    0.31 
   7  13   2    0.32    0.25 
  -8 -13  -2    0.18    0.34 
  -9 -13  -2    0.13    0.32 
 -10 -13  -2   -0.20    0.30 
  -9  14   2    0.32    0.26 
  -8  14   2    0.24    0.29 
  -7  14   2    0.05    0.27 
  -6  14   2    0.25    0.26 
  -5  14   2    1.11    0.33 
  -4  14   2    0.51    0.28 
  -3  14   2    0.10    0.27 
  -2  14   2    0.00    0.23 
  -1  14   2    0.04    0.23 
   0  14   2   -0.07    0.20 
   1  14   2    0.14    0.22 
  -2 -14  -2    0.31    0.26 
   2  14   2    0.27    0.25 
  -3 -14  -2    0.14    0.25 
   3  14   2    0.25    0.28 
  -4 -14  -2    0.09    0.25 
   4  14   2    0.48    0.32 
  -5 -14  -2    0.63    0.32 
   5  14   2    1.15    0.34 
  -6 -14  -2   -0.08    0.31 
   6  14   2    0.71    0.29 
  -7 -14  -2    0.01    0.34 
  -8 -14  -2   -0.02    0.35 
  -9 -14  -2   -0.46    0.34 
  -8  15   2    0.49    0.29 
  -7  15   2    0.09    0.27 
  -6  15   2   -0.08    0.24 
  -5  15   2   -0.03    0.24 
  -4  15   2    0.33    0.28 
  -3  15   2    3.75    0.41 
  -2  15   2   -0.05    0.26 
  -1  15   2   -0.15    0.25 
   0  15   2   -0.06    0.23 
   1  15   2    0.06    0.23 
   2  15   2    0.64    0.28 
  -3 -15  -2    4.01    0.41 
   3  15   2    4.63    0.44 
  -4 -15  -2    0.22    0.27 
   4  15   2    0.20    0.29 
  -5 -15  -2   -0.52    0.25 
   5  15   2    0.53    0.29 
  -6 -15  -2   -0.21    0.32 
   6  15   2    0.61    0.28 
  -7 -15  -2    0.02    0.36 
  -8 -15  -2   -0.20    0.33 
  -7  16   2    0.36    0.27 
  -6  16   2    0.03    0.26 
  -5  16   2    0.49    0.29 
  -4  16   2    0.04    0.26 
  -3  16   2   -0.11    0.25 
  -2  16   2   -0.13    0.21 
  -1  16   2    0.11    0.23 
   0  16   2    0.05    0.24 
   1  16   2    0.20    0.25 
   2  16   2    0.68    0.29 
  -3 -16  -2    0.04    0.29 
   3  16   2    0.82    0.33 
  -4 -16  -2   -0.04    0.28 
   4  16   2    0.17    0.28 
  -5 -16  -2    0.16    0.30 
   5  16   2    0.45    0.30 
  -6 -16  -2    0.30    0.32 
   6  16   2    1.16    0.30 
  -7 -16  -2    0.06    0.34 
  -6  17   2    0.35    0.24 
  -5  17   2    0.38    0.25 
  -4  17   2    0.80    0.29 
  -3  17   2    0.00    0.24 
  -2  17   2    0.69    0.24 
  -1  17   2    0.07    0.21 
   0  17   2    0.15    0.24 
   1  17   2    0.17    0.26 
   2  17   2    0.21    0.25 
   3  17   2    0.46    0.27 
  -4 -17  -2    0.13    0.31 
   4  17   2    1.15    0.32 
  -5 -17  -2   -0.07    0.30 
   5  17   2    1.03    0.32 
  -6 -17  -2   -0.34    0.33 
  -4  18   2    0.54    0.23 
  -3  18   2    0.34    0.24 
  -2  18   2    0.51    0.22 
  -1  18   2    0.36    0.24 
   0  18   2    0.18    0.23 
   2  18   2    0.74    0.28 
   3  18   2    0.90    0.31 
  -4 -18  -2    0.29    0.32 
   4  18   2    1.00    0.31 
  -5 -18  -2   -0.09    0.33 
  -1  19   2    0.62    0.24 
   0  19   2    0.85    0.28 
   1  19   2    0.69    0.27 
   2  19   2    0.71    0.27 
   1  19  -3    0.49    0.27 
   0  19  -3    0.51    0.23 
  -1  19  -3    0.55    0.24 
  -4 -18   3    0.02    0.33 
   3  18  -3    0.84    0.26 
  -3 -18   3   -0.47    0.32 
   2  18  -3    0.32    0.27 
   1  18  -3    0.45    0.24 
   0  18  -3    0.52    0.26 
  -1  18  -3    0.51    0.25 
  -2  18  -3    0.37    0.25 
  -3  18  -3    0.45    0.23 
  -4  18  -3    0.55    0.25 
  -6 -17   3   -0.13    0.31 
  -5 -17   3   -0.30    0.29 
  -4 -17   3   -0.19    0.29 
   3  17  -3    0.78    0.29 
  -3 -17   3    0.07    0.31 
   2  17  -3    0.16    0.25 
   1  17  -3    0.22    0.23 
   0  17  -3    0.19    0.25 
  -1  17  -3    0.30    0.25 
  -2  17  -3    0.07    0.26 
  -3  17  -3    0.36    0.26 
  -4  17  -3    0.44    0.26 
  -5  17  -3    0.37    0.24 
  -6  17  -3    0.38    0.23 
  -7 -16   3   -0.22    0.32 
  -6 -16   3    0.09    0.32 
  -5 -16   3    0.00    0.30 
   4  16  -3    0.24    0.26 
  -4 -16   3   -0.22    0.28 
   3  16  -3    0.60    0.29 
  -3 -16   3    0.20    0.30 
   2  16  -3    0.58    0.26 
  -2 -16   3   -0.06    0.30 
   1  16  -3    0.02    0.24 
   0  16  -3    0.01    0.26 
  -1  16  -3   -0.13    0.24 
  -2  16  -3    0.14    0.26 
  -3  16  -3    0.29    0.28 
  -4  16  -3    0.34    0.23 
  -5  16  -3   -0.07    0.25 
  -6  16  -3    0.21    0.27 
  -7  16  -3   -0.01    0.23 
  -8 -15   3   -0.19    0.30 
  -7 -15   3   -0.51    0.30 
  -6 -15   3   -0.25    0.29 
  -5 -15   3   -0.25    0.29 
   4  15  -3    2.09    0.35 
  -4 -15   3    1.59    0.37 
   3  15  -3    0.71    0.28 
  -3 -15   3    0.46    0.30 
   2  15  -3    0.67    0.27 
  -2 -15   3    0.51    0.30 
   1  15  -3    1.32    0.30 
   0  15  -3    0.10    0.24 
  -1  15  -3    1.39    0.34 
  -2  15  -3    0.66    0.31 
  -3  15  -3    0.19    0.23 
  -4  15  -3    0.94    0.27 
  -5  15  -3    0.14    0.22 
  -6  15  -3    0.28    0.23 
  -7  15  -3    0.06    0.23 
  -8  15  -3    0.48    0.26 
  -9 -14   3    0.14    0.29 
  -8 -14   3    0.37    0.33 
  -7 -14   3   -0.14    0.28 
  -6 -14   3    0.26    0.30 
  -5 -14   3    0.32    0.29 
   4  14  -3    0.79    0.26 
  -4 -14   3    0.27    0.28 
   3  14  -3    0.23    0.24 
  -3 -14   3    0.29    0.26 
   2  14  -3    1.05    0.26 
  -2 -14   3    1.03    0.30 
   1  14  -3    0.21    0.22 
  -1 -14   3   -0.05    0.26 
   0  14  -3    0.47    0.23 
  -1  14  -3    0.09    0.24 
  -2  14  -3    0.72    0.27 
  -3  14  -3    0.15    0.23 
  -4  14  -3    0.09    0.20 
  -5  14  -3    0.27    0.24 
  -6  14  -3   -0.01    0.22 
  -7  14  -3    0.19    0.24 
  -8  14  -3    0.45    0.27 
  -9  14  -3    0.56    0.27 
  -9 -13   3    0.09    0.29 
  -8 -13   3   -0.12    0.27 
  -7 -13   3   -0.24    0.27 
  -6 -13   3    0.11    0.26 
  -5 -13   3    0.05    0.26 
   4  13  -3    0.55    0.24 
  -4 -13   3    0.50    0.27 
   3  13  -3    0.24    0.23 
  -3 -13   3    0.69    0.28 
   2  13  -3    0.23    0.23 
  -2 -13   3    0.14    0.12 
  -2 -13   3    0.11    0.23 
   1  13  -3    0.19    0.21 
  -1 -13   3    0.08    0.23 
   0  13  -3   -0.01    0.18 
  -1  13  -3    0.20    0.22 
  -2  13  -3    0.05    0.20 
  -3  13  -3    0.32    0.22 
  -4  13  -3    0.28    0.20 
  -5  13  -3    0.03    0.21 
  -6  13  -3    0.31    0.22 
  -7  13  -3    0.10    0.22 
 -10 -12   3    0.09    0.29 
  -9 -12   3    0.14    0.27 
  -8 -12   3    0.22    0.28 
  -7 -12   3    0.04    0.26 
  -6 -12   3    0.90    0.31 
   5  12  -3    0.30    0.22 
  -5 -12   3    0.07    0.24 
   4  12  -3    0.67    0.23 
  -4 -12   3    0.35    0.26 
   3  12  -3    0.69    0.24 
  -3 -12   3    0.72    0.26 
   2  12  -3    0.30    0.21 
  -2 -12   3    0.32    0.11 
  -2 -12   3    0.54    0.23 
   1  12  -3    1.05    0.26 
  -1 -12   3    1.66    0.25 
   0  12  -3   -0.26    0.18 
  -1  12  -3    0.89    0.25 
  -2  12  -3    0.31    0.19 
  -3  12  -3    0.70    0.23 
  -4  12  -3    0.40    0.22 
  -5  12  -3   -0.13    0.19 
  -6  12  -3    0.55    0.24 
  -7  12  -3   -0.12    0.20 
  -8  12  -3    0.04    0.21 
  -9  12  -3    0.30    0.24 
 -10  12  -3    0.25    0.23 
 -11 -11   3    0.00    0.27 
 -10 -11   3    0.01    0.25 
  -9 -11   3    0.03    0.26 
  -8 -11   3   -0.19    0.24 
  -7 -11   3    0.17    0.26 
  -6 -11   3    1.48    0.33 
   5  11  -3    0.46    0.22 
  -5 -11   3    0.53    0.27 
   4  11  -3    2.99    0.31 
  -4 -11   3    2.87    0.32 
   3  11  -3    0.41    0.24 
  -3 -11   3    0.84    0.25 
  -3 -11   3    0.90    0.13 
   2  11  -3   -0.07    0.19 
  -2 -11   3    0.04    0.10 
  -2 -11   3    0.03    0.20 
   1  11  -3    7.01    0.49 
  -1 -11   3    6.45    0.48 
  -1 -11   3    7.47    0.33 
   0  11  -3    0.00    0.18 
   0 -11   3   -0.16    0.21 
  -1  11  -3    6.44    0.46 
  -2  11  -3    0.08    0.16 
  -3  11  -3    0.55    0.20 
  -4  11  -3    2.21    0.28 
  -5  11  -3    0.32    0.21 
  -6  11  -3    0.66    0.23 
  -7  11  -3   -0.18    0.18 
  -8  11  -3   -0.01    0.20 
  -9  11  -3   -0.03    0.20 
 -10  11  -3    0.01    0.23 
 -11 -10   3    0.53    0.30 
 -10 -10   3   -0.08    0.25 
  -9 -10   3    0.00    0.24 
  -8 -10   3   -0.05    0.22 
  -7 -10   3    2.04    0.35 
  -6 -10   3    0.19    0.24 
   5  10  -3    0.49    0.17 
  -5 -10   3    0.97    0.28 
   4  10  -3    0.09    0.20 
  -4 -10   3    0.10    0.20 
  -4 -10   3   -0.03    0.08 
   3  10  -3    0.18    0.21 
  -3 -10   3    0.58    0.23 
  -3 -10   3    0.42    0.10 
   2  10  -3    2.26    0.31 
  -2 -10   3    1.90    0.25 
  -2 -10   3    2.11    0.15 
   1  10  -3    1.14    0.25 
  -1 -10   3    1.24    0.13 
  -1 -10   3    1.46    0.24 
   0  10  -3    0.44    0.20 
   0 -10   3    0.46    0.11 
   0 -10   3    0.48    0.21 
  -1  10  -3    1.11    0.23 
  -2  10  -3    1.73    0.23 
  -3  10  -3    0.47    0.18 
  -4  10  -3    0.01    0.15 
  -5  10  -3    0.38    0.20 
  -6  10  -3   -0.03    0.17 
  -7  10  -3    1.08    0.25 
  -8  10  -3   -0.11    0.19 
  -9  10  -3   -0.04    0.21 
 -10  10  -3   -0.09    0.21 
 -11  10  -3    0.67    0.27 
 -11  -9   3    0.00    0.29 
 -10  -9   3    0.10    0.26 
  -9  -9   3   -0.04    0.23 
  -8  -9   3   -0.06    0.23 
  -7  -9   3    0.57    0.24 
  -6  -9   3    7.27    0.53 
   5   9  -3    1.02    0.23 
  -5  -9   3    0.92    0.25 
  -5  -9   3    0.83    0.11 
  -4  -9   3    6.83    0.32 
  -4  -9   3    7.79    0.51 
   3   9  -3    0.21    0.18 
  -3  -9   3    0.40    0.09 
  -3  -9   3    0.25    0.20 
   2   9  -3    1.24    0.23 
  -2  -9   3    1.45    0.12 
  -2  -9   3    1.60    0.24 
   1   9  -3    2.42    0.25 
  -1  -9   3    2.58    0.16 
  -1  -9   3    2.27    0.25 
   0   9  -3   -0.07    0.13 
   0  -9   3   -0.04    0.16 
   0  -9   3   -0.06    0.07 
  -1   9  -3    2.05    0.23 
  -2   9  -3    1.20    0.22 
  -3   9  -3    0.11    0.14 
  -4   9  -3    5.35    0.39 
  -5   9  -3    0.61    0.18 
  -6   9  -3    5.85    0.44 
  -7   9  -3    0.44    0.19 
  -8   9  -3   -0.01    0.18 
  -9   9  -3    0.20    0.23 
 -10   9  -3    0.12    0.22 
 -11   9  -3    0.38    0.26 
 -12  -8   3    0.10    0.28 
 -11  -8   3    0.12    0.28 
 -10  -8   3   -0.01    0.26 
  -9  -8   3   -0.10    0.22 
  -8  -8   3    0.23    0.23 
  -7  -8   3    0.77    0.26 
   6   8  -3    2.04    0.22 
  -6  -8   3    2.03    0.28 
  -6  -8   3    2.00    0.16 
   5   8  -3    1.10    0.20 
  -5  -8   3    1.03    0.12 
  -5  -8   3    1.15    0.24 
   4   8  -3    0.19    0.14 
  -4  -8   3    0.35    0.19 
  -4  -8   3    0.20    0.08 
   3   8  -3    0.44    0.16 
  -3  -8   3    0.39    0.09 
  -3  -8   3    0.65    0.20 
   2   8  -3    2.90    0.26 
  -2  -8   3    3.03    0.26 
  -2  -8   3    3.03    0.16 
   1   8  -3    2.44    0.24 
  -1  -8   3    2.39    0.23 
  -1  -8   3    2.60    0.15 
   0   8  -3    0.58    0.16 
   0  -8   3    0.59    0.09 
   0  -8   3    0.62    0.16 
  -1   8  -3    2.15    0.23 
   1  -8   3    2.21    0.14 
  -2   8  -3    2.33    0.23 
  -3   8  -3    0.23    0.14 
  -4   8  -3    0.12    0.14 
  -5   8  -3    0.34    0.15 
  -6   8  -3    1.31    0.25 
  -7   8  -3    0.25    0.19 
  -8   8  -3    0.10    0.18 
  -9   8  -3    0.06    0.20 
 -10   8  -3    0.16    0.21 
 -11   8  -3    0.06    0.21 
 -12  -7   3    0.61    0.30 
 -11  -7   3    0.04    0.27 
 -10  -7   3    0.53    0.28 
  -9  -7   3   -0.01    0.25 
  -8  -7   3    0.57    0.25 
  -7  -7   3    1.99    0.17 
  -7  -7   3    1.96    0.29 
  -6  -7   3    0.03    0.09 
  -6  -7   3    0.06    0.20 
   5   7  -3    0.13    0.11 
  -5  -7   3    0.26    0.19 
  -5  -7   3    0.14    0.08 
   4   7  -3    6.54    0.38 
  -4  -7   3    5.83    0.43 
  -4  -7   3    5.75    0.26 
  -3  -7   3    0.59    0.18 
  -3  -7   3    0.47    0.08 
   2   7  -3    8.73    0.48 
  -2  -7   3    8.49    0.52 
  -2  -7   3    8.70    0.35 
   1   7  -3   10.44    0.57 
  -1  -7   3   11.02    0.42 
  -1  -7   3   10.79    0.62 
   0   7  -3    0.01    0.10 
   0  -7   3   -0.04    0.10 
   0  -7   3    0.06    0.06 
  -1   7  -3    9.83    0.54 
   1  -7   3    9.65    0.40 
  -2   7  -3    6.63    0.40 
  -3   7  -3    0.32    0.13 
  -4   7  -3    5.16    0.36 
  -5   7  -3    0.16    0.14 
  -6   7  -3    0.15    0.15 
  -7   7  -3    1.24    0.26 
  -8   7  -3    0.40    0.21 
  -9   7  -3    0.37    0.22 
 -10   7  -3    0.19    0.21 
 -11   7  -3   -0.05    0.20 
 -12  -6   3    0.40    0.29 
 -11  -6   3    0.10    0.28 
 -10  -6   3    0.24    0.26 
  -9  -6   3    0.48    0.28 
  -8  -6   3    1.49    0.18 
  -8  -6   3    1.52    0.32 
  -7  -6   3    2.52    0.19 
  -7  -6   3    2.93    0.32 
  -6  -6   3    0.00    0.08 
  -6  -6   3    0.00    0.17 
   5   6  -3    0.31    0.10 
  -5  -6   3    0.31    0.19 
  -5  -6   3    0.41    0.08 
   4   6  -3    0.23    0.12 
  -4  -6   3    0.53    0.18 
  -4  -6   3    0.30    0.07 
   3   6  -3    5.82    0.34 
  -3  -6   3    5.62    0.24 
  -3  -6   3    5.38    0.38 
   2   6  -3    3.28    0.25 
  -2  -6   3    3.72    0.27 
  -2  -6   3    3.78    0.17 
   1   6  -3    0.06    0.09 
  -1  -6   3    0.05    0.05 
  -1  -6   3   -0.02    0.10 
   0   6  -3    0.38    0.11 
   0  -6   3    0.37    0.07 
   0  -6   3    0.36    0.11 
  -1   6  -3    0.07    0.09 
   1  -6   3    0.15    0.06 
  -2   6  -3    2.86    0.22 
  -3   6  -3    4.95    0.33 
  -4   6  -3    0.31    0.13 
  -5   6  -3    0.42    0.16 
  -6   6  -3    0.05    0.14 
  -7   6  -3    2.51    0.28 
  -8   6  -3    1.29    0.27 
  -9   6  -3    0.46    0.23 
 -10   6  -3    0.43    0.23 
 -11   6  -3    0.10    0.21 
 -13  -5   3    0.67    0.31 
 -12  -5   3    0.37    0.29 
 -11  -5   3    0.26    0.29 
 -10  -5   3    0.05    0.25 
  -9  -5   3    0.22    0.25 
  -9  -5   3    0.49    0.14 
  -8  -5   3    0.98    0.15 
  -8  -5   3    0.77    0.27 
  -7  -5   3    0.63    0.24 
  -7  -5   3    0.52    0.12 
  -6  -5   3   -0.01    0.08 
  -6  -5   3   -0.02    0.17 
  -5  -5   3    0.12    0.07 
  -5  -5   3    0.15    0.16 
  -4  -5   3    3.65    0.30 
  -4  -5   3    3.77    0.18 
   3   5  -3    0.19    0.10 
  -3  -5   3    0.27    0.14 
  -3  -5   3    0.33    0.07 
   2   5  -3    0.09    0.06 
  -2  -5   3    0.16    0.06 
  -2  -5   3    0.22    0.11 
   1   5  -3    5.34    0.31 
  -1  -5   3    5.74    0.23 
  -1  -5   3    5.54    0.34 
   0   5  -3    0.05    0.07 
   0  -5   3   -0.03    0.08 
   0  -5   3    0.00    0.04 
  -1   5  -3    4.65    0.29 
   1  -5   3    4.87    0.21 
  -2   5  -3    0.14    0.10 
  -3   5  -3    0.28    0.11 
  -4   5  -3    2.97    0.24 
  -5   5  -3    0.34    0.14 
  -6   5  -3    0.04    0.13 
  -7   5  -3    0.51    0.20 
  -8   5  -3    0.45    0.21 
  -9   5  -3    0.25    0.21 
 -10   5  -3   -0.11    0.17 
 -11   5  -3    0.24    0.22 
 -13   5  -3    0.78    0.21 
 -13  -4   3    0.56    0.32 
 -12  -4   3    0.05    0.29 
 -11  -4   3    0.02    0.27 
 -10  -4   3    0.11    0.14 
 -10  -4   3   -0.08    0.26 
  -9  -4   3    1.12    0.32 
  -9  -4   3    1.18    0.18 
  -8  -4   3    4.38    0.26 
  -7  -4   3    0.09    0.10 
  -6  -4   3    1.92    0.15 
  -5  -4   3    2.93    0.28 
  -5  -4   3    3.00    0.17 
  -4  -4   3    7.13    0.30 
  -4  -4   3    7.07    0.46 
  -3  -4   3    0.65    0.15 
  -3  -4   3    0.65    0.08 
   2   4  -3    7.22    0.36 
  -2  -4   3    6.50    0.41 
  -2  -4   3    6.79    0.28 
   1   4  -3    6.42    0.37 
  -1  -4   3    7.57    0.42 
  -1  -4   3    7.93    0.29 
   0   4  -3    4.52    0.26 
   0  -4   3    4.54    0.20 
  -1   4  -3    7.03    0.38 
   1  -4   3    6.96    0.28 
  -2   4  -3    5.24    0.32 
   2  -4   3    5.74    0.24 
  -3   4  -3    0.52    0.12 
  -4   4  -3    5.97    0.37 
  -5   4  -3    2.58    0.23 
  -6   4  -3    1.77    0.21 
  -7   4  -3   -0.03    0.15 
  -8   4  -3    3.74    0.34 
  -9   4  -3    0.86    0.25 
 -10   4  -3   -0.27    0.18 
 -11   4  -3   -0.11    0.19 
 -12   4  -3    0.28    0.17 
 -13   4  -3    0.44    0.19 
 -13  -3   3    0.57    0.35 
 -12  -3   3    0.06    0.30 
 -11  -3   3    0.11    0.15 
 -10  -3   3    0.28    0.15 
  -9  -3   3    0.07    0.13 
  -8  -3   3    0.40    0.13 
  -7  -3   3    4.82    0.26 
  -6  -3   3    1.16    0.12 
  -5  -3   3    7.39    0.32 
  -4  -3   3    0.49    0.08 
  -3  -3   3    1.82    0.11 
  -2  -3   3    2.51    0.20 
  -2  -3   3    2.61    0.13 
  -1  -3   3   17.36    0.62 
  -1  -3   3   16.38    0.89 
   0   3  -3   -0.01    0.05 
   0  -3   3    0.01    0.04 
   0  -3   3   -0.02    0.04 
  -1   3  -3   15.20    0.73 
   1  -3   3   15.03    0.56 
  -2   3  -3    1.86    0.15 
   2  -3   3    1.93    0.12 
  -3   3  -3    1.29    0.13 
  -4   3  -3    0.39    0.11 
  -5   3  -3    5.48    0.35 
  -6   3  -3    1.11    0.19 
  -7   3  -3    3.95    0.32 
  -8   3  -3    0.13    0.18 
  -9   3  -3    0.16    0.17 
 -10   3  -3    0.30    0.20 
 -11   3  -3   -0.02    0.18 
 -12   3  -3    0.01    0.16 
 -13   3  -3    0.21    0.17 
 -12  -2   3    0.17    0.16 
 -11  -2   3    0.25    0.15 
 -10  -2   3    3.52    0.26 
  -9  -2   3    0.31    0.13 
  -8  -2   3    3.96    0.24 
  -7  -2   3    3.82    0.23 
  -6  -2   3   -0.12    0.07 
  -5  -2   3    1.74    0.13 
  -4  -2   3    5.06    0.23 
  -3  -2   3    0.03    0.04 
  -2  -2   3   31.32    1.12 
   1   2  -3  108.26    4.53 
  -1  -2   3   93.07    3.51 
   0   2  -3   13.32    0.60 
   0  -2   3   12.53    0.46 
   0  -2   3   12.03    0.66 
   1  -2   3   73.96    2.59 
   1  -2   3   73.69    3.32 
   2  -2   3   24.84    0.88 
   2  -2   3   23.64    1.13 
   4  -2   3    3.78    0.25 
   5  -2   3    2.77    0.22 
   6  -2   3    0.04    0.11 
   7  -2   3    3.15    0.27 
  -8   2  -3    3.15    0.29 
  -9   2  -3    0.25    0.17 
 -10   2  -3    2.84    0.32 
 -11   2  -3    0.28    0.15 
 -12   2  -3    0.17    0.16 
 -13   2  -3    0.58    0.19 
 -12  -1   3    0.32    0.17 
 -11  -1   3    0.24    0.14 
 -10  -1   3    0.09    0.14 
  -9  -1   3    0.27    0.13 
  -8  -1   3    0.22    0.11 
  -7  -1   3    3.79    0.23 
  -6  -1   3   -0.01    0.07 
  -5  -1   3    6.87    0.31 
  -4  -1   3    4.99    0.23 
  -3  -1   3    1.22    0.09 
  -2  -1   3    0.87    0.07 
  -1  -1   3    7.19    0.28 
   0  -1   3   -0.04    0.03 
   0  -1   3   -0.01    0.03 
   1  -1   3    5.38    0.22 
   1  -1   3    5.83    0.29 
   2  -1   3    0.60    0.09 
   2  -1   3    0.78    0.07 
   3  -1   3    0.82    0.10 
   4  -1   3    3.84    0.24 
   5  -1   3    6.21    0.37 
   6  -1   3    0.12    0.11 
   7  -1   3    3.10    0.27 
   8  -1   3    0.10    0.18 
   9  -1   3    0.22    0.16 
 -10   1  -3   -0.15    0.16 
 -11   1  -3    0.14    0.15 
 -12   1  -3    0.23    0.15 
 -13   0   3    0.33    0.17 
 -12   0   3    0.19    0.15 
 -11   0   3   -0.03    0.14 
 -10   0   3   -0.06    0.14 
  -9   0   3   -0.08    0.12 
  -8   0   3    0.18    0.11 
  -7   0   3   -0.07    0.09 
  -6   0   3   -0.07    0.07 
  -5   0   3   -0.07    0.07 
  -4   0   3    0.04    0.05 
  -3   0   3    0.02    0.04 
  -2   0   3   -0.01    0.03 
  -1   0   3    0.03    0.03 
   0   0   3    0.00    0.03 
   0   0   3   -0.01    0.04 
   1   0   3   -0.03    0.03 
   1   0   3   -0.01    0.03 
   2   0   3   -0.04    0.04 
   2   0   3    0.01    0.03 
   3   0   3   -0.01    0.05 
   4   0   3   -0.07    0.07 
   6   0   3   -0.06    0.10 
   7   0   3   -0.10    0.13 
   8   0   3   -0.01    0.16 
   9   0   3   -0.03    0.17 
 -10   0  -3   -0.03    0.13 
  10   0   3    0.14    0.18 
 -11   0  -3    0.21    0.14 
 -13   0  -3    0.33    0.29 
 -13   1   3    0.16    0.16 
 -12   1   3    0.33    0.16 
 -11   1   3    0.38    0.17 
 -10   1   3    0.04    0.15 
  -9   1   3    0.24    0.14 
  -8   1   3    0.26    0.11 
  -7   1   3    4.10    0.25 
  -7   1   3    3.65    0.26 
  -6   1   3    0.02    0.08 
  -6   1   3    0.10    0.08 
  -5   1   3    7.19    0.38 
  -5   1   3    7.71    0.34 
  -4   1   3    5.25    0.28 
  -4   1   3    5.42    0.25 
  -3   1   3    1.48    0.10 
  -3   1   3    1.18    0.10 
  -2   1   3    0.94    0.08 
  -2   1   3    0.87    0.08 
  -1   1   3    7.93    0.30 
  -1   1   3    7.47    0.37 
   0   1   3    0.05    0.03 
   0   1   3   -0.01    0.04 
  -1  -1  -3    6.12    0.32 
   1   1   3    6.18    0.31 
   1   1   3    5.48    0.22 
  -2  -1  -3    0.63    0.08 
   2   1   3    0.60    0.05 
   2   1   3    0.80    0.10 
  -3  -1  -3    0.97    0.11 
   3   1   3    0.87    0.10 
   4   1   3    4.26    0.26 
   5   1   3    6.34    0.37 
   6   1   3    0.09    0.11 
   7   1   3    3.30    0.28 
   8   1   3    0.19    0.17 
  -9  -1  -3    0.12    0.11 
   9   1   3    0.08    0.18 
 -10  -1  -3    0.01    0.12 
  10   1   3    0.13    0.19 
 -11  -1  -3    0.03    0.26 
 -12  -1  -3   -0.25    0.28 
 -13  -1  -3    0.20    0.29 
 -13   2   3    0.66    0.19 
 -12   2   3    0.24    0.16 
 -11   2   3    0.05    0.16 
 -10   2   3    4.23    0.30 
  -9   2   3    0.42    0.15 
  -8   2   3    3.80    0.28 
  -8   2   3    3.66    0.25 
  -7   2   3    4.01    0.27 
  -7   2   3    3.97    0.25 
  -6   2   3   -0.04    0.08 
  -6   2   3    0.01    0.08 
  -5   2   3    1.75    0.15 
  -5   2   3    1.79    0.15 
  -4   2   3    4.73    0.27 
  -4   2   3    5.06    0.24 
  -3   2   3    0.05    0.05 
  -3   2   3    0.02    0.05 
  -2   2   3   34.31    1.27 
  -2   2   3   36.78    1.62 
  -1   2   3   95.35    3.33 
  -1   2   3   94.84    4.26 
   0   2   3   12.18    0.58 
  -1  -2  -3   78.81    4.00 
   1   2   3   77.89    3.53 
  -2  -2  -3   24.79    1.33 
   2   2   3   26.34    1.19 
  -3  -2  -3    0.04    0.07 
   3   2   3   -0.03    0.06 
  -4  -2  -3    4.02    0.28 
   4   2   3    3.99    0.25 
  -5  -2  -3    1.73    0.19 
   5   2   3    1.71    0.16 
  -6  -2  -3    0.03    0.14 
   6   2   3    0.01    0.10 
  -7  -2  -3    3.48    0.32 
   7   2   3    3.43    0.28 
  -8  -2  -3    3.18    0.33 
  -8  -2  -3    3.05    0.21 
   8   2   3    3.06    0.29 
  -9  -2  -3    0.26    0.12 
  -9  -2  -3    0.22    0.24 
   9   2   3    0.28    0.19 
 -10  -2  -3    3.21    0.24 
 -10  -2  -3    3.49    0.39 
  10   2   3    3.66    0.31 
 -11  -2  -3    0.06    0.27 
 -12  -2  -3    0.23    0.29 
 -13  -2  -3    0.58    0.31 
 -13   3   3    0.41    0.18 
 -12   3   3   -0.06    0.17 
 -11   3   3   -0.05    0.16 
 -10   3   3    0.22    0.16 
  -9   3   3    0.14    0.16 
  -8   3   3    0.55    0.18 
  -8   3   3    0.71    0.17 
  -7   3   3    4.84    0.33 
  -7   3   3    4.97    0.29 
  -6   3   3    1.35    0.15 
  -6   3   3    1.48    0.14 
  -5   3   3    7.54    0.41 
  -5   3   3    7.70    0.35 
  -4   3   3    0.62    0.11 
  -4   3   3    0.48    0.09 
  -3   3   3    1.84    0.14 
  -3   3   3    1.71    0.12 
  -2   3   3    2.47    0.14 
  -2   3   3    2.97    0.19 
  -1   3   3   18.77    0.68 
  -1   3   3   18.69    0.89 
   0   3   3   -0.05    0.06 
   0   3   3   -0.01    0.03 
  -1  -3  -3   14.65    0.79 
   1   3   3   15.21    0.72 
  -2  -3  -3    2.07    0.16 
   2   3   3    2.11    0.16 
  -3  -3  -3    1.28    0.13 
   3   3   3    1.39    0.13 
  -4  -3  -3    0.52    0.14 
   4   3   3    0.53    0.11 
  -5  -3  -3    6.71    0.44 
   5   3   3    6.52    0.38 
  -6  -3  -3    0.89    0.10 
  -6  -3  -3    1.34    0.22 
   6   3   3    1.27    0.18 
  -7  -3  -3    3.85    0.22 
  -7  -3  -3    4.10    0.35 
   7   3   3    4.56    0.32 
  -8  -3  -3    0.29    0.13 
  -8  -3  -3    0.21    0.23 
   8   3   3    0.44    0.21 
  -9  -3  -3    0.05    0.11 
  -9  -3  -3    0.14    0.25 
   9   3   3    0.17    0.19 
 -10  -3  -3    0.21    0.26 
 -11  -3  -3   -0.03    0.26 
 -12  -3  -3    0.30    0.28 
 -13  -3  -3    0.21    0.30 
 -13   4   3    0.15    0.18 
 -12   4   3    0.09    0.17 
 -11   4   3    0.10    0.16 
 -10   4   3   -0.02    0.15 
  -9   4   3    1.26    0.21 
  -8   4   3    5.08    0.31 
  -8   4   3    4.74    0.35 
  -7   4   3   -0.01    0.10 
  -7   4   3    0.11    0.14 
  -6   4   3    2.18    0.18 
  -6   4   3    2.21    0.21 
  -5   4   3    3.51    0.25 
  -5   4   3    3.45    0.21 
  -4   4   3    7.34    0.42 
  -4   4   3    7.96    0.34 
  -3   4   3    0.68    0.12 
  -2   4   3    7.09    0.39 
  -1   4   3    8.23    0.33 
  -1   4   3    8.52    0.44 
   0   4   3    4.41    0.27 
   0   4   3    4.51    0.19 
  -1  -4  -3    6.85    0.37 
   1   4   3    5.53    0.34 
  -2  -4  -3    5.57    0.33 
   2   4   3    5.18    0.31 
  -3  -4  -3    0.71    0.13 
   3   4   3    0.36    0.10 
  -4  -4  -3    6.34    0.40 
   4   4   3    6.13    0.36 
  -5  -4  -3    3.34    0.27 
   5   4   3    2.82    0.23 
  -6  -4  -3    1.74    0.22 
  -6  -4  -3    1.60    0.12 
   6   4   3    1.53    0.19 
  -7  -4  -3   -0.04    0.20 
  -7  -4  -3   -0.02    0.08 
   7   4   3    0.00    0.13 
  -8  -4  -3    4.21    0.38 
   8   4   3    4.12    0.33 
  -9  -4  -3    1.19    0.31 
   9   4   3    1.27    0.24 
 -10  -4  -3   -0.03    0.25 
 -11  -4  -3    0.00    0.26 
 -12  -4  -3   -0.21    0.25 
 -13  -4  -3    0.44    0.31 
 -12   5   3    0.24    0.19 
 -11   5   3    0.76    0.21 
 -10   5   3    0.06    0.16 
  -9   5   3    0.07    0.16 
  -8   5   3    0.76    0.18 
  -8   5   3    0.90    0.22 
  -7   5   3    0.70    0.16 
  -7   5   3    0.50    0.19 
  -6   5   3   -0.02    0.12 
  -6   5   3    0.02    0.10 
  -5   5   3    0.32    0.13 
  -4   5   3    4.12    0.28 
  -3   5   3    0.27    0.12 
  -2   5   3    0.23    0.11 
  -1   5   3    5.60    0.34 
   0   5   3   -0.01    0.08 
  -1  -5  -3    4.71    0.28 
   1   5   3    3.59    0.26 
  -2  -5  -3    0.25    0.11 
   2   5   3    0.11    0.10 
  -3  -5  -3    0.57    0.13 
   3   5   3    0.08    0.10 
  -4  -5  -3    3.48    0.27 
   4   5   3    3.09    0.24 
  -5  -5  -3    0.18    0.15 
   5   5   3    0.22    0.12 
  -6  -5  -3   -0.12    0.15 
   6   5   3   -0.05    0.11 
  -7  -5  -3    0.65    0.24 
   7   5   3    0.54    0.18 
  -8  -5  -3    0.95    0.28 
   8   5   3    0.88    0.22 
  -9  -5  -3    0.32    0.27 
   9   5   3    0.64    0.19 
 -10  -5  -3    0.15    0.26 
 -11  -5  -3    0.07    0.26 
 -12  -5  -3   -0.06    0.27 
 -13  -5  -3    0.41    0.30 
 -12   6   3    0.41    0.21 
 -11   6   3    0.33    0.18 
 -10   6   3    0.16    0.18 
  -9   6   3    0.74    0.21 
  -9   6   3    0.67    0.19 
  -8   6   3    1.38    0.22 
  -8   6   3    2.18    0.29 
  -7   6   3    3.02    0.29 
  -7   6   3    3.00    0.24 
  -6   6   3    0.01    0.14 
  -5   6   3    0.57    0.16 
  -4   6   3    0.38    0.15 
  -3   6   3    5.69    0.37 
  -2   6   3    3.74    0.28 
  -1   6   3    0.05    0.11 
   0   6   3    0.35    0.12 
  -1  -6  -3    0.24    0.12 
   1   6   3    0.14    0.10 
  -2  -6  -3    3.60    0.26 
   2   6   3    2.87    0.24 
  -3  -6  -3    5.17    0.33 
   3   6   3    4.07    0.30 
  -4  -6  -3    0.53    0.17 
   4   6   3    0.23    0.12 
  -5  -6  -3    0.44    0.18 
   5   6   3    0.22    0.13 
  -6  -6  -3   -0.20    0.18 
   6   6   3    0.00    0.13 
  -7  -6  -3    3.36    0.35 
   7   6   3    2.85    0.29 
  -8  -6  -3    1.67    0.33 
   8   6   3    1.77    0.24 
  -9  -6  -3    0.86    0.29 
   9   6   3    1.01    0.20 
 -10  -6  -3    0.48    0.28 
 -11  -6  -3   -0.01    0.26 
 -12  -6  -3    0.41    0.28 
 -12   7   3    0.80    0.21 
 -11   7   3    0.25    0.18 
 -10   7   3    0.28    0.18 
  -9   7   3    0.50    0.20 
  -9   7   3   -0.01    0.14 
  -8   7   3    0.88    0.22 
  -8   7   3    0.42    0.16 
  -7   7   3    2.24    0.32 
  -6   7   3    0.08    0.18 
  -5   7   3    0.09    0.15 
  -4   7   3    6.02    0.40 
  -3   7   3    0.42    0.16 
  -2   7   3    7.55    0.45 
  -1   7   3   11.29    0.62 
   0   7   3   -0.10    0.10 
  -1  -7  -3    9.47    0.54 
   1   7   3    8.70    0.51 
  -2  -7  -3    7.31    0.46 
   2   7   3    7.61    0.45 
  -3  -7  -3    0.75    0.18 
   3   7   3    0.54    0.17 
  -4  -7  -3    5.87    0.40 
   4   7   3    5.27    0.37 
  -5  -7  -3    0.31    0.19 
   5   7   3    0.08    0.15 
  -6  -7  -3    0.06    0.21 
   6   7   3    0.05    0.16 
  -7  -7  -3    2.07    0.29 
   7   7   3    2.15    0.29 
  -8  -7  -3    0.65    0.28 
   8   7   3    0.80    0.19 
  -9  -7  -3    0.16    0.27 
   9   7   3    0.42    0.17 
 -10  -7  -3    0.30    0.28 
 -11  -7  -3   -0.02    0.27 
 -12  -7  -3    0.47    0.31 
 -12   8   3    0.13    0.18 
 -11   8   3    0.17    0.19 
 -10   8   3    0.07    0.17 
  -9   8   3    0.07    0.16 
  -9   8   3    0.25    0.20 
  -8   8   3    0.02    0.13 
  -8   8   3    0.52    0.22 
  -7   8   3    0.59    0.21 
  -6   8   3    1.92    0.27 
  -5   8   3    0.89    0.23 
  -4   8   3    0.18    0.17 
  -3   8   3    0.41    0.18 
  -2   8   3    3.08    0.28 
  -1   8   3    2.41    0.25 
   0   8   3    0.49    0.16 
  -1  -8  -3    2.38    0.23 
   1   8   3    1.95    0.23 
  -2  -8  -3    2.60    0.24 
   2   8   3    2.22    0.24 
  -3  -8  -3    0.89    0.20 
   3   8   3    0.16    0.18 
  -4  -8  -3    0.39    0.19 
   4   8   3    0.38    0.17 
  -5  -8  -3    0.83    0.24 
   5   8   3    1.01    0.22 
  -6  -8  -3    1.88    0.30 
   6   8   3    2.20    0.30 
  -7  -8  -3    0.61    0.29 
   7   8   3    0.64    0.20 
  -8  -8  -3    0.14    0.27 
   8   8   3    0.57    0.18 
  -9  -8  -3    0.02    0.27 
 -10  -8  -3   -0.20    0.25 
 -11  -8  -3    0.15    0.28 
 -12  -8  -3    0.20    0.28 
 -11   9   3    0.13    0.20 
 -10   9   3    0.00    0.15 
  -9   9   3    0.54    0.23 
  -9   9   3    0.00    0.15 
  -8   9   3    0.18    0.21 
  -8   9   3    0.07    0.14 
  -7   9   3    0.72    0.24 
  -6   9   3    8.08    0.54 
  -5   9   3    0.47    0.23 
  -4   9   3    6.79    0.47 
  -3   9   3    0.24    0.18 
  -2   9   3    1.41    0.24 
  -1   9   3    2.06    0.25 
   0   9   3   -0.10    0.13 
  -1  -9  -3    1.95    0.24 
   1   9   3    2.06    0.24 
  -2  -9  -3    1.35    0.22 
   2   9   3    1.09    0.23 
  -3  -9  -3    0.43    0.19 
   3   9   3    0.11    0.19 
  -4  -9  -3    6.72    0.47 
   4   9   3    5.91    0.44 
  -5  -9  -3    0.46    0.25 
   5   9   3    1.00    0.25 
  -6  -9  -3    7.67    0.57 
   6   9   3    8.07    0.52 
  -7  -9  -3    0.78    0.30 
   7   9   3    0.98    0.22 
  -8  -9  -3   -0.18    0.26 
   8   9   3    0.23    0.18 
  -9  -9  -3   -0.07    0.28 
 -10  -9  -3   -0.16    0.27 
 -11  -9  -3   -0.17    0.30 
 -11  10   3    0.27    0.20 
 -10  10   3    0.01    0.15 
  -9  10   3    0.16    0.22 
  -9  10   3    0.33    0.15 
  -8  10   3   -0.06    0.21 
  -7  10   3    2.31    0.31 
  -6  10   3    0.26    0.24 
  -5  10   3    0.39    0.24 
  -4  10   3   -0.22    0.18 
  -3  10   3    0.62    0.20 
  -2  10   3    1.55    0.26 
  -1  10   3    1.02    0.23 
   0  10   3    0.50    0.20 
  -1 -10  -3    1.06    0.24 
   1  10   3    1.24    0.25 
  -2 -10  -3    1.68    0.23 
   2  10   3    1.77    0.28 
  -3 -10  -3    0.42    0.21 
   3  10   3    0.47    0.22 
  -4 -10  -3   -0.18    0.20 
   4  10   3    0.04    0.19 
  -5 -10  -3    1.17    0.32 
   5  10   3    0.78    0.25 
  -6 -10  -3    0.47    0.28 
   6  10   3    0.12    0.21 
  -7 -10  -3    2.25    0.39 
   7  10   3    2.07    0.26 
  -8 -10  -3   -0.17    0.27 
   8  10   3    0.37    0.18 
  -9 -10  -3    0.07    0.30 
 -10 -10  -3   -0.01    0.30 
 -11 -10  -3    0.12    0.34 
 -11  11   3    0.67    0.20 
 -10  11   3    0.36    0.18 
  -9  11   3   -0.02    0.24 
  -9  11   3    0.09    0.16 
  -8  11   3    0.22    0.25 
  -7  11   3    0.09    0.24 
  -6  11   3    1.51    0.32 
  -5  11   3    0.35    0.26 
  -4  11   3    3.02    0.34 
  -3  11   3    0.43    0.21 
  -2  11   3   -0.03    0.19 
  -1  11   3    5.45    0.42 
   0  11   3    0.09    0.17 
  -1 -11  -3    6.17    0.44 
   1  11   3    5.75    0.43 
  -2 -11  -3   -0.01    0.19 
   2  11   3   -0.06    0.18 
  -3 -11  -3    0.73    0.24 
   3  11   3    0.76    0.25 
  -4 -11  -3    2.43    0.33 
   4  11   3    3.40    0.33 
  -5 -11  -3    0.51    0.28 
   5  11   3    1.03    0.26 
   6  11   3    2.08    0.33 
  -7 -11  -3    0.12    0.28 
   7  11   3    0.50    0.24 
  -8 -11  -3   -0.09    0.29 
  -9 -11  -3   -0.05    0.30 
 -10 -11  -3   -0.36    0.30 
 -11 -11  -3    0.20    0.34 
 -10  12   3    0.21    0.18 
  -9  12   3    0.40    0.28 
  -9  12   3    0.21    0.16 
  -8  12   3    0.65    0.28 
  -7  12   3    0.06    0.25 
  -6  12   3    0.84    0.30 
  -5  12   3   -0.02    0.23 
  -4  12   3    0.41    0.25 
  -3  12   3    0.41    0.23 
  -2  12   3    0.05    0.21 
  -1  12   3    0.69    0.24 
   0  12   3   -0.07    0.19 
   1  12   3    1.50    0.30 
  -2 -12  -3    0.14    0.21 
   2  12   3    0.34    0.23 
  -3 -12  -3    0.62    0.25 
   3  12   3    0.73    0.29 
  -4 -12  -3    0.45    0.26 
   4  12   3    0.15    0.25 
  -5 -12  -3    0.07    0.26 
   5  12   3   -0.03    0.23 
  -6 -12  -3    1.22    0.35 
   6  12   3    1.33    0.32 
  -7 -12  -3   -0.11    0.30 
   7  12   3    0.32    0.23 
  -8 -12  -3    0.17    0.32 
  -9 -12  -3   -0.08    0.30 
 -10 -12  -3   -0.22    0.34 
  -9  13   3    0.29    0.17 
  -9  13   3    0.21    0.30 
  -8  13   3    0.10    0.27 
  -7  13   3   -0.23    0.24 
  -6  13   3    0.18    0.24 
  -5  13   3    0.10    0.25 
  -4  13   3    0.35    0.25 
  -3  13   3    0.32    0.26 
  -2  13   3    0.19    0.25 
  -1  13   3   -0.09    0.21 
   0  13   3   -0.38    0.19 
   1  13   3    0.27    0.25 
  -2 -13  -3    0.13    0.23 
   2  13   3    0.56    0.26 
  -3 -13  -3    0.63    0.25 
   3  13   3   -0.08    0.27 
  -4 -13  -3    0.53    0.28 
   4  13   3    0.27    0.29 
  -5 -13  -3   -0.04    0.27 
   5  13   3    0.20    0.26 
  -6 -13  -3    0.10    0.29 
   6  13   3    0.11    0.24 
  -7 -13  -3    0.05    0.31 
   7  13   3    0.67    0.27 
  -8 -13  -3   -0.20    0.32 
  -9 -13  -3   -0.21    0.33 
  -9  14   3    0.24    0.18 
  -9  14   3    0.39    0.28 
  -8  14   3    1.37    0.35 
  -7  14   3    0.04    0.27 
  -6  14   3    0.31    0.27 
  -5  14   3    0.14    0.26 
  -4  14   3    0.27    0.26 
  -3  14   3    0.13    0.26 
  -2  14   3    0.45    0.29 
  -1  14   3    0.18    0.24 
   0  14   3    0.31    0.24 
   1  14   3    0.07    0.23 
  -2 -14  -3    0.64    0.29 
   2  14   3    1.56    0.33 
  -3 -14  -3    0.21    0.25 
   3  14   3    0.43    0.29 
  -4 -14  -3    0.44    0.28 
   4  14   3    0.25    0.30 
  -5 -14  -3   -0.04    0.28 
   5  14   3    0.35    0.28 
  -6 -14  -3    0.37    0.34 
   6  14   3    0.69    0.30 
  -7 -14  -3   -0.08    0.33 
   7  14   3    0.64    0.28 
  -8 -14  -3    0.18    0.35 
  -9 -14  -3    0.00    0.36 
  -8  15   3    0.33    0.26 
  -8  15   3    0.23    0.18 
  -7  15   3    0.55    0.28 
  -6  15   3   -0.19    0.24 
  -5  15   3   -0.12    0.24 
  -4  15   3    1.16    0.32 
  -3  15   3    0.38    0.27 
  -2  15   3    0.18    0.29 
  -1  15   3    0.64    0.29 
   0  15   3   -0.13    0.25 
   1  15   3    1.68    0.34 
   2  15   3    1.04    0.32 
  -3 -15  -3    0.90    0.32 
   3  15   3    0.87    0.34 
  -4 -15  -3    1.42    0.35 
   4  15   3    1.85    0.39 
  -5 -15  -3   -0.04    0.29 
   5  15   3    0.39    0.29 
  -6 -15  -3   -0.22    0.32 
   6  15   3    0.62    0.31 
  -7 -15  -3    0.04    0.34 
  -8 -15  -3   -0.42    0.34 
  -7  16   3    0.43    0.26 
  -6  16   3    0.18    0.26 
  -5  16   3   -0.15    0.21 
  -4  16   3    0.16    0.25 
  -3  16   3    0.25    0.27 
  -2  16   3    0.31    0.24 
  -1  16   3   -0.09    0.23 
   0  16   3    0.27    0.26 
   1  16   3    0.09    0.25 
   2  16   3    0.19    0.27 
  -3 -16  -3    0.20    0.28 
   3  16   3    0.96    0.31 
  -4 -16  -3   -0.02    0.28 
   4  16   3    0.65    0.31 
  -5 -16  -3   -0.37    0.28 
   5  16   3    0.62    0.30 
  -6 -16  -3    0.54    0.38 
   6  16   3    1.16    0.33 
  -7 -16  -3   -0.21    0.31 
  -6  17   3    0.46    0.27 
  -5  17   3    0.39    0.24 
  -4  17   3    0.23    0.25 
  -3  17   3    0.21    0.24 
  -2  17   3    0.24    0.23 
  -1  17   3    0.04    0.21 
   0  17   3    0.04    0.22 
   1  17   3    0.49    0.26 
   2  17   3    0.61    0.28 
   3  17   3    0.99    0.32 
  -4 -17  -3   -0.13    0.30 
   4  17   3    0.85    0.30 
  -5 -17  -3   -0.29    0.30 
   5  17   3    0.49    0.29 
  -6 -17  -3   -0.32    0.30 
   6  17   3    1.44    0.34 
  -4  18   3    0.27    0.25 
  -3  18   3    0.37    0.22 
  -2  18   3    0.52    0.23 
  -1  18   3    0.52    0.26 
   0  18   3    0.53    0.25 
   1  18   3    0.68    0.26 
   2  18   3    0.97    0.31 
   3  18   3    1.11    0.30 
   4  18   3    0.88    0.30 
   1  19   3    0.54    0.25 
  -4 -18   4   -0.32    0.31 
  -3 -18   4   -0.29    0.32 
   2  18  -4    0.34    0.25 
   1  18  -4    0.59    0.26 
   0  18  -4    0.41    0.25 
  -1  18  -4    0.68    0.30 
  -2  18  -4    0.16    0.25 
  -3  18  -4    0.50    0.25 
  -4  18  -4    0.99    0.27 
  -6 -17   4   -0.11    0.32 
  -5 -17   4   -0.41    0.28 
  -4 -17   4   -0.02    0.29 
   3  17  -4    0.29    0.24 
  -3 -17   4   -0.30    0.29 
   2  17  -4    0.39    0.25 
  -2 -17   4   -0.22    0.30 
   1  17  -4    0.47    0.25 
   0  17  -4    0.52    0.28 
  -1  17  -4    0.41    0.27 
  -2  17  -4    0.07    0.27 
  -3  17  -4    0.37    0.27 
  -4  17  -4    0.27    0.23 
  -5  17  -4    0.42    0.25 
  -7 -16   4   -0.39    0.30 
  -6 -16   4    0.12    0.33 
  -5 -16   4   -0.23    0.30 
  -4 -16   4   -0.06    0.28 
   3  16  -4    0.42    0.25 
  -3 -16   4    0.06    0.28 
   2  16  -4    0.50    0.24 
  -2 -16   4   -0.18    0.30 
   1  16  -4    0.47    0.25 
   0  16  -4    0.02    0.26 
  -1  16  -4   -0.02    0.26 
  -2  16  -4    0.19    0.27 
  -3  16  -4    0.13    0.21 
  -4  16  -4    0.32    0.24 
  -5  16  -4    0.21    0.21 
  -6  16  -4    0.26    0.23 
  -7  16  -4    0.24    0.24 
  -8 -15   4   -0.13    0.30 
  -7 -15   4   -0.14    0.31 
  -6 -15   4   -0.08    0.30 
  -5 -15   4   -0.09    0.30 
  -4 -15   4    0.73    0.32 
   3  15  -4    0.56    0.25 
  -3 -15   4    0.10    0.27 
   2  15  -4    1.43    0.30 
  -2 -15   4    1.47    0.35 
   1  15  -4    0.14    0.24 
  -1 -15   4    0.19    0.28 
   0  15  -4   -0.03    0.23 
  -1  15  -4    0.12    0.26 
  -2  15  -4    0.62    0.27 
  -3  15  -4    0.21    0.25 
  -4  15  -4    0.18    0.21 
  -5  15  -4    0.12    0.20 
  -6  15  -4    0.07    0.24 
  -7  15  -4    0.13    0.22 
  -8  15  -4    0.03    0.21 
  -9 -14   4   -0.08    0.28 
  -8 -14   4    0.29    0.32 
  -7 -14   4   -0.30    0.28 
  -6 -14   4   -0.19    0.29 
  -5 -14   4    0.94    0.33 
   4  14  -4    1.18    0.28 
  -4 -14   4    0.83    0.31 
   3  14  -4    1.88    0.35 
  -3 -14   4    2.22    0.31 
   2  14  -4    0.41    0.23 
  -2 -14   4    0.54    0.27 
   1  14  -4    0.40    0.23 
  -1 -14   4   -0.05    0.25 
   0  14  -4    0.19    0.21 
  -1  14  -4   -0.05    0.19 
  -2  14  -4    0.17    0.23 
  -3  14  -4    1.11    0.28 
  -4  14  -4    0.45    0.24 
  -5  14  -4    0.31    0.24 
  -6  14  -4    0.44    0.24 
  -7  14  -4    0.18    0.23 
  -8  14  -4    0.12    0.25 
  -9  14  -4    0.37    0.22 
  -9 -13   4   -0.14    0.28 
  -8 -13   4    0.15    0.30 
  -7 -13   4   -0.15    0.28 
  -6 -13   4   -0.05    0.26 
  -5 -13   4    0.22    0.27 
   4  13  -4    0.60    0.26 
  -4 -13   4    0.59    0.28 
   3  13  -4    0.18    0.21 
  -3 -13   4    0.14    0.26 
   2  13  -4    5.65    0.46 
  -2 -13   4    5.91    0.45 
  -2 -13   4    6.47    0.32 
   1  13  -4    0.16    0.20 
  -1 -13   4    0.08    0.24 
   0  13  -4   -0.18    0.20 
  -1  13  -4    0.23    0.22 
  -3  13  -4    0.21    0.20 
  -4  13  -4    0.18    0.20 
  -5  13  -4    0.04    0.21 
  -6  13  -4    0.05    0.21 
  -7  13  -4   -0.11    0.21 
  -8  13  -4   -0.17    0.22 
  -9  13  -4   -0.04    0.23 
 -10 -12   4    0.61    0.31 
  -9 -12   4    0.07    0.28 
  -8 -12   4    0.29    0.29 
  -7 -12   4   -0.09    0.25 
  -6 -12   4    1.00    0.30 
  -5 -12   4   -0.22    0.23 
   4  12  -4    0.94    0.28 
  -4 -12   4    0.78    0.29 
   3  12  -4    0.40    0.21 
  -3 -12   4    0.43    0.12 
  -3 -12   4    0.08    0.22 
   2  12  -4    0.17    0.21 
  -2 -12   4    0.23    0.23 
  -2 -12   4    0.13    0.11 
   1  12  -4    1.27    0.28 
  -1 -12   4    1.67    0.29 
  -1 -12   4    1.34    0.15 
   0  12  -4    1.14    0.26 
   0 -12   4    1.77    0.31 
  -1  12  -4    1.16    0.26 
  -2  12  -4    0.27    0.18 
  -3  12  -4    0.19    0.19 
  -4  12  -4    0.87    0.25 
  -5  12  -4   -0.09    0.19 
  -6  12  -4    0.50    0.23 
  -7  12  -4   -0.06    0.18 
  -8  12  -4    0.20    0.23 
  -9  12  -4   -0.09    0.20 
 -10  12  -4    0.24    0.24 
 -10 -11   4    0.25    0.26 
  -9 -11   4   -0.21    0.23 
  -8 -11   4   -0.08    0.24 
  -7 -11   4    0.19    0.26 
  -6 -11   4    0.72    0.28 
   5  11  -4    0.23    0.22 
  -5 -11   4   -0.09    0.24 
   4  11  -4    0.12    0.23 
  -4 -11   4   -0.14    0.21 
  -4 -11   4   -0.11    0.09 
   3  11  -4    0.49    0.24 
  -3 -11   4    0.81    0.12 
  -3 -11   4    0.87    0.25 
   2  11  -4    0.68    0.25 
  -2 -11   4    0.95    0.14 
  -2 -11   4    0.93    0.24 
   1  11  -4    0.41    0.25 
  -1 -11   4    0.63    0.13 
  -1 -11   4    0.78    0.24 
   0  11  -4   -0.15    0.18 
   0 -11   4   -0.04    0.22 
   0 -11   4   -0.07    0.10 
  -1  11  -4    0.43    0.20 
  -2  11  -4    0.64    0.20 
  -3  11  -4    0.73    0.21 
  -4  11  -4    0.03    0.15 
  -5  11  -4   -0.14    0.17 
  -6  11  -4    0.24    0.20 
  -7  11  -4   -0.03    0.17 
  -8  11  -4    0.05    0.20 
  -9  11  -4    0.08    0.21 
 -10  11  -4    0.22    0.23 
 -11 -10   4    0.72    0.32 
 -10 -10   4    0.08    0.26 
  -9 -10   4   -0.01    0.23 
  -8 -10   4    0.13    0.24 
  -7 -10   4    0.16    0.23 
  -6 -10   4    2.58    0.32 
   5  10  -4    2.52    0.29 
  -5 -10   4    1.91    0.17 
  -5 -10   4    2.27    0.30 
   4  10  -4   -0.02    0.13 
  -4 -10   4   -0.07    0.09 
  -4 -10   4   -0.01    0.19 
   3  10  -4    2.60    0.28 
  -3 -10   4    2.81    0.29 
  -3 -10   4    2.63    0.18 
   2  10  -4    0.40    0.21 
  -2 -10   4    0.84    0.12 
  -2 -10   4    0.99    0.24 
   1  10  -4   -0.11    0.17 
  -1 -10   4    0.04    0.19 
  -1 -10   4    0.03    0.09 
   0  10  -4    5.52    0.40 
   0 -10   4    5.50    0.27 
   0 -10   4    5.24    0.40 
  -1  10  -4    0.05    0.16 
  -2  10  -4    0.48    0.19 
  -3  10  -4    2.08    0.24 
  -4  10  -4   -0.02    0.14 
  -5  10  -4    1.02    0.23 
  -6  10  -4    1.29    0.26 
  -7  10  -4    0.13    0.18 
  -8  10  -4    0.17    0.19 
  -9  10  -4    0.08    0.20 
 -10  10  -4    0.18    0.24 
 -11  10  -4    0.58    0.26 
 -11  -9   4    0.43    0.29 
 -10  -9   4    0.12    0.24 
  -9  -9   4   -0.06    0.23 
  -8  -9   4    0.37    0.24 
  -7  -9   4   -0.01    0.21 
  -6  -9   4    0.61    0.26 
  -6  -9   4    0.57    0.13 
   5   9  -4    1.15    0.24 
  -5  -9   4    0.90    0.13 
  -5  -9   4    1.08    0.26 
   4   9  -4    2.18    0.26 
  -4  -9   4    2.57    0.17 
  -4  -9   4    2.83    0.29 
   3   9  -4   -0.03    0.17 
  -3  -9   4    0.11    0.19 
  -3  -9   4    0.11    0.08 
   2   9  -4    1.72    0.25 
  -2  -9   4    1.57    0.25 
  -2  -9   4    1.29    0.13 
   1   9  -4    1.80    0.22 
  -1  -9   4    1.77    0.22 
  -1  -9   4    1.78    0.14 
   0   9  -4   -0.07    0.14 
   0  -9   4   -0.05    0.16 
   0  -9   4   -0.08    0.07 
  -1   9  -4    1.80    0.22 
   1  -9   4    1.41    0.13 
  -2   9  -4    0.97    0.20 
  -3   9  -4    0.09    0.13 
  -4   9  -4    1.69    0.21 
  -5   9  -4    0.51    0.18 
  -6   9  -4    0.37    0.18 
  -7   9  -4    0.08    0.17 
  -8   9  -4    0.08    0.19 
  -9   9  -4    0.09    0.22 
 -10   9  -4    0.15    0.22 
 -11   9  -4    0.42    0.25 
 -12  -8   4    0.60    0.27 
 -11  -8   4    0.22    0.29 
 -10  -8   4    0.08    0.25 
  -9  -8   4    2.36    0.32 
  -8  -8   4    0.79    0.27 
  -7  -8   4    1.48    0.31 
  -7  -8   4    1.42    0.15 
  -6  -8   4    8.26    0.58 
  -6  -8   4    8.47    0.37 
   5   8  -4    0.60    0.18 
  -5  -8   4    0.70    0.22 
  -5  -8   4    0.61    0.11 
   4   8  -4    0.95    0.20 
  -4  -8   4    1.12    0.23 
  -4  -8   4    0.82    0.11 
   3   8  -4    0.07    0.08 
  -3  -8   4    0.56    0.20 
  -3  -8   4    0.35    0.10 
   2   8  -4    1.68    0.22 
  -2  -8   4    1.60    0.12 
  -2  -8   4    1.56    0.20 
   1   8  -4    2.62    0.23 
  -1  -8   4    2.28    0.15 
  -1  -8   4    2.50    0.23 
   0   8  -4    0.17    0.14 
   0  -8   4    0.03    0.14 
   0  -8   4   -0.02    0.07 
  -1   8  -4    2.12    0.22 
   1  -8   4    2.29    0.15 
  -2   8  -4    1.26    0.17 
  -3   8  -4    0.29    0.14 
  -4   8  -4    0.46    0.16 
  -5   8  -4    0.37    0.16 
  -6   8  -4    6.86    0.48 
  -7   8  -4    0.93    0.24 
  -8   8  -4    0.40    0.21 
  -9   8  -4    1.70    0.32 
 -10   8  -4   -0.03    0.20 
 -11   8  -4    0.22    0.22 
 -12   8  -4    0.39    0.24 
 -12  -7   4    0.43    0.29 
 -11  -7   4    0.03    0.27 
 -10  -7   4    0.58    0.30 
  -9  -7   4    0.13    0.24 
  -8  -7   4    0.60    0.14 
  -8  -7   4    0.86    0.27 
  -7  -7   4    3.87    0.37 
  -7  -7   4    3.84    0.23 
  -6  -7   4    0.98    0.25 
  -6  -7   4    0.97    0.14 
  -5  -7   4    2.73    0.17 
  -5  -7   4    2.65    0.28 
   4   7  -4    4.01    0.28 
  -4  -7   4    3.95    0.33 
  -4  -7   4    4.06    0.21 
   3   7  -4    0.24    0.13 
  -3  -7   4    0.18    0.07 
  -3  -7   4    0.21    0.15 
   2   7  -4    0.10    0.13 
  -2  -7   4    0.17    0.08 
  -2  -7   4    0.06    0.14 
   1   7  -4    2.12    0.20 
  -1  -7   4    2.19    0.21 
  -1  -7   4    2.33    0.14 
   0   7  -4   -0.01    0.10 
   0  -7   4   -0.13    0.05 
   0  -7   4   -0.14    0.10 
  -1   7  -4    1.82    0.19 
   1  -7   4    1.94    0.13 
  -2   7  -4    0.04    0.11 
   2  -7   4    0.14    0.07 
  -3   7  -4    0.16    0.12 
  -4   7  -4    3.47    0.29 
  -5   7  -4    1.97    0.23 
  -6   7  -4    0.80    0.20 
  -7   7  -4    2.99    0.32 
  -8   7  -4    0.57    0.24 
  -9   7  -4   -0.05    0.20 
 -10   7  -4    0.41    0.24 
 -11   7  -4    0.12    0.22 
 -12  -6   4    0.35    0.31 
 -11  -6   4    0.12    0.28 
 -10  -6   4   -0.01    0.24 
  -9  -6   4    0.26    0.13 
  -9  -6   4    0.29    0.24 
  -8  -6   4    0.05    0.12 
  -8  -6   4   -0.26    0.20 
  -7  -6   4    0.64    0.14 
  -7  -6   4    0.70    0.24 
  -6  -6   4    0.09    0.18 
  -6  -6   4    0.11    0.10 
  -5  -6   4    0.02    0.18 
  -5  -6   4   -0.01    0.07 
  -4  -6   4    5.33    0.25 
  -4  -6   4    5.38    0.39 
   3   6  -4    1.72    0.18 
  -3  -6   4    1.94    0.21 
  -3  -6   4    1.82    0.13 
  -2  -6   4    6.28    0.40 
  -2  -6   4    6.38    0.27 
   1   6  -4    0.77    0.14 
  -1  -6   4    0.84    0.15 
  -1  -6   4    0.85    0.09 
   0   6  -4    0.17    0.09 
   0  -6   4    0.11    0.10 
   0  -6   4    0.06    0.06 
  -1   6  -4    0.69    0.13 
   1  -6   4    0.70    0.09 
  -2   6  -4    5.21    0.33 
   2  -6   4    5.03    0.24 
  -3   6  -4    1.43    0.20 
  -4   6  -4    4.23    0.31 
  -5   6  -4    0.02    0.12 
  -6   6  -4    0.04    0.13 
  -7   6  -4    0.37    0.19 
  -8   6  -4   -0.01    0.17 
  -9   6  -4    0.14    0.21 
 -10   6  -4    0.15    0.22 
 -11   6  -4    0.32    0.23 
 -12  -5   4    0.07    0.30 
 -11  -5   4   -0.05    0.28 
 -10  -5   4    0.19    0.13 
 -10  -5   4   -0.01    0.26 
  -9  -5   4    1.22    0.32 
  -9  -5   4    1.41    0.18 
  -8  -5   4    7.04    0.35 
  -8  -5   4    6.58    0.53 
  -7  -5   4    4.78    0.26 
  -7  -5   4    4.86    0.42 
  -6  -5   4    0.28    0.18 
  -6  -5   4    0.04    0.09 
  -5  -5   4    0.05    0.16 
  -5  -5   4    0.15    0.08 
  -4  -5   4    1.00    0.10 
  -4  -5   4    1.16    0.20 
   3   5  -4    0.32    0.10 
  -3  -5   4    0.40    0.08 
  -3  -5   4    0.30    0.15 
   2   5  -4    0.31    0.10 
  -2  -5   4    0.27    0.12 
  -2  -5   4    0.30    0.07 
   1   5  -4    2.71    0.19 
  -1  -5   4    2.67    0.20 
  -1  -5   4    2.64    0.14 
   0   5  -4   -0.05    0.06 
   0  -5   4   -0.01    0.05 
   0  -5   4   -0.04    0.05 
  -1   5  -4    2.25    0.19 
   1  -5   4    2.51    0.14 
  -2   5  -4    0.16    0.10 
   2  -5   4    0.23    0.07 
  -3   5  -4    0.26    0.12 
  -4   5  -4    0.94    0.17 
  -5   5  -4    0.02    0.11 
  -6   5  -4    0.05    0.13 
  -7   5  -4    4.00    0.35 
  -8   5  -4    6.11    0.46 
  -9   5  -4    1.06    0.27 
 -10   5  -4    0.02    0.20 
 -11   5  -4    0.15    0.20 
 -13  -4   4    0.33    0.32 
 -12  -4   4   -0.02    0.31 
 -11  -4   4   -0.05    0.27 
 -10  -4   4    0.17    0.14 
  -9  -4   4    0.05    0.13 
  -8  -4   4    1.60    0.17 
  -7  -4   4    5.85    0.30 
  -6  -4   4    0.30    0.10 
  -5  -4   4    0.69    0.10 
  -4  -4   4    3.56    0.30 
  -4  -4   4    3.90    0.19 
  -3  -4   4    3.11    0.16 
  -3  -4   4    2.90    0.25 
   2   4  -4   50.75    2.12 
  -2  -4   4   44.72    2.42 
  -2  -4   4   44.53    1.65 
  -1  -4   4    9.49    0.52 
  -1  -4   4    9.29    0.36 
   0   4  -4    5.86    0.32 
   0  -4   4    5.91    0.25 
  -1   4  -4    8.80    0.45 
   1  -4   4    8.34    0.34 
  -2   4  -4   37.32    1.68 
   2  -4   4   34.56    1.29 
  -3   4  -4    2.32    0.20 
  -4   4  -4    2.93    0.24 
  -5   4  -4    0.37    0.14 
  -6   4  -4    0.23    0.15 
  -7   4  -4    4.38    0.36 
  -8   4  -4    1.08    0.25 
  -9   4  -4    0.10    0.17 
 -10   4  -4    0.14    0.20 
 -11   4  -4   -0.06    0.19 
 -13   4  -4    0.44    0.20 
 -13  -3   4    0.55    0.34 
 -11  -3   4    0.12    0.15 
 -10  -3   4    0.08    0.15 
  -9  -3   4    2.56    0.21 
  -8  -3   4    1.64    0.19 
  -7  -3   4    0.15    0.11 
  -6  -3   4    0.87    0.12 
  -5  -3   4    0.73    0.10 
  -4  -3   4    0.08    0.07 
  -3  -3   4    0.78    0.08 
  -2  -3   4    0.29    0.06 
  -2  -3   4    0.21    0.10 
   1   3  -4   36.37    1.62 
  -1  -3   4   32.92    1.83 
  -1  -3   4   37.05    1.27 
   0   3  -4   -0.03    0.05 
   0  -3   4    0.01    0.05 
   0  -3   4   -0.03    0.06 
  -1   3  -4   32.33    1.47 
   1  -3   4   31.20    1.14 
   2  -3   4    0.09    0.06 
   2  -3   4    0.20    0.07 
   3  -3   4    0.80    0.12 
   4  -3   4    0.05    0.08 
   5  -3   4    0.52    0.13 
   6  -3   4    0.58    0.15 
  -7   3  -4    0.21    0.16 
  -8   3  -4    1.05    0.24 
  -9   3  -4    2.42    0.29 
 -10   3  -4   -0.08    0.18 
 -11   3  -4    0.14    0.18 
 -12   3  -4   -0.02    0.16 
 -13   3  -4    0.48    0.19 
 -12  -2   4   -0.05    0.15 
 -11  -2   4    0.58    0.18 
 -10  -2   4    0.15    0.15 
  -9  -2   4    0.24    0.14 
  -8  -2   4    0.49    0.14 
  -7  -2   4    1.26    0.16 
  -6  -2   4    2.67    0.18 
  -5  -2   4    1.94    0.14 
  -4  -2   4   10.85    0.44 
  -3  -2   4    0.21    0.06 
  -2  -2   4    0.01    0.04 
   1   2  -4    0.43    0.06 
  -1  -2   4    0.61    0.07 
   0  -2   4   84.43    3.08 
   0  -2   4   91.28    4.52 
   0  -2   4   88.91    3.96 
   1  -2   4    0.49    0.08 
   1  -2   4    0.40    0.06 
   2  -2   4   -0.03    0.05 
   2  -2   4    0.08    0.05 
   3  -2   4    0.18    0.08 
   4  -2   4    8.24    0.45 
   5  -2   4    1.41    0.16 
   6  -2   4    1.91    0.20 
   7  -2   4    0.95    0.21 
   8  -2   4    0.32    0.17 
  -9   2  -4   -0.26    0.14 
 -10   2  -4    0.15    0.18 
 -11   2  -4    0.31    0.21 
 -12   2  -4    0.16    0.16 
 -13  -1   4    0.09    0.18 
 -12  -1   4    0.39    0.18 
 -11  -1   4    0.18    0.16 
 -10  -1   4    1.64    0.22 
  -9  -1   4    1.65    0.20 
  -8  -1   4    0.64    0.14 
  -7  -1   4    0.09    0.09 
  -6  -1   4    0.80    0.12 
  -5  -1   4    0.45    0.09 
  -4  -1   4    0.82    0.09 
  -3  -1   4    5.10    0.23 
  -2  -1   4    5.44    0.23 
  -1  -1   4   76.78    3.56 
  -1  -1   4   81.86    2.78 
   0  -1   4   -0.02    0.04 
   1  -1   4   67.59    2.43 
   1  -1   4   71.16    3.13 
   2  -1   4    3.67    0.23 
   2  -1   4    4.12    0.18 
   3  -1   4    3.70    0.23 
   4  -1   4    0.82    0.13 
   5  -1   4    0.44    0.12 
   6  -1   4    0.53    0.15 
   7  -1   4    0.04    0.14 
   8  -1   4    0.38    0.20 
   9  -1   4    1.89    0.27 
  10  -1   4    1.36    0.27 
 -11   1  -4    0.03    0.14 
 -11   1  -4    0.17    0.17 
 -12   1  -4    0.43    0.17 
 -13   0   4    0.46    0.18 
 -12   0   4    0.56    0.18 
 -11   0   4    0.16    0.15 
 -10   0   4    0.21    0.15 
  -9   0   4    0.13    0.13 
  -8   0   4    0.35    0.12 
  -7   0   4    0.01    0.09 
  -6   0   4    0.37    0.10 
  -5   0   4    6.62    0.30 
  -4   0   4    2.04    0.14 
  -3   0   4   20.24    0.75 
  -2   0   4   30.63    1.10 
  -1   0   4   24.72    0.89 
  -1   0   4   24.67    1.13 
   0   0   4  926.42   42.82 
   0   0   4 1000.00   33.43 
   1   0   4   20.97    0.97 
   1   0   4   20.97    0.75 
   2   0   4   24.00    0.85 
   2   0   4   23.30    1.10 
   3   0   4   14.54    0.71 
   4   0   4    1.50    0.15 
   5   0   4    4.96    0.32 
   6   0   4    0.43    0.14 
   7   0   4   -0.07    0.13 
   8   0   4    0.00    0.17 
   9   0   4    0.12    0.16 
  10   0   4    0.12    0.20 
 -11   0  -4    0.14    0.14 
 -12   0  -4    0.52    0.32 
 -13   1   4    0.27    0.17 
 -12   1   4    0.22    0.17 
 -11   1   4    0.09    0.15 
 -10   1   4    2.10    0.25 
  -9   1   4    1.72    0.21 
  -8   1   4    0.47    0.14 
  -7   1   4    0.01    0.10 
  -6   1   4    0.81    0.12 
  -5   1   4    0.50    0.10 
  -4   1   4    0.95    0.11 
  -3   1   4    5.27    0.24 
  -2   1   4    5.28    0.23 
  -2   1   4    5.11    0.26 
  -1   1   4   83.65    2.90 
  -1   1   4   81.86    3.71 
   0   1   4    0.12    0.04 
   0   1   4    0.05    0.06 
   1   1   4   73.20    3.30 
  -2  -1  -4    3.97    0.24 
   2   1   4    4.38    0.24 
   2   1   4    3.91    0.17 
  -3  -1  -4    3.80    0.24 
   3   1   4    3.88    0.24 
  -4  -1  -4    0.95    0.14 
   4   1   4    0.83    0.13 
  -5  -1  -4    0.39    0.14 
   5   1   4    0.43    0.12 
   6   1   4    0.57    0.15 
   7   1   4   -0.08    0.13 
   8   1   4    0.28    0.19 
  -9  -1  -4    1.29    0.31 
   9   1   4    1.76    0.26 
 -10  -1  -4    1.31    0.32 
 -10  -1  -4    1.17    0.19 
  10   1   4    1.56    0.27 
 -11  -1  -4    0.01    0.27 
 -12  -1  -4    0.01    0.30 
 -13  -1  -4    0.23    0.31 
 -13   2   4    0.76    0.20 
 -12   2   4    0.00    0.15 
 -11   2   4    0.95    0.20 
 -10   2   4    0.13    0.16 
  -9   2   4    0.17    0.14 
  -8   2   4    0.33    0.13 
  -7   2   4    0.87    0.15 
  -7   2   4    1.07    0.16 
  -6   2   4    2.90    0.20 
  -6   2   4    2.88    0.20 
  -5   2   4    2.04    0.15 
  -5   2   4    1.93    0.15 
  -4   2   4   11.41    0.48 
  -4   2   4   12.32    0.58 
  -3   2   4    0.23    0.06 
  -3   2   4    0.21    0.07 
  -2   2   4    0.00    0.04 
  -2   2   4    0.03    0.05 
  -1   2   4    0.54    0.09 
  -1   2   4    0.58    0.06 
   0   2   4   81.63    3.67 
  -1  -2  -4    0.51    0.09 
   1   2   4    0.45    0.05 
   1   2   4    0.56    0.10 
  -2  -2  -4    0.04    0.06 
   2   2   4    0.02    0.03 
   2   2   4    0.01    0.06 
  -3  -2  -4    0.17    0.08 
   3   2   4    0.14    0.08 
  -4  -2  -4    9.09    0.52 
   4   2   4    8.79    0.48 
  -5  -2  -4    1.48    0.18 
   5   2   4    1.43    0.16 
  -6  -2  -4    2.04    0.23 
   6   2   4    2.28    0.21 
  -7  -2  -4    1.09    0.24 
   7   2   4    0.75    0.20 
  -8  -2  -4    0.29    0.23 
   8   2   4    0.04    0.18 
  -9  -2  -4   -0.30    0.22 
  -9  -2  -4    0.06    0.11 
   9   2   4   -0.14    0.15 
 -10  -2  -4   -0.02    0.25 
  10   2   4    0.26    0.18 
 -11  -2  -4    0.18    0.28 
 -12  -2  -4   -0.08    0.28 
 -13  -2  -4    0.56    0.32 
 -13   3   4    0.47    0.17 
 -12   3   4    0.30    0.17 
 -11   3   4    0.08    0.16 
 -10   3   4    0.17    0.17 
  -9   3   4    3.40    0.26 
  -8   3   4    1.71    0.21 
  -8   3   4    1.70    0.20 
  -7   3   4    0.25    0.14 
  -7   3   4    0.08    0.12 
  -6   3   4    0.81    0.14 
  -6   3   4    0.88    0.14 
  -5   3   4    1.00    0.13 
  -5   3   4    0.90    0.14 
  -4   3   4    0.13    0.08 
  -4   3   4    0.08    0.07 
  -3   3   4    0.98    0.12 
  -3   3   4    0.99    0.11 
  -2   3   4    0.28    0.08 
  -2   3   4    0.22    0.06 
  -1   3   4   40.96    1.41 
  -1   3   4   38.32    1.81 
   0   3   4    0.02    0.07 
   0   3   4    0.01    0.03 
  -1  -3  -4   32.30    1.67 
   1   3   4   32.21    1.49 
  -2  -3  -4    0.29    0.09 
   2   3   4    0.19    0.08 
  -3  -3  -4    0.79    0.12 
   3   3   4    0.76    0.12 
  -4  -3  -4    0.04    0.11 
   4   3   4    0.07    0.09 
  -5  -3  -4    0.86    0.17 
   5   3   4    0.64    0.14 
  -6  -3  -4    0.79    0.20 
   6   3   4    0.54    0.15 
  -7  -3  -4    0.22    0.20 
  -7  -3  -4    0.05    0.09 
   7   3   4    0.40    0.16 
  -8  -3  -4    1.44    0.16 
  -8  -3  -4    1.78    0.31 
   8   3   4    1.58    0.27 
  -9  -3  -4    2.70    0.32 
   9   3   4    2.82    0.28 
 -10  -3  -4    0.19    0.26 
  10   3   4    0.28    0.18 
 -11  -3  -4    0.04    0.27 
 -12  -3  -4    0.09    0.28 
 -13  -3  -4    0.36    0.30 
 -13   4   4    0.34    0.18 
 -12   4   4   -0.01    0.16 
 -11   4   4    0.15    0.18 
 -10   4   4   -0.05    0.15 
  -9   4   4    0.18    0.16 
  -8   4   4    1.66    0.23 
  -8   4   4    1.69    0.21 
  -7   4   4    6.58    0.35 
  -7   4   4    6.41    0.40 
  -6   4   4    0.43    0.11 
  -6   4   4    0.40    0.14 
  -5   4   4    0.64    0.14 
  -5   4   4    0.53    0.11 
  -4   4   4    4.31    0.28 
  -4   4   4    4.01    0.22 
  -3   4   4    3.49    0.24 
  -3   4   4    3.08    0.18 
  -2   4   4   47.50    2.19 
  -2   4   4   48.27    1.71 
  -1   4   4   10.53    0.51 
  -1   4   4    9.28    0.38 
   0   4   4    5.26    0.22 
   0   4   4    5.77    0.32 
  -1  -4  -4    8.29    0.48 
   1   4   4    8.75    0.46 
  -2  -4  -4   35.80    1.89 
   2   4   4   36.77    1.69 
  -3  -4  -4    2.69    0.21 
   3   4   4    2.30    0.20 
  -4  -4  -4    3.30    0.25 
   4   4   4    3.07    0.23 
  -5  -4  -4    0.54    0.16 
   5   4   4    0.48    0.14 
  -6  -4  -4    0.21    0.07 
  -6  -4  -4    0.41    0.18 
   6   4   4    0.37    0.14 
  -7  -4  -4    5.12    0.41 
  -7  -4  -4    4.92    0.25 
   7   4   4    5.08    0.36 
  -8  -4  -4    1.55    0.25 
   8   4   4    1.68    0.26 
  -9  -4  -4   -0.09    0.25 
   9   4   4    0.04    0.16 
 -10  -4  -4    0.13    0.26 
  10   4   4    0.33    0.19 
 -11  -4  -4    0.15    0.27 
 -12  -4  -4    0.48    0.28 
 -13  -4  -4    0.22    0.29 
 -12   5   4    0.01    0.19 
 -11   5   4   -0.21    0.16 
 -10   5   4   -0.05    0.16 
  -9   5   4    1.78    0.24 
  -8   5   4    8.07    0.43 
  -8   5   4    8.15    0.51 
  -7   5   4    5.03    0.31 
  -7   5   4    5.35    0.37 
  -6   5   4    0.06    0.09 
  -6   5   4    0.14    0.14 
  -5   5   4    0.13    0.12 
  -5   5   4    0.12    0.09 
  -4   5   4    1.43    0.19 
  -4   5   4    1.36    0.14 
  -3   5   4    0.25    0.08 
  -3   5   4    0.56    0.13 
  -2   5   4    0.34    0.07 
  -2   5   4    0.33    0.12 
  -1   5   4    2.42    0.14 
  -1   5   4    2.77    0.21 
   0   5   4    0.04    0.09 
   0   5   4    0.00    0.03 
  -1  -5  -4    2.50    0.20 
   1   5   4    2.47    0.20 
  -2  -5  -4    0.35    0.12 
   2   5   4    0.25    0.11 
  -3  -5  -4    0.35    0.13 
   3   5   4    0.34    0.12 
  -4  -5  -4    1.02    0.16 
   4   5   4    1.03    0.16 
  -5  -5  -4    0.08    0.14 
   5   5   4    0.10    0.11 
  -6  -5  -4    0.05    0.17 
   6   5   4    0.13    0.13 
  -7  -5  -4    4.46    0.37 
   7   5   4    3.78    0.33 
  -8  -5  -4    6.83    0.49 
   8   5   4    5.74    0.42 
  -9  -5  -4    1.61    0.34 
   9   5   4    1.77    0.23 
 -10  -5  -4   -0.10    0.24 
 -11  -5  -4   -0.07    0.26 
 -12  -5  -4    0.26    0.28 
 -12   6   4    0.36    0.19 
 -11   6   4    0.41    0.19 
 -10   6   4    0.16    0.18 
  -9   6   4    0.03    0.16 
  -8   6   4   -0.20    0.13 
  -8   6   4   -0.06    0.19 
  -7   6   4    0.41    0.15 
  -7   6   4    0.53    0.21 
  -6   6   4    0.20    0.16 
  -6   6   4    0.21    0.10 
  -5   6   4   -0.02    0.13 
  -5   6   4    0.04    0.09 
  -4   6   4    5.72    0.29 
  -4   6   4    6.10    0.38 
  -3   6   4    2.20    0.21 
  -3   6   4    1.77    0.14 
  -2   6   4    6.57    0.39 
  -2   6   4    6.21    0.28 
  -1   6   4    0.68    0.15 
  -1   6   4    0.67    0.08 
   0   6   4    0.12    0.11 
   0   6   4    0.04    0.05 
  -1  -6  -4    0.76    0.16 
   1   6   4    0.85    0.15 
  -2  -6  -4    5.57    0.36 
   2   6   4    5.41    0.35 
  -3  -6  -4    2.15    0.20 
   3   6   4    1.42    0.18 
  -4  -6  -4    4.82    0.34 
   4   6   4    4.23    0.31 
  -5  -6  -4   -0.03    0.16 
   5   6   4    0.01    0.12 
  -6  -6  -4   -0.03    0.19 
   6   6   4    0.11    0.15 
  -7  -6  -4    0.35    0.24 
   7   6   4    0.37    0.19 
  -8  -6  -4    0.03    0.24 
   8   6   4    0.12    0.15 
  -9  -6  -4    0.34    0.27 
   9   6   4    0.42    0.19 
 -10  -6  -4   -0.06    0.26 
 -11  -6  -4    0.28    0.28 
 -12  -6  -4    0.31    0.30 
 -12   7   4    0.45    0.20 
 -11   7   4    0.11    0.18 
 -10   7   4    1.04    0.23 
  -9   7   4   -0.12    0.15 
  -8   7   4    0.73    0.18 
  -8   7   4    1.12    0.23 
  -7   7   4    4.32    0.37 
  -7   7   4    4.38    0.30 
  -6   7   4    1.18    0.16 
  -6   7   4    1.21    0.25 
  -5   7   4    2.89    0.21 
  -5   7   4    2.97    0.28 
  -4   7   4    4.68    0.35 
  -3   7   4    0.15    0.14 
  -2   7   4    0.05    0.13 
  -1   7   4    2.10    0.21 
   0   7   4   -0.02    0.04 
   0   7   4   -0.09    0.12 
  -1  -7  -4    2.01    0.22 
   1   7   4    1.81    0.21 
  -2  -7  -4    0.16    0.14 
   2   7   4   -0.07    0.13 
  -3  -7  -4    0.28    0.15 
   3   7   4    0.26    0.15 
  -4  -7  -4    4.09    0.32 
   4   7   4    3.68    0.31 
  -5  -7  -4    2.53    0.27 
   5   7   4    2.36    0.25 
  -6  -7  -4    1.20    0.29 
   6   7   4    1.45    0.24 
  -7  -7  -4    4.05    0.40 
   7   7   4    3.74    0.34 
  -8  -7  -4    0.87    0.31 
   8   7   4    1.17    0.21 
  -9  -7  -4    0.14    0.27 
   9   7   4    0.31    0.17 
 -10  -7  -4    0.56    0.29 
 -11  -7  -4    0.13    0.27 
 -12  -7  -4    0.35    0.30 
 -12   8   4    1.00    0.24 
 -11   8   4    0.11    0.19 
 -10   8   4    0.16    0.18 
  -9   8   4    3.04    0.32 
  -9   8   4    3.19    0.27 
  -8   8   4    0.67    0.17 
  -8   8   4    0.80    0.24 
  -7   8   4    1.69    0.21 
  -7   8   4    1.80    0.29 
  -6   8   4    9.27    0.61 
  -6   8   4   10.46    0.48 
  -5   8   4    0.76    0.23 
  -4   8   4    0.89    0.23 
  -3   8   4    0.31    0.17 
  -2   8   4    1.72    0.25 
  -1   8   4    2.04    0.22 
   0   8   4    0.12    0.15 
  -1  -8  -4    2.17    0.24 
   1   8   4    2.03    0.23 
  -2  -8  -4    1.40    0.19 
   2   8   4    1.88    0.26 
  -3  -8  -4    0.54    0.19 
   3   8   4    0.26    0.17 
  -4  -8  -4    0.87    0.22 
   4   8   4    0.76    0.20 
  -5  -8  -4    0.42    0.22 
   5   8   4    0.44    0.19 
  -6  -8  -4    7.97    0.57 
   6   8   4    7.63    0.50 
  -7  -8  -4    1.73    0.35 
   7   8   4    1.87    0.27 
  -8  -8  -4    0.60    0.32 
   8   8   4    1.30    0.23 
  -9  -8  -4    2.41    0.36 
   9   8   4    3.46    0.30 
 -10  -8  -4    0.18    0.29 
 -11  -8  -4    0.11    0.31 
 -12  -8  -4    0.62    0.32 
 -11   9   4   -0.16    0.19 
 -10   9   4    0.17    0.17 
  -9   9   4    0.06    0.23 
  -9   9   4    0.00    0.15 
  -8   9   4    0.40    0.24 
  -8   9   4    0.33    0.16 
  -7   9   4    0.20    0.20 
  -7   9   4   -0.07    0.12 
  -6   9   4    0.73    0.25 
  -6   9   4    0.91    0.16 
  -5   9   4    0.68    0.24 
  -4   9   4    2.20    0.27 
  -3   9   4   -0.04    0.16 
  -2   9   4    1.61    0.26 
  -1   9   4    1.66    0.22 
   0   9   4   -0.11    0.15 
  -1  -9  -4    1.61    0.22 
   1   9   4    1.79    0.25 
  -2  -9  -4    1.26    0.20 
   2   9   4    1.37    0.25 
  -3  -9  -4   -0.01    0.17 
   3   9   4   -0.02    0.17 
  -4  -9  -4    2.78    0.29 
   4   9   4    1.96    0.27 
  -5  -9  -4    0.72    0.28 
   5   9   4    1.27    0.25 
  -6  -9  -4    1.62    0.34 
  -7  -9  -4    0.19    0.27 
   7   9   4    0.45    0.19 
  -8  -9  -4    0.34    0.31 
   8   9   4    0.80    0.21 
  -9  -9  -4   -0.05    0.28 
   9   9   4    0.04    0.18 
 -10  -9  -4    0.26    0.32 
 -11  -9  -4   -0.06    0.30 
 -11  10   4    1.03    0.24 
 -10  10   4    0.12    0.17 
  -9  10   4    0.15    0.22 
  -9  10   4   -0.04    0.16 
  -8  10   4    0.23    0.15 
  -8  10   4    0.38    0.24 
  -7  10   4    0.39    0.24 
  -7  10   4    0.26    0.15 
  -6  10   4    2.82    0.35 
  -5  10   4    1.93    0.32 
  -4  10   4   -0.24    0.16 
  -3  10   4    2.58    0.28 
  -2  10   4    0.55    0.20 
  -1  10   4   -0.06    0.16 
   0  10   4    4.87    0.37 
   1  10   4    0.03    0.16 
  -2 -10  -4    0.63    0.21 
   2  10   4    0.61    0.23 
  -3 -10  -4    2.17    0.27 
   3  10   4    2.78    0.29 
  -4 -10  -4   -0.37    0.20 
   4  10   4    0.03    0.17 
  -5 -10  -4    1.88    0.30 
   5  10   4    2.11    0.28 
  -6 -10  -4    2.49    0.34 
   6  10   4    2.71    0.31 
  -7 -10  -4    0.07    0.28 
   7  10   4    0.63    0.22 
  -8 -10  -4   -0.11    0.27 
   8  10   4    0.56    0.20 
  -9 -10  -4   -0.30    0.28 
 -10 -10  -4    0.01    0.32 
 -11 -10  -4    0.34    0.34 
 -10  11   4    0.23    0.18 
  -9  11   4    0.01    0.15 
  -9  11   4    0.17    0.23 
  -8  11   4    0.14    0.25 
  -8  11   4    0.17    0.15 
  -7  11   4    0.03    0.24 
  -7  11   4   -0.02    0.13 
  -6  11   4    0.34    0.24 
  -5  11   4   -0.15    0.22 
  -4  11   4    0.02    0.19 
  -3  11   4    0.51    0.23 
  -2  11   4    0.71    0.22 
  -1  11   4    0.46    0.21 
   0  11   4   -0.27    0.17 
   1  11   4    0.83    0.23 
  -2 -11  -4    0.76    0.23 
   2  11   4    0.55    0.24 
  -3 -11  -4    0.59    0.24 
   3  11   4    0.50    0.23 
  -4 -11  -4    0.11    0.24 
   4  11   4   -0.01    0.23 
  -5 -11  -4    0.13    0.26 
   5  11   4    0.39    0.24 
  -6 -11  -4    0.77    0.32 
   6  11   4    1.04    0.29 
  -7 -11  -4   -0.08    0.28 
   7  11   4    0.27    0.23 
  -8 -11  -4   -0.05    0.29 
   8  11   4    0.62    0.22 
  -9 -11  -4   -0.02    0.31 
 -10 -11  -4   -0.16    0.33 
 -10  12   4    0.98    0.21 
  -9  12   4   -0.08    0.25 
  -9  12   4    0.22    0.18 
  -8  12   4    0.50    0.19 
  -8  12   4    0.64    0.28 
  -7  12   4    0.35    0.25 
  -7  12   4    0.20    0.16 
  -6  12   4    0.64    0.28 
  -5  12   4    0.01    0.22 
  -4  12   4    0.82    0.25 
  -3  12   4    0.13    0.22 
  -2  12   4    0.28    0.22 
  -1  12   4    0.96    0.26 
   0  12   4    0.96    0.26 
   1  12   4    1.86    0.31 
  -2 -12  -4    0.00    0.22 
   2  12   4    0.03    0.23 
  -3 -12  -4    0.20    0.23 
   3  12   4    0.12    0.25 
  -4 -12  -4    0.77    0.28 
   4  12   4    0.99    0.32 
  -5 -12  -4   -0.06    0.26 
   5  12   4    0.11    0.24 
  -6 -12  -4    0.90    0.33 
   6  12   4    1.12    0.29 
  -7 -12  -4   -0.20    0.29 
   7  12   4    0.36    0.24 
   8  12   4    1.23    0.27 
  -9 -12  -4   -0.05    0.32 
 -10 -12  -4    0.07    0.36 
  -9  13   4   -0.04    0.27 
  -9  13   4    0.17    0.17 
  -8  13   4    0.61    0.19 
  -8  13   4    0.55    0.28 
  -7  13   4    0.16    0.15 
  -7  13   4    0.20    0.24 
  -6  13   4    0.18    0.24 
  -5  13   4    0.31    0.25 
  -4  13   4    0.46    0.26 
  -3  13   4   -0.26    0.21 
  -2  13   4    4.31    0.40 
  -1  13   4   -0.11    0.23 
   0  13   4   -0.21    0.21 
   1  13   4    0.34    0.23 
  -2 -13  -4    4.40    0.40 
   2  13   4    5.13    0.43 
  -3 -13  -4   -0.11    0.23 
   3  13   4   -0.12    0.25 
  -4 -13  -4    0.41    0.26 
   4  13   4    0.10    0.27 
  -5 -13  -4    0.30    0.29 
   5  13   4    0.30    0.28 
  -6 -13  -4    0.12    0.30 
   6  13   4    0.45    0.26 
  -7 -13  -4   -0.25    0.30 
   7  13   4    0.49    0.25 
  -8 -13  -4    0.22    0.35 
  -9 -13  -4   -0.70    0.32 
  -9  14   4    0.33    0.18 
  -8  14   4    0.51    0.18 
  -8  14   4    0.19    0.26 
  -7  14   4    0.03    0.24 
  -7  14   4    0.23    0.15 
  -6  14   4    0.03    0.25 
  -5  14   4    0.60    0.26 
  -4  14   4    0.27    0.26 
  -3  14   4    1.90    0.35 
  -2  14   4    0.17    0.25 
  -1  14   4   -0.33    0.20 
   0  14   4    0.21    0.24 
   1  14   4    0.04    0.23 
   2  14   4    0.53    0.27 
  -3 -14  -4    2.40    0.40 
   3  14   4    2.94    0.43 
  -4 -14  -4    0.56    0.30 
   4  14   4    0.22    0.32 
  -5 -14  -4    0.72    0.32 
   5  14   4    0.87    0.32 
  -6 -14  -4    0.37    0.33 
   6  14   4    0.44    0.27 
  -7 -14  -4   -0.29    0.32 
   7  14   4    0.56    0.27 
  -8 -14  -4   -0.23    0.34 
  -9 -14  -4   -0.30    0.33 
  -8  15   4    0.60    0.27 
  -8  15   4    0.20    0.17 
  -7  15   4    0.21    0.22 
  -7  15   4    0.23    0.17 
  -6  15   4    0.24    0.23 
  -6  15   4    0.33    0.16 
  -5  15   4    0.05    0.21 
  -4  15   4    0.43    0.25 
  -3  15   4    0.17    0.24 
  -2  15   4    0.79    0.31 
  -1  15   4   -0.32    0.22 
   0  15   4   -0.35    0.23 
   1  15   4    0.01    0.24 
   2  15   4    1.36    0.34 
  -3 -15  -4    0.09    0.28 
   3  15   4    0.32    0.29 
  -4 -15  -4    1.12    0.35 
   4  15   4    0.48    0.34 
  -5 -15  -4    0.30    0.31 
   5  15   4    0.35    0.28 
  -6 -15  -4   -0.46    0.29 
   6  15   4    0.49    0.30 
  -7 -15  -4   -0.40    0.30 
   7  15   4    0.86    0.30 
  -8 -15  -4   -0.38    0.33 
  -7  16   4    0.67    0.26 
  -7  16   4    0.32    0.18 
  -6  16   4    0.48    0.26 
  -6  16   4    0.81    0.18 
  -5  16   4    0.29    0.23 
  -4  16   4   -0.04    0.23 
  -3  16   4    0.15    0.24 
  -2  16   4   -0.07    0.23 
  -1  16   4    0.02    0.22 
   0  16   4    0.20    0.25 
   1  16   4    0.07    0.25 
   2  16   4    0.63    0.27 
   3  16   4    0.69    0.31 
  -4 -16  -4   -0.18    0.31 
   4  16   4    0.70    0.30 
  -5 -16  -4    0.03    0.33 
   5  16   4    0.50    0.27 
  -6 -16  -4   -0.01    0.34 
   6  16   4    1.20    0.33 
  -7 -16  -4   -0.44    0.32 
  -5  17   4    0.21    0.21 
  -4  17   4    0.13    0.21 
  -3  17   4    0.24    0.23 
  -2  17   4    0.02    0.23 
  -1  17   4    0.38    0.23 
   0  17   4    0.36    0.24 
   1  17   4    0.47    0.28 
   2  17   4    0.53    0.28 
   3  17   4    0.55    0.29 
  -4 -17  -4   -0.01    0.30 
   4  17   4    0.83    0.31 
  -5 -17  -4   -0.46    0.33 
   5  17   4    0.82    0.28 
  -6 -17  -4   -0.18    0.30 
   6  17   4    1.47    0.34 
  -4  18   4    0.45    0.25 
  -3  18   4    0.22    0.19 
  -2  18   4    0.32    0.24 
  -1  18   4    0.51    0.25 
   0  18   4    0.35    0.25 
   1  18   4    0.46    0.26 
   2  18   4    0.71    0.28 
   3  18   4    1.28    0.32 
   4  18   4    1.28    0.33 
  -4 -18   5   -0.07    0.33 
  -3 -18   5   -0.28    0.32 
   2  18  -5    0.50    0.25 
   1  18  -5    0.57    0.26 
   0  18  -5    0.47    0.27 
  -1  18  -5    0.50    0.26 
  -2  18  -5    0.32    0.25 
  -3  18  -5    0.63    0.27 
  -5 -17   5   -0.08    0.31 
  -4 -17   5   -0.03    0.31 
  -3 -17   5   -0.19    0.30 
   2  17  -5    0.55    0.26 
  -2 -17   5    0.00    0.32 
   1  17  -5    0.27    0.24 
   0  17  -5    0.29    0.26 
  -1  17  -5    0.57    0.28 
  -2  17  -5    0.52    0.28 
  -3  17  -5    0.48    0.24 
  -4  17  -5    0.44    0.25 
  -5  17  -5    0.70    0.25 
  -7 -16   5   -0.37    0.31 
  -6 -16   5   -0.33    0.31 
  -5 -16   5   -0.16    0.30 
  -4 -16   5    0.37    0.31 
   3  16  -5    0.46    0.24 
  -3 -16   5   -0.22    0.27 
   2  16  -5    0.29    0.24 
  -2 -16   5   -0.31    0.30 
   1  16  -5    0.30    0.23 
   0  16  -5    0.66    0.27 
  -1  16  -5    0.00    0.27 
  -2  16  -5   -0.02    0.23 
  -3  16  -5    0.14    0.23 
  -4  16  -5    0.36    0.24 
  -5  16  -5    0.34    0.21 
  -6  16  -5    0.12    0.21 
  -8 -15   5   -0.04    0.31 
  -7 -15   5   -0.12    0.31 
  -6 -15   5   -0.15    0.30 
  -5 -15   5    1.06    0.36 
  -4 -15   5    0.52    0.31 
   3  15  -5    0.47    0.24 
  -3 -15   5    0.29    0.29 
   2  15  -5    0.38    0.24 
  -2 -15   5    0.03    0.29 
   1  15  -5    0.08    0.23 
  -1 -15   5    0.08    0.28 
   0  15  -5   -0.05    0.23 
  -1  15  -5    0.26    0.23 
  -2  15  -5    0.46    0.25 
  -3  15  -5    0.10    0.23 
  -4  15  -5    0.35    0.22 
  -5  15  -5    0.67    0.24 
  -6  15  -5   -0.08    0.22 
  -7  15  -5    0.16    0.23 
  -8 -14   5   -0.44    0.28 
  -7 -14   5   -0.25    0.27 
  -6 -14   5    0.21    0.31 
  -5 -14   5   -0.01    0.29 
  -4 -14   5    0.26    0.28 
   3  14  -5    0.57    0.22 
  -3 -14   5   -0.08    0.25 
   2  14  -5    0.63    0.25 
  -2 -14   5    0.65    0.27 
   1  14  -5    0.21    0.21 
  -1 -14   5    0.01    0.25 
   0  14  -5    1.20    0.29 
  -1  14  -5    0.19    0.22 
  -2  14  -5    0.47    0.24 
  -3  14  -5    0.19    0.21 
  -4  14  -5    0.21    0.21 
  -5  14  -5    0.26    0.20 
  -7  14  -5    0.18    0.23 
  -8  14  -5   -0.06    0.23 
  -9 -13   5   -0.02    0.28 
  -8 -13   5    0.14    0.29 
  -7 -13   5   -0.08    0.27 
  -6 -13   5   -0.08    0.26 
  -5 -13   5    0.28    0.28 
   4  13  -5    0.20    0.22 
  -4 -13   5   -0.08    0.26 
   3  13  -5    0.75    0.23 
  -3 -13   5    0.50    0.27 
   2  13  -5    0.36    0.22 
  -2 -13   5    0.18    0.13 
  -2 -13   5    0.32    0.24 
   1  13  -5    0.73    0.25 
  -1 -13   5    0.57    0.26 
  -1 -13   5    0.80    0.15 
   0  13  -5   -0.05    0.19 
  -1  13  -5    0.64    0.24 
  -2  13  -5    0.21    0.19 
  -3  13  -5    0.31    0.20 
  -4  13  -5    0.13    0.20 
  -5  13  -5   -0.01    0.19 
  -6  13  -5   -0.01    0.19 
  -7  13  -5    0.01    0.21 
  -8  13  -5    0.12    0.22 
  -9  13  -5    0.10    0.23 
 -10 -12   5    0.26    0.28 
  -9 -12   5    0.38    0.31 
  -8 -12   5   -0.28    0.25 
  -7 -12   5    0.49    0.28 
  -6 -12   5    0.86    0.30 
  -5 -12   5    0.00    0.24 
   4  12  -5    0.38    0.25 
  -4 -12   5    0.54    0.27 
   3  12  -5    0.84    0.25 
  -3 -12   5    0.91    0.27 
  -3 -12   5    1.23    0.16 
   2  12  -5   -0.06    0.19 
  -2 -12   5    0.21    0.23 
  -2 -12   5    0.15    0.12 
   1  12  -5    1.58    0.31 
  -1 -12   5    1.52    0.17 
  -1 -12   5    1.57    0.29 
   0  12  -5    0.05    0.19 
   0 -12   5    0.31    0.24 
   0 -12   5    0.36    0.13 
  -1  12  -5    0.85    0.24 
  -2  12  -5    0.20    0.19 
  -3  12  -5    0.79    0.23 
  -4  12  -5    0.28    0.19 
  -5  12  -5   -0.01    0.19 
  -6  12  -5    0.21    0.19 
  -7  12  -5    0.25    0.20 
  -8  12  -5   -0.12    0.20 
  -9  12  -5    0.19    0.23 
 -10  12  -5    0.16    0.24 
 -10 -11   5    0.24    0.28 
  -9 -11   5    0.02    0.25 
  -8 -11   5   -0.17    0.24 
  -7 -11   5   -0.03    0.23 
  -6 -11   5    0.40    0.26 
  -5 -11   5    3.84    0.38 
   4  11  -5    0.20    0.14 
  -4 -11   5   -0.07    0.10 
  -4 -11   5   -0.17    0.21 
   3  11  -5   -0.02    0.19 
  -3 -11   5    0.03    0.10 
  -3 -11   5   -0.10    0.20 
   2  11  -5    1.07    0.28 
  -2 -11   5    1.43    0.16 
  -2 -11   5    1.55    0.27 
   1  11  -5    2.05    0.29 
  -1 -11   5    2.06    0.27 
   0  11  -5    0.02    0.17 
   0 -11   5   -0.20    0.10 
   0 -11   5   -0.13    0.23 
  -1  11  -5    2.09    0.26 
   1 -11   5    1.53    0.16 
  -2  11  -5    1.06    0.23 
  -3  11  -5    0.03    0.16 
  -4  11  -5   -0.04    0.15 
  -6  11  -5    0.13    0.18 
  -7  11  -5    0.07    0.16 
  -8  11  -5   -0.03    0.18 
  -9  11  -5   -0.04    0.20 
 -10  11  -5    0.25    0.23 
 -11 -10   5    0.33    0.29 
 -10 -10   5    0.15    0.25 
  -9 -10   5   -0.04    0.24 
  -8 -10   5    0.35    0.25 
  -7 -10   5   -0.02    0.22 
  -6 -10   5    1.66    0.32 
  -5 -10   5    0.19    0.11 
  -5 -10   5    0.15    0.22 
   4  10  -5   -0.03    0.18 
  -4 -10   5   -0.10    0.10 
  -4 -10   5   -0.13    0.19 
   3  10  -5    0.28    0.20 
  -3 -10   5    0.61    0.22 
  -3 -10   5    0.35    0.11 
   2  10  -5    4.90    0.40 
  -2 -10   5    5.62    0.27 
  -2 -10   5    5.44    0.41 
   1  10  -5   -0.18    0.18 
  -1 -10   5    0.04    0.10 
  -1 -10   5   -0.07    0.19 
   0  10  -5    4.99    0.37 
   0 -10   5    4.63    0.37 
   0 -10   5    4.65    0.25 
  -1  10  -5    0.07    0.17 
   1 -10   5   -0.08    0.10 
  -2  10  -5    4.22    0.34 
  -3  10  -5    0.16    0.14 
  -4  10  -5   -0.02    0.12 
  -5  10  -5    0.21    0.17 
  -6  10  -5    0.70    0.21 
  -7  10  -5   -0.11    0.15 
  -8  10  -5    0.03    0.18 
  -9  10  -5   -0.18    0.18 
 -10  10  -5    0.10    0.23 
 -11  10  -5    0.47    0.24 
 -11  -9   5    0.64    0.28 
 -10  -9   5    0.45    0.28 
  -9  -9   5   -0.01    0.24 
  -8  -9   5   -0.03    0.20 
  -7  -9   5    0.12    0.21 
  -6  -9   5    0.06    0.22 
  -6  -9   5   -0.21    0.10 
  -5  -9   5    1.03    0.24 
  -5  -9   5    0.74    0.13 
   4   9  -5    0.07    0.17 
  -4  -9   5    0.01    0.09 
  -4  -9   5   -0.08    0.19 
  -3  -9   5    0.76    0.12 
  -3  -9   5    0.90    0.24 
   2   9  -5    0.96    0.23 
  -2  -9   5    1.07    0.13 
  -2  -9   5    1.13    0.23 
   1   9  -5    3.60    0.29 
  -1  -9   5    3.73    0.31 
  -1  -9   5    3.75    0.21 
   0   9  -5    0.09    0.15 
   0  -9   5   -0.11    0.08 
   0  -9   5   -0.02    0.16 
  -1   9  -5    3.43    0.30 
   1  -9   5    3.46    0.21 
  -2   9  -5    0.73    0.19 
  -3   9  -5    0.37    0.14 
  -4   9  -5   -0.01    0.12 
  -5   9  -5    0.51    0.18 
  -6   9  -5    0.04    0.16 
  -7   9  -5    0.19    0.19 
  -8   9  -5   -0.20    0.17 
  -9   9  -5   -0.12    0.18 
 -10   9  -5    0.18    0.21 
 -11   9  -5    0.46    0.23 
 -12  -8   5    0.32    0.27 
 -11  -8   5    0.30    0.26 
 -10  -8   5    1.09    0.31 
  -9  -8   5    0.24    0.25 
  -8  -8   5    0.09    0.22 
  -7  -8   5   -0.09    0.21 
  -7  -8   5   -0.11    0.11 
  -6  -8   5    0.46    0.23 
  -6  -8   5    0.37    0.12 
  -5  -8   5    2.17    0.25 
  -5  -8   5    2.03    0.16 
   4   8  -5    0.38    0.17 
  -4  -8   5    0.47    0.20 
  -4  -8   5    0.38    0.10 
   3   8  -5    3.63    0.29 
  -3  -8   5    3.77    0.32 
  -3  -8   5    3.82    0.21 
   2   8  -5   -0.08    0.14 
  -2  -8   5    0.00    0.08 
  -2  -8   5   -0.01    0.15 
   1   8  -5    1.51    0.21 
  -1  -8   5    1.30    0.12 
  -1  -8   5    1.23    0.19 
   0   8  -5    7.23    0.43 
   0  -8   5    6.89    0.44 
   0  -8   5    6.92    0.31 
  -1   8  -5    0.88    0.18 
   1  -8   5    1.05    0.11 
  -2   8  -5    0.03    0.11 
   2  -8   5    0.00    0.08 
  -3   8  -5    3.08    0.27 
  -4   8  -5    0.25    0.14 
  -5   8  -5    1.23    0.23 
  -6   8  -5    0.30    0.19 
  -7   8  -5   -0.20    0.16 
  -8   8  -5    0.02    0.19 
  -9   8  -5   -0.01    0.21 
 -10   8  -5    1.13    0.29 
 -11   8  -5   -0.07    0.22 
 -12  -7   5    0.33    0.27 
 -11  -7   5    0.18    0.28 
 -10  -7   5    0.50    0.28 
  -9  -7   5    0.54    0.27 
  -8  -7   5    2.56    0.20 
  -8  -7   5    2.71    0.33 
  -7  -7   5    5.07    0.28 
  -7  -7   5    4.82    0.43 
  -6  -7   5   -0.06    0.19 
  -6  -7   5   -0.02    0.10 
  -5  -7   5    0.74    0.22 
  -5  -7   5    0.87    0.13 
   4   7  -5    0.30    0.15 
  -4  -7   5    0.46    0.19 
  -4  -7   5    0.44    0.10 
   3   7  -5    1.55    0.20 
  -3  -7   5    1.48    0.22 
  -3  -7   5    1.21    0.12 
  -2  -7   5    2.59    0.24 
  -2  -7   5    2.62    0.16 
   1   7  -5    1.28    0.18 
  -1  -7   5    1.10    0.18 
  -1  -7   5    0.98    0.11 
   0   7  -5    0.00    0.10 
   0  -7   5   -0.02    0.07 
   0  -7   5   -0.03    0.11 
  -1   7  -5    0.85    0.16 
   1  -7   5    0.99    0.11 
  -2   7  -5    1.65    0.19 
   2  -7   5    2.07    0.14 
  -3   7  -5    1.35    0.21 
  -4   7  -5    0.43    0.16 
  -5   7  -5    0.52    0.16 
  -6   7  -5    0.05    0.13 
  -7   7  -5    4.07    0.37 
  -8   7  -5    2.27    0.29 
  -9   7  -5    0.50    0.24 
 -10   7  -5    0.37    0.25 
 -11   7  -5   -0.10    0.22 
 -12   7  -5    0.03    0.23 
 -12  -6   5    0.18    0.31 
 -11  -6   5    0.22    0.29 
 -10  -6   5    0.87    0.30 
  -9  -6   5    1.17    0.18 
  -9  -6   5    1.11    0.30 
  -8  -6   5    0.30    0.14 
  -8  -6   5    0.09    0.22 
  -7  -6   5    3.20    0.22 
  -7  -6   5    3.24    0.35 
  -6  -6   5    0.03    0.10 
  -6  -6   5    0.18    0.17 
  -5  -6   5    0.03    0.18 
  -5  -6   5   -0.04    0.08 
  -4  -6   5    0.79    0.11 
  -4  -6   5    0.93    0.21 
   3   6  -5   11.65    0.56 
  -3  -6   5   10.22    0.63 
  -3  -6   5   10.02    0.43 
   2   6  -5    2.42    0.20 
  -2  -6   5    2.86    0.23 
  -2  -6   5    3.04    0.16 
   1   6  -5    2.45    0.19 
  -1  -6   5    2.44    0.15 
  -1  -6   5    2.57    0.21 
   0   6  -5   12.04    0.61 
   0  -6   5   11.66    0.47 
  -1   6  -5    2.32    0.20 
   1  -6   5    2.19    0.14 
  -2   6  -5    2.23    0.21 
   2  -6   5    2.47    0.16 
  -3   6  -5    7.21    0.44 
  -4   6  -5    0.55    0.16 
  -5   6  -5   -0.01    0.12 
  -6   6  -5    0.12    0.14 
  -7   6  -5    2.99    0.32 
  -8   6  -5    0.20    0.20 
  -9   6  -5    0.79    0.25 
 -10   6  -5    0.59    0.25 
 -11   6  -5    0.14    0.23 
 -12   6  -5    0.14    0.24 
 -12  -5   5    0.10    0.32 
 -11  -5   5   -0.02    0.27 
 -10  -5   5    0.79    0.17 
 -10  -5   5    0.54    0.29 
  -9  -5   5    2.76    0.35 
  -9  -5   5    2.57    0.22 
  -8  -5   5    0.23    0.23 
  -8  -5   5    0.28    0.13 
  -7  -5   5    1.19    0.28 
  -7  -5   5    1.55    0.18 
  -6  -5   5    0.06    0.09 
  -6  -5   5    0.12    0.16 
  -5  -5   5    0.06    0.16 
  -5  -5   5   -0.04    0.08 
  -4  -5   5    0.20    0.16 
  -4  -5   5    0.22    0.08 
  -3  -5   5   -0.02    0.07 
  -3  -5   5   -0.07    0.14 
   2   5  -5    4.20    0.25 
  -2  -5   5    3.98    0.29 
  -2  -5   5    3.94    0.20 
   1   5  -5    2.13    0.16 
  -1  -5   5    2.24    0.13 
  -1  -5   5    2.13    0.18 
   0   5  -5    0.01    0.07 
   0  -5   5   -0.02    0.07 
   0  -5   5   -0.01    0.05 
  -1   5  -5    1.86    0.17 
   1  -5   5    1.94    0.13 
  -2   5  -5    2.87    0.23 
   2  -5   5    3.21    0.17 
  -3   5  -5   -0.07    0.09 
  -4   5  -5    0.23    0.12 
  -5   5  -5    0.01    0.11 
  -6   5  -5    0.08    0.13 
  -7   5  -5    1.11    0.24 
  -8   5  -5    0.25    0.19 
  -9   5  -5    2.58    0.33 
 -10   5  -5    0.52    0.24 
 -11   5  -5    0.02    0.20 
 -12   5  -5    0.11    0.21 
 -13  -4   5    0.79    0.37 
 -12  -4   5    0.11    0.32 
 -11  -4   5   -0.05    0.14 
 -11  -4   5    0.20    0.29 
 -10  -4   5    0.29    0.16 
  -9  -4   5    0.08    0.13 
  -8  -4   5    0.03    0.12 
  -7  -4   5    1.13    0.16 
  -6  -4   5    1.25    0.15 
  -5  -4   5    1.97    0.15 
  -4  -4   5    0.24    0.08 
  -3  -4   5   51.18    2.70 
  -3  -4   5   52.20    1.85 
   2   4  -5    0.58    0.10 
  -2  -4   5    0.66    0.09 
  -2  -4   5    0.70    0.14 
  -1  -4   5    5.92    0.35 
   0   4  -5    4.82    0.28 
   0  -4   5    4.68    0.28 
   0  -4   5    4.89    0.22 
  -1   4  -5    9.20    0.49 
   1  -4   5    9.65    0.38 
  -2   4  -5    0.53    0.12 
   2  -4   5    0.50    0.09 
  -3   4  -5   36.35    1.73 
   3  -4   5   37.16    1.33 
  -4   4  -5    0.07    0.10 
  -5   4  -5    1.33    0.18 
  -6   4  -5    0.87    0.19 
  -7   4  -5    0.63    0.21 
  -8   4  -5   -0.12    0.18 
  -9   4  -5    0.05    0.19 
 -10   4  -5    0.31    0.22 
 -11   4  -5   -0.01    0.20 
 -13  -3   5    0.40    0.33 
 -12  -3   5    0.41    0.16 
 -11  -3   5    0.28    0.16 
 -10  -3   5   -0.06    0.14 
  -9  -3   5    0.86    0.18 
  -8  -3   5    1.46    0.19 
  -7  -3   5    0.05    0.11 
  -6  -3   5    0.33    0.11 
  -5  -3   5    0.66    0.11 
  -4  -3   5    2.09    0.14 
  -3  -3   5    0.13    0.07 
  -2  -3   5   25.70    0.94 
   1   3  -5    7.42    0.37 
  -1  -3   5    7.18    0.30 
   0   3  -5    0.00    0.05 
   0  -3   5   -0.07    0.06 
   0  -3   5   -0.07    0.05 
   1  -3   5    5.73    0.25 
   1  -3   5    5.71    0.31 
   2  -3   5   19.74    0.75 
   2  -3   5   20.50    0.96 
   3  -3   5    0.10    0.08 
   3  -3   5    0.09    0.07 
   4  -3   5    1.67    0.17 
   5  -3   5    0.49    0.14 
   6  -3   5    0.36    0.15 
   7  -3   5    0.02    0.14 
  -8   3  -5    0.60    0.22 
  -9   3  -5    0.49    0.20 
 -10   3  -5    0.02    0.18 
 -11   3  -5    0.12    0.19 
 -13   3  -5    0.26    0.18 
 -12  -2   5    0.11    0.16 
 -11  -2   5    1.17    0.21 
 -10  -2   5    0.28    0.16 
  -9  -2   5   -0.03    0.14 
  -8  -2   5    8.27    0.40 
  -7  -2   5    0.11    0.11 
  -6  -2   5    1.85    0.16 
  -5  -2   5    0.06    0.07 
  -4  -2   5    4.55    0.22 
  -3  -2   5   10.46    0.42 
  -2  -2   5    2.83    0.15 
  -1  -2   5   26.46    1.26 
  -1  -2   5   28.74    1.00 
   0  -2   5  299.93   13.38 
   0  -2   5  300.85   10.43 
   1  -2   5   23.97    1.10 
   1  -2   5   23.28    0.86 
   2  -2   5    2.02    0.12 
   2  -2   5    2.10    0.16 
   3  -2   5    8.32    0.34 
   3  -2   5    7.97    0.44 
   4  -2   5    3.43    0.24 
   5  -2   5    0.02    0.10 
   6  -2   5    1.49    0.19 
   7  -2   5    0.04    0.16 
   8  -2   5    6.36    0.43 
   9  -2   5    0.10    0.18 
 -10   2  -5    0.08    0.18 
 -11   2  -5    0.47    0.22 
 -12   2  -5    0.21    0.16 
 -13  -1   5    0.23    0.18 
 -12  -1   5    0.15    0.17 
 -11  -1   5    0.30    0.17 
 -10  -1   5    0.24    0.16 
  -9  -1   5    2.86    0.23 
  -8  -1   5    0.02    0.12 
  -7  -1   5    0.67    0.13 
  -6  -1   5    1.19    0.14 
  -5  -1   5    0.31    0.09 
  -4  -1   5    3.19    0.18 
  -3  -1   5    2.54    0.14 
  -2  -1   5   25.42    0.93 
  -1  -1   5    3.03    0.17 
  -1  -1   5    3.06    0.15 
   0  -1   5    0.01    0.05 
   0  -1   5    0.07    0.05 
   1  -1   5    3.03    0.19 
   1  -1   5    2.64    0.14 
   2  -1   5   17.70    0.90 
   2  -1   5   20.23    0.70 
   3  -1   5    2.02    0.16 
   3  -1   5    1.84    0.12 
   4  -1   5    2.34    0.19 
   5  -1   5    0.34    0.12 
   6  -1   5    0.98    0.18 
   7  -1   5    0.55    0.19 
   8  -1   5    0.05    0.17 
   9  -1   5    2.22    0.26 
  10  -1   5    0.14    0.20 
 -13   0   5   -0.08    0.16 
 -12   0   5    0.27    0.17 
 -11   0   5    0.07    0.14 
 -10   0   5    0.24    0.16 
  -9   0   5    0.03    0.13 
  -8   0   5    0.01    0.10 
  -7   0   5   -0.04    0.09 
  -6   0   5    0.14    0.08 
  -5   0   5   -0.04    0.07 
  -4   0   5   -0.02    0.05 
  -3   0   5   -0.01    0.05 
  -2   0   5    0.04    0.05 
  -1   0   5    0.01    0.04 
  -1   0   5   -0.02    0.04 
   0   0   5    0.00    0.05 
   0   0   5    0.05    0.05 
   1   0   5   -0.04    0.05 
   1   0   5    0.01    0.04 
   2   0   5    0.01    0.04 
   2   0   5    0.04    0.06 
  -3   0  -5    0.02    0.06 
   3   0   5   -0.01    0.06 
   3   0   5   -0.04    0.05 
  -4   0  -5    0.03    0.08 
   4   0   5   -0.04    0.08 
   5   0   5   -0.01    0.10 
   6   0   5   -0.01    0.12 
   7   0   5   -0.15    0.14 
   8   0   5   -0.22    0.15 
   9   0   5    0.17    0.19 
  10   0   5    0.03    0.21 
 -11   0  -5    0.20    0.27 
  11   0   5    0.09    0.20 
 -13   1   5    0.24    0.17 
 -12   1   5    0.19    0.17 
 -11   1   5   -0.01    0.15 
 -10   1   5    0.16    0.15 
  -9   1   5    2.88    0.23 
  -8   1   5    0.24    0.12 
  -7   1   5    0.56    0.13 
  -6   1   5    0.95    0.13 
  -5   1   5    0.30    0.09 
  -4   1   5    3.32    0.18 
  -3   1   5    2.60    0.15 
  -2   1   5   25.12    1.18 
  -2   1   5   26.38    0.94 
  -1   1   5    3.10    0.15 
  -1   1   5    3.00    0.18 
   0   1   5   -0.03    0.05 
   0   1   5   -0.06    0.06 
   1   1   5    2.59    0.17 
   1   1   5    2.01    0.11 
  -2  -1  -5   19.46    1.05 
   2   1   5   20.95    0.96 
  -3  -1  -5    1.80    0.14 
   3   1   5    1.85    0.16 
  -4  -1  -5    2.47    0.19 
   4   1   5    2.34    0.20 
  -5  -1  -5    0.25    0.13 
   5   1   5    0.26    0.12 
  -6  -1  -5    0.88    0.19 
   6   1   5    0.77    0.18 
  -7  -1  -5    0.52    0.20 
   7   1   5    0.53    0.19 
  -8  -1  -5   -0.06    0.21 
   8   1   5    0.13    0.17 
  -9  -1  -5    2.30    0.31 
   9   1   5    2.62    0.27 
 -10  -1  -5    0.08    0.25 
 -10  -1  -5   -0.12    0.13 
  10   1   5    0.27    0.20 
 -11  -1  -5   -0.18    0.26 
  11   1   5    0.45    0.22 
 -12  -1  -5    0.05    0.27 
 -13   2   5    0.82    0.20 
 -12   2   5    0.14    0.16 
 -11   2   5    1.23    0.22 
 -10   2   5    0.16    0.15 
  -9   2   5    0.07    0.14 
  -8   2   5    8.62    0.43 
  -7   2   5   -0.08    0.10 
  -6   2   5    1.97    0.17 
  -6   2   5    2.01    0.17 
  -5   2   5   -0.01    0.08 
  -5   2   5   -0.05    0.07 
  -4   2   5    4.77    0.27 
  -4   2   5    4.73    0.24 
  -3   2   5   10.92    0.53 
  -3   2   5   10.75    0.44 
  -2   2   5    2.72    0.18 
  -2   2   5    2.68    0.15 
  -1   2   5   27.75    1.31 
  -1   2   5   29.26    1.03 
   0   2   5  331.86   11.24 
   0   2   5  314.88   14.40 
   1   2   5   23.71    0.85 
   1   2   5   23.93    1.12 
  -2  -2  -5    2.14    0.16 
   2   2   5    2.00    0.10 
   2   2   5    2.19    0.17 
  -3  -2  -5    8.26    0.47 
   3   2   5    8.53    0.45 
  -4  -2  -5    3.55    0.25 
   4   2   5    3.67    0.26 
  -5  -2  -5   -0.09    0.11 
   5   2   5    0.02    0.09 
  -6  -2  -5    1.54    0.20 
   6   2   5    1.31    0.18 
  -7  -2  -5    0.08    0.18 
   7   2   5    0.13    0.17 
  -8  -2  -5    5.79    0.47 
   8   2   5    6.87    0.45 
  -9  -2  -5   -0.07    0.22 
   9   2   5    0.07    0.19 
 -10  -2  -5    0.05    0.26 
  10   2   5    0.30    0.21 
 -11  -2  -5    0.78    0.32 
 -12  -2  -5    0.12    0.29 
 -13   3   5    0.12    0.16 
 -12   3   5    0.07    0.15 
 -11   3   5    0.02    0.16 
 -10   3   5   -0.05    0.16 
  -9   3   5    0.99    0.20 
  -8   3   5    1.28    0.19 
  -7   3   5   -0.02    0.13 
  -7   3   5   -0.13    0.10 
  -6   3   5    0.60    0.14 
  -6   3   5    0.57    0.12 
  -5   3   5    0.70    0.12 
  -5   3   5    0.86    0.14 
  -4   3   5    2.30    0.16 
  -4   3   5    2.43    0.18 
  -3   3   5    0.35    0.09 
  -3   3   5    0.20    0.07 
  -2   3   5   26.11    0.96 
  -2   3   5   26.39    1.23 
  -1   3   5    7.16    0.29 
  -1   3   5    6.89    0.38 
   0   3   5    0.00    0.02 
   0   3   5    0.03    0.07 
  -1  -3  -5    5.93    0.37 
   1   3   5    6.43    0.35 
   1   3   5    6.37    0.25 
  -2  -3  -5   20.34    1.08 
   2   3   5   20.35    0.98 
  -3  -3  -5    0.21    0.10 
   3   3   5    0.06    0.08 
  -4  -3  -5    1.76    0.17 
   4   3   5    1.73    0.18 
  -5  -3  -5    0.65    0.16 
   5   3   5    0.53    0.14 
  -6  -3  -5    0.51    0.18 
   6   3   5    0.45    0.15 
  -7  -3  -5    0.06    0.19 
   7   3   5    0.09    0.15 
  -8  -3  -5    1.29    0.28 
  -8  -3  -5    0.87    0.14 
   8   3   5    0.97    0.24 
  -9  -3  -5    0.50    0.26 
   9   3   5    0.74    0.22 
 -10  -3  -5    0.00    0.24 
  10   3   5    0.30    0.19 
 -11  -3  -5    0.08    0.27 
 -12  -3  -5    0.23    0.29 
 -12   4   5    0.31    0.17 
 -11   4   5    0.11    0.16 
 -10   4   5    0.42    0.19 
  -9   4   5   -0.11    0.14 
  -8   4   5   -0.06    0.12 
  -7   4   5    1.04    0.17 
  -7   4   5    1.44    0.22 
  -6   4   5    1.23    0.16 
  -6   4   5    1.23    0.17 
  -5   4   5    2.30    0.21 
  -5   4   5    2.09    0.18 
  -4   4   5    0.12    0.10 
  -4   4   5    0.22    0.09 
  -3   4   5   55.65    2.55 
  -3   4   5   55.95    2.00 
  -2   4   5    0.61    0.12 
  -2   4   5    0.59    0.09 
  -1   4   5    9.96    0.54 
  -1   4   5   11.21    0.41 
   0   4   5    4.60    0.28 
   0   4   5    4.54    0.20 
  -1  -4  -5    8.59    0.52 
   1   4   5    9.81    0.49 
   2   4   5    0.54    0.12 
  -3  -4  -5   42.00    2.18 
   3   4   5   41.68    1.95 
  -4  -4  -5    0.14    0.13 
   4   4   5    0.04    0.10 
  -5  -4  -5    1.84    0.20 
   5   4   5    1.67    0.20 
  -6  -4  -5    1.07    0.23 
   6   4   5    1.23    0.20 
  -7  -4  -5    1.04    0.25 
   7   4   5    0.81    0.21 
  -8  -4  -5    0.28    0.23 
   8   4   5    0.01    0.16 
  -9  -4  -5    0.20    0.25 
   9   4   5    0.26    0.19 
 -10  -4  -5    0.28    0.27 
  10   4   5    0.83    0.22 
 -11  -4  -5   -0.13    0.27 
 -12  -4  -5    0.14    0.27 
 -12   5   5   -0.01    0.18 
 -11   5   5    0.06    0.17 
 -10   5   5    0.51    0.19 
  -9   5   5    3.23    0.27 
  -8   5   5    0.20    0.19 
  -8   5   5    0.14    0.16 
  -7   5   5    1.38    0.21 
  -7   5   5    1.93    0.26 
  -6   5   5    0.03    0.10 
  -6   5   5   -0.02    0.14 
  -5   5   5   -0.01    0.09 
  -5   5   5   -0.05    0.12 
  -4   5   5    0.19    0.12 
  -4   5   5    0.19    0.09 
  -3   5   5    0.03    0.07 
  -3   5   5    0.09    0.11 
  -2   5   5    3.70    0.20 
  -2   5   5    3.89    0.26 
  -1   5   5    2.30    0.13 
  -1   5   5    2.12    0.20 
   0   5   5    0.02    0.04 
   0   5   5   -0.03    0.09 
  -1  -5  -5    1.93    0.19 
   1   5   5    2.18    0.19 
  -2  -5  -5    3.30    0.25 
   2   5   5    3.36    0.24 
  -3  -5  -5    0.08    0.12 
   3   5   5   -0.03    0.10 
  -4  -5  -5    0.18    0.14 
   4   5   5    0.08    0.11 
  -5  -5  -5    0.14    0.16 
   5   5   5    0.00    0.12 
  -6  -5  -5   -0.23    0.17 
   6   5   5    0.08    0.14 
  -7  -5  -5    1.62    0.29 
   7   5   5    1.35    0.25 
  -8  -5  -5    0.53    0.26 
   8   5   5    0.18    0.17 
  -9  -5  -5    2.24    0.32 
   9   5   5    2.78    0.27 
 -10  -5  -5    0.47    0.29 
  10   5   5    0.95    0.24 
 -11  -5  -5    0.14    0.27 
 -12  -5  -5    0.11    0.27 
 -12   6   5    0.41    0.19 
 -11   6   5    0.35    0.20 
 -10   6   5    1.08    0.22 
  -9   6   5    1.72    0.24 
  -8   6   5    0.45    0.16 
  -8   6   5    0.46    0.22 
  -7   6   5    3.56    0.27 
  -7   6   5    4.20    0.35 
  -6   6   5    0.12    0.17 
  -6   6   5    0.30    0.12 
  -5   6   5    0.01    0.13 
  -5   6   5   -0.04    0.09 
  -4   6   5    0.82    0.13 
  -4   6   5    0.72    0.17 
  -3   6   5   11.09    0.60 
  -3   6   5   10.86    0.46 
  -2   6   5    2.91    0.17 
  -2   6   5    2.94    0.24 
  -1   6   5    2.02    0.13 
  -1   6   5    2.46    0.21 
   0   6   5   12.43    0.65 
   0   6   5   12.47    0.47 
  -1  -6  -5    2.13    0.21 
   1   6   5    2.12    0.20 
  -2  -6  -5    2.65    0.22 
   2   6   5    2.50    0.23 
  -3  -6  -5    9.14    0.54 
   3   6   5    8.66    0.51 
  -4  -6  -5    1.00    0.19 
   4   6   5    0.97    0.19 
  -5  -6  -5   -0.05    0.17 
   5   6   5   -0.01    0.13 
  -6  -6  -5    0.15    0.21 
   6   6   5    0.15    0.16 
  -7  -6  -5    3.20    0.34 
   7   6   5    3.06    0.30 
  -8  -6  -5    0.48    0.26 
   8   6   5    0.71    0.20 
  -9  -6  -5    1.06    0.32 
   9   6   5    1.64    0.27 
 -10  -6  -5    0.81    0.31 
  10   6   5    1.17    0.25 
 -11  -6  -5    0.07    0.28 
 -12  -6  -5    0.23    0.30 
 -12   7   5    0.25    0.19 
 -11   7   5   -0.17    0.18 
 -10   7   5    0.76    0.22 
  -9   7   5    0.71    0.19 
  -8   7   5    3.35    0.27 
  -8   7   5    3.54    0.33 
  -7   7   5    6.38    0.46 
  -7   7   5    6.24    0.36 
  -6   7   5    0.12    0.21 
  -6   7   5   -0.08    0.11 
  -5   7   5    1.13    0.22 
  -5   7   5    0.48    0.13 
  -4   7   5    0.36    0.16 
  -4   7   5    0.30    0.11 
  -3   7   5    1.55    0.23 
  -3   7   5    1.29    0.13 
  -2   7   5    2.52    0.16 
  -2   7   5    2.61    0.24 
  -1   7   5    1.20    0.20 
   0   7   5   -0.07    0.12 
   0   7   5    0.01    0.04 
  -1  -7  -5    1.21    0.19 
   1   7   5    0.99    0.20 
  -2  -7  -5    2.05    0.21 
   2   7   5    1.94    0.22 
  -3  -7  -5    1.54    0.23 
   3   7   5    1.48    0.22 
  -4  -7  -5    0.66    0.19 
   4   7   5    0.17    0.16 
  -5  -7  -5    0.94    0.23 
   5   7   5    0.70    0.19 
  -6  -7  -5   -0.20    0.23 
  -7  -7  -5    5.01    0.45 
   7   7   5    5.01    0.38 
  -8  -7  -5    2.44    0.35 
   8   7   5    3.20    0.29 
  -9  -7  -5    0.77    0.32 
   9   7   5    0.99    0.23 
 -10  -7  -5    0.58    0.31 
 -11  -7  -5    0.05    0.28 
 -12  -7  -5    0.30    0.32 
 -11   8   5   -0.14    0.19 
 -10   8   5    1.60    0.25 
  -9   8   5    0.16    0.18 
  -8   8   5    0.13    0.19 
  -8   8   5   -0.27    0.12 
  -7   8   5   -0.01    0.13 
  -7   8   5   -0.01    0.18 
  -6   8   5    0.35    0.14 
  -6   8   5    0.11    0.20 
  -5   8   5    2.22    0.19 
  -5   8   5    2.28    0.28 
  -4   8   5    0.41    0.12 
  -4   8   5    0.21    0.18 
  -3   8   5    3.58    0.22 
  -3   8   5    3.81    0.32 
  -2   8   5   -0.01    0.14 
  -2   8   5    0.12    0.08 
  -1   8   5    1.39    0.22 
   0   8   5    6.83    0.28 
   0   8   5    6.15    0.41 
   1   8   5    1.25    0.21 
  -2  -8  -5    0.09    0.15 
   2   8   5   -0.05    0.15 
  -3  -8  -5    3.25    0.29 
   3   8   5    3.04    0.28 
  -4  -8  -5    0.33    0.19 
   4   8   5    0.22    0.17 
  -5  -8  -5    1.81    0.26 
   5   8   5    1.81    0.24 
  -6  -8  -5    0.75    0.29 
   6   8   5    0.68    0.22 
  -7  -8  -5   -0.02    0.26 
   7   8   5    0.01    0.17 
  -8  -8  -5    0.11    0.30 
   8   8   5    0.00    0.16 
  -9  -8  -5    0.53    0.33 
   9   8   5    0.78    0.22 
 -10  -8  -5    1.22    0.36 
 -11  -8  -5    0.18    0.33 
 -12  -8  -5    0.24    0.33 
 -11   9   5    0.07    0.20 
 -10   9   5    0.59    0.20 
  -9   9   5    0.52    0.18 
  -8   9   5   -0.10    0.20 
  -8   9   5   -0.04    0.14 
  -7   9   5    0.29    0.14 
  -7   9   5    0.22    0.21 
  -6   9   5   -0.14    0.19 
  -6   9   5    0.19    0.12 
  -5   9   5    0.75    0.15 
  -5   9   5    0.55    0.21 
  -4   9   5   -0.05    0.11 
  -4   9   5   -0.15    0.16 
  -3   9   5    0.62    0.13 
  -3   9   5    0.68    0.23 
  -2   9   5    0.95    0.13 
  -2   9   5    0.97    0.22 
  -1   9   5    2.35    0.15 
   0   9   5   -0.14    0.16 
   0   9   5    0.01    0.06 
   1   9   5    3.17    0.29 
  -2  -9  -5    0.83    0.21 
   2   9   5    0.94    0.24 
  -3  -9  -5    0.52    0.21 
   3   9   5    0.51    0.21 
  -4  -9  -5    0.31    0.21 
   4   9   5   -0.04    0.16 
  -5  -9  -5    0.45    0.29 
   5   9   5    1.27    0.25 
  -6  -9  -5    0.10    0.26 
   6   9   5   -0.02    0.19 
  -7  -9  -5    0.10    0.28 
   7   9   5    0.45    0.21 
  -8  -9  -5   -0.33    0.28 
   8   9   5    0.34    0.21 
  -9  -9  -5   -0.27    0.29 
   9   9   5    0.77    0.22 
 -10  -9  -5    0.10    0.32 
 -11  -9  -5   -0.08    0.32 
 -11  10   5    0.19    0.18 
 -10  10   5    0.35    0.18 
  -9  10   5    0.01    0.16 
  -8  10   5    0.38    0.23 
  -8  10   5    0.66    0.19 
  -7  10   5   -0.10    0.20 
  -7  10   5    0.21    0.14 
  -6  10   5    1.46    0.29 
  -6  10   5    1.85    0.22 
  -5  10   5    0.00    0.12 
  -5  10   5    0.10    0.21 
  -4  10   5   -0.30    0.18 
  -4  10   5   -0.01    0.10 
  -3  10   5    0.30    0.19 
  -3  10   5    0.39    0.12 
  -2  10   5    4.45    0.36 
  -2  10   5    4.99    0.26 
  -1  10   5    0.00    0.08 
  -1  10   5    0.13    0.19 
   0  10   5    4.01    0.22 
   0  10   5    4.30    0.35 
   1  10   5   -0.01    0.17 
  -2 -10  -5    4.07    0.35 
   2  10   5    4.26    0.36 
  -3 -10  -5    0.17    0.21 
   3  10   5    0.22    0.20 
  -4 -10  -5   -0.09    0.22 
   4  10   5   -0.10    0.17 
  -5 -10  -5    0.21    0.26 
   5  10   5    0.18    0.22 
  -6 -10  -5    2.12    0.37 
   6  10   5    1.98    0.33 
  -7 -10  -5   -0.12    0.27 
   7  10   5    0.23    0.21 
  -8 -10  -5    0.12    0.30 
   8  10   5    1.03    0.24 
  -9 -10  -5    0.07    0.29 
   9  10   5    0.42    0.21 
 -10 -10  -5    0.10    0.32 
 -11 -10  -5    0.31    0.34 
 -10  11   5    0.34    0.20 
  -9  11   5    0.18    0.23 
  -9  11   5    0.06    0.18 
  -8  11   5    0.19    0.22 
  -8  11   5    0.09    0.16 
  -7  11   5    0.15    0.21 
  -7  11   5    0.21    0.14 
  -6  11   5    0.29    0.14 
  -6  11   5    0.35    0.24 
  -5  11   5    3.89    0.39 
  -5  11   5    4.54    0.28 
  -4  11   5   -0.08    0.20 
  -4  11   5    0.04    0.10 
  -3  11   5   -0.17    0.18 
  -3  11   5   -0.02    0.10 
  -2  11   5    1.11    0.25 
  -2  11   5    1.30    0.16 
  -1  11   5    1.87    0.17 
  -1  11   5    1.98    0.26 
   0  11   5   -0.02    0.20 
   0  11   5   -0.06    0.07 
   1  11   5    1.89    0.26 
  -2 -11  -5    1.14    0.27 
   2  11   5    1.10    0.28 
  -3 -11  -5   -0.16    0.20 
   3  11   5    0.10    0.21 
  -4 -11  -5   -0.32    0.22 
   4  11   5   -0.07    0.21 
  -5 -11  -5    3.45    0.38 
   5  11   5    4.03    0.38 
  -6 -11  -5    0.29    0.30 
   6  11   5    0.34    0.26 
  -7 -11  -5   -0.16    0.28 
   7  11   5    0.29    0.24 
  -8 -11  -5   -0.36    0.28 
   8  11   5    0.57    0.23 
  -9 -11  -5    0.28    0.32 
 -10 -11  -5    0.10    0.34 
 -10  12   5    0.24    0.19 
  -9  12   5    0.33    0.24 
  -9  12   5    0.56    0.20 
  -8  12   5   -0.11    0.21 
  -8  12   5    0.03    0.16 
  -7  12   5    0.65    0.19 
  -7  12   5    0.45    0.25 
  -6  12   5    0.83    0.28 
  -6  12   5    1.03    0.19 
  -5  12   5    0.01    0.21 
  -5  12   5    0.18    0.14 
  -4  12   5    0.77    0.25 
  -4  12   5    0.58    0.15 
  -3  12   5    0.92    0.27 
  -3  12   5    1.33    0.16 
  -2  12   5    0.08    0.11 
  -2  12   5    0.00    0.21 
  -1  12   5    1.11    0.28 
  -1  12   5    1.20    0.15 
   0  12   5    0.29    0.23 
   1  12   5    1.57    0.29 
  -2 -12  -5    0.08    0.23 
   2  12   5    0.09    0.24 
  -3 -12  -5    0.56    0.26 
   3  12   5    0.91    0.29 
  -4 -12  -5    0.43    0.26 
   4  12   5    0.65    0.29 
  -5 -12  -5    0.17    0.27 
   5  12   5    0.36    0.27 
  -6 -12  -5    0.85    0.33 
   6  12   5    1.05    0.31 
  -7 -12  -5    0.80    0.34 
   7  12   5    1.12    0.29 
  -8 -12  -5   -0.23    0.30 
  -9 -12  -5   -0.26    0.32 
 -10 -12  -5   -0.12    0.34 
  -9  13   5    0.23    0.18 
  -9  13   5    0.22    0.25 
  -8  13   5    0.64    0.19 
  -8  13   5    0.49    0.27 
  -7  13   5    0.18    0.15 
  -7  13   5    0.28    0.24 
  -6  13   5    0.20    0.22 
  -6  13   5    0.12    0.14 
  -5  13   5    0.18    0.15 
  -5  13   5    0.34    0.24 
  -4  13   5   -0.15    0.21 
  -4  13   5    0.07    0.13 
  -3  13   5    0.07    0.22 
  -3  13   5    0.42    0.12 
  -2  13   5    0.13    0.11 
  -2  13   5    0.21    0.23 
  -1  13   5    0.29    0.25 
   0  13   5   -0.06    0.22 
   1  13   5    1.01    0.28 
   2  13   5    0.16    0.25 
  -3 -13  -5    0.46    0.28 
   3  13   5    0.40    0.29 
  -4 -13  -5    0.31    0.26 
   4  13   5    0.01    0.25 
  -5 -13  -5    0.06    0.26 
   5  13   5    0.30    0.28 
  -6 -13  -5   -0.08    0.28 
   6  13   5    0.37    0.28 
  -7 -13  -5   -0.18    0.30 
   7  13   5    0.29    0.25 
  -8 -13  -5    0.07    0.33 
   8  13   5    1.34    0.31 
  -9 -13  -5   -0.20    0.35 
  -8  14   5    0.34    0.23 
  -8  14   5    0.45    0.19 
  -7  14   5    0.23    0.16 
  -7  14   5    0.12    0.22 
  -6  14   5    0.32    0.16 
  -6  14   5    0.24    0.22 
  -5  14   5    0.25    0.13 
  -5  14   5    0.06    0.22 
  -4  14   5    0.34    0.23 
  -4  14   5    0.04    0.13 
  -3  14   5   -0.15    0.20 
  -3  14   5    0.01    0.12 
  -2  14   5    0.19    0.26 
  -1  14   5   -0.25    0.23 
   0  14   5    0.82    0.28 
   1  14   5    0.21    0.24 
   2  14   5    0.65    0.30 
  -3 -14  -5    0.18    0.28 
   3  14   5   -0.49    0.25 
  -4 -14  -5    0.22    0.28 
   4  14   5   -0.08    0.28 
  -5 -14  -5    0.06    0.27 
   5  14   5    0.43    0.31 
  -6 -14  -5   -0.15    0.30 
   6  14   5    0.59    0.29 
  -7 -14  -5   -0.07    0.32 
   7  14   5    0.36    0.29 
  -8 -14  -5   -0.24    0.34 
  -9 -14  -5   -0.18    0.33 
  -8  15   5    0.46    0.19 
  -7  15   5    0.29    0.16 
  -7  15   5    0.34    0.26 
  -6  15   5    0.23    0.16 
  -6  15   5    0.05    0.20 
  -5  15   5    0.90    0.28 
  -5  15   5    1.01    0.18 
  -4  15   5    0.18    0.23 
  -3  15   5    0.45    0.27 
  -2  15   5    0.10    0.25 
  -1  15   5   -0.26    0.22 
   0  15   5   -0.26    0.23 
   1  15   5    0.18    0.25 
   2  15   5    0.29    0.28 
   3  15   5    0.35    0.32 
  -4 -15  -5    0.34    0.34 
   4  15   5    0.91    0.34 
  -5 -15  -5    0.73    0.35 
   5  15   5    1.30    0.35 
  -6 -15  -5   -0.23    0.30 
   6  15   5    0.45    0.28 
  -7 -15  -5   -0.54    0.31 
   7  15   5    0.78    0.28 
  -8 -15  -5   -0.07    0.35 
  -7  16   5    0.29    0.17 
  -6  16   5    0.36    0.17 
  -6  16   5    0.36    0.23 
  -5  16   5    0.30    0.23 
  -4  16   5    0.49    0.27 
  -3  16   5    0.28    0.25 
  -2  16   5    0.12    0.25 
  -1  16   5    0.33    0.24 
   0  16   5    0.71    0.27 
   1  16   5    0.45    0.27 
   2  16   5    0.59    0.29 
   3  16   5    0.31    0.29 
  -4 -16  -5    0.56    0.34 
   4  16   5    1.06    0.32 
  -5 -16  -5   -0.41    0.29 
   5  16   5    0.49    0.29 
  -6 -16  -5    0.01    0.31 
   6  16   5    0.90    0.30 
  -7 -16  -5   -0.11    0.32 
   7  16   5    1.35    0.32 
  -5  17   5    0.08    0.21 
  -4  17   5    0.49    0.24 
  -3  17   5    0.34    0.24 
  -2  17   5    0.22    0.25 
  -1  17   5    0.57    0.26 
   0  17   5    0.44    0.23 
   1  17   5    0.82    0.28 
   2  17   5    0.83    0.30 
   3  17   5    1.01    0.29 
   4  17   5    1.08    0.31 
  -5 -17  -5   -0.26    0.32 
   5  17   5    0.77    0.28 
  -3  18   5    0.21    0.22 
  -2  18   5    0.31    0.25 
   0  18   5    0.63    0.26 
   1  18   5    0.58    0.26 
   2  18   5    0.61    0.28 
   3  18   5    0.74    0.30 
  -3 -18   6   -0.52    0.33 
   1  18  -6    0.36    0.24 
   0  18  -6    0.70    0.29 
  -1  18  -6    0.23    0.23 
  -2  18  -6    0.37    0.26 
  -3  18  -6    0.59    0.25 
  -5 -17   6    0.55    0.35 
  -4 -17   6   -0.02    0.30 
  -3 -17   6    0.15    0.33 
   2  17  -6    0.55    0.25 
  -2 -17   6   -0.05    0.32 
   1  17  -6    0.30    0.25 
   0  17  -6    0.16    0.25 
  -1  17  -6    0.51    0.28 
  -2  17  -6    0.36    0.24 
  -3  17  -6    0.30    0.26 
  -4  17  -6    0.37    0.23 
  -5  17  -6    0.80    0.25 
  -6 -16   6   -0.40    0.30 
  -5 -16   6   -0.22    0.31 
  -4 -16   6   -0.07    0.29 
  -3 -16   6   -0.12    0.27 
   2  16  -6    0.27    0.22 
  -2 -16   6   -0.18    0.31 
   1  16  -6    0.32    0.24 
   0  16  -6    0.18    0.26 
  -1  16  -6    0.27    0.27 
  -2  16  -6   -0.04    0.22 
  -3  16  -6    0.32    0.25 
  -4  16  -6    0.36    0.22 
  -5  16  -6    0.23    0.21 
  -6  16  -6    0.34    0.22 
  -7 -15   6   -0.34    0.30 
  -6 -15   6   -0.10    0.30 
  -5 -15   6   -0.18    0.28 
  -4 -15   6   -0.26    0.27 
   3  15  -6    1.51    0.29 
  -3 -15   6    1.66    0.35 
   2  15  -6    0.21    0.20 
  -2 -15   6   -0.35    0.26 
   1  15  -6    0.39    0.24 
  -1 -15   6    0.25    0.29 
   0  15  -6    0.29    0.26 
  -1  15  -6    0.29    0.24 
  -2  15  -6    0.13    0.23 
  -3  15  -6    0.95    0.27 
  -4  15  -6    0.00    0.19 
  -5  15  -6    0.52    0.23 
  -6  15  -6    0.15    0.22 
  -7  15  -6   -0.26    0.17 
  -8 -14   6   -0.21    0.29 
  -7 -14   6   -0.38    0.27 
  -6 -14   6   -0.23    0.28 
  -5 -14   6    0.48    0.32 
  -4 -14   6    0.05    0.28 
   3  14  -6    0.19    0.20 
  -3 -14   6   -0.12    0.26 
   2  14  -6    0.29    0.23 
  -2 -14   6    0.08    0.25 
  -2 -14   6    0.09    0.14 
   1  14  -6    0.21    0.22 
  -1 -14   6   -0.05    0.27 
  -1 -14   6   -0.03    0.14 
   0  14  -6    0.21    0.22 
  -1  14  -6    0.15    0.20 
  -2  14  -6    0.05    0.22 
  -3  14  -6    0.27    0.21 
  -4  14  -6    0.19    0.22 
  -5  14  -6    0.36    0.21 
  -6  14  -6   -0.12    0.19 
  -7  14  -6    0.16    0.21 
  -8  14  -6    0.20    0.25 
  -9 -13   6    0.20    0.29 
  -8 -13   6   -0.18    0.28 
  -7 -13   6   -0.27    0.26 
  -6 -13   6   -0.11    0.28 
  -5 -13   6    0.28    0.28 
  -4 -13   6    0.00    0.27 
   3  13  -6    0.22    0.22 
  -3 -13   6    0.34    0.14 
  -3 -13   6    0.13    0.26 
   2  13  -6   -0.17    0.19 
  -2 -13   6    0.14    0.13 
  -2 -13   6   -0.11    0.22 
   1  13  -6    0.43    0.23 
  -1 -13   6    0.20    0.24 
  -1 -13   6    0.39    0.14 
   0  13  -6   -0.02    0.19 
   0 -13   6   -0.09    0.12 
  -1  13  -6    0.31    0.21 
  -2  13  -6    0.09    0.19 
  -3  13  -6    0.20    0.21 
  -4  13  -6    0.25    0.21 
  -5  13  -6    0.37    0.21 
  -6  13  -6    0.23    0.21 
  -7  13  -6   -0.28    0.17 
  -8  13  -6   -0.12    0.17 
  -9  13  -6    0.34    0.24 
 -10 -12   6    0.14    0.27 
  -9 -12   6    0.07    0.28 
  -8 -12   6    0.09    0.29 
  -7 -12   6   -0.10    0.25 
  -6 -12   6    0.05    0.26 
  -5 -12   6    1.06    0.31 
  -4 -12   6    0.07    0.12 
  -4 -12   6    0.18    0.24 
   3  12  -6   -0.03    0.18 
  -3 -12   6   -0.07    0.22 
  -3 -12   6    0.07    0.11 
   2  12  -6    0.40    0.21 
  -2 -12   6    0.51    0.24 
  -2 -12   6    0.39    0.13 
   1  12  -6    0.45    0.23 
  -1 -12   6    0.43    0.14 
  -1 -12   6    0.47    0.24 
   0  12  -6    0.04    0.19 
   0 -12   6    0.22    0.24 
   0 -12   6    0.33    0.13 
  -1  12  -6    0.61    0.22 
   1 -12   6    0.64    0.15 
  -2  12  -6    0.48    0.22 
  -3  12  -6    0.08    0.16 
  -4  12  -6   -0.09    0.16 
  -5  12  -6    0.60    0.21 
  -6  12  -6   -0.02    0.17 
  -7  12  -6    0.20    0.20 
  -8  12  -6    0.14    0.21 
  -9  12  -6    0.07    0.21 
 -10 -11   6    0.15    0.26 
  -9 -11   6   -0.16    0.24 
  -8 -11   6    0.07    0.25 
  -7 -11   6    0.05    0.22 
  -6 -11   6    1.85    0.34 
  -5 -11   6    0.45    0.14 
  -5 -11   6    0.37    0.26 
   4  11  -6    1.18    0.26 
  -4 -11   6    1.09    0.28 
  -4 -11   6    1.34    0.17 
   3  11  -6    0.59    0.23 
  -3 -11   6    0.70    0.24 
  -3 -11   6    0.75    0.14 
   2  11  -6    0.02    0.24 
  -2 -11   6    0.28    0.12 
  -2 -11   6    0.32    0.21 
   1  11  -6    1.98    0.28 
  -1 -11   6    2.51    0.29 
  -1 -11   6    2.49    0.19 
   0  11  -6   -0.02    0.18 
   0 -11   6   -0.03    0.11 
   0 -11   6   -0.30    0.23 
  -1  11  -6    2.42    0.27 
   1 -11   6    2.01    0.19 
  -2  11  -6    0.14    0.16 
  -3  11  -6    0.40    0.18 
  -4  11  -6    0.46    0.19 
  -5  11  -6    0.21    0.16 
  -6  11  -6    0.79    0.23 
  -7  11  -6    0.13    0.18 
  -8  11  -6    0.33    0.21 
  -9  11  -6    0.34    0.21 
 -10  11  -6    0.28    0.24 
 -11 -10   6    0.77    0.27 
 -10 -10   6    0.07    0.26 
  -9 -10   6   -0.16    0.24 
  -8 -10   6   -0.12    0.22 
  -7 -10   6    0.24    0.23 
  -6 -10   6    0.39    0.24 
  -6 -10   6    0.59    0.13 
  -5 -10   6    1.22    0.16 
  -5 -10   6    1.71    0.31 
   4  10  -6    1.19    0.26 
  -4 -10   6    1.27    0.16 
  -4 -10   6    1.31    0.28 
   3  10  -6    0.06    0.14 
  -3 -10   6    0.00    0.19 
  -3 -10   6   -0.02    0.10 
   2  10  -6    0.16    0.20 
  -2 -10   6    0.62    0.22 
  -2 -10   6    0.41    0.12 
   1  10  -6   -0.04    0.17 
  -1 -10   6    0.13    0.20 
  -1 -10   6   -0.06    0.10 
   0  10  -6    4.97    0.37 
   0 -10   6    4.69    0.38 
   0 -10   6    4.80    0.27 
  -1  10  -6    0.12    0.15 
   1 -10   6    0.03    0.11 
  -2  10  -6    0.23    0.15 
   2 -10   6    0.17    0.11 
  -3  10  -6    0.01    0.12 
  -4  10  -6    0.53    0.17 
  -5  10  -6    0.81    0.21 
  -6  10  -6    0.31    0.18 
  -7  10  -6    0.23    0.18 
  -8  10  -6    0.05    0.18 
  -9  10  -6   -0.21    0.17 
 -10  10  -6    0.20    0.22 
 -11  10  -6    0.51    0.24 
 -11  -9   6    0.94    0.31 
 -10  -9   6    0.40    0.28 
  -9  -9   6   -0.02    0.24 
  -8  -9   6    0.03    0.22 
  -7  -9   6    0.34    0.24 
  -7  -9   6    0.33    0.12 
  -6  -9   6    0.15    0.23 
  -6  -9   6    0.09    0.11 
  -5  -9   6    1.45    0.23 
  -5  -9   6    1.36    0.15 
   4   9  -6    0.66    0.21 
  -4  -9   6    1.01    0.24 
   3   9  -6    0.52    0.17 
  -3  -9   6    0.92    0.14 
  -3  -9   6    1.09    0.25 
   2   9  -6    1.69    0.23 
  -2  -9   6    1.86    0.15 
  -2  -9   6    1.75    0.23 
   1   9  -6    0.10    0.16 
  -1  -9   6    0.10    0.09 
  -1  -9   6    0.22    0.18 
   0   9  -6   -0.12    0.14 
   0  -9   6   -0.11    0.09 
   0  -9   6   -0.09    0.16 
  -1   9  -6    0.00    0.14 
   1  -9   6   -0.08    0.09 
  -2   9  -6    1.10    0.21 
   2  -9   6    1.47    0.15 
  -3   9  -6    0.50    0.16 
  -4   9  -6    0.38    0.16 
  -5   9  -6    0.70    0.20 
  -6   9  -6   -0.13    0.15 
  -7   9  -6    0.02    0.17 
  -8   9  -6   -0.06    0.18 
  -9   9  -6   -0.13    0.19 
 -10   9  -6    0.24    0.24 
 -11   9  -6    0.88    0.28 
 -11  -8   6    0.63    0.30 
 -10  -8   6    0.02    0.26 
  -9  -8   6   -0.04    0.24 
  -8  -8   6   -0.05    0.22 
  -8  -8   6   -0.11    0.12 
  -7  -8   6    0.47    0.25 
  -7  -8   6    0.32    0.13 
  -6  -8   6    0.37    0.23 
  -6  -8   6    0.32    0.13 
  -5  -8   6    0.27    0.19 
  -5  -8   6    0.23    0.11 
   4   8  -6    1.40    0.22 
  -4  -8   6    1.27    0.14 
  -4  -8   6    1.73    0.28 
   3   8  -6    1.07    0.20 
  -3  -8   6    1.14    0.23 
  -3  -8   6    1.18    0.14 
   2   8  -6    0.43    0.16 
  -2  -8   6    0.53    0.18 
  -2  -8   6    0.46    0.11 
   1   8  -6    1.85    0.20 
  -1  -8   6    2.02    0.15 
  -1  -8   6    1.76    0.21 
   0   8  -6    0.49    0.15 
   0  -8   6    0.44    0.15 
   0  -8   6    0.48    0.10 
  -1   8  -6    1.65    0.20 
   1  -8   6    1.76    0.14 
  -2   8  -6    0.41    0.15 
   2  -8   6    0.38    0.10 
  -3   8  -6    0.68    0.18 
  -4   8  -6    0.86    0.19 
  -5   8  -6    0.20    0.15 
  -6   8  -6    0.27    0.17 
  -7   8  -6    0.35    0.21 
  -8   8  -6    0.06    0.19 
  -9   8  -6    0.00    0.21 
 -10   8  -6    0.19    0.24 
 -11   8  -6    0.49    0.25 
 -12  -7   6    0.44    0.32 
 -11  -7   6    0.10    0.28 
 -10  -7   6    0.44    0.27 
  -9  -7   6    1.04    0.17 
  -9  -7   6    0.59    0.29 
  -8  -7   6   -0.18    0.12 
  -8  -7   6   -0.18    0.21 
  -7  -7   6    0.12    0.13 
  -7  -7   6   -0.11    0.22 
  -6  -7   6    1.49    0.16 
  -6  -7   6    1.60    0.25 
  -5  -7   6    0.19    0.10 
  -5  -7   6   -0.04    0.17 
  -4  -7   6   -0.04    0.08 
  -4  -7   6    0.03    0.17 
   3   7  -6    0.77    0.17 
  -3  -7   6    0.89    0.12 
  -3  -7   6    0.99    0.21 
  -2  -7   6    1.29    0.13 
  -2  -7   6    1.46    0.19 
   1   7  -6    0.38    0.13 
  -1  -7   6    0.29    0.14 
  -1  -7   6    0.24    0.09 
   0   7  -6   -0.05    0.10 
   0  -7   6   -0.03    0.07 
   0  -7   6   -0.04    0.07 
  -1   7  -6    0.26    0.13 
   1  -7   6    0.31    0.09 
  -2   7  -6    1.24    0.20 
   2  -7   6    1.15    0.13 
  -3   7  -6    0.55    0.16 
   3  -7   6    0.66    0.12 
  -4   7  -6    0.04    0.12 
  -5   7  -6    0.05    0.14 
  -6   7  -6    0.99    0.22 
  -7   7  -6    0.04    0.17 
  -8   7  -6   -0.03    0.17 
  -9   7  -6    0.77    0.26 
 -10   7  -6    0.26    0.23 
 -11   7  -6    0.18    0.21 
 -12   7  -6    0.44    0.25 
 -12  -6   6    0.33    0.30 
 -11  -6   6    0.70    0.31 
 -10  -6   6    1.25    0.34 
  -9  -6   6   -0.06    0.22 
  -9  -6   6   -0.02    0.13 
  -8  -6   6    0.57    0.15 
  -8  -6   6    0.71    0.26 
  -7  -6   6    4.67    0.41 
  -7  -6   6    4.04    0.26 
  -6  -6   6   -0.08    0.16 
  -6  -6   6   -0.05    0.10 
  -5  -6   6    1.27    0.13 
  -5  -6   6    1.41    0.23 
  -4  -6   6    0.09    0.17 
  -4  -6   6    0.05    0.08 
   3   6  -6    1.48    0.18 
  -3  -6   6    1.56    0.13 
  -3  -6   6    1.58    0.20 
   2   6  -6    1.64    0.16 
  -2  -6   6    1.53    0.18 
  -2  -6   6    1.45    0.13 
   1   6  -6    3.74    0.25 
  -1  -6   6    3.26    0.26 
  -1  -6   6    3.83    0.20 
   0   6  -6   11.56    0.58 
   0  -6   6   10.12    0.61 
   0  -6   6   11.52    0.45 
  -1   6  -6    3.19    0.25 
   1  -6   6    3.47    0.19 
  -2   6  -6    1.15    0.16 
   2  -6   6    1.33    0.12 
  -3   6  -6    1.05    0.19 
   3  -6   6    1.14    0.12 
  -4   6  -6    0.10    0.12 
  -5   6  -6    1.03    0.20 
  -6   6  -6   -0.04    0.13 
  -7   6  -6    3.61    0.36 
  -8   6  -6    0.60    0.23 
  -9   6  -6   -0.01    0.21 
 -10   6  -6    0.69    0.25 
 -11   6  -6    0.24    0.25 
 -12   6  -6    0.16    0.23 
 -12  -5   6    0.26    0.31 
 -11  -5   6    0.30    0.27 
 -10  -5   6    0.38    0.27 
 -10  -5   6    0.63    0.17 
  -9  -5   6    1.31    0.20 
  -9  -5   6    1.49    0.32 
  -8  -5   6   -0.04    0.12 
  -8  -5   6    0.03    0.22 
  -7  -5   6   -0.05    0.21 
  -7  -5   6   -0.11    0.11 
  -6  -5   6    0.11    0.18 
  -6  -5   6    0.00    0.10 
  -5  -5   6    0.02    0.17 
  -5  -5   6   -0.02    0.08 
  -4  -5   6    1.07    0.13 
  -4  -5   6    1.26    0.22 
  -3  -5   6    0.16    0.14 
  -3  -5   6    0.13    0.08 
   2   5  -6   12.39    0.58 
  -2  -5   6   11.23    0.67 
  -2  -5   6   11.33    0.46 
   1   5  -6    0.64    0.11 
  -1  -5   6    0.95    0.11 
   0   5  -6   -0.03    0.07 
   0  -5   6   -0.08    0.06 
   0  -5   6   -0.01    0.08 
  -1   5  -6    0.88    0.14 
   1  -5   6    0.89    0.11 
  -2   5  -6    9.14    0.50 
   2  -5   6    8.76    0.38 
  -3   5  -6    0.07    0.11 
   3  -5   6    0.06    0.09 
  -4   5  -6    0.70    0.16 
  -5   5  -6    0.03    0.12 
  -6   5  -6    0.07    0.13 
  -7   5  -6   -0.06    0.16 
  -8   5  -6   -0.03    0.18 
  -9   5  -6    0.89    0.27 
 -10   5  -6    0.25    0.22 
 -11   5  -6    0.03    0.21 
 -12   5  -6   -0.05    0.21 
 -12  -4   6    0.31    0.34 
 -11  -4   6    0.11    0.15 
 -10  -4   6    0.26    0.15 
  -9  -4   6    0.20    0.15 
  -8  -4   6    1.67    0.18 
  -7  -4   6    0.83    0.16 
  -6  -4   6   -0.13    0.09 
  -5  -4   6    1.20    0.14 
  -4  -4   6    2.03    0.14 
  -3  -4   6    8.94    0.55 
  -3  -4   6    9.02    0.38 
   2   4  -6   25.14    1.10 
  -2  -4   6   22.28    0.87 
  -2  -4   6   23.26    1.27 
  -1  -4   6    1.67    0.14 
   0   4  -6    1.58    0.14 
   0  -4   6    1.63    0.12 
   0  -4   6    1.56    0.13 
  -1   4  -6    3.27    0.23 
   1  -4   6    3.45    0.18 
  -2   4  -6   16.91    0.86 
   2  -4   6   18.20    0.67 
   3  -4   6    6.42    0.30 
   3  -4   6    6.73    0.38 
   4  -4   6    1.26    0.15 
   5  -4   6    1.08    0.18 
  -6   4  -6    0.03    0.12 
  -7   4  -6    0.55    0.19 
  -8   4  -6    1.10    0.25 
  -9   4  -6    0.06    0.19 
 -10   4  -6    0.05    0.21 
 -11   4  -6    0.15    0.20 
 -12   4  -6    0.28    0.22 
 -12  -3   6    0.18    0.16 
 -11  -3   6    0.30    0.17 
 -10  -3   6    0.16    0.16 
  -9  -3   6    0.45    0.16 
  -8  -3   6    0.51    0.15 
  -7  -3   6    1.90    0.18 
  -6  -3   6    1.23    0.15 
  -5  -3   6    0.12    0.09 
  -4  -3   6    0.56    0.10 
  -3  -3   6    2.79    0.16 
  -2  -3   6    0.03    0.06 
   1   3  -6    0.90    0.09 
  -1  -3   6    0.71    0.11 
  -1  -3   6    0.98    0.09 
   0  -3   6   -0.06    0.05 
   0  -3   6   -0.01    0.05 
   1  -3   6    0.97    0.10 
   1  -3   6    0.82    0.11 
   2  -3   6    0.12    0.07 
   2  -3   6    0.07    0.08 
   3  -3   6    2.17    0.18 
   3  -3   6    1.92    0.14 
   4  -3   6    0.41    0.13 
   5  -3   6    0.11    0.12 
   6  -3   6    0.97    0.20 
   7  -3   6    1.60    0.25 
   8  -3   6    0.39    0.20 
  -9   3  -6    0.36    0.21 
 -10   3  -6   -0.08    0.18 
 -11   3  -6    0.12    0.20 
 -12   3  -6    0.28    0.21 
 -12  -2   6   -0.04    0.15 
 -11  -2   6    0.59    0.18 
 -10  -2   6    0.13    0.15 
  -9  -2   6    0.01    0.14 
  -8  -2   6    3.98    0.26 
  -7  -2   6   -0.06    0.11 
  -6  -2   6    0.08    0.09 
  -5  -2   6    5.97    0.29 
  -4  -2   6    1.03    0.11 
  -3  -2   6    4.05    0.20 
  -2  -2   6    6.13    0.27 
  -1  -2   6   13.11    0.66 
  -1  -2   6   14.89    0.54 
   0  -2   6    8.25    0.33 
   0  -2   6    8.19    0.42 
   1  -2   6   12.21    0.60 
   1  -2   6   12.08    0.47 
   2  -2   6    5.08    0.29 
   2  -2   6    4.83    0.22 
   3  -2   6    2.84    0.21 
   3  -2   6    2.80    0.16 
   4  -2   6    1.02    0.16 
   5  -2   6    4.57    0.32 
   6  -2   6    0.10    0.13 
   7  -2   6    0.02    0.16 
   8  -2   6    2.85    0.29 
   9  -2   6    0.05    0.19 
 -11   2  -6    0.43    0.21 
 -12   2  -6    0.25    0.20 
 -12  -1   6    0.11    0.16 
 -11  -1   6    0.01    0.16 
 -10  -1   6    0.61    0.18 
  -9  -1   6   -0.16    0.13 
  -8  -1   6    2.23    0.20 
  -7  -1   6    5.44    0.30 
  -6  -1   6    3.22    0.21 
  -5  -1   6    0.18    0.08 
  -4  -1   6    1.61    0.13 
  -3  -1   6    0.31    0.07 
  -2  -1   6    2.15    0.13 
  -1  -1   6    0.37    0.07 
  -1  -1   6    0.41    0.07 
   0  -1   6   -0.09    0.05 
   0  -1   6    0.09    0.06 
   1  -1   6    0.26    0.08 
   1  -1   6    0.37    0.07 
   2  -1   6    1.73    0.12 
   2  -1   6    2.03    0.16 
   3  -1   6    0.21    0.07 
   3  -1   6    0.20    0.09 
   4  -1   6    1.19    0.15 
   5  -1   6    0.08    0.11 
   6  -1   6    2.32    0.23 
   7  -1   6    3.44    0.31 
   8  -1   6    1.84    0.28 
   9  -1   6   -0.09    0.18 
  10  -1   6    0.52    0.24 
  11  -1   6    0.45    0.22 
 -13   0   6    0.23    0.18 
 -12   0   6    1.30    0.22 
 -11   0   6    0.15    0.16 
 -10   0   6    4.30    0.30 
  -9   0   6    0.25    0.15 
  -8   0   6    0.08    0.12 
  -7   0   6    0.38    0.12 
  -6   0   6    1.37    0.16 
  -5   0   6    3.12    0.20 
  -4   0   6    4.92    0.25 
  -3   0   6    5.24    0.25 
  -2   0   6    3.80    0.19 
  -1   0   6   29.23    1.05 
  -1   0   6   28.97    1.33 
   0   0   6   33.62    1.53 
   0   0   6   32.85    1.19 
   1   0   6   25.74    0.94 
   1   0   6   26.76    1.22 
   2   0   6    3.10    0.15 
   2   0   6    3.35    0.22 
   3   0   6    3.73    0.25 
   3   0   6    3.97    0.18 
  -4   0  -6    3.55    0.24 
   4   0   6    3.61    0.26 
  -5   0  -6    2.14    0.20 
   5   0   6    2.19    0.21 
  -6   0  -6    1.03    0.20 
   6   0   6    0.96    0.20 
  -7   0  -6    0.11    0.18 
   7   0   6    0.23    0.19 
  -8   0  -6   -0.25    0.19 
   8   0   6   -0.23    0.16 
  -9   0  -6    0.01    0.22 
   9   0   6    0.20    0.20 
 -10   0  -6    3.60    0.39 
  10   0   6    3.62    0.35 
  11   0   6    0.22    0.21 
 -13   1   6    0.48    0.19 
 -12   1   6    0.01    0.16 
 -11   1   6    0.24    0.16 
 -10   1   6    0.44    0.17 
  -9   1   6   -0.16    0.12 
  -8   1   6    1.78    0.18 
  -7   1   6    5.00    0.29 
  -6   1   6    3.09    0.20 
  -5   1   6    0.19    0.08 
  -4   1   6    1.78    0.14 
  -3   1   6    0.26    0.07 
  -2   1   6    2.27    0.14 
  -2   1   6    2.18    0.15 
  -1   1   6    0.43    0.08 
  -1   1   6    0.41    0.07 
   0   1   6   -0.06    0.06 
   0   1   6   -0.02    0.05 
   1   1   6    0.34    0.06 
   1   1   6    0.45    0.10 
  -2  -1  -6    1.74    0.14 
   2   1   6    2.00    0.16 
  -3  -1  -6    0.19    0.08 
   3   1   6    0.24    0.09 
  -4  -1  -6    1.13    0.13 
   4   1   6    1.11    0.15 
  -5  -1  -6    0.10    0.11 
   5   1   6    0.20    0.11 
  -6  -1  -6    2.40    0.24 
   6   1   6    2.24    0.23 
  -7  -1  -6    3.70    0.33 
   7   1   6    3.86    0.33 
  -8  -1  -6    1.87    0.30 
   8   1   6    1.83    0.29 
  -9  -1  -6   -0.18    0.21 
   9   1   6    0.00    0.17 
 -10  -1  -6    0.46    0.29 
  10   1   6    0.74    0.25 
 -11  -1  -6    0.16    0.25 
  11   1   6    0.05    0.20 
 -12   2   6    0.17    0.17 
 -11   2   6    0.48    0.18 
 -10   2   6    0.10    0.16 
  -9   2   6   -0.03    0.13 
  -8   2   6    3.47    0.25 
  -7   2   6   -0.08    0.10 
  -6   2   6   -0.03    0.08 
  -5   2   6    6.39    0.31 
  -4   2   6    0.89    0.11 
  -4   2   6    1.08    0.12 
  -3   2   6    3.76    0.20 
  -3   2   6    3.52    0.22 
  -2   2   6    6.40    0.28 
  -2   2   6    6.17    0.34 
  -1   2   6   13.12    0.66 
  -1   2   6   14.15    0.52 
   0   2   6    7.70    0.41 
   0   2   6    7.65    0.31 
   1   2   6   12.49    0.63 
  -2  -2  -6    5.08    0.31 
   2   2   6    4.96    0.21 
   2   2   6    5.46    0.31 
  -3  -2  -6    2.75    0.20 
   3   2   6    2.98    0.22 
   3   2   6    3.10    0.15 
  -4  -2  -6    0.77    0.12 
   4   2   6    1.05    0.17 
  -5  -2  -6    4.64    0.32 
   5   2   6    4.65    0.31 
  -6  -2  -6    0.07    0.16 
   6   2   6    0.11    0.13 
  -7  -2  -6    0.02    0.20 
   7   2   6    0.07    0.17 
  -8  -2  -6    3.00    0.31 
   8   2   6    2.88    0.30 
  -9  -2  -6   -0.14    0.22 
   9   2   6    0.07    0.19 
 -10  -2  -6   -0.23    0.25 
  10   2   6    0.17    0.21 
 -11  -2  -6    0.51    0.29 
  11   2   6    0.69    0.23 
 -12   3   6    0.10    0.16 
 -11   3   6    0.49    0.18 
 -10   3   6    0.25    0.16 
  -9   3   6    0.51    0.18 
  -8   3   6    0.29    0.14 
  -7   3   6    1.74    0.19 
  -7   3   6    2.31    0.23 
  -6   3   6    1.39    0.17 
  -6   3   6    1.39    0.16 
  -5   3   6    0.21    0.11 
  -5   3   6    0.22    0.09 
  -4   3   6    0.47    0.10 
  -4   3   6    0.62    0.11 
  -3   3   6    2.67    0.19 
  -3   3   6    2.76    0.17 
  -2   3   6    0.03    0.08 
  -2   3   6    0.00    0.06 
  -1   3   6    1.07    0.14 
  -1   3   6    0.96    0.09 
   0   3   6   -0.01    0.03 
   0   3   6   -0.07    0.07 
   1   3   6    0.95    0.09 
   1   3   6    1.02    0.14 
  -2  -3  -6    0.01    0.08 
   2   3   6    0.10    0.05 
   2   3   6    0.02    0.08 
  -3  -3  -6    2.04    0.18 
   3   3   6    1.86    0.18 
  -4  -3  -6    0.48    0.14 
   4   3   6    0.30    0.13 
  -5  -3  -6    0.24    0.13 
   5   3   6    0.17    0.12 
  -6  -3  -6    1.26    0.23 
   6   3   6    1.24    0.20 
  -7  -3  -6    1.73    0.25 
   7   3   6    1.81    0.26 
  -8  -3  -6    0.39    0.24 
   8   3   6    0.07    0.19 
  -9  -3  -6    0.29    0.26 
   9   3   6    0.56    0.22 
 -10  -3  -6    0.01    0.24 
  10   3   6    0.02    0.21 
 -11  -3  -6    0.15    0.27 
  11   3   6    0.63    0.22 
 -12   4   6    0.35    0.17 
 -11   4   6    0.18    0.17 
 -10   4   6   -0.03    0.16 
  -9   4   6    0.18    0.16 
  -8   4   6    1.68    0.22 
  -7   4   6    0.85    0.17 
  -7   4   6    1.16    0.21 
  -6   4   6    0.05    0.09 
  -6   4   6    0.10    0.13 
  -5   4   6    1.29    0.15 
  -5   4   6    1.32    0.17 
  -4   4   6    2.12    0.19 
  -4   4   6    2.19    0.17 
  -3   4   6    8.68    0.49 
  -3   4   6    9.63    0.40 
  -2   4   6   21.25    1.05 
  -2   4   6   23.08    0.83 
  -1   4   6    4.24    0.20 
  -1   4   6    4.18    0.27 
   0   4   6    0.62    0.07 
   1   4   6    3.36    0.16 
   1   4   6    3.55    0.24 
  -2  -4  -6   17.49    0.97 
   2   4   6   18.73    0.90 
  -3  -4  -6    8.20    0.47 
   3   4   6    7.15    0.44 
  -4  -4  -6    1.81    0.19 
   4   4   6    1.65    0.19 
  -5  -4  -6    1.38    0.22 
   5   4   6    1.09    0.19 
  -6  -4  -6   -0.08    0.16 
   6   4   6    0.04    0.14 
  -7  -4  -6    0.90    0.25 
   7   4   6    0.72    0.19 
  -8  -4  -6    1.78    0.31 
   8   4   6    1.74    0.28 
  -9  -4  -6    0.19    0.25 
   9   4   6    0.44    0.21 
 -10  -4  -6    0.23    0.26 
  10   4   6    0.29    0.22 
 -11  -4  -6   -0.10    0.25 
 -12  -4  -6    0.48    0.29 
 -12   5   6    0.41    0.19 
 -11   5   6    0.11    0.17 
 -10   5   6    0.57    0.19 
  -9   5   6    1.79    0.24 
  -8   5   6   -0.10    0.13 
  -7   5   6   -0.18    0.11 
  -7   5   6   -0.02    0.17 
  -6   5   6    0.05    0.14 
  -6   5   6    0.20    0.10 
  -5   5   6    0.02    0.12 
  -5   5   6    0.00    0.09 
  -4   5   6    0.98    0.13 
  -4   5   6    1.01    0.17 
  -3   5   6    0.14    0.08 
  -3   5   6    0.10    0.11 
  -2   5   6   10.94    0.58 
  -2   5   6   11.03    0.45 
  -1   5   6    0.93    0.09 
  -1   5   6    0.92    0.16 
   0   5   6   -0.03    0.04 
   0   5   6   -0.02    0.10 
   1   5   6    0.41    0.07 
   1   5   6    0.76    0.15 
  -2  -5  -6    9.19    0.54 
   2   5   6    9.26    0.52 
  -3  -5  -6    0.05    0.13 
   3   5   6    0.13    0.12 
  -4  -5  -6    0.88    0.18 
   4   5   6    0.76    0.17 
  -5  -5  -6   -0.05    0.15 
   5   5   6    0.04    0.13 
  -6  -5  -6    0.12    0.20 
   6   5   6    0.09    0.16 
  -7  -5  -6   -0.03    0.23 
   7   5   6   -0.07    0.15 
  -8  -5  -6   -0.14    0.23 
   8   5   6   -0.06    0.16 
  -9  -5  -6    1.26    0.32 
   9   5   6    1.81    0.28 
 -10  -5  -6    0.18    0.28 
  10   5   6    0.55    0.24 
 -11  -5  -6    0.05    0.28 
 -12  -5  -6    0.36    0.31 
 -12   6   6    0.20    0.18 
 -11   6   6    0.94    0.23 
 -10   6   6    1.52    0.26 
  -9   6   6    0.08    0.15 
  -8   6   6    0.80    0.18 
  -7   6   6    5.03    0.33 
  -7   6   6    5.84    0.42 
  -6   6   6    0.02    0.16 
  -6   6   6   -0.05    0.11 
  -5   6   6    1.53    0.21 
  -5   6   6    1.76    0.19 
  -4   6   6    0.16    0.14 
  -4   6   6    0.20    0.10 
  -3   6   6    1.52    0.15 
  -3   6   6    1.47    0.19 
  -2   6   6    1.28    0.17 
  -2   6   6    1.54    0.13 
  -1   6   6    3.19    0.18 
  -1   6   6    3.75    0.27 
   0   6   6   11.64    0.61 
   0   6   6   10.77    0.43 
   1   6   6    3.63    0.28 
  -2  -6  -6    1.20    0.17 
   2   6   6    1.53    0.18 
  -3  -6  -6    1.79    0.20 
   3   6   6    1.54    0.22 
  -4  -6  -6    0.14    0.16 
   4   6   6    0.08    0.13 
  -5  -6  -6    1.67    0.27 
   5   6   6    1.70    0.24 
  -6  -6  -6   -0.19    0.20 
   6   6   6   -0.09    0.14 
  -7  -6  -6    4.92    0.43 
   7   6   6    4.63    0.37 
  -8  -6  -6    0.79    0.30 
   8   6   6    1.09    0.23 
  -9  -6  -6    0.38    0.29 
   9   6   6    0.38    0.21 
 -10  -6  -6    0.83    0.33 
  10   6   6    1.50    0.28 
 -11  -6  -6    0.25    0.29 
 -12  -6  -6    0.42    0.31 
 -12   7   6    0.47    0.20 
 -11   7   6    0.03    0.18 
 -10   7   6    0.50    0.20 
  -9   7   6    1.14    0.21 
  -8   7   6    0.01    0.17 
  -8   7   6    0.00    0.13 
  -7   7   6    0.28    0.15 
  -7   7   6    0.33    0.22 
  -6   7   6    1.73    0.19 
  -6   7   6    1.96    0.28 
  -5   7   6   -0.11    0.10 
  -5   7   6    0.04    0.15 
  -4   7   6   -0.04    0.09 
  -4   7   6    0.10    0.15 
  -3   7   6    1.04    0.20 
  -3   7   6    1.08    0.14 
  -2   7   6    1.20    0.13 
  -2   7   6    1.58    0.22 
  -1   7   6    0.03    0.04 
  -1   7   6    0.17    0.15 
   0   7   6   -0.02    0.05 
   0   7   6   -0.03    0.13 
   1   7   6    0.29    0.15 
  -2  -7  -6    1.22    0.18 
   2   7   6    1.47    0.22 
  -3  -7  -6    0.82    0.20 
   3   7   6    0.64    0.18 
  -4  -7  -6    0.10    0.17 
   4   7   6   -0.09    0.13 
  -5  -7  -6    0.10    0.20 
   5   7   6   -0.07    0.13 
  -6  -7  -6    1.54    0.32 
   6   7   6    2.02    0.28 
  -7  -7  -6    0.48    0.28 
   7   7   6    0.43    0.20 
  -8  -7  -6   -0.07    0.29 
   8   7   6    0.31    0.18 
  -9  -7  -6    0.85    0.34 
   9   7   6    1.47    0.26 
 -10  -7  -6    0.36    0.32 
 -11  -7  -6    0.31    0.32 
 -12  -7  -6    0.05    0.31 
 -11   8   6    0.29    0.22 
 -10   8   6    0.18    0.16 
  -9   8   6   -0.04    0.15 
  -8   8   6    0.10    0.18 
  -8   8   6    0.23    0.16 
  -7   8   6    0.47    0.19 
  -7   8   6    0.45    0.16 
  -6   8   6    0.39    0.20 
  -6   8   6    0.32    0.15 
  -5   8   6    0.11    0.11 
  -5   8   6    0.27    0.20 
  -4   8   6    1.27    0.17 
  -4   8   6    1.21    0.24 
  -3   8   6    1.05    0.15 
  -3   8   6    1.03    0.21 
  -2   8   6    0.48    0.18 
  -2   8   6    0.40    0.10 
  -1   8   6    1.74    0.22 
   0   8   6    0.26    0.08 
   0   8   6    0.41    0.18 
   1   8   6    1.97    0.27 
  -2  -8  -6    0.56    0.19 
   2   8   6    0.64    0.20 
  -3  -8  -6    1.15    0.22 
   3   8   6    0.95    0.22 
  -4  -8  -6    1.39    0.26 
   4   8   6    1.16    0.22 
  -5  -8  -6   -0.04    0.22 
   5   8   6    0.24    0.17 
  -6  -8  -6    0.67    0.28 
   6   8   6    0.38    0.21 
  -7  -8  -6    0.13    0.28 
   7   8   6    0.49    0.22 
  -8  -8  -6   -0.31    0.27 
   8   8   6    0.30    0.20 
  -9  -8  -6   -0.11    0.32 
   9   8   6    0.52    0.21 
 -10  -8  -6    0.21    0.31 
  10   8   6    0.84    0.24 
 -11  -8  -6    0.16    0.33 
 -11   9   6    0.71    0.22 
 -10   9   6    0.53    0.19 
  -9   9   6    0.31    0.17 
  -8   9   6    0.04    0.15 
  -8   9   6   -0.04    0.19 
  -7   9   6    0.31    0.19 
  -7   9   6    0.27    0.15 
  -6   9   6   -0.06    0.12 
  -6   9   6    0.15    0.18 
  -5   9   6    1.32    0.26 
  -5   9   6    1.42    0.19 
  -4   9   6    0.75    0.21 
  -4   9   6    0.67    0.14 
  -3   9   6    1.01    0.15 
  -3   9   6    0.44    0.19 
  -2   9   6    1.72    0.16 
  -2   9   6    1.65    0.23 
  -1   9   6    0.11    0.18 
  -1   9   6    0.07    0.08 
   0   9   6    0.03    0.17 
   0   9   6    0.02    0.07 
   1   9   6    0.02    0.18 
  -2  -9  -6    1.43    0.22 
   2   9   6    1.85    0.27 
  -3  -9  -6    0.47    0.21 
   3   9   6    0.64    0.20 
  -4  -9  -6    0.56    0.24 
   4   9   6    0.92    0.23 
  -5  -9  -6    1.48    0.32 
   5   9   6    1.82    0.30 
  -6  -9  -6    0.00    0.27 
   6   9   6    0.24    0.21 
  -7  -9  -6   -0.12    0.26 
   7   9   6    0.53    0.23 
  -8  -9  -6   -0.20    0.28 
   8   9   6    0.13    0.21 
  -9  -9  -6   -0.11    0.30 
   9   9   6    0.58    0.22 
 -10  -9  -6    0.04    0.33 
 -11  -9  -6    0.36    0.35 
 -11  10   6    0.65    0.20 
 -10  10   6    0.39    0.18 
  -9  10   6    0.23    0.17 
  -8  10   6    0.01    0.16 
  -8  10   6    0.00    0.20 
  -7  10   6    0.38    0.21 
  -7  10   6    0.54    0.17 
  -6  10   6    0.32    0.21 
  -6  10   6    0.43    0.16 
  -5  10   6    1.35    0.19 
  -5  10   6    1.31    0.27 
  -4  10   6    1.26    0.16 
  -4  10   6    0.77    0.24 
  -3  10   6    0.08    0.10 
  -3  10   6   -0.18    0.15 
  -2  10   6    0.35    0.11 
  -2  10   6    0.32    0.19 
  -1  10   6   -0.08    0.18 
  -1  10   6    0.09    0.09 
   0  10   6    4.18    0.22 
   0  10   6    4.10    0.35 
   1  10   6   -0.17    0.18 
  -2 -10  -6    0.47    0.22 
   2  10   6    0.19    0.21 
  -3 -10  -6   -0.16    0.19 
   3  10   6   -0.03    0.17 
  -4 -10  -6    0.82    0.27 
   4  10   6    1.25    0.27 
  -5 -10  -6    1.07    0.31 
   5  10   6    1.81    0.31 
  -6 -10  -6    0.37    0.29 
   6  10   6    0.58    0.26 
  -7 -10  -6    0.06    0.29 
   7  10   6    0.73    0.26 
  -8 -10  -6   -0.21    0.30 
   8  10   6    0.73    0.24 
  -9 -10  -6   -0.13    0.29 
   9  10   6    0.31    0.23 
 -10 -10  -6   -0.08    0.33 
 -11 -10  -6    0.25    0.36 
 -10  11   6    0.19    0.19 
  -9  11   6    0.07    0.18 
  -8  11   6    0.21    0.18 
  -8  11   6    0.20    0.20 
  -7  11   6    0.00    0.15 
  -7  11   6    0.17    0.21 
  -6  11   6    1.72    0.31 
  -6  11   6    1.73    0.22 
  -5  11   6    0.67    0.25 
  -5  11   6    0.35    0.15 
  -4  11   6    1.28    0.17 
  -4  11   6    1.09    0.27 
  -3  11   6    0.80    0.15 
  -3  11   6    0.36    0.21 
  -2  11   6    0.53    0.23 
  -2  11   6    0.15    0.11 
  -1  11   6    2.26    0.33 
  -1  11   6    1.91    0.18 
   0  11   6   -0.04    0.19 
   1  11   6    2.21    0.29 
  -2 -11  -6    0.37    0.23 
   2  11   6    0.14    0.22 
  -3 -11  -6    0.39    0.24 
   3  11   6    0.45    0.24 
  -4 -11  -6    0.91    0.28 
   4  11   6    1.34    0.29 
  -5 -11  -6    0.43    0.27 
   5  11   6    0.33    0.27 
  -6 -11  -6    1.62    0.36 
   6  11   6    1.94    0.35 
  -7 -11  -6   -0.16    0.28 
   7  11   6    0.08    0.24 
  -8 -11  -6    0.04    0.31 
   8  11   6    0.83    0.27 
  -9 -11  -6   -0.24    0.31 
   9  11   6    0.67    0.25 
 -10 -11  -6    0.02    0.35 
 -10  12   6    0.33    0.18 
  -9  12   6    0.42    0.19 
  -8  12   6    0.77    0.19 
  -8  12   6    0.68    0.25 
  -7  12   6   -0.08    0.15 
  -7  12   6    0.03    0.20 
  -6  12   6    0.17    0.15 
  -6  12   6    0.25    0.23 
  -5  12   6    1.37    0.19 
  -5  12   6    1.17    0.29 
  -4  12   6    0.24    0.21 
  -4  12   6    0.21    0.12 
  -3  12   6   -0.04    0.10 
  -3  12   6   -0.11    0.18 
  -2  12   6    0.54    0.24 
  -2  12   6    0.31    0.12 
  -1  12   6    0.53    0.25 
   0  12   6   -0.02    0.21 
   1  12   6    0.83    0.28 
   2  12   6    0.41    0.24 
  -3 -12  -6   -0.19    0.23 
   3  12   6   -0.22    0.22 
  -4 -12  -6   -0.07    0.24 
   4  12   6    0.54    0.26 
  -5 -12  -6    0.93    0.30 
   5  12   6    1.70    0.34 
  -6 -12  -6    0.10    0.28 
   6  12   6    0.18    0.25 
  -7 -12  -6   -0.10    0.30 
   7  12   6    0.50    0.26 
  -8 -12  -6    0.07    0.31 
   8  12   6    0.86    0.29 
  -9 -12  -6   -0.37    0.33 
 -10 -12  -6   -0.41    0.32 
  -9  13   6    0.38    0.19 
  -8  13   6    0.37    0.23 
  -8  13   6    0.16    0.17 
  -7  13   6    0.05    0.16 
  -7  13   6   -0.03    0.19 
  -6  13   6    0.16    0.20 
  -6  13   6    0.14    0.14 
  -5  13   6    0.47    0.16 
  -5  13   6    0.23    0.23 
  -4  13   6    0.33    0.15 
  -4  13   6    0.41    0.22 
  -3  13   6    0.36    0.12 
  -3  13   6   -0.15    0.21 
  -2  13   6   -0.04    0.22 
  -1  13   6    0.07    0.24 
   0  13   6   -0.21    0.21 
   1  13   6    0.34    0.26 
   2  13   6    0.05    0.23 
  -3 -13  -6    0.05    0.25 
   3  13   6    0.69    0.28 
  -4 -13  -6    0.31    0.27 
   4  13   6    0.43    0.28 
  -5 -13  -6    0.32    0.28 
   5  13   6    0.50    0.31 
  -6 -13  -6   -0.18    0.28 
   6  13   6    0.01    0.26 
  -7 -13  -6   -0.22    0.30 
   7  13   6    0.47    0.26 
  -8 -13  -6   -0.26    0.32 
   8  13   6    0.87    0.31 
  -9 -13  -6   -0.30    0.34 
  -8  14   6    0.12    0.20 
  -8  14   6    0.62    0.20 
  -7  14   6    0.18    0.20 
  -7  14   6    0.34    0.17 
  -6  14   6    0.09    0.15 
  -6  14   6    0.31    0.21 
  -5  14   6    0.53    0.15 
  -5  14   6    0.29    0.22 
  -4  14   6    0.18    0.22 
  -4  14   6    0.24    0.13 
  -3  14   6   -0.13    0.21 
  -2  14   6   -0.14    0.22 
  -1  14   6   -0.13    0.24 
   0  14   6    0.23    0.24 
   1  14   6   -0.01    0.25 
   2  14   6   -0.14    0.25 
  -3 -14  -6   -0.12    0.26 
   3  14   6   -0.18    0.27 
  -4 -14  -6    0.27    0.29 
   4  14   6    0.63    0.29 
  -5 -14  -6    0.41    0.29 
   5  14   6    0.26    0.31 
  -6 -14  -6   -0.09    0.28 
   6  14   6    0.26    0.27 
  -7 -14  -6   -0.46    0.30 
   7  14   6    0.63    0.30 
  -8 -14  -6    0.03    0.37 
   8  14   6    1.32    0.31 
  -7  15   6    0.18    0.17 
  -7  15   6    0.33    0.23 
  -6  15   6    0.35    0.17 
  -6  15   6   -0.02    0.19 
  -5  15   6    0.19    0.15 
  -5  15   6    0.00    0.21 
  -4  15   6    0.17    0.21 
  -3  15   6    1.35    0.31 
  -2  15   6    0.12    0.24 
  -1  15   6    0.09    0.24 
   0  15   6   -0.14    0.22 
   1  15   6    0.17    0.25 
   2  15   6    0.15    0.27 
   3  15   6    1.60    0.37 
  -4 -15  -6   -0.04    0.30 
   4  15   6    0.27    0.30 
  -5 -15  -6    0.02    0.30 
   5  15   6    0.27    0.28 
  -6 -15  -6   -0.23    0.27 
   6  15   6    0.66    0.28 
  -7 -15  -6   -0.41    0.31 
   7  15   6    0.62    0.30 
  -6  16   6    0.28    0.20 
  -5  16   6    0.14    0.22 
  -4  16   6    0.33    0.22 
  -3  16   6    0.20    0.24 
  -2  16   6    0.08    0.25 
  -1  16   6    0.24    0.26 
   0  16   6    0.19    0.23 
   1  16   6    0.67    0.27 
   2  16   6    0.17    0.26 
   3  16   6    0.39    0.30 
   4  16   6    0.64    0.29 
  -5 -16  -6   -0.11    0.32 
   5  16   6    0.66    0.29 
  -6 -16  -6   -0.47    0.30 
   6  16   6    0.93    0.31 
  -5  17   6    0.44    0.23 
  -4  17   6    0.48    0.25 
  -3  17   6    0.40    0.23 
  -2  17   6    0.20    0.26 
  -1  17   6    0.42    0.24 
   0  17   6    0.24    0.23 
   1  17   6    0.21    0.24 
   2  17   6    0.60    0.28 
   3  17   6    1.12    0.33 
   4  17   6    0.86    0.29 
  -5 -17  -6    0.31    0.37 
   5  17   6    1.75    0.36 
  -3  18   6    0.38    0.25 
  -2  18   6    0.46    0.23 
  -1  18   6    0.55    0.24 
   0  18   6    0.91    0.26 
   1  18   6    0.61    0.26 
   2  18   6    1.06    0.31 
   3  18   6    1.16    0.32 
  -3 -18   7   -0.19    0.33 
   1  18  -7    0.53    0.26 
   0  18  -7    0.66    0.28 
  -1  18  -7    0.67    0.29 
  -2  18  -7    0.29    0.26 
  -5 -17   7   -0.12    0.32 
  -4 -17   7   -0.24    0.30 
  -3 -17   7    0.81    0.35 
  -2 -17   7   -0.38    0.32 
   1  17  -7    0.65    0.26 
   0  17  -7    0.15    0.24 
  -1  17  -7    0.25    0.27 
  -2  17  -7    0.75    0.27 
  -3  17  -7    0.60    0.27 
  -4  17  -7    0.82    0.28 
  -6 -16   7    0.06    0.32 
  -5 -16   7    0.22    0.33 
  -4 -16   7    0.19    0.32 
  -3 -16   7   -0.17    0.28 
   2  16  -7    0.52    0.22 
  -2 -16   7   -0.30    0.28 
   1  16  -7    0.01    0.23 
   0  16  -7    0.47    0.27 
  -1  16  -7    0.19    0.25 
  -2  16  -7    0.23    0.23 
  -3  16  -7    0.09    0.24 
  -4  16  -7    0.37    0.24 
  -5  16  -7    0.47    0.22 
  -6  16  -7    0.44    0.23 
  -7 -15   7    0.00    0.33 
  -6 -15   7   -0.28    0.29 
  -5 -15   7    0.19    0.30 
  -4 -15   7   -0.28    0.28 
  -3 -15   7    0.13    0.28 
   2  15  -7    0.33    0.22 
  -2 -15   7   -0.04    0.27 
   1  15  -7    1.16    0.29 
  -1 -15   7    1.36    0.34 
  -1 -15   7    1.17    0.21 
   0  15  -7    0.36    0.23 
  -1  15  -7    0.77    0.29 
  -2  15  -7   -0.20    0.21 
  -3  15  -7    0.20    0.22 
  -4  15  -7    0.22    0.21 
  -5  15  -7    0.42    0.23 
  -6  15  -7    0.16    0.19 
  -7  15  -7   -0.05    0.17 
  -8 -14   7   -0.26    0.30 
  -7 -14   7   -0.15    0.28 
  -6 -14   7   -0.18    0.27 
  -5 -14   7   -0.17    0.27 
  -4 -14   7    0.29    0.29 
  -3 -14   7   -0.19    0.25 
   2  14  -7    0.36    0.20 
  -2 -14   7   -0.27    0.23 
  -2 -14   7   -0.12    0.14 
   1  14  -7    0.19    0.22 
  -1 -14   7    0.22    0.15 
  -1 -14   7    0.07    0.27 
   0  14  -7    0.00    0.20 
   0 -14   7   -0.07    0.14 
  -1  14  -7    0.39    0.22 
  -2  14  -7    0.07    0.21 
  -3  14  -7    0.20    0.23 
  -4  14  -7    0.18    0.23 
  -5  14  -7    0.19    0.18 
  -6  14  -7    0.39    0.20 
  -7  14  -7    0.33    0.26 
  -8  14  -7    0.07    0.20 
  -9 -13   7    0.94    0.32 
  -8 -13   7    0.21    0.29 
  -7 -13   7    0.01    0.27 
  -6 -13   7   -0.18    0.25 
  -5 -13   7   -0.02    0.26 
  -4 -13   7   -0.36    0.25 
   3  13  -7    0.80    0.24 
  -3 -13   7    0.43    0.27 
  -3 -13   7    0.42    0.15 
   2  13  -7   -0.02    0.20 
  -2 -13   7    0.05    0.13 
  -2 -13   7   -0.20    0.22 
   1  13  -7    0.13    0.19 
  -1 -13   7    0.04    0.13 
  -1 -13   7   -0.09    0.23 
   0  13  -7    0.23    0.21 
   0 -13   7    0.17    0.14 
  -1  13  -7    0.12    0.19 
  -2  13  -7    0.04    0.19 
  -3  13  -7    0.33    0.22 
  -4  13  -7   -0.02    0.17 
  -5  13  -7    0.08    0.17 
  -6  13  -7    0.05    0.18 
  -7  13  -7   -0.13    0.18 
  -8  13  -7   -0.01    0.17 
  -9  13  -7    0.32    0.20 
  -9 -12   7   -0.10    0.27 
  -8 -12   7    0.14    0.28 
  -7 -12   7    0.19    0.28 
  -6 -12   7   -0.09    0.25 
  -5 -12   7    2.30    0.31 
  -4 -12   7   -0.11    0.23 
  -4 -12   7   -0.11    0.11 
   3  12  -7   -0.05    0.18 
  -3 -12   7   -0.27    0.21 
  -3 -12   7    0.02    0.12 
   2  12  -7    0.56    0.22 
  -2 -12   7    0.68    0.15 
  -2 -12   7    0.66    0.25 
   1  12  -7    1.05    0.25 
  -1 -12   7    1.13    0.26 
  -1 -12   7    0.86    0.17 
   0  12  -7    0.29    0.21 
   0 -12   7    0.46    0.26 
   0 -12   7    0.34    0.14 
  -1  12  -7    0.82    0.23 
   1 -12   7    0.57    0.16 
  -2  12  -7    0.58    0.22 
  -3  12  -7    0.28    0.18 
  -4  12  -7   -0.22    0.14 
  -5  12  -7    0.63    0.20 
  -6  12  -7    0.28    0.18 
  -7  12  -7    0.21    0.19 
  -8  12  -7    0.25    0.20 
  -9  12  -7    0.02    0.22 
 -10 -11   7    0.36    0.27 
  -9 -11   7    0.18    0.26 
  -8 -11   7    0.09    0.25 
  -7 -11   7    0.14    0.24 
  -6 -11   7    2.01    0.35 
  -5 -11   7    1.34    0.31 
  -5 -11   7    1.40    0.18 
  -4 -11   7    0.16    0.12 
  -4 -11   7   -0.26    0.20 
   3  11  -7    0.10    0.18 
  -3 -11   7    0.18    0.11 
  -3 -11   7    0.08    0.21 
   2  11  -7   -0.19    0.19 
  -2 -11   7    0.14    0.21 
  -2 -11   7    0.18    0.12 
   1  11  -7    4.71    0.39 
  -1 -11   7    5.15    0.40 
  -1 -11   7    5.46    0.29 
   0  11  -7   -0.24    0.17 
   0 -11   7   -0.15    0.12 
   0 -11   7   -0.12    0.24 
  -1  11  -7    4.91    0.38 
   1 -11   7    4.47    0.28 
  -2  11  -7    0.02    0.14 
   2 -11   7   -0.02    0.12 
  -3  11  -7    0.03    0.14 
  -4  11  -7   -0.09    0.14 
  -5  11  -7    0.48    0.18 
  -6  11  -7    0.52    0.20 
  -7  11  -7    0.24    0.18 
  -8  11  -7    0.18    0.19 
  -9  11  -7    0.05    0.22 
 -10  11  -7    0.50    0.26 
 -10 -10   7    0.51    0.29 
  -9 -10   7   -0.15    0.24 
  -8 -10   7    0.36    0.27 
  -7 -10   7    0.55    0.25 
  -6 -10   7    0.08    0.11 
  -6 -10   7    0.03    0.21 
  -5 -10   7    1.18    0.16 
  -5 -10   7    1.03    0.27 
  -4 -10   7    0.40    0.13 
  -4 -10   7    0.44    0.23 
   3  10  -7    0.01    0.12 
  -3 -10   7    0.02    0.11 
  -3 -10   7   -0.06    0.19 
   2  10  -7    0.42    0.21 
  -2 -10   7    0.54    0.23 
  -2 -10   7    0.38    0.12 
   1  10  -7    3.65    0.33 
  -1 -10   7    4.02    0.34 
  -1 -10   7    3.73    0.24 
   0  10  -7    1.15    0.26 
   0 -10   7    1.44    0.27 
   0 -10   7    1.01    0.16 
  -1  10  -7    3.33    0.30 
   1 -10   7    3.08    0.21 
  -2  10  -7    0.44    0.17 
   2 -10   7    0.19    0.13 
  -3  10  -7    0.02    0.13 
  -4  10  -7    0.18    0.15 
  -5  10  -7    0.55    0.18 
  -6  10  -7   -0.06    0.15 
  -7  10  -7    0.10    0.18 
  -8  10  -7   -0.17    0.17 
  -9  10  -7    0.00    0.19 
 -10  10  -7    0.58    0.25 
 -11  -9   7    0.89    0.30 
 -10  -9   7    0.05    0.28 
  -9  -9   7    0.09    0.26 
  -8  -9   7    0.22    0.22 
  -7  -9   7   -0.02    0.11 
  -7  -9   7    0.00    0.20 
  -6  -9   7    2.66    0.31 
  -6  -9   7    2.62    0.20 
  -5  -9   7    0.31    0.13 
  -5  -9   7    0.24    0.20 
   4   9  -7    1.59    0.22 
  -4  -9   7    1.67    0.16 
  -4  -9   7    1.93    0.24 
   3   9  -7    1.73    0.23 
  -3  -9   7    1.88    0.25 
  -3  -9   7    1.94    0.17 
   2   9  -7    1.10    0.22 
  -2  -9   7    1.45    0.25 
  -2  -9   7    1.23    0.15 
   1   9  -7    0.83    0.21 
  -1  -9   7    0.94    0.15 
  -1  -9   7    1.04    0.22 
   0   9  -7   -0.07    0.14 
   0  -9   7   -0.10    0.13 
   0  -9   7   -0.08    0.10 
  -1   9  -7    0.92    0.20 
   1  -9   7    0.74    0.14 
  -2   9  -7    0.77    0.18 
   2  -9   7    0.73    0.14 
  -3   9  -7    0.95    0.20 
  -4   9  -7    1.01    0.21 
  -5   9  -7    0.27    0.16 
  -6   9  -7    2.00    0.27 
  -7   9  -7   -0.03    0.17 
  -8   9  -7   -0.09    0.18 
  -9   9  -7   -0.13    0.19 
 -10   9  -7    0.12    0.22 
 -11   9  -7    0.42    0.23 
 -11  -8   7    0.60    0.32 
 -10  -8   7    0.29    0.28 
  -9  -8   7    0.00    0.25 
  -8  -8   7    0.00    0.14 
  -8  -8   7    0.23    0.24 
  -7  -8   7    0.08    0.12 
  -7  -8   7   -0.06    0.22 
  -6  -8   7   -0.04    0.11 
  -6  -8   7    0.03    0.20 
  -5  -8   7    2.77    0.20 
  -5  -8   7    2.74    0.29 
  -4  -8   7   -0.03    0.10 
  -4  -8   7    0.06    0.20 
   3   8  -7   -0.05    0.15 
  -3  -8   7    0.12    0.18 
  -3  -8   7    0.16    0.10 
   2   8  -7    0.03    0.09 
  -2  -8   7    0.14    0.17 
  -2  -8   7    0.06    0.10 
   1   8  -7    0.66    0.16 
  -1  -8   7    0.55    0.18 
  -1  -8   7    0.44    0.11 
   0   8  -7    1.39    0.21 
   0  -8   7    1.35    0.14 
  -1   8  -7    0.45    0.16 
   1  -8   7    0.56    0.12 
  -2   8  -7    0.06    0.13 
   2  -8   7    0.05    0.09 
  -3   8  -7    0.03    0.12 
   3  -8   7    0.08    0.10 
  -4   8  -7    0.17    0.13 
  -5   8  -7    1.91    0.24 
  -6   8  -7   -0.01    0.15 
  -7   8  -7    0.12    0.18 
  -8   8  -7   -0.11    0.17 
  -9   8  -7    0.05    0.19 
 -10   8  -7    0.24    0.24 
 -11   8  -7   -0.06    0.21 
 -12  -7   7    0.72    0.32 
 -11  -7   7    0.42    0.30 
 -10  -7   7    0.28    0.26 
  -9  -7   7    0.11    0.23 
  -9  -7   7   -0.08    0.14 
  -8  -7   7    0.04    0.22 
  -8  -7   7    0.03    0.14 
  -7  -7   7    1.73    0.18 
  -7  -7   7    1.55    0.33 
  -6  -7   7   -0.07    0.19 
  -6  -7   7   -0.04    0.11 
  -5  -7   7    1.79    0.25 
  -5  -7   7    1.80    0.16 
  -4  -7   7    0.23    0.19 
  -4  -7   7    0.36    0.11 
   3   7  -7    1.20    0.20 
  -3  -7   7    1.24    0.14 
  -3  -7   7    1.29    0.23 
   2   7  -7    2.17    0.20 
  -2  -7   7    2.92    0.18 
  -2  -7   7    3.02    0.26 
   1   7  -7    0.53    0.14 
  -1  -7   7    0.18    0.13 
  -1  -7   7    0.61    0.11 
   0   7  -7   -0.02    0.11 
   0  -7   7   -0.15    0.12 
   0  -7   7    0.02    0.08 
  -1   7  -7    0.60    0.16 
   1  -7   7    0.55    0.11 
  -2   7  -7    2.16    0.22 
   2  -7   7    2.39    0.17 
  -3   7  -7    0.87    0.18 
   3  -7   7    1.06    0.14 
  -4   7  -7    0.25    0.13 
  -5   7  -7    0.83    0.20 
  -6   7  -7   -0.14    0.12 
  -7   7  -7    1.12    0.26 
  -8   7  -7   -0.14    0.16 
  -9   7  -7    0.07    0.21 
 -10   7  -7   -0.11    0.21 
 -11   7  -7    0.18    0.23 
 -12  -6   7    0.61    0.33 
 -11  -6   7    0.37    0.26 
 -10  -6   7    0.14    0.15 
 -10  -6   7    0.16    0.25 
  -9  -6   7    0.88    0.18 
  -9  -6   7    0.80    0.29 
  -8  -6   7    0.14    0.21 
  -8  -6   7   -0.14    0.13 
  -7  -6   7    1.88    0.19 
  -7  -6   7    1.90    0.29 
  -6  -6   7    0.17    0.18 
  -6  -6   7   -0.04    0.11 
  -5  -6   7    0.43    0.21 
  -5  -6   7    0.47    0.12 
  -4  -6   7    1.35    0.14 
  -4  -6   7    1.73    0.27 
  -3  -6   7    2.45    0.17 
  -3  -6   7    2.58    0.25 
   2   6  -7    1.01    0.14 
  -2  -6   7    1.26    0.13 
  -2  -6   7    1.24    0.19 
   1   6  -7   -0.08    0.09 
  -1  -6   7   -0.13    0.07 
  -1  -6   7   -0.01    0.08 
   0   6  -7    0.27    0.12 
   0  -6   7    0.30    0.12 
   0  -6   7    0.28    0.09 
  -1   6  -7   -0.06    0.09 
   1  -6   7    0.06    0.08 
  -2   6  -7    0.98    0.17 
   2  -6   7    0.94    0.12 
  -3   6  -7    1.84    0.21 
   3  -6   7    1.83    0.16 
  -4   6  -7    1.01    0.20 
  -5   6  -7    0.32    0.15 
  -6   6  -7    0.11    0.15 
  -7   6  -7    1.39    0.28 
  -8   6  -7    0.01    0.18 
  -9   6  -7    0.43    0.23 
 -10   6  -7    0.07    0.22 
 -11   6  -7    0.26    0.24 
 -12   6  -7    0.37    0.23 
 -12  -5   7    0.54    0.31 
 -11  -5   7    0.08    0.16 
 -11  -5   7    0.26    0.27 
 -10  -5   7    0.27    0.28 
 -10  -5   7    0.02    0.14 
  -9  -5   7    0.94    0.30 
  -9  -5   7    0.93    0.19 
  -8  -5   7    0.21    0.15 
  -8  -5   7    0.28    0.24 
  -7  -5   7    2.23    0.31 
  -7  -5   7    2.25    0.20 
  -6  -5   7    0.16    0.11 
  -6  -5   7    0.23    0.18 
  -5  -5   7   -0.01    0.09 
  -5  -5   7   -0.07    0.17 
  -4  -5   7    0.89    0.21 
  -4  -5   7    0.73    0.12 
  -3  -5   7    7.72    0.50 
  -3  -5   7    7.94    0.35 
   2   5  -7    1.37    0.15 
  -2  -5   7    1.71    0.13 
  -2  -5   7    1.55    0.19 
   1   5  -7    2.38    0.19 
  -1  -5   7    2.99    0.21 
   0   5  -7   -0.06    0.08 
   0  -5   7   -0.05    0.07 
   0  -5   7   -0.03    0.09 
  -1   5  -7    3.80    0.27 
   1  -5   7    4.11    0.21 
  -2   5  -7    1.20    0.16 
   2  -5   7    1.43    0.15 
  -3   5  -7    5.91    0.37 
   3  -5   7    5.39    0.28 
  -4   5  -7    0.52    0.15 
  -5   5  -7   -0.04    0.11 
  -6   5  -7    0.10    0.14 
  -7   5  -7    1.28    0.27 
  -8   5  -7    0.15    0.20 
  -9   5  -7    0.48    0.23 
 -10   5  -7   -0.08    0.19 
 -11   5  -7    0.06    0.22 
 -12   5  -7   -0.23    0.19 
 -12  -4   7    0.37    0.30 
 -11  -4   7    0.11    0.15 
 -10  -4   7    0.01    0.14 
  -9  -4   7    0.54    0.16 
  -8  -4   7    3.93    0.26 
  -7  -4   7    0.15    0.13 
  -6  -4   7    0.96    0.15 
  -5  -4   7    5.87    0.29 
  -4  -4   7    2.41    0.16 
  -3  -4   7    0.17    0.08 
   2   4  -7    0.96    0.12 
  -2  -4   7    1.17    0.12 
  -2  -4   7    1.35    0.19 
  -1  -4   7    4.12    0.21 
  -1  -4   7    3.89    0.27 
   0   4  -7    1.65    0.15 
   0  -4   7    1.41    0.12 
   0  -4   7    1.40    0.13 
   1  -4   7    3.46    0.19 
   2  -4   7    0.86    0.12 
   2  -4   7    1.02    0.15 
   3  -4   7   -0.22    0.08 
   3  -4   7   -0.06    0.09 
   4  -4   7    1.63    0.18 
   5  -4   7    3.94    0.30 
   6  -4   7    0.71    0.18 
  -8   4  -7    2.43    0.30 
  -9   4  -7    0.06    0.19 
 -10   4  -7    0.13    0.21 
 -11   4  -7    0.11    0.20 
 -12   4  -7    0.13    0.21 
 -12  -3   7    0.27    0.17 
 -11  -3   7    0.13    0.16 
  -9  -3   7    1.91    0.23 
  -8  -3   7    1.70    0.20 
  -7  -3   7    8.35    0.40 
  -6  -3   7    0.01    0.10 
  -5  -3   7    2.60    0.18 
  -4  -3   7    0.45    0.10 
  -3  -3   7    1.82    0.14 
  -2  -3   7    3.83    0.20 
  -1  -3   7    1.55    0.12 
  -1  -3   7    1.54    0.15 
   0  -3   7   -0.06    0.06 
   0  -3   7    0.03    0.06 
   1  -3   7    1.33    0.11 
   1  -3   7    1.30    0.13 
   2  -3   7    3.16    0.22 
   2  -3   7    2.92    0.17 
   3  -3   7    1.14    0.12 
   3  -3   7    1.54    0.16 
   4  -3   7    0.23    0.10 
   4  -3   7    0.33    0.12 
   5  -3   7    1.67    0.20 
   6  -3   7   -0.03    0.13 
   7  -3   7    6.71    0.45 
   8  -3   7    1.18    0.25 
 -10   3  -7   -0.06    0.19 
 -11   3  -7    0.17    0.20 
 -12   3  -7    0.36    0.23 
 -12  -2   7    0.40    0.17 
 -11  -2   7    0.44    0.18 
 -10  -2   7    1.46    0.22 
  -9  -2   7    2.00    0.24 
  -8  -2   7    2.18    0.21 
  -7  -2   7    1.88    0.20 
  -6  -2   7    0.41    0.12 
  -5  -2   7    1.74    0.15 
  -4  -2   7    2.96    0.18 
  -3  -2   7    4.98    0.24 
  -2  -2   7   -0.01    0.06 
  -1  -2   7    7.34    0.31 
  -1  -2   7    7.27    0.37 
   0  -2   7    0.84    0.10 
   0  -2   7    0.93    0.10 
   1  -2   7    6.55    0.29 
   1  -2   7    6.83    0.37 
   2  -2   7    0.04    0.08 
   2  -2   7   -0.05    0.06 
   3  -2   7    3.54    0.19 
   4  -2   7    2.32    0.21 
   4  -2   7    2.22    0.15 
   5  -2   7    1.49    0.19 
   6  -2   7    0.44    0.18 
   7  -2   7    1.26    0.25 
   8  -2   7    1.42    0.27 
   9  -2   7    1.65    0.29 
  10  -2   7    1.12    0.27 
 -11   2  -7    0.28    0.21 
 -12   2  -7    0.21    0.20 
 -12  -1   7    0.11    0.15 
 -11  -1   7    0.02    0.17 
 -10  -1   7    0.21    0.16 
  -9  -1   7    0.43    0.16 
  -8  -1   7    0.13    0.13 
  -7  -1   7   12.08    0.53 
  -6  -1   7    1.65    0.18 
  -5  -1   7    0.67    0.12 
  -4  -1   7    1.31    0.12 
  -3  -1   7    1.94    0.14 
  -2  -1   7    0.48    0.08 
  -1  -1   7    1.79    0.13 
  -1  -1   7    1.78    0.12 
   0  -1   7   -0.09    0.06 
   0  -1   7   -0.02    0.06 
   1  -1   7    1.67    0.12 
   1  -1   7    1.72    0.15 
   2  -1   7    0.44    0.08 
   2  -1   7    0.49    0.11 
   3  -1   7    1.33    0.11 
   3  -1   7    1.39    0.16 
   4  -1   7    1.23    0.18 
   4  -1   7    1.13    0.12 
  -5   1  -7    0.34    0.13 
   5  -1   7    0.40    0.15 
  -6   1  -7    1.09    0.20 
   7  -1   7    8.57    0.53 
   8  -1   7   -0.01    0.17 
  -9   1  -7    0.43    0.24 
   9  -1   7    0.34    0.22 
  10  -1   7    0.07    0.23 
  11  -1   7    0.19    0.23 
 -12   1  -7    0.35    0.21 
 -12   0   7    0.44    0.18 
 -11   0   7    0.15    0.17 
 -10   0   7    0.18    0.17 
  -9   0   7   -0.05    0.15 
  -8   0   7    0.02    0.12 
  -7   0   7    0.01    0.11 
  -6   0   7    0.00    0.09 
  -5   0   7   -0.04    0.07 
  -4   0   7    0.12    0.08 
  -3   0   7    0.05    0.06 
  -2   0   7   -0.02    0.05 
  -2   0   7   -0.03    0.05 
  -1   0   7    0.04    0.05 
  -1   0   7    0.00    0.05 
   0   0   7   -0.07    0.06 
   0   0   7   -0.01    0.05 
   1   0   7    0.06    0.05 
   1   0   7   -0.03    0.06 
   2   0   7   -0.06    0.06 
   2   0   7   -0.01    0.05 
   3   0   7   -0.18    0.07 
   3   0   7   -0.05    0.06 
   4   0   7   -0.01    0.09 
   4   0   7    0.01    0.07 
  -5   0  -7    0.07    0.10 
   5   0   7   -0.09    0.11 
  -6   0  -7    0.02    0.13 
   6   0   7   -0.18    0.12 
  -7   0  -7   -0.22    0.19 
   7   0   7    0.03    0.17 
  -8   0  -7   -0.20    0.18 
   8   0   7   -0.01    0.17 
  -9   0  -7    0.07    0.23 
   9   0   7   -0.18    0.19 
  10   0   7    0.39    0.23 
  11   0   7    0.21    0.23 
  12   0   7    0.33    0.23 
 -12   1   7    0.41    0.18 
 -11   1   7    0.11    0.16 
 -10   1   7    0.24    0.16 
  -9   1   7    0.36    0.16 
  -8   1   7    0.29    0.14 
  -7   1   7   11.58    0.52 
  -6   1   7    1.39    0.17 
  -5   1   7    0.72    0.12 
  -4   1   7    1.15    0.13 
  -3   1   7    1.78    0.14 
  -2   1   7    0.48    0.09 
  -2   1   7    0.40    0.08 
  -1   1   7    1.88    0.13 
  -1   1   7    1.66    0.14 
   0   1   7   -0.01    0.06 
   0   1   7   -0.05    0.05 
   1   1   7    1.57    0.15 
   1   1   7    1.46    0.11 
   2   1   7    0.47    0.08 
   2   1   7    0.55    0.12 
   3   1   7    1.10    0.14 
  -4  -1  -7    0.74    0.12 
   4   1   7    1.03    0.16 
  -5  -1  -7    0.47    0.13 
   5   1   7    0.38    0.14 
  -6  -1  -7    1.15    0.21 
   6   1   7    1.19    0.22 
  -7  -1  -7    9.03    0.59 
   7   1   7    9.25    0.56 
  -8  -1  -7   -0.02    0.19 
   8   1   7   -0.02    0.19 
  -9  -1  -7    0.14    0.23 
   9   1   7    0.49    0.23 
 -10  -1  -7    0.24    0.27 
  10   1   7    0.22    0.22 
  11   1   7    0.26    0.21 
 -12   2   7    0.28    0.18 
 -11   2   7    0.43    0.18 
 -10   2   7    1.34    0.22 
  -9   2   7    1.73    0.23 
  -8   2   7    1.88    0.20 
  -7   2   7    1.35    0.18 
  -6   2   7    0.51    0.12 
  -5   2   7    1.51    0.15 
  -4   2   7    2.89    0.19 
  -4   2   7    2.92    0.20 
  -3   2   7    5.02    0.29 
  -3   2   7    4.90    0.25 
  -2   2   7   -0.01    0.06 
  -2   2   7   -0.01    0.06 
  -1   2   7    7.49    0.31 
  -1   2   7    7.36    0.40 
   0   2   7    1.01    0.09 
   0   2   7    0.95    0.12 
   1   2   7    4.08    0.18 
  -2  -2  -7   -0.01    0.08 
   2   2   7    0.03    0.05 
   2   2   7    0.02    0.08 
  -3  -2  -7    3.83    0.25 
   3   2   7    3.50    0.26 
   3   2   7    3.71    0.18 
  -4  -2  -7    2.29    0.19 
   4   2   7    2.30    0.21 
  -5  -2  -7    1.18    0.16 
   5   2   7    1.41    0.20 
  -6  -2  -7    0.37    0.17 
   6   2   7    0.43    0.16 
  -7  -2  -7    1.74    0.29 
   7   2   7    1.49    0.25 
  -8  -2  -7    1.85    0.30 
   8   2   7    1.74    0.30 
  -9  -2  -7    1.75    0.33 
   9   2   7    1.59    0.30 
 -10  -2  -7    1.01    0.31 
  10   2   7    1.15    0.27 
  11   2   7    0.69    0.25 
 -12   3   7    0.16    0.17 
 -11   3   7    0.41    0.16 
 -10   3   7    0.04    0.15 
  -9   3   7    1.89    0.23 
  -8   3   7    1.61    0.21 
  -7   3   7    9.22    0.44 
  -6   3   7   -0.05    0.08 
  -5   3   7    2.77    0.21 
  -5   3   7    2.78    0.20 
  -4   3   7    0.45    0.11 
  -4   3   7    0.46    0.10 
  -3   3   7    1.71    0.14 
  -3   3   7    1.73    0.16 
  -2   3   7    3.94    0.20 
  -2   3   7    3.65    0.25 
  -1   3   7    1.42    0.11 
  -1   3   7    1.34    0.14 
   0   3   7    0.01    0.05 
   0   3   7   -0.01    0.08 
   1   3   7    1.22    0.10 
   1   3   7    1.27    0.15 
  -2  -3  -7    2.72    0.22 
   2   3   7    3.01    0.23 
   2   3   7    3.00    0.15 
  -3  -3  -7    1.57    0.16 
   3   3   7    1.41    0.10 
   3   3   7    1.22    0.17 
  -4  -3  -7    0.28    0.13 
   4   3   7    0.35    0.13 
  -5  -3  -7    2.23    0.22 
   5   3   7    2.03    0.22 
  -6  -3  -7    0.01    0.15 
   6   3   7    0.09    0.13 
  -7  -3  -7    7.86    0.53 
   7   3   7    7.29    0.48 
  -8  -3  -7    1.05    0.27 
   8   3   7    0.93    0.26 
  -9  -3  -7    1.48    0.32 
   9   3   7    1.79    0.31 
 -10  -3  -7    0.13    0.26 
  10   3   7    0.04    0.22 
  11   3   7    0.58    0.24 
 -12   4   7    0.07    0.17 
 -11   4   7    0.01    0.17 
 -10   4   7   -0.15    0.14 
  -9   4   7    0.28    0.17 
  -8   4   7    4.01    0.28 
  -7   4   7    0.13    0.13 
  -6   4   7    1.12    0.18 
  -6   4   7    1.03    0.15 
  -5   4   7    5.95    0.31 
  -5   4   7    6.01    0.36 
  -4   4   7    2.19    0.20 
  -4   4   7    2.29    0.17 
  -3   4   7    0.08    0.07 
  -2   4   7    1.20    0.17 
  -2   4   7    1.16    0.12 
  -1   4   7    4.02    0.28 
  -1   4   7    4.31    0.21 
   1   4   7    3.75    0.18 
   1   4   7    3.85    0.27 
  -2  -4  -7    1.08    0.17 
   2   4   7    0.98    0.16 
   2   4   7    0.81    0.09 
  -3  -4  -7    0.07    0.12 
   3   4   7   -0.01    0.10 
  -4  -4  -7    2.00    0.20 
   4   4   7    1.78    0.20 
  -5  -4  -7    4.98    0.35 
   5   4   7    4.69    0.35 
  -6  -4  -7    0.93    0.23 
   6   4   7    0.90    0.20 
  -7  -4  -7   -0.08    0.22 
   7   4   7    0.36    0.19 
  -8  -4  -7    3.19    0.34 
   8   4   7    3.03    0.31 
  -9  -4  -7    0.07    0.25 
   9   4   7    0.73    0.23 
 -10  -4  -7   -0.15    0.26 
  10   4   7    0.05    0.21 
 -11  -4  -7    0.16    0.29 
  11   4   7    0.27    0.21 
 -12   5   7    0.12    0.16 
 -11   5   7    0.01    0.16 
 -10   5   7    0.27    0.17 
  -9   5   7    0.83    0.20 
  -8   5   7    0.37    0.16 
  -7   5   7    2.30    0.22 
  -7   5   7    2.53    0.26 
  -6   5   7    0.12    0.14 
  -6   5   7    0.06    0.10 
  -5   5   7   -0.03    0.09 
  -5   5   7   -0.02    0.12 
  -4   5   7    0.92    0.13 
  -4   5   7    0.92    0.17 
  -3   5   7    7.99    0.46 
  -3   5   7    8.05    0.36 
  -2   5   7    1.67    0.14 
  -2   5   7    1.58    0.19 
  -1   5   7    4.13    0.21 
  -1   5   7    4.27    0.29 
   0   5   7   -0.01    0.05 
   0   5   7   -0.07    0.10 
   1   5   7    3.62    0.18 
   1   5   7    4.12    0.28 
  -2  -5  -7    1.30    0.17 
   2   5   7    1.65    0.21 
  -3  -5  -7    6.30    0.39 
   3   5   7    5.56    0.38 
  -4  -5  -7    0.73    0.19 
   4   5   7    0.76    0.17 
  -5  -5  -7   -0.12    0.16 
   5   5   7   -0.02    0.13 
  -6  -5  -7    0.10    0.21 
   6   5   7    0.33    0.16 
  -7  -5  -7    1.92    0.29 
   7   5   7    2.18    0.26 
  -8  -5  -7    0.34    0.27 
   8   5   7    0.40    0.21 
  -9  -5  -7    0.22    0.28 
   9   5   7    1.07    0.25 
 -10  -5  -7   -0.01    0.27 
  10   5   7    0.24    0.22 
 -11  -5  -7   -0.20    0.27 
  11   5   7    0.47    0.24 
 -12   6   7    0.37    0.18 
 -11   6   7    0.29    0.19 
 -10   6   7    0.40    0.18 
  -9   6   7    0.91    0.20 
  -8   6   7    0.07    0.13 
  -7   6   7    2.18    0.22 
  -7   6   7    2.06    0.27 
  -6   6   7   -0.07    0.15 
  -6   6   7   -0.04    0.11 
  -5   6   7    0.54    0.13 
  -5   6   7    0.40    0.17 
  -4   6   7    1.44    0.16 
  -4   6   7    1.33    0.18 
  -3   6   7    2.53    0.23 
  -3   6   7    2.54    0.18 
  -2   6   7    1.29    0.19 
  -2   6   7    1.13    0.12 
  -1   6   7    0.07    0.12 
  -1   6   7   -0.02    0.06 
   0   6   7    0.21    0.07 
   0   6   7    0.43    0.16 
   1   6   7   -0.01    0.12 
   1   6   7    0.01    0.05 
  -2  -6  -7    1.23    0.20 
   2   6   7    1.07    0.19 
  -3  -6  -7    2.10    0.21 
   3   6   7    2.01    0.23 
  -4  -6  -7    1.20    0.19 
   4   6   7    1.31    0.21 
  -5  -6  -7    0.52    0.20 
   5   6   7    0.59    0.18 
  -6  -6  -7   -0.12    0.21 
   6   6   7    0.19    0.15 
  -7  -6  -7    2.37    0.37 
   7   6   7    2.00    0.26 
  -8  -6  -7   -0.29    0.26 
   8   6   7    0.22    0.19 
  -9  -6  -7    0.79    0.34 
   9   6   7    0.92    0.26 
 -10  -6  -7    0.26    0.31 
  10   6   7    0.76    0.23 
 -11  -6  -7    0.03    0.31 
 -11   7   7    0.12    0.20 
 -10   7   7    0.22    0.17 
  -9   7   7    0.12    0.17 
  -8   7   7    0.17    0.15 
  -7   7   7    2.26    0.31 
  -7   7   7    2.04    0.23 
  -6   7   7   -0.18    0.17 
  -6   7   7   -0.08    0.11 
  -5   7   7    1.74    0.17 
  -4   7   7    0.21    0.11 
  -4   7   7    0.29    0.16 
  -3   7   7    1.34    0.22 
  -3   7   7    1.33    0.15 
  -2   7   7    3.25    0.27 
  -2   7   7    2.95    0.19 
  -1   7   7    0.53    0.17 
   0   7   7   -0.07    0.14 
   0   7   7   -0.03    0.06 
   1   7   7    0.46    0.18 
  -2  -7  -7    2.66    0.25 
   2   7   7    2.29    0.24 
  -3  -7  -7    1.12    0.18 
   3   7   7    1.20    0.22 
  -4  -7  -7    0.31    0.19 
   4   7   7    0.26    0.16 
  -5  -7  -7    1.69    0.29 
   5   7   7    1.67    0.25 
  -6  -7  -7   -0.01    0.23 
   6   7   7    0.01    0.16 
  -7  -7  -7    1.68    0.35 
   7   7   7    1.96    0.29 
  -8  -7  -7    0.04    0.29 
   8   7   7    0.43    0.21 
  -9  -7  -7    0.13    0.30 
   9   7   7    0.18    0.19 
 -10  -7  -7   -0.07    0.32 
  10   7   7    0.75    0.23 
 -11  -7  -7   -0.06    0.33 
 -12  -7  -7    0.42    0.35 
 -11   8   7    0.12    0.20 
 -10   8   7    0.52    0.19 
  -9   8   7    0.34    0.17 
  -8   8   7    0.01    0.13 
  -7   8   7    0.14    0.13 
  -7   8   7    0.28    0.17 
  -6   8   7   -0.05    0.16 
  -6   8   7    0.05    0.12 
  -5   8   7    3.05    0.22 
  -5   8   7    2.77    0.29 
  -4   8   7   -0.05    0.11 
  -4   8   7    0.03    0.16 
  -3   8   7    0.09    0.09 
  -3   8   7    0.06    0.16 
  -2   8   7    0.00    0.09 
  -2   8   7    0.01    0.16 
  -1   8   7    0.57    0.18 
   0   8   7    1.59    0.26 
   0   8   7    1.09    0.12 
   1   8   7    0.46    0.19 
  -2  -8  -7    0.05    0.17 
   2   8   7   -0.01    0.16 
  -3  -8  -7    0.12    0.18 
   3   8   7    0.05    0.14 
  -4  -8  -7    0.01    0.19 
   4   8   7    0.22    0.16 
  -5  -8  -7    2.32    0.30 
   5   8   7    2.75    0.28 
  -6  -8  -7   -0.28    0.24 
   6   8   7    0.08    0.19 
  -7  -8  -7   -0.09    0.27 
   7   8   7    0.04    0.20 
  -8  -8  -7   -0.06    0.29 
   8   8   7    0.09    0.20 
  -9  -8  -7   -0.03    0.32 
   9   8   7    0.63    0.23 
 -10  -8  -7   -0.26    0.32 
  10   8   7    1.00    0.25 
 -11  -8  -7   -0.21    0.34 
 -11   9   7    0.36    0.20 
 -10   9   7    0.27    0.17 
  -9   9   7    0.14    0.17 
  -8   9   7    0.02    0.14 
  -7   9   7    0.09    0.13 
  -7   9   7    0.16    0.18 
  -6   9   7    2.49    0.28 
  -6   9   7    2.86    0.24 
  -5   9   7    0.40    0.19 
  -5   9   7    0.31    0.14 
  -4   9   7    1.48    0.25 
  -4   9   7    1.90    0.18 
  -3   9   7    1.79    0.17 
  -3   9   7    1.42    0.25 
  -2   9   7    1.12    0.24 
  -2   9   7    1.04    0.15 
  -1   9   7    0.91    0.13 
  -1   9   7    1.03    0.22 
   0   9   7    0.09    0.17 
   0   9   7   -0.10    0.06 
   1   9   7    0.81    0.23 
  -2  -9  -7    1.12    0.24 
   2   9   7    1.22    0.24 
  -3  -9  -7    1.57    0.27 
   3   9   7    1.77    0.27 
  -4  -9  -7    1.35    0.28 
   4   9   7    1.70    0.28 
  -5  -9  -7    0.11    0.25 
   5   9   7    0.16    0.20 
  -6  -9  -7    1.93    0.30 
   6   9   7    2.37    0.29 
  -7  -9  -7   -0.26    0.27 
   7   9   7    0.11    0.20 
  -8  -9  -7   -0.25    0.29 
   8   9   7    0.20    0.21 
  -9  -9  -7    0.08    0.32 
   9   9   7    0.79    0.26 
 -10  -9  -7    0.19    0.34 
  10   9   7    0.39    0.22 
 -11  -9  -7    0.15    0.34 
 -10  10   7    1.09    0.24 
  -9  10   7    0.06    0.16 
  -8  10   7    0.34    0.21 
  -8  10   7    0.55    0.17 
  -7  10   7    0.34    0.16 
  -7  10   7    0.44    0.22 
  -6  10   7    0.16    0.19 
  -6  10   7    0.01    0.13 
  -5  10   7    0.83    0.25 
  -5  10   7    1.30    0.19 
  -4  10   7    0.13    0.19 
  -4  10   7    0.44    0.13 
  -3  10   7    0.20    0.19 
  -3  10   7   -0.04    0.11 
  -2  10   7    0.63    0.22 
  -2  10   7    0.53    0.13 
  -1  10   7    3.46    0.22 
  -1  10   7    3.39    0.32 
   0  10   7    0.70    0.12 
   0  10   7    1.12    0.26 
   1  10   7    3.07    0.32 
   2  10   7    0.26    0.21 
  -3 -10  -7   -0.08    0.21 
   3  10   7   -0.03    0.19 
  -4 -10  -7    0.01    0.21 
   4  10   7    0.38    0.22 
  -5 -10  -7    0.95    0.29 
   5  10   7    1.21    0.29 
  -6 -10  -7   -0.25    0.26 
   6  10   7   -0.24    0.21 
  -7 -10  -7    0.34    0.32 
   7  10   7    0.81    0.26 
  -8 -10  -7   -0.03    0.31 
   8  10   7    1.05    0.28 
  -9 -10  -7   -0.17    0.32 
   9  10   7    0.56    0.25 
 -10 -10  -7    0.32    0.36 
 -10  11   7    0.40    0.18 
  -9  11   7    0.38    0.18 
  -8  11   7    0.23    0.17 
  -8  11   7    0.67    0.22 
  -7  11   7    0.32    0.17 
  -7  11   7    0.52    0.22 
  -6  11   7    1.57    0.30 
  -6  11   7    1.46    0.22 
  -5  11   7    1.26    0.19 
  -5  11   7    1.08    0.27 
  -4  11   7    0.14    0.12 
  -4  11   7   -0.03    0.19 
  -3  11   7    0.30    0.12 
  -3  11   7   -0.05    0.19 
  -2  11   7   -0.01    0.10 
  -2  11   7    0.27    0.21 
  -1  11   7    4.75    0.27 
  -1  11   7    4.64    0.39 
   0  11   7    0.20    0.22 
   1  11   7    4.41    0.38 
   2  11   7    0.04    0.21 
  -3 -11  -7    0.06    0.24 
   3  11   7    0.10    0.21 
  -4 -11  -7   -0.11    0.23 
   4  11   7   -0.11    0.23 
  -5 -11  -7    1.01    0.30 
   5  11   7    1.18    0.31 
  -6 -11  -7    1.51    0.36 
   6  11   7    2.05    0.37 
  -7 -11  -7    0.23    0.31 
   7  11   7    0.68    0.27 
  -8 -11  -7   -0.04    0.32 
   8  11   7    0.30    0.24 
  -9 -11  -7   -0.23    0.33 
   9  11   7    0.34    0.26 
 -10 -11  -7   -0.32    0.34 
  -9  12   7    0.25    0.17 
  -8  12   7    0.09    0.16 
  -8  12   7    0.36    0.20 
  -7  12   7    0.72    0.24 
  -7  12   7    0.43    0.18 
  -6  12   7    0.32    0.21 
  -6  12   7    0.25    0.16 
  -5  12   7    2.80    0.24 
  -5  12   7    1.90    0.33 
  -4  12   7    0.01    0.12 
  -4  12   7    0.02    0.21 
  -3  12   7    0.10    0.11 
  -3  12   7   -0.06    0.19 
  -2  12   7    0.69    0.26 
  -1  12   7    1.12    0.27 
   0  12   7    0.38    0.24 
   1  12   7    1.12    0.29 
   2  12   7    0.19    0.25 
  -3 -12  -7   -0.40    0.23 
   3  12   7   -0.15    0.21 
  -4 -12  -7   -0.24    0.23 
   4  12   7    0.22    0.26 
  -5 -12  -7    1.91    0.30 
   5  12   7    2.41    0.33 
  -6 -12  -7    0.01    0.28 
   6  12   7    0.23    0.27 
  -7 -12  -7    0.06    0.29 
   7  12   7    0.79    0.30 
  -8 -12  -7   -0.36    0.31 
   8  12   7    0.59    0.27 
  -9 -12  -7   -0.23    0.33 
   9  12   7    0.70    0.29 
  -9  13   7    0.88    0.21 
  -8  13   7    0.19    0.18 
  -8  13   7    0.34    0.21 
  -7  13   7    0.13    0.17 
  -7  13   7    0.15    0.20 
  -6  13   7    0.06    0.19 
  -6  13   7    0.01    0.15 
  -5  13   7    0.28    0.23 
  -5  13   7    0.28    0.15 
  -4  13   7    0.11    0.12 
  -4  13   7    0.11    0.21 
  -3  13   7    0.52    0.25 
  -3  13   7    0.49    0.14 
  -2  13   7   -0.08    0.22 
  -1  13   7   -0.22    0.21 
   0  13   7   -0.20    0.23 
   1  13   7    0.30    0.25 
   2  13   7   -0.02    0.23 
   3  13   7    0.48    0.28 
  -4 -13  -7   -0.20    0.27 
   4  13   7    0.19    0.27 
  -5 -13  -7    0.12    0.27 
   5  13   7    0.02    0.27 
  -6 -13  -7   -0.27    0.26 
   6  13   7   -0.03    0.25 
  -7 -13  -7   -0.04    0.30 
   7  13   7    0.51    0.28 
  -8 -13  -7    0.09    0.35 
   8  13   7    0.81    0.28 
  -9 -13  -7    0.14    0.35 
  -8  14   7    0.44    0.22 
  -8  14   7    0.79    0.21 
  -7  14   7    0.10    0.16 
  -7  14   7    0.02    0.19 
  -6  14   7    0.15    0.16 
  -6  14   7    0.28    0.21 
  -5  14   7    0.10    0.15 
  -5  14   7    0.21    0.22 
  -4  14   7    0.46    0.15 
  -4  14   7    0.28    0.23 
  -3  14   7    0.26    0.22 
  -2  14   7   -0.28    0.20 
  -1  14   7    0.06    0.24 
   0  14   7    0.17    0.25 
   1  14   7    0.18    0.26 
   2  14   7    0.10    0.27 
   3  14   7    0.28    0.27 
  -4 -14  -7    0.33    0.29 
   4  14   7    0.20    0.29 
  -5 -14  -7   -0.11    0.26 
   5  14   7    0.07    0.27 
  -6 -14  -7   -0.23    0.27 
   6  14   7    0.43    0.28 
  -7 -14  -7   -0.37    0.30 
   7  14   7    0.63    0.27 
  -8 -14  -7   -0.22    0.34 
   8  14   7    1.26    0.31 
  -7  15   7    0.32    0.20 
  -7  15   7    0.34    0.18 
  -6  15   7    0.40    0.22 
  -6  15   7    0.15    0.16 
  -5  15   7    0.36    0.23 
  -4  15   7    0.27    0.22 
  -3  15   7    0.14    0.21 
  -2  15   7    0.11    0.24 
  -1  15   7    1.61    0.35 
   0  15   7    0.03    0.25 
   1  15   7    1.36    0.34 
   2  15   7    0.10    0.27 
   3  15   7    0.43    0.28 
  -4 -15  -7   -0.11    0.30 
   4  15   7    0.45    0.30 
  -5 -15  -7   -0.17    0.31 
   5  15   7    0.46    0.29 
  -6 -15  -7   -0.33    0.30 
   6  15   7    0.44    0.28 
  -7 -15  -7   -0.36    0.32 
   7  15   7    1.13    0.31 
  -6  16   7    0.25    0.19 
  -5  16   7    0.42    0.22 
  -4  16   7    0.36    0.24 
  -3  16   7    0.38    0.26 
  -1  16   7    0.23    0.25 
   0  16   7    0.17    0.23 
   1  16   7    0.48    0.26 
   2  16   7    0.43    0.26 
   3  16   7    0.28    0.29 
   4  16   7    1.03    0.28 
  -5 -16  -7    0.12    0.34 
   5  16   7    0.90    0.30 
  -6 -16  -7   -0.28    0.31 
   6  16   7    1.40    0.33 
  -4  17   7    0.46    0.25 
  -3  17   7    0.77    0.28 
  -2  17   7    0.25    0.24 
  -1  17   7   -0.10    0.25 
   0  17   7    0.41    0.24 
   1  17   7    0.67    0.26 
   2  17   7    0.91    0.30 
   3  17   7    1.19    0.32 
   4  17   7    0.95    0.31 
  -2  18   7    0.02    0.18 
  -1  18   7    0.58    0.24 
   0  18   7    0.65    0.25 
   1  18   7    0.48    0.24 
   2  18   7    0.94    0.29 
   0  18  -8    0.41    0.28 
  -1  18  -8    0.83    0.29 
  -4 -17   8    0.64    0.35 
  -3 -17   8   -0.17    0.32 
   1  17  -8    0.46    0.26 
   0  17  -8    0.25    0.26 
  -1  17  -8    0.19    0.23 
  -2  17  -8    0.62    0.28 
  -3  17  -8    0.39    0.24 
  -4  17  -8    0.68    0.26 
  -6 -16   8    0.17    0.33 
  -5 -16   8    0.08    0.33 
  -4 -16   8    0.48    0.33 
  -3 -16   8    0.10    0.30 
  -2 -16   8   -0.19    0.30 
   1  16  -8    0.20    0.24 
  -1 -16   8    0.15    0.16 
   0  16  -8    0.38    0.27 
  -1  16  -8    0.07    0.24 
  -2  16  -8    0.25    0.25 
  -3  16  -8    0.42    0.23 
  -4  16  -8    0.33    0.22 
  -5  16  -8    0.24    0.18 
  -7 -15   8   -0.01    0.31 
  -6 -15   8   -0.37    0.29 
  -5 -15   8   -0.03    0.31 
  -4 -15   8    0.57    0.33 
  -3 -15   8   -0.20    0.27 
   2  15  -8    0.39    0.21 
  -2 -15   8    0.07    0.16 
  -2 -15   8   -0.22    0.27 
   1  15  -8    0.40    0.23 
  -1 -15   8    0.05    0.16 
   0  15  -8    0.17    0.23 
   0 -15   8   -0.09    0.15 
  -1  15  -8    0.36    0.24 
  -2  15  -8   -0.22    0.21 
  -3  15  -8    0.18    0.23 
  -4  15  -8    0.51    0.25 
  -5  15  -8    0.38    0.23 
  -6  15  -8    0.36    0.19 
  -7  15  -8    0.31    0.19 
  -8 -14   8   -0.26    0.30 
  -7 -14   8   -0.18    0.29 
  -6 -14   8   -0.22    0.27 
  -5 -14   8   -0.10    0.28 
  -4 -14   8    0.73    0.31 
  -3 -14   8    0.34    0.28 
  -3 -14   8    0.36    0.17 
   2  14  -8    0.28    0.21 
  -2 -14   8    0.02    0.15 
  -2 -14   8   -0.19    0.25 
   1  14  -8    0.12    0.21 
  -1 -14   8    0.03    0.14 
  -1 -14   8   -0.06    0.27 
   0  14  -8    0.16    0.23 
   0 -14   8    0.02    0.15 
  -1  14  -8   -0.02    0.19 
  -2  14  -8    0.04    0.20 
  -3  14  -8    0.29    0.23 
  -4  14  -8    0.42    0.23 
  -5  14  -8    0.07    0.17 
  -6  14  -8    0.14    0.18 
  -7  14  -8    0.02    0.19 
  -8  14  -8   -0.08    0.18 
  -8 -13   8    0.01    0.29 
  -7 -13   8    0.27    0.30 
  -6 -13   8   -0.17    0.27 
  -5 -13   8    0.18    0.27 
  -4 -13   8    0.05    0.14 
  -4 -13   8   -0.38    0.24 
  -3 -13   8   -0.25    0.25 
  -3 -13   8   -0.14    0.13 
   2  13  -8    0.33    0.22 
  -2 -13   8    0.29    0.16 
  -2 -13   8    0.27    0.26 
   1  13  -8    0.25    0.21 
  -1 -13   8    0.08    0.14 
  -1 -13   8   -0.09    0.24 
   0  13  -8    0.08    0.18 
   0 -13   8    0.10    0.14 
  -1  13  -8    0.11    0.18 
   1 -13   8    0.25    0.15 
  -2  13  -8    0.36    0.22 
  -3  13  -8    0.13    0.19 
  -4  13  -8    0.13    0.18 
  -5  13  -8    0.46    0.19 
  -6  13  -8    0.04    0.15 
  -7  13  -8   -0.03    0.17 
  -8  13  -8   -0.05    0.16 
  -9 -12   8    0.19    0.29 
  -8 -12   8    0.37    0.29 
  -7 -12   8   -0.02    0.25 
  -6 -12   8    0.06    0.26 
  -5 -12   8    0.16    0.14 
  -5 -12   8   -0.24    0.24 
  -4 -12   8    1.95    0.33 
  -4 -12   8    1.47    0.20 
  -3 -12   8   -0.11    0.22 
  -3 -12   8   -0.11    0.12 
   2  12  -8    0.28    0.19 
  -2 -12   8    0.18    0.23 
  -2 -12   8    0.38    0.14 
   1  12  -8   -0.15    0.18 
  -1 -12   8   -0.28    0.20 
  -1 -12   8    0.05    0.13 
   0  12  -8    1.75    0.29 
   0 -12   8    1.52    0.20 
   0 -12   8    1.92    0.33 
  -1  12  -8    0.40    0.21 
   1 -12   8    0.15    0.14 
  -2  12  -8    0.18    0.17 
   2 -12   8    0.22    0.14 
  -3  12  -8   -0.05    0.15 
  -4  12  -8    0.49    0.20 
  -5  12  -8   -0.02    0.15 
  -6  12  -8   -0.02    0.16 
  -7  12  -8    0.02    0.17 
  -8  12  -8    0.28    0.22 
  -9  12  -8    0.37    0.22 
 -10 -11   8    0.29    0.25 
  -9 -11   8    0.69    0.29 
  -8 -11   8    0.11    0.24 
  -7 -11   8    0.20    0.25 
  -6 -11   8    0.04    0.23 
  -6 -11   8    0.48    0.14 
  -5 -11   8    0.74    0.16 
  -5 -11   8    0.68    0.28 
  -4 -11   8    1.01    0.28 
  -4 -11   8    1.31    0.18 
   3  11  -8    0.09    0.13 
  -3 -11   8    0.27    0.22 
  -3 -11   8    0.29    0.13 
   2  11  -8    0.53    0.23 
  -2 -11   8    0.54    0.14 
  -2 -11   8    0.67    0.23 
   1  11  -8    0.56    0.22 
  -1 -11   8    0.97    0.26 
  -1 -11   8    0.94    0.17 
   0  11  -8   -0.29    0.16 
   0 -11   8   -0.12    0.21 
   0 -11   8   -0.11    0.13 
  -1  11  -8    0.40    0.20 
   1 -11   8    0.53    0.16 
  -2  11  -8    0.24    0.17 
   2 -11   8    0.14    0.14 
  -3  11  -8    0.12    0.15 
  -4  11  -8    0.43    0.18 
  -5  11  -8    0.17    0.16 
  -6  11  -8    0.11    0.17 
  -7  11  -8    0.04    0.17 
  -8  11  -8   -0.02    0.18 
  -9  11  -8    0.40    0.25 
 -10  11  -8    0.25    0.20 
 -10 -10   8    0.16    0.26 
  -9 -10   8    0.06    0.24 
  -8 -10   8    0.01    0.25 
  -7 -10   8   -0.14    0.22 
  -7 -10   8   -0.10    0.12 
  -6 -10   8    0.08    0.12 
  -6 -10   8    0.12    0.22 
  -5 -10   8    0.79    0.26 
  -5 -10   8    0.72    0.15 
  -4 -10   8    0.66    0.24 
  -4 -10   8    0.62    0.15 
   3  10  -8    0.15    0.19 
  -3 -10   8    0.27    0.20 
  -3 -10   8    0.37    0.13 
   2  10  -8   -0.19    0.16 
  -2 -10   8    0.08    0.21 
  -2 -10   8   -0.10    0.11 
  -2 -10   8    0.11    0.21 
   1  10  -8   -0.15    0.19 
  -1 -10   8    0.11    0.22 
  -1 -10   8    0.14    0.12 
   0  10  -8    1.76    0.25 
   0 -10   8    2.06    0.19 
  -1  10  -8    0.05    0.15 
   1 -10   8   -0.08    0.13 
  -2  10  -8   -0.06    0.13 
   2 -10   8   -0.23    0.11 
  -3  10  -8    0.15    0.15 
  -4  10  -8    0.20    0.16 
  -5  10  -8    0.47    0.17 
  -6  10  -8    0.09    0.18 
  -7  10  -8   -0.10    0.16 
  -8  10  -8   -0.11    0.16 
  -9  10  -8   -0.10    0.19 
 -10  10  -8    0.11    0.22 
 -11  -9   8    0.51    0.29 
 -10  -9   8    1.09    0.34 
  -9  -9   8    0.35    0.29 
  -8  -9   8   -0.20    0.22 
  -7  -9   8    0.04    0.21 
  -7  -9   8   -0.10    0.12 
  -6  -9   8    0.04    0.21 
  -6  -9   8    0.13    0.12 
  -5  -9   8    1.22    0.27 
  -5  -9   8    1.05    0.16 
  -4  -9   8    2.21    0.26 
  -4  -9   8    1.87    0.17 
   3   9  -8   -0.01    0.16 
  -3  -9   8   -0.07    0.10 
  -3  -9   8   -0.11    0.19 
   2   9  -8   -0.12    0.13 
  -2  -9   8   -0.03    0.19 
  -2  -9   8    0.08    0.11 
   1   9  -8    0.06    0.17 
  -1  -9   8    0.11    0.11 
  -1  -9   8    0.13    0.18 
   0   9  -8    0.00    0.17 
   0  -9   8   -0.01    0.12 
   0  -9   8   -0.09    0.15 
  -1   9  -8    0.01    0.15 
   1  -9   8   -0.08    0.11 
  -2   9  -8    0.11    0.13 
   2  -9   8   -0.03    0.11 
  -3   9  -8    0.01    0.12 
   3  -9   8   -0.15    0.10 
  -4   9  -8    1.23    0.23 
  -5   9  -8    0.58    0.19 
  -6   9  -8    0.11    0.16 
  -7   9  -8   -0.09    0.16 
  -8   9  -8    0.00    0.19 
  -9   9  -8    0.37    0.23 
 -10   9  -8    0.81    0.28 
 -11   9  -8   -0.08    0.20 
 -11  -8   8    0.70    0.32 
 -10  -8   8    0.42    0.30 
  -9  -8   8    1.55    0.35 
  -8  -8   8    0.30    0.15 
  -8  -8   8    0.57    0.27 
  -7  -8   8   -0.15    0.21 
  -7  -8   8   -0.01    0.12 
  -6  -8   8    0.39    0.14 
  -6  -8   8    0.28    0.22 
  -5  -8   8    0.55    0.14 
  -5  -8   8    0.76    0.23 
  -4  -8   8    0.68    0.14 
  -4  -8   8    0.56    0.23 
   3   8  -8    0.21    0.15 
  -3  -8   8    0.24    0.11 
  -3  -8   8    0.10    0.18 
   2   8  -8    0.06    0.10 
  -2  -8   8    0.20    0.18 
  -2  -8   8    0.09    0.11 
   1   8  -8    0.63    0.17 
  -1  -8   8    0.76    0.13 
   0   8  -8    0.17    0.14 
   0  -8   8    0.18    0.11 
   0  -8   8    0.13    0.15 
  -1   8  -8    0.53    0.17 
   1  -8   8    0.54    0.13 
  -2   8  -8    0.12    0.15 
   2  -8   8    0.12    0.11 
  -3   8  -8    0.08    0.13 
   3  -8   8    0.14    0.11 
  -4   8  -8    0.32    0.15 
  -5   8  -8    0.30    0.15 
  -6   8  -8    0.29    0.18 
  -7   8  -8    0.06    0.17 
  -8   8  -8    0.34    0.21 
  -9   8  -8    0.87    0.27 
 -10   8  -8    0.26    0.23 
 -11   8  -8   -0.06    0.23 
 -11  -7   8    0.19    0.29 
 -10  -7   8    1.65    0.36 
  -9  -7   8    0.83    0.29 
  -9  -7   8    0.96    0.20 
  -8  -7   8    0.13    0.15 
  -8  -7   8    0.08    0.22 
  -7  -7   8    2.12    0.29 
  -7  -7   8    1.76    0.19 
  -6  -7   8   -0.26    0.18 
  -6  -7   8   -0.17    0.10 
  -5  -7   8    0.05    0.11 
  -5  -7   8   -0.07    0.18 
  -4  -7   8    0.67    0.13 
  -4  -7   8    0.64    0.22 
   3   7  -8   -0.02    0.11 
  -3  -7   8   -0.03    0.16 
  -3  -7   8   -0.06    0.09 
   2   7  -8    0.74    0.16 
  -2  -7   8    0.82    0.19 
  -2  -7   8    1.00    0.14 
   1   7  -8    1.90    0.19 
  -1  -7   8    2.19    0.16 
   0   7  -8    0.00    0.12 
   0  -7   8   -0.06    0.13 
   0  -7   8   -0.09    0.08 
  -1   7  -8    1.84    0.21 
   1  -7   8    2.08    0.16 
  -2   7  -8    0.65    0.17 
   2  -7   8    0.81    0.13 
  -3   7  -8   -0.03    0.11 
   3  -7   8    0.02    0.09 
  -4   7  -8    0.46    0.16 
  -5   7  -8    0.00    0.11 
  -6   7  -8    0.03    0.15 
  -7   7  -8    1.13    0.25 
  -8   7  -8   -0.09    0.18 
  -9   7  -8    0.82    0.27 
 -10   7  -8    1.09    0.29 
 -11   7  -8    0.16    0.22 
 -12  -6   8    0.96    0.30 
 -11  -6   8    0.94    0.33 
 -10  -6   8    0.51    0.30 
 -10  -6   8    0.91    0.19 
  -9  -6   8    0.03    0.22 
  -9  -6   8   -0.06    0.14 
  -8  -6   8    1.95    0.22 
  -8  -6   8    1.99    0.30 
  -7  -6   8    0.65    0.26 
  -7  -6   8    0.68    0.16 
  -6  -6   8    0.56    0.14 
  -6  -6   8    0.32    0.21 
  -5  -6   8    0.56    0.13 
  -5  -6   8    0.64    0.23 
  -4  -6   8    0.46    0.12 
  -4  -6   8    0.36    0.20 
  -3  -6   8    0.23    0.16 
  -3  -6   8    0.13    0.10 
   2   6  -8    1.68    0.17 
  -2  -6   8    1.50    0.19 
  -2  -6   8    1.65    0.15 
   1   6  -8    0.33    0.13 
  -1  -6   8    0.32    0.14 
  -1  -6   8    0.44    0.11 
   0   6  -8    1.29    0.15 
   0  -6   8    1.20    0.15 
   0  -6   8    1.35    0.13 
  -1   6  -8    0.24    0.13 
   1  -6   8    0.21    0.10 
  -2   6  -8    1.50    0.21 
   2  -6   8    1.53    0.14 
  -3   6  -8    0.03    0.12 
   3  -6   8   -0.12    0.09 
  -4   6  -8    0.33    0.14 
   4  -6   8    0.11    0.10 
  -5   6  -8    0.28    0.16 
  -6   6  -8    0.16    0.15 
  -7   6  -8    0.40    0.21 
  -8   6  -8    1.28    0.28 
  -9   6  -8    0.03    0.17 
 -10   6  -8    0.58    0.26 
 -11   6  -8    0.19    0.21 
 -12   6  -8    0.09    0.22 
 -12  -5   8    0.43    0.31 
 -11  -5   8    0.16    0.16 
 -11  -5   8    0.39    0.28 
 -10  -5   8    0.08    0.26 
 -10  -5   8    0.06    0.16 
  -9  -5   8   -0.02    0.23 
  -9  -5   8   -0.08    0.15 
  -8  -5   8    0.58    0.17 
  -7  -5   8    3.36    0.24 
  -6  -5   8   -0.06    0.11 
  -5  -5   8   -0.11    0.19 
  -5  -5   8   -0.11    0.10 
  -4  -5   8    0.53    0.12 
  -4  -5   8    0.52    0.20 
  -3  -5   8    1.62    0.24 
  -3  -5   8    1.30    0.15 
   2   5  -8    0.13    0.10 
  -2  -5   8    0.06    0.09 
  -2  -5   8    0.03    0.12 
  -1  -5   8    2.56    0.17 
  -1  -5   8    2.60    0.21 
   0   5  -8   -0.06    0.09 
   0  -5   8   -0.07    0.08 
   0  -5   8   -0.07    0.09 
  -1   5  -8    2.43    0.21 
   1  -5   8    2.45    0.16 
  -2   5  -8    0.10    0.11 
   2  -5   8    0.13    0.10 
  -3   5  -8    0.90    0.18 
   3  -5   8    0.92    0.14 
  -4   5  -8    0.39    0.14 
   4  -5   8    0.41    0.12 
  -5   5  -8    0.00    0.11 
  -6   5  -8    0.09    0.13 
  -7   5  -8    2.16    0.29 
  -8   5  -8    0.45    0.22 
  -9   5  -8    0.07    0.19 
 -10   5  -8    0.38    0.23 
 -11   5  -8    0.22    0.21 
 -12   5  -8    0.02    0.22 
 -12  -4   8    0.55    0.30 
 -12  -4   8    0.22    0.18 
 -11  -4   8    0.10    0.16 
 -10  -4   8    0.01    0.15 
  -9  -4   8    0.10    0.15 
  -8  -4   8    5.44    0.32 
  -7  -4   8   -0.01    0.13 
  -6  -4   8    0.29    0.13 
  -5  -4   8    0.58    0.12 
  -4  -4   8    6.65    0.32 
  -3  -4   8    3.57    0.21 
   2   4  -8   39.54    1.69 
  -2  -4   8   33.68    1.33 
  -1  -4   8    3.54    0.26 
  -1  -4   8    3.61    0.20 
   0  -4   8    0.80    0.12 
   1  -4   8    3.26    0.19 
   1  -4   8    3.05    0.23 
   2  -4   8   28.29    1.37 
   2  -4   8   29.14    1.07 
   3  -4   8    2.61    0.22 
   3  -4   8    2.46    0.18 
   4  -4   8    4.10    0.30 
   4  -4   8    3.75    0.23 
   5  -4   8    0.44    0.15 
   6  -4   8    0.13    0.15 
   7  -4   8   -0.15    0.16 
  -8   4  -8    3.85    0.36 
  -9   4  -8    0.02    0.18 
 -10   4  -8    0.23    0.20 
 -11   4  -8    0.01    0.20 
 -12   4  -8    0.23    0.21 
 -12  -3   8    0.34    0.17 
 -11  -3   8    0.19    0.16 
 -10  -3   8    0.09    0.16 
  -9  -3   8    0.15    0.15 
  -8  -3   8    1.70    0.21 
  -7  -3   8    0.12    0.14 
  -6  -3   8    1.24    0.16 
  -5  -3   8    2.77    0.20 
  -4  -3   8    3.07    0.19 
  -3  -3   8   10.83    0.45 
  -2  -3   8    0.28    0.09 
  -1  -3   8   30.02    1.09 
  -1  -3   8   29.02    1.37 
   0  -3   8    0.08    0.08 
   0  -3   8   -0.10    0.07 
   1  -3   8   28.05    1.05 
   1  -3   8   28.81    1.34 
   2  -3   8    0.10    0.10 
   2  -3   8    0.10    0.09 
   3  -3   8    7.02    0.33 
   3  -3   8    7.40    0.43 
   4  -3   8    2.29    0.22 
   4  -3   8    2.27    0.17 
   5  -3   8    1.91    0.22 
   6  -3   8    1.21    0.21 
   7  -3   8    0.06    0.19 
   8  -3   8    0.77    0.24 
   9  -3   8    0.46    0.23 
 -10   3  -8   -0.12    0.18 
 -11   3  -8   -0.04    0.19 
 -12   3  -8    0.17    0.21 
 -12  -2   8    0.23    0.17 
 -11  -2   8    0.90    0.20 
 -10  -2   8    0.04    0.16 
  -9  -2   8   -0.09    0.15 
  -8  -2   8    0.72    0.17 
  -7  -2   8    0.81    0.16 
  -6  -2   8    0.13    0.11 
  -5  -2   8    1.31    0.14 
  -4  -2   8    0.48    0.10 
  -3  -2   8    0.26    0.09 
  -2  -2   8   12.85    0.52 
  -1  -2   8    0.29    0.08 
   0  -2   8   11.78    0.58 
   0  -2   8   11.46    0.46 
   1  -2   8    0.35    0.09 
   1  -2   8    0.30    0.10 
   2  -2   8   10.79    0.44 
   2  -2   8   10.66    0.57 
   3  -2   8    0.06    0.09 
   3  -2   8    0.16    0.11 
   4  -2   8    0.23    0.12 
   4  -2   8    0.20    0.10 
   5  -2   8    1.67    0.23 
   6  -2   8    0.24    0.16 
   7  -2   8    0.41    0.20 
   8  -2   8    0.26    0.21 
   9  -2   8    0.02    0.21 
  10  -2   8    0.18    0.23 
 -12   2  -8    0.23    0.21 
 -12  -1   8    0.74    0.20 
 -11  -1   8   -0.02    0.17 
 -10  -1   8    0.68    0.19 
  -9  -1   8    0.08    0.15 
  -8  -1   8    0.40    0.15 
  -7  -1   8   -0.07    0.13 
  -6  -1   8    5.91    0.31 
  -5  -1   8    1.13    0.14 
  -4  -1   8    0.06    0.08 
  -3  -1   8    6.26    0.29 
  -2  -1   8    4.71    0.23 
  -1  -1   8    2.15    0.16 
  -1  -1   8    2.30    0.15 
   0  -1   8    0.03    0.07 
   0  -1   8   -0.06    0.06 
   1  -1   8    2.03    0.17 
   1  -1   8    1.98    0.14 
   2  -1   8    4.51    0.30 
   2  -1   8    4.51    0.22 
   3  -1   8    4.85    0.32 
   3  -1   8    4.89    0.24 
   4  -1   8    0.02    0.11 
   4  -1   8    0.03    0.08 
   5  -1   8    0.80    0.18 
  -6   1  -8    4.51    0.34 
   6  -1   8    4.76    0.35 
  -7   1  -8   -0.25    0.17 
   7  -1   8    0.15    0.18 
   8  -1   8    0.33    0.22 
   9  -1   8    0.15    0.21 
  10  -1   8    0.62    0.27 
  11  -1   8    0.22    0.24 
 -12   0   8    0.84    0.20 
 -11   0   8    1.23    0.22 
 -10   0   8    0.43    0.17 
  -9   0   8    0.72    0.18 
  -8   0   8    0.16    0.14 
  -7   0   8    9.23    0.45 
  -6   0   8    4.58    0.27 
  -5   0   8    0.48    0.11 
  -4   0   8    1.24    0.12 
  -3   0   8    7.49    0.34 
  -2   0   8    7.26    0.32 
  -2   0   8    7.19    0.37 
  -1   0   8    8.12    0.35 
  -1   0   8    8.18    0.42 
   0   0   8    2.46    0.15 
   0   0   8    1.99    0.17 
   1   0   8    7.39    0.31 
   1   0   8    7.40    0.40 
   2   0   8    6.53    0.29 
   2   0   8    6.89    0.39 
   3   0   8    6.27    0.38 
   3   0   8    6.34    0.28 
   4   0   8    1.12    0.18 
   4   0   8    1.04    0.12 
  -5   0  -8    0.26    0.12 
   5   0   8    0.24    0.14 
  -6   0  -8    3.19    0.28 
   6   0   8    3.68    0.31 
  -7   0  -8    6.79    0.47 
   7   0   8    6.64    0.47 
  -8   0  -8   -0.06    0.19 
   8   0   8    0.00    0.20 
   9   0   8    0.68    0.25 
  10   0   8    0.71    0.26 
  11   0   8    0.73    0.27 
  12   0   8    0.72    0.27 
 -12   1   8    0.58    0.20 
 -11   1   8    0.13    0.17 
 -10   1   8    0.57    0.19 
  -9   1   8    0.19    0.16 
  -8   1   8    0.44    0.16 
  -7   1   8    0.06    0.13 
  -6   1   8    6.64    0.34 
  -5   1   8    1.23    0.15 
  -4   1   8    0.25    0.10 
  -3   1   8    5.90    0.32 
  -3   1   8    6.07    0.28 
  -2   1   8    5.07    0.24 
  -2   1   8    4.81    0.28 
  -1   1   8    2.20    0.17 
  -1   1   8    2.03    0.14 
   0   1   8   -0.08    0.07 
   0   1   8    0.05    0.07 
   1   1   8    2.04    0.14 
   1   1   8    1.96    0.18 
   2   1   8    4.36    0.30 
   2   1   8    4.51    0.21 
   3   1   8    4.39    0.21 
   3   1   8    4.87    0.31 
  -4  -1  -8    0.11    0.09 
   4   1   8    0.00    0.10 
   4   1   8    0.02    0.05 
  -5  -1  -8    0.93    0.16 
   5   1   8    0.87    0.18 
  -6  -1  -8    4.66    0.36 
   6   1   8    5.07    0.37 
  -7  -1  -8   -0.12    0.19 
   7   1   8    0.02    0.18 
  -8  -1  -8    0.25    0.20 
   8   1   8    0.16    0.21 
   9   1   8    0.25    0.23 
  10   1   8    0.69    0.26 
  11   1   8    0.25    0.24 
  12   1   8    0.43    0.26 
 -12   2   8    0.40    0.18 
 -11   2   8    1.32    0.23 
 -10   2   8    0.17    0.16 
  -9   2   8    0.06    0.15 
  -8   2   8    0.47    0.16 
  -7   2   8    0.59    0.16 
  -6   2   8    0.29    0.11 
  -5   2   8    1.69    0.17 
  -4   2   8    0.32    0.10 
  -3   2   8    0.14    0.09 
  -3   2   8    0.15    0.09 
  -2   2   8   12.63    0.50 
  -2   2   8   12.25    0.62 
  -1   2   8    0.43    0.11 
  -1   2   8    0.30    0.08 
   0   2   8   11.22    0.59 
   0   2   8   11.90    0.46 
   1   2   8    0.24    0.07 
   1   2   8    0.31    0.11 
   2   2   8   10.81    0.58 
  -3  -2  -8    0.18    0.10 
   3   2   8   -0.02    0.11 
   3   2   8    0.11    0.07 
  -4  -2  -8    0.20    0.12 
   4   2   8    0.27    0.13 
   4   2   8    0.29    0.08 
  -5  -2  -8    1.16    0.17 
   5   2   8    1.51    0.22 
  -6  -2  -8    0.02    0.16 
   6   2   8    0.22    0.15 
  -7  -2  -8    0.45    0.23 
   7   2   8    0.34    0.19 
  -8  -2  -8    0.60    0.22 
   8   2   8    0.39    0.23 
  -9  -2  -8    0.00    0.23 
   9   2   8    0.16    0.22 
  10   2   8    0.37    0.24 
  11   2   8    1.36    0.29 
 -12   3   8    0.34    0.18 
 -11   3   8    0.18    0.17 
 -10   3   8    0.13    0.15 
  -9   3   8    0.22    0.16 
  -8   3   8    1.10    0.19 
  -7   3   8    0.23    0.13 
  -6   3   8    1.08    0.15 
  -5   3   8    2.63    0.21 
  -5   3   8    2.76    0.20 
  -4   3   8    3.14    0.23 
  -4   3   8    3.45    0.21 
  -3   3   8   10.13    0.44 
  -3   3   8   10.62    0.54 
  -2   3   8    0.03    0.10 
  -2   3   8    0.05    0.08 
  -1   3   8   30.19    1.42 
  -1   3   8   29.88    1.10 
   0   3   8    0.11    0.10 
   1   3   8   26.96    1.29 
   2   3   8    0.02    0.07 
   2   3   8    0.05    0.11 
  -3  -3  -8    7.30    0.42 
   3   3   8    6.35    0.42 
   3   3   8    7.36    0.30 
  -4  -3  -8    2.44    0.21 
   4   3   8    2.49    0.24 
  -5  -3  -8    2.00    0.21 
   5   3   8    2.03    0.23 
  -6  -3  -8    0.76    0.22 
   6   3   8    1.15    0.21 
  -7  -3  -8    0.13    0.22 
   7   3   8    0.43    0.18 
  -8  -3  -8    1.11    0.26 
   8   3   8    0.78    0.25 
  -9  -3  -8    0.13    0.25 
   9   3   8    0.18    0.22 
  10   3   8    0.43    0.23 
  11   3   8    0.48    0.24 
 -12   4   8    0.04    0.16 
 -11   4   8    0.17    0.17 
 -10   4   8    0.08    0.15 
  -9   4   8    0.09    0.15 
  -8   4   8    6.02    0.35 
  -7   4   8   -0.21    0.10 
  -6   4   8    0.48    0.14 
  -6   4   8    0.35    0.12 
  -5   4   8    0.54    0.15 
  -5   4   8    0.55    0.12 
  -4   4   8    5.42    0.34 
  -4   4   8    5.57    0.29 
  -3   4   8    3.54    0.26 
  -3   4   8    3.40    0.21 
  -2   4   8   35.01    1.68 
  -2   4   8   36.61    1.31 
  -1   4   8    3.87    0.20 
  -1   4   8    3.72    0.27 
   0   4   8    0.40    0.07 
   0   4   8    0.85    0.16 
   1   4   8    3.41    0.27 
   1   4   8    4.03    0.20 
   2   4   8   30.54    1.06 
   2   4   8   28.62    1.42 
  -3  -4  -8    2.78    0.22 
   3   4   8    2.54    0.14 
  -4  -4  -8    4.67    0.33 
   4   4   8    4.43    0.33 
  -5  -4  -8    0.37    0.17 
   5   4   8    0.47    0.17 
  -6  -4  -8    0.16    0.20 
   6   4   8    0.55    0.18 
  -7  -4  -8   -0.03    0.22 
   7   4   8    0.03    0.17 
  -8  -4  -8    4.40    0.41 
   8   4   8    4.51    0.37 
  -9  -4  -8   -0.21    0.26 
   9   4   8    0.29    0.21 
 -10  -4  -8   -0.02    0.26 
  10   4   8    0.24    0.24 
  11   4   8    0.06    0.25 
 -12   5   8    0.61    0.19 
 -11   5   8    0.06    0.17 
 -10   5   8   -0.14    0.15 
  -9   5   8   -0.04    0.14 
  -8   5   8    0.77    0.17 
  -7   5   8    3.59    0.26 
  -6   5   8    0.04    0.14 
  -6   5   8   -0.04    0.10 
  -5   5   8    0.11    0.13 
  -5   5   8    0.00    0.08 
  -4   5   8    0.78    0.13 
  -4   5   8    0.56    0.14 
  -3   5   8    1.20    0.14 
  -3   5   8    1.26    0.17 
  -2   5   8    0.21    0.09 
  -2   5   8    0.14    0.13 
  -1   5   8    2.75    0.24 
  -1   5   8    2.58    0.16 
   0   5   8    0.12    0.12 
   0   5   8    0.05    0.06 
   1   5   8    2.74    0.24 
   1   5   8    2.50    0.15 
   2   5   8    0.30    0.14 
  -3  -5  -8    1.16    0.17 
   3   5   8    1.36    0.21 
  -4  -5  -8    0.54    0.19 
   4   5   8    0.54    0.17 
  -5  -5  -8   -0.05    0.17 
   5   5   8   -0.02    0.13 
  -6  -5  -8   -0.03    0.19 
   6   5   8    0.02    0.14 
  -7  -5  -8    2.96    0.33 
   7   5   8    3.15    0.30 
  -8  -5  -8    0.39    0.29 
   8   5   8    0.36    0.22 
  -9  -5  -8   -0.37    0.28 
   9   5   8    0.27    0.21 
 -10  -5  -8   -0.03    0.29 
  10   5   8    0.19    0.24 
  11   5   8    0.22    0.25 
 -11   6   8    0.64    0.21 
 -10   6   8    0.53    0.19 
  -9   6   8    0.22    0.16 
  -8   6   8    1.91    0.23 
  -7   6   8    0.76    0.17 
  -6   6   8    0.42    0.14 
  -6   6   8    0.91    0.20 
  -5   6   8    0.73    0.19 
  -5   6   8    0.84    0.14 
  -4   6   8    0.46    0.17 
  -4   6   8    0.55    0.13 
  -3   6   8    0.25    0.14 
  -3   6   8    0.16    0.09 
  -2   6   8    1.78    0.21 
  -2   6   8    1.85    0.15 
  -1   6   8    0.51    0.10 
  -1   6   8    0.57    0.18 
   0   6   8    1.71    0.20 
   0   6   8    1.08    0.11 
   1   6   8    0.18    0.08 
   1   6   8    0.38    0.15 
   2   6   8    1.65    0.21 
  -3  -6  -8    0.00    0.15 
   3   6   8    0.11    0.13 
  -4  -6  -8    0.33    0.19 
   4   6   8    0.31    0.15 
  -5  -6  -8    0.67    0.22 
   5   6   8    0.43    0.17 
  -6  -6  -8    0.29    0.23 
   6   6   8    0.55    0.20 
  -7  -6  -8    0.51    0.28 
   7   6   8    0.84    0.24 
  -8  -6  -8    1.84    0.37 
   8   6   8    1.96    0.30 
  -9  -6  -8   -0.20    0.29 
   9   6   8    0.41    0.23 
 -10  -6  -8    0.62    0.35 
  10   6   8    0.98    0.27 
  11   6   8    0.60    0.28 
 -11   7   8   -0.12    0.17 
 -10   7   8    2.02    0.27 
  -9   7   8    1.02    0.21 
  -8   7   8    0.17    0.15 
  -7   7   8    2.17    0.24 
  -7   7   8    2.06    0.25 
  -6   7   8   -0.14    0.16 
  -6   7   8   -0.09    0.10 
  -5   7   8   -0.12    0.16 
  -5   7   8   -0.06    0.10 
  -4   7   8    0.69    0.14 
  -4   7   8    0.45    0.18 
  -3   7   8    0.06    0.14 
  -3   7   8   -0.04    0.09 
  -2   7   8    0.95    0.20 
  -2   7   8    0.75    0.12 
  -1   7   8    1.01    0.11 
   0   7   8   -0.03    0.06 
   0   7   8    0.11    0.15 
   1   7   8    1.85    0.22 
   1   7   8    1.55    0.13 
   2   7   8    0.76    0.20 
  -3  -7  -8    0.16    0.16 
   3   7   8   -0.14    0.12 
  -4  -7  -8    0.54    0.20 
   4   7   8    0.42    0.16 
  -5  -7  -8   -0.01    0.20 
   5   7   8    0.14    0.16 
  -6  -7  -8   -0.31    0.23 
   6   7   8    0.04    0.17 
  -7  -7  -8    2.34    0.37 
   7   7   8    1.99    0.27 
  -8  -7  -8   -0.27    0.28 
   8   7   8    0.28    0.22 
  -9  -7  -8    0.70    0.35 
   9   7   8    1.03    0.25 
 -10  -7  -8    1.01    0.38 
  10   7   8    2.15    0.27 
 -11  -7  -8   -0.38    0.33 
 -11   8   8   -0.04    0.17 
 -10   8   8    0.45    0.18 
  -9   8   8    2.03    0.25 
  -8   8   8    0.85    0.19 
  -7   8   8   -0.01    0.15 
  -7   8   8    0.16    0.14 
  -6   8   8    0.45    0.16 
  -6   8   8    0.57    0.18 
  -5   8   8    0.27    0.13 
  -5   8   8    0.27    0.18 
  -4   8   8    0.64    0.21 
  -4   8   8    0.64    0.13 
  -3   8   8    0.20    0.11 
  -3   8   8    0.16    0.18 
  -2   8   8    0.40    0.18 
  -2   8   8    0.18    0.10 
  -1   8   8    0.70    0.21 
  -1   8   8    0.11    0.07 
   0   8   8    0.07    0.18 
   0   8   8    0.01    0.07 
   1   8   8    0.49    0.19 
   2   8   8    0.07    0.15 
  -3  -8  -8    0.16    0.19 
   3   8   8    0.27    0.17 
  -4  -8  -8    0.64    0.22 
   4   8   8    0.66    0.19 
  -5  -8  -8    0.27    0.25 
   5   8   8    0.34    0.21 
  -6  -8  -8    0.28    0.27 
   6   8   8    0.69    0.24 
  -7  -8  -8   -0.16    0.27 
   7   8   8    0.20    0.21 
  -8  -8  -8    0.44    0.32 
   8   8   8    1.04    0.26 
  -9  -8  -8    1.41    0.40 
   9   8   8    1.99    0.27 
 -10  -8  -8    0.15    0.34 
  10   8   8    0.69    0.28 
 -11  -8  -8    0.05    0.34 
 -11   9   8    0.45    0.19 
 -10   9   8    1.90    0.26 
  -9   9   8    0.75    0.20 
  -8   9   8    0.01    0.15 
  -7   9   8    0.24    0.18 
  -7   9   8    0.18    0.14 
  -6   9   8    0.08    0.13 
  -6   9   8    0.25    0.17 
  -5   9   8    0.79    0.21 
  -5   9   8    1.02    0.17 
  -4   9   8    1.60    0.27 
  -4   9   8    2.30    0.20 
  -3   9   8    0.13    0.16 
  -3   9   8    0.03    0.11 
  -2   9   8    0.22    0.17 
  -2   9   8    0.02    0.10 
  -1   9   8    0.09    0.09 
  -1   9   8    0.03    0.18 
   0   9   8    0.09    0.18 
   0   9   8   -0.14    0.08 
   1   9   8    0.06    0.20 
   2   9   8    0.10    0.18 
  -3  -9  -8    0.04    0.21 
   3   9   8    0.12    0.17 
  -4  -9  -8    1.76    0.30 
   4   9   8    2.18    0.31 
  -5  -9  -8    0.95    0.28 
   5   9   8    1.10    0.26 
  -6  -9  -8    0.02    0.26 
   6   9   8    0.10    0.21 
  -7  -9  -8   -0.10    0.28 
   7   9   8    0.07    0.22 
  -8  -9  -8   -0.29    0.30 
   8   9   8    0.37    0.23 
  -9  -9  -8    0.11    0.34 
   9   9   8    1.02    0.28 
 -10  -9  -8    0.96    0.40 
  10   9   8    1.68    0.31 
 -11  -9  -8    0.10    0.35 
 -10  10   8    0.35    0.19 
  -9  10   8    0.09    0.17 
  -8  10   8   -0.02    0.15 
  -7  10   8   -0.05    0.17 
  -7  10   8    0.03    0.13 
  -6  10   8    0.09    0.13 
  -6  10   8    0.16    0.19 
  -5  10   8    0.70    0.16 
  -5  10   8    0.73    0.23 
  -4  10   8    0.47    0.14 
  -4  10   8    0.28    0.20 
  -3  10   8    0.02    0.19 
  -3  10   8    0.28    0.13 
  -2  10   8    0.03    0.11 
  -2  10   8    0.44    0.20 
  -1  10   8    0.13    0.20 
  -1  10   8   -0.06    0.10 
   0  10   8    2.19    0.34 
   1  10   8   -0.02    0.20 
   2  10   8   -0.23    0.17 
  -3 -10  -8    0.13    0.23 
   3  10   8    0.16    0.20 
  -4 -10  -8    0.24    0.24 
   4  10   8    0.61    0.24 
  -5 -10  -8    0.52    0.27 
   5  10   8    0.90    0.27 
  -6 -10  -8    0.09    0.27 
   6  10   8   -0.05    0.22 
  -7 -10  -8   -0.30    0.28 
   7  10   8   -0.18    0.21 
  -8 -10  -8   -0.54    0.30 
   8  10   8    0.23    0.24 
  -9 -10  -8   -0.49    0.32 
   9  10   8    0.60    0.27 
  10  10   8    0.77    0.27 
 -10  11   8    0.27    0.18 
  -9  11   8    0.95    0.21 
  -8  11   8    0.03    0.15 
  -7  11   8    0.21    0.18 
  -7  11   8    0.06    0.14 
  -6  11   8    0.17    0.14 
  -6  11   8    0.18    0.21 
  -5  11   8    0.61    0.15 
  -5  11   8    0.57    0.24 
  -4  11   8    1.29    0.17 
  -4  11   8    0.71    0.25 
  -3  11   8    0.34    0.12 
  -3  11   8    0.27    0.21 
  -2  11   8    0.40    0.21 
  -2  11   8    0.47    0.12 
  -1  11   8    0.90    0.26 
   0  11   8   -0.18    0.21 
   1  11   8    0.65    0.26 
   2  11   8    0.27    0.24 
  -3 -11  -8   -0.02    0.24 
   3  11   8    0.08    0.22 
  -4 -11  -8    0.79    0.28 
   4  11   8    1.20    0.29 
  -5 -11  -8    0.56    0.28 
   5  11   8    0.51    0.30 
  -6 -11  -8    0.15    0.28 
   6  11   8    0.08    0.24 
  -7 -11  -8   -0.06    0.30 
   7  11   8    0.15    0.25 
  -8 -11  -8   -0.23    0.31 
   8  11   8    0.56    0.26 
  -9 -11  -8    0.24    0.36 
   9  11   8    1.29    0.31 
 -10 -11  -8   -0.36    0.34 
  -9  12   8    0.49    0.19 
  -8  12   8    0.44    0.17 
  -7  12   8    0.28    0.20 
  -7  12   8   -0.02    0.14 
  -6  12   8    0.09    0.13 
  -6  12   8    0.05    0.19 
  -5  12   8    0.08    0.14 
  -5  12   8    0.11    0.20 
  -4  12   8    1.60    0.20 
  -4  12   8    1.50    0.30 
  -3  12   8   -0.04    0.10 
  -3  12   8   -0.11    0.19 
  -2  12   8    0.30    0.22 
  -1  12   8    0.07    0.21 
   0  12   8    1.63    0.33 
   1  12   8    0.15    0.25 
   2  12   8    0.06    0.23 
   3  12   8   -0.10    0.22 
  -4 -12  -8    1.35    0.34 
   4  12   8    1.60    0.34 
  -5 -12  -8    0.07    0.26 
   5  12   8    0.34    0.28 
  -6 -12  -8   -0.33    0.25 
   6  12   8    0.06    0.27 
  -7 -12  -8   -0.15    0.30 
   7  12   8    0.57    0.29 
  -8 -12  -8   -0.13    0.33 
   8  12   8    1.25    0.31 
  -9 -12  -8   -0.38    0.34 
   9  12   8    0.76    0.27 
  -8  13   8    0.22    0.16 
  -7  13   8    0.46    0.22 
  -7  13   8    0.63    0.17 
  -6  13   8    0.33    0.20 
  -6  13   8    0.08    0.15 
  -5  13   8    0.56    0.24 
  -5  13   8    0.48    0.15 
  -4  13   8    0.15    0.20 
  -4  13   8   -0.01    0.12 
  -3  13   8   -0.01    0.21 
  -2  13   8    0.18    0.23 
  -1  13   8    0.12    0.23 
   0  13   8   -0.12    0.23 
   1  13   8    0.31    0.25 
   2  13   8    0.28    0.26 
   3  13   8    0.08    0.24 
  -4 -13  -8    0.07    0.27 
   4  13   8    0.14    0.28 
  -5 -13  -8    0.24    0.27 
   5  13   8    0.93    0.33 
  -6 -13  -8   -0.23    0.25 
   6  13   8    0.17    0.25 
  -7 -13  -8   -0.16    0.28 
   7  13   8    0.86    0.29 
  -8 -13  -8   -0.27    0.31 
   8  13   8    0.58    0.28 
  -9 -13  -8    0.34    0.38 
   9  13   8    1.94    0.35 
  -8  14   8    0.31    0.17 
  -7  14   8    0.64    0.22 
  -7  14   8    0.01    0.15 
  -6  14   8    0.08    0.15 
  -6  14   8    0.41    0.23 
  -5  14   8    0.11    0.20 
  -5  14   8    0.40    0.15 
  -4  14   8    0.59    0.25 
  -3  14   8    0.21    0.22 
  -2  14   8    0.15    0.25 
  -1  14   8    0.05    0.24 
   0  14   8    0.24    0.26 
   1  14   8   -0.06    0.25 
   2  14   8    0.12    0.25 
   3  14   8    0.51    0.28 
  -4 -14  -8    0.83    0.32 
   4  14   8    0.57    0.31 
  -5 -14  -8   -0.24    0.29 
   5  14   8    0.42    0.29 
  -6 -14  -8   -0.45    0.27 
   6  14   8    0.21    0.26 
  -7 -14  -8   -0.22    0.31 
   7  14   8    0.93    0.28 
  -8 -14  -8   -0.28    0.31 
   8  14   8    0.78    0.30 
  -7  15   8    0.27    0.16 
  -7  15   8    0.39    0.22 
  -6  15   8    0.13    0.21 
  -6  15   8    0.14    0.16 
  -5  15   8    0.18    0.21 
  -4  15   8    0.42    0.24 
  -3  15   8    0.01    0.20 
  -2  15   8   -0.08    0.23 
  -1  15   8   -0.28    0.23 
   0  15   8   -0.26    0.24 
   1  15   8    0.17    0.24 
   2  15   8    0.40    0.26 
   3  15   8    0.41    0.27 
   4  15   8    0.81    0.32 
  -5 -15  -8   -0.12    0.32 
   5  15   8    0.74    0.30 
  -6 -15  -8   -0.05    0.32 
   6  15   8    1.17    0.32 
  -7 -15  -8   -0.17    0.32 
   7  15   8    0.71    0.29 
  -5  16   8    0.35    0.21 
  -4  16   8    0.31    0.22 
  -3  16   8    0.39    0.23 
  -2  16   8    0.13    0.23 
  -1  16   8    0.24    0.25 
   0  16   8    0.46    0.27 
   1  16   8    0.24    0.23 
   2  16   8    0.56    0.25 
   3  16   8    0.76    0.30 
   4  16   8    0.98    0.31 
   5  16   8    0.78    0.31 
  -6 -16  -8    0.12    0.37 
   6  16   8    1.11    0.32 
  -4  17   8    0.42    0.25 
  -3  17   8    0.29    0.22 
  -2  17   8    0.43    0.22 
  -1  17   8    0.00    0.24 
   0  17   8    0.56    0.25 
   1  17   8    0.51    0.25 
   2  17   8    0.72    0.28 
   3  17   8    0.76    0.29 
   4  17   8    0.95    0.30 
  -1  18   8    0.81    0.24 
   0  18   8    0.87    0.28 
   1  18   8    0.64    0.24 
   0  17  -9    0.37    0.26 
  -1  17  -9    0.86    0.27 
  -2  17  -9    0.30    0.24 
  -3  17  -9    0.32    0.23 
  -5 -16   9   -0.11    0.33 
  -4 -16   9    0.19    0.33 
   1  16  -9    0.21    0.23 
  -1 -16   9    0.26    0.18 
   0  16  -9    0.47    0.26 
  -1  16  -9    0.26    0.24 
  -2  16  -9    0.28    0.23 
  -3  16  -9    1.10    0.28 
  -4  16  -9    0.53    0.25 
  -5  16  -9    0.44    0.22 
  -6 -15   9   -0.45    0.29 
  -5 -15   9    0.14    0.31 
  -4 -15   9    0.37    0.33 
  -3 -15   9   -0.18    0.27 
  -2 -15   9    0.11    0.17 
   1  15  -9    0.25    0.24 
  -1 -15   9    0.05    0.17 
   0  15  -9    0.25    0.24 
   0 -15   9    0.06    0.17 
  -1  15  -9   -0.14    0.21 
  -2  15  -9    0.44    0.24 
  -3  15  -9    0.29    0.22 
  -4  15  -9    0.26    0.22 
  -5  15  -9    0.68    0.24 
  -6  15  -9    0.48    0.20 
  -7 -14   9   -0.07    0.29 
  -6 -14   9   -0.20    0.28 
  -5 -14   9   -0.06    0.28 
  -4 -14   9    0.12    0.29 
  -3 -14   9    0.27    0.17 
  -3 -14   9    0.17    0.27 
  -2 -14   9    0.68    0.19 
  -2 -14   9    0.35    0.27 
   1  14  -9    0.31    0.22 
  -1 -14   9    0.04    0.15 
   0  14  -9    0.48    0.23 
   0 -14   9    0.54    0.18 
  -1  14  -9    0.04    0.21 
   1 -14   9    0.00    0.16 
  -2  14  -9    0.58    0.26 
  -3  14  -9    0.27    0.23 
  -4  14  -9    0.35    0.22 
  -5  14  -9    0.17    0.18 
  -6  14  -9    0.05    0.15 
  -7  14  -9    0.15    0.18 
  -8 -13   9    0.15    0.30 
  -7 -13   9   -0.13    0.28 
  -6 -13   9   -0.16    0.26 
  -5 -13   9    0.27    0.28 
  -4 -13   9    0.35    0.16 
  -4 -13   9    0.25    0.27 
  -3 -13   9    0.03    0.16 
  -3 -13   9   -0.39    0.24 
   2  13  -9    0.36    0.22 
  -2 -13   9    0.04    0.15 
  -2 -13   9   -0.31    0.23 
   1  13  -9   -0.11    0.20 
  -1 -13   9    0.00    0.14 
  -1 -13   9   -0.37    0.23 
   0  13  -9    0.07    0.20 
   0 -13   9   -0.10    0.14 
  -1  13  -9    0.04    0.20 
   1 -13   9    0.03    0.14 
  -2  13  -9   -0.03    0.18 
  -3  13  -9    0.01    0.18 
  -4  13  -9    0.19    0.19 
  -5  13  -9    0.23    0.18 
  -6  13  -9    0.10    0.15 
  -7  13  -9   -0.15    0.15 
  -8  13  -9    0.33    0.18 
  -9 -12   9    0.37    0.31 
  -8 -12   9   -0.01    0.27 
  -7 -12   9    0.01    0.26 
  -6 -12   9   -0.07    0.25 
  -5 -12   9    0.24    0.27 
  -5 -12   9    0.27    0.16 
  -4 -12   9    0.14    0.26 
  -4 -12   9    0.20    0.15 
  -3 -12   9    0.86    0.18 
  -3 -12   9    0.99    0.29 
   2  12  -9    0.06    0.18 
  -2 -12   9   -0.09    0.22 
  -2 -12   9    0.22    0.15 
   1  12  -9   -0.09    0.18 
  -1 -12   9    0.12    0.22 
  -1 -12   9    0.21    0.15 
   0  12  -9    1.32    0.27 
   0 -12   9    1.13    0.19 
  -1  12  -9   -0.04    0.17 
   1 -12   9    0.00    0.14 
  -2  12  -9   -0.03    0.16 
   2 -12   9   -0.03    0.14 
  -3  12  -9    0.47    0.19 
  -4  12  -9    0.26    0.18 
  -5  12  -9    0.28    0.18 
  -6  12  -9    0.15    0.16 
  -7  12  -9   -0.13    0.17 
  -8  12  -9    0.06    0.19 
  -9  12  -9    0.21    0.20 
  -9 -11   9    0.18    0.26 
  -8 -11   9    0.03    0.24 
  -7 -11   9    0.10    0.24 
  -6 -11   9    0.25    0.15 
  -6 -11   9   -0.05    0.25 
  -5 -11   9    2.27    0.31 
  -5 -11   9    2.25    0.21 
  -4 -11   9    0.05    0.23 
  -4 -11   9    0.21    0.14 
  -3 -11   9   -0.02    0.13 
  -3 -11   9    0.13    0.22 
   2  11  -9    0.52    0.24 
  -2 -11   9    0.73    0.24 
  -2 -11   9    0.55    0.16 
   1  11  -9   -0.09    0.17 
  -1 -11   9    0.15    0.13 
  -1 -11   9    0.05    0.22 
   0  11  -9   -0.07    0.17 
   0 -11   9    0.02    0.14 
   0 -11   9   -0.19    0.18 
  -1  11  -9   -0.13    0.15 
   1 -11   9    0.16    0.14 
  -2  11  -9    0.60    0.20 
   2 -11   9    0.32    0.16 
  -3  11  -9    0.12    0.15 
  -4  11  -9    0.01    0.16 
  -5  11  -9    0.80    0.21 
  -6  11  -9    0.22    0.17 
  -7  11  -9    0.01    0.17 
  -8  11  -9   -0.01    0.20 
  -9  11  -9   -0.02    0.21 
 -10 -10   9    0.31    0.27 
  -9 -10   9    0.27    0.27 
  -8 -10   9    0.07    0.23 
  -7 -10   9    0.02    0.23 
  -7 -10   9   -0.21    0.13 
  -6 -10   9    0.24    0.23 
  -6 -10   9    0.24    0.14 
  -5 -10   9    0.42    0.15 
  -5 -10   9    0.43    0.24 
  -4 -10   9    0.27    0.14 
  -4 -10   9    0.49    0.23 
  -3 -10   9    0.24    0.13 
  -3 -10   9    0.09    0.19 
   2  10  -9    0.00    0.17 
  -2 -10   9    0.10    0.12 
  -2 -10   9    0.10    0.20 
   1  10  -9    3.58    0.33 
  -1 -10   9    4.24    0.26 
   0  10  -9    3.24    0.30 
   0 -10   9    3.20    0.24 
   0 -10   9    3.28    0.32 
  -1  10  -9    3.25    0.30 
   1 -10   9    3.17    0.24 
  -2  10  -9    0.13    0.15 
   2 -10   9   -0.13    0.13 
  -3  10  -9    0.00    0.14 
   3 -10   9   -0.04    0.12 
  -4  10  -9    0.28    0.16 
  -5  10  -9    0.08    0.15 
  -6  10  -9    0.17    0.18 
  -7  10  -9   -0.12    0.17 
  -8  10  -9   -0.09    0.17 
  -9  10  -9    0.09    0.21 
 -10  10  -9   -0.03    0.19 
 -10  -9   9    0.39    0.29 
  -9  -9   9    0.20    0.26 
  -8  -9   9   -0.04    0.13 
  -8  -9   9    0.07    0.23 
  -7  -9   9    0.42    0.24 
  -7  -9   9    0.31    0.15 
  -6  -9   9    1.04    0.17 
  -6  -9   9    0.96    0.27 
  -5  -9   9    2.05    0.27 
  -5  -9   9    1.94    0.18 
  -4  -9   9    0.04    0.12 
  -4  -9   9    0.44    0.20 
   3   9  -9    0.03    0.17 
  -3  -9   9   -0.03    0.12 
  -3  -9   9   -0.14    0.20 
   2   9  -9   -0.04    0.09 
  -2  -9   9   -0.04    0.11 
  -2  -9   9   -0.05    0.19 
   1   9  -9    1.72    0.26 
  -1  -9   9    1.66    0.17 
   0   9  -9   -0.17    0.16 
   0  -9   9   -0.05    0.19 
   0  -9   9    0.21    0.14 
  -1   9  -9    1.52    0.21 
   1  -9   9    1.42    0.19 
  -2   9  -9    0.00    0.13 
   2  -9   9   -0.23    0.11 
  -3   9  -9   -0.07    0.13 
   3  -9   9   -0.10    0.11 
  -4   9  -9    0.15    0.15 
  -5   9  -9    1.33    0.24 
  -6   9  -9    0.48    0.18 
  -7   9  -9    0.15    0.18 
  -8   9  -9    0.04    0.19 
  -9   9  -9    0.18    0.23 
 -10   9  -9    0.23    0.24 
 -11  -8   9    0.58    0.31 
 -10  -8   9    1.88    0.40 
  -9  -8   9    0.25    0.18 
  -9  -8   9   -0.01    0.27 
  -8  -8   9    0.40    0.17 
  -8  -8   9    0.38    0.26 
  -7  -8   9   -0.01    0.14 
  -7  -8   9    0.01    0.22 
  -6  -8   9    0.03    0.20 
  -6  -8   9    0.09    0.13 
  -5  -8   9    0.20    0.20 
  -5  -8   9    0.23    0.13 
  -4  -8   9    0.06    0.18 
  -4  -8   9    0.52    0.14 
   3   8  -9   -0.09    0.14 
  -3  -8   9    0.03    0.18 
  -3  -8   9   -0.05    0.11 
   2   8  -9   -0.02    0.12 
  -2  -8   9   -0.06    0.18 
  -2  -8   9    0.05    0.11 
   1   8  -9    2.20    0.23 
  -1  -8   9    2.67    0.19 
  -1  -8   9    1.91    0.22 
   0   8  -9    4.06    0.32 
   0  -8   9    4.20    0.25 
   0  -8   9    4.57    0.33 
  -1   8  -9    1.87    0.23 
   1  -8   9    2.14    0.18 
  -2   8  -9   -0.14    0.11 
   2  -8   9    0.01    0.11 
  -3   8  -9    0.08    0.13 
   3  -8   9    0.01    0.11 
  -4   8  -9    0.21    0.15 
  -5   8  -9    0.06    0.14 
  -6   8  -9   -0.11    0.15 
  -7   8  -9   -0.13    0.16 
  -8   8  -9    0.09    0.18 
  -9   8  -9    0.09    0.22 
 -10   8  -9    1.12    0.30 
 -11   8  -9    0.12    0.23 
 -11  -7   9    0.22    0.29 
 -10  -7   9    0.85    0.32 
 -10  -7   9    0.89    0.20 
  -9  -7   9    0.07    0.25 
  -9  -7   9    0.26    0.16 
  -8  -7   9    2.23    0.32 
  -8  -7   9    2.48    0.22 
  -7  -7   9    0.32    0.16 
  -7  -7   9    0.36    0.24 
  -6  -7   9   -0.07    0.20 
  -6  -7   9   -0.11    0.12 
  -5  -7   9    0.62    0.14 
  -5  -7   9    0.61    0.22 
  -4  -7   9    1.68    0.16 
  -4  -7   9    1.49    0.24 
   3   7  -9    0.70    0.17 
  -3  -7   9    1.00    0.22 
  -3  -7   9    0.94    0.15 
   2   7  -9    0.05    0.12 
  -2  -7   9   -0.04    0.14 
  -2  -7   9    0.10    0.11 
   1   7  -9    1.40    0.18 
  -1  -7   9    1.22    0.18 
  -1  -7   9    1.47    0.17 
   0   7  -9   -0.01    0.13 
   0  -7   9   -0.03    0.10 
   0  -7   9   -0.04    0.14 
  -1   7  -9    1.13    0.20 
   1  -7   9    1.45    0.17 
  -2   7  -9   -0.03    0.12 
   2  -7   9    0.09    0.11 
  -3   7  -9    0.60    0.17 
   3  -7   9    0.59    0.13 
  -4   7  -9    0.92    0.19 
   4  -7   9    1.31    0.16 
  -5   7  -9    0.53    0.18 
  -6   7  -9    0.08    0.15 
  -7   7  -9    0.17    0.19 
  -8   7  -9    1.03    0.27 
  -9   7  -9    0.07    0.20 
 -10   7  -9    0.62    0.27 
 -11   7  -9    0.13    0.23 
 -11  -6   9    0.46    0.31 
 -10  -6   9    0.82    0.20 
 -10  -6   9    0.90    0.32 
  -9  -6   9    0.00    0.15 
  -9  -6   9    0.06    0.23 
  -8  -6   9    1.60    0.22 
  -8  -6   9    1.61    0.33 
  -7  -6   9    0.20    0.15 
  -7  -6   9    0.28    0.22 
  -6  -6   9    0.50    0.22 
  -6  -6   9    0.38    0.14 
  -5  -6   9    0.42    0.21 
  -5  -6   9    0.43    0.13 
  -4  -6   9    0.16    0.11 
  -4  -6   9    0.07    0.18 
  -3  -6   9    0.93    0.22 
  -3  -6   9    0.96    0.14 
   2   6  -9    1.14    0.18 
  -2  -6   9    1.16    0.15 
   1   6  -9    1.91    0.19 
  -1  -6   9    2.01    0.16 
  -1  -6   9    1.81    0.20 
   0   6  -9    1.12    0.16 
   0  -6   9    1.38    0.14 
   0  -6   9    1.04    0.16 
  -1   6  -9    1.56    0.20 
   1  -6   9    1.96    0.16 
  -2   6  -9    0.88    0.18 
   2  -6   9    0.87    0.15 
  -3   6  -9    0.67    0.18 
   3  -6   9    0.50    0.13 
  -4   6  -9    0.14    0.12 
   4  -6   9   -0.07    0.10 
  -5   6  -9    0.36    0.16 
  -6   6  -9    0.09    0.17 
  -7   6  -9    0.06    0.19 
  -8   6  -9    0.74    0.26 
  -9   6  -9    0.21    0.20 
 -10   6  -9    0.56    0.25 
 -11   6  -9    0.33    0.21 
 -12  -5   9    0.91    0.30 
 -11  -5   9    0.34    0.17 
 -11  -5   9    0.15    0.30 
 -10  -5   9   -0.08    0.26 
 -10  -5   9   -0.05    0.16 
  -9  -5   9    0.01    0.15 
  -8  -5   9   -0.06    0.15 
  -7  -5   9    1.16    0.19 
  -6  -5   9    0.11    0.13 
  -5  -5   9    1.18    0.27 
  -5  -5   9    1.09    0.16 
  -4  -5   9    0.05    0.18 
  -4  -5   9    0.09    0.11 
  -3  -5   9    0.32    0.11 
  -3  -5   9    0.32    0.17 
   2   5  -9    0.96    0.15 
  -2  -5   9    0.94    0.14 
  -1  -5   9    4.81    0.25 
  -1  -5   9    4.57    0.31 
   0   5  -9   -0.03    0.09 
   0  -5   9    0.01    0.10 
  -1   5  -9    4.21    0.29 
   1  -5   9    4.07    0.23 
  -2   5  -9    0.58    0.16 
   2  -5   9    0.73    0.14 
   3  -5   9    0.24    0.12 
   4  -5   9   -0.01    0.10 
  -6   5  -9   -0.06    0.14 
  -7   5  -9    0.70    0.22 
  -8   5  -9    0.04    0.17 
  -9   5  -9    0.10    0.19 
 -10   5  -9    0.23    0.22 
 -11   5  -9    0.53    0.25 
 -12   5  -9    0.12    0.21 
 -12  -4   9    0.34    0.18 
 -11  -4   9    0.30    0.18 
 -10  -4   9    0.07    0.16 
  -9  -4   9    0.53    0.18 
  -8  -4   9    0.66    0.18 
  -7  -4   9    0.12    0.14 
  -6  -4   9    0.20    0.13 
  -5  -4   9   -0.05    0.10 
  -4  -4   9    1.85    0.16 
  -3  -4   9    9.93    0.43 
   2   4  -9   -0.03    0.08 
  -2  -4   9    0.02    0.09 
  -2  -4   9    0.09    0.09 
  -1  -4   9    1.05    0.16 
  -1  -4   9    1.33    0.14 
   0  -4   9    0.13    0.09 
   0  -4   9    0.09    0.10 
   1  -4   9    1.48    0.17 
   2  -4   9    0.16    0.11 
   2  -4   9    0.25    0.11 
   3  -4   9    8.29    0.37 
   3  -4   9    7.87    0.47 
   4  -4   9    1.45    0.16 
   4  -4   9    1.44    0.21 
   5  -4   9    0.07    0.12 
   6  -4   9    0.28    0.17 
   7  -4   9   -0.17    0.18 
   8  -4   9    0.62    0.22 
  -9   4  -9    0.14    0.19 
 -10   4  -9    0.07    0.19 
 -11   4  -9    0.05    0.20 
 -12   4  -9    0.44    0.23 
 -12  -3   9    0.69    0.19 
 -11  -3   9    0.31    0.17 
 -10  -3   9    0.11    0.16 
  -9  -3   9    0.24    0.17 
  -8  -3   9    0.32    0.16 
  -7  -3   9    0.33    0.15 
  -6  -3   9   -0.03    0.11 
  -5  -3   9    0.25    0.12 
  -4  -3   9    2.91    0.19 
  -3  -3   9    0.07    0.08 
  -2  -3   9   13.04    0.53 
  -1  -3   9   19.93    0.77 
  -1  -3   9   20.45    0.97 
   0  -3   9   -0.01    0.10 
   0  -3   9    0.13    0.09 
   1  -3   9   18.77    0.93 
   1  -3   9   19.19    0.73 
   2  -3   9   11.07    0.61 
   2  -3   9   12.00    0.48 
   3  -3   9    0.05    0.11 
   3  -3   9    0.02    0.10 
   4  -3   9    2.37    0.23 
   4  -3   9    2.19    0.17 
   5  -3   9    0.25    0.14 
   6  -3   9    0.01    0.14 
   7  -3   9    0.23    0.21 
   8  -3   9    0.03    0.20 
   9  -3   9    0.00    0.21 
 -11   3  -9    0.25    0.20 
 -12   3  -9    0.63    0.26 
 -12  -2   9    0.62    0.19 
 -11  -2   9    0.48    0.18 
 -10  -2   9    0.03    0.16 
  -9  -2   9    0.50    0.18 
  -8  -2   9    1.26    0.20 
  -7  -2   9    6.65    0.35 
  -6  -2   9    0.01    0.11 
  -5  -2   9    1.20    0.15 
  -4  -2   9    0.21    0.10 
  -3  -2   9    5.72    0.28 
  -2  -2   9   -0.02    0.07 
  -2  -2   9    0.03    0.08 
   0  -2   9   58.40    2.06 
   0  -2   9   56.86    2.63 
   1  -2   9    0.26    0.11 
   1  -2   9    0.24    0.10 
   2  -2   9    0.02    0.10 
   2  -2   9   -0.01    0.08 
   3  -2   9    4.72    0.33 
   3  -2   9    4.95    0.25 
   4  -2   9    0.01    0.10 
   5  -2   9    1.06    0.19 
   6  -2   9    0.00    0.15 
   7  -2   9    5.20    0.41 
   8  -2   9    1.06    0.27 
   9  -2   9    0.35    0.24 
  10  -2   9   -0.06    0.23 
  11  -2   9    0.38    0.25 
 -12   2  -9    0.72    0.24 
 -12  -1   9    0.39    0.18 
 -11  -1   9    0.06    0.17 
 -10  -1   9    0.22    0.17 
  -9  -1   9    0.18    0.16 
  -8  -1   9    0.33    0.16 
  -7  -1   9    0.37    0.14 
  -6  -1   9   -0.12    0.10 
  -5  -1   9    0.45    0.12 
  -4  -1   9    0.79    0.13 
  -3  -1   9    1.19    0.14 
  -2  -1   9    6.50    0.30 
  -2  -1   9    6.55    0.35 
  -1  -1   9    6.04    0.28 
  -1  -1   9    5.79    0.33 
   0  -1   9    0.11    0.08 
   0  -1   9    0.08    0.09 
   1  -1   9    5.61    0.34 
   1  -1   9    5.40    0.26 
   2  -1   9    6.58    0.30 
   2  -1   9    6.52    0.39 
   3  -1   9    0.97    0.17 
   3  -1   9    0.92    0.12 
   4  -1   9    0.41    0.15 
   4  -1   9    0.50    0.11 
   5  -1   9    0.31    0.16 
   6  -1   9    0.26    0.16 
   7  -1   9    0.22    0.20 
   8  -1   9   -0.02    0.20 
   9  -1   9    0.07    0.20 
  10  -1   9    0.17    0.24 
  11  -1   9    0.09    0.23 
  12  -1   9    0.53    0.26 
 -12   0   9    0.37    0.18 
 -11   0   9    0.29    0.18 
 -10   0   9    0.02    0.16 
  -9   0   9    0.01    0.16 
  -8   0   9   -0.17    0.12 
  -7   0   9    0.03    0.14 
  -6   0   9   -0.09    0.10 
  -5   0   9   -0.02    0.08 
  -4   0   9   -0.02    0.08 
  -3   0   9   -0.05    0.07 
  -2   0   9   -0.05    0.07 
  -2   0   9   -0.04    0.06 
  -1   0   9   -0.03    0.07 
  -1   0   9   -0.05    0.07 
   0   0   9   -0.03    0.07 
   0   0   9   -0.05    0.07 
   1   0   9   -0.04    0.08 
   1   0   9   -0.07    0.07 
   2   0   9    0.10    0.10 
   2   0   9    0.25    0.08 
   3   0   9    0.02    0.08 
   3   0   9   -0.16    0.08 
   4   0   9   -0.09    0.10 
   4   0   9   -0.01    0.08 
   5   0   9    0.04    0.14 
  -6   0  -9   -0.03    0.14 
   6   0   9    0.05    0.14 
   7   0   9    0.17    0.20 
   8   0   9   -0.33    0.19 
   9   0   9    0.15    0.21 
  10   0   9    0.25    0.23 
  11   0   9    0.07    0.24 
  12   0   9    0.23    0.25 
 -12   1   9    0.44    0.20 
 -11   1   9    0.33    0.19 
 -10   1   9    0.27    0.17 
  -9   1   9    0.01    0.15 
  -8   1   9    0.26    0.15 
  -7   1   9    0.18    0.14 
  -6   1   9   -0.03    0.11 
  -5   1   9    0.39    0.12 
  -4   1   9    0.68    0.12 
  -3   1   9    1.13    0.13 
  -2   1   9    6.59    0.30 
  -2   1   9    6.50    0.36 
  -1   1   9    5.89    0.27 
  -1   1   9    5.74    0.34 
   0   1   9    0.01    0.08 
   0   1   9   -0.03    0.10 
   1   1   9    5.61    0.34 
   1   1   9    5.16    0.25 
   2   1   9    6.38    0.28 
   2   1   9    6.07    0.38 
   3   1   9    1.06    0.12 
   3   1   9    0.96    0.17 
   4   1   9    0.32    0.14 
   4   1   9    0.37    0.09 
  -5  -1  -9    0.29    0.13 
   5   1   9    0.36    0.15 
  -6  -1  -9   -0.04    0.16 
   6   1   9    0.15    0.14 
  -7  -1  -9    0.18    0.20 
   7   1   9    0.34    0.20 
   8   1   9   -0.03    0.22 
   9   1   9   -0.06    0.22 
  10   1   9    0.39    0.24 
  11   1   9    0.23    0.24 
  12   1   9    0.34    0.25 
 -12   2   9    0.81    0.22 
 -11   2   9    0.37    0.18 
 -10   2   9    0.15    0.16 
  -9   2   9    0.36    0.17 
  -8   2   9    1.68    0.22 
  -7   2   9    6.91    0.38 
  -6   2   9    0.18    0.12 
  -5   2   9    1.14    0.15 
  -4   2   9    0.43    0.12 
  -4   2   9    0.29    0.10 
  -3   2   9    5.57    0.33 
  -3   2   9    6.00    0.29 
  -2   2   9    0.00    0.08 
  -2   2   9   -0.03    0.08 
   0   2   9   63.19    2.12 
   0   2   9   55.62    2.71 
   1   2   9    0.19    0.12 
   1   2   9    0.28    0.09 
   2   2   9    0.00    0.05 
   2   2   9   -0.16    0.10 
  -3  -2  -9    4.23    0.28 
   3   2   9    4.11    0.21 
   3   2   9    4.61    0.32 
  -4  -2  -9    0.25    0.12 
   4   2   9    0.09    0.08 
   4   2   9    0.13    0.13 
  -5  -2  -9    0.71    0.17 
   5   2   9    0.62    0.17 
  -6  -2  -9   -0.15    0.17 
   6   2   9    0.10    0.14 
  -7  -2  -9    5.11    0.41 
   7   2   9    5.68    0.42 
   8   2   9    1.10    0.29 
   9   2   9    0.28    0.24 
  10   2   9    0.28    0.23 
  11   2   9    0.29    0.25 
  12   2   9    0.83    0.27 
 -12   3   9    0.70    0.21 
 -11   3   9    0.12    0.17 
 -10   3   9    0.20    0.17 
  -9   3   9    0.32    0.17 
  -8   3   9    0.17    0.14 
  -7   3   9    0.21    0.14 
  -6   3   9   -0.01    0.10 
  -5   3   9    0.45    0.12 
  -5   3   9    0.34    0.13 
  -4   3   9    2.95    0.20 
  -4   3   9    2.73    0.22 
  -3   3   9    0.07    0.09 
  -3   3   9   -0.02    0.09 
  -2   3   9   11.85    0.62 
  -2   3   9   11.97    0.49 
  -1   3   9   20.78    0.76 
  -1   3   9   18.87    0.97 
   0   3   9    0.34    0.12 
   1   3   9   18.20    0.91 
   2   3   9   10.35    0.61 
   2   3   9   12.22    0.45 
  -3  -3  -9    0.10    0.12 
   3   3   9   -0.02    0.11 
   3   3   9    0.05    0.07 
  -4  -3  -9    2.33    0.22 
   4   3   9    2.40    0.15 
   4   3   9    2.20    0.24 
  -5  -3  -9    0.20    0.17 
   5   3   9    0.24    0.14 
  -6  -3  -9   -0.20    0.17 
   6   3   9    0.09    0.14 
  -7  -3  -9    0.03    0.22 
   7   3   9    0.33    0.19 
  -8  -3  -9    0.19    0.25 
   8   3   9    0.05    0.21 
   9   3   9    0.29    0.24 
  10   3   9    0.14    0.24 
  11   3   9    0.08    0.24 
  12   3   9    0.61    0.27 
 -12   4   9    0.29    0.18 
 -11   4   9   -0.08    0.16 
 -10   4   9    0.16    0.17 
  -9   4   9    0.20    0.15 
  -8   4   9    0.39    0.15 
  -7   4   9   -0.04    0.13 
  -6   4   9    0.38    0.13 
  -5   4   9   -0.07    0.12 
  -5   4   9    0.02    0.09 
  -4   4   9    1.52    0.16 
  -4   4   9    1.64    0.19 
  -3   4   9   10.27    0.44 
  -3   4   9    9.82    0.54 
  -2   4   9   -0.04    0.08 
  -2   4   9   -0.05    0.12 
  -1   4   9    1.12    0.12 
  -1   4   9    1.26    0.18 
   0   4   9    0.21    0.13 
   0   4   9    0.13    0.08 
   1   4   9    1.19    0.12 
   1   4   9    1.28    0.18 
   2   4   9    0.00    0.07 
   2   4   9    0.08    0.12 
  -3  -4  -9    7.94    0.49 
   3   4   9    8.40    0.33 
   3   4   9    8.07    0.49 
  -4  -4  -9    1.12    0.18 
   4   4   9    1.05    0.11 
   4   4   9    1.49    0.23 
  -5  -4  -9    0.00    0.17 
   5   4   9    0.06    0.13 
  -6  -4  -9    0.26    0.21 
   6   4   9    0.43    0.18 
  -7  -4  -9   -0.03    0.21 
   7   4   9    0.11    0.19 
  -8  -4  -9    0.35    0.27 
   8   4   9    0.22    0.22 
   9   4   9    0.42    0.24 
  10   4   9    0.21    0.24 
  11   4   9    0.12    0.26 
 -11   5   9    0.01    0.17 
 -10   5   9   -0.06    0.16 
  -9   5   9    0.08    0.15 
  -8   5   9    0.32    0.15 
  -7   5   9    1.47    0.20 
  -6   5   9    0.01    0.11 
  -6   5   9    0.05    0.15 
  -5   5   9    0.89    0.15 
  -5   5   9    1.34    0.20 
  -4   5   9    0.14    0.10 
  -4   5   9   -0.02    0.14 
  -3   5   9    0.47    0.11 
  -2   5   9    1.02    0.19 
  -2   5   9    0.85    0.12 
  -1   5   9    4.29    0.31 
  -1   5   9    4.50    0.23 
   0   5   9    0.17    0.13 
   0   5   9    0.02    0.05 
   1   5   9    5.04    0.35 
   1   5   9    4.74    0.24 
   2   5   9    0.78    0.18 
   2   5   9    0.44    0.09 
  -3  -5  -9    0.32    0.17 
   3   5   9    0.22    0.14 
  -4  -5  -9    0.04    0.16 
   4   5   9    0.13    0.14 
  -5  -5  -9    0.96    0.23 
   5   5   9    1.04    0.22 
  -6  -5  -9   -0.11    0.21 
   6   5   9    0.05    0.15 
  -7  -5  -9    0.84    0.29 
   7   5   9    1.45    0.26 
  -8  -5  -9    0.31    0.27 
   8   5   9    0.09    0.21 
  -9  -5  -9   -0.06    0.29 
   9   5   9    0.47    0.23 
  10   5   9   -0.01    0.24 
  11   5   9    0.30    0.27 
 -11   6   9    0.11    0.18 
 -10   6   9    0.88    0.21 
  -9   6   9    0.13    0.15 
  -8   6   9    1.78    0.23 
  -7   6   9    0.38    0.14 
  -6   6   9    0.42    0.14 
  -6   6   9    0.40    0.18 
  -5   6   9    0.41    0.12 
  -5   6   9    0.61    0.17 
  -4   6   9    0.11    0.10 
  -4   6   9    0.09    0.15 
  -3   6   9    1.03    0.20 
  -3   6   9    1.13    0.15 
  -2   6   9    1.42    0.22 
  -2   6   9    1.38    0.15 
  -1   6   9    1.98    0.23 
  -1   6   9    1.90    0.15 
   0   6   9    1.22    0.13 
   0   6   9    1.46    0.22 
   1   6   9    1.95    0.22 
   1   6   9    1.79    0.15 
   2   6   9    1.27    0.22 
  -3  -6  -9    0.97    0.21 
   3   6   9    0.60    0.17 
  -4  -6  -9    0.11    0.17 
   4   6   9    0.01    0.13 
  -5  -6  -9    0.42    0.21 
   5   6   9    0.53    0.19 
  -6  -6  -9    0.23    0.24 
   6   6   9    0.49    0.20 
  -7  -6  -9    0.24    0.27 
   7   6   9    0.50    0.24 
  -8  -6  -9    1.52    0.35 
   8   6   9    1.51    0.29 
  -9  -6  -9   -0.14    0.31 
   9   6   9    0.25    0.24 
  10   6   9    1.05    0.30 
  11   6   9    0.82    0.30 
 -11   7   9    0.14    0.17 
 -10   7   9    0.84    0.20 
  -9   7   9    0.56    0.17 
  -8   7   9    2.17    0.21 
  -7   7   9    0.34    0.15 
  -6   7   9    0.02    0.18 
  -6   7   9   -0.11    0.11 
  -5   7   9    0.80    0.15 
  -5   7   9    0.51    0.19 
  -4   7   9    1.95    0.23 
  -4   7   9    1.71    0.17 
  -3   7   9    1.06    0.15 
  -3   7   9    0.95    0.21 
  -2   7   9   -0.01    0.16 
  -2   7   9    0.00    0.09 
  -1   7   9    1.49    0.24 
  -1   7   9    1.03    0.13 
   0   7   9   -0.03    0.08 
   0   7   9    0.12    0.16 
   1   7   9    0.78    0.12 
   1   7   9    1.55    0.24 
   2   7   9   -0.01    0.13 
  -3  -7  -9    0.98    0.22 
   3   7   9    0.94    0.20 
  -4  -7  -9    1.68    0.26 
   4   7   9    1.42    0.25 
  -5  -7  -9    0.39    0.23 
   5   7   9    0.80    0.22 
  -6  -7  -9   -0.26    0.24 
   6   7   9    0.15    0.20 
  -7  -7  -9    0.10    0.28 
   7   7   9    0.50    0.23 
  -8  -7  -9    2.67    0.42 
   8   7   9    2.17    0.28 
  -9  -7  -9   -0.02    0.32 
   9   7   9    0.77    0.25 
 -10  -7  -9    0.56    0.37 
  10   7   9    1.06    0.29 
  11   7   9    0.69    0.27 
 -11   8   9    0.42    0.18 
 -10   8   9    1.85    0.25 
  -9   8   9    0.43    0.17 
  -8   8   9    0.34    0.15 
  -7   8   9    0.19    0.13 
  -6   8   9    0.18    0.15 
  -6   8   9   -0.04    0.12 
  -5   8   9    0.09    0.16 
  -5   8   9    0.22    0.12 
  -4   8   9    0.01    0.15 
  -4   8   9    0.16    0.11 
  -3   8   9   -0.11    0.16 
  -3   8   9   -0.08    0.10 
  -2   8   9    0.09    0.17 
  -2   8   9   -0.03    0.09 
   0   8   9    4.39    0.34 
   0   8   9    3.75    0.22 
   1   8   9    1.89    0.23 
   2   8   9    0.00    0.17 
  -3  -8  -9    0.11    0.20 
   3   8   9   -0.08    0.15 
  -4  -8  -9    0.02    0.20 
   4   8   9    0.26    0.18 
  -5  -8  -9   -0.14    0.22 
   5   8   9    0.28    0.21 
  -6  -8  -9   -0.37    0.24 
   6   8   9   -0.01    0.21 
  -7  -8  -9   -0.11    0.27 
   7   8   9    0.20    0.22 
  -8  -8  -9    0.33    0.31 
   8   8   9    0.71    0.25 
  -9  -8  -9    0.13    0.35 
   9   8   9    0.73    0.26 
 -10  -8  -9    1.52    0.42 
  10   8   9    2.03    0.35 
 -10   9   9    0.38    0.18 
  -9   9   9    0.15    0.17 
  -8   9   9    0.01    0.14 
  -7   9   9    0.47    0.17 
  -7   9   9    0.65    0.19 
  -6   9   9    1.09    0.23 
  -6   9   9    1.04    0.19 
  -5   9   9    1.97    0.24 
  -5   9   9    1.92    0.20 
  -4   9   9    0.09    0.11 
  -4   9   9    0.49    0.19 
  -3   9   9   -0.09    0.10 
  -3   9   9   -0.11    0.15 
  -2   9   9    0.06    0.10 
  -2   9   9    0.22    0.18 
  -1   9   9    1.86    0.25 
  -1   9   9    1.50    0.16 
   0   9   9   -0.08    0.09 
   0   9   9    0.11    0.21 
   1   9   9    1.87    0.29 
   2   9   9   -0.15    0.17 
  -3  -9  -9   -0.03    0.22 
   3   9   9   -0.12    0.16 
  -4  -9  -9    0.19    0.23 
   4   9   9    0.32    0.22 
  -5  -9  -9    1.63    0.26 
   5   9   9    2.02    0.27 
  -6  -9  -9    0.73    0.30 
   6   9   9    1.32    0.30 
  -7  -9  -9   -0.11    0.29 
   7   9   9    0.63    0.27 
  -8  -9  -9   -0.49    0.30 
   8   9   9    0.61    0.26 
  -9  -9  -9   -0.36    0.34 
   9   9   9    0.77    0.26 
  10   9   9    0.92    0.27 
 -10  10   9    0.50    0.18 
  -9  10   9    0.32    0.18 
  -8  10   9   -0.05    0.14 
  -7  10   9    0.22    0.15 
  -7  10   9    0.07    0.17 
  -6  10   9    0.38    0.16 
  -6  10   9    0.33    0.20 
  -5  10   9    0.24    0.20 
  -5  10   9    0.32    0.15 
  -4  10   9    0.33    0.13 
  -4  10   9    0.15    0.20 
  -3  10   9    0.23    0.18 
  -3  10   9    0.13    0.11 
  -2  10   9    0.12    0.19 
  -2  10   9    0.02    0.11 
  -1  10   9    3.66    0.34 
  -1  10   9    3.24    0.23 
   0  10   9    3.36    0.34 
   1  10   9    3.22    0.33 
   2  10   9    0.02    0.19 
   3  10   9    0.22    0.22 
  -4 -10  -9   -0.01    0.23 
   4  10   9    0.44    0.24 
  -5 -10  -9    0.26    0.25 
   5  10   9    0.32    0.24 
  -6 -10  -9   -0.17    0.26 
   6  10   9    0.24    0.26 
  -7 -10  -9   -0.50    0.27 
   7  10   9    0.12    0.24 
  -8 -10  -9   -0.55    0.30 
   8  10   9    0.21    0.24 
  -9 -10  -9   -0.12    0.34 
   9  10   9    0.99    0.28 
 -10 -10  -9   -0.25    0.36 
  10  10   9    1.05    0.29 
  -9  11   9    0.46    0.18 
  -8  11   9    0.26    0.15 
  -7  11   9    0.31    0.18 
  -7  11   9    0.13    0.14 
  -6  11   9    0.34    0.20 
  -6  11   9    0.19    0.15 
  -5  11   9    1.85    0.32 
  -5  11   9    2.19    0.21 
  -4  11   9   -0.02    0.21 
  -4  11   9    0.14    0.13 
  -3  11   9   -0.05    0.19 
  -3  11   9    0.36    0.11 
  -2  11   9    0.67    0.24 
  -2  11   9    0.36    0.11 
  -1  11   9    0.00    0.21 
   0  11   9   -0.07    0.22 
   1  11   9   -0.07    0.22 
   2  11   9    0.80    0.25 
   3  11   9    0.31    0.24 
  -4 -11  -9   -0.04    0.26 
   4  11   9    0.43    0.25 
  -5 -11  -9    1.85    0.35 
   5  11   9    2.59    0.39 
  -6 -11  -9   -0.23    0.26 
   6  11   9   -0.04    0.24 
  -7 -11  -9   -0.38    0.28 
   7  11   9    0.59    0.26 
  -8 -11  -9   -0.32    0.31 
   8  11   9    0.28    0.26 
  -9 -11  -9   -0.20    0.36 
   9  11   9    0.80    0.29 
  10  11   9    1.13    0.29 
  -9  12   9    0.65    0.19 
  -8  12   9    0.39    0.17 
  -7  12   9    0.18    0.18 
  -7  12   9    0.14    0.15 
  -6  12   9    0.36    0.20 
  -6  12   9    0.27    0.15 
  -5  12   9    0.29    0.22 
  -5  12   9    0.53    0.15 
  -4  12   9    0.30    0.14 
  -4  12   9    0.01    0.21 
  -3  12   9    0.84    0.16 
  -3  12   9    0.73    0.25 
  -2  12   9    0.25    0.21 
  -1  12   9   -0.10    0.21 
   0  12   9    1.16    0.30 
   1  12   9    0.27    0.24 
   2  12   9    0.15    0.23 
   3  12   9    1.01    0.29 
  -4 -12  -9    0.12    0.27 
   4  12   9    0.21    0.26 
  -5 -12  -9    0.22    0.28 
   5  12   9    0.35    0.27 
  -6 -12  -9   -0.11    0.28 
   6  12   9    0.13    0.26 
  -7 -12  -9   -0.23    0.28 
   7  12   9    0.44    0.27 
  -8 -12  -9   -0.48    0.30 
   8  12   9    0.98    0.28 
  -9 -12  -9    0.12    0.37 
   9  12   9    1.02    0.30 
  -8  13   9    1.04    0.20 
  -7  13   9    0.10    0.20 
  -7  13   9    0.31    0.16 
  -6  13   9    0.17    0.15 
  -6  13   9    0.16    0.19 
  -5  13   9    0.34    0.23 
  -5  13   9    0.44    0.16 
  -4  13   9    0.26    0.22 
  -4  13   9    0.55    0.15 
  -3  13   9    0.07    0.20 
  -2  13   9    0.00    0.21 
  -1  13   9    0.04    0.23 
   0  13   9   -0.14    0.23 
   1  13   9    0.12    0.24 
   2  13   9   -0.02    0.24 
   3  13   9    0.24    0.26 
   4  13   9    0.32    0.28 
  -5 -13  -9    0.16    0.30 
   5  13   9    0.66    0.30 
  -6 -13  -9   -0.20    0.27 
   6  13   9    0.43    0.28 
  -7 -13  -9   -0.10    0.30 
   7  13   9    0.65    0.28 
  -8 -13  -9   -0.13    0.32 
   8  13   9    1.61    0.33 
  -7  14   9    0.20    0.20 
  -7  14   9    0.31    0.17 
  -6  14   9    0.32    0.17 
  -6  14   9    0.23    0.19 
  -5  14   9    0.14    0.19 
  -4  14   9    0.21    0.21 
  -3  14   9    0.39    0.22 
  -2  14   9    0.20    0.24 
  -1  14   9    0.10    0.23 
   0  14   9    0.49    0.28 
   1  14   9    0.10    0.25 
   2  14   9    0.36    0.29 
   3  14   9    0.11    0.25 
   4  14   9    0.21    0.27 
  -5 -14  -9   -0.26    0.29 
   5  14   9    0.30    0.28 
  -6 -14  -9   -0.11    0.30 
   6  14   9    0.68    0.29 
  -7 -14  -9   -0.35    0.30 
   7  14   9    0.82    0.29 
  -6  15   9    0.31    0.19 
  -5  15   9    0.44    0.22 
  -4  15   9    0.68    0.25 
  -3  15   9    0.27    0.22 
  -2  15   9    0.29    0.25 
  -1  15   9   -0.10    0.23 
   0  15   9    0.19    0.27 
   1  15   9    0.29    0.25 
   2  15   9    0.41    0.25 
   3  15   9    0.60    0.25 
   4  15   9    0.51    0.29 
   5  15   9    0.82    0.30 
  -6 -15  -9   -0.20    0.33 
   6  15   9    0.91    0.30 
  -5  16   9    0.45    0.22 
  -4  16   9    0.56    0.22 
  -3  16   9    1.09    0.30 
  -2  16   9    0.24    0.21 
  -1  16   9   -0.10    0.24 
   0  16   9    0.12    0.25 
   1  16   9    0.21    0.23 
   2  16   9    0.55    0.26 
   3  16   9    1.37    0.33 
   4  16   9    0.91    0.31 
   5  16   9    0.64    0.30 
  -3  17   9    0.64    0.24 
  -2  17   9    0.12    0.22 
  -1  17   9    0.29    0.24 
   0  17   9    0.20    0.26 
   1  17   9    0.86    0.26 
   2  17   9    0.49    0.25 
   3  17   9    0.93    0.29 
   0  17 -10    0.58    0.30 
  -1  17 -10    0.59    0.26 
  -2  17 -10    0.56    0.26 
  -1 -16  10    0.15    0.17 
   0  16 -10    0.50    0.26 
   0 -16  10    0.11    0.17 
  -1  16 -10    0.21    0.24 
  -2  16 -10    0.28    0.25 
  -3  16 -10    0.77    0.26 
  -4  16 -10    0.65    0.26 
  -6 -15  10   -0.38    0.31 
  -5 -15  10   -0.06    0.31 
  -2 -15  10    0.27    0.18 
   1  15 -10    0.48    0.24 
  -1 -15  10    0.52    0.19 
   0  15 -10    0.23    0.24 
   0 -15  10    0.00    0.16 
  -1  15 -10    0.15    0.23 
  -2  15 -10    0.09    0.22 
  -3  15 -10    0.48    0.25 
  -4  15 -10    0.59    0.25 
  -5  15 -10    0.27    0.21 
  -6  15 -10    0.24    0.17 
  -7 -14  10   -0.49    0.30 
  -6 -14  10   -0.01    0.29 
  -5 -14  10    0.32    0.32 
  -4 -14  10   -0.02    0.29 
  -3 -14  10    1.43    0.22 
  -2 -14  10   -0.02    0.17 
   1  14 -10    0.25    0.22 
  -1 -14  10   -0.06    0.17 
   0  14 -10    0.29    0.21 
   0 -14  10    0.07    0.17 
  -1  14 -10    0.62    0.24 
   1 -14  10    0.17    0.18 
  -2  14 -10    0.12    0.22 
  -3  14 -10    0.48    0.24 
  -4  14 -10    0.20    0.21 
  -5  14 -10    0.29    0.19 
  -6  14 -10    0.16    0.17 
  -7  14 -10    0.25    0.17 
  -8 -13  10    0.47    0.32 
  -7 -13  10   -0.11    0.28 
  -6 -13  10    0.02    0.28 
  -5 -13  10    0.47    0.29 
  -4 -13  10    0.75    0.18 
  -4 -13  10    0.36    0.29 
  -3 -13  10    0.44    0.18 
  -3 -13  10    0.25    0.27 
  -2 -13  10   -0.08    0.15 
   1  13 -10    0.30    0.21 
  -1 -13  10    0.15    0.16 
   0  13 -10    0.32    0.22 
   0 -13  10    0.00    0.15 
  -1  13 -10    0.33    0.22 
   1 -13  10    0.22    0.17 
  -2  13 -10    0.00    0.19 
   2 -13  10    0.12    0.16 
  -3  13 -10    0.22    0.20 
  -4  13 -10    0.20    0.19 
  -5  13 -10    0.42    0.18 
  -6  13 -10    0.27    0.17 
  -7  13 -10    0.02    0.15 
  -8  13 -10    0.56    0.19 
  -8 -12  10    0.07    0.27 
  -7 -12  10    0.12    0.27 
  -6 -12  10    0.55    0.29 
  -5 -12  10    0.40    0.17 
  -5 -12  10    0.12    0.27 
  -4 -12  10    0.02    0.26 
  -4 -12  10   -0.11    0.15 
  -3 -12  10   -0.17    0.25 
  -3 -12  10    0.15    0.16 
   2  12 -10   -0.14    0.18 
  -2 -12  10   -0.05    0.23 
  -2 -12  10    0.17    0.16 
   1  12 -10    1.08    0.26 
  -1 -12  10    1.09    0.20 
   0  12 -10    0.28    0.19 
   0 -12  10    0.06    0.15 
  -1  12 -10    0.73    0.23 
   1 -12  10    0.99    0.19 
  -2  12 -10   -0.01    0.18 
   2 -12  10    0.08    0.15 
  -3  12 -10    0.13    0.18 
  -4  12 -10    0.08    0.18 
  -5  12 -10    0.26    0.17 
  -6  12 -10    0.18    0.15 
  -7  12 -10    0.25    0.18 
  -8  12 -10    0.09    0.19 
  -9 -11  10    0.09    0.26 
  -8 -11  10    0.25    0.25 
  -7 -11  10    0.04    0.24 
  -6 -11  10    0.53    0.27 
  -6 -11  10    0.56    0.17 
  -5 -11  10    0.62    0.17 
  -5 -11  10    0.48    0.27 
  -4 -11  10    0.22    0.26 
  -4 -11  10    0.65    0.18 
  -3 -11  10    0.14    0.22 
  -3 -11  10   -0.17    0.13 
   2  11 -10   -0.19    0.17 
  -2 -11  10    0.02    0.13 
  -2 -11  10   -0.15    0.20 
   1  11 -10    0.50    0.21 
  -1 -11  10    0.99    0.18 
   0  11 -10    0.14    0.17 
   0 -11  10   -0.15    0.14 
  -1  11 -10    0.51    0.20 
   1 -11  10    0.56    0.18 
  -2  11 -10    0.21    0.18 
   2 -11  10   -0.15    0.14 
  -3  11 -10   -0.02    0.15 
   3 -11  10   -0.10    0.14 
  -4  11 -10    0.21    0.17 
  -5  11 -10    0.15    0.16 
  -6  11 -10    0.17    0.17 
  -7  11 -10    0.00    0.17 
  -8  11 -10   -0.26    0.16 
  -9  11 -10    0.13    0.20 
 -10 -10  10    0.67    0.28 
  -9 -10  10    0.13    0.25 
  -8 -10  10    0.07    0.23 
  -7 -10  10    0.12    0.15 
  -7 -10  10   -0.11    0.22 
  -6 -10  10    0.30    0.15 
  -6 -10  10    0.35    0.25 
  -5 -10  10    1.45    0.30 
  -5 -10  10    1.47    0.20 
  -4 -10  10    0.75    0.25 
  -4 -10  10    0.39    0.16 
  -3 -10  10    1.48    0.20 
  -3 -10  10    1.27    0.26 
   2  10 -10    0.09    0.14 
  -2 -10  10   -0.01    0.21 
  -2 -10  10    0.21    0.14 
   1  10 -10    1.45    0.27 
  -1 -10  10    1.78    0.21 
  -1 -10  10    0.85    0.24 
   0  10 -10    0.31    0.20 
   0 -10  10    0.39    0.15 
  -1  10 -10    0.94    0.21 
   1 -10  10    1.07    0.19 
  -2  10 -10    0.10    0.15 
   2 -10  10   -0.18    0.13 
  -3  10 -10    0.93    0.22 
   3 -10  10    0.81    0.18 
  -4  10 -10    0.37    0.18 
  -5  10 -10    0.69    0.21 
  -6  10 -10    0.10    0.16 
  -7  10 -10   -0.10    0.17 
  -8  10 -10   -0.09    0.17 
  -9  10 -10   -0.09    0.18 
 -10  10 -10    0.08    0.19 
 -10  -9  10    0.67    0.31 
  -9  -9  10    0.13    0.26 
  -8  -9  10   -0.02    0.14 
  -8  -9  10    0.20    0.24 
  -7  -9  10    0.01    0.22 
  -7  -9  10   -0.12    0.14 
  -6  -9  10   -0.07    0.20 
  -6  -9  10    0.05    0.14 
  -5  -9  10    0.42    0.15 
  -5  -9  10    0.45    0.23 
  -4  -9  10    0.60    0.15 
  -4  -9  10    0.81    0.23 
  -3  -9  10   -0.08    0.13 
  -3  -9  10   -0.09    0.20 
   2   9 -10    0.09    0.12 
  -2  -9  10   -0.04    0.18 
  -2  -9  10    0.13    0.13 
   1   9 -10    1.73    0.24 
  -1  -9  10    1.89    0.25 
  -1  -9  10    2.12    0.19 
   0   9 -10   -0.12    0.17 
   0  -9  10   -0.08    0.14 
  -1   9 -10    1.80    0.23 
   1  -9  10    1.86    0.22 
  -2   9 -10    0.15    0.15 
   2  -9  10    0.01    0.13 
  -3   9 -10    0.01    0.15 
   3  -9  10   -0.10    0.12 
  -4   9 -10    0.51    0.17 
  -5   9 -10    0.08    0.14 
  -6   9 -10    0.04    0.15 
  -7   9 -10    0.03    0.16 
  -8   9 -10   -0.09    0.17 
  -9   9 -10    0.13    0.22 
 -10   9 -10    0.58    0.27 
 -10  -8  10    0.25    0.28 
  -9  -8  10    0.21    0.27 
  -9  -8  10    0.24    0.17 
  -8  -8  10    0.14    0.16 
  -8  -8  10    0.05    0.25 
  -7  -8  10   -0.15    0.13 
  -7  -8  10   -0.18    0.21 
  -6  -8  10    1.67    0.31 
  -6  -8  10    1.78    0.21 
  -5  -8  10   -0.09    0.12 
  -5  -8  10   -0.01    0.19 
  -4  -8  10    0.40    0.20 
  -4  -8  10    0.41    0.14 
  -3  -8  10    1.72    0.17 
  -3  -8  10    1.50    0.24 
   2   8 -10    0.18    0.15 
  -2  -8  10    0.25    0.14 
  -2  -8  10   -0.10    0.12 
   1   8 -10    0.76    0.19 
  -1  -8  10    1.24    0.17 
  -1  -8  10    1.18    0.23 
   0   8 -10    4.66    0.34 
   0  -8  10    4.19    0.33 
   0  -8  10    4.34    0.27 
  -1   8 -10    0.77    0.20 
   1  -8  10    0.77    0.16 
  -2   8 -10    0.13    0.13 
   2  -8  10    0.07    0.12 
  -3   8 -10    1.02    0.20 
   3  -8  10    1.44    0.19 
  -4   8 -10    0.35    0.16 
   4  -8  10    0.03    0.12 
  -5   8 -10    0.20    0.16 
  -6   8 -10    0.88    0.22 
  -7   8 -10   -0.04    0.17 
  -8   8 -10   -0.02    0.16 
  -9   8 -10   -0.11    0.21 
 -10   8 -10    0.17    0.23 
 -11  -7  10    0.51    0.29 
 -10  -7  10    0.41    0.19 
 -10  -7  10    0.38    0.28 
  -9  -7  10    2.14    0.26 
  -9  -7  10    1.86    0.38 
  -8  -7  10    0.11    0.24 
  -8  -7  10    0.06    0.15 
  -7  -7  10    0.17    0.22 
  -7  -7  10    0.24    0.17 
  -6  -7  10    0.08    0.21 
  -6  -7  10   -0.09    0.13 
  -5  -7  10    0.56    0.15 
  -5  -7  10    0.76    0.23 
  -4  -7  10    0.19    0.13 
  -4  -7  10    0.21    0.20 
   3   7 -10    0.33    0.15 
  -3  -7  10    0.35    0.19 
  -3  -7  10    0.48    0.13 
   2   7 -10    1.37    0.18 
  -2  -7  10    1.71    0.19 
   1   7 -10    0.94    0.19 
  -1  -7  10    1.10    0.16 
  -1  -7  10    0.89    0.19 
   0   7 -10   -0.10    0.13 
   0  -7  10    0.01    0.15 
   0  -7  10   -0.03    0.11 
  -1   7 -10    0.88    0.20 
   1  -7  10    0.88    0.16 
  -2   7 -10    0.81    0.20 
   2  -7  10    1.49    0.17 
  -3   7 -10    0.30    0.15 
   3  -7  10    0.45    0.13 
  -4   7 -10    0.05    0.13 
   4  -7  10    0.05    0.12 
  -5   7 -10    0.37    0.17 
  -6   7 -10    0.13    0.15 
  -7   7 -10    0.30    0.20 
  -8   7 -10    0.00    0.16 
  -9   7 -10    0.98    0.28 
 -10   7 -10    0.35    0.23 
 -11   7 -10   -0.16    0.20 
 -11  -6  10    0.41    0.19 
 -11  -6  10    0.66    0.31 
 -10  -6  10    0.24    0.17 
 -10  -6  10    0.42    0.29 
  -9  -6  10    0.04    0.24 
  -9  -6  10    0.04    0.16 
  -8  -6  10   -0.04    0.15 
  -8  -6  10    0.10    0.22 
  -7  -6  10    1.00    0.20 
  -7  -6  10    0.69    0.27 
  -6  -6  10    0.29    0.21 
  -6  -6  10    0.04    0.14 
  -5  -6  10    3.49    0.34 
  -5  -6  10    3.56    0.24 
  -4  -6  10    0.15    0.20 
  -4  -6  10    0.31    0.13 
  -3  -6  10    1.62    0.23 
  -3  -6  10    1.53    0.16 
   2   6 -10    0.11    0.13 
  -2  -6  10    0.14    0.11 
  -2  -6  10   -0.05    0.13 
   1   6 -10    1.90    0.19 
  -1  -6  10    2.32    0.19 
  -1  -6  10    2.16    0.21 
   0   6 -10   -0.14    0.11 
   0  -6  10   -0.05    0.11 
  -1   6 -10    1.76    0.22 
   1  -6  10    2.31    0.18 
  -2   6 -10    0.04    0.14 
   2  -6  10    0.23    0.11 
  -3   6 -10    1.20    0.20 
   3  -6  10    1.37    0.17 
  -4   6 -10    0.12    0.13 
   4  -6  10    0.12    0.12 
  -5   6 -10    2.40    0.26 
  -6   6 -10    0.06    0.17 
  -7   6 -10    0.34    0.21 
  -8   6 -10    0.08    0.20 
  -9   6 -10    0.06    0.21 
 -10   6 -10    0.30    0.22 
 -11   6 -10    0.19    0.22 
 -11  -5  10    0.34    0.17 
 -11  -5  10    0.24    0.28 
 -10  -5  10    0.36    0.32 
 -10  -5  10    0.12    0.16 
  -9  -5  10   -0.04    0.17 
  -8  -5  10    0.47    0.18 
  -7  -5  10    0.09    0.15 
  -6  -5  10   -0.20    0.12 
  -5  -5  10    0.17    0.12 
  -4  -5  10    2.31    0.19 
  -4  -5  10    2.51    0.29 
  -3  -5  10    0.10    0.11 
  -3  -5  10    0.13    0.17 
   2   5 -10   10.73    0.52 
  -2  -5  10    8.94    0.59 
  -2  -5  10    9.72    0.43 
   1   5 -10   -0.01    0.07 
  -1  -5  10    0.29    0.11 
  -1  -5  10    0.14    0.13 
   0   5 -10   -0.08    0.11 
   0  -5  10   -0.08    0.10 
  -1   5 -10    0.19    0.13 
   1  -5  10    0.22    0.12 
   2  -5  10    8.57    0.40 
   3  -5  10    0.13    0.13 
   3  -5  10    0.05    0.11 
   4  -5  10    1.82    0.21 
   4  -5  10    1.65    0.17 
   5  -5  10    0.02    0.13 
  -7   5 -10    0.13    0.17 
  -8   5 -10    0.03    0.17 
  -9   5 -10    0.09    0.19 
 -10   5 -10    0.06    0.21 
 -11   5 -10    0.19    0.21 
 -11  -4  10    0.23    0.18 
 -10  -4  10   -0.02    0.16 
  -9  -4  10    0.25    0.18 
  -8  -4  10    0.03    0.15 
  -7  -4  10    6.92    0.37 
  -6  -4  10    1.72    0.21 
  -5  -4  10   -0.01    0.10 
  -4  -4  10    0.21    0.11 
  -3  -4  10    2.56    0.19 
   2   4 -10    0.27    0.12 
  -2  -4  10    0.40    0.12 
  -2  -4  10    0.44    0.16 
  -1  -4  10    8.82    0.38 
  -1  -4  10    7.86    0.49 
   0  -4  10    5.95    0.35 
   0  -4  10    5.39    0.29 
   1  -4  10    8.05    0.45 
   1  -4  10    7.52    0.36 
   2  -4  10    1.48    0.18 
   3  -4  10    2.19    0.22 
   3  -4  10    2.17    0.18 
   4  -4  10    0.12    0.13 
   4  -4  10    0.04    0.12 
   5  -4  10    0.18    0.15 
   6  -4  10    1.11    0.24 
   7  -4  10    4.73    0.39 
   8  -4  10    0.24    0.21 
 -10   4 -10    0.04    0.18 
 -11   4 -10    0.33    0.22 
 -12  -3  10    0.38    0.18 
 -11  -3  10    0.33    0.18 
 -10  -3  10   -0.03    0.15 
  -9  -3  10    0.99    0.21 
  -8  -3  10    1.72    0.23 
  -7  -3  10    0.98    0.19 
  -6  -3  10    1.78    0.19 
  -5  -3  10    0.93    0.15 
  -4  -3  10    0.61    0.13 
  -3  -3  10    0.34    0.11 
  -2  -3  10    0.97    0.13 
  -2  -3  10    1.31    0.14 
  -1  -3  10    1.42    0.14 
  -1  -3  10    1.24    0.15 
   0  -3  10    0.01    0.09 
   0  -3  10    0.02    0.09 
   1  -3  10    1.49    0.17 
   1  -3  10    1.51    0.15 
   2  -3  10    0.88    0.14 
   2  -3  10    1.18    0.18 
   3  -3  10    0.27    0.12 
   3  -3  10    0.43    0.15 
   4  -3  10    0.45    0.15 
   4  -3  10    0.40    0.13 
   5  -3  10    0.75    0.18 
   5  -3  10    0.56    0.14 
   6  -3  10    1.65    0.27 
   7  -3  10    0.35    0.23 
   8  -3  10    0.99    0.27 
   9  -3  10    0.77    0.27 
  10  -3  10   -0.17    0.20 
 -11   3 -10    0.08    0.19 
 -12   3 -10    0.30    0.20 
 -12  -2  10    0.21    0.16 
 -11  -2  10    0.38    0.18 
 -10  -2  10    0.06    0.15 
  -9  -2  10    0.09    0.16 
  -8  -2  10    0.38    0.16 
  -7  -2  10    2.42    0.22 
  -6  -2  10    0.85    0.17 
  -5  -2  10    2.01    0.18 
  -4  -2  10    0.27    0.10 
  -3  -2  10    2.12    0.17 
  -2  -2  10    1.34    0.15 
  -2  -2  10    0.96    0.12 
  -1  -2  10    0.92    0.13 
  -1  -2  10    0.91    0.14 
   0  -2  10    1.06    0.14 
   0  -2  10    1.05    0.14 
   1  -2  10    0.74    0.13 
   1  -2  10    0.86    0.16 
   2  -2  10    1.43    0.14 
   2  -2  10    1.54    0.18 
   3  -2  10    1.73    0.20 
   3  -2  10    1.68    0.15 
   4  -2  10    0.18    0.11 
   4  -2  10    0.27    0.15 
   5  -2  10    1.43    0.16 
   5  -2  10    1.46    0.20 
   6  -2  10    0.85    0.22 
   7  -2  10    2.11    0.33 
   8  -2  10    0.34    0.21 
   9  -2  10   -0.10    0.20 
  10  -2  10    0.30    0.25 
  11  -2  10    0.75    0.26 
 -12   2 -10    0.37    0.21 
 -12  -1  10    0.39    0.17 
 -11  -1  10    0.18    0.16 
 -10  -1  10   -0.13    0.16 
  -9  -1  10    0.16    0.16 
  -8  -1  10    1.14    0.20 
  -7  -1  10    9.20    0.45 
  -6  -1  10   -0.07    0.12 
  -5  -1  10    0.19    0.12 
  -4  -1  10    0.62    0.13 
  -3  -1  10    0.19    0.10 
  -2  -1  10    0.59    0.11 
  -2  -1  10    0.57    0.11 
  -1  -1  10    6.70    0.38 
  -1  -1  10    7.08    0.32 
   0  -1  10    0.01    0.09 
   0  -1  10    0.06    0.09 
   1  -1  10    6.35    0.30 
   1  -1  10    6.42    0.38 
   2  -1  10    0.68    0.12 
   2  -1  10    0.42    0.13 
   3  -1  10    0.23    0.13 
   3  -1  10    0.08    0.10 
   4  -1  10    0.33    0.11 
   4  -1  10    0.46    0.16 
   5  -1  10    0.44    0.13 
   5  -1  10    0.43    0.16 
   6  -1  10    0.11    0.16 
   7  -1  10    5.94    0.45 
   8  -1  10    0.69    0.25 
   9  -1  10    0.51    0.24 
  10  -1  10   -0.06    0.22 
  11  -1  10    0.21    0.25 
  12  -1  10    0.67    0.26 
 -12   0  10    1.55    0.25 
 -11   0  10    0.32    0.17 
 -10   0  10    0.77    0.20 
  -9   0  10    0.59    0.19 
  -8   0  10    0.13    0.15 
  -7   0  10    1.71    0.22 
  -6   0  10    5.71    0.32 
  -5   0  10    0.09    0.10 
  -4   0  10    1.14    0.15 
  -3   0  10    0.85    0.13 
  -2   0  10   -0.01    0.07 
  -2   0  10   -0.05    0.08 
  -1   0  10    1.09    0.14 
  -1   0  10    1.15    0.14 
   0   0  10    1.33    0.13 
   0   0  10    1.21    0.15 
   1   0  10    1.02    0.12 
   1   0  10    1.09    0.17 
   2   0  10   -0.03    0.08 
   2   0  10   -0.06    0.09 
   3   0  10    0.50    0.14 
   3   0  10    0.80    0.12 
   4   0  10    0.93    0.14 
   4   0  10    0.81    0.18 
   5   0  10    0.25    0.15 
   6   0  10    4.59    0.37 
   7   0  10    0.86    0.26 
   8   0  10   -0.08    0.21 
   9   0  10    0.56    0.25 
  10   0  10    0.60    0.27 
  11   0  10    0.27    0.26 
  12   0  10    1.29    0.30 
 -12   1  10    0.01    0.18 
 -11   1  10    0.25    0.17 
 -10   1  10    0.08    0.17 
  -9   1  10    0.18    0.17 
  -8   1  10    1.23    0.21 
  -7   1  10    8.97    0.45 
  -6   1  10   -0.15    0.11 
  -5   1  10    0.16    0.10 
  -4   1  10    0.46    0.12 
  -3   1  10    0.13    0.09 
  -3   1  10    0.15    0.10 
  -2   1  10    0.51    0.11 
  -2   1  10    0.34    0.10 
  -1   1  10    6.60    0.31 
  -1   1  10    6.92    0.39 
   0   1  10    0.06    0.09 
   0   1  10    0.00    0.10 
   1   1  10    6.44    0.40 
   1   1  10    6.86    0.31 
   2   1  10    0.35    0.10 
   2   1  10    0.28    0.13 
   3   1  10    0.13    0.09 
   3   1  10    0.13    0.12 
   4   1  10    0.33    0.15 
   4   1  10    0.39    0.11 
   5   1  10    0.41    0.15 
   6   1  10   -0.02    0.16 
   7   1  10    7.03    0.50 
   8   1  10    0.61    0.26 
   9   1  10    0.04    0.22 
  10   1  10    0.10    0.24 
  11   1  10    0.29    0.26 
  12   1  10    0.31    0.26 
 -12   2  10    0.46    0.18 
 -11   2  10    0.59    0.20 
 -10   2  10    0.18    0.18 
  -9   2  10    0.22    0.17 
  -8   2  10    0.19    0.15 
  -7   2  10    2.32    0.23 
  -6   2  10    0.89    0.16 
  -5   2  10    2.05    0.18 
  -4   2  10    0.16    0.10 
  -4   2  10    0.13    0.11 
  -3   2  10    1.93    0.16 
  -3   2  10    2.09    0.18 
  -2   2  10    1.33    0.17 
  -2   2  10    1.39    0.15 
  -1   2  10    0.73    0.12 
  -1   2  10    0.83    0.15 
   0   2  10    1.18    0.14 
   0   2  10    1.32    0.18 
   1   2  10    0.78    0.16 
   1   2  10    0.80    0.12 
   2   2  10    1.07    0.14 
   2   2  10    1.39    0.20 
   3   2  10    1.46    0.20 
  -4  -2 -10    0.08    0.12 
   4   2  10    0.05    0.13 
   4   2  10   -0.01    0.09 
  -5  -2 -10    1.21    0.19 
   5   2  10    1.86    0.22 
  -6  -2 -10    0.40    0.20 
   6   2  10    0.98    0.21 
   7   2  10    1.89    0.26 
   8   2  10    0.15    0.23 
   9   2  10    0.19    0.24 
  10   2  10    0.13    0.24 
  11   2  10    0.74    0.27 
  12   2  10    0.27    0.24 
 -11   3  10    0.26    0.17 
 -10   3  10    0.03    0.17 
  -9   3  10    1.24    0.23 
  -8   3  10    1.38    0.22 
  -7   3  10    0.70    0.17 
  -6   3  10    1.95    0.19 
  -5   3  10    0.84    0.14 
  -4   3  10    0.66    0.15 
  -4   3  10    0.68    0.14 
  -3   3  10    0.45    0.14 
  -3   3  10    0.29    0.11 
  -2   3  10    0.92    0.17 
  -2   3  10    0.88    0.13 
  -1   3  10    1.41    0.19 
  -1   3  10    1.40    0.15 
   0   3  10   -0.02    0.09 
   0   3  10    0.15    0.12 
   1   3  10    1.31    0.14 
   1   3  10    1.50    0.20 
   2   3  10    0.61    0.11 
   2   3  10    0.83    0.18 
   3   3  10    0.18    0.10 
   3   3  10    0.25    0.15 
  -4  -3 -10    0.38    0.15 
   4   3  10    0.44    0.10 
   4   3  10    0.38    0.16 
  -5  -3 -10    0.77    0.19 
   5   3  10    0.84    0.19 
  -6  -3 -10    1.26    0.27 
   6   3  10    1.89    0.28 
  -7  -3 -10    0.35    0.25 
   7   3  10    0.88    0.24 
   8   3  10    1.34    0.30 
   9   3  10    0.86    0.29 
  10   3  10    0.26    0.26 
  11   3  10    0.40    0.25 
  12   3  10    0.81    0.29 
 -11   4  10    0.17    0.17 
 -10   4  10   -0.11    0.17 
  -9   4  10    0.11    0.18 
  -8   4  10    0.09    0.14 
  -7   4  10    7.18    0.39 
  -6   4  10    1.51    0.19 
  -5   4  10    0.03    0.13 
  -5   4  10    0.10    0.11 
  -4   4  10    0.04    0.14 
  -4   4  10    0.01    0.10 
  -3   4  10    2.51    0.22 
  -3   4  10    2.57    0.19 
  -2   4  10    0.28    0.11 
  -2   4  10    0.41    0.15 
  -1   4  10    8.35    0.36 
  -1   4  10    7.96    0.48 
   0   4  10    5.91    0.39 
   0   4  10    6.42    0.30 
   1   4  10    3.66    0.20 
   2   4  10    0.36    0.16 
   2   4  10    0.13    0.09 
   3   4  10    2.03    0.15 
   3   4  10    2.23    0.24 
  -4  -4 -10    0.08    0.15 
   4   4  10    0.12    0.14 
   4   4  10    0.15    0.08 
  -5  -4 -10    0.05    0.18 
   5   4  10    0.16    0.16 
  -6  -4 -10    1.32    0.27 
   6   4  10    1.90    0.27 
  -7  -4 -10    5.80    0.45 
   7   4  10    5.76    0.44 
   8   4  10    0.18    0.22 
   9   4  10    0.18    0.24 
  10   4  10   -0.10    0.24 
  11   4  10    0.56    0.28 
  12   4  10    0.79    0.26 
 -11   5  10    0.02    0.18 
 -10   5  10    0.15    0.18 
  -9   5  10    0.13    0.16 
  -8   5  10    0.30    0.16 
  -7   5  10    0.29    0.14 
  -6   5  10   -0.10    0.12 
  -5   5  10   -0.08    0.09 
  -5   5  10    0.08    0.15 
  -4   5  10    2.49    0.24 
  -4   5  10    2.52    0.19 
  -3   5  10    0.12    0.10 
  -3   5  10    0.23    0.16 
  -2   5  10    9.96    0.55 
  -2   5  10    9.38    0.42 
  -1   5  10    0.20    0.15 
  -1   5  10    0.17    0.10 
   0   5  10    0.00    0.06 
   0   5  10   -0.06    0.13 
   1   5  10    0.23    0.10 
   1   5  10    0.32    0.16 
   2   5  10    8.47    0.36 
   2   5  10    8.81    0.53 
   3   5  10    0.03    0.08 
  -4  -5 -10    1.97    0.22 
   4   5  10    1.99    0.23 
  -5  -5 -10   -0.02    0.18 
   5   5  10    0.19    0.15 
  -6  -5 -10   -0.10    0.21 
   6   5  10    0.06    0.17 
  -7  -5 -10   -0.16    0.25 
   7   5  10    0.21    0.20 
  -8  -5 -10    0.42    0.27 
   8   5  10    0.46    0.24 
   9   5  10    0.53    0.26 
  10   5  10    0.44    0.27 
  11   5  10    0.56    0.28 
 -11   6  10    0.47    0.18 
 -10   6  10    0.17    0.17 
  -9   6  10    0.24    0.15 
  -8   6  10    0.08    0.14 
  -7   6  10    0.69    0.17 
  -6   6  10    0.07    0.12 
  -6   6  10    0.07    0.16 
  -5   6  10    4.01    0.25 
  -5   6  10    3.36    0.30 
  -4   6  10    0.37    0.17 
  -4   6  10    0.36    0.12 
  -3   6  10    1.59    0.17 
  -3   6  10    1.81    0.22 
  -2   6  10    0.18    0.11 
  -2   6  10    0.22    0.17 
  -1   6  10    2.25    0.24 
  -1   6  10    2.12    0.16 
   0   6  10    0.11    0.16 
   0   6  10   -0.05    0.08 
   1   6  10    2.23    0.24 
   1   6  10    1.91    0.16 
   2   6  10    0.06    0.14 
   2   6  10    0.07    0.08 
   3   6  10    1.61    0.24 
  -4  -6 -10    0.34    0.19 
   4   6  10    0.12    0.15 
  -5  -6 -10    2.72    0.28 
   5   6  10    3.29    0.31 
  -6  -6 -10   -0.24    0.22 
   6   6  10    0.13    0.18 
  -7  -6 -10    0.44    0.29 
   7   6  10    0.88    0.25 
  -8  -6 -10   -0.08    0.28 
   8   6  10    0.27    0.21 
   9   6  10    0.00    0.24 
  10   6  10    0.45    0.26 
  11   6  10    0.76    0.30 
 -11   7  10    0.46    0.20 
 -10   7  10    0.31    0.17 
  -9   7  10    1.93    0.25 
  -8   7  10    0.21    0.15 
  -7   7  10    0.74    0.17 
  -6   7  10   -0.15    0.16 
  -6   7  10    0.03    0.12 
  -5   7  10    0.75    0.20 
  -5   7  10    0.62    0.14 
  -4   7  10    0.04    0.18 
  -4   7  10    0.20    0.11 
  -3   7  10    0.37    0.18 
  -3   7  10    0.51    0.13 
  -2   7  10    1.64    0.26 
  -2   7  10    1.47    0.15 
  -1   7  10    1.16    0.24 
  -1   7  10    0.66    0.12 
   0   7  10   -0.16    0.15 
   0   7  10   -0.07    0.09 
   1   7  10    0.90    0.21 
   1   7  10    0.69    0.13 
   2   7  10    1.57    0.25 
   3   7  10    0.54    0.18 
  -4  -7 -10    0.09    0.19 
   4   7  10    0.19    0.17 
  -5  -7 -10    0.39    0.22 
   5   7  10    0.73    0.23 
  -6  -7 -10   -0.12    0.24 
   6   7  10    0.06    0.19 
  -7  -7 -10   -0.13    0.27 
   7   7  10    0.32    0.23 
  -8  -7 -10   -0.09    0.31 
   8   7  10    0.24    0.23 
   9   7  10    1.68    0.31 
  10   7  10    0.41    0.24 
  11   7  10    0.83    0.29 
 -10   8  10   -0.07    0.17 
  -9   8  10    0.27    0.16 
  -8   8  10    0.18    0.14 
  -7   8  10    0.11    0.14 
  -6   8  10    1.54    0.20 
  -6   8  10    1.59    0.24 
  -5   8  10    0.06    0.12 
  -5   8  10    0.17    0.15 
  -4   8  10    0.35    0.12 
  -4   8  10    0.32    0.17 
  -3   8  10    1.72    0.17 
  -3   8  10    1.69    0.26 
  -2   8  10    0.25    0.11 
  -2   8  10    0.32    0.18 
  -1   8  10    0.70    0.23 
   0   8  10    3.68    0.23 
   0   8  10    4.35    0.34 
   1   8  10    0.65    0.22 
   2   8  10    0.17    0.18 
   3   8  10    1.77    0.24 
  -4  -8 -10    0.21    0.21 
   4   8  10    0.44    0.21 
  -5  -8 -10   -0.10    0.21 
   5   8  10    0.07    0.19 
  -6  -8 -10    1.06    0.30 
   6   8  10    1.57    0.31 
  -7  -8 -10   -0.30    0.27 
   7   8  10   -0.09    0.22 
  -8  -8 -10   -0.17    0.29 
   8   8  10    0.05    0.24 
  -9  -8 -10   -0.34    0.34 
   9   8  10    0.64    0.25 
  10   8  10    0.87    0.30 
  11   8  10    1.42    0.31 
 -10   9  10    0.53    0.18 
  -9   9  10    0.27    0.16 
  -8   9  10    0.28    0.16 
  -7   9  10    0.11    0.13 
  -6   9  10   -0.07    0.12 
  -6   9  10    0.09    0.16 
  -5   9  10    0.39    0.18 
  -5   9  10    0.40    0.14 
  -4   9  10    0.75    0.15 
  -4   9  10    0.68    0.20 
  -3   9  10   -0.06    0.16 
  -3   9  10    0.02    0.10 
  -2   9  10    0.20    0.19 
  -2   9  10    0.12    0.12 
  -1   9  10    1.47    0.16 
  -1   9  10    2.10    0.27 
   0   9  10   -0.15    0.20 
   1   9  10    1.90    0.31 
   2   9  10   -0.02    0.20 
   3   9  10   -0.18    0.17 
  -4  -9 -10    0.67    0.26 
   4   9  10    0.63    0.24 
  -5  -9 -10    0.31    0.24 
   5   9  10    0.87    0.26 
  -6  -9 -10   -0.07    0.25 
   6   9  10    0.09    0.23 
  -7  -9 -10   -0.38    0.27 
   7   9  10    0.14    0.24 
  -8  -9 -10   -0.29    0.32 
   8   9  10    0.48    0.25 
  -9  -9 -10   -0.43    0.33 
   9   9  10    0.82    0.26 
  10   9  10    1.04    0.28 
 -10  10  10    0.59    0.19 
  -9  10  10    0.44    0.18 
  -8  10  10    0.12    0.14 
  -7  10  10    0.09    0.14 
  -6  10  10    0.27    0.14 
  -6  10  10    0.37    0.20 
  -5  10  10    1.03    0.18 
  -5  10  10    1.37    0.26 
  -4  10  10    0.26    0.13 
  -4  10  10    0.62    0.22 
  -3  10  10    1.22    0.16 
  -3  10  10    1.14    0.26 
  -2  10  10    0.05    0.12 
  -2  10  10    0.29    0.21 
  -1  10  10    1.70    0.31 
   0  10  10    0.42    0.25 
   1  10  10    1.63    0.30 
   2  10  10    0.15    0.21 
   3  10  10    1.21    0.27 
  -4 -10 -10    0.30    0.26 
   4  10  10    0.83    0.26 
  -5 -10 -10    1.15    0.31 
   5  10  10    1.23    0.32 
  -6 -10 -10    0.10    0.26 
   6  10  10    0.12    0.24 
  -7 -10 -10   -0.16    0.27 
   7  10  10    0.09    0.26 
  -8 -10 -10   -0.13    0.32 
   8  10  10    0.29    0.25 
  -9 -10 -10   -0.27    0.36 
   9  10  10    0.79    0.27 
  10  10  10    0.96    0.28 
  -9  11  10    0.42    0.17 
  -8  11  10    0.29    0.16 
  -7  11  10    0.08    0.14 
  -6  11  10    0.54    0.20 
  -6  11  10    0.54    0.16 
  -5  11  10    0.36    0.21 
  -5  11  10    0.35    0.15 
  -4  11  10    0.43    0.15 
  -4  11  10    0.48    0.22 
  -3  11  10   -0.04    0.19 
  -3  11  10    0.26    0.11 
  -2  11  10    0.23    0.20 
  -1  11  10    0.80    0.25 
   0  11  10   -0.01    0.22 
   1  11  10    0.77    0.28 
   2  11  10   -0.02    0.23 
   3  11  10    0.10    0.22 
  -4 -11 -10    0.69    0.29 
   4  11  10    0.57    0.28 
  -5 -11 -10    0.15    0.27 
   5  11  10    0.18    0.26 
  -6 -11 -10    0.11    0.28 
   6  11  10    0.73    0.31 
  -7 -11 -10   -0.23    0.27 
   7  11  10    0.43    0.25 
  -8 -11 -10   -0.50    0.30 
   8  11  10    0.43    0.26 
  -9 -11 -10   -0.02    0.36 
   9  11  10    0.88    0.27 
  -8  12  10    0.52    0.18 
  -7  12  10    0.51    0.16 
  -6  12  10    0.53    0.22 
  -6  12  10    0.57    0.17 
  -5  12  10    0.45    0.15 
  -5  12  10    0.68    0.23 
  -4  12  10    0.04    0.12 
  -4  12  10   -0.02    0.20 
  -3  12  10    0.14    0.23 
  -2  12  10   -0.03    0.20 
  -1  12  10    1.04    0.29 
   0  12  10    0.05    0.24 
   1  12  10    1.04    0.29 
   2  12  10    0.11    0.23 
   3  12  10    0.19    0.24 
   4  12  10    0.19    0.27 
  -5 -12 -10    0.19    0.28 
   5  12  10    0.67    0.30 
  -6 -12 -10    0.35    0.30 
   6  12  10    0.71    0.31 
  -7 -12 -10   -0.53    0.27 
   7  12  10    0.49    0.27 
  -8 -12 -10   -0.25    0.31 
   8  12  10    1.11    0.30 
  -9 -12 -10    0.02    0.35 
   9  12  10    1.29    0.32 
  -8  13  10    0.80    0.19 
  -7  13  10    0.37    0.20 
  -7  13  10    0.15    0.15 
  -6  13  10    0.30    0.21 
  -6  13  10    0.29    0.16 
  -5  13  10    0.55    0.22 
  -5  13  10    0.96    0.18 
  -4  13  10    0.84    0.25 
  -3  13  10    0.41    0.22 
  -2  13  10    0.18    0.23 
  -1  13  10   -0.04    0.22 
   0  13  10   -0.05    0.23 
   1  13  10   -0.04    0.24 
   2  13  10    0.04    0.23 
   3  13  10    0.50    0.28 
   4  13  10    1.22    0.34 
  -5 -13 -10    0.57    0.31 
   5  13  10    0.75    0.29 
  -6 -13 -10   -0.07    0.29 
   6  13  10    0.81    0.31 
  -7 -13 -10   -0.39    0.30 
   7  13  10    0.60    0.27 
  -8 -13 -10    0.18    0.35 
   8  13  10    1.37    0.33 
  -7  14  10    0.44    0.16 
  -7  14  10    0.25    0.19 
  -6  14  10    0.31    0.15 
  -6  14  10    0.43    0.20 
  -5  14  10    0.43    0.21 
  -4  14  10    0.29    0.20 
  -3  14  10    0.99    0.27 
  -2  14  10    0.21    0.23 
  -1  14  10    0.35    0.25 
   0  14  10   -0.14    0.23 
   1  14  10    0.05    0.27 
   2  14  10    0.34    0.23 
   3  14  10    1.07    0.31 
   4  14  10    0.47    0.27 
   5  14  10    0.67    0.30 
  -6 -14 -10   -0.26    0.31 
   6  14  10    0.79    0.28 
  -7 -14 -10   -0.39    0.30 
   7  14  10    0.93    0.31 
  -6  15  10    0.25    0.20 
  -5  15  10    0.18    0.20 
  -4  15  10    0.45    0.23 
  -3  15  10    0.50    0.26 
  -2  15  10    0.15    0.23 
  -1  15  10    0.64    0.28 
   0  15  10   -0.03    0.24 
   1  15  10    1.08    0.32 
   2  15  10    0.60    0.24 
   3  15  10    0.73    0.27 
   4  15  10    0.79    0.29 
   5  15  10    0.89    0.32 
  -6 -15 -10   -0.30    0.31 
   6  15  10    0.71    0.30 
  -4  16  10    0.51    0.22 
  -3  16  10    0.19    0.21 
  -2  16  10    0.49    0.24 
  -1  16  10    0.46    0.24 
   0  16  10    0.23    0.25 
   1  16  10    0.30    0.25 
   2  16  10    0.66    0.27 
   3  16  10    0.93    0.30 
   4  16  10    0.95    0.29 
  -2  17  10    0.40    0.23 
  -1  17  10    0.50    0.25 
   0  17  10    0.18    0.20 
   1  17  10    0.52    0.25 
   2  17  10    0.82    0.28 
  -1  17 -11    0.43    0.25 
  -2 -16  11    0.17    0.18 
  -1 -16  11    0.23    0.18 
   0  16 -11    0.33    0.25 
   0 -16  11    0.10    0.17 
  -1  16 -11    0.44    0.26 
  -2  16 -11    0.51    0.24 
  -3  16 -11    0.72    0.27 
  -4  16 -11    0.40    0.23 
  -3 -15  11    0.33    0.18 
  -2 -15  11    0.61    0.20 
  -1 -15  11    0.25    0.18 
   0  15 -11    0.16    0.23 
   0 -15  11    0.14    0.17 
  -1  15 -11    0.29    0.25 
   1 -15  11    0.24    0.17 
  -2  15 -11    0.25    0.23 
  -3  15 -11    0.47    0.22 
  -4  15 -11    0.57    0.22 
  -5  15 -11    0.35    0.20 
  -6 -14  11   -0.17    0.29 
  -4 -14  11    0.23    0.17 
  -3 -14  11    0.32    0.18 
  -2 -14  11    0.31    0.19 
  -1 -14  11    0.01    0.17 
   0  14 -11    0.23    0.21 
   0 -14  11    0.08    0.17 
  -1  14 -11    0.23    0.23 
   1 -14  11    0.33    0.17 
  -2  14 -11    0.15    0.21 
   2 -14  11    0.08    0.16 
  -3  14 -11    0.57    0.23 
  -4  14 -11    0.48    0.21 
  -5  14 -11    0.40    0.19 
  -6  14 -11    0.24    0.17 
  -7 -13  11   -0.25    0.28 
  -6 -13  11    0.01    0.29 
  -5 -13  11    0.01    0.26 
  -5 -13  11    0.07    0.16 
  -4 -13  11    0.68    0.18 
  -3 -13  11    0.13    0.16 
  -2 -13  11   -0.03    0.16 
   1  13 -11    0.30    0.21 
  -1 -13  11    0.05    0.17 
   0  13 -11    0.19    0.21 
   0 -13  11   -0.07    0.16 
  -1  13 -11   -0.02    0.17 
   1 -13  11   -0.01    0.16 
  -2  13 -11    0.07    0.20 
   2 -13  11   -0.09    0.16 
  -3  13 -11    0.03    0.21 
  -4  13 -11    0.39    0.21 
  -5  13 -11   -0.01    0.16 
  -6  13 -11    0.08    0.15 
  -7  13 -11    0.41    0.18 
  -8 -12  11    0.10    0.28 
  -7 -12  11    0.16    0.28 
  -6 -12  11    0.14    0.16 
  -6 -12  11    0.05    0.28 
  -5 -12  11    0.62    0.29 
  -5 -12  11    0.57    0.17 
  -4 -12  11    0.23    0.16 
  -4 -12  11   -0.02    0.25 
  -3 -12  11    0.49    0.17 
  -2 -12  11    0.31    0.17 
   1  12 -11    0.14    0.20 
  -1 -12  11    0.14    0.16 
   0  12 -11    0.05    0.19 
   0 -12  11    0.01    0.16 
  -1  12 -11    0.07    0.18 
   1 -12  11    0.08    0.16 
  -2  12 -11    0.22    0.19 
   2 -12  11    0.39    0.17 
  -3  12 -11   -0.07    0.18 
   3 -12  11    0.31    0.16 
  -4  12 -11    0.22    0.19 
  -5  12 -11    0.17    0.17 
  -6  12 -11   -0.01    0.14 
  -7  12 -11    0.23    0.16 
  -8  12 -11    0.13    0.16 
  -9 -11  11    0.91    0.31 
  -8 -11  11    0.07    0.25 
  -7 -11  11    0.05    0.25 
  -7 -11  11    0.37    0.17 
  -6 -11  11    0.58    0.17 
  -6 -11  11    0.35    0.27 
  -5 -11  11    0.31    0.16 
  -5 -11  11   -0.11    0.24 
  -4 -11  11    1.49    0.22 
  -4 -11  11    1.06    0.29 
  -3 -11  11    0.49    0.25 
  -3 -11  11    0.62    0.17 
  -2 -11  11    0.74    0.17 
   1  11 -11    1.24    0.25 
  -1 -11  11    1.52    0.21 
   0  11 -11   -0.10    0.17 
   0 -11  11   -0.03    0.16 
  -1  11 -11    0.86    0.23 
   1 -11  11    1.03    0.20 
  -2  11 -11    0.64    0.20 
   2 -11  11    0.40    0.17 
  -3  11 -11    0.58    0.21 
   3 -11  11    0.57    0.18 
  -4  11 -11    0.80    0.22 
  -5  11 -11   -0.05    0.16 
  -6  11 -11    0.33    0.18 
  -7  11 -11    0.22    0.17 
  -8  11 -11    0.08    0.18 
  -9  11 -11    0.33    0.23 
  -9 -10  11    0.23    0.26 
  -8 -10  11    0.13    0.24 
  -7 -10  11   -0.12    0.23 
  -7 -10  11   -0.23    0.14 
  -6 -10  11    0.01    0.23 
  -6 -10  11    0.04    0.14 
  -5 -10  11   -0.04    0.23 
  -5 -10  11    0.25    0.17 
  -4 -10  11    0.59    0.17 
  -4 -10  11    0.64    0.26 
  -3 -10  11    0.06    0.20 
  -3 -10  11   -0.05    0.14 
   2  10 -11    0.08    0.12 
  -2 -10  11    0.78    0.17 
   1  10 -11    1.89    0.24 
  -1 -10  11    2.06    0.21 
   0  10 -11    0.88    0.23 
   0 -10  11    0.99    0.20 
  -1  10 -11    1.22    0.24 
   1 -10  11    1.77    0.23 
  -2  10 -11    0.46    0.18 
   2 -10  11    0.38    0.17 
  -3  10 -11   -0.01    0.15 
   3 -10  11   -0.02    0.14 
  -4  10 -11    0.40    0.18 
  -5  10 -11    0.29    0.17 
  -6  10 -11    0.05    0.16 
  -7  10 -11    0.08    0.16 
  -8  10 -11    0.18    0.22 
  -9  10 -11    0.05    0.20 
 -10  -9  11    0.25    0.30 
  -9  -9  11    0.22    0.26 
  -8  -9  11    0.07    0.24 
  -8  -9  11    0.13    0.16 
  -7  -9  11   -0.18    0.14 
  -7  -9  11    0.04    0.21 
  -6  -9  11    0.26    0.22 
  -6  -9  11    0.01    0.15 
  -5  -9  11    0.70    0.17 
  -5  -9  11    0.62    0.24 
  -4  -9  11   -0.04    0.13 
  -4  -9  11   -0.14    0.18 
  -3  -9  11   -0.03    0.21 
  -3  -9  11    0.01    0.13 
   2   9 -11   -0.02    0.15 
  -2  -9  11   -0.06    0.16 
  -2  -9  11    0.17    0.14 
   1   9 -11    0.88    0.22 
  -1  -9  11    1.20    0.19 
   0   9 -11   -0.11    0.16 
   0  -9  11   -0.03    0.15 
  -1   9 -11    0.81    0.21 
   1  -9  11    0.69    0.19 
  -2   9 -11   -0.02    0.14 
   2  -9  11   -0.12    0.13 
  -3   9 -11   -0.01    0.14 
   3  -9  11   -0.03    0.13 
  -4   9 -11    0.14    0.15 
   4  -9  11   -0.07    0.12 
  -5   9 -11    0.22    0.17 
  -6   9 -11   -0.03    0.14 
  -7   9 -11    0.05    0.18 
  -8   9 -11   -0.17    0.18 
  -9   9 -11    0.07    0.19 
 -10   9 -11    0.01    0.20 
 -10  -8  11    0.61    0.31 
  -9  -8  11    0.06    0.16 
  -9  -8  11    0.25    0.27 
  -8  -8  11    0.16    0.24 
  -8  -8  11   -0.05    0.16 
  -7  -8  11    0.44    0.17 
  -7  -8  11    0.33    0.26 
  -6  -8  11    0.47    0.16 
  -6  -8  11    0.50    0.24 
  -5  -8  11   -0.02    0.13 
  -5  -8  11    0.22    0.20 
  -4  -8  11    0.08    0.13 
  -4  -8  11    0.08    0.17 
  -3  -8  11    0.22    0.14 
  -3  -8  11    0.24    0.21 
   2   8 -11    0.19    0.16 
  -2  -8  11    0.21    0.14 
  -2  -8  11    0.09    0.19 
   1   8 -11    1.62    0.22 
   0   8 -11    9.54    0.57 
   0  -8  11    9.45    0.45 
  -1   8 -11    1.60    0.21 
   1  -8  11    1.50    0.21 
  -2   8 -11    0.05    0.15 
   2  -8  11   -0.25    0.12 
  -3   8 -11    0.13    0.14 
   3  -8  11    0.24    0.13 
  -4   8 -11    0.16    0.15 
   4  -8  11   -0.04    0.12 
  -5   8 -11    0.25    0.14 
  -6   8 -11    0.23    0.17 
  -7   8 -11    0.16    0.18 
  -8   8 -11    0.08    0.20 
  -9   8 -11   -0.04    0.18 
 -10   8 -11   -0.20    0.21 
 -10  -7  11    0.51    0.27 
 -10  -7  11    0.28    0.18 
  -9  -7  11    0.35    0.26 
  -9  -7  11    0.14    0.17 
  -8  -7  11   -0.11    0.16 
  -8  -7  11    0.09    0.24 
  -7  -7  11    0.08    0.22 
  -7  -7  11    0.35    0.16 
  -6  -7  11    0.05    0.15 
  -6  -7  11    0.46    0.24 
  -5  -7  11    0.63    0.17 
  -5  -7  11    0.82    0.23 
  -4  -7  11    0.27    0.22 
  -4  -7  11    0.16    0.14 
  -3  -7  11    1.46    0.26 
  -3  -7  11    1.23    0.18 
   2   7 -11    0.70    0.17 
  -2  -7  11    0.70    0.16 
  -2  -7  11    0.81    0.20 
   1   7 -11    0.58    0.17 
  -1  -7  11    0.60    0.15 
  -1  -7  11    0.40    0.18 
   0   7 -11   -0.15    0.13 
   0  -7  11   -0.06    0.12 
  -1   7 -11    0.40    0.17 
   1  -7  11    0.34    0.15 
  -2   7 -11    0.59    0.17 
   2  -7  11    0.54    0.15 
  -3   7 -11    0.76    0.19 
   3  -7  11    0.97    0.17 
  -4   7 -11    0.09    0.15 
   4  -7  11    0.07    0.12 
  -5   7 -11    0.33    0.17 
  -6   7 -11   -0.12    0.15 
  -7   7 -11   -0.06    0.16 
  -8   7 -11    0.09    0.19 
  -9   7 -11    0.07    0.20 
 -10   7 -11    0.10    0.22 
 -11  -6  11    0.54    0.29 
 -11  -6  11    0.20    0.18 
 -10  -6  11    0.29    0.18 
 -10  -6  11    0.78    0.29 
  -9  -6  11    0.43    0.19 
  -9  -6  11    0.62    0.29 
  -8  -6  11    0.30    0.17 
  -8  -6  11   -0.11    0.22 
  -7  -6  11    0.53    0.18 
  -7  -6  11    0.32    0.24 
  -6  -6  11   -0.05    0.19 
  -6  -6  11   -0.22    0.14 
  -5  -6  11    0.31    0.20 
  -5  -6  11    0.19    0.14 
  -4  -6  11    0.66    0.23 
  -4  -6  11    0.65    0.15 
  -3  -6  11    0.35    0.20 
  -3  -6  11    0.30    0.13 
   2   6 -11    1.04    0.18 
  -2  -6  11    0.99    0.16 
  -2  -6  11    1.01    0.21 
   1   6 -11    0.07    0.11 
  -1  -6  11    0.02    0.14 
  -1  -6  11    0.07    0.12 
   0   6 -11    2.19    0.23 
   0  -6  11    2.03    0.18 
  -1   6 -11   -0.10    0.13 
   1  -6  11    0.03    0.11 
  -2   6 -11    0.48    0.17 
   2  -6  11    1.11    0.17 
  -3   6 -11    0.22    0.14 
   3  -6  11    0.32    0.14 
  -4   6 -11    0.34    0.15 
   4  -6  11    0.45    0.14 
  -5   6 -11    0.11    0.14 
  -6   6 -11    0.13    0.14 
  -7   6 -11    0.27    0.20 
  -8   6 -11   -0.03    0.18 
  -9   6 -11    0.25    0.22 
 -10   6 -11    0.51    0.24 
 -11   6 -11    0.56    0.23 
 -11  -5  11    0.43    0.30 
 -11  -5  11    0.36    0.17 
 -10  -5  11    0.64    0.20 
 -10  -5  11    0.86    0.31 
  -9  -5  11    0.63    0.20 
  -8  -5  11    0.10    0.17 
  -7  -5  11    1.34    0.22 
  -6  -5  11    0.99    0.19 
  -5  -5  11    0.35    0.15 
  -4  -5  11    1.23    0.18 
  -4  -5  11    1.53    0.28 
  -3  -5  11    1.26    0.17 
  -3  -5  11    1.35    0.24 
   2   5 -11    2.24    0.20 
  -2  -5  11    1.98    0.24 
  -2  -5  11    2.04    0.18 
   1   5 -11   -0.07    0.07 
  -1  -5  11    0.02    0.11 
  -1  -5  11   -0.03    0.12 
   0   5 -11    0.03    0.11 
   0  -5  11   -0.05    0.11 
   1  -5  11    0.15    0.12 
   2  -5  11    1.81    0.21 
   2  -5  11    1.85    0.17 
   3  -5  11    1.18    0.20 
   3  -5  11    0.93    0.16 
   4  -5  11    0.88    0.19 
   4  -5  11    0.59    0.15 
   5  -5  11    0.18    0.13 
   5  -5  11    0.23    0.16 
   6  -5  11    0.27    0.20 
  -8   5 -11    0.12    0.19 
  -9   5 -11    0.37    0.21 
 -10   5 -11    0.54    0.24 
 -11   5 -11    0.19    0.24 
 -11  -4  11    0.51    0.19 
 -10  -4  11   -0.05    0.16 
  -9  -4  11   -0.15    0.16 
  -8  -4  11   -0.04    0.16 
  -7  -4  11    1.15    0.20 
  -6  -4  11    1.65    0.22 
  -5  -4  11    0.11    0.13 
  -4  -4  11    0.89    0.16 
  -3  -4  11    0.30    0.13 
   2   4 -11   -0.04    0.10 
  -2  -4  11   -0.01    0.14 
  -2  -4  11    0.14    0.10 
  -1  -4  11    2.92    0.25 
  -1  -4  11    3.05    0.21 
   0  -4  11    2.01    0.19 
   0  -4  11    1.76    0.19 
   1  -4  11    2.90    0.21 
   1  -4  11    3.18    0.25 
   2  -4  11    0.10    0.13 
   2  -4  11    0.03    0.12 
   3  -4  11    0.06    0.12 
   3  -4  11    0.21    0.14 
   4  -4  11    0.64    0.18 
   4  -4  11    0.60    0.14 
   5  -4  11    0.22    0.17 
   5  -4  11    0.26    0.13 
   6  -4  11    0.95    0.25 
   7  -4  11    0.91    0.26 
   8  -4  11    0.29    0.24 
   9  -4  11    0.14    0.24 
 -10   4 -11    0.03    0.19 
 -11   4 -11    0.33    0.23 
 -11  -3  11    0.31    0.18 
 -10  -3  11    0.14    0.16 
  -9  -3  11    1.38    0.23 
  -8  -3  11    1.06    0.21 
  -7  -3  11    1.49    0.22 
  -6  -3  11    2.27    0.21 
  -5  -3  11    0.55    0.15 
  -4  -3  11    1.26    0.17 
  -3  -3  11    0.05    0.10 
  -2  -3  11    0.36    0.11 
  -2  -3  11    0.43    0.12 
  -1  -3  11    1.57    0.16 
  -1  -3  11    1.53    0.16 
   0  -3  11    0.03    0.10 
   0  -3  11    0.00    0.10 
   1  -3  11    1.46    0.18 
   1  -3  11    1.51    0.16 
   2  -3  11    0.41    0.12 
   2  -3  11    0.42    0.15 
   3  -3  11   -0.04    0.12 
   3  -3  11   -0.02    0.13 
   4  -3  11    0.86    0.16 
   4  -3  11    0.90    0.19 
   5  -3  11    0.54    0.14 
   5  -3  11    0.49    0.18 
   6  -3  11    1.80    0.30 
   7  -3  11    0.74    0.26 
   8  -3  11    0.70    0.26 
   9  -3  11    1.01    0.28 
  10  -3  11    0.18    0.23 
 -11   3 -11    0.20    0.19 
 -11  -2  11    0.66    0.20 
 -10  -2  11    0.54    0.19 
  -9  -2  11    1.32    0.23 
  -8  -2  11    0.12    0.16 
  -7  -2  11    1.58    0.22 
  -6  -2  11   -0.09    0.13 
  -5  -2  11    0.63    0.14 
  -4  -2  11    0.52    0.13 
  -3  -2  11    0.82    0.14 
  -2  -2  11    4.91    0.27 
  -2  -2  11    5.00    0.30 
  -1  -2  11    0.26    0.11 
  -1  -2  11    0.26    0.11 
   0  -2  11    0.28    0.12 
   0  -2  11    0.16    0.10 
   1  -2  11    0.29    0.14 
   1  -2  11    0.44    0.13 
   2  -2  11    4.33    0.25 
   2  -2  11    4.75    0.33 
   3  -2  11    0.68    0.14 
   3  -2  11    0.77    0.18 
   4  -2  11    0.52    0.17 
   4  -2  11    0.45    0.14 
   5  -2  11    0.39    0.15 
   5  -2  11    0.64    0.19 
   6  -2  11    0.43    0.20 
   7  -2  11    0.71    0.26 
   8  -2  11    0.10    0.23 
   9  -2  11    1.05    0.28 
  10  -2  11    0.07    0.25 
  11  -2  11    0.75    0.27 
 -11  -1  11    0.35    0.18 
 -10  -1  11    0.04    0.16 
  -9  -1  11    0.13    0.16 
  -8  -1  11    0.30    0.16 
  -7  -1  11    3.45    0.26 
  -6  -1  11    3.41    0.25 
  -5  -1  11    0.10    0.12 
  -4  -1  11    0.12    0.10 
  -3  -1  11    0.32    0.11 
  -2  -1  11    0.14    0.10 
  -2  -1  11    0.10    0.09 
  -1  -1  11    0.32    0.11 
  -1  -1  11    0.18    0.10 
   0  -1  11   -0.06    0.09 
   0  -1  11    0.01    0.09 
   1  -1  11    0.28    0.13 
   1  -1  11    0.19    0.11 
   2  -1  11    0.20    0.11 
   2  -1  11    0.15    0.13 
   3  -1  11    0.44    0.16 
   3  -1  11    0.24    0.12 
   4  -1  11    0.14    0.13 
   4  -1  11    0.07    0.11 
   5  -1  11    0.03    0.12 
   5  -1  11    0.20    0.16 
   6  -1  11    3.07    0.31 
   7  -1  11    2.20    0.29 
   8  -1  11    0.41    0.25 
   9  -1  11    0.02    0.22 
  10  -1  11    0.22    0.24 
  11  -1  11    0.40    0.26 
  12  -1  11    0.69    0.29 
 -11   0  11    0.21    0.16 
 -10   0  11    0.04    0.16 
  -9   0  11    0.08    0.16 
  -8   0  11   -0.01    0.14 
  -7   0  11    0.20    0.15 
  -6   0  11   -0.19    0.12 
  -5   0  11   -0.03    0.11 
  -4   0  11   -0.02    0.09 
  -3   0  11    0.03    0.09 
  -3   0  11    0.00    0.07 
  -2   0  11   -0.08    0.07 
  -2   0  11    0.04    0.09 
  -1   0  11   -0.01    0.08 
  -1   0  11    0.02    0.09 
   0   0  11    0.00    0.10 
   0   0  11   -0.06    0.09 
   1   0  11   -0.02    0.10 
   1   0  11    0.06    0.09 
   2   0  11   -0.14    0.10 
   2   0  11   -0.07    0.10 
   3   0  11   -0.10    0.10 
   3   0  11    0.02    0.12 
   4   0  11   -0.03    0.10 
   4   0  11   -0.05    0.11 
   5   0  11    0.03    0.15 
   5   0  11   -0.06    0.11 
   6   0  11    0.05    0.17 
   7   0  11    0.10    0.21 
   8   0  11    0.31    0.23 
   9   0  11    0.18    0.24 
  10   0  11    0.11    0.23 
  11   0  11    0.23    0.26 
  12   0  11    0.68    0.27 
 -11   1  11    0.46    0.20 
 -10   1  11    0.03    0.17 
  -9   1  11    0.14    0.17 
  -8   1  11    0.53    0.18 
  -7   1  11    3.39    0.27 
  -6   1  11    3.01    0.23 
  -5   1  11    0.25    0.12 
  -4   1  11    0.02    0.09 
  -3   1  11    0.48    0.12 
  -3   1  11    0.33    0.11 
  -2   1  11    0.12    0.10 
  -2   1  11    0.08    0.10 
  -1   1  11    0.19    0.10 
  -1   1  11    0.18    0.11 
   0   1  11   -0.05    0.08 
   0   1  11    0.05    0.11 
   1   1  11    0.22    0.13 
   1   1  11    0.19    0.10 
   2   1  11    0.11    0.10 
   2   1  11   -0.05    0.11 
   3   1  11    0.35    0.12 
   3   1  11    0.35    0.15 
   4   1  11    0.04    0.12 
   4   1  11   -0.04    0.10 
   5   1  11    0.13    0.15 
   5   1  11    0.15    0.11 
   6   1  11    3.19    0.32 
   7   1  11    2.59    0.31 
   8   1  11    0.25    0.24 
   9   1  11    0.32    0.25 
  10   1  11    0.43    0.24 
  11   1  11    0.77    0.28 
  12   1  11    0.76    0.26 
 -11   2  11    0.66    0.20 
 -10   2  11    0.32    0.18 
  -9   2  11    1.08    0.22 
  -8   2  11    0.15    0.16 
  -7   2  11    1.11    0.20 
  -6   2  11   -0.12    0.12 
  -5   2  11    0.65    0.14 
  -4   2  11    0.69    0.13 
  -4   2  11    0.58    0.13 
  -3   2  11    0.80    0.15 
  -3   2  11    0.79    0.14 
  -2   2  11    4.79    0.26 
  -2   2  11    4.92    0.31 
  -1   2  11    0.20    0.13 
  -1   2  11    0.27    0.11 
   0   2  11    0.12    0.12 
   0   2  11    0.11    0.10 
   1   2  11    0.29    0.14 
   1   2  11    0.31    0.10 
   2   2  11    4.67    0.34 
   2   2  11    4.81    0.25 
   3   2  11    0.48    0.17 
   3   2  11    0.21    0.08 
   4   2  11    0.33    0.15 
   4   2  11    0.35    0.10 
   5   2  11    0.33    0.12 
   5   2  11    0.39    0.17 
   6   2  11    0.37    0.18 
   7   2  11    1.30    0.28 
   8   2  11    0.15    0.24 
   9   2  11    1.02    0.29 
  10   2  11    0.30    0.24 
  11   2  11    0.90    0.27 
  12   2  11    0.93    0.29 
 -11   3  11    0.38    0.19 
 -10   3  11    0.22    0.18 
  -9   3  11    1.25    0.23 
  -8   3  11    0.91    0.20 
  -7   3  11    1.07    0.19 
  -6   3  11    2.45    0.21 
  -5   3  11    0.67    0.15 
  -4   3  11    1.27    0.16 
  -4   3  11    1.19    0.19 
  -3   3  11    0.02    0.10 
  -3   3  11    0.07    0.12 
  -2   3  11    0.59    0.15 
  -2   3  11    0.36    0.12 
  -1   3  11    1.55    0.19 
  -1   3  11    1.53    0.16 
   0   3  11   -0.09    0.10 
   0   3  11    0.07    0.13 
   1   3  11    1.56    0.20 
   1   3  11    1.46    0.15 
   2   3  11   -0.01    0.06 
   2   3  11    0.34    0.16 
   3   3  11    0.03    0.09 
   3   3  11   -0.07    0.12 
  -4  -3 -11    0.64    0.18 
   4   3  11    0.78    0.13 
   4   3  11    1.16    0.22 
  -5  -3 -11    0.35    0.18 
   5   3  11    0.60    0.19 
   6   3  11    2.08    0.26 
   7   3  11    1.19    0.27 
   8   3  11    1.06    0.29 
   9   3  11    0.94    0.29 
  10   3  11    0.36    0.27 
  11   3  11    0.46    0.25 
 -11   4  11    0.48    0.19 
 -10   4  11   -0.06    0.17 
  -9   4  11   -0.09    0.17 
  -8   4  11    0.32    0.16 
  -7   4  11    0.71    0.17 
  -6   4  11    1.35    0.19 
  -5   4  11    0.33    0.13 
  -5   4  11    0.19    0.14 
  -4   4  11    0.90    0.18 
  -4   4  11    0.81    0.14 
  -3   4  11    0.57    0.17 
  -3   4  11    0.41    0.12 
  -2   4  11   -0.09    0.09 
  -2   4  11   -0.07    0.13 
  -1   4  11    2.90    0.20 
  -1   4  11    2.72    0.26 
   0   4  11    1.82    0.22 
   0   4  11    1.82    0.17 
   2   4  11   -0.13    0.14 
   2   4  11   -0.01    0.09 
   3   4  11    0.13    0.10 
   3   4  11    0.29    0.16 
  -4  -4 -11    0.70    0.20 
   4   4  11    0.56    0.12 
   4   4  11    0.67    0.19 
  -5  -4 -11    0.06    0.18 
   5   4  11    0.29    0.18 
  -6  -4 -11    1.18    0.27 
   6   4  11    1.43    0.25 
   7   4  11    1.05    0.27 
   8   4  11    0.28    0.23 
   9   4  11    0.19    0.25 
  10   4  11   -0.11    0.25 
  11   4  11    0.48    0.28 
 -11   5  11    0.17    0.17 
 -10   5  11    0.76    0.21 
  -9   5  11    0.46    0.18 
  -8   5  11    0.04    0.15 
  -7   5  11    1.34    0.21 
  -6   5  11    0.55    0.15 
  -5   5  11    0.48    0.18 
  -5   5  11    0.37    0.13 
  -4   5  11    1.48    0.18 
  -4   5  11    1.35    0.23 
  -3   5  11    1.38    0.17 
  -3   5  11    1.36    0.22 
  -2   5  11    1.95    0.23 
  -2   5  11    2.02    0.17 
  -1   5  11    0.06    0.10 
  -1   5  11    0.11    0.15 
   0   5  11    0.00    0.10 
   0   5  11    0.04    0.15 
   1   5  11    0.17    0.10 
   1   5  11    0.05    0.14 
   2   5  11    1.62    0.15 
   2   5  11    1.82    0.22 
   3   5  11    1.38    0.23 
   3   5  11    0.60    0.12 
  -4  -5 -11    0.85    0.22 
   4   5  11    1.21    0.23 
  -5  -5 -11    0.19    0.20 
   5   5  11    0.34    0.19 
  -6  -5 -11   -0.06    0.23 
   6   5  11    0.79    0.23 
   7   5  11    1.35    0.27 
   8   5  11    0.20    0.23 
   9   5  11    0.73    0.27 
  10   5  11    0.24    0.25 
  11   5  11    0.35    0.26 
 -11   6  11    0.20    0.17 
 -10   6  11    0.23    0.18 
  -9   6  11    0.39    0.18 
  -8   6  11   -0.08    0.14 
  -7   6  11    0.52    0.16 
  -6   6  11    0.01    0.12 
  -5   6  11    0.05    0.11 
  -5   6  11    0.17    0.17 
  -4   6  11    0.63    0.14 
  -4   6  11    0.83    0.21 
  -3   6  11    1.63    0.21 
  -3   6  11    0.38    0.14 
  -2   6  11    1.01    0.15 
  -2   6  11    1.22    0.22 
  -1   6  11   -0.09    0.17 
  -1   6  11   -0.07    0.10 
   1   6  11   -0.02    0.15 
   1   6  11   -0.04    0.10 
   2   6  11    0.66    0.12 
   2   6  11    0.98    0.21 
   3   6  11    0.29    0.16 
  -4  -6 -11    0.60    0.22 
   4   6  11    0.94    0.22 
  -5  -6 -11    0.10    0.20 
   5   6  11    0.29    0.19 
  -6  -6 -11   -0.34    0.21 
   6   6  11    0.02    0.19 
  -7  -6 -11    0.35    0.27 
   7   6  11    0.70    0.25 
   8   6  11    0.05    0.22 
   9   6  11    0.60    0.24 
  10   6  11    0.55    0.27 
  11   6  11    0.28    0.28 
 -10   7  11    0.17    0.18 
  -9   7  11    0.30    0.18 
  -8   7  11    0.05    0.14 
  -7   7  11    0.39    0.15 
  -6   7  11    0.13    0.13 
  -5   7  11    0.54    0.15 
  -5   7  11    0.71    0.22 
  -4   7  11    0.21    0.13 
  -4   7  11    0.09    0.19 
  -3   7  11    1.03    0.15 
  -3   7  11    1.18    0.24 
  -2   7  11    0.73    0.21 
  -2   7  11    0.69    0.14 
  -1   7  11    0.36    0.12 
  -1   7  11    0.78    0.20 
   0   7  11   -0.10    0.17 
   0   7  11   -0.06    0.10 
   1   7  11    0.30    0.12 
   1   7  11    0.51    0.20 
   2   7  11    0.81    0.21 
   3   7  11    1.41    0.27 
  -4  -7 -11    0.10    0.21 
   4   7  11    0.37    0.19 
  -5  -7 -11    0.33    0.23 
   5   7  11    0.78    0.23 
  -6  -7 -11   -0.20    0.22 
   6   7  11    0.27    0.21 
  -7  -7 -11   -0.10    0.27 
   7   7  11    0.28    0.24 
   8   7  11    0.36    0.23 
   9   7  11    0.76    0.27 
  10   7  11    0.71    0.26 
  11   7  11    1.04    0.30 
 -10   8  11    0.80    0.20 
  -9   8  11    0.34    0.18 
  -8   8  11    0.10    0.15 
  -7   8  11    0.61    0.17 
  -6   8  11    0.32    0.14 
  -5   8  11   -0.01    0.12 
  -5   8  11    0.08    0.15 
  -4   8  11    0.00    0.15 
  -4   8  11    0.12    0.12 
  -3   8  11    0.21    0.11 
  -3   8  11    0.28    0.17 
  -2   8  11    0.20    0.18 
  -2   8  11    0.06    0.11 
  -1   8  11    1.90    0.30 
   0   8  11    9.88    0.59 
   0   8  11    8.88    0.42 
   1   8  11    1.77    0.30 
   2   8  11   -0.15    0.18 
   3   8  11    0.48    0.21 
  -4  -8 -11    0.10    0.21 
   4   8  11    0.17    0.19 
  -5  -8 -11   -0.25    0.21 
   5   8  11    0.23    0.21 
  -6  -8 -11   -0.01    0.24 
   6   8  11    0.28    0.25 
  -7  -8 -11    0.16    0.29 
   7   8  11    0.52    0.25 
  -8  -8 -11   -0.42    0.29 
   8   8  11    0.52    0.26 
   9   8  11    0.77    0.26 
  10   8  11    0.84    0.26 
 -10   9  11    0.10    0.18 
  -9   9  11    0.45    0.17 
  -8   9  11    0.11    0.15 
  -7   9  11    0.06    0.14 
  -6   9  11    0.09    0.14 
  -6   9  11    0.12    0.16 
  -5   9  11    0.32    0.15 
  -5   9  11    0.60    0.21 
  -4   9  11    0.04    0.12 
  -4   9  11   -0.08    0.17 
  -3   9  11    0.03    0.10 
  -3   9  11    0.04    0.18 
  -2   9  11    0.05    0.11 
  -2   9  11    0.08    0.18 
  -1   9  11    1.05    0.25 
  -1   9  11    0.63    0.14 
   0   9  11    0.11    0.20 
   1   9  11    1.07    0.27 
   2   9  11   -0.01    0.19 
   3   9  11   -0.19    0.19 
   4   9  11    0.05    0.19 
  -5  -9 -11    0.43    0.26 
   5   9  11    0.77    0.27 
  -6  -9 -11   -0.04    0.24 
   6   9  11    0.12    0.25 
  -7  -9 -11   -0.17    0.26 
   7   9  11    0.26    0.25 
  -8  -9 -11   -0.46    0.30 
   8   9  11    0.25    0.24 
   9   9  11    0.83    0.26 
  10   9  11    0.74    0.26 
  -9  10  11   -0.09    0.16 
  -8  10  11    0.01    0.14 
  -7  10  11    0.24    0.14 
  -6  10  11    0.59    0.20 
  -6  10  11    0.09    0.14 
  -5  10  11    0.22    0.20 
  -5  10  11    0.16    0.15 
  -4  10  11    0.57    0.23 
  -4  10  11    0.42    0.15 
  -3  10  11    0.05    0.11 
  -3  10  11   -0.06    0.18 
  -2  10  11    0.57    0.14 
  -2  10  11    0.57    0.23 
  -1  10  11    1.88    0.32 
   0  10  11    1.28    0.29 
   1  10  11    2.16    0.33 
   2  10  11    0.51    0.27 
   3  10  11   -0.03    0.21 
   4  10  11    0.51    0.26 
  -5 -10 -11    0.00    0.27 
   5  10  11    0.10    0.24 
  -6 -10 -11   -0.18    0.25 
   6  10  11    0.16    0.25 
  -7 -10 -11   -0.28    0.27 
   7  10  11    0.26    0.27 
  -8 -10 -11   -0.60    0.29 
   8  10  11    0.43    0.26 
   9  10  11    0.74    0.25 
  -9  11  11    0.78    0.20 
  -8  11  11    0.07    0.16 
  -7  11  11    0.55    0.16 
  -6  11  11    0.39    0.16 
  -6  11  11    0.57    0.20 
  -5  11  11    0.25    0.20 
  -5  11  11    0.09    0.14 
  -4  11  11    1.27    0.29 
  -4  11  11    1.43    0.19 
  -3  11  11    0.57    0.15 
  -3  11  11    0.47    0.25 
  -2  11  11    0.46    0.24 
  -1  11  11    1.70    0.32 
   0  11  11    0.13    0.22 
   1  11  11    1.32    0.30 
   2  11  11    0.88    0.29 
   3  11  11    0.61    0.27 
   4  11  11    1.50    0.32 
  -5 -11 -11   -0.13    0.27 
   5  11  11    0.24    0.26 
  -6 -11 -11   -0.01    0.27 
   6  11  11    0.53    0.29 
  -7 -11 -11   -0.17    0.27 
   7  11  11    0.22    0.25 
  -8 -11 -11   -0.44    0.31 
   8  11  11    0.84    0.26 
   9  11  11    1.82    0.34 
  -8  12  11    0.55    0.17 
  -7  12  11    0.36    0.16 
  -6  12  11    0.35    0.16 
  -6  12  11    0.65    0.21 
  -5  12  11    0.52    0.15 
  -5  12  11    0.50    0.23 
  -4  12  11    0.29    0.22 
  -4  12  11    0.42    0.15 
  -3  12  11    0.40    0.23 
  -2  12  11    0.12    0.22 
  -1  12  11    0.20    0.23 
   0  12  11    0.04    0.22 
   1  12  11   -0.01    0.22 
   2  12  11    0.39    0.26 
   3  12  11    0.55    0.26 
   4  12  11    0.67    0.28 
   5  12  11    0.95    0.30 
  -6 -12 -11   -0.31    0.30 
   6  12  11    0.41    0.29 
  -7 -12 -11   -0.18    0.31 
   7  12  11    0.73    0.28 
  -8 -12 -11   -0.08    0.33 
   8  12  11    1.00    0.29 
  -7  13  11    0.18    0.15 
  -6  13  11    0.36    0.20 
  -6  13  11    0.52    0.17 
  -5  13  11    0.06    0.14 
  -5  13  11    0.62    0.21 
  -4  13  11    0.56    0.24 
  -3  13  11    0.26    0.22 
  -2  13  11   -0.03    0.19 
  -1  13  11    0.24    0.22 
   0  13  11   -0.23    0.20 
   1  13  11    0.06    0.23 
   2  13  11    0.08    0.26 
   3  13  11    0.49    0.27 
   4  13  11    0.65    0.29 
   5  13  11    0.49    0.28 
  -6 -13 -11   -0.26    0.29 
   6  13  11    0.63    0.27 
  -7 -13 -11   -0.38    0.30 
   7  13  11    0.73    0.28 
  -6  14  11    0.53    0.22 
  -5  14  11    0.68    0.24 
  -4  14  11    0.63    0.24 
  -3  14  11    0.47    0.24 
  -2  14  11    0.19    0.23 
  -1  14  11    0.07    0.24 
   0  14  11   -0.02    0.23 
   1  14  11    0.25    0.28 
   2  14  11    0.38    0.26 
   3  14  11    0.52    0.25 
   4  14  11    0.83    0.31 
   5  14  11    0.58    0.29 
   6  14  11    0.36    0.27 
   7  14  11    1.02    0.29 
  -5  15  11    0.76    0.22 
  -4  15  11    0.53    0.23 
  -3  15  11    0.48    0.24 
  -2  15  11    0.33    0.24 
  -1  15  11    0.34    0.27 
   0  15  11   -0.06    0.22 
   1  15  11    0.65    0.26 
   2  15  11    0.65    0.27 
   3  15  11    0.94    0.29 
   4  15  11    0.62    0.27 
   5  15  11    0.66    0.28 
  -4  16  11    0.66    0.23 
  -3  16  11    0.52    0.23 
  -2  16  11    0.04    0.20 
  -1  16  11    0.13    0.22 
   0  16  11    0.02    0.23 
   1  16  11    0.24    0.25 
   2  16  11    0.56    0.25 
   3  16  11    0.82    0.27 
   4  16  11    1.14    0.30 
  -2 -16  12    0.58    0.19 
  -1 -16  12    0.69    0.20 
   0 -16  12    0.34    0.18 
  -1  16 -12    0.36    0.25 
  -2  16 -12    0.67    0.25 
  -3  16 -12    0.72    0.25 
  -3 -15  12    0.40    0.20 
  -2 -15  12    0.15    0.19 
  -1 -15  12    0.13    0.17 
   0  15 -12    0.32    0.23 
   0 -15  12   -0.12    0.16 
  -1  15 -12    0.55    0.25 
   1 -15  12    0.32    0.19 
  -2  15 -12    0.49    0.24 
  -3  15 -12    0.77    0.25 
  -4  15 -12    0.66    0.25 
  -4 -14  12    0.97    0.20 
  -3 -14  12    0.59    0.20 
  -2 -14  12    0.76    0.19 
  -1 -14  12   -0.14    0.17 
   0  14 -12    0.71    0.23 
   0 -14  12    0.38    0.19 
  -1  14 -12    0.19    0.22 
   1 -14  12    0.24    0.17 
  -2  14 -12    0.67    0.24 
   2 -14  12    0.57    0.19 
  -3  14 -12    0.15    0.20 
  -4  14 -12    0.75    0.23 
  -5  14 -12    0.24    0.19 
  -6  14 -12    0.32    0.19 
  -7 -13  12   -0.27    0.30 
  -5 -13  12    0.63    0.18 
  -4 -13  12    0.20    0.16 
  -3 -13  12    0.86    0.20 
  -2 -13  12    0.21    0.19 
  -1 -13  12    0.13    0.18 
   0  13 -12    0.30    0.20 
   0 -13  12    0.04    0.17 
  -1  13 -12    0.54    0.23 
   1 -13  12    0.60    0.19 
  -2  13 -12    0.15    0.22 
   2 -13  12    0.10    0.16 
  -3  13 -12    0.52    0.22 
  -4  13 -12    0.27    0.20 
  -5  13 -12    0.30    0.18 
  -6  13 -12    0.23    0.17 
  -7  13 -12    0.51    0.20 
  -8 -12  12    0.12    0.30 
  -7 -12  12   -0.20    0.26 
  -6 -12  12    0.08    0.27 
  -6 -12  12    0.21    0.17 
  -5 -12  12    0.07    0.17 
  -4 -12  12    1.18    0.22 
  -3 -12  12    0.04    0.16 
  -2 -12  12    0.26    0.18 
   1  12 -12    0.62    0.22 
  -1 -12  12    0.62    0.19 
   0  12 -12    0.17    0.19 
   0 -12  12   -0.04    0.17 
  -1  12 -12    0.34    0.20 
   1 -12  12    0.66    0.19 
  -2  12 -12    0.28    0.20 
   2 -12  12    0.14    0.16 
  -3  12 -12    0.05    0.18 
   3 -12  12    0.02    0.16 
  -4  12 -12    0.65    0.24 
  -5  12 -12    0.01    0.16 
  -6  12 -12    0.09    0.16 
  -7  12 -12    0.30    0.16 
  -8  12 -12    0.26    0.17 
  -8 -11  12   -0.03    0.25 
  -7 -11  12    0.05    0.25 
  -7 -11  12    0.14    0.16 
  -6 -11  12    0.47    0.27 
  -6 -11  12    0.39    0.17 
  -5 -11  12    0.10    0.26 
  -5 -11  12    0.13    0.17 
  -4 -11  12    1.09    0.21 
  -3 -11  12    0.22    0.17 
  -2 -11  12    0.08    0.15 
   1  11 -12    0.00    0.17 
  -1 -11  12    0.01    0.16 
   0  11 -12   -0.11    0.19 
   0 -11  12    0.02    0.15 
  -1  11 -12    0.02    0.18 
   1 -11  12   -0.11    0.16 
  -2  11 -12    0.14    0.17 
   2 -11  12    0.20    0.16 
  -3  11 -12    0.59    0.22 
   3 -11  12    0.35    0.18 
  -4  11 -12    1.18    0.26 
  -5  11 -12    0.12    0.17 
  -6  11 -12    0.17    0.16 
  -7  11 -12    0.24    0.17 
  -8  11 -12   -0.11    0.15 
  -9 -10  12    0.15    0.25 
  -8 -10  12    0.03    0.16 
  -8 -10  12    0.10    0.25 
  -7 -10  12    0.19    0.16 
  -7 -10  12    0.12    0.25 
  -6 -10  12   -0.05    0.22 
  -6 -10  12   -0.19    0.14 
  -5 -10  12    0.96    0.20 
  -5 -10  12    1.32    0.30 
  -4 -10  12    0.25    0.17 
  -4 -10  12    0.47    0.26 
  -3 -10  12    0.01    0.15 
  -2 -10  12    0.34    0.17 
   1  10 -12    0.54    0.21 
  -1 -10  12    0.81    0.20 
   0  10 -12    1.44    0.26 
   0 -10  12    1.70    0.23 
  -1  10 -12    0.94    0.23 
   1 -10  12    0.60    0.19 
  -2  10 -12    0.11    0.17 
   2 -10  12    0.22    0.17 
  -3  10 -12    0.02    0.16 
   3 -10  12   -0.20    0.14 
  -4  10 -12    0.35    0.19 
   4 -10  12    0.34    0.17 
  -5  10 -12    0.62    0.21 
  -6  10 -12    0.00    0.14 
  -7  10 -12    0.15    0.15 
  -8  10 -12   -0.07    0.20 
  -9  10 -12    0.14    0.21 
  -9  -9  12    0.47    0.19 
  -9  -9  12    0.27    0.27 
  -8  -9  12   -0.11    0.15 
  -8  -9  12    0.20    0.23 
  -7  -9  12    0.15    0.24 
  -7  -9  12   -0.01    0.15 
  -6  -9  12    0.70    0.19 
  -6  -9  12    0.74    0.24 
  -5  -9  12    0.13    0.23 
  -5  -9  12    0.13    0.15 
  -4  -9  12    1.56    0.24 
  -4  -9  12    1.45    0.21 
  -3  -9  12    0.26    0.16 
  -3  -9  12   -0.01    0.21 
  -2  -9  12    0.16    0.15 
   1   9 -12    0.28    0.20 
  -1  -9  12    0.18    0.16 
   0   9 -12   -0.20    0.16 
   0  -9  12   -0.14    0.15 
  -1   9 -12    0.37    0.18 
   1  -9  12    0.07    0.16 
  -2   9 -12    0.19    0.16 
   2  -9  12   -0.19    0.15 
  -3   9 -12    0.18    0.15 
   3  -9  12    0.09    0.15 
  -4   9 -12    1.04    0.23 
   4  -9  12    0.93    0.18 
  -5   9 -12    0.15    0.16 
  -6   9 -12    0.38    0.19 
  -7   9 -12    0.13    0.15 
  -8   9 -12    0.00    0.19 
  -9   9 -12    0.22    0.20 
 -10  -8  12    0.43    0.29 
  -9  -8  12    0.37    0.27 
  -9  -8  12    0.32    0.19 
  -8  -8  12    0.19    0.16 
  -8  -8  12    0.26    0.25 
  -7  -8  12    0.27    0.17 
  -7  -8  12    0.24    0.23 
  -6  -8  12   -0.07    0.14 
  -6  -8  12    0.10    0.23 
  -5  -8  12    1.05    0.19 
  -5  -8  12    1.20    0.27 
  -4  -8  12    0.48    0.16 
  -4  -8  12    0.46    0.20 
  -3  -8  12   -0.03    0.15 
  -3  -8  12    0.13    0.14 
   2   8 -12   -0.10    0.15 
  -2  -8  12    0.05    0.15 
   1   8 -12    0.92    0.22 
  -1  -8  12    0.94    0.19 
   0   8 -12    3.96    0.34 
   0  -8  12    4.21    0.28 
  -1   8 -12    0.76    0.19 
   1  -8  12    0.81    0.19 
  -2   8 -12    0.04    0.14 
   2  -8  12   -0.24    0.13 
  -3   8 -12    0.16    0.15 
   3  -8  12    0.12    0.13 
  -4   8 -12    0.30    0.16 
   4  -8  12    0.21    0.14 
  -5   8 -12    0.59    0.20 
  -6   8 -12    0.06    0.15 
  -7   8 -12    0.11    0.18 
  -8   8 -12    0.03    0.20 
  -9   8 -12    0.18    0.21 
 -10   8 -12    0.16    0.22 
 -10  -7  12    0.96    0.33 
 -10  -7  12    0.81    0.22 
  -9  -7  12    0.42    0.19 
  -9  -7  12    0.60    0.27 
  -8  -7  12    0.12    0.17 
  -8  -7  12    0.01    0.24 
  -7  -7  12    0.05    0.22 
  -7  -7  12   -0.08    0.16 
  -6  -7  12    0.65    0.25 
  -6  -7  12    0.54    0.18 
  -5  -7  12    0.10    0.19 
  -5  -7  12   -0.05    0.14 
  -4  -7  12    1.32    0.27 
  -4  -7  12    0.99    0.18 
  -3  -7  12    3.86    0.26 
   2   7 -12   -0.09    0.15 
  -2  -7  12    0.04    0.13 
  -2  -7  12    0.00    0.18 
   1   7 -12    0.01    0.15 
  -1  -7  12    0.17    0.14 
   0   7 -12   -0.28    0.15 
   0  -7  12   -0.13    0.13 
  -1   7 -12    0.03    0.14 
   1  -7  12    0.06    0.14 
  -2   7 -12   -0.06    0.14 
   2  -7  12    0.03    0.13 
  -3   7 -12    3.14    0.30 
   3  -7  12    3.26    0.24 
  -4   7 -12    0.65    0.19 
   4  -7  12    0.49    0.15 
  -5   7 -12   -0.03    0.13 
   5  -7  12    0.01    0.12 
  -6   7 -12    0.13    0.17 
  -7   7 -12   -0.05    0.17 
  -8   7 -12   -0.02    0.19 
  -9   7 -12    0.35    0.22 
 -10   7 -12    0.47    0.25 
 -10  -6  12    0.79    0.31 
 -10  -6  12    0.46    0.20 
  -9  -6  12    0.42    0.19 
  -9  -6  12    0.22    0.25 
  -8  -6  12    1.43    0.32 
  -8  -6  12    1.60    0.24 
  -7  -6  12   -0.06    0.22 
  -7  -6  12   -0.07    0.16 
  -6  -6  12    0.32    0.22 
  -6  -6  12    0.41    0.17 
  -5  -6  12    0.24    0.20 
  -5  -6  12    0.02    0.14 
  -4  -6  12    0.85    0.25 
  -4  -6  12    0.82    0.17 
  -3  -6  12   -0.07    0.13 
  -3  -6  12    0.12    0.14 
   2   6 -12    0.22    0.15 
  -2  -6  12    0.27    0.14 
  -2  -6  12    0.25    0.18 
   1   6 -12   -0.04    0.12 
  -1  -6  12   -0.02    0.13 
   0   6 -12    1.37    0.23 
   0  -6  12    1.39    0.19 
  -1   6 -12    0.04    0.14 
   1  -6  12   -0.07    0.11 
  -2   6 -12    0.21    0.14 
   2  -6  12    0.15    0.14 
  -3   6 -12    0.00    0.12 
   3  -6  12   -0.02    0.13 
  -4   6 -12    0.39    0.16 
   4  -6  12    0.40    0.15 
  -5   6 -12    0.10    0.14 
   5  -6  12    0.11    0.14 
  -6   6 -12   -0.11    0.13 
  -7   6 -12   -0.13    0.14 
  -8   6 -12    0.63    0.24 
  -9   6 -12    0.20    0.21 
 -10   6 -12    0.30    0.25 
 -11  -5  12    1.03    0.31 
 -11  -5  12    0.27    0.17 
 -10  -5  12    0.67    0.30 
 -10  -5  12    0.25    0.18 
  -9  -5  12    0.45    0.18 
  -8  -5  12    0.18    0.18 
  -7  -5  12    1.77    0.24 
  -6  -5  12    0.31    0.16 
  -5  -5  12    0.18    0.15 
  -4  -5  12    0.52    0.23 
  -4  -5  12    0.47    0.15 
  -3  -5  12    4.63    0.28 
   2   5 -12    1.62    0.19 
  -2  -5  12    1.51    0.23 
  -2  -5  12    1.65    0.18 
   1   5 -12    0.11    0.09 
  -1  -5  12    0.65    0.15 
   0   5 -12    0.10    0.13 
   0  -5  12   -0.03    0.12 
   1  -5  12    0.46    0.14 
   2  -5  12    1.82    0.24 
   2  -5  12    1.73    0.20 
   3  -5  12    4.00    0.32 
   3  -5  12    3.96    0.26 
   4  -5  12    0.48    0.18 
   4  -5  12    0.24    0.14 
   5  -5  12    0.12    0.13 
   5  -5  12    0.13    0.18 
   6  -5  12    0.18    0.21 
   7  -5  12    0.90    0.25 
  -8   5 -12    0.08    0.20 
  -9   5 -12    0.21    0.21 
 -10   5 -12    0.30    0.24 
 -11   5 -12    0.50    0.23 
 -11  -4  12    0.26    0.17 
 -10  -4  12   -0.07    0.17 
  -9  -4  12    0.23    0.17 
  -8  -4  12    0.77    0.20 
  -7  -4  12    0.65    0.19 
  -6  -4  12    0.21    0.15 
  -5  -4  12   -0.07    0.13 
  -4  -4  12    1.50    0.19 
  -3  -4  12    0.07    0.11 
   2   4 -12   11.47    0.59 
  -2  -4  12   10.79    0.49 
  -2  -4  12   11.40    0.68 
  -1  -4  12    0.62    0.14 
  -1  -4  12    0.96    0.16 
   0  -4  12    1.36    0.18 
   0  -4  12    1.41    0.18 
   1  -4  12    0.88    0.18 
   1  -4  12    0.52    0.14 
   2  -4  12   10.32    0.46 
   2  -4  12    9.97    0.58 
   3  -4  12    0.18    0.14 
   3  -4  12    0.16    0.13 
   4  -4  12    1.27    0.23 
   4  -4  12    1.12    0.17 
   5  -4  12   -0.01    0.12 
   5  -4  12   -0.10    0.15 
   6  -4  12    0.53    0.25 
   7  -4  12    0.51    0.24 
   8  -4  12    0.30    0.23 
   9  -4  12    0.08    0.23 
 -10   4 -12   -0.05    0.18 
 -11   4 -12    0.26    0.20 
 -11  -3  12    0.26    0.19 
 -10  -3  12    0.16    0.18 
  -9  -3  12    0.04    0.18 
  -8  -3  12    0.59    0.19 
  -7  -3  12    0.05    0.15 
  -6  -3  12    0.25    0.15 
  -5  -3  12   -0.08    0.13 
  -4  -3  12    0.60    0.15 
  -3  -3  12    0.54    0.13 
  -2  -3  12    0.44    0.13 
  -2  -3  12    0.28    0.12 
  -1  -3  12    0.10    0.11 
  -1  -3  12    0.18    0.11 
   0  -3  12   -0.02    0.11 
   0  -3  12   -0.03    0.12 
   1  -3  12    0.11    0.13 
   1  -3  12    0.05    0.13 
   2  -3  12    0.36    0.16 
   2  -3  12    0.37    0.14 
   3  -3  12    0.57    0.18 
   3  -3  12    0.50    0.14 
   4  -3  12    0.46    0.14 
   4  -3  12    0.40    0.18 
   5  -3  12    0.12    0.16 
   5  -3  12   -0.01    0.12 
   6  -3  12    0.25    0.23 
   7  -3  12   -0.11    0.20 
   8  -3  12   -0.15    0.23 
   9  -3  12    0.23    0.24 
  10  -3  12    0.43    0.25 
 -11  -2  12    0.77    0.22 
 -10  -2  12   -0.06    0.16 
  -9  -2  12   -0.01    0.16 
  -8  -2  12    0.51    0.19 
  -7  -2  12    0.36    0.17 
  -6  -2  12    0.04    0.14 
  -5  -2  12    0.37    0.14 
  -4  -2  12    0.28    0.13 
  -3  -2  12    0.02    0.10 
  -2  -2  12    5.46    0.30 
  -2  -2  12    5.91    0.34 
  -1  -2  12   -0.02    0.11 
  -1  -2  12   -0.05    0.10 
   0  -2  12    1.34    0.19 
   0  -2  12    1.28    0.16 
   1  -2  12    0.01    0.12 
   1  -2  12   -0.03    0.13 
   2  -2  12    5.35    0.29 
   2  -2  12    5.50    0.37 
   3  -2  12    0.04    0.13 
   3  -2  12    0.02    0.13 
   4  -2  12    0.11    0.15 
   4  -2  12    0.14    0.14 
   5  -2  12    0.24    0.17 
   5  -2  12    0.27    0.13 
   6  -2  12    0.19    0.23 
   7  -2  12    0.16    0.23 
   8  -2  12    0.31    0.24 
   9  -2  12   -0.14    0.24 
  10  -2  12    0.43    0.26 
  11  -2  12    0.77    0.28 
 -11  -1  12    0.38    0.19 
 -10  -1  12    0.04    0.17 
  -9  -1  12    1.09    0.21 
  -8  -1  12    0.13    0.16 
  -7  -1  12    1.80    0.23 
  -6  -1  12    7.63    0.40 
  -5  -1  12   -0.05    0.12 
  -4  -1  12    0.14    0.11 
  -3  -1  12    0.01    0.09 
  -2  -1  12    0.26    0.12 
  -2  -1  12    0.20    0.11 
  -1  -1  12   -0.11    0.10 
  -1  -1  12   -0.10    0.10 
   0  -1  12   -0.04    0.11 
   0  -1  12   -0.11    0.11 
   1  -1  12   -0.05    0.12 
   1  -1  12    0.04    0.11 
   2  -1  12    0.20    0.14 
   2  -1  12    0.26    0.13 
   3  -1  12   -0.05    0.12 
   3  -1  12    0.05    0.12 
   4  -1  12    0.14    0.13 
   4  -1  12    0.06    0.15 
   5  -1  12    0.09    0.16 
   5  -1  12    0.01    0.13 
   6  -1  12    6.30    0.47 
   7  -1  12    1.13    0.28 
   8  -1  12    0.05    0.24 
   9  -1  12    0.33    0.25 
  10  -1  12    0.06    0.23 
  11  -1  12    0.29    0.26 
 -11   0  12    0.90    0.21 
 -10   0  12    0.11    0.17 
  -9   0  12    0.12    0.16 
  -8   0  12    1.48    0.23 
  -7   0  12    2.65    0.24 
  -6   0  12    3.62    0.27 
  -5   0  12    0.01    0.11 
  -4   0  12    0.49    0.13 
  -3   0  12    0.65    0.13 
  -3   0  12    0.55    0.12 
  -2   0  12    0.96    0.15 
  -2   0  12    0.91    0.15 
  -1   0  12    3.35    0.22 
  -1   0  12    3.40    0.25 
   0   0  12   -0.11    0.11 
   0   0  12    0.03    0.10 
   1   0  12    2.98    0.21 
   1   0  12    3.45    0.27 
   2   0  12    0.69    0.17 
   2   0  12    0.69    0.15 
   3   0  12    0.37    0.13 
   3   0  12    0.45    0.16 
   4   0  12    0.55    0.18 
   4   0  12    0.47    0.14 
   5   0  12    0.24    0.18 
   5   0  12    0.13    0.13 
   6   0  12    3.07    0.33 
   7   0  12    1.92    0.33 
   8   0  12    1.19    0.31 
   9   0  12    0.32    0.25 
  10   0  12    0.36    0.25 
  11   0  12    0.78    0.28 
 -11   1  12    0.33    0.19 
 -10   1  12    0.12    0.18 
  -9   1  12    0.86    0.21 
  -8   1  12   -0.05    0.15 
  -7   1  12    1.76    0.23 
  -6   1  12    7.64    0.40 
  -5   1  12   -0.08    0.11 
  -4   1  12    0.18    0.11 
  -3   1  12    0.07    0.10 
  -3   1  12    0.10    0.10 
  -2   1  12    0.15    0.12 
  -2   1  12    0.09    0.11 
  -1   1  12   -0.07    0.10 
  -1   1  12   -0.08    0.11 
   0   1  12   -0.03    0.11 
   0   1  12   -0.10    0.10 
   1   1  12    0.01    0.11 
   1   1  12   -0.06    0.10 
   2   1  12    0.16    0.14 
   2   1  12    0.21    0.12 
   3   1  12   -0.08    0.11 
   3   1  12    0.01    0.13 
   4   1  12   -0.04    0.12 
   4   1  12    0.11    0.14 
   5   1  12   -0.04    0.15 
   5   1  12    0.06    0.13 
   6   1  12    6.93    0.50 
   7   1  12    1.44    0.29 
   8   1  12    0.19    0.24 
   9   1  12    0.50    0.27 
  10   1  12    0.21    0.24 
  11   1  12    0.30    0.26 
 -11   2  12    1.19    0.23 
 -10   2  12    0.34    0.18 
  -9   2  12    0.17    0.17 
  -8   2  12    0.50    0.18 
  -7   2  12    0.58    0.17 
  -6   2  12    0.00    0.12 
  -5   2  12    0.39    0.13 
  -4   2  12    0.40    0.13 
  -4   2  12    0.33    0.13 
  -3   2  12   -0.03    0.11 
  -3   2  12   -0.01    0.10 
  -2   2  12    5.82    0.30 
  -2   2  12    6.09    0.37 
  -1   2  12   -0.14    0.12 
  -1   2  12    0.02    0.10 
   0   2  12    1.16    0.15 
   0   2  12    1.25    0.20 
   1   2  12   -0.03    0.10 
   1   2  12    0.01    0.13 
   2   2  12    5.56    0.40 
   2   2  12    5.85    0.30 
   3   2  12   -0.10    0.11 
   3   2  12   -0.07    0.12 
   4   2  12    0.10    0.15 
   4   2  12    0.08    0.07 
   5   2  12    0.41    0.20 
   5   2  12    0.10    0.12 
   6   2  12    0.44    0.20 
   7   2  12    0.29    0.21 
   8   2  12    0.46    0.26 
   9   2  12    0.10    0.25 
  10   2  12    0.39    0.26 
  11   2  12    1.00    0.29 
 -11   3  12    0.47    0.20 
 -10   3  12    0.10    0.17 
  -9   3  12   -0.05    0.17 
  -8   3  12    0.50    0.18 
  -7   3  12   -0.16    0.13 
  -6   3  12    0.51    0.16 
  -5   3  12    0.15    0.12 
  -4   3  12    0.45    0.15 
  -4   3  12    0.58    0.13 
  -3   3  12    0.68    0.14 
  -3   3  12    0.73    0.17 
  -2   3  12    0.39    0.13 
  -2   3  12    0.40    0.17 
  -1   3  12   -0.07    0.13 
  -1   3  12   -0.12    0.11 
   0   3  12   -0.07    0.10 
   0   3  12   -0.06    0.13 
   1   3  12    0.05    0.11 
   1   3  12    0.05    0.14 
   2   3  12    0.13    0.09 
   2   3  12    0.35    0.17 
   3   3  12    0.40    0.17 
   3   3  12    0.35    0.13 
   4   3  12    0.62    0.19 
   4   3  12    0.49    0.13 
   5   3  12    0.08    0.15 
   6   3  12    0.61    0.22 
   7   3  12    0.19    0.21 
   8   3  12    0.73    0.28 
   9   3  12    0.29    0.26 
  10   3  12    0.32    0.27 
  11   3  12    0.81    0.27 
 -11   4  12    0.38    0.16 
 -10   4  12    0.10    0.18 
  -9   4  12    0.19    0.16 
  -8   4  12    0.66    0.19 
  -7   4  12    0.41    0.16 
  -6   4  12   -0.11    0.13 
  -5   4  12    0.08    0.11 
  -4   4  12    1.52    0.16 
  -4   4  12    1.56    0.23 
  -3   4  12    0.08    0.11 
  -3   4  12    0.16    0.16 
  -2   4  12   10.87    0.49 
  -2   4  12   11.64    0.63 
  -1   4  12    1.01    0.20 
  -1   4  12    0.70    0.14 
   0   4  12    1.68    0.24 
   0   4  12    1.59    0.18 
   1   4  12    0.76    0.20 
   1   4  12    0.64    0.13 
   2   4  12   10.47    0.61 
   2   4  12   10.16    0.44 
   3   4  12   -0.14    0.10 
   3   4  12    0.12    0.15 
   4   4  12    1.40    0.25 
   5   4  12    0.09    0.17 
   6   4  12    0.47    0.21 
   7   4  12    0.42    0.25 
   8   4  12    0.92    0.27 
   9   4  12    0.00    0.24 
  10   4  12    0.02    0.24 
  11   4  12    0.73    0.29 
 -10   5  12    0.28    0.17 
  -9   5  12    0.21    0.17 
  -8   5  12    0.10    0.15 
  -7   5  12    1.50    0.21 
  -6   5  12    0.57    0.16 
  -5   5  12    0.36    0.14 
  -4   5  12    0.51    0.14 
  -4   5  12    0.52    0.18 
  -3   5  12    4.88    0.36 
  -3   5  12    4.80    0.27 
  -2   5  12    1.94    0.23 
  -2   5  12    1.84    0.18 
  -1   5  12    0.59    0.14 
  -1   5  12    0.66    0.19 
   0   5  12   -0.07    0.11 
   0   5  12    0.06    0.15 
   1   5  12    0.46    0.13 
   1   5  12    0.78    0.20 
   2   5  12    1.48    0.16 
   2   5  12    1.66    0.22 
   3   5  12    4.44    0.36 
   4   5  12    0.30    0.18 
  -5  -5 -12    0.10    0.20 
   5   5  12    0.41    0.21 
   6   5  12    0.52    0.22 
   7   5  12    1.35    0.29 
   8   5  12    0.13    0.21 
   9   5  12    0.15    0.25 
  10   5  12    0.52    0.28 
  11   5  12    0.52    0.27 
 -10   6  12    0.05    0.16 
  -9   6  12   -0.08    0.16 
  -8   6  12    1.10    0.21 
  -7   6  12    0.17    0.14 
  -6   6  12    0.14    0.14 
  -5   6  12    0.05    0.17 
  -5   6  12    0.07    0.13 
  -4   6  12    0.66    0.15 
  -4   6  12    0.84    0.21 
  -3   6  12    0.12    0.17 
  -3   6  12    0.06    0.11 
  -2   6  12    0.45    0.20 
  -2   6  12    0.49    0.13 
  -1   6  12    0.01    0.11 
  -1   6  12    0.03    0.16 
   0   6  12    1.44    0.25 
   1   6  12    0.01    0.12 
   1   6  12    0.02    0.16 
   2   6  12    0.35    0.19 
   3   6  12   -0.23    0.14 
   4   6  12    0.87    0.24 
  -5  -6 -12   -0.21    0.20 
   5   6  12    0.14    0.18 
   6   6  12    0.55    0.24 
   7   6  12   -0.04    0.21 
   8   6  12    1.05    0.28 
   9   6  12    0.69    0.26 
  10   6  12    0.99    0.29 
  11   6  12    0.60    0.30 
 -10   7  12    0.80    0.21 
  -9   7  12    0.34    0.18 
  -8   7  12   -0.05    0.15 
  -7   7  12   -0.01    0.13 
  -6   7  12    0.65    0.17 
  -5   7  12    0.27    0.16 
  -5   7  12   -0.04    0.13 
  -4   7  12    0.99    0.17 
  -4   7  12    1.04    0.22 
  -3   7  12    3.77    0.32 
  -3   7  12    4.47    0.26 
  -2   7  12    0.06    0.16 
  -2   7  12    0.23    0.12 
  -1   7  12    0.03    0.12 
  -1   7  12    0.38    0.19 
   0   7  12   -0.10    0.18 
   0   7  12   -0.20    0.12 
   1   7  12   -0.09    0.20 
   2   7  12   -0.25    0.15 
   3   7  12    3.91    0.35 
   4   7  12    1.00    0.25 
  -5  -7 -12   -0.32    0.21 
   5   7  12   -0.02    0.19 
  -6  -7 -12    0.32    0.24 
   6   7  12    0.47    0.25 
   7   7  12    0.29    0.25 
   8   7  12    0.35    0.25 
   9   7  12    0.75    0.26 
  10   7  12    1.04    0.28 
 -10   8  12    0.54    0.20 
  -9   8  12    0.07    0.17 
  -8   8  12    0.24    0.18 
  -7   8  12    0.31    0.16 
  -6   8  12   -0.05    0.13 
  -5   8  12    0.83    0.18 
  -5   8  12    1.38    0.24 
  -4   8  12    0.39    0.18 
  -4   8  12    0.29    0.14 
  -3   8  12    0.25    0.12 
  -3   8  12    0.13    0.17 
  -2   8  12   -0.14    0.11 
  -2   8  12    0.06    0.17 
  -1   8  12    0.96    0.25 
   0   8  12    4.55    0.39 
   1   8  12    0.97    0.26 
   2   8  12   -0.18    0.18 
   3   8  12    0.28    0.20 
   4   8  12    0.37    0.22 
  -5  -8 -12    0.59    0.27 
   5   8  12    0.77    0.27 
  -6  -8 -12   -0.13    0.24 
   6   8  12    0.09    0.23 
   7   8  12    0.44    0.26 
   8   8  12    0.67    0.26 
   9   8  12    1.02    0.27 
  10   8  12    0.69    0.27 
  -9   9  12    0.33    0.18 
  -8   9  12    0.20    0.16 
  -7   9  12    0.08    0.14 
  -6   9  12    0.57    0.17 
  -5   9  12   -0.04    0.13 
  -5   9  12    0.23    0.18 
  -4   9  12    1.37    0.26 
  -4   9  12    1.53    0.20 
  -3   9  12    0.17    0.20 
  -3   9  12    0.18    0.12 
  -2   9  12    0.34    0.20 
  -2   9  12    0.21    0.12 
  -1   9  12    0.32    0.22 
  -1   9  12    0.09    0.12 
   0   9  12    0.14    0.22 
   1   9  12    0.38    0.24 
   2   9  12   -0.11    0.21 
   3   9  12   -0.01    0.21 
   4   9  12    1.58    0.31 
  -5  -9 -12   -0.02    0.25 
   5   9  12    0.21    0.24 
  -6  -9 -12    0.05    0.27 
   6   9  12    0.68    0.28 
  -7  -9 -12   -0.55    0.26 
   7   9  12    0.30    0.25 
   8   9  12    0.62    0.26 
   9   9  12    1.14    0.27 
  -9  10  12    0.16    0.17 
  -8  10  12    0.09    0.16 
  -7  10  12    0.14    0.14 
  -6  10  12   -0.03    0.14 
  -5  10  12    0.87    0.18 
  -5  10  12    1.45    0.26 
  -4  10  12    0.43    0.16 
  -4  10  12    0.58    0.23 
  -3  10  12    0.15    0.13 
  -3  10  12    0.09    0.21 
  -2  10  12    0.42    0.23 
  -2  10  12    0.23    0.12 
  -1  10  12    0.67    0.25 
   0  10  12    1.83    0.32 
   1  10  12    1.08    0.29 
   2  10  12    0.08    0.23 
   3  10  12    0.33    0.25 
   4  10  12    0.80    0.28 
   5  10  12    1.39    0.33 
  -6 -10 -12   -0.38    0.27 
   6  10  12    0.00    0.24 
  -7 -10 -12   -0.35    0.28 
   7  10  12   -0.06    0.25 
   8  10  12    0.47    0.25 
   9  10  12    1.14    0.30 
  -8  11  12    0.31    0.16 
  -7  11  12    0.16    0.15 
  -6  11  12    0.37    0.16 
  -5  11  12    0.14    0.19 
  -5  11  12    0.12    0.14 
  -4  11  12    1.06    0.18 
  -4  11  12    1.24    0.27 
  -3  11  12    0.71    0.25 
  -2  11  12    0.01    0.22 
  -1  11  12   -0.02    0.20 
   0  11  12   -0.12    0.21 
   1  11  12    0.14    0.24 
   2  11  12    0.15    0.25 
   3  11  12    0.64    0.29 
   4  11  12    1.50    0.34 
   5  11  12   -0.02    0.25 
  -6 -11 -12   -0.10    0.29 
   6  11  12    0.70    0.28 
  -7 -11 -12   -0.55    0.28 
   7  11  12    0.50    0.25 
   8  11  12    0.88    0.28 
  -7  12  12    0.34    0.16 
  -6  12  12    0.58    0.20 
  -6  12  12    0.13    0.15 
  -5  12  12    0.15    0.14 
  -5  12  12    0.23    0.19 
  -4  12  12    1.21    0.28 
  -3  12  12   -0.06    0.21 
  -2  12  12    0.01    0.20 
  -1  12  12    0.36    0.23 
   0  12  12    0.10    0.23 
   1  12  12    0.62    0.27 
   2  12  12    0.32    0.28 
   3  12  12    0.23    0.26 
   4  12  12    1.38    0.31 
   5  12  12    0.31    0.26 
  -6 -12 -12   -0.21    0.29 
  -7 -12 -12   -0.50    0.32 
   7  12  12    0.77    0.28 
  -8 -12 -12   -0.25    0.34 
   8  12  12    1.32    0.31 
  -7  13  12    0.35    0.17 
  -6  13  12    0.21    0.16 
  -6  13  12    0.37    0.20 
  -5  13  12    0.50    0.22 
  -4  13  12    0.29    0.22 
  -3  13  12    0.78    0.26 
  -2  13  12    0.11    0.22 
  -1  13  12    0.59    0.26 
   0  13  12    0.01    0.20 
   1  13  12    0.59    0.26 
   2  13  12    0.13    0.27 
   3  13  12    0.75    0.26 
   4  13  12    0.52    0.26 
   5  13  12    0.68    0.28 
   6  13  12    0.76    0.28 
  -7 -13 -12   -0.06    0.35 
   7  13  12    0.62    0.29 
  -6  14  12    0.47    0.21 
  -5  14  12    0.53    0.22 
  -4  14  12    0.91    0.26 
  -3  14  12    0.40    0.22 
  -2  14  12    0.75    0.28 
  -1  14  12    0.13    0.22 
   0  14  12    0.23    0.22 
   1  14  12    0.19    0.23 
   2  14  12    0.62    0.31 
   3  14  12    0.81    0.28 
   4  14  12    1.04    0.29 
   5  14  12    0.44    0.26 
   6  14  12    1.37    0.32 
  -4  15  12    0.43    0.22 
  -3  15  12    0.37    0.21 
  -2  15  12   -0.13    0.18 
  -1  15  12   -0.14    0.20 
   0  15  12    0.12    0.20 
   1  15  12    0.50    0.24 
   2  15  12    0.29    0.26 
   3  15  12    0.56    0.24 
   4  15  12    0.67    0.27 
  -2  16  12    0.37    0.23 
  -1  16  12    1.11    0.29 
   0  16  12    0.18    0.21 
   1  16  12    0.68    0.24 
   2  16  12    0.45    0.24 
  -1 -16  13    0.59    0.19 
   0 -16  13    0.39    0.18 
  -1  16 -13    0.44    0.23 
   1 -16  13    0.46    0.18 
  -3 -15  13    0.41    0.18 
  -2 -15  13    0.11    0.18 
  -1 -15  13    0.36    0.20 
   0 -15  13   -0.03    0.17 
  -1  15 -13    0.36    0.23 
   1 -15  13    0.12    0.17 
  -2  15 -13    0.35    0.23 
  -3  15 -13    0.23    0.21 
  -4  15 -13    0.51    0.22 
  -4 -14  13    0.53    0.19 
  -3 -14  13    0.44    0.19 
  -2 -14  13    0.00    0.18 
  -1 -14  13    0.36    0.20 
   0 -14  13    0.65    0.21 
  -1  14 -13    0.14    0.22 
   1 -14  13    0.03    0.17 
  -2  14 -13    0.56    0.23 
   2 -14  13    0.51    0.19 
  -3  14 -13    0.17    0.21 
  -4  14 -13    0.28    0.20 
  -5  14 -13    0.49    0.21 
  -5 -13  13    0.65    0.19 
  -4 -13  13    0.28    0.18 
  -3 -13  13    0.23    0.18 
  -2 -13  13    0.31    0.19 
  -1 -13  13    0.28    0.19 
   0  13 -13    0.33    0.20 
   0 -13  13   -0.06    0.17 
  -1  13 -13    0.54    0.22 
   1 -13  13    0.17    0.17 
  -2  13 -13    0.09    0.20 
   2 -13  13   -0.10    0.16 
  -3  13 -13    0.23    0.20 
   3 -13  13   -0.05    0.17 
  -4  13 -13    0.09    0.19 
  -5  13 -13    0.16    0.18 
  -6  13 -13    0.22    0.17 
  -6 -12  13    0.32    0.18 
  -5 -12  13    0.28    0.17 
  -4 -12  13    0.25    0.17 
  -3 -12  13    0.53    0.19 
  -2 -12  13    0.81    0.20 
  -1 -12  13    0.07    0.17 
   0  12 -13    1.13    0.25 
   0 -12  13    0.88    0.20 
  -1  12 -13    0.39    0.20 
   1 -12  13    0.10    0.17 
  -2  12 -13    0.84    0.23 
   2 -12  13    0.45    0.18 
  -3  12 -13    0.48    0.22 
   3 -12  13    0.29    0.18 
  -4  12 -13    0.21    0.19 
  -5  12 -13    0.29    0.18 
  -6  12 -13    0.16    0.15 
  -7  12 -13    0.53    0.18 
  -8 -11  13    0.09    0.26 
  -7 -11  13    0.24    0.27 
  -7 -11  13    0.21    0.17 
  -6 -11  13    0.29    0.17 
  -5 -11  13    0.59    0.19 
  -4 -11  13    0.49    0.19 
  -3 -11  13   -0.04    0.17 
  -2 -11  13    0.21    0.16 
  -1 -11  13    0.27    0.18 
   0  11 -13    0.05    0.19 
   0 -11  13   -0.06    0.16 
  -1  11 -13    0.60    0.22 
   1 -11  13    0.44    0.19 
  -2  11 -13    0.11    0.19 
   2 -11  13    0.07    0.16 
  -3  11 -13    0.17    0.20 
   3 -11  13   -0.10    0.15 
  -4  11 -13    0.37    0.20 
   4 -11  13    0.25    0.17 
  -5  11 -13    0.34    0.19 
  -6  11 -13    0.17    0.16 
  -7  11 -13    0.29    0.17 
  -8  11 -13    0.56    0.21 
  -8 -10  13    0.15    0.25 
  -8 -10  13    0.08    0.17 
  -7 -10  13    0.16    0.26 
  -7 -10  13    0.26    0.17 
  -6 -10  13    0.21    0.16 
  -6 -10  13    0.11    0.25 
  -5 -10  13    0.34    0.17 
  -4 -10  13    0.53    0.19 
  -3 -10  13    0.36    0.18 
  -2 -10  13    0.17    0.17 
   1  10 -13    1.42    0.26 
  -1 -10  13    1.39    0.23 
   0  10 -13   -0.07    0.18 
   0 -10  13    0.01    0.18 
  -1  10 -13    1.49    0.27 
   1 -10  13    1.44    0.23 
  -2  10 -13    0.03    0.17 
   2 -10  13   -0.11    0.16 
  -3  10 -13    0.11    0.18 
   3 -10  13    0.04    0.15 
  -4  10 -13    0.22    0.19 
   4 -10  13    0.22    0.16 
  -5  10 -13    0.04    0.17 
  -6  10 -13    0.09    0.15 
  -7  10 -13    0.24    0.17 
  -8  10 -13    0.13    0.16 
  -9  -9  13    0.11    0.27 
  -9  -9  13    0.14    0.17 
  -8  -9  13    0.13    0.25 
  -8  -9  13    0.09    0.17 
  -7  -9  13   -0.03    0.23 
  -7  -9  13    0.08    0.16 
  -6  -9  13    0.35    0.17 
  -6  -9  13    0.47    0.23 
  -5  -9  13    0.19    0.17 
  -5  -9  13    0.42    0.24 
  -4  -9  13    0.07    0.15 
  -3  -9  13    0.04    0.16 
  -2  -9  13    0.27    0.17 
   1   9 -13    0.73    0.21 
  -1  -9  13    0.76    0.19 
   0   9 -13   -0.32    0.17 
   0  -9  13    0.07    0.18 
  -1   9 -13    0.78    0.22 
   1  -9  13    0.69    0.20 
  -2   9 -13    0.05    0.15 
   2  -9  13   -0.15    0.16 
  -3   9 -13    0.12    0.16 
   3  -9  13   -0.17    0.13 
  -4   9 -13    0.09    0.16 
   4  -9  13    0.06    0.14 
  -5   9 -13    0.15    0.17 
  -6   9 -13    0.09    0.16 
  -7   9 -13   -0.03    0.14 
  -8   9 -13   -0.16    0.18 
  -9   9 -13    0.18    0.19 
  -9  -8  13    0.08    0.17 
  -9  -8  13   -0.03    0.25 
  -8  -8  13   -0.04    0.15 
  -8  -8  13   -0.02    0.24 
  -7  -8  13    0.11    0.24 
  -7  -8  13    0.11    0.16 
  -6  -8  13   -0.29    0.15 
  -6  -8  13    0.11    0.22 
  -5  -8  13    0.48    0.24 
  -5  -8  13    0.60    0.18 
  -4  -8  13   -0.06    0.15 
  -4  -8  13   -0.09    0.18 
  -3  -8  13    0.14    0.15 
  -2  -8  13    0.13    0.16 
   1   8 -13    0.64    0.21 
  -1  -8  13    0.71    0.19 
   0   8 -13    1.16    0.23 
   0  -8  13    1.12    0.21 
  -1   8 -13    0.49    0.19 
   1  -8  13    0.69    0.19 
  -2   8 -13    0.16    0.15 
   2  -8  13   -0.19    0.14 
  -3   8 -13    0.16    0.16 
   3  -8  13   -0.07    0.14 
  -4   8 -13    0.14    0.16 
   4  -8  13   -0.05    0.13 
  -5   8 -13    0.40    0.19 
  -6   8 -13    0.16    0.18 
  -7   8 -13    0.26    0.17 
  -8   8 -13   -0.11    0.17 
  -9   8 -13    0.11    0.19 
 -10  -7  13    0.61    0.29 
 -10  -7  13    0.12    0.18 
  -9  -7  13    1.01    0.31 
  -9  -7  13    0.35    0.20 
  -8  -7  13    0.11    0.17 
  -8  -7  13    0.16    0.23 
  -7  -7  13    0.22    0.23 
  -7  -7  13    0.11    0.17 
  -6  -7  13    0.17    0.23 
  -6  -7  13    0.18    0.16 
  -5  -7  13    0.45    0.22 
  -5  -7  13    0.30    0.17 
  -4  -7  13    0.10    0.15 
  -4  -7  13    0.12    0.20 
  -3  -7  13    1.01    0.19 
  -2  -7  13    1.03    0.19 
   1   7 -13    0.14    0.16 
  -1  -7  13    0.08    0.16 
   0   7 -13   -0.12    0.17 
   0  -7  13    0.26    0.16 
  -1   7 -13    0.05    0.15 
   1  -7  13   -0.01    0.14 
  -2   7 -13    0.68    0.20 
   2  -7  13    0.66    0.18 
  -3   7 -13    0.75    0.20 
   3  -7  13    0.83    0.18 
  -4   7 -13    0.19    0.15 
   4  -7  13    0.11    0.14 
  -5   7 -13    0.18    0.16 
   5  -7  13    0.23    0.15 
  -6   7 -13    0.09    0.16 
  -7   7 -13    0.08    0.15 
  -8   7 -13    0.05    0.20 
  -9   7 -13    0.50    0.23 
 -10   7 -13    0.29    0.20 
 -10  -6  13    0.61    0.29 
 -10  -6  13    0.34    0.19 
  -9  -6  13    0.47    0.27 
  -9  -6  13   -0.14    0.16 
  -8  -6  13    0.32    0.26 
  -8  -6  13   -0.05    0.17 
  -7  -6  13    0.29    0.23 
  -7  -6  13    0.02    0.16 
  -6  -6  13    0.16    0.23 
  -6  -6  13    0.20    0.17 
  -5  -6  13    0.76    0.18 
  -5  -6  13    1.14    0.26 
  -4  -6  13   -0.04    0.21 
  -4  -6  13    0.13    0.15 
  -3  -6  13    0.15    0.20 
  -3  -6  13    0.17    0.14 
  -2  -6  13    2.00    0.20 
   1   6 -13    0.24    0.14 
  -1  -6  13    0.37    0.16 
   0   6 -13    3.04    0.29 
   0  -6  13    3.15    0.24 
  -1   6 -13    0.41    0.16 
   1  -6  13    0.40    0.15 
  -2   6 -13    1.69    0.22 
   2  -6  13    1.74    0.19 
  -3   6 -13   -0.04    0.13 
   3  -6  13   -0.14    0.14 
  -4   6 -13   -0.03    0.13 
   4  -6  13   -0.03    0.13 
  -5   6 -13    0.42    0.18 
   5  -6  13    0.59    0.16 
  -6   6 -13    0.23    0.16 
  -7   6 -13   -0.02    0.15 
  -8   6 -13   -0.09    0.18 
  -9   6 -13    0.15    0.22 
 -10   6 -13    0.38    0.23 
 -10  -5  13    0.43    0.19 
 -10  -5  13    1.01    0.31 
  -9  -5  13    0.33    0.19 
  -8  -5  13    0.12    0.18 
  -7  -5  13    0.08    0.16 
  -6  -5  13    0.50    0.19 
  -5  -5  13   -0.12    0.13 
  -5  -5  13    0.17    0.19 
  -4  -5  13    0.83    0.25 
  -4  -5  13    0.45    0.15 
  -3  -5  13    2.12    0.20 
  -3  -5  13    1.89    0.26 
   2   5 -13    2.48    0.24 
  -2  -5  13    2.56    0.21 
   1   5 -13    1.91    0.20 
   0  -5  13   -0.03    0.13 
   1  -5  13    5.58    0.31 
   1  -5  13    5.11    0.37 
   2  -5  13    2.43    0.25 
   2  -5  13    2.39    0.21 
   3  -5  13    1.69    0.23 
   3  -5  13    1.86    0.20 
   4  -5  13    0.41    0.18 
   4  -5  13    0.52    0.16 
   5  -5  13   -0.09    0.16 
   5  -5  13   -0.06    0.13 
   6  -5  13    0.29    0.22 
   7  -5  13   -0.06    0.22 
  -9   5 -13    0.19    0.21 
 -10   5 -13    0.08    0.21 
 -10  -4  13    0.43    0.19 
  -9  -4  13    0.14    0.17 
  -8  -4  13    0.00    0.17 
  -7  -4  13   -0.07    0.15 
  -6  -4  13    1.05    0.20 
  -5  -4  13   -0.03    0.13 
  -4  -4  13    1.18    0.18 
  -3  -4  13    0.15    0.14 
  -2  -4  13    0.51    0.20 
  -2  -4  13    0.48    0.15 
  -1  -4  13    0.25    0.13 
  -1  -4  13    0.28    0.14 
   0  -4  13    1.35    0.19 
   0  -4  13    1.67    0.19 
   1  -4  13    0.46    0.15 
   1  -4  13    0.22    0.16 
   2  -4  13    0.58    0.18 
   2  -4  13    0.38    0.15 
   3  -4  13    0.00    0.13 
   3  -4  13    0.19    0.17 
   4  -4  13    0.84    0.22 
   4  -4  13    0.96    0.17 
   5  -4  13    0.00    0.13 
   5  -4  13    0.02    0.17 
   6  -4  13    0.89    0.27 
   7  -4  13   -0.09    0.21 
   8  -4  13    0.13    0.23 
   9  -4  13    0.25    0.23 
 -10   4 -13    0.06    0.21 
 -11  -3  13    0.27    0.17 
 -10  -3  13   -0.01    0.17 
  -9  -3  13    0.21    0.17 
  -8  -3  13   -0.04    0.17 
  -7  -3  13    0.11    0.16 
  -6  -3  13   -0.15    0.13 
  -5  -3  13    0.64    0.18 
  -4  -3  13    1.47    0.20 
  -3  -3  13    0.27    0.13 
  -2  -3  13    0.29    0.13 
  -2  -3  13    0.28    0.13 
  -1  -3  13    3.17    0.25 
  -1  -3  13    2.80    0.21 
   0  -3  13   -0.04    0.11 
   0  -3  13   -0.01    0.13 
   1  -3  13    2.78    0.21 
   1  -3  13    2.76    0.26 
   2  -3  13    0.02    0.12 
   2  -3  13    0.18    0.15 
   3  -3  13    0.27    0.14 
   3  -3  13    0.21    0.17 
   4  -3  13    0.95    0.18 
   4  -3  13    1.18    0.24 
   5  -3  13    0.57    0.16 
   5  -3  13    0.52    0.23 
   6  -3  13   -0.09    0.20 
   7  -3  13    0.15    0.24 
   8  -3  13    0.10    0.25 
   9  -3  13    0.27    0.26 
  10  -3  13    0.43    0.26 
  11  -3  13    0.48    0.25 
 -11  -2  13    0.34    0.19 
 -10  -2  13    0.41    0.19 
  -9  -2  13    0.21    0.18 
  -8  -2  13    1.60    0.25 
  -7  -2  13    0.43    0.19 
  -6  -2  13    0.18    0.15 
  -5  -2  13    0.55    0.17 
  -4  -2  13    0.18    0.13 
  -3  -2  13    2.04    0.18 
  -2  -2  13    0.38    0.12 
  -2  -2  13    0.26    0.13 
  -1  -2  13    0.90    0.17 
  -1  -2  13    0.82    0.15 
   0  -2  13    1.09    0.19 
   0  -2  13    0.88    0.15 
   1  -2  13    0.76    0.16 
   1  -2  13    0.66    0.17 
   2  -2  13    0.18    0.14 
   2  -2  13    0.27    0.16 
   3  -2  13    1.59    0.22 
   3  -2  13    1.79    0.18 
   4  -2  13   -0.16    0.12 
   4  -2  13    0.12    0.17 
   5  -2  13    0.45    0.15 
   5  -2  13    0.62    0.23 
   6  -2  13    0.18    0.23 
   7  -2  13    0.37    0.25 
   8  -2  13    0.95    0.30 
   9  -2  13    0.02    0.24 
  10  -2  13    0.15    0.24 
  11  -2  13    0.54    0.27 
 -11  -1  13    0.19    0.19 
 -10  -1  13   -0.07    0.18 
  -9  -1  13    0.25    0.19 
  -8  -1  13    0.53    0.19 
  -7  -1  13    0.12    0.16 
  -6  -1  13   -0.11    0.14 
  -5  -1  13    0.37    0.16 
  -4  -1  13    0.00    0.11 
  -3  -1  13    1.21    0.17 
  -2  -1  13   -0.05    0.10 
  -2  -1  13   -0.02    0.12 
  -1  -1  13    0.15    0.11 
  -1  -1  13   -0.09    0.12 
   0  -1  13   -0.03    0.12 
   0  -1  13   -0.07    0.12 
   1  -1  13    0.03    0.13 
   1  -1  13   -0.05    0.13 
   2  -1  13   -0.10    0.14 
   2  -1  13   -0.18    0.12 
   3  -1  13    1.16    0.22 
   3  -1  13    0.77    0.17 
   4  -1  13   -0.11    0.15 
   4  -1  13   -0.20    0.13 
   5  -1  13    0.09    0.14 
   5  -1  13    0.21    0.19 
   6  -1  13    0.37    0.24 
   7  -1  13    0.30    0.24 
   8  -1  13    0.19    0.25 
   9  -1  13    0.02    0.23 
  10  -1  13    0.12    0.23 
  11  -1  13    0.39    0.28 
 -11   0  13    0.35    0.19 
 -10   0  13   -0.02    0.17 
  -9   0  13    0.14    0.17 
  -8   0  13    0.15    0.17 
  -7   0  13    0.05    0.16 
  -6   0  13   -0.10    0.14 
  -5   0  13    0.06    0.12 
  -4   0  13    0.08    0.11 
  -3   0  13   -0.11    0.10 
  -3   0  13    0.02    0.11 
  -2   0  13    0.02    0.11 
  -2   0  13   -0.05    0.10 
  -1   0  13    0.03    0.12 
  -1   0  13   -0.07    0.11 
   0   0  13   -0.10    0.11 
   0   0  13   -0.03    0.12 
   1   0  13    0.02    0.12 
   1   0  13   -0.13    0.12 
   2   0  13    0.04    0.13 
   2   0  13    0.05    0.13 
   3   0  13   -0.17    0.13 
   3   0  13   -0.03    0.13 
   4   0  13   -0.04    0.15 
   4   0  13   -0.14    0.13 
   5   0  13   -0.04    0.17 
   5   0  13   -0.12    0.13 
   6   0  13    0.14    0.22 
   7   0  13    0.23    0.24 
   8   0  13    0.15    0.25 
   9   0  13   -0.06    0.25 
  10   0  13    0.49    0.25 
  11   0  13    0.52    0.27 
 -11   1  13    0.76    0.20 
 -10   1  13    0.37    0.18 
  -9   1  13    0.16    0.18 
  -8   1  13    0.42    0.18 
  -7   1  13    0.21    0.16 
  -6   1  13    0.03    0.13 
  -5   1  13    0.51    0.15 
  -4   1  13   -0.06    0.10 
  -3   1  13    1.36    0.17 
  -3   1  13    1.37    0.18 
  -2   1  13    0.00    0.11 
  -2   1  13    0.06    0.11 
  -1   1  13   -0.11    0.12 
  -1   1  13   -0.07    0.11 
   0   1  13   -0.09    0.11 
   0   1  13   -0.07    0.11 
   1   1  13   -0.07    0.12 
   1   1  13   -0.04    0.12 
   2   1  13    0.00    0.12 
   2   1  13   -0.02    0.12 
   3   1  13    1.17    0.17 
   3   1  13    1.08    0.22 
   4   1  13    0.00    0.15 
   4   1  13   -0.10    0.13 
   5   1  13    0.40    0.20 
   5   1  13    0.15    0.14 
   6   1  13    0.35    0.23 
   7   1  13    0.21    0.23 
   8   1  13    0.32    0.27 
   9   1  13    0.25    0.26 
  10   1  13    0.67    0.25 
  11   1  13    0.68    0.28 
 -11   2  13    0.38    0.17 
 -10   2  13    0.11    0.17 
  -9   2  13    0.18    0.18 
  -8   2  13    1.42    0.23 
  -7   2  13    0.51    0.17 
  -6   2  13    0.32    0.15 
  -5   2  13    0.82    0.16 
  -4   2  13    0.10    0.12 
  -3   2  13    2.08    0.18 
  -3   2  13    1.94    0.21 
  -2   2  13    0.23    0.12 
  -2   2  13    0.27    0.15 
  -1   2  13    0.61    0.15 
  -1   2  13    0.71    0.18 
   0   2  13    0.83    0.19 
   0   2  13    0.74    0.15 
   1   2  13    0.71    0.15 
   1   2  13    0.82    0.20 
   2   2  13    0.17    0.14 
   2   2  13    0.25    0.15 
   3   2  13    1.88    0.26 
   3   2  13    1.74    0.20 
   4   2  13    0.11    0.17 
   4   2  13    0.09    0.09 
   5   2  13    0.34    0.12 
   5   2  13    0.64    0.22 
   6   2  13    0.46    0.22 
   7   2  13    0.50    0.26 
   8   2  13    0.82    0.29 
   9   2  13    0.32    0.28 
  10   2  13    0.57    0.25 
  11   2  13    0.72    0.27 
 -10   3  13    0.06    0.19 
  -9   3  13    0.17    0.17 
  -8   3  13    0.39    0.17 
  -7   3  13    0.11    0.14 
  -6   3  13   -0.11    0.11 
  -5   3  13    0.86    0.16 
  -4   3  13    1.66    0.19 
  -3   3  13    0.30    0.15 
  -3   3  13    0.43    0.13 
  -2   3  13    0.12    0.16 
  -2   3  13    0.15    0.12 
  -1   3  13    2.79    0.22 
  -1   3  13    2.74    0.26 
   0   3  13    0.11    0.15 
   0   3  13   -0.10    0.12 
   1   3  13    2.41    0.20 
   1   3  13    2.26    0.26 
   2   3  13    0.20    0.13 
   2   3  13    0.14    0.15 
   3   3  13    0.07    0.09 
   3   3  13    0.18    0.18 
   4   3  13    0.92    0.16 
   4   3  13    1.26    0.24 
   5   3  13    0.46    0.22 
   6   3  13    0.03    0.17 
   7   3  13   -0.14    0.20 
   8   3  13    0.43    0.28 
   9   3  13    0.24    0.26 
  10   3  13    0.44    0.27 
  11   3  13    0.56    0.26 
 -10   4  13    0.06    0.18 
  -9   4  13   -0.07    0.16 
  -8   4  13    0.14    0.16 
  -7   4  13    0.10    0.15 
  -6   4  13    1.08    0.19 
  -5   4  13   -0.06    0.11 
  -4   4  13    1.42    0.22 
  -4   4  13    1.31    0.18 
  -3   4  13    0.12    0.12 
  -3   4  13    0.03    0.16 
  -2   4  13    0.51    0.14 
  -2   4  13    0.62    0.20 
  -1   4  13    0.36    0.18 
  -1   4  13    0.23    0.14 
   0   4  13    1.56    0.19 
   0   4  13    1.95    0.27 
   1   4  13    0.39    0.14 
   1   4  13    0.18    0.17 
   2   4  13    0.41    0.19 
   2   4  13    0.21    0.11 
   3   4  13   -0.04    0.13 
   3   4  13    0.12    0.18 
   4   4  13    1.02    0.24 
   5   4  13    0.03    0.18 
   6   4  13    0.88    0.25 
   7   4  13    0.24    0.23 
   8   4  13    0.24    0.24 
   9   4  13    0.14    0.26 
  10   4  13    0.49    0.27 
  11   4  13    0.74    0.30 
 -10   5  13    0.30    0.18 
  -9   5  13    0.33    0.18 
  -8   5  13   -0.06    0.15 
  -7   5  13    0.06    0.15 
  -6   5  13    0.50    0.16 
  -5   5  13    0.04    0.12 
  -4   5  13    0.58    0.14 
  -4   5  13    0.66    0.20 
  -3   5  13    2.19    0.19 
  -3   5  13    2.45    0.26 
  -2   5  13    2.65    0.27 
  -2   5  13    2.36    0.20 
  -1   5  13    5.65    0.31 
  -1   5  13    5.62    0.40 
   0   5  13   -0.14    0.14 
   0   5  13    0.15    0.16 
   1   5  13    5.35    0.40 
   2   5  13    1.87    0.19 
   2   5  13    2.35    0.27 
   3   5  13    1.86    0.26 
   4   5  13    0.48    0.22 
   5   5  13   -0.03    0.18 
   6   5  13    0.57    0.24 
   7   5  13    0.31    0.23 
   8   5  13    0.29    0.25 
   9   5  13    0.86    0.26 
  10   5  13    0.80    0.29 
 -10   6  13    0.44    0.19 
  -9   6  13    0.17    0.17 
  -8   6  13   -0.05    0.15 
  -7   6  13    0.11    0.15 
  -6   6  13    0.43    0.16 
  -5   6  13    0.94    0.18 
  -4   6  13   -0.05    0.17 
  -4   6  13    0.01    0.11 
  -3   6  13    0.21    0.12 
  -3   6  13    0.08    0.18 
  -2   6  13    1.86    0.18 
  -2   6  13    2.43    0.25 
  -1   6  13    0.53    0.20 
  -1   6  13    0.53    0.15 
   0   6  13    2.45    0.21 
   0   6  13    3.43    0.30 
   1   6  13    0.23    0.14 
   1   6  13    0.42    0.21 
   2   6  13    2.25    0.27 
   3   6  13    0.21    0.21 
   4   6  13   -0.14    0.17 
   5   6  13    1.03    0.26 
   6   6  13    0.18    0.24 
   7   6  13    0.11    0.22 
   8   6  13    0.24    0.26 
   9   6  13    0.58    0.25 
  10   6  13    0.78    0.28 
 -10   7  13    0.32    0.17 
  -9   7  13    0.36    0.18 
  -8   7  13    0.22    0.16 
  -7   7  13    0.25    0.15 
  -6   7  13    0.19    0.14 
  -5   7  13    0.23    0.14 
  -4   7  13    0.14    0.13 
  -4   7  13    0.26    0.16 
  -3   7  13    1.22    0.22 
  -3   7  13    0.95    0.16 
  -2   7  13    1.37    0.24 
  -2   7  13    0.90    0.16 
  -1   7  13    0.10    0.13 
  -1   7  13    0.22    0.19 
   0   7  13   -0.10    0.13 
   0   7  13    0.02    0.21 
   1   7  13   -0.03    0.21 
   2   7  13    1.12    0.27 
   4   7  13    0.16    0.21 
   5   7  13    0.30    0.24 
   6   7  13    0.23    0.24 
   7   7  13    0.19    0.24 
   8   7  13    0.24    0.25 
   9   7  13    0.97    0.26 
  10   7  13    0.90    0.29 
  -9   8  13    0.24    0.17 
  -8   8  13   -0.06    0.14 
  -7   8  13    0.07    0.15 
  -6   8  13    0.01    0.14 
  -5   8  13    0.28    0.15 
  -5   8  13    0.59    0.18 
  -4   8  13   -0.05    0.16 
  -4   8  13   -0.07    0.12 
  -3   8  13    0.18    0.11 
  -3   8  13    0.18    0.17 
  -2   8  13    0.06    0.17 
  -2   8  13    0.11    0.11 
  -1   8  13    1.01    0.25 
  -1   8  13    0.45    0.14 
   0   8  13    1.51    0.29 
   1   8  13    0.56    0.27 
   2   8  13   -0.01    0.20 
   3   8  13    0.16    0.21 
   4   8  13   -0.21    0.20 
   5   8  13    0.48    0.26 
   6   8  13   -0.05    0.23 
   7   8  13    0.26    0.25 
   8   8  13    0.13    0.22 
   9   8  13    0.61    0.26 
  10   8  13    0.80    0.26 
  -9   9  13    0.03    0.16 
  -8   9  13    0.06    0.15 
  -7   9  13    0.41    0.17 
  -6   9  13    0.64    0.17 
  -5   9  13    0.43    0.16 
  -5   9  13    0.71    0.20 
  -4   9  13   -0.11    0.14 
  -4   9  13   -0.04    0.19 
  -3   9  13    0.12    0.19 
  -3   9  13    0.03    0.12 
  -2   9  13    0.24    0.20 
  -2   9  13    0.30    0.12 
  -1   9  13    1.01    0.27 
   0   9  13    0.39    0.24 
   1   9  13    1.18    0.30 
   2   9  13    0.24    0.24 
   3   9  13   -0.07    0.23 
   4   9  13    0.14    0.24 
   5   9  13    0.61    0.28 
   6   9  13    0.36    0.26 
   7   9  13    0.14    0.26 
   8   9  13    0.82    0.27 
   9   9  13    0.85    0.27 
  -8  10  13    0.17    0.17 
  -7  10  13    0.24    0.16 
  -6  10  13    0.08    0.15 
  -5  10  13    0.32    0.19 
  -5  10  13    0.08    0.15 
  -4  10  13    0.55    0.23 
  -4  10  13    0.53    0.16 
  -3  10  13   -0.15    0.20 
  -3  10  13   -0.04    0.11 
  -2  10  13   -0.05    0.19 
  -1  10  13    1.55    0.29 
   0  10  13    0.52    0.24 
   1  10  13    1.47    0.31 
   2  10  13    0.03    0.23 
   3  10  13    0.13    0.24 
   4  10  13    0.73    0.30 
   5  10  13    0.34    0.25 
  -6 -10 -13   -0.19    0.28 
   6  10  13    0.17    0.25 
   7  10  13    0.51    0.27 
   8  10  13    0.52    0.26 
   9  10  13    0.85    0.27 
  -8  11  13    0.31    0.17 
  -7  11  13    0.45    0.17 
  -6  11  13    0.28    0.16 
  -5  11  13    0.33    0.16 
  -5  11  13    0.88    0.23 
  -4  11  13    0.43    0.22 
  -4  11  13    0.47    0.15 
  -3  11  13    0.32    0.22 
  -2  11  13    0.11    0.21 
  -1  11  13    0.20    0.22 
   0  11  13    0.01    0.22 
   1  11  13    0.40    0.26 
   2  11  13   -0.13    0.23 
   3  11  13    0.25    0.26 
   4  11  13    0.50    0.27 
   5  11  13    0.34    0.26 
   6  11  13    0.53    0.28 
   7  11  13    0.57    0.26 
   8  11  13    0.60    0.29 
  -7  12  13    0.27    0.16 
  -6  12  13    0.30    0.16 
  -5  12  13    0.37    0.20 
  -5  12  13   -0.01    0.15 
  -4  12  13    0.26    0.20 
  -3  12  13    0.53    0.24 
  -2  12  13    0.78    0.26 
  -1  12  13    0.18    0.21 
   0  12  13    1.46    0.31 
   1  12  13    0.04    0.23 
   2  12  13    0.84    0.29 
   3  12  13    0.36    0.28 
   4  12  13    0.50    0.27 
   5  12  13    0.73    0.27 
   6  12  13    0.78    0.27 
   7  12  13    0.55    0.27 
  -5  13  13    0.63    0.21 
  -4  13  13    0.44    0.20 
  -3  13  13    0.39    0.21 
  -2  13  13    0.02    0.20 
  -1  13  13    0.65    0.24 
   0  13  13    0.04    0.22 
   1  13  13    0.41    0.27 
   2  13  13    0.33    0.25 
   3  13  13    0.25    0.29 
   4  13  13    0.35    0.25 
   5  13  13    0.63    0.29 
   6  13  13    0.45    0.27 
  -5  14  13    0.44    0.20 
  -4  14  13    0.45    0.21 
  -3  14  13    0.25    0.20 
  -2  14  13    0.05    0.20 
  -1  14  13    0.28    0.21 
   0  14  13    0.77    0.27 
   1  14  13    0.43    0.25 
   2  14  13    0.53    0.27 
   3  14  13    0.54    0.25 
   4  14  13    1.09    0.28 
   5  14  13    0.74    0.26 
  -3  15  13    0.45    0.22 
  -2  15  13    0.30    0.22 
  -1  15  13    0.21    0.19 
   0  15  13    0.21    0.22 
   1  15  13    0.48    0.23 
   2  15  13    0.33    0.24 
   3  15  13    0.53    0.26 
   0  16  13    0.44    0.21 
  -2 -15  14    0.35    0.19 
  -1 -15  14    0.24    0.19 
   0 -15  14    0.21    0.19 
   1 -15  14    0.32    0.18 
  -2  15 -14    0.53    0.24 
   2 -15  14    0.22    0.19 
  -4 -14  14    0.73    0.19 
  -3 -14  14    0.91    0.22 
  -2 -14  14    0.35    0.19 
  -1 -14  14    0.18    0.18 
   0 -14  14    0.30    0.18 
  -1  14 -14    0.37    0.21 
   1 -14  14    0.20    0.17 
  -2  14 -14    0.57    0.23 
   2 -14  14    0.46    0.20 
  -3  14 -14    0.60    0.22 
  -4  14 -14    0.20    0.20 
  -5 -13  14    0.56    0.19 
  -4 -13  14    0.65    0.19 
  -3 -13  14    0.47    0.20 
  -2 -13  14    0.16    0.18 
  -1 -13  14    0.30    0.19 
   0 -13  14    0.29    0.18 
  -1  13 -14    0.53    0.23 
   1 -13  14    0.16    0.18 
  -2  13 -14    0.17    0.21 
   2 -13  14    0.05    0.17 
  -3  13 -14    0.30    0.21 
   3 -13  14    0.39    0.18 
  -4  13 -14    0.58    0.21 
  -5  13 -14    0.13    0.18 
  -6 -12  14    0.23    0.18 
  -5 -12  14    0.10    0.16 
  -4 -12  14    0.02    0.18 
  -3 -12  14    0.51    0.18 
  -2 -12  14    0.31    0.19 
  -1 -12  14   -0.04    0.18 
   0  12 -14    0.60    0.21 
   0 -12  14    0.39    0.19 
  -1  12 -14    0.19    0.20 
   1 -12  14    0.02    0.17 
  -2  12 -14    0.15    0.19 
   2 -12  14    0.09    0.17 
  -3  12 -14    0.33    0.19 
   3 -12  14    0.22    0.19 
  -4  12 -14    0.09    0.17 
  -5  12 -14    0.25    0.19 
  -6  12 -14    0.28    0.18 
  -7 -11  14    0.24    0.17 
  -6 -11  14    0.17    0.17 
  -5 -11  14    0.29    0.19 
  -4 -11  14    0.33    0.18 
  -3 -11  14   -0.05    0.17 
  -2 -11  14    0.04    0.16 
  -1 -11  14    0.00    0.17 
   0  11 -14    0.23    0.18 
   0 -11  14    0.07    0.17 
  -1  11 -14    0.23    0.19 
   1 -11  14    0.12    0.18 
  -2  11 -14    0.05    0.18 
   2 -11  14    0.03    0.16 
  -3  11 -14    0.08    0.18 
   3 -11  14   -0.17    0.15 
  -4  11 -14   -0.03    0.17 
   4 -11  14    0.01    0.17 
  -5  11 -14    0.26    0.18 
  -6  11 -14    0.25    0.16 
  -7  11 -14    0.13    0.15 
  -8 -10  14    0.02    0.25 
  -8 -10  14    0.12    0.17 
  -7 -10  14    0.35    0.17 
  -6 -10  14    0.48    0.18 
  -5 -10  14    0.49    0.18 
  -4 -10  14    0.29    0.18 
  -3 -10  14    0.38    0.19 
  -2 -10  14    0.36    0.18 
  -1 -10  14    0.00    0.16 
   0  10 -14   -0.12    0.17 
   0 -10  14   -0.02    0.17 
  -1  10 -14    0.17    0.18 
   1 -10  14   -0.07    0.16 
  -2  10 -14    0.50    0.21 
   2 -10  14    0.38    0.18 
  -3  10 -14    0.14    0.19 
   3 -10  14    0.10    0.17 
  -4  10 -14   -0.12    0.17 
   4 -10  14    0.09    0.16 
  -5  10 -14    0.14    0.18 
  -6  10 -14    0.29    0.18 
  -7  10 -14    0.25    0.17 
  -8  10 -14    0.28    0.17 
  -8  -9  14    0.35    0.18 
  -8  -9  14    0.60    0.28 
  -7  -9  14    0.25    0.24 
  -7  -9  14    0.18    0.17 
  -6  -9  14    0.09    0.16 
  -5  -9  14   -0.01    0.16 
  -4  -9  14   -0.17    0.15 
  -3  -9  14   -0.05    0.16 
  -2  -9  14    0.05    0.16 
  -1  -9  14    1.06    0.21 
   0   9 -14   -0.07    0.19 
   0  -9  14   -0.14    0.17 
  -1   9 -14    0.60    0.21 
   1  -9  14    0.36    0.20 
  -2   9 -14   -0.02    0.15 
   2  -9  14   -0.06    0.16 
  -3   9 -14    0.01    0.16 
   3  -9  14   -0.04    0.15 
  -4   9 -14    0.07    0.17 
   4  -9  14   -0.10    0.14 
  -5   9 -14    0.20    0.18 
  -6   9 -14    0.31    0.17 
  -7   9 -14    0.23    0.16 
  -8   9 -14    0.49    0.20 
  -9  -8  14    0.17    0.27 
  -9  -8  14    0.17    0.16 
  -8  -8  14   -0.11    0.16 
  -8  -8  14    0.14    0.25 
  -7  -8  14    0.22    0.25 
  -7  -8  14    0.01    0.16 
  -6  -8  14    0.37    0.24 
  -6  -8  14    0.00    0.16 
  -5  -8  14    0.71    0.20 
  -4  -8  14   -0.03    0.15 
  -3  -8  14   -0.02    0.15 
  -2  -8  14    0.06    0.17 
   1   8 -14   -0.04    0.17 
  -1  -8  14    0.27    0.18 
   0   8 -14   12.12    0.68 
   0  -8  14   11.04    0.54 
  -1   8 -14    0.07    0.17 
   1  -8  14   -0.24    0.16 
  -2   8 -14    0.10    0.17 
   2  -8  14    0.11    0.16 
  -3   8 -14   -0.07    0.15 
   3  -8  14   -0.05    0.14 
  -4   8 -14    0.16    0.17 
   4  -8  14    0.11    0.15 
  -5   8 -14    0.52    0.21 
   5  -8  14    0.67    0.18 
  -6   8 -14    0.02    0.15 
  -7   8 -14    0.08    0.18 
  -8   8 -14    0.11    0.16 
  -9   8 -14    0.33    0.19 
  -9  -7  14    0.09    0.17 
  -9  -7  14    0.33    0.26 
  -8  -7  14    0.12    0.17 
  -8  -7  14    0.39    0.25 
  -7  -7  14    0.01    0.22 
  -7  -7  14    0.07    0.16 
  -6  -7  14    0.12    0.16 
  -6  -7  14   -0.13    0.20 
  -5  -7  14   -0.01    0.20 
  -5  -7  14   -0.09    0.15 
  -4  -7  14    0.01    0.15 
  -3  -7  14    0.36    0.16 
  -2  -7  14    1.23    0.20 
   1   7 -14    0.15    0.15 
  -1  -7  14    0.28    0.17 
   0   7 -14    0.12    0.17 
   0  -7  14    0.19    0.17 
  -1   7 -14    0.39    0.17 
   1  -7  14    0.36    0.17 
  -2   7 -14    0.82    0.21 
   2  -7  14    0.77    0.18 
  -3   7 -14    0.30    0.17 
   3  -7  14    0.28    0.15 
  -4   7 -14    0.11    0.14 
   4  -7  14   -0.25    0.13 
  -5   7 -14   -0.04    0.15 
   5  -7  14    0.09    0.15 
  -6   7 -14   -0.08    0.15 
  -7   7 -14    0.05    0.14 
  -8   7 -14    0.27    0.21 
  -9   7 -14    0.45    0.22 
 -10  -6  14    1.00    0.32 
  -9  -6  14    0.58    0.28 
  -9  -6  14   -0.09    0.17 
  -8  -6  14    0.40    0.24 
  -8  -6  14    0.14    0.19 
  -7  -6  14    1.06    0.29 
  -7  -6  14    0.55    0.19 
  -6  -6  14   -0.08    0.15 
  -6  -6  14   -0.14    0.22 
  -5  -6  14    0.54    0.24 
  -5  -6  14    0.81    0.19 
  -4  -6  14    0.43    0.17 
  -3  -6  14    0.09    0.15 
  -2  -6  14    0.12    0.15 
   1   6 -14    0.92    0.19 
   0   6 -14    3.21    0.31 
   0  -6  14    3.21    0.25 
  -1   6 -14    1.92    0.23 
   1  -6  14    1.91    0.20 
  -2   6 -14    0.32    0.16 
   2  -6  14    0.33    0.16 
  -3   6 -14    0.10    0.15 
   3  -6  14    0.08    0.14 
  -4   6 -14    0.42    0.18 
   4  -6  14    0.31    0.15 
  -5   6 -14    0.01    0.14 
   5  -6  14    0.35    0.16 
  -6   6 -14    0.01    0.16 
  -7   6 -14    0.36    0.18 
  -8   6 -14    0.34    0.22 
  -9   6 -14    0.17    0.22 
 -10   6 -14    0.36    0.22 
 -10  -5  14    0.79    0.30 
 -10  -5  14    0.40    0.18 
  -9  -5  14    0.53    0.21 
  -9  -5  14    0.72    0.28 
  -8  -5  14    0.96    0.22 
  -7  -5  14    0.18    0.19 
  -6  -5  14    0.18    0.17 
  -5  -5  14    0.17    0.16 
  -5  -5  14    0.28    0.21 
  -4  -5  14    0.16    0.15 
  -4  -5  14    0.20    0.22 
  -3  -5  14    0.27    0.15 
  -2  -5  14    5.84    0.33 
   1   5 -14    0.08    0.11 
  -1  -5  14   -0.07    0.13 
   0  -5  14    0.13    0.13 
   1  -5  14    0.17    0.15 
   1  -5  14    0.01    0.13 
   2  -5  14    5.65    0.40 
   2  -5  14    5.69    0.33 
   3  -5  14    0.06    0.17 
   3  -5  14    0.00    0.14 
   4  -5  14    0.34    0.16 
   4  -5  14    0.15    0.19 
   5  -5  14    0.09    0.14 
   5  -5  14    0.07    0.20 
   6  -5  14    0.35    0.22 
   7  -5  14    0.22    0.23 
  -9   5 -14    0.14    0.20 
 -10   5 -14    0.37    0.22 
 -10  -4  14    0.07    0.19 
  -9  -4  14    0.25    0.18 
  -8  -4  14    0.79    0.21 
  -7  -4  14    0.82    0.21 
  -6  -4  14    0.04    0.15 
  -5  -4  14    0.75    0.18 
  -4  -4  14    0.18    0.14 
  -3  -4  14   -0.06    0.13 
  -2  -4  14    0.07    0.13 
  -1  -4  14    0.11    0.13 
  -1  -4  14    0.42    0.16 
   0  -4  14    5.70    0.38 
   0  -4  14    5.42    0.32 
   1  -4  14    0.22    0.15 
   1  -4  14    0.14    0.14 
   2  -4  14    0.05    0.15 
   2  -4  14    0.02    0.14 
   3  -4  14   -0.04    0.13 
   3  -4  14   -0.06    0.16 
   4  -4  14    0.23    0.15 
   4  -4  14    0.05    0.20 
   5  -4  14    0.56    0.17 
   5  -4  14    0.51    0.23 
   6  -4  14    0.15    0.23 
   7  -4  14    0.22    0.26 
   8  -4  14    0.25    0.24 
   9  -4  14    0.20    0.22 
 -10  -3  14    0.03    0.18 
  -9  -3  14   -0.06    0.18 
  -8  -3  14    1.08    0.24 
  -7  -3  14    0.69    0.20 
  -6  -3  14    0.13    0.16 
  -5  -3  14   -0.02    0.15 
  -4  -3  14    0.01    0.14 
  -3  -3  14    1.65    0.20 
  -2  -3  14    1.70    0.20 
  -2  -3  14    1.52    0.19 
  -1  -3  14    0.43    0.14 
  -1  -3  14    0.23    0.15 
   0  -3  14   -0.12    0.12 
   0  -3  14   -0.13    0.14 
   1  -3  14    0.25    0.15 
   1  -3  14    0.28    0.16 
   2  -3  14    1.68    0.25 
   2  -3  14    1.56    0.20 
   3  -3  14    1.83    0.22 
   3  -3  14    1.60    0.27 
   4  -3  14   -0.07    0.18 
   4  -3  14   -0.12    0.13 
   5  -3  14    0.06    0.14 
   5  -3  14    0.09    0.20 
   6  -3  14   -0.05    0.21 
   7  -3  14    0.08    0.26 
   8  -3  14    0.60    0.27 
   9  -3  14   -0.02    0.24 
  10  -3  14    0.25    0.25 
 -10  -2  14    0.23    0.20 
  -9  -2  14   -0.11    0.17 
  -8  -2  14    0.43    0.19 
  -7  -2  14    1.02    0.22 
  -6  -2  14    1.40    0.22 
  -5  -2  14    0.05    0.15 
  -4  -2  14    0.20    0.14 
  -3  -2  14    0.58    0.15 
  -2  -2  14   -0.08    0.13 
  -2  -2  14    0.02    0.12 
  -1  -2  14   -0.06    0.13 
  -1  -2  14   -0.07    0.13 
   0  -2  14    0.28    0.18 
   0  -2  14   -0.09    0.11 
   1  -2  14   -0.15    0.13 
   1  -2  14    0.00    0.16 
   2  -2  14   -0.02    0.15 
   2  -2  14   -0.01    0.14 
   3  -2  14    0.36    0.15 
   3  -2  14    0.63    0.21 
   4  -2  14    0.34    0.16 
   4  -2  14    0.23    0.20 
   5  -2  14    0.19    0.20 
   5  -2  14    0.18    0.14 
   6  -2  14    0.69    0.27 
   7  -2  14    0.26    0.26 
   8  -2  14    0.24    0.26 
   9  -2  14    0.07    0.24 
  10  -2  14    0.07    0.25 
  11  -2  14    0.63    0.26 
 -10  -1  14    0.16    0.19 
  -9  -1  14    0.08    0.20 
  -8  -1  14    0.16    0.18 
  -7  -1  14    2.06    0.26 
  -6  -1  14   -0.03    0.15 
  -5  -1  14    0.33    0.15 
  -4  -1  14    3.50    0.25 
  -3  -1  14    0.46    0.15 
  -2  -1  14    4.14    0.27 
  -2  -1  14    4.47    0.31 
  -1  -1  14    1.57    0.22 
  -1  -1  14    1.82    0.20 
   0  -1  14   -0.14    0.13 
   0  -1  14   -0.14    0.15 
   1  -1  14    1.62    0.23 
   1  -1  14    1.79    0.21 
   2  -1  14    4.43    0.27 
   2  -1  14    4.24    0.34 
   3  -1  14    0.40    0.20 
   3  -1  14    0.42    0.16 
   4  -1  14    2.95    0.31 
   4  -1  14    3.04    0.23 
   5  -1  14    0.47    0.23 
   5  -1  14    0.38    0.15 
   6  -1  14    0.28    0.25 
   7  -1  14    1.01    0.29 
   8  -1  14    0.50    0.27 
   9  -1  14    0.07    0.25 
  10  -1  14    0.52    0.27 
  11  -1  14    0.53    0.27 
 -10   0  14    0.01    0.18 
  -9   0  14    0.30    0.19 
  -8   0  14    0.20    0.18 
  -7   0  14    1.22    0.22 
  -6   0  14    5.12    0.32 
  -5   0  14    0.41    0.15 
  -4   0  14    0.18    0.13 
  -3   0  14    2.77    0.22 
  -2   0  14    0.56    0.16 
  -2   0  14    0.62    0.15 
  -1   0  14    3.47    0.24 
  -1   0  14    4.23    0.31 
   0   0  14   11.06    0.63 
   0   0  14   11.78    0.51 
   1   0  14    3.25    0.24 
   1   0  14    3.64    0.30 
   2   0  14    0.35    0.17 
   2   0  14    0.33    0.17 
   3   0  14    2.22    0.21 
   3   0  14    2.52    0.28 
   4   0  14    0.12    0.18 
   4   0  14    0.23    0.14 
   5   0  14    0.47    0.22 
   5   0  14    0.40    0.14 
   6   0  14    3.58    0.37 
   7   0  14    0.86    0.29 
   8   0  14    0.08    0.24 
   9   0  14    0.53    0.26 
  10   0  14    0.41    0.25 
  11   0  14    0.56    0.27 
 -10   1  14    0.21    0.16 
  -9   1  14    0.15    0.18 
  -8   1  14    0.17    0.18 
  -7   1  14    1.92    0.25 
  -6   1  14    0.32    0.16 
  -5   1  14    0.70    0.17 
  -4   1  14    3.60    0.25 
  -3   1  14    0.53    0.14 
  -3   1  14    0.53    0.15 
  -2   1  14    4.36    0.31 
  -2   1  14    4.40    0.27 
  -1   1  14    2.08    0.18 
  -1   1  14    1.54    0.21 
   0   1  14    0.03    0.13 
   0   1  14   -0.07    0.12 
   1   1  14    1.56    0.22 
   1   1  14    2.14    0.21 
   2   1  14    4.43    0.28 
   2   1  14    4.50    0.36 
   3   1  14    0.50    0.19 
   3   1  14    0.50    0.16 
   4   1  14    3.01    0.23 
   4   1  14    3.22    0.31 
   5   1  14    0.72    0.23 
   5   1  14    0.39    0.15 
   6   1  14    0.49    0.26 
   7   1  14    1.19    0.30 
   8   1  14    0.10    0.25 
   9   1  14    0.39    0.26 
  10   1  14    0.58    0.26 
  11   1  14    0.80    0.27 
 -10   2  14    0.43    0.19 
  -9   2  14    0.00    0.17 
  -8   2  14    0.65    0.20 
  -7   2  14    0.76    0.18 
  -6   2  14    1.47    0.21 
  -5   2  14    0.12    0.14 
  -4   2  14    0.40    0.14 
  -3   2  14    0.58    0.15 
  -3   2  14    0.51    0.16 
  -2   2  14    0.03    0.14 
  -2   2  14    0.20    0.13 
  -1   2  14    0.09    0.12 
  -1   2  14    0.08    0.15 
   0   2  14    0.01    0.14 
   0   2  14    0.03    0.15 
   1   2  14   -0.07    0.13 
   1   2  14   -0.01    0.13 
   2   2  14    0.22    0.16 
   2   2  14   -0.09    0.15 
   3   2  14    0.44    0.15 
   3   2  14    0.42    0.19 
   4   2  14    0.28    0.20 
   4   2  14    0.27    0.14 
   5   2  14    0.10    0.10 
   5   2  14    0.15    0.19 
   6   2  14    0.89    0.26 
   7   2  14    0.83    0.29 
   8   2  14    0.36    0.27 
   9   2  14    0.34    0.27 
  10   2  14    0.41    0.25 
  11   2  14    0.60    0.27 
 -10   3  14    0.11    0.18 
  -9   3  14   -0.06    0.15 
  -8   3  14    1.11    0.21 
  -7   3  14    0.37    0.17 
  -6   3  14   -0.03    0.14 
  -5   3  14    0.03    0.13 
  -4   3  14    0.10    0.12 
  -3   3  14    1.55    0.21 
  -3   3  14    1.84    0.18 
  -2   3  14    1.54    0.22 
  -2   3  14    1.72    0.17 
  -1   3  14    0.43    0.18 
  -1   3  14    0.15    0.13 
   0   3  14   -0.01    0.13 
   0   3  14   -0.06    0.15 
   1   3  14    0.22    0.16 
   1   3  14    0.17    0.15 
   2   3  14    1.81    0.27 
   2   3  14    1.90    0.21 
   3   3  14    1.66    0.28 
   4   3  14    0.10    0.17 
   4   3  14    0.00    0.13 
   5   3  14   -0.17    0.18 
   6   3  14    0.24    0.21 
   7   3  14    0.19    0.23 
   8   3  14    0.80    0.31 
   9   3  14    0.24    0.25 
  10   3  14    0.47    0.27 
 -10   4  14    0.25    0.18 
  -9   4  14    0.17    0.17 
  -8   4  14    0.88    0.19 
  -7   4  14    0.84    0.19 
  -6   4  14    0.13    0.13 
  -5   4  14    0.91    0.17 
  -4   4  14    0.11    0.13 
  -3   4  14   -0.08    0.12 
  -3   4  14   -0.12    0.16 
  -2   4  14    0.02    0.17 
  -2   4  14    0.02    0.12 
  -1   4  14    0.09    0.18 
  -1   4  14    0.04    0.14 
   0   4  14    5.76    0.40 
   0   4  14    5.65    0.32 
   1   4  14    0.00    0.14 
   1   4  14    0.09    0.17 
   2   4  14   -0.01    0.18 
   2   4  14   -0.07    0.08 
   3   4  14   -0.31    0.16 
   3   4  14   -0.32    0.13 
   4   4  14    0.09    0.19 
   5   4  14    0.67    0.24 
   6   4  14   -0.05    0.21 
   7   4  14    0.51    0.25 
   8   4  14    0.60    0.27 
   9   4  14    0.51    0.27 
  10   4  14    0.59    0.28 
 -10   5  14    0.46    0.19 
  -9   5  14    0.28    0.17 
  -8   5  14    0.96    0.20 
  -7   5  14    0.48    0.17 
  -6   5  14    0.20    0.13 
  -5   5  14    0.21    0.13 
  -4   5  14    0.32    0.14 
  -3   5  14    0.20    0.18 
  -3   5  14    0.04    0.12 
  -2   5  14    6.73    0.34 
  -2   5  14    6.24    0.43 
  -1   5  14   -0.06    0.16 
  -1   5  14    0.04    0.14 
   0   5  14    0.07    0.18 
   0   5  14    0.00    0.14 
   1   5  14    0.00    0.09 
   1   5  14    0.02    0.18 
   2   5  14    6.39    0.46 
   2   5  14    5.54    0.32 
   3   5  14    0.04    0.19 
   4   5  14    0.56    0.24 
   5   5  14    0.22    0.22 
   6   5  14    0.39    0.23 
   7   5  14    0.47    0.26 
   8   5  14    0.66    0.26 
   9   5  14    0.68    0.27 
  10   5  14    0.73    0.30 
  -9   6  14    0.24    0.18 
  -8   6  14   -0.25    0.15 
  -7   6  14    0.65    0.18 
  -6   6  14    0.05    0.14 
  -5   6  14    0.67    0.16 
  -4   6  14    0.93    0.19 
  -4   6  14    0.60    0.15 
  -3   6  14    0.10    0.12 
  -3   6  14    0.20    0.16 
  -2   6  14    0.56    0.20 
  -2   6  14    0.29    0.13 
  -1   6  14    2.07    0.25 
  -1   6  14    1.80    0.20 
   0   6  14    2.90    0.25 
   0   6  14    3.67    0.33 
   1   6  14    1.61    0.21 
   1   6  14    2.08    0.27 
   2   6  14    0.31    0.22 
   3   6  14    0.07    0.20 
   4   6  14    0.70    0.25 
   5   6  14    0.39    0.25 
   6   6  14    0.04    0.22 
   7   6  14    0.76    0.26 
   8   6  14    0.26    0.26 
   9   6  14    0.72    0.26 
  10   6  14    0.90    0.29 
  -9   7  14    0.38    0.17 
  -8   7  14    0.18    0.16 
  -7   7  14    0.16    0.16 
  -6   7  14    0.04    0.13 
  -5   7  14    0.07    0.14 
  -4   7  14   -0.13    0.12 
  -4   7  14    0.22    0.16 
  -3   7  14    0.77    0.21 
  -3   7  14    0.48    0.14 
  -2   7  14    1.47    0.19 
  -2   7  14    1.66    0.26 
  -1   7  14    0.32    0.21 
  -1   7  14    0.13    0.15 
   0   7  14    0.18    0.21 
   0   7  14   -0.02    0.11 
   1   7  14    0.22    0.23 
   2   7  14    1.73    0.31 
   3   7  14    0.71    0.25 
   4   7  14    0.03    0.22 
   5   7  14    0.03    0.22 
   6   7  14    0.04    0.24 
   7   7  14    0.17    0.25 
   8   7  14    0.25    0.27 
   9   7  14    0.64    0.26 
  -9   8  14    0.31    0.16 
  -8   8  14    0.15    0.16 
  -7   8  14    0.17    0.15 
  -6   8  14    0.43    0.16 
  -5   8  14    0.99    0.19 
  -4   8  14   -0.13    0.12 
  -4   8  14    0.10    0.17 
  -3   8  14    0.10    0.19 
  -3   8  14   -0.05    0.12 
  -2   8  14    0.20    0.20 
  -2   8  14    0.20    0.13 
  -1   8  14    0.01    0.14 
  -1   8  14   -0.13    0.21 
   0   8  14   12.20    0.74 
   1   8  14   -0.09    0.22 
   2   8  14    0.19    0.22 
   3   8  14    0.30    0.24 
   4   8  14   -0.10    0.22 
   5   8  14    0.91    0.29 
   6   8  14    0.52    0.27 
   7   8  14    0.49    0.26 
   8   8  14    0.65    0.25 
   9   8  14    0.52    0.27 
  -8   9  14    0.46    0.18 
  -7   9  14   -0.03    0.15 
  -6   9  14    0.08    0.15 
  -5   9  14    0.23    0.15 
  -4   9  14    0.10    0.17 
  -4   9  14    0.02    0.13 
  -3   9  14   -0.07    0.17 
  -3   9  14   -0.03    0.12 
  -2   9  14    0.17    0.20 
  -2   9  14    0.19    0.13 
  -1   9  14    0.84    0.26 
   0   9  14    0.07    0.23 
   1   9  14    0.96    0.30 
   2   9  14    0.20    0.24 
   3   9  14    0.14    0.22 
   4   9  14   -0.22    0.22 
   5   9  14    0.35    0.26 
   6   9  14    0.50    0.26 
   7   9  14    0.37    0.26 
   8   9  14    0.93    0.27 
   9   9  14    0.70    0.28 
  -8  10  14    0.09    0.17 
  -7  10  14    0.32    0.17 
  -6  10  14    0.60    0.17 
  -5  10  14    0.30    0.16 
  -4  10  14    0.17    0.17 
  -4  10  14    0.02    0.13 
  -3  10  14    0.19    0.20 
  -2  10  14    0.67    0.24 
  -1  10  14   -0.15    0.21 
   0  10  14    0.20    0.23 
   1  10  14   -0.09    0.23 
   2  10  14    0.53    0.26 
   3  10  14    0.18    0.24 
   4  10  14    0.04    0.26 
   5  10  14    0.44    0.24 
   6  10  14    0.50    0.25 
   7  10  14    0.78    0.28 
   8  10  14    0.66    0.27 
  -7  11  14    0.17    0.15 
  -6  11  14    0.34    0.16 
  -5  11  14    0.32    0.16 
  -4  11  14    0.03    0.18 
  -3  11  14    0.15    0.21 
  -2  11  14    0.10    0.19 
  -1  11  14    0.27    0.22 
   0  11  14    0.06    0.20 
   1  11  14    0.31    0.24 
   2  11  14    0.12    0.22 
   3  11  14   -0.03    0.25 
   4  11  14    0.06    0.27 
   5  11  14    0.38    0.24 
   6  11  14    0.03    0.25 
   7  11  14    0.86    0.27 
  -6  12  14    0.19    0.16 
  -5  12  14    0.31    0.20 
  -4  12  14    0.06    0.18 
  -3  12  14    0.30    0.20 
  -2  12  14    0.04    0.19 
  -1  12  14    0.30    0.21 
   0  12  14    0.66    0.25 
   1  12  14   -0.13    0.21 
   2  12  14    0.01    0.24 
   3  12  14    0.25    0.26 
   4  12  14    0.15    0.25 
   5  12  14    0.59    0.26 
   6  12  14    0.56    0.27 
   7  12  14    0.79    0.27 
  -5  13  14    0.65    0.22 
  -4  13  14    0.79    0.23 
  -3  13  14    0.44    0.21 
  -2  13  14    0.14    0.19 
  -1  13  14    0.19    0.20 
   0  13  14    0.24    0.23 
   1  13  14    0.17    0.23 
   2  13  14    0.30    0.26 
   3  13  14    0.17    0.24 
   4  13  14    0.81    0.26 
   5  13  14    1.02    0.28 
   6  13  14    0.71    0.28 
  -4  14  14    0.53    0.20 
  -3  14  14    0.68    0.25 
  -2  14  14    0.30    0.20 
  -1  14  14    0.30    0.20 
   0  14  14    0.23    0.23 
   1  14  14    0.43    0.21 
   2  14  14    0.38    0.24 
   3  14  14    0.84    0.28 
   4  14  14    0.73    0.25 
  -2  15  14    0.35    0.21 
  -1  15  14    0.26    0.21 
   0  15  14    0.19    0.19 
   1  15  14    0.51    0.23 
   2  15  14    0.40    0.20 
  -3 -14  15    0.51    0.19 
  -2 -14  15    0.42    0.19 
  -1 -14  15    0.34    0.19 
   0 -14  15    0.11    0.19 
   1 -14  15    0.57    0.20 
  -2  14 -15    0.17    0.20 
   2 -14  15    0.18    0.18 
  -3  14 -15    0.59    0.24 
   3 -14  15    0.28    0.17 
  -5 -13  15    0.54    0.18 
  -4 -13  15    0.24    0.17 
  -3 -13  15    0.26    0.18 
  -2 -13  15    0.21    0.19 
  -1 -13  15    0.61    0.20 
   0 -13  15    0.11    0.18 
  -1  13 -15    0.48    0.22 
   1 -13  15    0.15    0.19 
  -2  13 -15    0.38    0.21 
   2 -13  15    0.25    0.18 
  -3  13 -15    0.29    0.20 
   3 -13  15    0.05    0.16 
  -4  13 -15    0.40    0.20 
  -5  13 -15    0.21    0.19 
  -6 -12  15    0.47    0.19 
  -5 -12  15    0.07    0.17 
  -4 -12  15    0.16    0.18 
  -3 -12  15    0.15    0.18 
  -2 -12  15   -0.15    0.17 
  -1 -12  15   -0.05    0.17 
   0 -12  15    0.28    0.18 
  -1  12 -15    0.01    0.18 
   1 -12  15    0.38    0.20 
  -2  12 -15   -0.05    0.18 
   2 -12  15    0.16    0.18 
  -3  12 -15    0.43    0.20 
   3 -12  15    0.21    0.18 
  -4  12 -15    0.21    0.18 
   4 -12  15    0.15    0.18 
  -5  12 -15    0.16    0.17 
  -6  12 -15    0.27    0.19 
  -6 -11  15    0.30    0.18 
  -5 -11  15    0.24    0.18 
  -4 -11  15   -0.03    0.18 
  -3 -11  15    0.40    0.19 
  -2 -11  15   -0.01    0.16 
  -1 -11  15    0.19    0.17 
   0 -11  15    0.06    0.18 
  -1  11 -15    0.37    0.21 
   1 -11  15    0.15    0.19 
  -2  11 -15    0.12    0.20 
   2 -11  15    0.20    0.18 
  -3  11 -15    0.52    0.22 
   3 -11  15    0.10    0.18 
  -4  11 -15    0.11    0.18 
   4 -11  15    0.12    0.17 
  -5  11 -15    0.31    0.19 
  -6  11 -15    0.18    0.17 
  -7  11 -15    0.22    0.17 
  -7 -10  15    0.30    0.18 
  -6 -10  15    0.22    0.18 
  -5 -10  15    0.58    0.19 
  -4 -10  15    0.10    0.18 
  -3 -10  15    0.11    0.17 
  -2 -10  15    0.08    0.17 
  -1 -10  15    0.00    0.17 
   0  10 -15    0.21    0.19 
   0 -10  15    0.09    0.17 
  -1  10 -15    0.21    0.19 
   1 -10  15    0.10    0.17 
  -2  10 -15    0.07    0.18 
   2 -10  15    0.12    0.18 
  -3  10 -15   -0.05    0.17 
   3 -10  15   -0.06    0.15 
  -4  10 -15    0.09    0.19 
   4 -10  15    0.10    0.16 
  -5  10 -15    0.31    0.18 
  -6  10 -15    0.20    0.17 
  -7  10 -15    0.20    0.16 
  -8  -9  15    0.19    0.17 
  -7  -9  15    0.52    0.20 
  -6  -9  15    0.08    0.16 
  -5  -9  15    0.05    0.16 
  -4  -9  15    0.02    0.16 
  -3  -9  15    0.22    0.18 
  -2  -9  15    0.17    0.17 
  -1  -9  15    0.24    0.17 
   0   9 -15    0.00    0.18 
   0  -9  15    0.01    0.18 
  -1   9 -15    0.21    0.18 
   1  -9  15    0.34    0.19 
  -2   9 -15    0.19    0.18 
   2  -9  15   -0.01    0.17 
  -3   9 -15   -0.01    0.18 
   3  -9  15    0.05    0.16 
  -4   9 -15    0.16    0.19 
   4  -9  15    0.01    0.15 
  -5   9 -15   -0.02    0.17 
   5  -9  15   -0.01    0.15 
  -6   9 -15    0.21    0.18 
  -7   9 -15    0.30    0.18 
  -8   9 -15    0.50    0.20 
  -8  -8  15    0.04    0.25 
  -8  -8  15    0.09    0.17 
  -7  -8  15   -0.02    0.17 
  -6  -8  15    0.02    0.16 
  -5  -8  15    0.28    0.17 
  -4  -8  15    0.49    0.18 
  -3  -8  15    0.17    0.17 
  -2  -8  15    0.60    0.19 
  -1  -8  15    0.00    0.18 
   0   8 -15    5.91    0.42 
   0  -8  15    5.33    0.34 
  -1   8 -15    0.14    0.18 
   1  -8  15   -0.11    0.17 
  -2   8 -15    0.35    0.19 
   2  -8  15    0.13    0.17 
  -3   8 -15    0.09    0.18 
   3  -8  15    0.04    0.15 
  -4   8 -15    0.37    0.20 
   4  -8  15    0.29    0.17 
  -5   8 -15   -0.03    0.16 
   5  -8  15   -0.03    0.15 
  -6   8 -15    0.11    0.16 
  -7   8 -15    0.26    0.17 
  -8   8 -15    0.32    0.18 
  -9  -7  15    0.07    0.18 
  -9  -7  15    0.60    0.27 
  -8  -7  15    0.19    0.24 
  -8  -7  15    0.42    0.19 
  -7  -7  15    0.20    0.17 
  -7  -7  15    0.33    0.25 
  -6  -7  15    0.14    0.17 
  -5  -7  15    0.31    0.18 
  -4  -7  15    0.59    0.19 
  -3  -7  15    1.52    0.22 
  -2  -7  15    1.92    0.24 
  -1  -7  15    1.23    0.22 
   0   7 -15    0.16    0.18 
   0  -7  15    0.26    0.17 
  -1   7 -15    1.13    0.24 
   1  -7  15    1.08    0.21 
  -2   7 -15    1.29    0.25 
   2  -7  15    1.79    0.23 
  -3   7 -15    1.17    0.24 
   3  -7  15    1.11    0.21 
  -4   7 -15    0.66    0.22 
   4  -7  15    0.33    0.17 
  -5   7 -15    0.13    0.19 
   5  -7  15    0.15    0.16 
  -6   7 -15   -0.03    0.16 
  -7   7 -15    0.06    0.16 
  -8   7 -15    0.35    0.18 
  -9   7 -15    0.47    0.20 
  -9  -6  15    0.14    0.20 
  -9  -6  15    0.83    0.29 
  -8  -6  15    0.49    0.27 
  -8  -6  15    0.07    0.17 
  -7  -6  15    0.53    0.27 
  -7  -6  15    0.36    0.19 
  -6  -6  15    0.56    0.25 
  -6  -6  15    0.49    0.19 
  -5  -6  15    0.96    0.21 
  -4  -6  15    0.09    0.16 
  -3  -6  15    0.34    0.17 
  -2  -6  15    0.03    0.14 
   1   6 -15   -0.08    0.13 
  -1  -6  15    0.24    0.17 
   0   6 -15    1.53    0.25 
   0  -6  15    1.64    0.22 
  -1   6 -15    0.23    0.16 
   1  -6  15    0.40    0.16 
  -2   6 -15   -0.06    0.13 
   2  -6  15    0.15    0.15 
  -3   6 -15    0.19    0.16 
   3  -6  15    0.24    0.16 
  -4   6 -15    0.02    0.15 
   4  -6  15   -0.11    0.15 
  -5   6 -15    0.67    0.21 
   5  -6  15    0.50    0.17 
  -6   6 -15    0.10    0.16 
  -7   6 -15    0.25    0.17 
  -8   6 -15    0.13    0.17 
  -9   6 -15    0.41    0.20 
  -9  -5  15    0.10    0.20 
  -9  -5  15    0.59    0.28 
  -8  -5  15   -0.24    0.17 
  -7  -5  15   -0.05    0.18 
  -6  -5  15    0.27    0.23 
  -6  -5  15    0.05    0.16 
  -5  -5  15    0.05    0.15 
  -4  -5  15    0.36    0.17 
  -3  -5  15    0.42    0.16 
  -2  -5  15    0.26    0.16 
   1   5 -15    0.31    0.13 
  -1  -5  15    0.57    0.16 
   0  -5  15    0.09    0.15 
   1  -5  15    0.72    0.20 
   1  -5  15    0.80    0.18 
   2  -5  15    0.33    0.18 
   2  -5  15    0.49    0.16 
   3  -5  15    0.48    0.17 
   3  -5  15    0.56    0.22 
   4  -5  15    0.23    0.16 
   4  -5  15    0.28    0.20 
   5  -5  15    0.12    0.15 
   5  -5  15   -0.01    0.20 
   6  -5  15    0.07    0.22 
   7  -5  15    0.00    0.22 
  -9   5 -15    0.08    0.19 
  -9  -4  15    0.16    0.19 
  -8  -4  15    0.16    0.19 
  -7  -4  15   -0.21    0.17 
  -6  -4  15   -0.05    0.17 
  -5  -4  15   -0.10    0.15 
  -4  -4  15    0.07    0.14 
  -3  -4  15    0.83    0.18 
  -2  -4  15    0.09    0.14 
  -1  -4  15    1.55    0.20 
  -1  -4  15    1.48    0.23 
   0  -4  15    0.45    0.18 
   0  -4  15    0.28    0.15 
   1  -4  15    1.31    0.23 
   1  -4  15    1.42    0.20 
   2  -4  15   -0.07    0.15 
   2  -4  15    0.21    0.15 
   3  -4  15    0.33    0.21 
   3  -4  15    0.61    0.17 
   4  -4  15    0.11    0.19 
   4  -4  15    0.09    0.15 
   5  -4  15    0.02    0.14 
   5  -4  15   -0.12    0.21 
   6  -4  15   -0.18    0.23 
   7  -4  15   -0.09    0.24 
   8  -4  15    0.05    0.23 
   9  -4  15    0.15    0.22 
 -10  -3  15    0.52    0.20 
  -9  -3  15    0.40    0.21 
  -8  -3  15    0.57    0.22 
  -7  -3  15    0.18    0.18 
  -6  -3  15    0.58    0.20 
  -5  -3  15    0.13    0.16 
  -4  -3  15   -0.08    0.14 
  -3  -3  15    0.59    0.16 
  -2  -3  15   -0.02    0.12 
  -1  -3  15    0.79    0.17 
  -1  -3  15    0.64    0.18 
   0  -3  15   -0.09    0.15 
   0  -3  15   -0.01    0.13 
   1  -3  15    0.85    0.18 
   1  -3  15    0.89    0.20 
   2  -3  15   -0.04    0.14 
   2  -3  15    0.03    0.16 
   3  -3  15    0.63    0.17 
   3  -3  15    0.51    0.21 
   4  -3  15   -0.01    0.19 
   4  -3  15    0.10    0.14 
   5  -3  15   -0.09    0.21 
   5  -3  15    0.11    0.15 
   6  -3  15    0.46    0.17 
   6  -3  15    0.35    0.25 
   7  -3  15   -0.20    0.24 
   8  -3  15    0.17    0.25 
   9  -3  15    0.27    0.23 
  10  -3  15    0.47    0.24 
 -10  -2  15    0.44    0.21 
  -9  -2  15    0.65    0.21 
  -8  -2  15    0.83    0.22 
  -7  -2  15   -0.02    0.16 
  -6  -2  15    0.91    0.20 
  -5  -2  15    0.51    0.18 
  -4  -2  15    0.10    0.14 
  -3  -2  15    2.69    0.22 
  -2  -2  15    0.42    0.15 
  -1  -2  15    0.47    0.17 
  -1  -2  15    0.56    0.16 
   0  -2  15   -0.15    0.12 
   0  -2  15    0.01    0.15 
   1  -2  15    0.63    0.19 
   1  -2  15    0.34    0.15 
   2  -2  15    0.39    0.18 
   2  -2  15    0.38    0.15 
   3  -2  15    2.63    0.23 
   3  -2  15    2.49    0.28 
   4  -2  15    0.18    0.15 
   4  -2  15   -0.03    0.18 
   5  -2  15    0.51    0.17 
   5  -2  15    0.83    0.26 
   6  -2  15    0.57    0.27 
   6  -2  15    0.37    0.17 
   7  -2  15   -0.19    0.24 
   8  -2  15    0.62    0.26 
   9  -2  15    0.35    0.25 
  10  -2  15    0.37    0.25 
 -10  -1  15    0.08    0.16 
  -9  -1  15    0.32    0.19 
  -8  -1  15    0.42    0.20 
  -7  -1  15   -0.02    0.16 
  -6  -1  15    0.24    0.17 
  -5  -1  15   -0.19    0.13 
  -4  -1  15    0.17    0.13 
  -3  -1  15    0.36    0.15 
  -2  -1  15    0.20    0.13 
  -2  -1  15    0.20    0.15 
  -1  -1  15    0.62    0.19 
  -1  -1  15    0.35    0.15 
   0  -1  15   -0.08    0.15 
   0  -1  15    0.04    0.13 
   1  -1  15    0.60    0.16 
   1  -1  15    0.58    0.18 
   2  -1  15    0.27    0.17 
   2  -1  15    0.12    0.15 
   3  -1  15    0.69    0.18 
   3  -1  15    0.65    0.23 
   4  -1  15   -0.11    0.14 
   4  -1  15   -0.11    0.19 
   5  -1  15    0.05    0.22 
   5  -1  15    0.00    0.14 
   6  -1  15    0.01    0.23 
   6  -1  15    0.32    0.16 
   7  -1  15   -0.01    0.24 
   8  -1  15    0.23    0.25 
   9  -1  15    0.58    0.26 
  10  -1  15    0.32    0.25 
 -10   0  15    0.12    0.17 
  -9   0  15    0.25    0.19 
  -8   0  15   -0.10    0.18 
  -7   0  15    0.06    0.17 
  -6   0  15   -0.02    0.15 
  -5   0  15   -0.03    0.13 
  -4   0  15   -0.16    0.11 
  -3   0  15    0.10    0.13 
  -2   0  15    0.02    0.12 
  -2   0  15   -0.13    0.13 
  -1   0  15   -0.09    0.12 
  -1   0  15   -0.09    0.13 
   0   0  15    0.16    0.14 
   0   0  15   -0.06    0.15 
   1   0  15    0.06    0.14 
   1   0  15   -0.05    0.13 
   2   0  15   -0.10    0.13 
   2   0  15   -0.09    0.16 
   3   0  15   -0.18    0.13 
   3   0  15   -0.22    0.17 
   4   0  15   -0.15    0.19 
   4   0  15   -0.07    0.13 
   5   0  15   -0.05    0.13 
   5   0  15    0.03    0.21 
   6   0  15    0.01    0.24 
   7   0  15   -0.10    0.26 
   9   0  15    0.22    0.25 
  10   0  15    0.61    0.28 
 -10   1  15    0.41    0.19 
  -9   1  15    0.58    0.21 
  -8   1  15    0.37    0.19 
  -7   1  15    0.09    0.16 
  -6   1  15    0.45    0.17 
  -5   1  15    0.04    0.13 
  -4   1  15   -0.04    0.12 
  -3   1  15    0.71    0.16 
  -2   1  15    0.14    0.13 
  -2   1  15    0.31    0.15 
  -1   1  15    0.61    0.15 
  -1   1  15    0.57    0.17 
   0   1  15    0.03    0.12 
   0   1  15   -0.06    0.13 
   1   1  15    0.31    0.14 
   1   1  15    0.63    0.18 
   2   1  15    0.11    0.15 
   2   1  15    0.24    0.17 
   3   1  15    0.42    0.21 
   3   1  15    0.42    0.15 
   4   1  15   -0.01    0.13 
   4   1  15   -0.02    0.18 
   5   1  15    0.15    0.13 
   5   1  15    0.01    0.22 
   6   1  15    0.20    0.26 
   7   1  15    0.09    0.25 
   8   1  15    0.59    0.28 
   9   1  15    0.58    0.27 
  10   1  15    0.34    0.26 
 -10   2  15    0.32    0.16 
  -9   2  15    0.07    0.19 
  -8   2  15    0.55    0.19 
  -7   2  15   -0.06    0.15 
  -6   2  15    0.52    0.18 
  -5   2  15    0.88    0.18 
  -4   2  15    0.04    0.12 
  -3   2  15    2.79    0.22 
  -2   2  15    0.41    0.17 
  -2   2  15    0.38    0.15 
  -1   2  15    0.53    0.15 
  -1   2  15    0.39    0.17 
   0   2  15    0.20    0.13 
   0   2  15   -0.16    0.12 
   1   2  15    0.48    0.18 
   1   2  15    0.34    0.15 
   2   2  15    0.33    0.19 
   2   2  15    0.39    0.17 
   3   2  15    2.43    0.29 
   3   2  15    2.71    0.23 
   4   2  15    0.19    0.19 
   4   2  15    0.25    0.16 
   5   2  15    0.76    0.26 
   6   2  15    0.57    0.27 
   7   2  15    0.04    0.25 
   8   2  15    0.53    0.28 
   9   2  15    0.42    0.28 
  10   2  15    0.84    0.29 
 -10   3  15    0.35    0.17 
  -9   3  15    0.42    0.18 
  -8   3  15    0.71    0.19 
  -7   3  15    0.42    0.17 
  -6   3  15    0.86    0.18 
  -5   3  15    0.55    0.16 
  -4   3  15    0.11    0.13 
  -3   3  15    0.58    0.18 
  -3   3  15    0.81    0.16 
  -2   3  15   -0.05    0.15 
  -2   3  15    0.07    0.13 
  -1   3  15    0.53    0.18 
  -1   3  15    0.63    0.16 
   0   3  15   -0.18    0.12 
   0   3  15   -0.14    0.14 
   1   3  15    0.71    0.18 
   1   3  15    0.70    0.21 
   2   3  15   -0.05    0.15 
   2   3  15    0.14    0.18 
   3   3  15    0.45    0.14 
   3   3  15    0.50    0.21 
   4   3  15   -0.04    0.19 
   5   3  15    0.21    0.22 
   6   3  15    0.64    0.25 
   7   3  15    0.15    0.24 
   8   3  15    0.39    0.26 
   9   3  15    0.20    0.25 
  10   3  15    0.72    0.29 
  -9   4  15    0.17    0.16 
  -8   4  15   -0.01    0.15 
  -7   4  15    0.18    0.15 
  -6   4  15   -0.13    0.13 
  -5   4  15   -0.10    0.13 
  -4   4  15    0.30    0.14 
  -3   4  15    0.63    0.16 
  -3   4  15    0.95    0.22 
  -2   4  15   -0.03    0.12 
  -2   4  15    0.15    0.16 
  -1   4  15    1.69    0.25 
  -1   4  15    1.15    0.19 
   0   4  15    0.32    0.15 
   0   4  15    0.49    0.20 
   1   4  15    1.66    0.28 
   1   4  15    1.32    0.21 
   2   4  15    0.00    0.11 
   2   4  15    0.03    0.18 
   3   4  15    0.86    0.26 
   4   4  15    0.15    0.20 
   5   4  15   -0.05    0.20 
   6   4  15    0.17    0.24 
   7   4  15    0.42    0.25 
   8   4  15    0.06    0.24 
   9   4  15    0.48    0.28 
  10   4  15    0.50    0.27 
  -9   5  15    0.38    0.18 
  -8   5  15   -0.07    0.15 
  -7   5  15   -0.10    0.13 
  -6   5  15    0.23    0.14 
  -5   5  15   -0.05    0.12 
  -4   5  15    0.32    0.14 
  -3   5  15    0.85    0.19 
  -3   5  15    0.66    0.16 
  -2   5  15    0.28    0.14 
  -2   5  15    0.63    0.18 
  -1   5  15    0.70    0.16 
  -1   5  15    0.94    0.22 
   0   5  15   -0.26    0.13 
   0   5  15   -0.01    0.17 
   1   5  15    0.77    0.24 
   1   5  15    0.61    0.17 
   2   5  15    0.26    0.21 
   3   5  15    0.55    0.24 
   4   5  15    0.58    0.25 
   5   5  15   -0.17    0.20 
   6   5  15    0.05    0.23 
   7   5  15    0.28    0.23 
   8   5  15    0.44    0.25 
   9   5  15    0.59    0.27 
  10   5  15    0.92    0.29 
  -9   6  15    0.35    0.17 
  -8   6  15    0.19    0.16 
  -7   6  15    0.16    0.16 
  -6   6  15    0.45    0.16 
  -5   6  15    1.29    0.20 
  -4   6  15    0.07    0.13 
  -3   6  15    0.61    0.20 
  -3   6  15    0.47    0.16 
  -2   6  15   -0.06    0.12 
  -2   6  15    0.20    0.17 
  -1   6  15    0.28    0.20 
  -1   6  15    0.22    0.14 
   0   6  15    1.68    0.30 
   0   6  15    1.67    0.22 
   1   6  15    0.19    0.24 
   2   6  15   -0.06    0.19 
   3   6  15    0.31    0.24 
   4   6  15   -0.04    0.23 
   5   6  15    1.00    0.29 
   6   6  15    0.61    0.25 
   7   6  15    0.21    0.23 
   8   6  15    0.36    0.25 
   9   6  15    0.66    0.26 
  -9   7  15    0.27    0.17 
  -8   7  15    0.06    0.16 
  -7   7  15    0.31    0.15 
  -6   7  15    0.19    0.15 
  -5   7  15    0.46    0.16 
  -4   7  15    0.67    0.17 
  -3   7  15    1.85    0.28 
  -3   7  15    1.69    0.21 
  -2   7  15    1.83    0.25 
  -2   7  15    1.97    0.19 
  -1   7  15    1.86    0.30 
  -1   7  15    1.20    0.19 
   0   7  15   -0.08    0.23 
   1   7  15    1.00    0.30 
   2   7  15    2.08    0.34 
   3   7  15    1.62    0.32 
   4   7  15    0.79    0.28 
   5   7  15    0.42    0.27 
   6   7  15    0.15    0.23 
   7   7  15    0.35    0.21 
   8   7  15    0.48    0.24 
   9   7  15    0.74    0.25 
  -8   8  15    0.26    0.17 
  -7   8  15    0.18    0.15 
  -6   8  15    0.01    0.14 
  -5   8  15    0.05    0.13 
  -4   8  15    0.48    0.19 
  -4   8  15    0.53    0.15 
  -3   8  15    0.17    0.14 
  -3   8  15    0.51    0.21 
  -2   8  15    0.76    0.23 
  -2   8  15    0.39    0.15 
  -1   8  15    0.05    0.22 
   0   8  15    6.23    0.48 
   1   8  15    0.25    0.25 
   2   8  15    0.43    0.25 
   3   8  15    0.35    0.24 
   4   8  15    0.61    0.28 
   5   8  15    0.07    0.25 
   6   8  15    0.34    0.23 
   7   8  15    0.22    0.23 
   8   8  15    0.39    0.23 
   9   8  15    1.00    0.28 
  -8   9  15   -0.01    0.15 
  -7   9  15    0.31    0.15 
  -6   9  15    0.13    0.14 
  -5   9  15    0.10    0.14 
  -4   9  15    0.35    0.19 
  -4   9  15   -0.04    0.13 
  -3   9  15   -0.05    0.13 
  -3   9  15    0.18    0.20 
  -2   9  15    0.34    0.22 
  -1   9  15    0.36    0.22 
   0   9  15    0.27    0.24 
   1   9  15    0.05    0.24 
   2   9  15    0.27    0.26 
   3   9  15   -0.06    0.24 
   4   9  15    0.25    0.25 
   5   9  15    0.06    0.25 
   6   9  15    0.36    0.25 
   7   9  15    0.59    0.26 
   8   9  15    0.70    0.27 
  -7  10  15    0.29    0.16 
  -6  10  15    0.40    0.16 
  -5  10  15    0.46    0.16 
  -4  10  15    0.26    0.14 
  -4  10  15    0.37    0.19 
  -3  10  15    0.17    0.20 
  -2  10  15    0.04    0.20 
  -1  10  15    0.41    0.22 
   0  10  15    0.36    0.24 
   1  10  15   -0.12    0.21 
   2  10  15    0.42    0.25 
   3  10  15    0.04    0.23 
   4  10  15    0.04    0.24 
   5  10  15    0.67    0.26 
   6  10  15    0.68    0.26 
   7  10  15    0.48    0.27 
  -6  11  15    0.28    0.16 
  -5  11  15    0.06    0.14 
  -4  11  15    0.23    0.18 
  -3  11  15    0.72    0.22 
  -2  11  15    0.28    0.21 
  -1  11  15    0.44    0.24 
   0  11  15    0.04    0.22 
   1  11  15    0.68    0.26 
   2  11  15    0.14    0.24 
   3  11  15    0.58    0.27 
   4  11  15    0.03    0.25 
   5  11  15    0.17    0.23 
   6  11  15    0.58    0.25 
   7  11  15    0.62    0.26 
  -4  12  15    0.57    0.21 
  -3  12  15    0.18    0.17 
  -2  12  15    0.17    0.18 
  -1  12  15    0.11    0.20 
   0  12  15   -0.03    0.21 
   1  12  15    0.24    0.22 
   2  12  15   -0.04    0.22 
   3  12  15    0.13    0.22 
   4  12  15   -0.02    0.23 
   5  12  15    0.17    0.21 
   6  12  15    0.67    0.27 
  -4  13  15    0.45    0.21 
  -3  13  15    0.60    0.21 
  -2  13  15    0.53    0.22 
  -1  13  15    0.24    0.20 
   0  13  15    0.26    0.21 
   1  13  15    0.25    0.22 
   2  13  15    0.17    0.20 
   3  13  15    0.12    0.25 
   4  13  15    0.56    0.25 
   5  13  15    0.62    0.25 
  -3  14  15    0.43    0.19 
  -2  14  15    0.28    0.18 
  -1  14  15    0.38    0.23 
   0  14  15    0.16    0.19 
   1  14  15    0.48    0.24 
   2  14  15    0.37    0.23 
   3  14  15    0.78    0.23 
  -1 -14  16    0.53    0.21 
   0 -14  16    0.33    0.19 
   1 -14  16    0.23    0.17 
  -3 -13  16    0.48    0.21 
  -2 -13  16    0.27    0.20 
  -1 -13  16    0.16    0.18 
   0 -13  16    0.06    0.18 
   1 -13  16    0.35    0.20 
  -2  13 -16    0.21    0.21 
   2 -13  16    0.24    0.18 
  -3  13 -16    0.43    0.21 
   3 -13  16    0.24    0.18 
  -5 -12  16    0.31    0.19 
  -4 -12  16    0.52    0.20 
  -3 -12  16    0.30    0.18 
  -2 -12  16    0.05    0.17 
  -1 -12  16    0.36    0.19 
   0 -12  16    0.29    0.18 
   1 -12  16    0.21    0.18 
  -2  12 -16    0.02    0.18 
   2 -12  16    0.12    0.18 
  -3  12 -16    0.36    0.20 
   3 -12  16    0.13    0.19 
  -4  12 -16    0.75    0.23 
   4 -12  16    0.14    0.17 
  -5  12 -16    0.26    0.18 
  -6 -11  16    0.56    0.20 
  -5 -11  16    0.49    0.20 
  -4 -11  16    0.20    0.18 
  -3 -11  16    0.34    0.19 
  -2 -11  16   -0.11    0.16 
  -1 -11  16    0.11    0.18 
   0 -11  16    0.00    0.18 
  -1  11 -16    0.31    0.20 
   1 -11  16   -0.11    0.18 
  -2  11 -16    0.08    0.21 
   2 -11  16    0.03    0.18 
  -3  11 -16    0.21    0.19 
   3 -11  16   -0.01    0.17 
  -4  11 -16   -0.04    0.17 
   4 -11  16    0.04    0.15 
  -5  11 -16    0.37    0.19 
  -6  11 -16    0.32    0.18 
  -6 -10  16    0.74    0.20 
  -5 -10  16    0.40    0.20 
  -4 -10  16   -0.09    0.18 
  -3 -10  16    0.28    0.18 
  -2 -10  16   -0.10    0.17 
  -1 -10  16    0.04    0.16 
   0 -10  16    0.02    0.17 
  -1  10 -16    0.09    0.19 
   1 -10  16   -0.13    0.17 
  -2  10 -16    0.12    0.18 
   2 -10  16   -0.01    0.19 
  -3  10 -16    0.12    0.18 
   3 -10  16    0.10    0.15 
  -4  10 -16    0.12    0.18 
   4 -10  16   -0.03    0.15 
  -5  10 -16    0.42    0.19 
  -6  10 -16    0.47    0.20 
  -7  10 -16    0.37    0.17 
  -7  -9  16    0.32    0.18 
  -6  -9  16    0.16    0.18 
  -5  -9  16    0.11    0.17 
  -4  -9  16    0.26    0.18 
  -3  -9  16    0.19    0.18 
  -2  -9  16   -0.13    0.17 
  -1  -9  16    0.01    0.17 
   0  -9  16   -0.03    0.17 
  -1   9 -16    0.09    0.17 
   1  -9  16    0.08    0.18 
  -2   9 -16   -0.04    0.16 
   2  -9  16   -0.04    0.16 
  -3   9 -16    0.17    0.19 
   3  -9  16   -0.05    0.15 
  -4   9 -16   -0.15    0.18 
   4  -9  16    0.03    0.16 
  -5   9 -16    0.32    0.19 
   5  -9  16    0.01    0.15 
  -6   9 -16    0.24    0.19 
  -7   9 -16    0.32    0.16 
  -8  -8  16    0.04    0.17 
  -7  -8  16    0.19    0.17 
  -6  -8  16    0.11    0.17 
  -5  -8  16    0.83    0.20 
  -4  -8  16    0.18    0.18 
  -3  -8  16   -0.11    0.17 
  -2  -8  16    0.16    0.18 
  -1  -8  16    0.30    0.19 
   0   8 -16    1.35    0.25 
   0  -8  16    1.47    0.23 
  -1   8 -16    0.27    0.19 
   1  -8  16   -0.10    0.16 
  -2   8 -16    0.13    0.17 
   2  -8  16    0.08    0.17 
  -3   8 -16    0.12    0.19 
   3  -8  16   -0.12    0.15 
  -4   8 -16    0.12    0.18 
   4  -8  16    0.08    0.16 
  -5   8 -16    0.56    0.22 
   5  -8  16    0.41    0.19 
  -6   8 -16    0.00    0.16 
  -7   8 -16    0.17    0.18 
  -8   8 -16    0.43    0.19 
  -8  -7  16    0.02    0.17 
  -7  -7  16    0.45    0.19 
  -6  -7  16    0.18    0.18 
  -5  -7  16    0.24    0.19 
  -4  -7  16    0.06    0.17 
  -3  -7  16    2.07    0.25 
  -2  -7  16    0.14    0.18 
  -1  -7  16    0.49    0.19 
   0   7 -16    0.17    0.18 
   0  -7  16    0.24    0.17 
  -1   7 -16    0.39    0.21 
   1  -7  16    0.48    0.19 
  -2   7 -16    0.20    0.19 
   2  -7  16    0.13    0.16 
  -3   7 -16    1.47    0.28 
   3  -7  16    1.66    0.24 
  -4   7 -16    0.02    0.17 
   4  -7  16    0.04    0.15 
  -5   7 -16    0.29    0.18 
   5  -7  16    0.18    0.17 
  -6   7 -16    0.11    0.16 
  -7   7 -16    0.27    0.18 
  -8   7 -16    0.30    0.17 
  -9  -6  16    0.59    0.26 
  -8  -6  16    0.14    0.19 
  -7  -6  16    0.10    0.18 
  -6  -6  16   -0.03    0.17 
  -5  -6  16    0.23    0.17 
  -4  -6  16    0.11    0.18 
  -3  -6  16    0.23    0.17 
  -2  -6  16    0.03    0.16 
  -1  -6  16    0.84    0.19 
   0   6 -16    0.07    0.17 
   0  -6  16    0.07    0.16 
  -1   6 -16    0.80    0.22 
   1  -6  16    0.72    0.18 
  -2   6 -16    0.06    0.15 
   2  -6  16   -0.01    0.16 
  -3   6 -16    0.13    0.16 
   3  -6  16    0.26    0.17 
   4  -6  16   -0.02    0.16 
  -5   6 -16    0.11    0.17 
   5  -6  16    0.16    0.16 
  -6   6 -16   -0.12    0.16 
  -7   6 -16    0.16    0.15 
  -8   6 -16    0.21    0.17 
  -9   6 -16    0.35    0.18 
  -9  -5  16    0.79    0.29 
  -9  -5  16    0.20    0.20 
  -8  -5  16    0.21    0.20 
  -8  -5  16    0.60    0.26 
  -7  -5  16    0.25    0.19 
  -6  -5  16   -0.17    0.15 
  -5  -5  16    0.17    0.18 
  -4  -5  16    0.02    0.16 
  -3  -5  16    2.04    0.25 
  -2  -5  16    0.27    0.15 
  -1  -5  16    0.08    0.15 
   0  -5  16    0.17    0.15 
   1  -5  16    0.35    0.17 
   1  -5  16    0.17    0.16 
   2  -5  16    0.11    0.16 
   2  -5  16    0.30    0.18 
   3  -5  16    1.89    0.24 
   3  -5  16    1.63    0.29 
   4  -5  16    0.05    0.15 
   4  -5  16    0.03    0.21 
   5  -5  16    0.37    0.17 
   5  -5  16    0.41    0.23 
   6  -5  16   -0.02    0.20 
   7  -5  16    0.18    0.23 
  -9   5 -16    0.39    0.19 
  -9  -4  16    0.18    0.20 
  -8  -4  16    0.43    0.21 
  -7  -4  16    0.28    0.20 
  -6  -4  16    0.15    0.18 
  -5  -4  16    0.16    0.17 
  -4  -4  16    0.04    0.16 
  -3  -4  16    1.39    0.20 
  -2  -4  16    0.94    0.18 
  -1  -4  16    0.23    0.16 
  -1  -4  16    0.31    0.15 
   0  -4  16   -0.11    0.14 
   0  -4  16    0.16    0.14 
   1  -4  16    0.31    0.16 
   1  -4  16    0.28    0.18 
   2  -4  16    0.73    0.23 
   2  -4  16    0.96    0.19 
   3  -4  16    1.00    0.25 
   3  -4  16    1.13    0.21 
   4  -4  16   -0.11    0.20 
   4  -4  16    0.04    0.15 
   5  -4  16   -0.27    0.19 
   5  -4  16    0.20    0.15 
   6  -4  16   -0.22    0.23 
   6  -4  16    0.09    0.14 
   7  -4  16    0.21    0.27 
   8  -4  16    0.11    0.24 
   9  -4  16    0.49    0.23 
  -9  -3  16    0.90    0.23 
  -8  -3  16    0.07    0.19 
  -7  -3  16    0.72    0.22 
  -6  -3  16    1.57    0.25 
  -5  -3  16    0.10    0.16 
  -4  -3  16    0.22    0.16 
  -3  -3  16    0.35    0.16 
  -2  -3  16    0.13    0.14 
  -1  -3  16    1.38    0.19 
  -1  -3  16    1.29    0.22 
   0  -3  16    0.24    0.15 
   0  -3  16   -0.02    0.14 
   1  -3  16    0.93    0.19 
   1  -3  16    1.11    0.22 
   2  -3  16   -0.07    0.14 
   2  -3  16   -0.04    0.18 
   3  -3  16    0.37    0.22 
   3  -3  16    0.04    0.16 
   4  -3  16    0.35    0.22 
   4  -3  16    0.34    0.17 
   5  -3  16    0.25    0.16 
   5  -3  16    0.13    0.22 
   6  -3  16    0.77    0.28 
   6  -3  16    0.87    0.19 
   7  -3  16    0.44    0.28 
   8  -3  16    0.27    0.25 
   9  -3  16    0.60    0.25 
  10  -3  16    0.63    0.26 
  -9  -2  16    0.11    0.18 
  -8  -2  16    0.27    0.20 
  -7  -2  16    0.17    0.19 
  -6  -2  16    0.52    0.20 
  -5  -2  16    1.04    0.21 
  -4  -2  16    0.43    0.16 
  -3  -2  16    0.04    0.13 
  -2  -2  16    0.75    0.17 
  -1  -2  16   -0.15    0.14 
  -1  -2  16    0.03    0.14 
   0  -2  16    0.93    0.19 
   0  -2  16    0.63    0.16 
   1  -2  16    0.11    0.15 
   1  -2  16    0.02    0.14 
   2  -2  16    1.28    0.25 
   2  -2  16    1.02    0.20 
   3  -2  16    0.04    0.20 
   3  -2  16   -0.04    0.14 
   4  -2  16   -0.02    0.15 
   4  -2  16    0.40    0.22 
   5  -2  16    0.54    0.18 
   5  -2  16    0.75    0.27 
   6  -2  16    0.58    0.18 
   6  -2  16    0.47    0.27 
   7  -2  16   -0.03    0.27 
   8  -2  16    0.11    0.24 
   9  -2  16    0.63    0.28 
  10  -2  16    0.77    0.26 
  -9  -1  16    0.99    0.22 
  -8  -1  16    0.54    0.20 
  -7  -1  16    2.05    0.27 
  -6  -1  16    0.52    0.19 
  -5  -1  16    0.63    0.18 
  -4  -1  16    0.10    0.15 
  -3  -1  16   -0.05    0.13 
  -2  -1  16    0.34    0.15 
  -1  -1  16    0.10    0.16 
  -1  -1  16    0.02    0.13 
   0  -1  16   -0.07    0.14 
   0  -1  16    0.01    0.13 
   1  -1  16   -0.04    0.14 
   1  -1  16    0.00    0.15 
   2  -1  16    0.38    0.20 
   2  -1  16    0.54    0.17 
   3  -1  16    0.11    0.21 
   3  -1  16    0.06    0.16 
   4  -1  16   -0.05    0.15 
   4  -1  16   -0.17    0.21 
   5  -1  16    0.75    0.27 
   5  -1  16    0.55    0.17 
   6  -1  16    0.43    0.17 
   6  -1  16    0.51    0.27 
   7  -1  16    0.75    0.30 
   8  -1  16    0.38    0.27 
   9  -1  16    0.84    0.29 
  10  -1  16    0.28    0.26 
  -9   0  16    0.87    0.23 
  -8   0  16   -0.19    0.17 
  -7   0  16    0.12    0.17 
  -6   0  16    1.36    0.22 
  -5   0  16    1.24    0.21 
  -4   0  16    0.36    0.16 
  -3   0  16    2.39    0.22 
  -2   0  16   -0.05    0.15 
  -2   0  16   -0.04    0.13 
  -1   0  16    0.28    0.14 
  -1   0  16    0.07    0.16 
   0   0  16    0.40    0.14 
   0   0  16    0.53    0.16 
   1   0  16    0.13    0.16 
   1   0  16    0.34    0.15 
   2   0  16   -0.10    0.17 
   2   0  16    0.11    0.15 
   3   0  16    2.24    0.30 
   3   0  16    2.70    0.23 
   4   0  16    0.57    0.17 
   4   0  16    0.43    0.24 
   5   0  16    1.16    0.31 
   5   0  16    0.86    0.19 
   6   0  16    0.76    0.29 
   7   0  16    0.50    0.30 
   8   0  16    0.31    0.25 
   9   0  16    0.74    0.27 
  10   0  16    0.66    0.29 
  -9   1  16    1.11    0.25 
  -8   1  16   -0.14    0.16 
  -7   1  16    1.97    0.25 
  -6   1  16    0.49    0.18 
  -5   1  16    0.59    0.17 
  -4   1  16   -0.05    0.13 
  -3   1  16    0.03    0.13 
  -2   1  16    0.43    0.17 
  -2   1  16    0.43    0.15 
  -1   1  16    0.03    0.14 
  -1   1  16   -0.25    0.12 
   0   1  16    0.08    0.13 
   0   1  16    0.05    0.13 
   1   1  16    0.04    0.13 
   1   1  16    0.06    0.15 
   2   1  16    0.43    0.17 
   2   1  16    0.22    0.19 
   3   1  16   -0.25    0.18 
   3   1  16    0.02    0.14 
   4   1  16    0.04    0.22 
   4   1  16    0.22    0.15 
   5   1  16    0.63    0.16 
   5   1  16    0.57    0.28 
   6   1  16    0.27    0.26 
   7   1  16    1.01    0.32 
   8   1  16    0.43    0.27 
   9   1  16    0.51    0.26 
  10   1  16    0.78    0.27 
  -9   2  16    0.13    0.18 
  -8   2  16    0.06    0.16 
  -7   2  16    0.18    0.17 
  -6   2  16    0.48    0.18 
  -5   2  16    0.89    0.18 
  -4   2  16    0.29    0.14 
  -3   2  16    0.08    0.13 
  -2   2  16    0.91    0.21 
  -2   2  16    1.11    0.19 
  -1   2  16   -0.07    0.13 
  -1   2  16    0.00    0.12 
   0   2  16    0.52    0.16 
   0   2  16    0.95    0.20 
   1   2  16    0.09    0.13 
   1   2  16   -0.02    0.14 
   2   2  16    1.11    0.20 
   2   2  16    0.86    0.24 
   3   2  16    0.02    0.20 
   3   2  16    0.06    0.14 
   4   2  16    0.14    0.14 
   4   2  16    0.18    0.21 
   5   2  16    0.77    0.27 
   6   2  16    0.33    0.28 
   7   2  16    0.06    0.25 
   8   2  16    0.32    0.28 
   9   2  16    0.35    0.26 
  10   2  16    0.62    0.27 
  -9   3  16    0.66    0.20 
  -8   3  16    0.34    0.17 
  -7   3  16    0.64    0.18 
  -6   3  16    1.65    0.23 
  -5   3  16    0.11    0.14 
  -4   3  16    0.40    0.15 
  -3   3  16    0.34    0.15 
  -2   3  16    0.07    0.15 
  -2   3  16    0.11    0.14 
  -1   3  16    1.22    0.19 
  -1   3  16    1.34    0.22 
   0   3  16    0.02    0.14 
   0   3  16    0.00    0.15 
   1   3  16    0.86    0.17 
   1   3  16    1.12    0.24 
   2   3  16    0.11    0.15 
   2   3  16   -0.04    0.18 
   3   3  16    0.17    0.15 
   3   3  16    0.27    0.21 
   4   3  16   -0.01    0.22 
   5   3  16   -0.21    0.22 
   6   3  16    0.91    0.29 
   7   3  16    0.48    0.26 
   8   3  16    0.54    0.26 
   9   3  16    0.85    0.28 
  -9   4  16    0.31    0.16 
  -8   4  16    0.32    0.17 
  -7   4  16    0.38    0.17 
  -6   4  16    0.10    0.14 
  -5   4  16    0.03    0.14 
  -4   4  16    0.18    0.13 
  -3   4  16    1.44    0.20 
  -2   4  16    1.40    0.23 
  -2   4  16    1.13    0.19 
  -1   4  16    0.33    0.15 
  -1   4  16    0.29    0.17 
   0   4  16   -0.07    0.13 
   0   4  16   -0.23    0.15 
   1   4  16    0.12    0.14 
   1   4  16    0.15    0.20 
   2   4  16    0.67    0.25 
   2   4  16    0.94    0.20 
   3   4  16    1.28    0.29 
   4   4  16    0.08    0.21 
   5   4  16   -0.20    0.22 
   6   4  16    0.31    0.25 
   7   4  16    0.50    0.25 
   8   4  16    0.66    0.26 
   9   4  16    0.55    0.29 
  -9   5  16    0.20    0.16 
  -8   5  16    0.10    0.16 
  -7   5  16    0.36    0.17 
  -6   5  16    0.03    0.14 
  -5   5  16    0.24    0.15 
  -4   5  16    0.07    0.14 
  -3   5  16    2.02    0.21 
  -3   5  16    2.44    0.24 
  -2   5  16    0.35    0.16 
  -2   5  16    0.46    0.18 
  -1   5  16   -0.17    0.14 
  -1   5  16    0.27    0.19 
   0   5  16   -0.37    0.17 
   0   5  16   -0.15    0.13 
   1   5  16    0.04    0.21 
   1   5  16   -0.17    0.14 
   2   5  16    0.13    0.23 
   3   5  16    1.98    0.28 
   4   5  16    0.06    0.22 
   5   5  16    0.31    0.23 
   6   5  16   -0.13    0.23 
   7   5  16    0.23    0.22 
   8   5  16    0.69    0.27 
   9   5  16    0.72    0.28 
  -8   6  16    0.28    0.16 
  -7   6  16    0.32    0.16 
  -6   6  16    0.11    0.15 
  -5   6  16   -0.03    0.15 
  -4   6  16   -0.02    0.14 
  -3   6  16    0.18    0.15 
  -3   6  16    0.68    0.20 
  -2   6  16    0.10    0.19 
  -2   6  16   -0.04    0.15 
  -1   6  16    1.09    0.26 
  -1   6  16    1.26    0.20 
   0   6  16   -0.04    0.14 
   0   6  16   -0.12    0.21 
   1   6  16    0.63    0.28 
   2   6  16   -0.12    0.22 
   3   6  16    0.35    0.25 
   4   6  16    0.28    0.25 
   5   6  16    0.07    0.25 
   6   6  16   -0.10    0.23 
   7   6  16    0.20    0.24 
   8   6  16    0.77    0.28 
   9   6  16    0.91    0.28 
  -8   7  16    0.30    0.16 
  -7   7  16    0.44    0.17 
  -6   7  16    0.08    0.13 
  -5   7  16    0.44    0.16 
  -4   7  16    0.14    0.14 
  -3   7  16    2.55    0.27 
  -3   7  16    1.84    0.23 
  -2   7  16    0.41    0.21 
  -2   7  16    0.26    0.15 
  -1   7  16    0.89    0.27 
  -1   7  16    0.63    0.17 
   0   7  16   -0.29    0.22 
   1   7  16    0.93    0.29 
   2   7  16    0.43    0.24 
   3   7  16    1.97    0.35 
   4   7  16    0.12    0.24 
   5   7  16    0.47    0.26 
   6   7  16    0.40    0.23 
   7   7  16    0.69    0.23 
   8   7  16    0.46    0.25 
  -8   8  16    0.24    0.16 
  -7   8  16    0.13    0.15 
  -6   8  16    0.31    0.15 
  -5   8  16    0.88    0.18 
  -4   8  16    0.04    0.14 
  -3   8  16    0.16    0.20 
  -3   8  16    0.10    0.15 
  -2   8  16    0.07    0.14 
  -2   8  16    0.29    0.20 
  -1   8  16    0.47    0.24 
   0   8  16    2.00    0.35 
   1   8  16    0.22    0.26 
   2   8  16    0.17    0.23 
   3   8  16    0.06    0.24 
   4   8  16    0.37    0.25 
   5   8  16    0.72    0.27 
   6   8  16    0.55    0.26 
   7   8  16    0.56    0.26 
   8   8  16    0.64    0.23 
  -7   9  16    0.22    0.15 
  -6   9  16    0.18    0.15 
  -5   9  16   -0.14    0.14 
  -4   9  16    0.10    0.15 
  -3   9  16    0.07    0.17 
  -2   9  16    0.22    0.21 
  -1   9  16    0.51    0.24 
   0   9  16   -0.06    0.22 
   1   9  16    0.48    0.25 
   2   9  16   -0.28    0.21 
   3   9  16    0.34    0.24 
   4   9  16   -0.05    0.23 
   5   9  16    0.01    0.24 
   6   9  16    0.44    0.25 
   7   9  16    0.51    0.26 
  -6  10  16    0.44    0.16 
  -5  10  16    0.28    0.16 
  -3  10  16    0.43    0.21 
  -2  10  16    0.47    0.22 
  -1  10  16    0.06    0.20 
   0  10  16   -0.13    0.22 
   1  10  16   -0.09    0.20 
   2  10  16    0.03    0.24 
   3  10  16    0.25    0.24 
   4  10  16    0.09    0.22 
   5  10  16    0.34    0.25 
   6  10  16    0.76    0.24 
   7  10  16    0.89    0.26 
  -6  11  16    0.27    0.15 
  -3  11  16    0.36    0.21 
  -2  11  16    0.15    0.19 
  -1  11  16    0.38    0.21 
   0  11  16   -0.09    0.19 
   1  11  16    0.14    0.21 
   2  11  16    0.34    0.24 
   3  11  16    0.14    0.23 
   4  11  16    0.05    0.25 
   5  11  16    0.21    0.23 
   6  11  16    0.87    0.26 
  -4  12  16    0.64    0.22 
  -3  12  16    0.65    0.21 
  -2  12  16    0.15    0.18 
  -1  12  16    0.19    0.20 
   0  12  16    0.27    0.22 
   1  12  16   -0.05    0.21 
   2  12  16    0.18    0.22 
   3  12  16    0.51    0.25 
   4  12  16    0.41    0.24 
   5  12  16    0.68    0.25 
  -3  13  16    0.66    0.20 
  -2  13  16    0.16    0.20 
  -1  13  16    0.34    0.20 
   0  13  16    0.12    0.19 
   1  13  16    0.26    0.21 
   2  13  16    0.26    0.22 
   3  13  16    0.66    0.24 
   0  14  16    0.18    0.17 
  -2 -13  17    0.36    0.18 
  -1 -13  17    0.25    0.19 
   0 -13  17    0.54    0.20 
   1 -13  17    0.54    0.20 
   2 -13  17    0.26    0.17 
  -4 -12  17    0.62    0.19 
  -3 -12  17    0.50    0.20 
  -2 -12  17    0.42    0.20 
  -1 -12  17    0.01    0.18 
   0 -12  17    0.15    0.19 
   1 -12  17    0.15    0.17 
  -2  12 -17    0.31    0.21 
   2 -12  17    0.50    0.20 
  -3  12 -17    0.17    0.19 
   3 -12  17    0.46    0.18 
  -4  12 -17    0.40    0.20 
   4 -12  17    0.30    0.17 
  -5 -11  17    0.10    0.17 
  -4 -11  17    0.44    0.20 
  -3 -11  17    0.37    0.19 
  -2 -11  17    0.07    0.18 
  -1 -11  17    0.11    0.17 
   0 -11  17    0.18    0.18 
   1 -11  17   -0.05    0.18 
  -2  11 -17    0.44    0.21 
   2 -11  17    0.20    0.20 
  -3  11 -17    0.34    0.20 
   3 -11  17    0.27    0.18 
  -4  11 -17    0.23    0.18 
   4 -11  17    0.26    0.16 
  -5  11 -17    0.19    0.18 
  -6 -10  17    0.48    0.19 
  -5 -10  17    0.14    0.19 
  -4 -10  17    0.38    0.19 
  -3 -10  17   -0.10    0.18 
  -2 -10  17   -0.18    0.17 
  -1 -10  17    0.10    0.18 
   0 -10  17   -0.06    0.19 
  -1  10 -17    0.20    0.20 
   1 -10  17    0.06    0.18 
  -2  10 -17   -0.04    0.18 
   2 -10  17    0.04    0.18 
  -3  10 -17    0.22    0.19 
   3 -10  17    0.30    0.17 
  -4  10 -17   -0.03    0.16 
   4 -10  17    0.21    0.17 
  -5  10 -17    0.34    0.18 
   5 -10  17    0.34    0.17 
  -6  10 -17    0.48    0.19 
  -6  -9  17    0.00    0.17 
  -5  -9  17    0.27    0.18 
  -4  -9  17    0.83    0.22 
  -3  -9  17    0.45    0.20 
  -2  -9  17   -0.03    0.18 
  -1  -9  17   -0.02    0.18 
   0  -9  17   -0.03    0.18 
  -1   9 -17    0.09    0.17 
   1  -9  17    0.07    0.18 
  -2   9 -17    0.10    0.19 
   2  -9  17    0.01    0.16 
  -3   9 -17    0.21    0.19 
   3  -9  17    0.28    0.18 
  -4   9 -17    0.66    0.23 
   4  -9  17    0.44    0.19 
  -5   9 -17    0.55    0.21 
   5  -9  17    0.18    0.17 
  -6   9 -17    0.23    0.18 
  -7  -8  17    0.27    0.19 
  -6  -8  17    0.33    0.19 
  -5  -8  17    0.19    0.18 
  -4  -8  17    0.26    0.18 
  -3  -8  17    0.25    0.19 
  -2  -8  17    0.36    0.20 
  -1  -8  17    0.85    0.22 
   0  -8  17    0.03    0.17 
  -1   8 -17    0.93    0.22 
   1  -8  17    0.65    0.21 
  -2   8 -17    0.10    0.18 
   2  -8  17   -0.08    0.16 
  -3   8 -17    0.31    0.21 
   3  -8  17    0.02    0.17 
  -4   8 -17    0.08    0.19 
   4  -8  17    0.08    0.17 
  -5   8 -17    0.38    0.21 
   5  -8  17    0.45    0.19 
  -6   8 -17    0.17    0.18 
  -7   8 -17    0.37    0.19 
  -7  -7  17   -0.09    0.17 
  -6  -7  17   -0.09    0.19 
  -5  -7  17   -0.07    0.18 
  -4  -7  17    0.07    0.18 
  -3  -7  17    0.85    0.21 
  -2  -7  17   -0.04    0.18 
  -1  -7  17    0.28    0.19 
   0  -7  17    0.17    0.17 
  -1   7 -17    0.47    0.20 
   1  -7  17    0.40    0.19 
  -2   7 -17   -0.07    0.16 
   2  -7  17    0.05    0.17 
  -3   7 -17    0.64    0.22 
   3  -7  17    0.55    0.19 
  -4   7 -17    0.17    0.18 
   4  -7  17   -0.09    0.16 
  -5   7 -17   -0.01    0.17 
   5  -7  17    0.07    0.16 
  -6   7 -17    0.34    0.20 
  -7   7 -17    0.32    0.18 
  -8   7 -17    0.47    0.19 
  -8  -6  17   -0.07    0.17 
  -7  -6  17    0.17    0.18 
  -6  -6  17   -0.14    0.17 
  -5  -6  17    0.05    0.18 
  -4  -6  17    0.35    0.18 
  -3  -6  17    0.56    0.19 
  -2  -6  17    0.13    0.18 
  -1  -6  17    1.93    0.25 
   0   6 -17    0.63    0.20 
   0  -6  17    0.44    0.19 
  -1   6 -17    1.36    0.26 
   1  -6  17    1.49    0.22 
  -2   6 -17    0.35    0.18 
   2  -6  17    0.34    0.18 
  -3   6 -17    0.30    0.20 
   3  -6  17    0.26    0.18 
   4  -6  17   -0.03    0.16 
  -5   6 -17   -0.03    0.18 
   5  -6  17   -0.03    0.16 
  -6   6 -17    0.00    0.16 
  -7   6 -17    0.11    0.17 
  -8   6 -17    0.21    0.17 
  -8  -5  17   -0.13    0.18 
  -7  -5  17    0.03    0.18 
  -6  -5  17   -0.04    0.17 
  -5  -5  17   -0.02    0.17 
  -4  -5  17    1.55    0.24 
  -3  -5  17    0.51    0.19 
  -2  -5  17    0.16    0.15 
  -1  -5  17    0.93    0.20 
   0  -5  17    0.12    0.16 
   1  -5  17    0.68    0.19 
   1  -5  17    0.94    0.23 
   2  -5  17    0.07    0.16 
   2  -5  17    0.11    0.20 
   3  -5  17    0.42    0.18 
   3  -5  17    0.24    0.20 
   4  -5  17    0.80    0.20 
   4  -5  17    0.95    0.26 
   5  -5  17   -0.02    0.16 
   5  -5  17    0.15    0.23 
   6  -5  17    0.02    0.22 
   6  -5  17    0.22    0.16 
   7  -5  17    0.42    0.24 
  -8  -4  17   -0.06    0.20 
  -7  -4  17    0.16    0.19 
  -6  -4  17   -0.12    0.18 
  -5  -4  17   -0.09    0.17 
  -4  -4  17    0.12    0.17 
  -3  -4  17    0.01    0.15 
  -2  -4  17    0.12    0.14 
  -1  -4  17   -0.03    0.15 
   0  -4  17    0.62    0.19 
   0  -4  17    0.42    0.17 
   1  -4  17    0.20    0.19 
   1  -4  17    0.15    0.15 
   2  -4  17   -0.12    0.15 
   2  -4  17    0.31    0.21 
   3  -4  17   -0.20    0.18 
   3  -4  17    0.20    0.16 
   4  -4  17    0.11    0.22 
   4  -4  17    0.37    0.17 
   5  -4  17   -0.01    0.24 
   5  -4  17    0.13    0.16 
   6  -4  17   -0.01    0.15 
   6  -4  17    0.04    0.24 
   7  -4  17    0.15    0.26 
   8  -4  17    0.40    0.26 
   9  -4  17    0.33    0.23 
  -9  -3  17    0.95    0.23 
  -8  -3  17   -0.15    0.17 
  -7  -3  17    0.21    0.21 
  -6  -3  17    0.89    0.23 
  -5  -3  17    0.05    0.17 
  -4  -3  17   -0.06    0.14 
  -3  -3  17   -0.01    0.15 
  -2  -3  17   -0.01    0.14 
  -1  -3  17    0.12    0.14 
   0  -3  17   -0.02    0.14 
   0  -3  17    0.09    0.16 
   1  -3  17    0.18    0.17 
   1  -3  17   -0.10    0.15 
   2  -3  17   -0.04    0.20 
   2  -3  17    0.04    0.15 
   3  -3  17    0.14    0.20 
   3  -3  17    0.18    0.16 
   4  -3  17   -0.14    0.23 
   4  -3  17    0.29    0.17 
   5  -3  17    0.10    0.23 
   5  -3  17    0.09    0.15 
   6  -3  17    0.60    0.26 
   6  -3  17    0.92    0.20 
   7  -3  17    0.14    0.26 
   8  -3  17    0.43    0.29 
   9  -3  17    0.71    0.26 
  -9  -2  17    0.11    0.18 
  -8  -2  17    0.17    0.19 
  -7  -2  17    0.54    0.22 
  -6  -2  17   -0.10    0.18 
  -5  -2  17    0.09    0.17 
  -4  -2  17   -0.06    0.15 
  -3  -2  17    0.11    0.15 
  -2  -2  17    0.55    0.16 
  -1  -2  17    1.10    0.20 
  -1  -2  17    0.47    0.16 
   0  -2  17    0.41    0.17 
   0  -2  17    0.63    0.19 
   1  -2  17    0.54    0.17 
   2  -2  17    0.87    0.19 
   3  -2  17    0.04    0.16 
   3  -2  17    0.27    0.22 
   4  -2  17    0.30    0.24 
   4  -2  17    0.00    0.17 
   5  -2  17    0.09    0.23 
   5  -2  17    0.21    0.16 
   6  -2  17    0.05    0.25 
   6  -2  17    0.17    0.16 
   7  -2  17    0.58    0.28 
   8  -2  17    0.26    0.25 
   9  -2  17    0.79    0.26 
  -9  -1  17    0.30    0.20 
  -8  -1  17   -0.22    0.18 
  -7  -1  17    0.16    0.19 
  -6  -1  17    0.60    0.20 
  -5  -1  17   -0.02    0.16 
  -4  -1  17    0.59    0.18 
  -3  -1  17    0.04    0.14 
  -2  -1  17   -0.07    0.13 
  -1  -1  17    0.24    0.15 
  -1  -1  17    0.75    0.19 
   0  -1  17   -0.05    0.14 
   0  -1  17    0.15    0.16 
   1  -1  17    0.37    0.19 
   1  -1  17    0.41    0.16 
   2  -1  17    0.12    0.20 
   2  -1  17   -0.03    0.15 
   3  -1  17   -0.21    0.21 
   3  -1  17    0.08    0.16 
   4  -1  17    0.87    0.29 
   4  -1  17    0.46    0.19 
   5  -1  17    0.01    0.24 
   5  -1  17    0.23    0.16 
   6  -1  17    0.51    0.27 
   6  -1  17    0.60    0.18 
   7  -1  17    0.20    0.27 
   8  -1  17    0.56    0.26 
   9  -1  17    0.83    0.25 
  -9   0  17    0.48    0.18 
  -8   0  17    0.04    0.19 
  -7   0  17   -0.14    0.15 
  -6   0  17    0.14    0.16 
  -5   0  17   -0.04    0.14 
  -4   0  17   -0.24    0.14 
  -3   0  17   -0.12    0.13 
  -2   0  17   -0.10    0.13 
  -1   0  17    0.17    0.14 
  -1   0  17   -0.14    0.13 
   0   0  17    0.03    0.13 
   0   0  17    0.09    0.15 
   1   0  17   -0.05    0.17 
   1   0  17   -0.03    0.15 
   2   0  17    0.33    0.17 
   2   0  17    0.01    0.19 
   3   0  17    0.05    0.15 
   3   0  17   -0.07    0.21 
   4   0  17   -0.02    0.22 
   4   0  17    0.03    0.16 
   5   0  17   -0.02    0.16 
   5   0  17    0.25    0.27 
   6   0  17    0.19    0.26 
   7   0  17    0.30    0.28 
   8   0  17    0.41    0.24 
   9   0  17    0.57    0.26 
  -9   1  17    0.28    0.17 
  -8   1  17    0.17    0.17 
  -7   1  17   -0.03    0.16 
  -6   1  17    0.55    0.18 
  -5   1  17   -0.09    0.15 
  -4   1  17    0.68    0.18 
  -3   1  17    0.02    0.14 
  -2   1  17    0.01    0.13 
  -1   1  17    0.60    0.17 
  -1   1  17    0.26    0.15 
   0   1  17   -0.17    0.14 
   0   1  17    0.15    0.14 
   1   1  17    0.37    0.16 
   1   1  17    0.51    0.19 
   2   1  17    0.10    0.15 
   2   1  17   -0.19    0.18 
   3   1  17   -0.02    0.20 
   3   1  17    0.14    0.16 
   4   1  17    0.37    0.25 
   4   1  17    0.61    0.18 
   5   1  17   -0.07    0.23 
   6   1  17    0.26    0.27 
   7   1  17    0.00    0.26 
   8   1  17    0.38    0.24 
   9   1  17    0.55    0.25 
  -9   2  17    0.28    0.19 
  -8   2  17    0.24    0.18 
  -7   2  17    0.54    0.18 
  -6   2  17    0.28    0.16 
  -5   2  17    0.17    0.16 
  -4   2  17    0.05    0.14 
  -3   2  17    0.13    0.14 
  -2   2  17    0.49    0.16 
  -1   2  17    0.80    0.17 
  -1   2  17    0.89    0.19 
   0   2  17    0.47    0.17 
   0   2  17    0.60    0.19 
   1   2  17    0.46    0.16 
   1   2  17    0.81    0.23 
   2   2  17    0.57    0.17 
   2   2  17    0.44    0.22 
   3   2  17    0.20    0.16 
   3   2  17    0.16    0.21 
   4   2  17    0.03    0.21 
   5   2  17    0.33    0.25 
   6   2  17    0.03    0.26 
   7   2  17    0.33    0.26 
   8   2  17    0.46    0.27 
   9   2  17    0.95    0.28 
  -9   3  17    0.89    0.21 
  -8   3  17    0.10    0.18 
  -7   3  17   -0.08    0.16 
  -6   3  17    0.88    0.19 
  -5   3  17   -0.08    0.15 
  -4   3  17   -0.11    0.13 
  -3   3  17    0.03    0.14 
  -2   3  17    0.17    0.14 
  -2   3  17   -0.17    0.13 
  -1   3  17    0.02    0.15 
  -1   3  17    0.09    0.14 
   0   3  17   -0.04    0.16 
   0   3  17   -0.12    0.13 
   1   3  17    0.06    0.14 
   1   3  17    0.03    0.17 
   2   3  17   -0.18    0.18 
   2   3  17   -0.03    0.16 
   3   3  17    0.07    0.22 
   4   3  17    0.05    0.22 
   5   3  17    0.03    0.23 
   6   3  17    0.52    0.27 
   7   3  17    0.26    0.26 
   8   3  17    0.11    0.23 
   9   3  17    0.76    0.27 
  -8   4  17    0.18    0.17 
  -7   4  17   -0.05    0.15 
  -6   4  17    0.12    0.17 
  -5   4  17    0.24    0.16 
  -4   4  17    0.28    0.16 
  -3   4  17   -0.02    0.14 
  -2   4  17    0.04    0.15 
  -2   4  17    0.27    0.16 
  -1   4  17    0.40    0.19 
  -1   4  17    0.02    0.14 
   0   4  17    0.30    0.16 
   0   4  17    0.08    0.20 
   1   4  17   -0.14    0.14 
   1   4  17    0.20    0.20 
   2   4  17    0.08    0.21 
   3   4  17    0.11    0.21 
   4   4  17    0.13    0.23 
   5   4  17    0.13    0.25 
   6   4  17    0.51    0.26 
   7   4  17    0.23    0.25 
   8   4  17    0.45    0.25 
   9   4  17    0.73    0.27 
  -8   5  17    0.07    0.17 
  -7   5  17    0.12    0.16 
  -6   5  17    0.26    0.17 
  -5   5  17    0.19    0.16 
  -4   5  17    1.30    0.21 
  -3   5  17    0.29    0.16 
  -2   5  17    0.19    0.18 
  -2   5  17   -0.09    0.15 
  -1   5  17    0.72    0.19 
  -1   5  17    1.14    0.27 
   0   5  17    0.00    0.19 
   0   5  17   -0.12    0.15 
   1   5  17    0.62    0.26 
   2   5  17    0.22    0.24 
   3   5  17    0.29    0.23 
   4   5  17    1.58    0.32 
   5   5  17    0.04    0.22 
   6   5  17    0.21    0.25 
   7   5  17    0.45    0.23 
   8   5  17    0.48    0.25 
  -8   6  17    0.09    0.16 
  -7   6  17    0.15    0.16 
  -6   6  17   -0.04    0.14 
  -5   6  17    0.03    0.15 
  -4   6  17    0.25    0.15 
  -3   6  17    0.28    0.15 
  -2   6  17    0.38    0.17 
  -2   6  17    0.60    0.22 
  -1   6  17    2.09    0.32 
  -1   6  17    1.71    0.23 
   0   6  17    0.62    0.25 
   1   6  17    1.72    0.34 
   2   6  17    0.49    0.26 
   3   6  17    0.60    0.28 
   4   6  17    0.38    0.25 
   5   6  17    0.26    0.24 
   6   6  17   -0.06    0.22 
   7   6  17    0.42    0.23 
   8   6  17    0.43    0.22 
  -7   7  17    0.14    0.15 
  -6   7  17    0.04    0.15 
  -5   7  17    0.18    0.15 
  -4   7  17    0.16    0.15 
  -3   7  17    0.36    0.16 
  -2   7  17    0.25    0.21 
  -2   7  17    0.08    0.15 
  -1   7  17    0.36    0.22 
   0   7  17    0.39    0.24 
   1   7  17    0.51    0.27 
   2   7  17    0.46    0.24 
   3   7  17    1.19    0.30 
   4   7  17    0.22    0.26 
   5   7  17   -0.02    0.24 
   6   7  17    0.52    0.25 
   7   7  17    0.88    0.26 
   8   7  17    0.47    0.22 
  -7   8  17    0.14    0.16 
  -6   8  17    0.18    0.14 
  -5   8  17    0.47    0.17 
  -4   8  17    0.33    0.16 
  -3   8  17    0.65    0.21 
  -3   8  17    0.09    0.15 
  -2   8  17    0.22    0.20 
  -1   8  17    1.14    0.28 
   0   8  17    0.30    0.23 
   1   8  17    0.96    0.29 
   2   8  17    0.51    0.25 
   3   8  17    0.08    0.25 
   4   8  17    0.18    0.25 
   5   8  17    0.49    0.25 
   6   8  17    0.43    0.23 
   7   8  17    0.64    0.24 
  -6   9  17    0.34    0.16 
  -5   9  17    0.17    0.16 
  -4   9  17    0.72    0.19 
  -3   9  17    0.87    0.23 
  -2   9  17    0.54    0.22 
  -1   9  17    0.25    0.21 
   0   9  17    0.29    0.22 
   1   9  17   -0.11    0.21 
   2   9  17    0.08    0.22 
   3   9  17    0.39    0.26 
   4   9  17    0.72    0.27 
   5   9  17   -0.21    0.24 
   6   9  17    0.56    0.26 
   7   9  17    0.88    0.24 
  -6  10  17    0.45    0.16 
  -3  10  17    0.76    0.22 
  -2  10  17    0.25    0.20 
  -1  10  17    0.27    0.20 
   0  10  17    0.35    0.22 
   1  10  17    0.16    0.23 
   2  10  17    0.17    0.24 
   3  10  17    0.26    0.24 
   4  10  17    0.06    0.23 
   5  10  17    0.23    0.22 
   6  10  17    0.73    0.27 
  -3  11  17    0.47    0.21 
  -2  11  17    0.39    0.19 
  -1  11  17    0.41    0.21 
   0  11  17    0.26    0.22 
   1  11  17    0.36    0.23 
   2  11  17    0.22    0.24 
   3  11  17    0.34    0.22 
   4  11  17    0.05    0.22 
   5  11  17    0.66    0.24 
  -3  12  17    0.48    0.19 
  -2  12  17    0.53    0.21 
  -1  12  17   -0.03    0.20 
   0  12  17    0.41    0.22 
   1  12  17    0.52    0.23 
   2  12  17    0.42    0.26 
   3  12  17    0.73    0.26 
   4  12  17    0.69    0.22 
  -1  13  17    0.39    0.19 
   0  13  17    0.31    0.20 
   1  13  17    0.39    0.21 
  -2 -12  18    0.56    0.19 
  -1 -12  18    0.38    0.19 
   0 -12  18    0.18    0.18 
   1 -12  18    0.00    0.18 
   2 -12  18    0.34    0.17 
  -3 -11  18    0.00    0.18 
  -2 -11  18    0.13    0.18 
  -1 -11  18    0.00    0.18 
   0 -11  18    0.17    0.17 
   1 -11  18    0.25    0.20 
  -2  11 -18    0.20    0.21 
   2 -11  18    0.15    0.19 
  -3  11 -18    0.49    0.21 
   3 -11  18    0.40    0.19 
  -4  11 -18    0.28    0.20 
   4 -11  18    0.36    0.18 
  -5 -10  18    0.29    0.19 
  -4 -10  18    0.20    0.19 
  -3 -10  18    0.01    0.19 
  -2 -10  18    0.15    0.18 
  -1 -10  18    0.03    0.19 
   0 -10  18   -0.15    0.17 
   1 -10  18   -0.08    0.19 
  -2  10 -18    0.11    0.18 
   2 -10  18    0.24    0.17 
  -3  10 -18    0.41    0.20 
   3 -10  18    0.56    0.18 
  -4  10 -18    0.24    0.18 
   4 -10  18    0.25    0.17 
  -5  10 -18    0.17    0.17 
   5 -10  18    0.60    0.17 
  -5  -9  18    0.38    0.20 
  -4  -9  18    0.39    0.20 
  -3  -9  18    0.10    0.18 
  -2  -9  18    0.41    0.21 
  -1  -9  18   -0.13    0.17 
   0  -9  18    0.01    0.18 
   1  -9  18    0.12    0.17 
  -2   9 -18    0.45    0.21 
   2  -9  18    0.34    0.18 
  -3   9 -18    0.19    0.18 
   3  -9  18    0.13    0.17 
  -4   9 -18    0.19    0.19 
   4  -9  18    0.24    0.18 
  -5   9 -18    0.57    0.22 
   5  -9  18    0.56    0.18 
  -6   9 -18    0.25    0.19 
  -6  -8  18    0.18    0.19 
  -5  -8  18    0.34    0.19 
  -4  -8  18   -0.10    0.17 
  -3  -8  18    0.52    0.22 
  -2  -8  18    0.35    0.21 
  -1  -8  18   -0.17    0.18 
   0  -8  18    1.24    0.23 
  -1   8 -18    0.16    0.18 
   1  -8  18    0.20    0.18 
  -2   8 -18    0.70    0.23 
   2  -8  18    0.35    0.18 
  -3   8 -18    0.11    0.17 
   3  -8  18   -0.01    0.17 
  -4   8 -18    0.19    0.19 
   4  -8  18    0.49    0.18 
  -5   8 -18    0.44    0.19 
   5  -8  18    0.14    0.16 
  -6   8 -18    0.39    0.20 
  -7  -7  18    0.20    0.18 
  -6  -7  18    0.05    0.19 
  -5  -7  18    0.12    0.17 
  -4  -7  18    0.32    0.20 
  -3  -7  18    0.20    0.19 
  -2  -7  18    1.65    0.25 
  -1  -7  18    0.16    0.17 
   0  -7  18    0.10    0.17 
  -1   7 -18    0.34    0.19 
   1  -7  18    0.25    0.18 
  -2   7 -18    1.26    0.26 
   2  -7  18    0.98    0.23 
  -3   7 -18    0.32    0.21 
   3  -7  18    0.24    0.19 
  -4   7 -18    0.05    0.16 
   4  -7  18    0.22    0.18 
  -5   7 -18   -0.03    0.18 
   5  -7  18    0.46    0.18 
  -6   7 -18    0.04    0.18 
  -7   7 -18    0.44    0.20 
  -7  -6  18    0.37    0.20 
  -6  -6  18    0.02    0.17 
  -5  -6  18   -0.01    0.19 
  -4  -6  18    0.32    0.20 
  -3  -6  18    0.58    0.20 
  -2  -6  18    0.43    0.19 
  -1  -6  18   -0.04    0.17 
   0  -6  18    1.50    0.23 
  -1   6 -18    0.34    0.19 
   1  -6  18    0.10    0.16 
  -2   6 -18    0.27    0.18 
   2  -6  18    0.45    0.18 
  -3   6 -18    0.78    0.22 
   3  -6  18    0.64    0.20 
  -4   6 -18    0.44    0.20 
   4  -6  18    0.27    0.19 
  -5   6 -18    0.16    0.17 
   5  -6  18    0.22    0.17 
  -6   6 -18    0.14    0.17 
  -7   6 -18    0.46    0.19 
  -7  -5  18    0.13    0.19 
  -6  -5  18   -0.01    0.18 
  -5  -5  18    0.41    0.21 
  -4  -5  18    0.49    0.19 
  -3  -5  18   -0.19    0.14 
  -2  -5  18    1.01    0.20 
  -1  -5  18    0.11    0.16 
   0  -5  18   -0.15    0.15 
   1  -5  18    0.33    0.20 
   1  -5  18   -0.02    0.16 
   2  -5  18    0.98    0.24 
   2  -5  18    1.05    0.21 
   3  -5  18    0.14    0.18 
   3  -5  18    0.23    0.19 
   4  -5  18    0.55    0.24 
   4  -5  18    0.52    0.18 
   5  -5  18    0.32    0.22 
   5  -5  18    0.42    0.17 
   6  -5  18    0.18    0.17 
   6  -5  18    0.05    0.21 
   7  -5  18    0.26    0.21 
  -8  -4  18    0.02    0.18 
  -7  -4  18   -0.03    0.17 
  -6  -4  18    0.12    0.19 
  -5  -4  18    0.27    0.20 
  -4  -4  18    0.61    0.19 
  -3  -4  18   -0.06    0.15 
  -2  -4  18    0.71    0.18 
  -1  -4  18    0.18    0.15 
   0  -4  18    0.29    0.18 
   0  -4  18    0.12    0.16 
   1  -4  18    0.33    0.17 
   1  -4  18    0.17    0.20 
   2  -4  18    0.66    0.23 
   2  -4  18    0.60    0.19 
   3  -4  18   -0.04    0.23 
   3  -4  18   -0.03    0.15 
   4  -4  18    0.77    0.21 
   4  -4  18    0.80    0.28 
   5  -4  18    0.10    0.16 
   5  -4  18    0.33    0.24 
   6  -4  18    0.16    0.17 
   6  -4  18    0.43    0.27 
   7  -4  18    0.08    0.22 
   8  -4  18    0.40    0.21 
  -8  -3  18    0.14    0.19 
  -7  -3  18   -0.15    0.19 
  -6  -3  18    0.23    0.19 
  -5  -3  18    0.31    0.18 
  -4  -3  18    0.05    0.15 
  -3  -3  18   -0.02    0.15 
  -2  -3  18   -0.04    0.14 
  -1  -3  18    0.27    0.15 
   0  -3  18    0.31    0.18 
   0  -3  18   -0.02    0.15 
   1  -3  18    0.27    0.20 
   1  -3  18    0.11    0.16 
   2  -3  18   -0.04    0.20 
   2  -3  18    0.19    0.16 
   3  -3  18    0.32    0.17 
   3  -3  18    0.00    0.22 
   4  -3  18    0.37    0.17 
   4  -3  18    0.01    0.23 
   5  -3  18    0.18    0.24 
   5  -3  18    0.33    0.18 
   6  -3  18    0.19    0.24 
   6  -3  18    0.22    0.18 
   7  -3  18    0.32    0.27 
   8  -3  18    0.35    0.24 
  -8  -2  18    0.36    0.18 
  -7  -2  18   -0.01    0.19 
  -6  -2  18    0.21    0.19 
  -5  -2  18    0.29    0.17 
  -4  -2  18   -0.09    0.14 
  -3  -2  18   -0.15    0.14 
  -2  -2  18   -0.06    0.14 
  -1  -2  18    0.14    0.15 
   0  -2  18    0.16    0.16 
   0  -2  18    0.32    0.18 
   1  -2  18    0.23    0.17 
   1  -2  18    0.52    0.23 
   2  -2  18   -0.04    0.15 
   2  -2  18    0.01    0.20 
   3  -2  18    0.10    0.17 
   3  -2  18    0.05    0.21 
   4  -2  18   -0.14    0.21 
   4  -2  18    0.03    0.17 
   5  -2  18    0.14    0.16 
   5  -2  18    0.16    0.24 
   6  -2  18    0.33    0.17 
   6  -2  18    0.02    0.25 
   7  -2  18    0.66    0.27 
   8  -2  18    0.32    0.25 
  -8  -1  18    0.33    0.19 
  -7  -1  18    0.32    0.19 
  -6  -1  18    0.32    0.19 
  -5  -1  18    0.07    0.18 
  -4  -1  18    2.38    0.23 
  -3  -1  18    0.08    0.15 
  -2  -1  18    0.78    0.18 
  -1  -1  18    0.31    0.16 
   0  -1  18   -0.04    0.15 
   0  -1  18   -0.04    0.17 
   1  -1  18    0.42    0.18 
   1  -1  18    0.18    0.21 
   2  -1  18    0.67    0.19 
   2  -1  18    0.99    0.28 
   3  -1  18    0.17    0.24 
   3  -1  18    0.15    0.17 
   4  -1  18    2.53    0.24 
   4  -1  18    2.52    0.32 
   5  -1  18    0.29    0.25 
   5  -1  18    0.38    0.18 
   6  -1  18    0.26    0.27 
   7  -1  18    0.15    0.24 
   8  -1  18    0.58    0.29 
  -8   0  18    0.24    0.19 
  -7   0  18    0.62    0.19 
  -6   0  18    0.38    0.18 
  -5   0  18    0.20    0.17 
  -4   0  18    0.24    0.17 
  -3   0  18    0.44    0.16 
  -2   0  18    0.88    0.18 
  -1   0  18    1.79    0.23 
  -1   0  18    1.60    0.22 
   0   0  18    0.68    0.22 
   0   0  18    0.50    0.17 
   1   0  18    1.83    0.30 
   1   0  18    1.58    0.23 
   2   0  18    1.16    0.28 
   2   0  18    1.12    0.22 
   3   0  18    0.16    0.23 
   3   0  18    0.62    0.19 
   4   0  18    0.43    0.25 
   4   0  18    0.55    0.19 
   5   0  18    0.11    0.27 
   6   0  18    0.39    0.27 
   7   0  18    0.39    0.24 
   8   0  18    0.42    0.24 
   9   0  18    0.77    0.29 
  -8   1  18    0.26    0.17 
  -7   1  18    0.10    0.17 
  -6   1  18    0.40    0.18 
  -5   1  18    0.40    0.18 
  -4   1  18    2.40    0.23 
  -3   1  18    0.09    0.15 
  -2   1  18    0.94    0.18 
  -1   1  18    0.38    0.16 
  -1   1  18    0.24    0.16 
   0   1  18   -0.18    0.15 
   0   1  18    0.22    0.15 
   1   1  18    0.37    0.22 
   1   1  18    0.49    0.18 
   2   1  18    0.72    0.26 
   2   1  18    1.22    0.22 
   3   1  18   -0.07    0.22 
   3   1  18    0.07    0.16 
   4   1  18    2.63    0.33 
   5   1  18    0.13    0.26 
   6   1  18   -0.03    0.27 
   7   1  18    0.49    0.28 
   8   1  18    0.61    0.27 
  -8   2  18    0.33    0.16 
  -7   2  18    0.23    0.19 
  -6   2  18    0.52    0.18 
  -5   2  18    0.03    0.15 
  -4   2  18    0.09    0.15 
  -3   2  18    0.02    0.15 
  -2   2  18    0.06    0.14 
  -1   2  18    0.18    0.15 
  -1   2  18    0.61    0.19 
   0   2  18    0.10    0.15 
   0   2  18    0.25    0.19 
   1   2  18    0.36    0.18 
   1   2  18    0.45    0.22 
   2   2  18    0.14    0.20 
   2   2  18    0.06    0.16 
   3   2  18   -0.07    0.15 
   3   2  18    0.02    0.21 
   4   2  18    0.11    0.25 
   5   2  18    0.22    0.27 
   6   2  18    0.23    0.28 
   7   2  18    0.64    0.29 
   8   2  18    0.34    0.27 
  -8   3  18    0.41    0.18 
  -7   3  18    0.15    0.16 
  -6   3  18    0.15    0.17 
  -5   3  18   -0.05    0.15 
  -4   3  18    0.22    0.16 
  -3   3  18   -0.01    0.15 
  -2   3  18    0.08    0.15 
  -1   3  18    0.39    0.16 
  -1   3  18    0.52    0.18 
   0   3  18   -0.20    0.15 
   0   3  18    0.00    0.17 
   1   3  18    0.33    0.21 
   1   3  18    0.21    0.16 
   2   3  18   -0.30    0.20 
   2   3  18    0.06    0.17 
   3   3  18    0.03    0.21 
   4   3  18    0.46    0.25 
   5   3  18    0.39    0.25 
   6   3  18    0.07    0.25 
   7   3  18    0.10    0.26 
   8   3  18    0.43    0.25 
  -8   4  18    0.25    0.17 
  -7   4  18    0.13    0.16 
  -6   4  18    0.55    0.18 
  -5   4  18    0.11    0.16 
  -4   4  18    0.86    0.20 
  -3   4  18    0.06    0.15 
  -2   4  18    0.65    0.18 
  -1   4  18   -0.08    0.18 
  -1   4  18   -0.03    0.14 
   0   4  18   -0.01    0.20 
   0   4  18    0.02    0.15 
   1   4  18    0.12    0.15 
   1   4  18    0.09    0.20 
   2   4  18    0.66    0.25 
   3   4  18    0.18    0.20 
   4   4  18    0.99    0.29 
   5   4  18    0.15    0.24 
   6   4  18    0.65    0.25 
   7   4  18   -0.08    0.24 
   8   4  18    0.63    0.26 
  -7   5  18    0.17    0.16 
  -6   5  18    0.06    0.15 
  -5   5  18    0.59    0.17 
  -4   5  18    0.61    0.18 
  -3   5  18    0.15    0.16 
  -2   5  18    1.49    0.25 
  -2   5  18    0.70    0.20 
  -1   5  18    0.05    0.16 
  -1   5  18    0.07    0.19 
   0   5  18    0.00    0.16 
   0   5  18   -0.02    0.20 
   1   5  18    0.11    0.21 
   2   5  18    1.38    0.31 
   3   5  18    0.29    0.22 
   4   5  18    0.58    0.27 
   5   5  18    0.15    0.25 
   6   5  18    0.50    0.25 
   7   5  18    0.27    0.23 
   8   5  18    0.78    0.28 
  -7   6  18    0.28    0.17 
  -6   6  18    0.10    0.15 
  -5   6  18    0.01    0.14 
  -4   6  18    0.46    0.16 
  -3   6  18    0.53    0.18 
  -2   6  18    0.34    0.17 
  -2   6  18    0.65    0.21 
  -1   6  18    0.59    0.23 
  -1   6  18    0.03    0.16 
   0   6  18    2.01    0.33 
   1   6  18    0.12    0.23 
   2   6  18    0.06    0.23 
   3   6  18    1.88    0.33 
   4   6  18    0.36    0.26 
   5   6  18    0.23    0.23 
   6   6  18    0.21    0.25 
   7   6  18    0.57    0.25 
  -7   7  18    0.08    0.15 
  -6   7  18    0.19    0.15 
  -5   7  18    0.10    0.15 
  -4   7  18   -0.03    0.16 
  -3   7  18    0.16    0.16 
  -2   7  18    2.26    0.27 
  -1   7  18    0.63    0.24 
   0   7  18    0.40    0.24 
   1   7  18    0.08    0.23 
   2   7  18    1.69    0.32 
   3   7  18    0.91    0.28 
   4   7  18    0.62    0.28 
   5   7  18    0.30    0.24 
   6   7  18    0.14    0.24 
   7   7  18    0.44    0.26 
  -6   8  18    0.27    0.16 
  -5   8  18    0.23    0.16 
  -4   8  18    0.10    0.15 
  -2   8  18    1.11    0.24 
  -1   8  18    0.25    0.23 
   0   8  18    2.25    0.29 
   1   8  18    0.54    0.24 
   2   8  18    1.06    0.27 
   3   8  18    0.43    0.25 
   4   8  18    0.06    0.22 
   5   8  18    0.06    0.21 
   6   8  18    0.44    0.23 
  -5   9  18    0.42    0.17 
  -2   9  18    1.00    0.25 
  -1   9  18    0.57    0.24 
   0   9  18    0.33    0.21 
   1   9  18    0.29    0.22 
   2   9  18    0.77    0.26 
   3   9  18    0.50    0.23 
   4   9  18    0.96    0.26 
   5   9  18    0.22    0.22 
   6   9  18    0.32    0.19 
  -2  10  18    0.48    0.22 
  -1  10  18    0.46    0.20 
   0  10  18    0.28    0.23 
   1  10  18    0.35    0.23 
   2  10  18    0.58    0.25 
   3  10  18    0.88    0.27 
   4  10  18    0.33    0.24 
   5  10  18    0.50    0.20 
  -2  11  18    0.51    0.21 
  -1  11  18    0.31    0.20 
   0  11  18    0.07    0.20 
   1  11  18    0.47    0.23 
   2  11  18    0.46    0.23 
   3  11  18    0.53    0.24 
   4  11  18    0.48    0.25 
  -1  12  18    0.42    0.20 
   0  12  18    0.67    0.23 
   1  12  18    0.53    0.23 
  -1 -11  19    0.18    0.18 
   0 -11  19    0.05    0.18 
   1 -11  19    0.48    0.18 
   2 -11  19    0.58    0.18 
  -3 -10  19    0.54    0.21 
  -2 -10  19   -0.05    0.19 
  -1 -10  19    0.18    0.17 
   0 -10  19    0.08    0.19 
   1 -10  19    0.04    0.18 
   2 -10  19    0.40    0.18 
  -3  10 -19    0.56    0.21 
   3 -10  19    0.56    0.18 
  -4  -9  19   -0.10    0.19 
  -3  -9  19    0.32    0.21 
  -2  -9  19    0.01    0.18 
  -1  -9  19   -0.04    0.19 
   0  -9  19   -0.04    0.18 
   1  -9  19    0.36    0.17 
  -2   9 -19    0.40    0.20 
   2  -9  19    0.21    0.17 
  -3   9 -19    0.40    0.20 
   3  -9  19    0.18    0.18 
  -4   9 -19    0.34    0.20 
   4  -9  19    0.47    0.17 
  -5  -8  19   -0.12    0.18 
  -4  -8  19    0.57    0.21 
  -3  -8  19    0.05    0.19 
  -2  -8  19    0.14    0.19 
  -1  -8  19    0.10    0.18 
   0  -8  19    0.33    0.18 
   1  -8  19    0.04    0.17 
  -2   8 -19    0.42    0.21 
   2  -8  19    0.22    0.19 
  -3   8 -19    0.34    0.20 
   3  -8  19    0.18    0.18 
  -4   8 -19    0.42    0.19 
   4  -8  19    0.33    0.18 
  -5   8 -19    0.39    0.21 
   5  -8  19    0.24    0.17 
  -6  -7  19    0.23    0.21 
  -5  -7  19    0.16    0.19 
  -4  -7  19    0.09    0.18 
  -3  -7  19    0.40    0.21 
  -2  -7  19    0.35    0.20 
  -1  -7  19    0.19    0.17 
   0  -7  19    0.23    0.17 
   1  -7  19    0.19    0.18 
  -2   7 -19    0.65    0.23 
   2  -7  19    0.50    0.20 
  -3   7 -19    0.35    0.21 
   3  -7  19    0.40    0.19 
  -4   7 -19    0.25    0.19 
   4  -7  19    0.39    0.19 
  -5   7 -19    0.15    0.19 
   5  -7  19    0.25    0.17 
  -6   7 -19    0.43    0.21 
  -6  -6  19    0.33    0.20 
  -5  -6  19   -0.04    0.18 
  -4  -6  19    0.18    0.18 
  -3  -6  19   -0.16    0.18 
  -2  -6  19    0.25    0.18 
  -1  -6  19    0.20    0.18 
   0  -6  19    1.46    0.23 
  -1   6 -19    0.22    0.18 
   1  -6  19    0.17    0.18 
  -2   6 -19    0.34    0.19 
   2  -6  19    0.22    0.18 
  -3   6 -19    0.17    0.17 
   3  -6  19    0.08    0.18 
  -4   6 -19    0.19    0.19 
   4  -6  19    0.24    0.18 
  -5   6 -19    0.24    0.17 
   5  -6  19    0.27    0.18 
  -6   6 -19    0.45    0.20 
   6  -6  19    0.49    0.18 
  -7  -5  19    0.09    0.17 
  -6  -5  19    0.29    0.18 
  -5  -5  19    0.09    0.18 
  -4  -5  19   -0.01    0.18 
  -3  -5  19   -0.06    0.15 
  -2  -5  19    0.55    0.18 
  -1  -5  19    0.63    0.20 
   0  -5  19    0.27    0.17 
   1  -5  19    0.69    0.20 
   1  -5  19    1.09    0.24 
   2  -5  19    0.47    0.22 
   2  -5  19    0.36    0.19 
   3  -5  19    0.29    0.21 
   3  -5  19    0.19    0.17 
   4  -5  19    0.02    0.17 
   4  -5  19    0.28    0.21 
   5  -5  19    0.43    0.24 
   5  -5  19    0.21    0.18 
   6  -5  19    0.21    0.16 
   6  -5  19    0.14    0.22 
   7  -5  19    0.29    0.22 
  -7  -4  19    0.24    0.19 
  -6  -4  19    0.00    0.18 
  -5  -4  19    0.11    0.18 
  -4  -4  19   -0.10    0.16 
  -3  -4  19    0.16    0.16 
  -2  -4  19    0.08    0.15 
  -1  -4  19    0.14    0.16 
   0  -4  19    0.12    0.17 
   1  -4  19    0.19    0.17 
   1  -4  19    0.44    0.21 
   2  -4  19    0.07    0.18 
   2  -4  19    0.03    0.20 
   3  -4  19    0.46    0.18 
   3  -4  19    0.01    0.20 
   4  -4  19   -0.09    0.22 
   4  -4  19    0.09    0.16 
   5  -4  19    0.23    0.25 
   5  -4  19    0.35    0.18 
   6  -4  19    0.43    0.17 
   6  -4  19   -0.02    0.24 
   7  -4  19    0.26    0.24 
  -7  -3  19    0.04    0.16 
  -6  -3  19    0.12    0.19 
  -5  -3  19    0.91    0.21 
  -4  -3  19   -0.02    0.15 
  -3  -3  19    0.10    0.15 
  -2  -3  19   -0.20    0.14 
  -1  -3  19    0.04    0.16 
   0  -3  19    0.05    0.16 
   1  -3  19    0.05    0.16 
   1  -3  19    0.47    0.22 
   2  -3  19    0.22    0.18 
   2  -3  19    0.22    0.21 
   3  -3  19    0.10    0.18 
   3  -3  19    0.09    0.22 
   4  -3  19    0.24    0.25 
   4  -3  19    0.15    0.16 
   5  -3  19    0.78    0.27 
   5  -3  19    0.96    0.21 
   6  -3  19    0.11    0.17 
   6  -3  19    0.30    0.25 
   7  -3  19    0.00    0.23 
   8  -3  19    0.21    0.22 
  -7  -2  19    0.05    0.19 
  -6  -2  19    0.86    0.21 
  -5  -2  19    0.03    0.16 
  -4  -2  19    0.00    0.15 
  -3  -2  19    0.21    0.16 
  -2  -2  19   -0.08    0.15 
  -1  -2  19   -0.09    0.14 
   0  -2  19    1.51    0.25 
   0  -2  19    1.08    0.21 
   1  -2  19    0.03    0.18 
   1  -2  19    0.05    0.16 
   2  -2  19   -0.06    0.20 
   2  -2  19    0.23    0.18 
   3  -2  19    0.45    0.23 
   3  -2  19    0.24    0.17 
   4  -2  19    0.12    0.23 
   4  -2  19    0.44    0.18 
   5  -2  19    0.54    0.19 
   5  -2  19    0.23    0.26 
   6  -2  19    0.46    0.25 
   6  -2  19    0.75    0.20 
   7  -2  19    0.33    0.25 
   8  -2  19    0.53    0.24 
  -7  -1  19   -0.10    0.16 
  -6  -1  19    0.03    0.17 
  -5  -1  19    0.23    0.17 
  -4  -1  19    0.23    0.16 
  -3  -1  19    0.06    0.15 
  -2  -1  19   -0.09    0.14 
  -1  -1  19   -0.03    0.14 
   0  -1  19    0.31    0.19 
   0  -1  19    0.27    0.16 
   1  -1  19   -0.02    0.17 
   1  -1  19    0.26    0.22 
   2  -1  19    0.10    0.23 
   2  -1  19    0.18    0.17 
   3  -1  19    0.06    0.23 
   3  -1  19    0.16    0.18 
   4  -1  19    0.45    0.25 
   4  -1  19    0.31    0.18 
   5  -1  19    0.34    0.25 
   5  -1  19    0.36    0.18 
   6  -1  19    0.36    0.26 
   7  -1  19    0.37    0.24 
   8  -1  19    0.89    0.27 
  -7   0  19    0.31    0.17 
  -6   0  19    0.02    0.16 
  -5   0  19   -0.01    0.17 
  -4   0  19    0.21    0.16 
  -3   0  19   -0.14    0.14 
  -2   0  19   -0.13    0.14 
  -1   0  19   -0.04    0.15 
   0   0  19   -0.07    0.19 
   0   0  19    0.02    0.15 
   1   0  19   -0.10    0.18 
   1   0  19    0.05    0.16 
   2   0  19    0.11    0.17 
   2   0  19    0.00    0.22 
   3   0  19    0.17    0.24 
   3   0  19   -0.04    0.16 
   4   0  19    0.03    0.24 
   4   0  19    0.28    0.18 
   5   0  19    0.39    0.25 
   6   0  19    0.19    0.25 
   7   0  19    0.24    0.23 
   8   0  19    0.85    0.24 
  -7   1  19    0.11    0.17 
  -6   1  19    0.10    0.18 
  -5   1  19    0.19    0.17 
  -4   1  19   -0.03    0.16 
  -3   1  19    0.00    0.15 
  -2   1  19    0.05    0.15 
  -1   1  19   -0.04    0.15 
   0   1  19    0.21    0.16 
   0   1  19    0.11    0.18 
   1   1  19    0.03    0.19 
   1   1  19    0.00    0.16 
   2   1  19    0.31    0.24 
   2   1  19    0.18    0.18 
   3   1  19   -0.01    0.23 
   3   1  19    0.14    0.17 
   4   1  19   -0.28    0.24 
   5   1  19    0.55    0.27 
   6   1  19    0.32    0.26 
   7   1  19    0.31    0.27 
   8   1  19    0.64    0.22 
  -7   2  19    0.19    0.17 
  -6   2  19    0.91    0.21 
  -5   2  19    0.12    0.16 
  -4   2  19    0.17    0.17 
  -3   2  19    0.27    0.16 
  -2   2  19   -0.08    0.15 
  -1   2  19    0.05    0.15 
   0   2  19    1.45    0.27 
   0   2  19    1.26    0.21 
   1   2  19   -0.01    0.17 
   1   2  19   -0.02    0.16 
   2   2  19   -0.01    0.17 
   2   2  19   -0.10    0.20 
   3   2  19    0.12    0.24 
   4   2  19    0.75    0.26 
   5   2  19    0.17    0.25 
   6   2  19    0.28    0.25 
   7   2  19    0.48    0.26 
   8   2  19    0.59    0.24 
  -7   3  19    0.07    0.16 
  -6   3  19    0.20    0.17 
  -5   3  19    0.86    0.20 
  -4   3  19    0.01    0.16 
  -3   3  19    0.10    0.16 
  -2   3  19   -0.03    0.14 
  -1   3  19    0.09    0.16 
  -1   3  19    0.21    0.17 
   0   3  19   -0.02    0.15 
   0   3  19    0.16    0.19 
   1   3  19    0.08    0.20 
   1   3  19    0.02    0.16 
   2   3  19    0.00    0.21 
   3   3  19    0.09    0.24 
   4   3  19    0.24    0.22 
   5   3  19    0.76    0.28 
   6   3  19    0.34    0.25 
   7   3  19    0.59    0.27 
  -7   4  19    0.17    0.16 
  -6   4  19    0.19    0.16 
  -5   4  19    0.01    0.16 
  -4   4  19    0.10    0.16 
  -3   4  19   -0.03    0.16 
  -2   4  19   -0.08    0.15 
  -1   4  19    0.04    0.16 
  -1   4  19    0.30    0.19 
   0   4  19    0.38    0.21 
   0   4  19    0.04    0.17 
   1   4  19    0.36    0.23 
   2   4  19    0.18    0.22 
   3   4  19    0.16    0.24 
   4   4  19    0.64    0.25 
   5   4  19    0.58    0.26 
   6   4  19    0.55    0.26 
   7   4  19    0.49    0.23 
  -7   5  19    0.12    0.15 
  -6   5  19    0.16    0.16 
  -5   5  19    0.08    0.16 
  -4   5  19    0.06    0.15 
  -3   5  19    0.12    0.17 
  -2   5  19    0.59    0.18 
  -1   5  19    0.50    0.18 
  -1   5  19    1.28    0.26 
   0   5  19    0.12    0.20 
   1   5  19    0.82    0.27 
   2   5  19    0.78    0.25 
   3   5  19    0.48    0.23 
   4   5  19    0.36    0.25 
   5   5  19    0.50    0.24 
   6   5  19    0.49    0.25 
   7   5  19    0.23    0.20 
  -6   6  19    0.39    0.16 
  -5   6  19    0.32    0.16 
  -4   6  19    0.12    0.16 
  -3   6  19    0.09    0.17 
  -2   6  19    0.08    0.17 
  -1   6  19    0.81    0.24 
   0   6  19    2.20    0.30 
   1   6  19    0.08    0.21 
   2   6  19    0.73    0.26 
   3   6  19    1.12    0.29 
   4   6  19    0.50    0.23 
   5   6  19    0.41    0.23 
   6   6  19    0.27    0.22 
   7   6  19    0.75    0.21 
  -6   7  19    0.18    0.15 
  -5   7  19    0.14    0.15 
  -4   7  19    0.26    0.17 
  -3   7  19    0.12    0.16 
  -1   7  19    0.52    0.22 
   0   7  19    0.52    0.22 
   1   7  19    0.39    0.23 
   2   7  19    0.77    0.27 
   3   7  19    0.68    0.25 
   4   7  19    0.87    0.27 
   5   7  19    0.66    0.23 
   6   7  19    0.03    0.18 
  -5   8  19    0.42    0.17 
  -4   8  19    0.17    0.16 
  -1   8  19    0.47    0.22 
   0   8  19    0.48    0.22 
   1   8  19    0.23    0.21 
   2   8  19    0.54    0.24 
   3   8  19    0.48    0.24 
   4   8  19    0.46    0.25 
   5   8  19    0.72    0.25 
  -2   9  19    0.60    0.22 
  -1   9  19    0.79    0.23 
   0   9  19    0.60    0.22 
   1   9  19    0.47    0.23 
   2   9  19    0.61    0.24 
   3   9  19    0.39    0.23 
   4   9  19    0.78    0.25 
   5   9  19    0.32    0.24 
  -2  10  19    0.84    0.24 
  -1  10  19    0.53    0.21 
   0  10  19    0.34    0.21 
   1  10  19    0.80    0.25 
   2  10  19    0.91    0.26 
   3  10  19    0.70    0.25 
   4  10  19    0.48    0.23 
  -1  11  19    0.54    0.22 
   0  11  19    0.28    0.21 
   1  11  19    0.67    0.24 
   2  11  19    1.10    0.26 
  -1 -10  20    0.35    0.17 
   0 -10  20    0.98    0.20 
   1 -10  20    0.47    0.19 
  -3  -9  20    0.39    0.19 
  -2  -9  20    0.64    0.19 
  -1  -9  20    0.16    0.17 
   0  -9  20    0.19    0.19 
   1  -9  20    0.41    0.17 
   2  -9  20    0.56    0.17 
  -3   9 -20    0.53    0.20 
   3  -9  20    0.63    0.18 
  -4  -8  20    0.55    0.20 
  -3  -8  20    0.25    0.18 
  -2  -8  20    0.08    0.19 
  -1  -8  20    0.15    0.18 
   0  -8  20    0.20    0.16 
   1  -8  20    0.36    0.19 
   2  -8  20    0.46    0.19 
  -3   8 -20    0.44    0.21 
   3  -8  20    0.39    0.18 
  -4   8 -20    0.43    0.21 
   4  -8  20    0.39    0.17 
  -5  -7  20    0.17    0.17 
  -4  -7  20    0.30    0.18 
  -3  -7  20    0.37    0.20 
  -2  -7  20    0.39    0.18 
  -1  -7  20    0.10    0.16 
   0  -7  20    0.65    0.19 
   1  -7  20    0.18    0.18 
  -2   7 -20    0.38    0.19 
   2  -7  20    0.02    0.17 
  -3   7 -20    0.67    0.23 
   3  -7  20    0.58    0.20 
  -4   7 -20    0.51    0.21 
   4  -7  20    0.27    0.18 
  -5   7 -20    0.13    0.18 
   5  -7  20    0.52    0.17 
  -5  -6  20    0.19    0.17 
  -4  -6  20   -0.03    0.18 
  -3  -6  20    0.38    0.18 
  -2  -6  20    0.11    0.17 
  -1  -6  20    0.32    0.18 
   0  -6  20    1.29    0.23 
   1  -6  20    0.29    0.19 
  -2   6 -20    0.26    0.19 
   2  -6  20    0.28    0.19 
  -3   6 -20    0.54    0.21 
   3  -6  20    0.31    0.18 
  -4   6 -20    0.38    0.19 
   4  -6  20    0.26    0.18 
  -5   6 -20    0.21    0.18 
   5  -6  20    0.57    0.19 
  -6  -5  20    0.04    0.17 
  -5  -5  20    0.09    0.19 
  -4  -5  20    0.15    0.17 
  -3  -5  20    0.55    0.19 
  -2  -5  20    0.16    0.16 
  -1  -5  20    0.17    0.18 
   0  -5  20    0.10    0.17 
   1  -5  20    0.09    0.17 
   2  -5  20    0.21    0.19 
   2  -5  20    0.68    0.23 
   3  -5  20    0.25    0.18 
   3  -5  20    0.92    0.24 
   4  -5  20    0.07    0.16 
   4  -5  20    0.26    0.23 
   5  -5  20    0.34    0.18 
   5  -5  20    0.52    0.25 
   6  -5  20    0.46    0.18 
   6  -5  20    0.45    0.23 
  -6  -4  20    0.25    0.16 
  -5  -4  20    0.62    0.20 
  -4  -4  20    0.09    0.16 
  -3  -4  20    0.04    0.15 
  -2  -4  20    0.08    0.16 
  -1  -4  20    0.22    0.18 
   0  -4  20    0.32    0.18 
   1  -4  20    0.47    0.19 
   1  -4  20    0.75    0.23 
   2  -4  20    0.41    0.22 
   2  -4  20    0.42    0.18 
   3  -4  20    0.27    0.17 
   3  -4  20    0.38    0.23 
   4  -4  20    0.08    0.17 
   4  -4  20    0.11    0.22 
   5  -4  20    0.73    0.20 
   5  -4  20    0.63    0.26 
   6  -4  20    0.25    0.24 
   6  -4  20    0.81    0.20 
  -6  -3  20    0.27    0.19 
  -5  -3  20    0.24    0.17 
  -4  -3  20    0.08    0.15 
  -3  -3  20   -0.01    0.16 
  -2  -3  20    0.04    0.16 
  -1  -3  20   -0.12    0.15 
   0  -3  20    0.01    0.17 
   1  -3  20    0.03    0.17 
   1  -3  20    0.27    0.20 
   2  -3  20    0.24    0.17 
   2  -3  20    0.08    0.20 
   3  -3  20    0.51    0.24 
   3  -3  20    0.26    0.18 
   4  -3  20    0.21    0.18 
   4  -3  20    0.43    0.23 
   5  -3  20    0.19    0.24 
   5  -3  20    0.80    0.19 
   6  -3  20    0.57    0.27 
   6  -3  20    0.47    0.19 
   7  -3  20    0.47    0.25 
  -6  -2  20    0.46    0.19 
  -5  -2  20    0.26    0.17 
  -4  -2  20    0.04    0.16 
  -3  -2  20    0.07    0.16 
  -2  -2  20   -0.08    0.15 
  -1  -2  20    0.18    0.17 
   0  -2  20    0.17    0.17 
   1  -2  20    0.19    0.20 
   1  -2  20    0.02    0.16 
   2  -2  20   -0.12    0.15 
   2  -2  20    0.27    0.21 
   3  -2  20    0.24    0.22 
   3  -2  20    0.05    0.17 
   4  -2  20    0.36    0.20 
   4  -2  20    0.63    0.26 
   5  -2  20    0.58    0.19 
   5  -2  20    0.28    0.24 
   6  -2  20    0.75    0.27 
   7  -2  20    0.50    0.24 
  -6  -1  20    0.12    0.17 
  -5  -1  20    0.78    0.21 
  -4  -1  20    0.01    0.16 
  -3  -1  20   -0.01    0.16 
  -2  -1  20   -0.16    0.15 
  -1  -1  20    0.09    0.15 
   0  -1  20    0.21    0.17 
   1  -1  20    0.03    0.17 
   1  -1  20    0.38    0.22 
   2  -1  20    0.10    0.22 
   2  -1  20    0.17    0.18 
   3  -1  20    0.07    0.18 
   3  -1  20   -0.03    0.21 
   4  -1  20    0.19    0.19 
   4  -1  20    0.31    0.23 
   5  -1  20    0.90    0.27 
   6  -1  20    0.47    0.27 
   7  -1  20    0.57    0.26 
  -6   0  20    0.17    0.19 
  -5   0  20    0.19    0.17 
  -4   0  20    0.04    0.16 
  -3   0  20   -0.11    0.15 
  -2   0  20    0.05    0.15 
  -1   0  20   -0.01    0.15 
   0   0  20    1.22    0.22 
   0   0  20    1.84    0.26 
   1   0  20    0.04    0.21 
   1   0  20   -0.12    0.17 
   2   0  20    0.21    0.18 
   2   0  20    0.25    0.22 
   3   0  20   -0.02    0.24 
   3   0  20    0.31    0.18 
   4   0  20    0.24    0.25 
   5   0  20    0.18    0.25 
   6   0  20    0.34    0.26 
   7   0  20    0.38    0.24 
  -6   1  20    0.13    0.17 
  -5   1  20    0.46    0.19 
  -4   1  20    0.11    0.16 
  -3   1  20   -0.05    0.15 
  -2   1  20   -0.01    0.15 
  -1   1  20    0.22    0.17 
   0   1  20    0.20    0.20 
   0   1  20   -0.01    0.16 
   1   1  20    0.30    0.23 
   1   1  20    0.10    0.17 
   2   1  20    0.07    0.22 
   2   1  20    0.06    0.18 
   3   1  20   -0.04    0.22 
   4   1  20    0.22    0.24 
   5   1  20    0.47    0.26 
   6   1  20    0.65    0.29 
   7   1  20    0.40    0.25 
  -6   2  20    0.35    0.18 
  -5   2  20    0.22    0.17 
  -4   2  20   -0.03    0.15 
  -3   2  20    0.02    0.15 
  -2   2  20   -0.03    0.15 
  -1   2  20    0.03    0.16 
   0   2  20    0.44    0.21 
   0   2  20    0.29    0.17 
   1   2  20   -0.15    0.18 
   1   2  20    0.12    0.20 
   2   2  20    0.25    0.22 
   3   2  20    0.15    0.24 
   4   2  20    0.46    0.28 
   5   2  20    0.51    0.28 
   6   2  20    0.27    0.25 
   7   2  20    0.43    0.27 
  -6   3  20    0.39    0.18 
  -5   3  20    0.33    0.17 
  -4   3  20    0.21    0.17 
  -3   3  20   -0.10    0.15 
  -2   3  20   -0.02    0.15 
  -1   3  20   -0.17    0.16 
   0   3  20    0.03    0.19 
   0   3  20   -0.04    0.16 
   1   3  20    0.18    0.21 
   2   3  20    0.30    0.22 
   3   3  20    0.26    0.22 
   4   3  20    0.33    0.24 
   5   3  20    0.59    0.28 
   6   3  20    0.52    0.28 
   7   3  20    0.10    0.23 
  -6   4  20    0.35    0.17 
  -5   4  20    0.67    0.19 
  -4   4  20    0.18    0.16 
  -3   4  20    0.21    0.16 
  -2   4  20   -0.16    0.14 
  -1   4  20    0.46    0.18 
   0   4  20    0.17    0.19 
   1   4  20    0.65    0.25 
   2   4  20    0.15    0.23 
   3   4  20    0.43    0.25 
   4   4  20    0.18    0.21 
   5   4  20    1.23    0.29 
   6   4  20    0.55    0.25 
  -6   5  20    0.14    0.16 
  -5   5  20    0.06    0.15 
  -4   5  20    0.16    0.16 
  -3   5  20    0.21    0.17 
  -2   5  20    0.25    0.17 
   0   5  20    0.43    0.21 
   1   5  20    0.55    0.22 
   2   5  20    0.41    0.21 
   3   5  20    0.74    0.25 
   4   5  20    0.31    0.23 
   5   5  20    0.48    0.26 
   6   5  20    0.40    0.22 
  -5   6  20    0.25    0.17 
  -4   6  20   -0.02    0.16 
  -3   6  20    0.47    0.19 
  -1   6  20    0.74    0.23 
   0   6  20    2.08    0.27 
   1   6  20    0.65    0.24 
   2   6  20    0.61    0.23 
   3   6  20    0.59    0.22 
   4   6  20    0.49    0.23 
   5   6  20    0.57    0.25 
   6   6  20    0.28    0.23 
  -4   7  20    0.40    0.18 
  -1   7  20    0.72    0.23 
   0   7  20    1.04    0.25 
   1   7  20    0.40    0.22 
   2   7  20    0.42    0.23 
   3   7  20    0.70    0.25 
   4   7  20    0.59    0.22 
   5   7  20    0.27    0.21 
  -1   8  20    0.67    0.23 
   0   8  20    0.70    0.23 
   1   8  20    0.36    0.22 
   2   8  20    0.79    0.25 
   3   8  20    0.30    0.24 
   4   8  20    0.54    0.24 
  -1   9  20    0.49    0.21 
   0   9  20    0.57    0.22 
   1   9  20    0.55    0.23 
   2   9  20    0.80    0.25 
   3   9  20    0.69    0.24 
  -1  10  20    0.47    0.22 
   0  10  20    0.78    0.24 
   1  10  20    0.26    0.21 
  -2  -8  21    0.30    0.16 
  -1  -8  21    0.32    0.19 
   0  -8  21    0.21    0.17 
   1  -8  21    0.54    0.18 
   2  -8  21    0.39    0.18 
  -3  -7  21    0.30    0.17 
  -2  -7  21    0.30    0.19 
  -1  -7  21    0.04    0.16 
   0  -7  21    0.39    0.18 
   1  -7  21    0.37    0.19 
   2  -7  21    0.25    0.18 
  -3   7 -21    0.55    0.21 
   3  -7  21    0.35    0.17 
  -4  -6  21    0.12    0.15 
  -3  -6  21    0.02    0.18 
  -2  -6  21    0.19    0.16 
  -1  -6  21    0.54    0.20 
   0  -6  21    0.45    0.18 
   1  -6  21    0.58    0.20 
   2  -6  21   -0.02    0.17 
  -3   6 -21    0.23    0.19 
   3  -6  21    0.41    0.20 
  -4   6 -21    0.30    0.19 
   4  -6  21    0.38    0.19 
  -4  -5  21   -0.09    0.17 
  -3  -5  21    0.16    0.16 
  -2  -5  21    0.15    0.18 
  -1  -5  21    0.06    0.17 
   0  -5  21    0.25    0.18 
   1  -5  21    0.12    0.17 
   2  -5  21    0.45    0.22 
   2  -5  21    0.12    0.18 
   3  -5  21    0.20    0.20 
   3  -5  21    0.32    0.19 
   4  -5  21    0.64    0.23 
   4  -5  21    0.63    0.19 
   5  -5  21    0.42    0.24 
  -5  -4  21    0.51    0.20 
  -4  -4  21    0.22    0.16 
  -3  -4  21   -0.03    0.16 
  -2  -4  21    0.11    0.17 
  -1  -4  21    0.22    0.17 
   0  -4  21    0.40    0.19 
   1  -4  21    0.29    0.18 
   2  -4  21    0.19    0.18 
   2  -4  21    0.51    0.24 
   3  -4  21    0.28    0.18 
   3  -4  21    0.44    0.23 
   4  -4  21    0.32    0.17 
   4  -4  21    0.34    0.25 
   5  -4  21    0.50    0.26 
   5  -4  21    0.32    0.18 
  -5  -3  21    0.21    0.18 
  -4  -3  21   -0.13    0.16 
  -3  -3  21    0.04    0.17 
  -2  -3  21    0.08    0.16 
  -1  -3  21    0.10    0.16 
   0  -3  21    0.22    0.17 
   1  -3  21    0.09    0.17 
   2  -3  21    0.46    0.22 
   2  -3  21    0.26    0.18 
   3  -3  21    0.75    0.24 
   3  -3  21    0.26    0.18 
   4  -3  21    0.42    0.19 
   4  -3  21    0.21    0.24 
   5  -3  21    0.64    0.19 
   5  -3  21    0.36    0.25 
   6  -3  21    0.58    0.26 
  -5  -2  21    0.55    0.18 
  -4  -2  21    0.13    0.16 
  -3  -2  21    0.14    0.17 
  -2  -2  21    0.16    0.15 
  -1  -2  21    0.11    0.16 
   0  -2  21    0.09    0.16 
   1  -2  21    0.11    0.17 
   1  -2  21    0.41    0.22 
   2  -2  21    0.31    0.21 
   2  -2  21    0.15    0.16 
   3  -2  21    0.25    0.18 
   3  -2  21    0.48    0.23 
   4  -2  21    0.68    0.26 
   4  -2  21    0.31    0.19 
   5  -2  21    0.93    0.28 
   6  -2  21    0.62    0.25 
  -5  -1  21    0.12    0.17 
  -4  -1  21   -0.10    0.16 
  -3  -1  21    0.04    0.15 
  -2  -1  21    0.26    0.17 
  -1  -1  21    0.01    0.14 
   0  -1  21   -0.03    0.15 
   1  -1  21    0.28    0.17 
   2  -1  21    0.13    0.17 
   3  -1  21    0.33    0.20 
   3  -1  21    0.38    0.22 
   4  -1  21    0.28    0.18 
   4  -1  21    0.47    0.22 
   5  -1  21    0.42    0.24 
   6  -1  21    0.73    0.26 
  -5   0  21    0.05    0.16 
  -4   0  21   -0.10    0.15 
  -3   0  21    0.04    0.15 
  -2   0  21    0.07    0.16 
  -1   0  21   -0.01    0.15 
   0   0  21    0.01    0.16 
   1   0  21    0.20    0.18 
   1   0  21    0.14    0.21 
   2   0  21    0.13    0.18 
   2   0  21    0.48    0.24 
   3   0  21    0.27    0.19 
   3   0  21    0.21    0.23 
   4   0  21    0.32    0.25 
   5   0  21    0.76    0.26 
   6   0  21    0.23    0.23 
  -5   1  21    0.23    0.17 
  -4   1  21    0.17    0.16 
  -3   1  21    0.14    0.16 
  -2   1  21    0.22    0.16 
  -1   1  21   -0.03    0.15 
   0   1  21   -0.01    0.16 
   1   1  21    0.30    0.22 
   1   1  21    0.07    0.18 
   2   1  21    0.05    0.18 
   2   1  21    0.19    0.23 
   3   1  21    0.61    0.24 
   4   1  21    0.42    0.26 
   5   1  21    0.18    0.25 
   6   1  21    0.21    0.24 
  -5   2  21    0.40    0.19 
  -4   2  21    0.30    0.17 
  -3   2  21    0.27    0.16 
  -2   2  21   -0.02    0.15 
  -1   2  21    0.03    0.16 
   0   2  21    0.23    0.17 
   1   2  21    0.51    0.24 
   1   2  21    0.08    0.18 
   2   2  21    0.27    0.22 
   3   2  21    0.31    0.24 
   4   2  21    0.27    0.25 
   5   2  21    0.74    0.28 
   6   2  21    0.45    0.25 
  -5   3  21    0.19    0.18 
  -4   3  21    0.09    0.16 
  -3   3  21    0.28    0.16 
  -2   3  21    0.11    0.16 
  -1   3  21   -0.04    0.17 
   0   3  21   -0.04    0.17 
   0   3  21    0.31    0.20 
   1   3  21    0.48    0.22 
   2   3  21    0.30    0.20 
   3   3  21    0.55    0.24 
   4   3  21    0.43    0.25 
   5   3  21    0.45    0.26 
   6   3  21    0.90    0.27 
  -5   4  21    0.59    0.19 
  -4   4  21    0.17    0.17 
  -3   4  21   -0.07    0.16 
  -2   4  21    0.13    0.16 
  -1   4  21   -0.06    0.16 
   0   4  21    0.88    0.23 
   1   4  21    0.21    0.21 
   2   4  21    0.49    0.22 
   3   4  21    0.47    0.22 
   4   4  21    0.18    0.22 
   5   4  21    0.61    0.26 
  -4   5  21    0.02    0.17 
  -3   5  21    0.03    0.16 
  -2   5  21    0.34    0.17 
   0   5  21    0.53    0.20 
   1   5  21    0.49    0.21 
   2   5  21    0.66    0.24 
   3   5  21    0.66    0.24 
   4   5  21    0.18    0.22 
   5   5  21    0.55    0.24 
  -4   6  21    0.03    0.15 
  -3   6  21    0.19    0.16 
   0   6  21    0.71    0.23 
   1   6  21    0.69    0.25 
   2   6  21    0.42    0.23 
   3   6  21    0.58    0.22 
   4   6  21    0.39    0.23 
   0   7  21    0.91    0.24 
   1   7  21    0.49    0.22 
   2   7  21    1.00    0.26 
   3   7  21    0.88    0.26 
   4   7  21    0.43    0.21 
   0   8  21    0.75    0.23 
   1   8  21    0.25    0.21 
   2   8  21    0.23    0.21 
  -1  -6  22    0.37    0.16 
   0  -6  22    0.57    0.19 
   1  -6  22    0.40    0.18 
  -2  -5  22    0.29    0.17 
  -1  -5  22    0.52    0.19 
   0  -5  22    0.22    0.18 
   1  -5  22    0.57    0.19 
   2  -5  22    0.07    0.18 
   3  -5  22    0.45    0.22 
   3  -5  22    0.55    0.20 
  -3  -4  22    0.43    0.17 
  -2  -4  22    0.24    0.18 
  -1  -4  22    0.56    0.20 
   0  -4  22    0.40    0.19 
   1  -4  22    0.90    0.21 
   2  -4  22    0.31    0.19 
   3  -4  22    0.45    0.18 
   3  -4  22    0.34    0.22 
   4  -4  22    0.65    0.25 
  -4  -3  22    1.03    0.21 
  -3  -3  22    0.28    0.17 
  -2  -3  22    0.17    0.18 
  -1  -3  22    0.51    0.19 
   0  -3  22    0.30    0.18 
   1  -3  22    0.65    0.19 
   2  -3  22    0.30    0.23 
   2  -3  22    0.25    0.18 
   3  -3  22    0.48    0.18 
   3  -3  22    0.45    0.23 
   4  -3  22    0.79    0.21 
   4  -3  22    0.86    0.26 
  -4  -2  22    0.37    0.18 
  -3  -2  22    0.06    0.17 
  -2  -2  22    0.15    0.16 
  -1  -2  22    0.52    0.19 
   0  -2  22    0.12    0.17 
   1  -2  22    0.45    0.19 
   2  -2  22    0.07    0.17 
   2  -2  22    0.36    0.23 
   3  -2  22    0.29    0.20 
   3  -2  22    0.24    0.19 
   4  -2  22    0.54    0.24 
   4  -2  22    0.49    0.19 
   5  -2  22    0.75    0.24 
  -4  -1  22    0.21    0.16 
  -3  -1  22   -0.16    0.15 
  -2  -1  22    0.06    0.15 
  -1  -1  22    0.13    0.16 
   0  -1  22    0.32    0.17 
   1  -1  22    0.23    0.18 
   2  -1  22    0.56    0.23 
   2  -1  22    0.10    0.17 
   3  -1  22    0.48    0.22 
   3  -1  22    0.08    0.18 
   4  -1  22    0.64    0.25 
   5  -1  22    0.68    0.25 
  -4   0  22    0.12    0.16 
  -3   0  22    0.28    0.17 
  -2   0  22   -0.01    0.15 
  -1   0  22    0.16    0.16 
   0   0  22   -0.06    0.17 
   1   0  22    0.08    0.17 
   2   0  22    0.60    0.25 
   2   0  22    0.25    0.18 
   3   0  22    0.75    0.25 
   4   0  22    0.19    0.23 
   5   0  22    0.30    0.23 
  -4   1  22    0.28    0.17 
  -3   1  22    0.15    0.16 
  -2   1  22    0.15    0.17 
  -1   1  22    0.22    0.17 
   0   1  22    0.15    0.17 
   1   1  22    0.65    0.25 
   1   1  22    0.27    0.19 
   2   1  22    0.53    0.23 
   3   1  22    0.22    0.23 
   4   1  22    0.46    0.26 
   5   1  22    0.72    0.25 
  -4   2  22    0.31    0.18 
  -3   2  22    0.14    0.16 
  -2   2  22   -0.01    0.15 
  -1   2  22    0.35    0.18 
   0   2  22   -0.07    0.16 
   1   2  22    0.82    0.26 
   2   2  22    0.02    0.22 
   3   2  22    0.32    0.23 
   4   2  22    1.04    0.29 
   5   2  22    0.37    0.25 
  -4   3  22    0.61    0.18 
  -3   3  22    0.21    0.16 
  -2   3  22    0.12    0.17 
  -1   3  22    0.26    0.17 
   1   3  22    1.21    0.28 
   2   3  22    0.69    0.24 
   3   3  22    0.37    0.23 
   4   3  22    1.19    0.29 
  -3   4  22    0.15    0.17 
  -2   4  22    0.26    0.17 
   1   4  22    1.14    0.25 
   2   4  22    0.57    0.22 
   3   4  22    0.60    0.23 
   4   4  22    1.41    0.28 
   1   5  22    0.90    0.26 
   2   5  22    0.68    0.25 
   3   5  22    0.68    0.23 
   1   6  22    0.84    0.23 
   2   6  22    0.31    0.20 
   0   7  22    0.70    0.23 
   1   7  22    0.80    0.25 
  -1  -3  23    0.40    0.18 
   0  -3  23    0.46    0.19 
   1  -3  23    0.37    0.18 
  -1  -2  23    0.43    0.19 
   0  -2  23    0.88    0.22 
   1  -2  23    0.53    0.18 
   3  -2  23    0.48    0.26 
  -2  -1  23    0.08    0.15 
  -1  -1  23    0.26    0.18 
   0  -1  23    0.23    0.18 
   1  -1  23    0.32    0.19 
   2  -1  23    0.25    0.18 
   3  -1  23    0.71    0.25 
  -2   0  23    0.08    0.16 
  -1   0  23    0.12    0.16 
   0   0  23    0.23    0.18 
   1   0  23    0.07    0.17 
   2   0  23    0.57    0.24 
   3   0  23    0.35    0.24 
  -2   1  23    0.08    0.16 
  -1   1  23    0.18    0.17 
   0   1  23    0.12    0.18 
   2   1  23    0.42    0.25 
   3   1  23    0.50    0.26 
  -1   2  23    0.43    0.18 
   0   2  23    0.77    0.21 
   2   2  23    0.34    0.24 
   3   2  23    0.43    0.24 
   2   3  23    0.60    0.26 
   1   4  23    0.57    0.24 
   0   0   0    0.00    0.00 
;
_shelx_hkl_checksum              57366
loop_
_space_group_symop_operation_xyz
'x, y, z'
'-x+1/2, -y, z+1/2'
'-x, y+1/2, -z+1/2'
'x+1/2, -y+1/2, -z'
'-x, -y, -z'
'x-1/2, y, -z-1/2'
'x, -y-1/2, z-1/2'
'-x-1/2, y-1/2, z'
loop_
_atom_site_label
_atom_site_type_symbol
_atom_site_fract_x
_atom_site_fract_y
_atom_site_fract_z
_atom_site_U_iso_or_equiv
_atom_site_adp_type
_atom_site_occupancy
_atom_site_site_symmetry_order
_atom_site_calc_flag
_atom_site_refinement_flags_posn
_atom_site_refinement_flags_adp
C1 C 0.8804(3) 0.2156(2) 0.41396(15) 0.0431(7) Uani 1 1 d . .
C2 C 1.0133(3) 0.2383(2) 0.42246(18) 0.0579(9) Uani 1 1 d . .
H2 H 1.0689 0.1976 0.4471 0.069 Uiso 1 1 calc R U
C3 C 1.0611(3) 0.3170(3) 0.39585(19) 0.0640(10) Uani 1 1 d . .
H3 H 1.1495 0.3304 0.4015 0.077 Uiso 1 1 calc R U
C4 C 0.9794(3) 0.3786(2) 0.35991(18) 0.0581(9) Uani 1 1 d . .
H4 H 1.0131 0.4335 0.3415 0.070 Uiso 1 1 calc R U
C5 C 0.8510(3) 0.3598(2) 0.35129(16) 0.0482(8) Uani 1 1 d . .
H5 H 0.7971 0.4023 0.3275 0.058 Uiso 1 1 calc R U
C6 C 0.7976(3) 0.27755(19) 0.37742(14) 0.0375(7) Uani 1 1 d . .
C7 C 0.6631(3) 0.25433(19) 0.36608(14) 0.0381(7) Uani 1 1 d . .
C8 C 0.6188(3) 0.17086(18) 0.38816(14) 0.0365(6) Uani 1 1 d . .
C9 C 0.7025(3) 0.11121(19) 0.42664(15) 0.0466(8) Uani 1 1 d . .
H9 H 0.6706 0.0552 0.4437 0.056 Uiso 1 1 calc R U
C10 C 0.8289(3) 0.1334(2) 0.43952(16) 0.0483(8) Uani 1 1 d . .
H10 H 0.8823 0.0928 0.4660 0.058 Uiso 1 1 calc R U
C11 C 0.4865(3) 0.13647(17) 0.36973(15) 0.0366(6) Uani 1 1 d . .
C12 C 0.4416(3) 0.1373(2) 0.29634(16) 0.0463(8) Uani 1 1 d . .
H12 H 0.4937 0.1624 0.2585 0.056 Uiso 1 1 calc R U
C13 C 0.3227(3) 0.1022(2) 0.27794(18) 0.0558(9) Uani 1 1 d . .
H13 H 0.2944 0.1027 0.2279 0.067 Uiso 1 1 calc R U
C14 C 0.2450(3) 0.0662(2) 0.3333(2) 0.0605(9) Uani 1 1 d . .
H14 H 0.1629 0.0429 0.3213 0.073 Uiso 1 1 calc R U
C15 C 0.2886(3) 0.0648(2) 0.40586(19) 0.0556(9) Uani 1 1 d . .
H15 H 0.2362 0.0395 0.4435 0.067 Uiso 1 1 calc R U
C16 C 0.4074(3) 0.0995(2) 0.42453(16) 0.0463(8) Uani 1 1 d . .
H16 H 0.4354 0.0982 0.4747 0.056 Uiso 1 1 calc R U
C17 C 0.5776(3) 0.3224(2) 0.32963(17) 0.0453(7) Uani 1 1 d . .
H17 H 0.5878 0.3274 0.2746 0.054 Uiso 1 1 calc R U
C18 C 0.5501(3) 0.4108(2) 0.3694(2) 0.0646(10) Uani 1 1 d . .
H18A H 0.5848 0.4187 0.4201 0.077 Uiso 1 1 calc R U
H18B H 0.5473 0.4663 0.3391 0.077 Uiso 1 1 calc R U
C19 C 0.4437(3) 0.3423(2) 0.3584(2) 0.0569(9) Uani 1 1 d . .
H19A H 0.4137 0.3087 0.4026 0.068 Uiso 1 1 calc R U
H19B H 0.3762 0.3563 0.3215 0.068 Uiso 1 1 calc R U
loop_
_atom_site_aniso_label
_atom_site_aniso_U_11
_atom_site_aniso_U_22
_atom_site_aniso_U_33
_atom_site_aniso_U_23
_atom_site_aniso_U_13
_atom_site_aniso_U_12
C1 0.0332(15) 0.0535(19) 0.0425(15) -0.0141(14) -0.0050(13) 0.0077(14)
C2 0.0450(19) 0.070(2) 0.058(2) -0.0186(17) -0.0071(16) 0.0078(18)
C3 0.0369(19) 0.091(3) 0.064(2) -0.027(2) 0.0054(16) -0.0099(19)
C4 0.053(2) 0.064(2) 0.0572(19) -0.0159(16) 0.0111(17) -0.0146(18)
C5 0.0430(18) 0.0531(19) 0.0485(17) -0.0061(13) 0.0060(14) -0.0055(15)
C6 0.0321(16) 0.0424(17) 0.0379(14) -0.0120(12) 0.0046(12) -0.0006(12)
C7 0.0362(15) 0.0448(17) 0.0333(14) -0.0010(12) 0.0008(12) 0.0036(13)
C8 0.0361(15) 0.0396(16) 0.0338(14) -0.0011(11) 0.0005(12) 0.0007(13)
C9 0.0528(19) 0.0396(17) 0.0474(16) 0.0030(13) -0.0071(14) 0.0017(15)
C10 0.0479(19) 0.0480(19) 0.0491(17) -0.0036(14) -0.0116(14) 0.0111(16)
C11 0.0363(15) 0.0338(15) 0.0399(15) 0.0015(11) 0.0003(12) 0.0013(12)
C12 0.0459(18) 0.0484(19) 0.0447(16) 0.0024(13) -0.0015(14) -0.0033(15)
C13 0.054(2) 0.054(2) 0.0593(19) 0.0027(15) -0.0193(17) -0.0041(17)
C14 0.0426(19) 0.052(2) 0.087(2) 0.0085(18) -0.0110(18) -0.0050(16)
C15 0.0451(19) 0.054(2) 0.068(2) 0.0127(16) 0.0090(17) -0.0056(16)
C16 0.0463(19) 0.0456(18) 0.0471(17) 0.0032(13) -0.0002(14) -0.0017(15)
C17 0.0394(17) 0.0467(18) 0.0499(16) 0.0083(14) -0.0015(14) 0.0035(14)
C18 0.054(2) 0.0397(19) 0.100(3) 0.0027(17) -0.0045(19) 0.0047(16)
C19 0.0439(19) 0.047(2) 0.080(2) 0.0074(15) 0.0014(17) 0.0097(15)
loop_
_atom_type_symbol
_atom_type_description
_atom_type_scat_dispersion_real
_atom_type_scat_dispersion_imag
_atom_type_scat_source
C C 0.0033 0.0016 'International Tables Vol C Tables 4.2.6.8 and 6.1.1.4'
H H 0.0000 0.0000 'International Tables Vol C Tables 4.2.6.8 and 6.1.1.4'
loop_
_geom_angle_atom_site_label_1
_geom_angle_atom_site_label_2
_geom_angle_atom_site_label_3
_geom_angle
C10 C1 C6 118.8(3)
C10 C1 C2 122.4(3)
C6 C1 C2 118.8(3)
C3 C2 C1 121.3(3)
C3 C2 H2 119.4
C1 C2 H2 119.4
C2 C3 C4 120.0(3)
C2 C3 H3 120.0
C4 C3 H3 120.0
C5 C4 C3 120.5(3)
C5 C4 H4 119.8
C3 C4 H4 119.8
C4 C5 C6 121.2(3)
C4 C5 H5 119.4
C6 C5 H5 119.4
C1 C6 C5 118.2(3)
C1 C6 C7 119.6(3)
C5 C6 C7 122.2(3)
C8 C7 C6 119.5(2)
C8 C7 C17 122.2(3)
C6 C7 C17 118.2(2)
C7 C8 C9 119.7(3)
C7 C8 C11 123.1(2)
C9 C8 C11 117.1(2)
C10 C9 C8 121.2(3)
C10 C9 H9 119.4
C8 C9 H9 119.4
C9 C10 C1 121.0(3)
C9 C10 H10 119.5
C1 C10 H10 119.5
C16 C11 C12 118.1(3)
C16 C11 C8 121.2(2)
C12 C11 C8 120.7(2)
C13 C12 C11 121.4(3)
C13 C12 H12 119.3
C11 C12 H12 119.3
C12 C13 C14 119.7(3)
C12 C13 H13 120.2
C14 C13 H13 120.2
C15 C14 C13 119.4(3)
C15 C14 H14 120.3
C13 C14 H14 120.3
C16 C15 C14 121.2(3)
C16 C15 H15 119.4
C14 C15 H15 119.4
C15 C16 C11 120.2(3)
C15 C16 H16 119.9
C11 C16 H16 119.9
C7 C17 C19 121.9(3)
C7 C17 C18 119.3(3)
C19 C17 C18 59.9(2)
C7 C17 H17 114.9
C19 C17 H17 114.9
C18 C17 H17 114.9
C19 C18 C17 59.9(2)
C19 C18 H18A 117.8
C17 C18 H18A 117.8
C19 C18 H18B 117.8
C17 C18 H18B 117.8
H18A C18 H18B 114.9
C17 C19 C18 60.2(2)
C17 C19 H19A 117.7
C18 C19 H19A 117.7
C17 C19 H19B 117.7
C18 C19 H19B 117.7
H19A C19 H19B 114.9
loop_
_geom_bond_atom_site_label_1
_geom_bond_atom_site_label_2
_geom_bond_distance
C1 C10 1.384(4)
C1 C6 1.396(4)
C1 C2 1.407(4)
C2 C3 1.333(5)
C2 H2 0.9300
C3 C4 1.381(5)
C3 H3 0.9300
C4 C5 1.349(4)
C4 H4 0.9300
C5 C6 1.396(4)
C5 H5 0.9300
C6 C7 1.430(4)
C7 C8 1.356(4)
C7 C17 1.470(4)
C8 C9 1.396(4)
C8 C11 1.479(4)
C9 C10 1.352(4)
C9 H9 0.9300
C10 H10 0.9300
C11 C16 1.371(4)
C11 C12 1.374(4)
C12 C13 1.358(4)
C12 H12 0.9300
C13 C14 1.363(5)
C13 H13 0.9300
C14 C15 1.357(5)
C14 H14 0.9300
C15 C16 1.356(4)
C15 H15 0.9300
C16 H16 0.9300
C17 C19 1.489(4)
C17 C18 1.495(4)
C17 H17 0.9800
C18 C19 1.489(4)
C18 H18A 0.9700
C18 H18B 0.9700
C19 H19A 0.9700
C19 H19B 0.9700
loop_
_geom_torsion_atom_site_label_1
_geom_torsion_atom_site_label_2
_geom_torsion_atom_site_label_3
_geom_torsion_atom_site_label_4
_geom_torsion
C10 C1 C2 C3 178.5(3)
C6 C1 C2 C3 -0.6(4)
C1 C2 C3 C4 0.8(5)
C2 C3 C4 C5 -0.1(5)
C3 C4 C5 C6 -0.8(4)
C10 C1 C6 C5 -179.4(2)
C2 C1 C6 C5 -0.3(4)
C10 C1 C6 C7 -1.1(4)
C2 C1 C6 C7 178.0(2)
C4 C5 C6 C1 1.0(4)
C4 C5 C6 C7 -177.3(3)
C1 C6 C7 C8 -2.7(4)
C5 C6 C7 C8 175.5(2)
C1 C6 C7 C17 178.0(2)
C5 C6 C7 C17 -3.7(4)
C6 C7 C8 C9 4.7(4)
C17 C7 C8 C9 -176.1(2)
C6 C7 C8 C11 -171.7(2)
C17 C7 C8 C11 7.5(4)
C7 C8 C9 C10 -2.9(4)
C11 C8 C9 C10 173.7(2)
C8 C9 C10 C1 -0.9(4)
C6 C1 C10 C9 2.9(4)
C2 C1 C10 C9 -176.1(3)
C7 C8 C11 C16 -131.0(3)
C9 C8 C11 C16 52.6(4)
C7 C8 C11 C12 51.8(4)
C9 C8 C11 C12 -124.7(3)
C16 C11 C12 C13 -0.4(4)
C8 C11 C12 C13 177.0(3)
C11 C12 C13 C14 0.8(5)
C12 C13 C14 C15 -1.0(5)
C13 C14 C15 C16 0.8(5)
C14 C15 C16 C11 -0.4(5)
C12 C11 C16 C15 0.2(4)
C8 C11 C16 C15 -177.2(3)
C8 C7 C17 C19 44.5(4)
C6 C7 C17 C19 -136.2(3)
C8 C7 C17 C18 115.4(3)
C6 C7 C17 C18 -65.4(3)
C7 C17 C18 C19 -112.1(3)
C7 C17 C19 C18 107.7(3)
