#------------------------------------------------------------------------------
#$Date: 2017-09-12 06:57:32 +0300 (Tue, 12 Sep 2017) $
#$Revision: 200717 $
#$URL: file:///home/coder/svn-repositories/cod/cif/1/54/64/1546406.cif $
#------------------------------------------------------------------------------
#
# This file is available in the Crystallography Open Database (COD),
# http://www.crystallography.net/
#
# All data on this site have been placed in the public domain by the
# contributors.
#
data_1546406
loop_
_publ_author_name
'Ou, Chang-Jin'
'Ding, Xue-Hua'
'Li, Yin-Xiang'
'Zhu, Can'
'Yu, Meng-Na'
'Xie, Ling-Hai'
'Lin, Jin-Yi'
'Xu, Chun-Xiang'
'Huang, Wei'
_publ_section_title
;
 Conformational Effect of Polymorphic Terfluorene on Photophysics, Crystal
 Morphologies, and Lasing Behaviors
;
_journal_issue                   27
_journal_name_full               'The Journal of Physical Chemistry C'
_journal_page_first              14803
_journal_paper_doi               10.1021/acs.jpcc.7b03366
_journal_volume                  121
_journal_year                    2017
_chemical_formula_moiety         'C45 H38'
_chemical_formula_sum            'C45 H38'
_chemical_formula_weight         578.75
_space_group_crystal_system      orthorhombic
_space_group_IT_number           60
_space_group_name_Hall           '-P 2n 2ab'
_space_group_name_H-M_alt        'P b c n'
_symmetry_space_group_name_Hall  '-P 2n 2ab'
_symmetry_space_group_name_H-M   'P b c n'
_atom_sites_solution_hydrogens   difmap
_atom_sites_solution_primary     direct
_audit_creation_date             2016-08-27
_audit_creation_method
;
Olex2 1.2
(compiled 2016.02.19 svn.r3266 for OlexSys, GUI svn.r5155)
;
_cell_angle_alpha                90
_cell_angle_beta                 90
_cell_angle_gamma                90
_cell_formula_units_Z            4
_cell_length_a                   8.6787(8)
_cell_length_b                   23.1736(19)
_cell_length_c                   16.1895(14)
_cell_measurement_reflns_used    7391
_cell_measurement_temperature    298
_cell_measurement_theta_max      26.10
_cell_measurement_theta_min      2.16
_cell_volume                     3256.0(5)
_computing_molecular_graphics    'Olex2 (Dolomanov et al., 2009)'
_computing_publication_material  'Olex2 (Dolomanov et al., 2009)'
_computing_structure_refinement  'ShelXL (Sheldrick, 2015)'
_computing_structure_solution    'ShelXS (Sheldrick, 2008)'
_diffrn_ambient_temperature      298.41
_diffrn_detector                 'CCD area detector'
_diffrn_detector_area_resol_mean 5.6
_diffrn_detector_type            'Bruker SMART CCD 6000 area detector'
_diffrn_measured_fraction_theta_full 0.999
_diffrn_measured_fraction_theta_max 0.998
_diffrn_measurement_device       'three-circle diffractometer'
_diffrn_measurement_device_type  'Bruker SMART CCD 6000 area detector'
_diffrn_measurement_method       '\w scans'
_diffrn_radiation_monochromator  graphite
_diffrn_radiation_probe          x-ray
_diffrn_radiation_type           MoK\a
_diffrn_radiation_wavelength     0.71073
_diffrn_reflns_av_R_equivalents  0.0473
_diffrn_reflns_av_unetI/netI     0.0281
_diffrn_reflns_Laue_measured_fraction_full 0.999
_diffrn_reflns_Laue_measured_fraction_max 0.998
_diffrn_reflns_limit_h_max       10
_diffrn_reflns_limit_h_min       -10
_diffrn_reflns_limit_k_max       28
_diffrn_reflns_limit_k_min       -28
_diffrn_reflns_limit_l_max       20
_diffrn_reflns_limit_l_min       -15
_diffrn_reflns_number            23724
_diffrn_reflns_point_group_measured_fraction_full 0.999
_diffrn_reflns_point_group_measured_fraction_max 0.998
_diffrn_reflns_theta_full        25.242
_diffrn_reflns_theta_max         26.388
_diffrn_reflns_theta_min         2.161
_diffrn_source                   'sealed X-ray tube'
_diffrn_source_target            Mo
_exptl_absorpt_coefficient_mu    0.066
_exptl_absorpt_correction_T_max  0.7454
_exptl_absorpt_correction_T_min  0.6235
_exptl_absorpt_correction_type   multi-scan
_exptl_absorpt_process_details   'SADABS 2014/5'
_exptl_crystal_colour            colourless
_exptl_crystal_colour_primary    colourless
_exptl_crystal_density_diffrn    1.181
_exptl_crystal_description       needle
_exptl_crystal_F_000             1232
_exptl_crystal_size_max          0.41
_exptl_crystal_size_mid          0.25
_exptl_crystal_size_min          0.12
_refine_diff_density_max         0.197
_refine_diff_density_min         -0.212
_refine_diff_density_rms         0.041
_refine_ls_extinction_method     none
_refine_ls_goodness_of_fit_ref   1.053
_refine_ls_hydrogen_treatment    refall
_refine_ls_matrix_type           full
_refine_ls_number_parameters     280
_refine_ls_number_reflns         3327
_refine_ls_number_restraints     0
_refine_ls_restrained_S_all      1.053
_refine_ls_R_factor_all          0.0708
_refine_ls_R_factor_gt           0.0459
_refine_ls_shift/su_max          0.000
_refine_ls_shift/su_mean         0.000
_refine_ls_structure_factor_coef Fsqd
_refine_ls_weighting_details
'w=1/[\s^2^(Fo^2^)+(0.0502P)^2^+0.6504P] where P=(Fo^2^+2Fc^2^)/3'
_refine_ls_weighting_scheme      calc
_refine_ls_wR_factor_gt          0.1008
_refine_ls_wR_factor_ref         0.1123
_reflns_Friedel_coverage         0.000
_reflns_number_gt                2442
_reflns_number_total             3327
_reflns_threshold_expression     'I > 2\s(I)'
_cod_data_source_file            jp7b03366_si_002.cif
_cod_data_source_block           1
_cod_depositor_comments
'Adding full bibliography for 1546404--1546406.cif.'
_cod_database_code               1546406
_shelx_space_group_comment
;
The symmetry employed for this shelxl refinement is uniquely defined
by the following loop, which should always be used as a source of
symmetry information in preference to the above space-group names.
They are only intended as comments.
;
_olex2_refinement_description
;
;
_shelx_res_file
;
    1.res created by SHELXL-2014/7

TITL 1 in Pbcn #60
REM reset to Pbcn #60
CELL 0.71073 8.6787 23.1736 16.1895 90 90 90
ZERR 4 0.0008 0.0019 0.0014 0 0 0
LATT 1
SYMM 0.5-X,0.5-Y,0.5+Z
SYMM 0.5+X,0.5-Y,-Z
SYMM -X,+Y,0.5-Z
SFAC C H
UNIT 180 152

L.S. 10
PLAN  20
TEMP 25.26
CONF
BOND $H
BOND
fmap 2
acta
OMIT 0 0 2
OMIT 0 2 0
REM <olex2.extras>
REM <HklSrc "%.\\1.hkl">
REM </olex2.extras>

WGHT    0.050200    0.650400
FVAR       0.15718
C2C   1    0.039425    0.180463   -0.135435    11.00000    0.05317    0.07038 =
         0.05124    0.00333   -0.00365    0.00140
H2C   2    0.072909    0.213997   -0.169025    11.00000    0.05884
C3C   1   -0.108900    0.157914   -0.140516    11.00000    0.04838    0.09021 =
         0.06210   -0.00509   -0.01087    0.00842
H3C   2   -0.181793    0.175967   -0.179296    11.00000    0.07943
C4C   1   -0.153849    0.112793   -0.090858    11.00000    0.04358    0.08155 =
         0.06725   -0.01650   -0.00134   -0.00572
H4C   2   -0.259545    0.097330   -0.095993    11.00000    0.07926
C5C   1   -0.052719    0.088558   -0.035062    11.00000    0.04551    0.06145 =
         0.05677   -0.01053    0.00234   -0.01047
H5C   2   -0.086257    0.056058    0.000972    11.00000    0.07178
C6C   1    0.096330    0.109809   -0.031092    11.00000    0.04227    0.04699 =
         0.04023   -0.01139    0.00204   -0.00528
C7C   1    0.228002    0.091552    0.018570    11.00000    0.04497    0.04062 =
         0.03682   -0.00625    0.00319   -0.00739
C8C   1    0.242907    0.047640    0.076356    11.00000    0.05170    0.04567 =
         0.04682   -0.00005    0.00449   -0.01584
H8C   2    0.152036    0.023624    0.089932    11.00000    0.05383
C9C   1    0.382620    0.039620    0.114720    11.00000    0.05908    0.04351 =
         0.04393    0.00547   -0.00014   -0.00960
H9C   2    0.395160    0.009659    0.157212    11.00000    0.06094
C10C  1    0.510051    0.074367    0.097211    11.00000    0.05090    0.03994 =
         0.03805   -0.00177   -0.00122   -0.00611
C11C  1    0.493124    0.119148    0.039843    11.00000    0.04545    0.04104 =
         0.04008   -0.00040   -0.00049   -0.01141
H11C  2    0.580084    0.144439    0.027853    11.00000    0.04263
C12C  1    0.353330    0.127263    0.000679    11.00000    0.04303    0.03898 =
         0.03478   -0.00306    0.00142   -0.00634
C13C  1    0.308885    0.172672   -0.063080    11.00000    0.04331    0.04330 =
         0.04121    0.00184    0.00002   -0.00491
C14C  1    0.142359    0.156173   -0.080576    11.00000    0.04329    0.05050 =
         0.03906   -0.00672   -0.00039   -0.00070
C15C  1    0.317823    0.233439   -0.025655    11.00000    0.06314    0.04407 =
         0.06161   -0.00021   -0.00515   -0.00394
H15A  2    0.255799    0.235282    0.028368    11.00000    0.06727
H15B  2    0.276325    0.262309   -0.065092    11.00000    0.07318
H15C  2    0.429057    0.242926   -0.009296    11.00000    0.06880
C16C  1    0.408570    0.168829   -0.141001    11.00000    0.05105    0.06082 =
         0.04847    0.00973    0.00713   -0.00212
H16A  2    0.371523    0.198816   -0.184633    11.00000    0.07121
H16B  2    0.405677    0.129244   -0.166468    11.00000    0.06110
H16C  2    0.516822    0.178387   -0.128034    11.00000    0.06802
C17C  1    0.658398    0.063395    0.139646    11.00000    0.05364    0.04083 =
         0.03543    0.00076   -0.00117   -0.00434
C18C  1    0.706752    0.006381    0.153037    11.00000    0.05688    0.03741 =
         0.04456   -0.00415   -0.00355   -0.00715
H18C  2    0.641157   -0.024829    0.130431    11.00000    0.05199
C19C  1    0.840637   -0.005943    0.195682    11.00000    0.05869    0.03025 =
         0.04506   -0.00176    0.00087   -0.00094
H19C  2    0.874217   -0.046402    0.202850    11.00000    0.05271
C20C  1    0.929413    0.039161    0.225787    11.00000    0.05151    0.03303 =
         0.03405   -0.00132    0.00046    0.00038
C21C  1    0.885709    0.096424    0.210595    11.00000    0.05226    0.03374 =
         0.03420    0.00012   -0.00311   -0.00185
C22C  1    0.751697    0.108268    0.168373    11.00000    0.05645    0.03392 =
         0.04065    0.00236   -0.00744   -0.00235
H22C  2    0.717332    0.148023    0.158925    11.00000    0.05333
C23C  1    1.000000    0.138197    0.250000    10.50000    0.05425    0.03013 =
         0.03900    0.00000   -0.00837    0.00000
C24C  1    1.080702    0.176520    0.185965    11.00000    0.06615    0.04098 =
         0.04910    0.00590   -0.00503   -0.00400
H24A  2    1.155871    0.204471    0.215788    11.00000    0.06961
H24B  2    1.000200    0.200011    0.152654    11.00000    0.07505
H24C  2    1.141556    0.152171    0.144049    11.00000    0.07567
HKLF 4

REM  1 in Pbcn #60
REM R1 =  0.0459 for    2442 Fo > 4sig(Fo)  and  0.0708 for all    3327 data
REM    280 parameters refined using      0 restraints

END

WGHT      0.0502      0.6503

REM Highest difference peak  0.197,  deepest hole -0.212,  1-sigma level  0.041
Q1    1   0.5000  0.1919  0.2500  10.50000  0.05    0.20
Q2    1   0.3253  0.0364  0.1991  11.00000  0.05    0.13
Q3    1   0.3947  0.0427  0.2385  11.00000  0.05    0.12
Q4    1   0.0758  0.1925 -0.2021  11.00000  0.05    0.12
Q5    1   0.6176  0.0757  0.2608  11.00000  0.05    0.12
Q6    1   0.4986  0.0635  0.2170  11.00000  0.05    0.12
Q7    1   0.4148  0.2297  0.0824  11.00000  0.05    0.12
Q8    1   0.6077 -0.0313  0.0523  11.00000  0.05    0.11
Q9    1   0.6608  0.0406  0.1623  11.00000  0.05    0.11
Q10   1   0.4447  0.0159  0.0036  11.00000  0.05    0.11
Q11   1   0.3682  0.0761  0.2071  11.00000  0.05    0.11
Q12   1   0.5000  0.0265  0.2500  10.50000  0.05    0.11
Q13   1  -0.0055  0.0170  0.1157  11.00000  0.05    0.11
Q14   1   0.6939 -0.0197  0.0888  11.00000  0.05    0.10
Q15   1   0.5039  0.0956  0.2177  11.00000  0.05    0.10
Q16   1  -0.1465  0.1512 -0.2186  11.00000  0.05    0.10
Q17   1   0.3047  0.3240 -0.0350  11.00000  0.05    0.10
Q18   1   0.3590  0.1699 -0.0989  11.00000  0.05    0.10
Q19   1   0.3346  0.1768 -0.2030  11.00000  0.05    0.09
Q20   1   0.4934  0.1101  0.0956  11.00000  0.05    0.09
;
_shelx_res_checksum              84639
_shelx_hkl_file
;
   0   0  -1   -0.29    0.02
   0   0   1   -0.26    0.02
   0   0  -1   -0.29    0.01
   0   0   1   -0.29    0.01
   0   0  -2  185.35    4.77
   0   0  -2  198.48    4.76
   0   0   3   -0.17    0.05
   0   0   3   -0.19    0.06
   0   0  -3   -0.17    0.04
   0   0  -3   -0.09    0.06
   0   0   4  108.95    2.77
   0   0  -4  109.55    2.76
   0   0   4  110.37    2.78
   0   0  -5   -0.10    0.06
   0   0   5   -0.06    0.07
   0   0   5   -0.06    0.06
   0   0   6  167.87    4.22
   0   0   6  165.35    4.21
   0   0   7    0.08    0.08
   0   0   7   -0.02    0.10
   0   0   8    7.64    0.33
   0   0   8    7.86    0.34
   0   0   9    0.10    0.12
   0   0   9    0.10    0.10
   0   0  10    2.83    0.25
   0   0  10    2.91    0.25
   0   0  11    0.06    0.15
   0   0  11    0.11    0.14
   0   0  12    0.53    0.16
   0   0  12    0.42    0.20
   0   0  13   -0.03    0.16
   0   0  13   -0.17    0.19
   0   0  14    8.62    0.52
   0   0  14    8.79    0.45
   0   0  15    0.20    0.25
   0   0  15   -0.01    0.19
   0   0  16    7.89    0.57
   0   0  16    8.09    0.47
   0   0  17    0.29    0.28
   0   0  17   -0.30    0.33
   0   0  18   13.22    0.79
   0   0  18   13.63    0.75
   0   0  19    0.29    0.35
   0   0  19   -0.27    0.40
   0   0  20    0.04    0.37
   0   0  20    0.54    0.50
   1   0   0    0.03    0.04
  -1   0   0    0.01    0.04
   1   0  -1   -0.12    0.03
   1   0   1   -0.18    0.05
   1   0  -1   -0.05    0.05
   1   0  -1   -0.05    0.05
  -1   0   1   -0.03    0.04
  -1   0   1   -0.03    0.05
  -1   0  -1   -0.05    0.06
  -1   0   1    0.04    0.05
  -1   0  -1   -0.09    0.05
   1   0  -2  257.08    6.38
   1   0  -2  258.75    6.36
   1   0  -2  254.49    6.35
   1   0   2  249.89    6.38
  -1   0  -2  256.23    6.38
  -1   0   2  254.28    6.39
  -1   0   2  260.23    6.37
  -1   0   2  262.07    6.35
   1   0   3    0.01    0.06
   1   0  -3    0.04    0.06
   1   0  -3   -0.05    0.06
   1   0   3   -0.11    0.10
  -1   0   3    0.02    0.08
  -1   0  -3    0.03    0.06
  -1   0   3    0.08    0.06
   1   0  -4  243.49    5.97
   1   0   4  229.94    6.02
   1   0   4  237.84    5.95
  -1   0   4  238.55    5.92
  -1   0   4  238.39    5.98
  -1   0  -4  243.71    5.96
   1   0   5    0.03    0.11
   1   0   5   -0.06    0.06
  -1   0  -5    0.03    0.07
  -1   0   5   -0.05    0.08
  -1   0   5    0.06    0.05
   1   0   6   52.62    1.50
   1   0   6   52.91    1.41
  -1   0   6   54.21    1.38
  -1   0   6   53.59    1.46
   1   0   7   -0.12    0.13
   1   0   7    0.04    0.08
  -1   0   7    0.02    0.07
  -1   0   7    0.05    0.09
   1   0   8   52.45    1.41
   1   0   8   50.59    1.49
  -1   0   8   52.98    1.38
  -1   0   8   51.68    1.46
   1   0   9   -0.14    0.15
   1   0   9    0.01    0.09
  -1   0   9    0.15    0.09
  -1   0   9   -0.01    0.11
   1   0  10    0.04    0.16
   1   0  10    0.04    0.11
  -1   0  10    0.12    0.10
  -1   0  10    0.05    0.13
   1   0  11   -0.02    0.13
   1   0  11    0.19    0.18
  -1   0  11   -0.06    0.11
  -1   0  11    0.20    0.18
   1   0  12   30.55    1.05
   1   0  12   33.78    1.09
  -1   0  12   34.66    0.98
  -1   0  12   33.80    1.10
   1   0  13    0.05    0.19
   1   0  13   -0.32    0.20
  -1   0  13   -0.28    0.20
  -1   0  13    0.12    0.14
   1   0  14    0.36    0.21
   1   0  14    0.13    0.22
  -1   0  14   -0.07    0.24
  -1   0  14    0.17    0.16
   1   0  15   -0.05    0.24
   1   0  15    0.29    0.25
  -1   0  15   -0.14    0.17
  -1   0  15   -0.36    0.26
   1   0  16    1.26    0.31
   1   0  16    1.27    0.36
  -1   0  16    0.52    0.34
  -1   0  16    1.10    0.23
   1   0  17    0.21    0.32
   1   0  17    0.71    0.31
  -1   0  17   -0.23    0.22
  -1   0  17    0.24    0.33
   1   0  18    3.27    0.46
   1   0  18    2.03    0.41
  -1   0  18    1.67    0.42
  -1   0  18    2.62    0.39
   1   0  19   -0.43    0.43
   1   0  19    0.16    0.37
  -1   0  19    0.01    0.38
  -1   0  19   -0.27    0.40
   1   0  20    0.39    0.42
   1   0  20   -0.62    0.47
  -1   0  20    0.11    0.51
  -1   0  20    0.07    0.52
   2   0   0    6.54    0.27
  -2   0   0    6.92    0.28
   2   0   1    0.01    0.09
   2   0  -1    0.02    0.07
   2   0   1    0.11    0.10
   2   0   1   -0.07    0.07
  -2   0   1   -0.09    0.08
   2   0  -2   73.71    1.89
   2   0  -2   72.80    1.91
   2   0   2   73.00    1.92
  -2   0  -2   73.74    1.93
  -2   0   2   72.88    1.92
  -2   0   2   73.00    1.88
  -2   0  -2   72.77    1.93
   2   0  -3    0.00    0.07
   2   0  -3   -0.17    0.09
   2   0   3    0.00    0.08
  -2   0  -3    0.06    0.09
  -2   0   3    0.03    0.06
  -2   0   3   -0.18    0.09
   2   0   4    6.88    0.28
   2   0  -4    6.72    0.26
   2   0   4    6.77    0.37
  -2   0   4    6.97    0.25
  -2   0  -4    7.20    0.32
  -2   0   4    6.48    0.31
   2   0  -5    0.22    0.09
   2   0   5   -0.15    0.14
   2   0   5    0.05    0.08
  -2   0   5    0.19    0.11
  -2   0   5    0.01    0.07
   2   0   6   24.75    0.74
   2   0  -6   24.84    0.74
   2   0   6   25.56    0.88
  -2   0   6   24.90    0.80
  -2   0   6   26.83    0.72
   2   0   7    0.05    0.08
   2   0   7    0.04    0.17
  -2   0   7    0.18    0.12
  -2   0   7    0.14    0.09
   2   0   8   44.01    1.22
   2   0   8   42.70    1.36
  -2   0   8   45.02    1.18
  -2   0   8   43.34    1.30
   2   0   9   -0.01    0.10
   2   0   9    0.30    0.19
  -2   0   9    0.13    0.15
  -2   0   9    0.24    0.10
   2   0  10    3.19    0.35
   2   0  10    3.03    0.23
  -2   0  10    3.32    0.22
  -2   0  10    3.03    0.34
   2   0  11   -0.14    0.21
   2   0  11   -0.27    0.13
  -2   0  11    0.07    0.12
  -2   0  11   -0.17    0.18
   2   0  12   48.11    1.52
   2   0  12   46.48    1.39
  -2   0  12   47.00    1.31
  -2   0  12   46.83    1.47
   2   0  13    0.15    0.24
   2   0  13    0.13    0.18
  -2   0  13   -0.01    0.15
   2   0  14   17.61    0.82
   2   0  14   16.95    0.69
  -2   0  14   16.52    0.78
  -2   0  14   17.75    0.62
   2   0  15   -0.04    0.23
   2   0  15   -0.02    0.43
  -2   0  15    0.15    0.19
  -2   0  15   -0.04    0.27
   2   0  16    1.00    0.28
   2   0  16    0.99    0.38
  -2   0  16    1.46    0.25
  -2   0  16    0.85    0.36
   2   0  17    0.31    0.28
   2   0  17    0.22    0.36
  -2   0  17   -0.36    0.35
  -2   0  17    0.04    0.23
   2   0  18    0.66    0.44
   2   0  18    0.57    0.35
  -2   0  18    0.45    0.46
  -2   0  18    0.53    0.26
   2   0  19    0.56    0.45
   2   0  19    0.09    0.42
  -2   0  19    0.29    0.49
  -3   0   0   -0.01    0.10
   3   0   1    0.16    0.13
   3   0   1    0.05    0.12
  -3   0   1   -0.02    0.09
  -3   0  -1   -0.05    0.09
   3   0   2    0.11    0.11
   3   0   2   -0.05    0.11
   3   0  -2    0.12    0.11
  -3   0   2    0.10    0.11
   3   0   3   -0.21    0.10
   3   0  -3    0.03    0.10
  -3   0   3    0.03    0.11
   3   0  -4   24.86    0.71
   3   0   4   22.92    0.75
  -3   0   4   23.50    0.78
  -3   0   4   23.51    0.70
   3   0   5    0.41    0.18
  -3   0   5    0.37    0.14
  -3   0   5    0.36    0.11
   3   0  -6   39.68    1.10
   3   0   6   38.67    1.29
   3   0   6   39.99    1.14
  -3   0   6   38.81    1.10
  -3   0   6   40.25    1.21
   3   0   7    0.10    0.10
   3   0  -7    0.16    0.12
   3   0   7   -0.33    0.19
  -3   0   7   -0.09    0.11
  -3   0   7   -0.03    0.14
   3   0   8   31.33    1.14
   3   0   8   31.64    0.95
  -3   0   8   32.21    0.92
  -3   0   8   31.51    1.04
   3   0   9    0.16    0.11
   3   0   9   -0.55    0.22
  -3   0   9    0.15    0.13
  -3   0   9    0.20    0.20
   3   0  10   32.03    0.98
   3   0  10   32.57    1.18
  -3   0  10   32.30    1.10
  -3   0  10   31.97    0.95
   3   0  11    0.04    0.27
   3   0  11    0.10    0.18
  -3   0  11   -0.23    0.19
  -3   0  11    0.12    0.15
   3   0  12    2.37    0.34
   3   0  12    2.45    0.39
  -3   0  12    2.50    0.28
  -3   0  12    2.76    0.39
   3   0  13    0.11    0.20
   3   0  13   -0.03    0.33
  -3   0  13    0.03    0.17
  -3   0  13   -0.06    0.26
   3   0  14    3.98    0.40
   3   0  14    5.08    0.66
  -3   0  14    3.81    0.50
  -3   0  14    4.65    0.38
   3   0  15   -0.42    0.23
   3   0  15    0.50    0.39
  -3   0  15    0.39    0.22
  -3   0  15   -0.09    0.31
   3   0  16   15.99    0.93
   3   0  16   16.04    0.73
  -3   0  16   14.97    0.90
  -3   0  16   17.37    0.67
   3   0  17   -0.58    0.27
   3   0  17   -0.08    0.41
  -3   0  17   -0.37    0.42
  -3   0  17   -0.22    0.25
   3   0  18    0.24    0.35
   3   0  18   -0.24    0.44
  -3   0  18    0.72    0.44
   3   0  19    0.16    0.43
   3   0  19   -0.29    0.52
  -3   0  19   -0.56    0.55
  -4   0   0   81.37    2.21
   4   0   1    0.09    0.15
   4   0   1   -0.29    0.15
  -4   0  -1   -0.18    0.11
  -4   0   1    0.16    0.12
   4   0   2   27.26    0.92
   4   0   2   27.62    0.92
  -4   0   2   27.30    0.89
   4   0  -3    0.27    0.14
   4   0   3    0.21    0.14
  -4   0   3    0.26    0.15
   4   0  -4    7.78    0.35
   4   0   4    6.89    0.39
  -4   0   4    7.32    0.40
   4   0  -5    0.22    0.12
   4   0   5    0.02    0.12
  -4   0   5   -0.21    0.14
   4   0   6    8.49    0.41
   4   0  -6    8.06    0.35
   4   0   6    7.45    0.52
  -4   0   6    8.55    0.46
  -4   0   6    8.13    0.38
   4   0   7   -0.42    0.20
   4   0  -7    0.06    0.13
   4   0   7   -0.15    0.12
  -4   0   7    0.07    0.19
  -4   0   7    0.00    0.14
   4   0   8    5.54    0.33
   4   0  -8    6.04    0.31
   4   0   8    5.28    0.51
  -4   0   8    4.98    0.43
  -4   0   8    5.76    0.34
   4   0   9    0.27    0.14
   4   0   9   -0.55    0.25
  -4   0   9   -0.04    0.17
  -4   0   9    0.10    0.19
   4   0  10   24.19    1.06
   4   0  10   23.25    0.81
  -4   0  10   23.77    0.92
  -4   0  10   23.89    0.78
   4   0  11   -0.05    0.19
   4   0  11    0.65    0.36
  -4   0  11    0.17    0.19
  -4   0  11    0.39    0.22
   4   0  12   10.57    0.82
   4   0  12    9.86    0.49
  -4   0  12    9.42    0.47
  -4   0  12    8.35    0.55
   4   0  13    0.22    0.39
   4   0  13   -0.10    0.19
  -4   0  13   -0.42    0.26
  -4   0  13    0.28    0.22
   4   0  14   15.61    0.64
   4   0  14   14.18    0.87
  -4   0  14   14.58    0.84
  -4   0  14   15.27    0.64
   4   0  15    0.13    0.22
   4   0  15   -0.66    0.39
  -4   0  15    0.30    0.39
  -4   0  15    0.37    0.25
   4   0  16    1.14    0.49
   4   0  16    1.31    0.30
  -4   0  16    0.90    0.42
  -4   0  16    1.38    0.29
   4   0  17   -0.49    0.49
   4   0  17   -0.24    0.31
  -4   0  17    0.43    0.46
   4   0  18    0.39    0.56
   4   0  18    0.52    0.37
  -4   0  18    0.10    0.54
  -5   0   0    0.16    0.15
   5   0   1    0.08    0.18
   5   0   1   -0.10    0.18
  -5   0   1    0.22    0.16
   5   0   2    0.33    0.19
   5   0   2    0.49    0.20
  -5   0   2    0.70    0.18
   5   0  -3   -0.17    0.17
   5   0   3    0.10    0.17
  -5   0   3    0.11    0.16
   5   0   4   23.53    0.86
   5   0  -4   23.04    0.78
  -5   0   4   23.98    0.88
   5   0  -5   -0.10    0.15
   5   0   5    0.57    0.17
  -5   0   5    0.08    0.20
   5   0   6   72.77    2.30
   5   0  -6   76.04    2.03
   5   0   6   73.52    2.11
  -5   0   6   76.66    2.19
   5   0   7    0.07    0.30
   5   0  -7   -0.11    0.15
   5   0   7   -0.07    0.16
  -5   0   7   -0.10    0.20
   5   0   8    1.42    0.40
   5   0  -8    1.85    0.21
   5   0   8    1.68    0.26
  -5   0   8    1.55    0.25
   5   0   9    0.22    0.22
   5   0  -9   -0.33    0.16
   5   0   9    0.46    0.37
  -5   0   9   -0.21    0.20
  -5   0   9   -0.25    0.22
   5   0  10   -0.24    0.32
   5   0  10    0.27    0.23
   5   0 -10    0.53    0.19
  -5   0  10    0.84    0.25
  -5   0  10    0.55    0.22
   5   0  11   -0.52    0.33
   5   0  11    0.16    0.20
  -5   0  11   -0.43    0.23
  -5   0  11   -0.48    0.22
   5   0  12    3.14    0.36
   5   0  12    2.06    0.44
  -5   0  12    2.50    0.36
  -5   0  12    3.15    0.34
   5   0  13    0.03    0.22
   5   0  13    0.99    0.41
  -5   0  13    0.11    0.33
  -5   0  13    0.23    0.26
   5   0  14    0.80    0.25
   5   0  14    0.37    0.43
  -5   0  14    0.64    0.28
  -5   0  14    0.33    0.38
   5   0  15   -0.17    0.44
   5   0  15    0.11    0.24
  -5   0  15    0.26    0.44
  -5   0  15    0.28    0.37
   5   0  16    9.79    0.60
   5   0  16    7.82    0.85
  -5   0  16    8.32    0.89
   5   0  17   -0.09    0.60
   5   0  17    0.67    0.35
  -5   0  17   -0.50    0.59
  -6   0   0    0.04    0.20
   6   0   1   -0.38    0.24
   6   0   1   -0.02    0.26
  -6   0   1    0.32    0.24
   6   0   2   12.15    0.69
   6   0   2   12.31    0.68
  -6   0   2   11.47    0.63
   6   0  -3    0.54    0.23
   6   0   3    0.41    0.26
  -6   0   3    0.76    0.21
   6   0   4    0.45    0.25
   6   0  -4    0.36    0.21
  -6   0   4    0.33    0.20
   6   0  -5   -0.35    0.18
   6   0   5   -0.19    0.26
  -6   0   5    0.28    0.21
   6   0   6   19.66    0.88
   6   0  -6   20.52    0.72
  -6   0   6   20.42    0.85
   6   0  -7   -0.02    0.17
   6   0   7    0.14    0.29
   6   0   7    0.41    0.36
  -6   0   7    0.22    0.23
   6   0   8    0.53    0.27
   6   0  -8    0.01    0.19
   6   0   8    0.92    0.37
  -6   0   8    0.64    0.24
   6   0  -9    0.19    0.21
   6   0   9    0.33    0.25
   6   0   9    0.19    0.35
  -6   0   9   -0.15    0.26
   6   0  10    4.49    0.59
   6   0 -10    3.32    0.35
   6   0  10    3.18    0.40
  -6   0  10    2.29    0.39
   6   0  11   -0.09    0.22
   6   0  11   -0.17    0.39
  -6   0  11   -0.25    0.32
   6   0  12    0.60    0.44
   6   0  12    0.98    0.25
  -6   0  12    0.39    0.36
   6   0  13   -0.30    0.24
   6   0  13    0.00    0.45
  -6   0  13    0.26    0.39
   6   0  14    0.19    0.27
   6   0  14    0.19    0.49
  -6   0  14    0.52    0.45
   6   0  15    0.33    0.51
   6   0  15   -0.12    0.30
  -6   0  15   -0.81    0.46
   6   0  16    1.19    0.60
   6   0  16    1.92    0.36
  -6   0  16    1.27    0.63
   7   0   0   -0.19    0.32
   7   0   0    0.09    0.32
  -7   0   0    0.16    0.25
   7   0   1    0.20    0.30
   7   0   1   -0.13    0.30
  -7   0   1   -0.09    0.24
   7   0   2   14.39    0.80
   7   0   2   15.09    0.80
   7   0  -2   15.39    0.74
  -7   0   2   14.32    0.72
   7   0   3    0.68    0.30
   7   0  -3   -0.03    0.26
  -7   0   3    0.29    0.25
   7   0  -4    2.80    0.39
   7   0   4    2.06    0.37
  -7   0   4    2.99    0.43
   7   0   5   -0.23    0.27
   7   0  -5   -0.11    0.23
  -7   0   5    0.20    0.25
   7   0  -6    9.64    0.51
   7   0   6   10.00    0.63
  -7   0   6    8.20    0.62
   7   0  -7    0.15    0.23
   7   0   7   -0.05    0.28
   7   0   7    0.07    0.36
  -7   0   7    0.07    0.29
   7   0  -8    0.19    0.23
   7   0   8    0.26    0.39
   7   0   8   -0.14    0.27
  -7   0   8   -0.18    0.29
   7   0   9    0.39    0.25
   7   0   9   -0.75    0.37
   7   0  -9   -0.15    0.24
  -7   0   9    0.36    0.33
   7   0 -10   -0.11    0.26
   7   0  10    0.08    0.42
   7   0  10    0.17    0.28
  -7   0  10   -0.17    0.36
   7   0  11   -0.16    0.26
   7   0 -11   -0.17    0.31
   7   0  11   -0.71    0.43
  -7   0  11    0.08    0.39
   7   0  12    0.88    0.30
   7   0  12    0.40    0.48
  -7   0  12    0.38    0.45
   7   0  13   -0.04    0.50
   7   0  13   -0.46    0.28
  -7   0  13   -0.20    0.47
   7   0  14    1.41    0.58
  -7   0  14    0.96    0.58
   7   0  15    0.10    0.39
   7   0  15    0.53    0.59
  -7   0  15   -0.35    0.59
   8   0   0   10.68    0.78
   8   0   0   11.09    0.80
   8   0   1    0.02    0.36
   8   0   1   -0.35    0.35
  -8   0   1   -0.21    0.28
   8   0   2    0.20    0.36
   8   0   2   -0.54    0.34
   8   0  -2    0.48    0.31
  -8   0   2    0.42    0.30
   8   0   3    0.81    0.35
   8   0  -3    0.23    0.31
  -8   0   3   -0.08    0.30
   8   0   4    2.12    0.41
   8   0  -4    3.35    0.40
  -8   0   4    2.43    0.38
   8   0   5    0.07    0.31
   8   0  -5   -0.29    0.28
  -8   0   5    0.40    0.32
   8   0   6    1.83    0.46
   8   0  -6    1.64    0.31
   8   0   6    1.56    0.40
  -8   0   6    1.84    0.36
   8   0   7    0.04    0.32
   8   0  -7   -0.33    0.28
   8   0   7    0.16    0.41
  -8   0   7    0.54    0.36
   8   0  -8    0.65    0.31
   8   0   8    1.08    0.36
   8   0   8    0.83    0.45
  -8   0   8    0.24    0.36
   8   0   9    0.02    0.34
   8   0   9   -0.40    0.47
  -8   0   9   -0.13    0.42
   8   0  10    2.93    0.41
   8   0  10    3.16    0.64
  -8   0  10    2.67    0.55
   8   0  11   -0.12    0.51
   8   0  11    0.38    0.33
  -8   0  11    0.31    0.47
   8   0  12    1.03    0.39
   8   0  12    1.76    0.59
  -8   0  12    2.05    0.61
   8   0  13   -0.83    0.36
   8   0  13    0.08    0.61
  -8   0  13    0.48    0.58
   9   0   0   -0.10    0.44
   9   0   0   -0.26    0.45
   9   0  -1   -0.50    0.44
   9   0   1   -0.02    0.40
   9   0  -1   -0.36    0.43
   9   0  -1   -0.11    0.41
   9   0   1    0.16    0.44
   9   0  -2    0.09    0.40
   9   0   2   -0.11    0.40
  -9   0   2    0.05    0.35
   9   0  -3    0.52    0.38
   9   0   3    0.05    0.41
  -9   0   3    0.02    0.38
   9   0  -4    7.52    0.63
   9   0   4    7.72    0.74
  -9   0   4    7.25    0.72
   9   0  -5   -0.11    0.37
   9   0   5   -0.16    0.46
   9   0   5    0.16    0.42
  -9   0   5   -0.69    0.36
   9   0   6    1.45    0.56
   9   0   6    2.19    0.44
  -9   0   6    2.95    0.44
   9   0   7    0.41    0.42
   9   0   7   -0.02    0.51
  -9   0   7    0.01    0.43
   9   0   8    1.58    0.47
   9   0   8   -0.26    0.53
  -9   0   8    0.33    0.46
   9   0   9    0.11    0.56
   9   0   9   -0.65    0.40
  -9   0   9    0.88    0.52
   9   0  10    3.50    0.68
   9   0  10    3.49    0.51
  -9   0  10    2.82    0.66
   9   0  11    0.58    0.61
   9   0  11    1.12    0.49
  -9   0  11   -0.22    0.57
  10   0   0   -0.90    0.50
  10   0   0   -0.21    0.51
  10   0   1   -0.16    0.47
  10   0  -1   -0.65    0.59
  10   0   1   -0.24    0.47
  10   0  -1   -0.29    0.55
  10   0  -1    0.19    0.53
  10   0  -2   -0.65    0.56
  10   0  -2    0.36    0.56
  10   0  -2    0.81    0.67
  10   0   2    1.27    0.52
  10   0   3    0.52    0.45
  10   0  -3   -0.35    0.89
 -10   0   3   -0.17    0.48
  10   0   4    0.58    0.56
 -10   0   4   -0.02    0.49
  10   0   5    0.36    0.58
  10   0   5   -0.75    0.55
 -10   0   5   -0.14    0.53
  10   0   6    0.07    0.57
 -10   0   6   -0.20    0.53
  10   0   7   -0.56    0.61
 -10   0   7   -0.02    0.60
   0   1  20   -0.43    0.52
   0   1  20   -0.02    0.36
   0   1  19   -0.15    0.31
   0   1  19   -0.59    0.43
   0   1  18    0.43    0.31
   0   1  18    0.45    0.36
   0   1  17   -0.04    0.32
   0   1  16    0.19    0.30
   0   1  16   -0.25    0.22
   0   1  15   -0.18    0.23
   0   1  15   -0.10    0.18
   0   1  14   -0.04    0.17
   0   1  14   -0.23    0.20
   0   1  13    0.06    0.15
   0   1  13    0.23    0.19
   0   1  12   -0.06    0.19
   0   1  12    0.09    0.13
   0   1  11   -0.05    0.13
   0   1  11    0.10    0.14
   0   1  10   -0.16    0.12
   0   1  10   -0.10    0.11
   0   1   9   -0.21    0.11
   0   1   9    0.02    0.10
   0   1   8   -0.11    0.09
   0   1   8   -0.12    0.10
   0   1   7   -0.09    0.08
   0   1   7   -0.08    0.09
   0   1   6    0.05    0.07
   0   1   6   -0.07    0.08
   0   1   5   -0.15    0.06
   0   1   5   -0.01    0.07
   0  -1  -4    0.05    0.05
   0   1   4   -0.10    0.06
   0   1   4   -0.04    0.07
   0  -1  -3    0.02    0.04
   0   1   3    0.02    0.06
   0   1   3   -0.01    0.05
   0  -1  -3   -0.03    0.06
   0  -1  -2    0.01    0.04
   0  -1  -2   -0.01    0.03
   0   1   2   -0.04    0.03
   0   1   1   -0.11    0.02
   0  -1  -1   -0.12    0.02
   0  -1  -1   -0.11    0.02
   0   1   1   -0.06    0.02
   0  -1   0    0.00    0.01
   0   1   0    0.00    0.01
   0   1   0    0.02    0.02
   0  -1   0    0.02    0.01
   0  -1   1   -0.12    0.03
   0   1  -1   -0.13    0.02
   0  -1   1   -0.09    0.02
   0   1  -2    0.04    0.04
   0  -1   2    0.10    0.05
   0  -1   2    0.05    0.05
   0  -1   2   -0.04    0.03
   0  -1   3   -0.06    0.06
   0  -1   3    0.01    0.05
   0   1  -3   -0.05    0.06
   0   1  -3   -0.05    0.04
   0   1  -4    0.03    0.06
   0  -1   4    0.11    0.08
   0  -1   4   -0.04    0.05
   0   1  -4   -0.03    0.09
   0  -1   5   -0.05    0.06
   0  -1   5    0.12    0.08
   0   1  -5   -0.13    0.06
   0  -1   6   -0.09    0.07
   0  -1   6    0.00    0.09
   0  -1   7    0.04    0.10
   0  -1   7   -0.02    0.07
   0  -1   8   -0.05    0.09
   0  -1   8   -0.03    0.11
   0  -1   9    0.05    0.12
   0  -1   9   -0.08    0.10
   0  -1  10    0.00    0.12
   0  -1  10    0.09    0.13
   0  -1  11    0.26    0.15
   0  -1  11    0.00    0.15
   0  -1  12   -0.06    0.17
   0  -1  12    0.03    0.14
   0  -1  13   -0.03    0.15
   0  -1  13   -0.01    0.18
   0  -1  14   -0.22    0.17
   0  -1  14    0.20    0.22
   0  -1  15   -0.14    0.19
   0  -1  15    0.01    0.26
   0  -1  16   -0.29    0.19
   0  -1  16    0.55    0.29
   0  -1  17   -0.02    0.25
   0  -1  17   -0.45    0.29
   0  -1  18    0.11    0.32
   0  -1  18    0.07    0.34
   0  -1  19   -0.15    0.32
   0  -1  19   -0.13    0.41
   0  -1  20    0.31    0.48
   0  -1  20    0.03    0.35
   1   1  20    2.98    0.54
   1   1  20    2.77    0.49
  -1   1  20    3.23    0.44
   1   1  19    1.35    0.43
   1   1  19    2.33    0.41
  -1   1  19    2.29    0.40
  -1   1  19    2.60    0.50
   1   1  18    2.37    0.45
   1   1  18    2.31    0.39
  -1   1  18    2.77    0.42
  -1   1  18    1.74    0.42
   1   1  17    1.01    0.33
   1   1  17    0.69    0.34
  -1   1  17    0.87    0.28
  -1   1  17    0.44    0.34
   1   1  16    1.09    0.42
   1   1  16    0.93    0.30
  -1   1  16    0.71    0.22
  -1   1  16    0.85    0.30
   1   1  15    0.32    0.26
   1   1  15    0.59    0.25
  -1   1  15    0.99    0.29
  -1   1  15    0.56    0.20
   1   1  14    0.18    0.22
   1   1  14    0.25    0.23
  -1   1  14    0.53    0.17
  -1   1  14   -0.54    0.23
   1   1  13    0.15    0.19
   1   1  13    0.26    0.20
  -1   1  13    0.35    0.14
  -1   1  13    0.16    0.21
   1   1  12    3.15    0.32
   1   1  12    2.60    0.32
  -1   1  12    3.12    0.38
  -1   1  12    2.87    0.23
   1   1  11    1.56    0.24
   1   1  11    1.77    0.26
  -1   1  11    2.04    0.31
  -1   1  11    2.11    0.19
   1   1  10    0.54    0.13
   1   1  10    0.65    0.17
  -1   1  10    0.44    0.11
  -1   1  10    0.50    0.15
   1   1   9   12.58    0.52
   1   1   9   12.14    0.45
  -1   1   9   12.84    0.43
  -1   1   9   12.10    0.50
   1   1   8   25.77    0.85
   1   1   8   26.00    0.77
  -1   1   8   26.51    0.75
  -1   1   8   26.11    0.82
   1   1   7    1.22    0.14
   1   1   7    1.48    0.20
  -1   1   7    1.35    0.17
  -1   1   7    1.50    0.13
   1   1   6    2.95    0.26
   1   1   6    3.14    0.17
  -1   1   6    3.50    0.16
  -1   1   6    3.36    0.22
   1   1   5    1.76    0.20
   1   1   5    1.96    0.14
  -1  -1  -5    1.82    0.13
  -1   1   5    1.57    0.16
  -1   1   5    2.07    0.12
   1   1   4  258.27    6.41
   1  -1  -4  261.70    6.44
   1   1   4  250.12    6.49
  -1  -1  -4  258.98    6.42
  -1   1   4  260.19    6.40
  -1   1   4  257.59    6.45
   1  -1  -3  391.76    9.59
   1   1   3  380.64    9.55
   1   1   3  387.77    9.63
  -1   1   3  384.53    9.59
  -1  -1  -3  390.47    9.57
  -1   1   3  385.39    9.55
  -1   1   3  381.99    9.55
   1  -1  -2  162.51    3.93
   1   1   2  143.73    3.90
   1  -1  -2  157.57    3.89
   1  -1  -2  152.36    3.90
   1   1   2  159.28    3.97
  -1  -1  -2  158.82    3.92
  -1   1   2  151.90    3.89
  -1   1   2  161.43    3.91
  -1   1   2  161.84    3.94
   1   1   1    2.29    0.12
   1   1   1    2.50    0.12
   1  -1  -1    2.47    0.09
   1   1   1    2.24    0.15
   1  -1  -1    2.11    0.12
  -1  -1  -1    2.05    0.12
  -1   1   1    2.34    0.12
  -1   1   1    2.31    0.13
  -1  -1  -1    2.12    0.12
   1   1   0  111.93    2.59
   1  -1   0   89.46    2.59
  -1  -1   0  108.72    2.59
   1   1  -1    2.41    0.12
   1   1  -1    2.58    0.14
   1  -1   1    2.63    0.15
  -1  -1   1    2.42    0.13
   1   1  -2  156.98    3.91
   1  -1   2  153.84    3.97
   1   1  -2  159.03    3.96
   1   1  -2  160.51    3.96
  -1  -1   2  162.40    3.97
  -1  -1   2  153.25    3.96
  -1   1  -2  160.77    3.98
  -1  -1   2  157.01    3.92
   1  -1   3  375.74    9.58
   1   1  -3  391.58    9.58
   1   1  -3  382.34    9.52
   1   1  -3  392.16    9.57
  -1   1  -3  392.86    9.59
  -1  -1   3  381.03    9.58
   1  -1   4  251.76    6.40
   1  -1   4  260.50    6.47
   1   1  -4  263.89    6.41
   1   1  -4  255.24    6.40
   1   1  -4  248.26    6.36
  -1   1  -4  266.07    6.42
  -1  -1   4  252.47    6.35
  -1  -1   4  254.59    6.42
   1  -1   5    1.92    0.14
   1  -1   5    1.90    0.22
   1   1  -5    1.81    0.17
  -1   1  -5    1.32    0.18
  -1  -1   5    1.93    0.16
  -1  -1   5    1.97    0.10
   1  -1   6    3.27    0.26
   1  -1   6    3.24    0.18
  -1  -1   6    3.21    0.21
  -1  -1   6    3.44    0.15
   1  -1   7    1.18    0.18
   1  -1   7    1.16    0.14
  -1  -1   7    1.16    0.16
  -1  -1   7    1.21    0.12
   1  -1   8   25.88    0.86
   1  -1   8   25.51    0.78
  -1  -1   8   26.63    0.74
  -1  -1   8   26.67    0.83
   1  -1   9   11.32    0.51
   1  -1   9   11.37    0.43
  -1  -1   9   12.44    0.40
  -1  -1   9   11.44    0.47
   1  -1  10    0.33    0.12
   1  -1  10    0.59    0.19
  -1  -1  10    0.58    0.11
  -1  -1  10    0.26    0.13
   1  -1  11    1.48    0.20
   1  -1  11    1.83    0.25
  -1  -1  11    1.94    0.19
  -1  -1  11    1.57    0.24
   1  -1  12    2.87    0.34
   1  -1  12    2.52    0.31
  -1  -1  12    2.69    0.30
  -1  -1  12    2.62    0.23
   1  -1  13    0.56    0.22
   1  -1  13    0.19    0.18
  -1  -1  13    0.18    0.20
  -1  -1  13    0.17    0.14
   1  -1  14    0.34    0.22
   1  -1  14    0.56    0.24
  -1  -1  14    0.13    0.15
  -1  -1  14   -0.03    0.24
   1  -1  15    0.88    0.25
   1  -1  15    0.39    0.26
  -1  -1  15    1.00    0.30
  -1  -1  15    1.45    0.21
   1  -1  16    0.69    0.33
   1  -1  16    1.02    0.28
  -1  -1  16    0.87    0.22
  -1  -1  16    0.81    0.33
   1  -1  17    0.79    0.32
   1  -1  17    1.40    0.43
  -1  -1  17    0.88    0.36
  -1  -1  17    1.41    0.27
   1  -1  18    2.20    0.40
   1  -1  18    2.99    0.43
  -1  -1  18    2.39    0.34
  -1  -1  18    2.16    0.41
   1  -1  19    2.33    0.48
   1  -1  19    1.98    0.41
  -1  -1  19    1.71    0.39
  -1  -1  19    1.56    0.44
   1  -1  20    2.28    0.57
   1  -1  20    3.00    0.47
  -1  -1  20    2.56    0.63
   2   1  19    4.70    0.69
   2   1  19    4.80    0.72
  -2   1  19    3.09    0.59
  -2   1  19    4.19    0.48
   2   1  18   -0.20    0.34
   2   1  18    0.47    0.38
  -2   1  18    0.13    0.41
  -2   1  18   -0.13    0.32
   2   1  17    0.44    0.32
   2   1  17    0.42    0.38
  -2   1  17   -0.07    0.36
  -2   1  17    0.16    0.24
   2   1  16    1.66    0.29
   2   1  16    1.40    0.38
  -2   1  16    1.74    0.28
  -2   1  16    1.71    0.37
   2   1  15    0.92    0.25
   2   1  15    1.11    0.38
  -2   1  15    1.36    0.23
  -2   1  15    0.91    0.30
   2   1  14    0.77    0.34
   2   1  14    1.39    0.26
  -2   1  14    1.23    0.29
  -2   1  14    1.46    0.21
   2   1  13    2.39    0.33
   2   1  13    2.26    0.27
  -2   1  13    2.17    0.27
  -2   1  13    1.97    0.32
   2   1  12    7.28    0.51
   2   1  12    7.44    0.43
  -2   1  12    7.42    0.47
  -2   1  12    7.36    0.36
   2   1  11    5.02    0.30
   2   1  11    6.03    0.43
  -2   1  11    5.29    0.41
  -2   1  11    5.60    0.29
   2   1  10   10.39    0.55
   2   1  10   10.02    0.41
  -2   1  10   10.35    0.39
  -2   1  10   10.61    0.52
   2   1   9   10.06    0.52
   2   1   9   10.19    0.40
  -2   1   9    9.87    0.47
  -2   1   9   10.47    0.38
   2   1   8   95.56    2.80
   2   1   8   95.82    2.65
  -2   1   8  103.61    2.75
  -2   1   8  114.63    2.65
   2   1   7   11.84    0.41
   2   1   7   11.24    0.53
  -2   1   7   11.79    0.48
  -2   1   7   12.50    0.40
   2   1   6  104.70    2.90
   2   1   6  109.08    2.76
  -2   1   6  109.32    2.74
  -2   1   6  106.79    2.83
   2  -1  -5    5.41    0.22
   2   1   5    5.29    0.34
   2   1   5    5.23    0.23
  -2  -1  -5    4.94    0.27
  -2   1   5    5.26    0.29
  -2   1   5    4.67    0.22
   2   1   4   20.21    0.61
   2  -1  -4   20.91    0.58
   2   1   4   20.08    0.71
  -2   1   4   20.82    0.66
  -2   1   4   20.72    0.59
  -2  -1  -4   19.78    0.63
   2   1   3    9.77    0.35
   2   1   3   10.00    0.44
   2  -1  -3    9.82    0.31
  -2   1   3    9.78    0.33
  -2  -1  -3    9.78    0.37
  -2   1   3   10.14    0.39
  -2   1   3   10.08    0.34
   2   1   2   33.40    0.94
   2  -1  -2   34.15    0.89
   2  -1  -2   33.09    0.94
  -2   1   2   33.72    0.96
  -2  -1  -2   33.57    0.94
  -2   1   2   33.31    0.92
  -2  -1  -2   33.30    0.94
   2  -1  -1  119.19    3.03
   2   1   1  116.69    3.00
  -2  -1  -1  119.73    3.00
  -2   1   1  117.25    3.03
   2   1   0    0.05    0.07
   2  -1   0    0.08    0.08
  -2   1   0   -0.05    0.08
  -2  -1   0    0.01    0.07
   2   1  -1  118.51    3.02
   2  -1   1  117.76    3.06
   2  -1   1  120.45    3.03
   2  -1   1  118.14    3.06
  -2  -1   1  118.14    3.02
   2   1  -2   34.11    0.94
   2   1  -2   33.03    0.93
   2  -1   2   33.51    0.96
  -2   1  -2   33.32    0.97
  -2  -1   2   33.77    0.94
  -2   1  -2   33.66    0.97
   2   1  -3   10.12    0.35
   2  -1   3    9.84    0.37
  -2  -1   3    9.72    0.37
  -2  -1   3    9.87    0.32
  -2   1  -3    9.71    0.39
   2   1  -4   20.93    0.62
   2  -1   4   21.11    0.64
  -2  -1   4   20.77    0.58
  -2  -1   4   19.89    0.65
   2  -1   5    5.07    0.25
   2   1  -5    5.58    0.25
   2  -1   5    4.59    0.34
  -2  -1   5    5.11    0.28
  -2  -1   5    5.28    0.21
   2  -1   6  106.33    2.90
   2  -1   6  106.35    2.77
   2   1  -6  108.40    2.77
  -2  -1   6  105.68    2.82
  -2  -1   6  109.47    2.72
   2  -1   7   11.06    0.53
   2   1  -7   11.37    0.43
   2  -1   7   11.07    0.42
  -2  -1   7   12.00    0.37
  -2  -1   7   11.87    0.47
   2  -1   8   94.24    2.65
   2  -1   8   96.23    2.50
  -2  -1   8   93.85    2.57
  -2  -1   8   97.27    2.44
   2  -1   9    9.28    0.51
   2  -1   9   10.20    0.40
  -2  -1   9   10.10    0.47
  -2  -1   9   10.09    0.36
   2  -1  10   10.51    0.42
   2  -1  10   10.03    0.54
  -2  -1  10    9.77    0.50
  -2  -1  10   10.66    0.38
   2  -1  11    5.42    0.35
   2  -1  11    5.16    0.44
  -2  -1  11    5.26    0.28
  -2  -1  11    5.22    0.38
   2  -1  12    7.21    0.42
   2  -1  12    7.27    0.50
  -2  -1  12    7.37    0.34
  -2  -1  12    8.18    0.48
   2  -1  13    1.96    0.25
   2  -1  13    2.32    0.36
  -2  -1  13    2.70    0.37
  -2  -1  13    2.30    0.25
   2  -1  14    1.41    0.24
   2  -1  14    0.54    0.30
  -2  -1  14    1.02    0.28
  -2  -1  14    1.36    0.21
   2  -1  15    1.17    0.26
   2  -1  15    1.05    0.40
  -2  -1  15    1.27    0.32
  -2  -1  15    1.41    0.22
   2  -1  16    1.40    0.28
   2  -1  16    1.41    0.46
  -2  -1  16    1.22    0.37
  -2  -1  16    1.45    0.23
   2  -1  17    0.58    0.31
   2  -1  17   -0.07    0.37
  -2  -1  17    0.00    0.35
  -2  -1  17   -0.09    0.21
   2  -1  18   -0.11    0.32
   2  -1  18    0.45    0.45
  -2  -1  18    0.22    0.45
  -2  -1  18   -0.37    0.25
   2  -1  19    3.97    0.58
   2  -1  19    3.59    0.52
  -2  -1  19    3.62    0.62
   3   1  19    0.81    0.52
   3   1  19    0.71    0.42
  -3   1  19    0.31    0.55
   3   1  18    1.92    0.53
   3   1  18    1.87    0.40
  -3   1  18    1.41    0.47
  -3   1  18    1.91    0.37
   3   1  17    1.51    0.33
   3   1  17    0.80    0.43
  -3   1  17    2.15    0.45
  -3   1  17    1.79    0.30
   3   1  16    5.83    0.65
   3   1  16    6.47    0.49
  -3   1  16    6.02    0.45
  -3   1  16    6.73    0.66
   3   1  15   -0.10    0.35
   3   1  15   -0.22    0.22
  -3   1  15    0.44    0.22
  -3   1  15   -0.12    0.33
   3   1  14    3.74    0.36
   3   1  14    3.48    0.49
  -3   1  14    4.57    0.37
  -3   1  14    3.63    0.50
   3   1  13    0.92    0.41
   3   1  13    0.98    0.23
  -3   1  13    0.97    0.30
  -3   1  13    1.50    0.22
   3   1  12   -0.11    0.22
   3   1  12    0.19    0.29
  -3   1  12    0.23    0.24
  -3   1  12    0.06    0.17
   3   1  11    6.76    0.37
   3   1  11    6.48    0.53
  -3   1  11    7.33    0.47
  -3   1  11    6.42    0.36
   3   1  10   44.08    1.48
   3   1  10   44.14    1.27
  -3   1  10   44.23    1.41
  -3   1  10   45.01    1.26
   3   1   9    9.43    0.57
   3   1   9    9.45    0.38
  -3   1   9    9.77    0.40
  -3   1   9    9.26    0.53
   3   1   8   65.22    1.78
   3   1   8   66.00    1.99
  -3   1   8   65.32    1.90
  -3   1   8   67.01    1.77
   3   1   7   52.28    1.62
   3   1   7   50.49    1.41
   3  -1  -7   51.14    1.39
  -3   1   7   51.85    1.41
  -3   1   7   51.36    1.52
   3  -1  -6   56.41    1.51
   3   1   6   57.59    1.56
   3   1   6   56.80    1.73
  -3   1   6   56.73    1.54
  -3   1   6   57.12    1.64
   3   1   5   34.70    1.01
   3   1   5   33.58    1.14
   3  -1  -5   34.41    0.95
  -3   1   5   35.09    0.99
  -3   1   5   35.21    1.07
   3   1   4    3.17    0.31
   3   1   4    3.31    0.23
   3  -1  -4    3.03    0.18
  -3   1   4    3.09    0.24
  -3   1   4    3.11    0.21
   3  -1  -3   15.06    0.47
   3   1   3   12.84    0.54
   3   1   3   15.34    0.53
  -3   1   3   15.35    0.55
  -3   1   3   14.54    0.49
   3   1   2    2.79    0.23
   3   1   2    1.89    0.21
   3  -1  -2    2.76    0.20
   3   1   2    2.42    0.21
  -3   1   2    2.70    0.21
   3   1   1    0.12    0.11
  -3  -1  -1    0.05    0.09
  -3   1   1   -0.02    0.10
  -3  -1   0    6.50    0.30
  -3   1   0    6.53    0.31
   3  -1   1    0.07    0.12
   3  -1   1   -0.19    0.12
  -3  -1   1    0.10    0.10
   3  -1   2    2.72    0.24
   3   1  -2    2.32    0.22
  -3  -1   2    2.48    0.21
   3   1  -3   14.62    0.51
   3  -1   3   15.18    0.55
  -3  -1   3   14.93    0.54
   3  -1   4    3.20    0.24
   3   1  -4    3.28    0.22
  -3  -1   4    3.11    0.25
   3  -1   5   34.14    1.02
   3   1  -5   34.80    0.98
  -3  -1   5   33.70    0.95
  -3  -1   5   34.06    1.05
   3   1  -6   56.89    1.49
   3  -1   6   53.95    1.67
   3  -1   6   56.59    1.53
  -3  -1   6   55.72    1.57
  -3  -1   6   49.49    1.45
   3   1  -7   50.63    1.40
   3  -1   7   50.62    1.42
   3  -1   7   51.11    1.60
  -3  -1   7   49.54    1.49
  -3  -1   7   51.07    1.36
   3   1  -8   66.29    1.79
   3  -1   8   65.13    1.99
   3  -1   8   66.19    1.80
  -3  -1   8   64.95    1.73
  -3  -1   8   65.10    1.88
   3  -1   9    9.32    0.41
   3  -1   9    9.32    0.56
  -3  -1   9    9.19    0.38
  -3  -1   9    9.23    0.51
   3  -1  10   43.32    1.28
   3  -1  10   42.65    1.47
  -3  -1  10   44.74    1.40
  -3  -1  10   45.41    1.23
   3  -1  11    5.54    0.38
   3  -1  11    6.28    0.52
  -3  -1  11    7.00    0.34
  -3  -1  11    5.86    0.43
   3  -1  12    0.34    0.18
   3  -1  12    0.17    0.29
  -3  -1  12    0.24    0.16
  -3  -1  12    0.03    0.20
   3  -1  13    0.82    0.22
   3  -1  13    1.96    0.41
  -3  -1  13    1.13    0.20
  -3  -1  13    0.95    0.25
   3  -1  14    3.76    0.58
   3  -1  14    4.20    0.39
  -3  -1  14    4.04    0.49
  -3  -1  14    3.16    0.34
   3  -1  15    0.01    0.22
   3  -1  15    0.24    0.38
  -3  -1  15    0.73    0.22
  -3  -1  15   -0.48    0.30
   3  -1  16    6.03    0.49
   3  -1  16    6.84    0.73
  -3  -1  16    6.59    0.67
  -3  -1  16    5.15    0.41
   3  -1  17    1.01    0.46
   3  -1  17    1.59    0.32
  -3  -1  17    0.65    0.42
   3  -1  18    2.08    0.56
   3  -1  18    0.73    0.36
  -3  -1  18    1.52    0.48
   3  -1  19    0.26    0.40
   3  -1  19    0.49    0.55
   4   1  18   -0.65    0.34
   4   1  18    0.00    0.54
  -4   1  18    0.30    0.56
   4   1  17    0.78    0.50
   4   1  17    1.32    0.33
  -4   1  17    1.16    0.48
   4   1  16    0.38    0.44
   4   1  16   -0.25    0.26
  -4   1  16    0.29    0.43
  -4   1  16    0.19    0.28
   4   1  15    0.09    0.23
   4   1  15   -0.67    0.37
  -4   1  15    0.11    0.25
  -4   1  15    0.22    0.38
   4   1  14    4.17    0.58
   4   1  14    4.21    0.38
  -4   1  14    4.36    0.59
  -4   1  14    3.75    0.40
   4   1  13    1.60    0.41
   4   1  13    1.31    0.23
  -4   1  13    1.58    0.26
  -4   1  13    2.15    0.35
   4   1  12   11.28    0.52
   4   1  12    9.85    0.76
  -4   1  12   10.48    0.65
  -4   1  12   10.74    0.50
   4   1  11    4.56    0.63
   4   1  11    3.84    0.37
  -4   1  11    4.05    0.35
  -4   1  11    4.40    0.45
   4   1  10    7.67    0.65
   4   1  10    7.92    0.39
  -4   1  10    7.55    0.41
  -4   1  10    7.04    0.49
   4   1   9    1.16    0.17
   4   1   9    1.01    0.33
  -4   1   9    0.58    0.22
  -4   1   9    0.92    0.19
   4   1   8    0.49    0.27
   4  -1  -8    0.10    0.13
   4   1   8    0.25    0.12
  -4   1   8    0.19    0.16
  -4   1   8    0.33    0.22
   4   1   7    2.32    0.35
   4   1   7    1.76    0.23
   4  -1  -7    1.59    0.19
  -4   1   7    1.75    0.27
  -4   1   7    1.61    0.23
   4   1   6    1.00    0.23
   4   1   6    1.15    0.17
   4  -1  -6    1.20    0.18
  -4   1   6    1.24    0.18
  -4   1   6    0.92    0.19
   4  -1  -5    1.81    0.19
   4   1   5    1.73    0.28
   4   1   5    1.68    0.23
  -4   1   5    1.50    0.19
  -4   1   5    1.76    0.23
   4   1   4    0.71    0.15
   4  -1  -4    0.80    0.14
  -4   1   4    0.61    0.15
   4  -1  -3    8.28    0.38
   4   1   3    9.16    0.44
  -4   1   3    9.84    0.46
   4   1   2   37.92    1.17
   4   1   2   38.05    1.17
  -4   1   2   37.63    1.16
  -4   1   1   29.63    0.94
  -4  -1  -1   29.16    0.90
  -4   1   0    0.17    0.13
  -4  -1   0   -0.04    0.11
   4  -1   1   29.00    0.98
   4  -1   1   29.04    0.98
  -4  -1   1   29.50    0.92
   4  -1   2   38.72    1.22
   4   1  -2   39.46    1.17
   4  -1   2   38.53    1.22
  -4  -1   2   38.80    1.17
   4   1  -3    8.81    0.41
   4  -1   3    8.75    0.45
  -4  -1   3    9.01    0.44
   4  -1   4    0.77    0.16
   4   1  -4    0.75    0.16
  -4  -1   4    0.84    0.17
   4  -1   5    1.97    0.23
   4   1  -5    1.58    0.22
  -4  -1   5    1.85    0.24
   4  -1   6    1.09    0.17
   4   1  -6    0.97    0.16
  -4  -1   6    0.97    0.19
   4  -1   7    1.84    0.32
   4  -1   7    1.90    0.25
   4   1  -7    2.06    0.22
  -4  -1   7    1.65    0.24
  -4  -1   7    1.67    0.27
   4  -1   8    0.25    0.14
   4  -1   8   -0.09    0.26
   4   1  -8    0.12    0.14
  -4  -1   8    0.12    0.22
  -4  -1   8    0.45    0.17
   4  -1   9    0.99    0.19
   4   1  -9    0.90    0.18
   4  -1   9    1.07    0.31
  -4  -1   9    0.95    0.19
  -4  -1   9    0.91    0.23
   4  -1  10    7.38    0.46
   4  -1  10    7.64    0.60
  -4  -1  10    7.36    0.48
  -4  -1  10    6.96    0.40
   4  -1  11    4.62    0.66
   4  -1  11    4.60    0.37
  -4  -1  11    4.04    0.34
  -4  -1  11    4.66    0.43
   4  -1  12    9.79    0.87
   4  -1  12   10.53    0.52
  -4  -1  12   10.34    0.49
  -4  -1  12   10.61    0.63
   4  -1  13    1.71    0.25
   4  -1  13    1.33    0.44
  -4  -1  13    1.74    0.26
  -4  -1  13    1.08    0.34
   4  -1  14    3.09    0.38
   4  -1  14    5.16    0.64
  -4  -1  14    3.91    0.39
  -4  -1  14    3.81    0.56
   4  -1  15   -0.13    0.22
   4  -1  15    0.25    0.40
  -4  -1  15    0.11    0.24
  -4  -1  15   -0.01    0.39
   4  -1  16   -0.50    0.26
   4  -1  16   -0.35    0.44
  -4  -1  16   -0.23    0.41
   4  -1  17    0.90    0.33
   4  -1  17    0.79    0.52
  -4  -1  17    0.13    0.48
   4  -1  18    0.59    0.34
   4  -1  18   -0.31    0.57
  -4  -1  18    0.53    0.57
   5   1  17    2.07    0.63
   5   1  17    1.62    0.37
  -5   1  17    1.35    0.62
   5   1  16    7.64    0.56
   5   1  16    7.18    0.94
  -5   1  16    7.35    0.87
   5   1  15    0.18    0.45
   5   1  15    0.49    0.26
  -5   1  15    0.22    0.30
  -5   1  15   -0.28    0.41
   5   1  14    0.23    0.22
   5   1  14    0.26    0.43
  -5   1  14    0.29    0.39
  -5   1  14   -0.23    0.28
   5   1  13    1.10    0.24
   5   1  13    0.41    0.40
  -5   1  13    0.99    0.36
  -5   1  13    0.76    0.28
   5   1  12    2.82    0.35
   5   1  12    2.24    0.44
  -5   1  12    2.85    0.42
  -5   1  12    1.83    0.30
   5   1  11    0.25    0.33
   5   1  11    0.43    0.22
  -5   1  11    0.75    0.24
  -5   1  11    0.39    0.28
   5   1  10    1.78    0.30
   5   1  10    2.00    0.39
  -5   1  10    1.71    0.28
  -5   1  10    1.21    0.27
   5   1   9    6.69    0.67
   5  -1  -9    6.43    0.35
   5   1   9    6.48    0.42
  -5   1   9    6.19    0.45
  -5   1   9    7.14    0.44
   5  -1  -8    7.81    0.36
   5   1   8    7.22    0.65
   5   1   8    7.28    0.41
  -5   1   8    7.42    0.43
  -5   1   8    7.91    0.49
   5   1   7    0.34    0.18
   5  -1  -7    0.52    0.15
   5   1   7    0.56    0.26
  -5   1   7    0.64    0.20
  -5   1   7    0.42    0.21
   5  -1  -6    0.09    0.14
   5   1   6   -0.15    0.25
   5   1   6    0.12    0.15
  -5   1   6    0.16    0.19
   5   1   5   21.25    0.77
   5   1   5   20.05    0.91
   5  -1  -5   21.94    0.69
  -5   1   5   21.43    0.86
   5  -1  -4    0.98    0.18
   5   1   4    0.64    0.18
  -5   1   4    0.88    0.23
   5  -1  -3   12.15    0.51
   5   1   3   12.35    0.56
  -5   1   3   12.13    0.57
   5   1   2    0.27    0.17
   5   1   2   -0.19    0.17
  -5   1   2   -0.04    0.16
   5   1   1    2.64    0.32
  -5  -1  -1    2.60    0.27
  -5   1   1    2.71    0.28
  -5   1   0   74.43    2.10
  -5  -1   0   74.49    2.08
   5  -1   1    2.40    0.34
   5  -1   1    2.83    0.34
  -5  -1   1    2.69    0.28
   5  -1   2    0.01    0.18
   5   1  -2    0.03    0.18
   5  -1   2    0.04    0.18
  -5  -1   2    0.20    0.16
   5  -1   3   11.74    0.57
   5   1  -3   12.29    0.54
  -5  -1   3   12.45    0.57
   5  -1   4    0.78    0.20
   5   1  -4    0.67    0.18
  -5  -1   4    0.56    0.20
   5   1  -5   22.15    0.76
   5  -1   5   20.95    0.82
  -5  -1   5   22.89    0.86
   5   1  -6    0.27    0.16
   5  -1   6    0.11    0.16
  -5  -1   6    0.51    0.23
   5  -1   7    0.65    0.32
   5   1  -7    0.77    0.18
   5  -1   7    0.69    0.20
  -5  -1   7    0.50    0.21
   5   1  -8    7.99    0.41
   5  -1   8    6.44    0.64
   5  -1   8    7.31    0.47
  -5  -1   8    7.31    0.50
   5  -1   9    7.08    0.49
   5   1  -9    6.14    0.38
   5  -1   9    6.91    0.70
  -5  -1   9    6.86    0.48
   5  -1  10    1.72    0.39
   5   1 -10    2.05    0.25
   5  -1  10    2.05    0.27
  -5  -1  10    2.30    0.28
  -5  -1  10    1.39    0.28
   5  -1  11    0.63    0.35
   5  -1  11    0.37    0.20
  -5  -1  11    0.49    0.28
  -5  -1  11    0.77    0.24
   5  -1  12    1.92    0.26
   5  -1  12    1.67    0.44
  -5  -1  12    2.26    0.30
  -5  -1  12    1.44    0.36
   5  -1  13    1.06    0.24
   5  -1  13    0.43    0.40
  -5  -1  13    0.84    0.35
  -5  -1  13    0.98    0.27
   5  -1  14   -0.56    0.41
   5  -1  14    0.17    0.26
  -5  -1  14   -0.21    0.36
  -5  -1  14    0.22    0.28
   5  -1  15    0.21    0.26
   5  -1  15    0.73    0.48
  -5  -1  15   -0.35    0.45
   5  -1  16    6.96    0.55
   5  -1  16    6.67    0.84
  -5  -1  16    9.51    0.89
   5  -1  17    0.53    0.61
   5  -1  17    1.32    0.37
  -5  -1  17    1.81    0.61
   6   1  16   -0.35    0.53
   6   1  16    0.01    0.33
  -6   1  16    1.40    0.64
   6   1  15    1.90    0.56
   6   1  15    1.39    0.33
  -6   1  15    1.14    0.54
   6   1  14   -0.19    0.26
   6   1  14   -0.30    0.52
  -6   1  14    0.04    0.34
  -6   1  14    0.12    0.46
   6   1  13    0.41    0.46
   6   1  13   -0.50    0.23
  -6   1  13    0.86    0.33
  -6   1  13    0.18    0.40
   6   1  12    2.41    0.30
   6   1  12    2.85    0.51
  -6   1  12    4.06    0.49
  -6   1  12    2.41    0.45
   6   1  11    0.40    0.38
   6   1  11    0.04    0.22
  -6   1  11   -0.49    0.32
   6   1  10   -0.19    0.35
   6   1  10    0.28    0.21
   6  -1 -10    0.09    0.20
  -6   1  10   -0.04    0.30
   6   1   9    6.80    0.52
   6  -1  -9    8.14    0.41
   6   1   9    8.27    0.69
  -6   1   9    8.46    0.59
   6  -1  -8    0.07    0.18
   6   1   8    0.37    0.29
   6   1   8    0.15    0.33
  -6   1   8    0.37    0.25
   6   1   7   13.42    0.70
   6  -1  -7   12.98    0.52
   6   1   7   12.74    0.79
  -6   1   7   13.04    0.65
   6   1   6   12.35    0.66
   6   1   6   11.90    0.82
   6  -1  -6   11.44    0.49
  -6   1   6   12.31    0.63
   6   1   5   -0.04    0.23
   6  -1  -5    0.06    0.17
  -6   1   5    0.11    0.21
   6   1   4    4.11    0.42
   6  -1  -4    4.07    0.33
  -6   1   4    3.25    0.33
   6  -1  -3   21.91    0.80
   6   1   3   21.17    0.86
  -6   1   3   21.85    0.85
   6   1   2   13.56    0.68
   6   1   2   12.92    0.68
  -6   1   2   12.67    0.64
   6   1   1   -0.20    0.23
   6   1   1    0.21    0.25
  -6   1   1   -0.12    0.22
  -6  -1   0   -0.21    0.17
  -6   1   0   -0.02    0.22
   6  -1   1   -0.17    0.26
   6  -1   1    0.17    0.26
  -6  -1   1    0.11    0.21
   6   1  -2   13.04    0.64
   6  -1   2   13.87    0.75
   6  -1   2   15.13    0.77
  -6  -1   2   13.12    0.67
   6   1  -3   22.93    0.85
   6  -1   3   21.23    0.93
  -6  -1   3   21.16    0.88
   6  -1   4    4.16    0.51
   6   1  -4    3.76    0.36
  -6  -1   4    4.02    0.40
   6   1  -5    0.07    0.20
   6  -1   5    0.23    0.28
  -6  -1   5    0.26    0.20
   6   1  -6   11.83    0.53
   6  -1   6   10.93    0.66
  -6  -1   6   11.69    0.63
   6   1  -7   12.86    0.55
   6  -1   7   13.03    0.67
  -6  -1   7   13.30    0.68
   6   1  -8    0.48    0.20
   6  -1   8    0.72    0.26
   6  -1   8   -0.28    0.34
  -6  -1   8   -0.18    0.25
   6  -1   9    8.04    0.69
   6   1  -9    8.07    0.46
   6  -1   9    7.65    0.54
  -6  -1   9    8.98    0.59
   6  -1  10    0.20    0.23
   6   1 -10    0.30    0.24
   6  -1  10   -0.05    0.37
  -6  -1  10    0.51    0.29
   6   1 -11    0.00    0.24
   6  -1  11   -0.08    0.37
   6  -1  11   -0.22    0.23
  -6  -1  11   -0.69    0.29
   6  -1  12    2.48    0.56
   6  -1  12    2.38    0.30
  -6  -1  12    2.43    0.45
   6  -1  13    0.13    0.25
   6  -1  13    0.39    0.48
  -6  -1  13    0.11    0.38
   6  -1  14   -0.36    0.48
   6  -1  14   -0.09    0.26
  -6  -1  14   -0.02    0.43
   6  -1  15    1.65    0.54
   6  -1  15    1.20    0.36
  -6  -1  15    1.22    0.50
   6  -1  16    0.22    0.32
   6  -1  16   -0.09    0.56
  -6  -1  16    0.86    0.62
   7   1  15    0.31    0.59
   7   1  15    0.89    0.41
  -7   1  15    0.83    0.63
   7   1  14    0.39    0.34
   7   1  14    0.81    0.56
  -7   1  14    0.71    0.56
   7   1  13    0.11    0.29
   7   1  13   -0.36    0.51
  -7   1  13    0.41    0.48
   7   1  12    0.89    0.50
   7   1  12    1.33    0.29
  -7   1  12    1.58    0.42
   7   1  11   -0.64    0.44
   7   1  11    0.16    0.28
  -7   1  11    0.81    0.39
   7  -1 -10    0.53    0.30
   7   1  10   -0.08    0.26
  -7   1  10    0.20    0.32
   7   1   9    1.47    0.41
   7  -1  -9    2.13    0.28
   7   1   9    1.61    0.30
  -7   1   9    2.26    0.39
   7  -1  -8    2.78    0.37
   7   1   8    3.68    0.47
   7   1   8    4.13    0.62
  -7   1   8    3.39    0.46
   7   1   7    0.19    0.36
   7   1   7    0.14    0.28
   7  -1  -7   -0.36    0.21
  -7   1   7   -0.17    0.28
   7  -1  -6    1.67    0.26
   7   1   6    1.82    0.39
   7   1   6    1.68    0.34
  -7   1   6    2.14    0.34
   7   1   5    0.36    0.29
   7  -1  -5    0.76    0.24
  -7   1   5    0.13    0.25
   7   1   4    9.39    0.63
   7  -1  -4    8.84    0.51
  -7   1   4    8.56    0.57
   7  -1  -3   15.32    0.69
   7   1   3   15.29    0.81
  -7   1   3   15.46    0.74
   7  -1  -2   12.26    0.64
   7   1   2   12.92    0.80
   7   1   2   13.95    0.81
  -7   1   2   12.47    0.67
   7   1   1    6.77    0.61
   7   1   1    5.86    0.59
  -7   1   1    6.49    0.51
   7  -1   0   12.00    0.79
   7  -1   0   10.58    0.77
  -7  -1   0   10.28    0.61
   7  -1   1    5.54    0.60
   7  -1   1    7.10    0.63
  -7  -1   1    6.59    0.51
   7  -1   2   12.49    0.78
   7  -1   2   13.22    0.79
   7   1  -2   12.04    0.68
  -7  -1   2   12.28    0.69
   7   1  -3   15.22    0.73
   7  -1   3   14.69    0.82
  -7  -1   3   14.53    0.72
   7   1  -4    8.09    0.53
   7  -1   4    9.04    0.64
  -7  -1   4    9.77    0.61
   7  -1   5    0.61    0.32
   7   1  -5    0.41    0.25
  -7  -1   5    0.85    0.27
   7  -1   6    1.93    0.32
   7   1  -6    1.90    0.29
  -7  -1   6    1.48    0.34
   7  -1   7    0.52    0.38
   7   1  -7    0.05    0.24
   7  -1   7   -0.18    0.28
  -7  -1   7   -0.35    0.28
   7  -1   8    3.30    0.39
   7   1  -8    3.34    0.40
   7  -1   8    2.58    0.44
  -7  -1   8    3.15    0.42
   7  -1   9    1.81    0.33
   7  -1   9    2.33    0.43
   7   1  -9    1.97    0.30
  -7  -1   9    2.54    0.43
   7   1 -10    0.56    0.27
   7  -1  10    0.49    0.43
   7  -1  10    0.04    0.27
  -7  -1  10    0.29    0.37
   7  -1  11    0.23    0.45
   7   1 -11   -0.11    0.28
   7  -1  11   -0.17    0.27
  -7  -1  11    0.59    0.38
   7  -1  12    0.46    0.30
   7  -1  12    0.96    0.47
  -7  -1  12    1.47    0.46
   7  -1  13    0.14    0.30
   7  -1  13    0.10    0.53
  -7  -1  13   -0.76    0.43
   7  -1  14    0.41    0.57
   7  -1  14    0.52    0.33
  -7  -1  14    0.51    0.60
   7  -1  15    0.07    0.56
   7  -1  15    0.14    0.37
  -7  -1  15    1.68    0.64
   8   1  13    0.30    0.61
   8   1  13    2.02    0.43
  -8   1  13    1.71    0.67
   8   1  12   -0.43    0.52
   8   1  12   -0.46    0.35
  -8   1  12   -1.13    0.52
   8   1  11    3.85    0.57
   8   1  11    2.60    0.64
  -8   1  11    2.67    0.55
   8   1  10    1.56    0.34
   8   1  10    1.92    0.59
  -8   1  10    1.94    0.50
   8   1   9    0.12    0.35
   8   1   9   -0.91    0.45
  -8   1   9   -0.12    0.39
   8   1   8    2.06    0.51
   8   1   8    1.75    0.37
  -8   1   8    1.81    0.43
   8   1   7    0.59    0.45
   8   1   7    0.14    0.32
   8  -1  -7    0.33    0.29
  -8   1   7    0.57    0.34
   8   1   6    0.15    0.42
   8  -1  -6   -0.38    0.28
   8   1   6    0.01    0.33
  -8   1   6   -0.11    0.33
   8   1   5    6.54    0.71
   8   1   5    6.19    0.61
   8  -1  -5    6.38    0.51
  -8   1   5    7.00    0.63
   8  -1  -4    1.49    0.32
   8   1   4    1.34    0.38
  -8   1   4    1.50    0.36
   8   1   3   16.58    0.90
   8  -1  -3   14.91    0.76
  -8   1   3   16.41    0.84
   8   1   2   -0.01    0.35
   8   1   2   -0.24    0.35
   8  -1  -2   -0.02    0.30
  -8   1   2   -0.25    0.30
   8  -1  -1    0.63    0.42
   8   1   1    0.37    0.36
   8   1   1    1.35    0.38
   8  -1  -1    0.59    0.44
  -8   1   1    0.15    0.30
   8   1   0   -0.08    0.36
   8  -1   0    0.32    0.38
   8  -1   0   -0.88    0.36
   8   1   0    0.28    0.38
   8  -1   1    0.89    0.39
   8  -1   1    0.24    0.38
  -8  -1   1    0.59    0.29
   8  -1   2   -0.32    0.36
   8   1  -2   -0.43    0.32
   8  -1   2    0.33    0.37
  -8  -1   2   -0.05    0.29
   8   1  -3   16.65    0.77
   8  -1   3   15.42    0.92
  -8  -1   3   16.04    0.84
   8  -1   4    1.73    0.39
   8   1  -4    2.36    0.37
  -8  -1   4    2.22    0.41
   8  -1   5    5.34    0.66
   8   1  -5    5.23    0.51
  -8  -1   5    6.21    0.60
   8  -1   6   -0.28    0.32
   8   1  -6    0.31    0.29
  -8  -1   6    0.20    0.34
   8  -1   7    0.13    0.43
   8  -1   7    0.87    0.36
   8   1  -7    0.33    0.29
  -8  -1   7    0.01    0.35
   8   1  -8    1.25    0.32
   8  -1   8    1.34    0.46
   8  -1   8    1.80    0.38
  -8  -1   8    1.07    0.44
   8  -1   9    0.00    0.32
   8   1  -9   -0.19    0.33
   8  -1   9    0.19    0.48
  -8  -1   9    0.46    0.39
   8  -1  10    1.60    0.37
  -8  -1  10    1.58    0.47
   8  -1  11    3.60    0.46
   8  -1  11    3.58    0.65
  -8  -1  11    3.35    0.57
   8  -1  12   -0.34    0.54
   8  -1  12    0.50    0.37
  -8  -1  12    0.07    0.54
   8  -1  13    2.02    0.72
   8  -1  13    1.18    0.39
  -8  -1  13    1.46    0.61
   9   1  11   -0.53    0.65
   9   1  11   -0.22    0.44
  -9   1  11    0.42    0.62
   9   1  10    0.16    0.46
   9   1  10    0.87    0.57
  -9   1  10    0.67    0.57
   9   1   9   -0.16    0.55
   9   1   9    0.19    0.42
  -9   1   9   -0.36    0.47
   9   1   8    0.73    0.55
   9   1   8    0.66    0.41
  -9   1   8    0.16    0.47
   9   1   7    0.38    0.53
   9   1   7   -0.39    0.41
  -9   1   7    0.49    0.44
   9   1   6    1.24    0.44
   9   1   6    1.26    0.52
  -9   1   6    1.75    0.45
   9   1   5   -0.66    0.50
   9   1   5   -0.54    0.39
  -9   1   5   -0.80    0.39
   9   1   4    1.65    0.40
   9  -1  -4    2.35    0.40
   9   1   4    1.70    0.53
  -9   1   4    2.47    0.48
   9  -1  -3    0.54    0.39
   9   1   3    0.01    0.40
  -9   1   3    0.57    0.41
   9  -1  -2    0.48    0.39
   9   1   2    0.02    0.40
  -9   1   2   -0.68    0.34
   9  -1  -1    0.57    0.39
   9  -1  -1    0.77    0.47
   9   1   1    0.27    0.41
   9   1   1    0.61    0.42
   9  -1  -1    0.82    0.47
   9   1   0    1.45    0.46
   9  -1   0    0.77    0.49
   9  -1   0    1.80    0.47
   9   1   0    1.38    0.47
   9   1  -1    0.56    0.53
   9   1  -1    0.85    0.47
   9   1  -1    0.75    0.45
   9  -1   1    0.08    0.47
   9  -1   1    0.43    0.44
   9  -1   2    0.44    0.40
   9   1  -2    0.29    0.45
  -9  -1   2    0.36    0.38
   9   1  -3   -0.33    0.38
   9  -1   3   -0.24    0.39
  -9  -1   3   -0.43    0.38
   9   1  -4    2.20    0.39
   9  -1   4    2.52    0.46
  -9  -1   4    1.36    0.42
   9  -1   5   -0.42    0.41
   9   1  -5    0.42    0.37
  -9  -1   5    0.30    0.40
   9   1  -6    1.97    0.41
   9  -1   6    1.02    0.51
   9  -1   6    2.30    0.49
  -9  -1   6    2.98    0.47
   9  -1   7    0.04    0.43
   9  -1   7    0.25    0.58
  -9  -1   7   -0.48    0.41
   9  -1   8    0.06    0.56
   9  -1   8    0.14    0.42
  -9  -1   8    1.52    0.50
   9  -1   9   -0.52    0.43
   9  -1   9   -0.21    0.51
  -9  -1   9   -0.10    0.50
   9  -1  10   -0.55    0.60
   9  -1  10   -0.48    0.45
  -9  -1  10    0.69    0.58
   9  -1  11    0.79    0.66
   9  -1  11   -0.41    0.48
  -9  -1  11   -0.25    0.59
  10   1   7   -0.39    0.55
  10   1   7    0.66    0.61
 -10   1   7   -0.42    0.56
  10   1   6    0.46    0.61
  10   1   6   -0.18    0.55
 -10   1   6    0.57    0.59
  10   1   5   -0.26    0.57
  10   1   5   -0.69    0.56
 -10   1   5   -0.16    0.49
  10   1   4    0.01    0.55
  10   1   4    0.04    0.61
 -10   1   4   -0.06    0.47
  10  -1  -3   -0.24    0.59
  10   1   3    0.06    0.52
  10   1   3    0.76    0.50
  10  -1  -3    0.59    0.59
 -10   1   3    0.59    0.49
  10  -1  -2    0.15    0.59
  10   1   2   -0.09    0.51
  10  -1  -2    0.27    0.59
  10  -1  -2    0.86    0.79
  10   1   1    2.26    0.55
  10  -1  -1    0.23    0.69
  10  -1  -1    1.06    0.57
  10  -1  -1    1.40    0.55
  10   1   1    1.87    0.56
  10  -1   0   -0.97    0.53
  10   1   0    0.35    0.51
  10  -1   0    0.90    0.55
  10   1   0   -0.07    0.56
  10   1   0   -0.31    0.48
  10  -1   1    1.94    0.55
  10   1  -1    1.84    0.59
  10   1  -1    0.48    0.57
  10   1  -1    1.72    0.57
  10  -1   2   -0.14    0.50
  10   1  -2   -0.24    0.56
  10   1  -2    1.19    0.60
  10   1  -2   -0.54    0.58
  10  -1   3    0.97    0.50
  10   1  -3    0.99    0.64
 -10  -1   3    0.79    0.51
  10  -1   4    0.80    0.56
 -10  -1   4    0.85    0.53
  10  -1   5    0.78    0.55
 -10  -1   5    0.15    0.49
  10  -1   6    0.09    0.59
  10  -1   6   -0.36    0.57
 -10  -1   6    0.44    0.52
  10  -1   7    0.56    0.62
  10  -1   7   -0.88    0.60
 -10  -1   7    0.83    0.58
   0   2  20    0.20    0.39
   0   2  20   -0.24    0.49
   0   2  19    1.44    0.46
   0   2  19    1.56    0.41
   0   2  18    0.55    0.37
   0   2  18    0.90    0.32
   0   2  17    4.28    0.52
   0   2  17    3.37    0.42
   0   2  16    7.89    0.60
   0   2  16    8.30    0.54
   0   2  15    1.89    0.26
   0   2  15    2.15    0.32
   0   2  14    0.04    0.17
   0   2  14    0.13    0.24
   0   2  13   11.87    0.57
   0   2  13   12.19    0.51
   0   2  12    0.48    0.19
   0   2  12   -0.05    0.14
   0   2  11    9.05    0.44
   0   2  11    8.62    0.39
   0   2  10   18.90    0.63
   0   2  10   18.00    0.65
   0   2   9    6.84    0.32
   0   2   9    6.82    0.33
   0   2   8    1.06    0.16
   0   2   8    1.11    0.14
   0   2   7    2.47    0.19
   0   2   7    2.63    0.19
   0   2   6   26.58    0.77
   0   2   6   26.81    0.78
   0  -2  -5    1.13    0.10
   0   2   5    1.07    0.12
   0   2   5    1.06    0.13
   0   2   4   13.70    0.42
   0  -2  -4   12.99    0.39
   0   2   4   13.43    0.40
   0  -2  -3  466.48   11.58
   0   2   3  470.87   11.60
   0  -2  -2   79.33    1.95
   0   2   2   78.43    1.95
   0  -2  -2   73.38    1.97
   0   2   2   80.34    1.97
   0   2   1  105.87    2.66
   0   2   1  107.12    2.66
   0   2   0   -1.53    0.02
   0  -2   0   -1.53    0.04
   0  -2   0   -1.51    0.02
   0   2  -1  108.74    2.64
   0   2  -1  105.01    2.62
   0  -2   1  101.13    2.63
   0   2  -2   80.78    1.94
   0  -2   2   65.03    1.94
   0  -2   2   79.09    1.93
   0   2  -2   80.39    1.93
   0  -2   3  462.18   11.58
   0   2  -3  466.65   11.57
   0   2  -3  474.75   11.60
   0  -2   4   13.42    0.41
   0  -2   4   13.06    0.41
   0   2  -4   13.22    0.41
   0  -2   5    1.08    0.12
   0  -2   5    0.92    0.14
   0  -2   6   26.60    0.76
   0  -2   6   26.20    0.77
   0  -2   7    2.76    0.19
   0  -2   7    2.59    0.21
   0  -2   8    1.13    0.14
   0  -2   8    1.53    0.19
   0  -2   9    7.17    0.33
   0  -2   9    7.04    0.33
   0  -2  10   18.09    0.63
   0  -2  10   18.25    0.64
   0  -2  11    8.39    0.44
   0  -2  11    8.95    0.42
   0  -2  12    0.43    0.17
   0  -2  12    0.29    0.18
   0  -2  13   12.10    0.51
   0  -2  13   11.72    0.55
   0  -2  14   -0.03    0.21
   0  -2  14    0.11    0.19
   0  -2  15    1.39    0.30
   0  -2  15    1.38    0.23
   0  -2  16    6.88    0.45
   0  -2  16    7.35    0.61
   0  -2  17    3.02    0.40
   0  -2  18    0.91    0.33
   0  -2  18    0.81    0.37
   0  -2  19    2.24    0.42
   0  -2  19    1.83    0.46
   0  -2  20    0.40    0.52
   0  -2  20    0.44    0.44
   1   2  20    0.08    0.42
   1   2  20    0.27    0.47
  -1   2  20    0.56    0.39
  -1   2  20    1.81    0.59
   1   2  19    1.56    0.47
   1   2  19    2.17    0.43
  -1   2  19    1.11    0.47
  -1   2  19    1.86    0.40
   1   2  18    2.86    0.43
   1   2  18    3.86    0.57
  -1   2  18    4.33    0.63
  -1   2  18    3.65    0.43
   1   2  17    1.51    0.34
   1   2  17    1.19    0.35
  -1   2  17    0.99    0.36
  -1   2  17    1.10    0.32
   1   2  16    0.05    0.31
   1   2  16    0.04    0.27
  -1   2  16   -0.23    0.20
  -1   2  16    0.23    0.30
   1   2  15    7.26    0.56
   1   2  15    6.87    0.52
  -1   2  15    6.98    0.41
  -1   2  15    7.22    0.54
   1   2  14    0.86    0.25
   1   2  14    0.96    0.23
  -1   2  14    0.40    0.25
  -1   2  14    0.83    0.18
   1   2  13    0.24    0.19
   1   2  13    0.35    0.22
  -1   2  13    0.46    0.22
  -1   2  13    0.16    0.14
   1   2  12    3.93    0.35
   1   2  12    3.52    0.36
  -1   2  12    3.60    0.39
  -1   2  12    4.10    0.26
   1   2  11    8.17    0.38
   1   2  11    8.73    0.45
  -1   2  11    8.34    0.36
  -1   2  11    8.01    0.45
   1   2  10    0.77    0.19
   1   2  10    0.81    0.14
  -1   2  10    0.85    0.13
  -1   2  10    0.60    0.15
   1   2   9    1.14    0.19
   1   2   9    0.80    0.13
  -1   2   9    1.03    0.16
  -1   2   9    1.06    0.15
   1   2   8    2.04    0.17
   1   2   8    1.89    0.23
  -1   2   8    2.22    0.16
  -1   2   8    1.49    0.20
   1   2   7    0.14    0.08
   1   2   7    0.14    0.13
  -1   2   7    0.09    0.08
  -1   2   7    0.27    0.11
   1   2   6    1.36    0.18
   1   2   6    1.22    0.12
  -1  -2  -6    1.26    0.14
  -1   2   6    1.20    0.12
   1   2   5    6.08    0.22
   1   2   5    5.53    0.30
  -1  -2  -5    5.73    0.23
  -1   2   5    5.95    0.27
   1   2   4  655.45   16.22
   1  -2  -4  651.25   16.17
  -1   2   4  652.84   16.19
   1  -2  -3  439.39   10.71
   1   2   3  425.67   10.75
  -1   2   3  428.72   10.68
  -1   2   3  435.52   10.72
  -1  -2  -3  428.69   10.67
   1   2   2    0.25    0.04
   1   2   2    0.16    0.08
   1  -2  -2    0.23    0.07
  -1   2   2    0.16    0.07
  -1   2   2    0.12    0.06
  -1  -2  -2    0.27    0.05
   1   2   1  254.14    6.12
   1   2   1  247.75    6.18
   1  -2  -1  263.43    6.17
   1   2   1  249.75    6.13
   1   2   1  246.99    6.13
  -1   2   1  254.90    6.15
  -1   2   1  253.42    6.17
  -1  -2  -1  209.48    6.16
   1   2   0   -0.16    0.04
   1   2   0   -0.16    0.06
   1  -2   0   -0.02    0.06
   1  -2   0   -0.09    0.08
   1  -2   0   -0.20    0.06
   1  -2   0   -0.18    0.08
  -1  -2   0   -0.14    0.04
  -1  -2   0   -0.18    0.06
  -1   2   0   -0.10    0.06
  -1   2   0   -0.08    0.06
   1   2  -1  251.33    6.18
   1   2  -1  257.62    6.23
  -1   2  -1  254.75    6.23
  -1  -2   1  246.22    6.19
  -1  -2   1  236.93    6.23
   1   2  -2    0.28    0.08
   1  -2   2    0.27    0.08
   1   2  -2    0.13    0.05
   1   2  -2    0.21    0.03
  -1   2  -2    0.19    0.07
  -1  -2   2    0.21    0.07
   1  -2   3  416.58   10.58
   1   2  -3  422.44   10.56
   1   2  -3  434.03   10.58
  -1  -2   3  421.95   10.57
  -1   2  -3  435.70   10.59
   1   2  -4  624.64   15.29
   1   2  -4  574.70   15.30
  -1   2  -4  653.89   15.32
   1   2  -5    5.35    0.22
   1  -2   5    5.86    0.25
   1   2  -5    5.49    0.26
   1  -2   5    5.87    0.31
  -1  -2   5    6.04    0.19
  -1  -2   5    5.98    0.26
   1   2  -6    1.65    0.17
   1  -2   6    1.21    0.18
   1  -2   6    1.28    0.14
  -1  -2   6    1.46    0.10
  -1  -2   6    1.15    0.15
   1  -2   7    0.11    0.14
  -1  -2   7    0.08    0.08
  -1  -2   7    0.28    0.07
   1  -2   8    2.27    0.26
   1  -2   8    2.13    0.18
  -1  -2   8    1.77    0.14
  -1  -2   8    1.96    0.20
   1  -2   9    1.00    0.14
   1  -2   9    1.15    0.21
  -1  -2   9    0.73    0.15
  -1  -2   9    0.93    0.14
   1  -2  10    0.57    0.12
   1  -2  10    0.85    0.21
  -1  -2  10    0.72    0.12
  -1  -2  10    0.72    0.17
   1  -2  11    7.47    0.40
   1  -2  11    7.98    0.45
  -1  -2  11    8.25    0.45
  -1  -2  11    8.02    0.33
   1  -2  12    3.55    0.31
   1  -2  12    2.58    0.34
  -1  -2  12    4.05    0.34
  -1  -2  12    3.53    0.25
   1  -2  13    0.48    0.23
   1  -2  13    0.62    0.20
  -1  -2  13    0.10    0.19
  -1  -2  13    0.21    0.14
   1  -2  14    0.66    0.21
   1  -2  14    0.58    0.26
  -1  -2  14    0.97    0.17
  -1  -2  14    1.09    0.25
   1  -2  15    6.50    0.51
   1  -2  15    6.62    0.48
  -1  -2  15    6.34    0.52
  -1  -2  15    7.00    0.38
   1  -2  16   -0.26    0.24
   1  -2  16    0.13    0.27
  -1  -2  16   -0.10    0.19
  -1  -2  16   -0.24    0.28
   1  -2  17    0.86    0.40
   1  -2  17    0.99    0.33
  -1  -2  17    1.33    0.38
  -1  -2  17    0.88    0.23
   1  -2  18    3.48    0.45
   1  -2  18    3.53    0.44
  -1  -2  18    4.38    0.62
  -1  -2  18    3.22    0.41
   1  -2  19    1.82    0.40
   1  -2  19    2.47    0.48
  -1  -2  19    1.77    0.49
   1  -2  20    0.63    0.41
   1  -2  20    1.08    0.52
  -1  -2  20    1.01    0.52
   2   2  19    1.62    0.47
   2   2  19    1.62    0.47
  -2   2  19    1.61    0.39
  -2   2  19    1.43    0.53
   2   2  18    2.98    0.47
   2   2  18    3.03    0.43
  -2   2  18    3.26    0.43
  -2   2  18    3.26    0.53
   2   2  17    1.85    0.42
   2   2  17    2.27    0.35
  -2   2  17    2.37    0.35
  -2   2  17    2.24    0.47
   2   2  16    1.61    0.30
   2   2  16    1.33    0.36
  -2   2  16    1.39    0.34
  -2   2  16    1.86    0.28
   2   2  15    7.88    0.68
   2   2  15    6.92    0.49
  -2   2  15    5.58    0.39
  -2   2  15    5.84    0.56
   2   2  14    6.53    0.60
   2   2  14    5.78    0.44
  -2   2  14    5.79    0.37
  -2   2  14    5.41    0.53
   2   2  13   -0.09    0.21
   2   2  13    0.12    0.25
  -2   2  13   -0.17    0.24
  -2   2  13   -0.01    0.16
   2   2  12    2.65    0.32
   2   2  12    2.59    0.33
  -2   2  12    2.56    0.32
  -2   2  12    2.77    0.27
   2   2  11   -0.10    0.12
   2   2  11    0.26    0.20
  -2   2  11    0.09    0.13
  -2   2  11    0.14    0.21
   2   2  10    4.63    0.41
   2   2  10    4.71    0.27
  -2   2  10    4.80    0.26
  -2   2  10    4.52    0.37
   2   2   9   50.17    1.56
   2   2   9   51.97    1.40
  -2   2   9   51.45    1.51
  -2   2   9   51.32    1.39
   2   2   8    0.37    0.10
   2   2   8    0.04    0.17
  -2   2   8    0.29    0.15
  -2   2   8    0.35    0.11
   2   2   7   48.38    1.30
   2   2   7   48.22    1.46
  -2   2   7   47.29    1.39
  -2   2   7   48.75    1.30
   2   2   6   52.41    1.38
   2   2   6   50.80    1.53
  -2   2   6   51.84    1.47
  -2   2   6   53.12    1.39
   2   2   5  156.88    4.13
   2   2   5  156.78    3.99
  -2   2   5  160.40    4.07
  -2   2   5  160.47    4.00
  -2  -2  -5  156.60    4.02
   2   2   4  135.26    3.56
   2  -2  -4  136.92    3.40
   2   2   4  135.25    3.43
  -2   2   4  134.72    3.44
  -2  -2  -4  137.78    3.46
  -2   2   4  132.35    3.41
  -2   2   4  137.83    3.50
   2   2   3    6.74    0.35
   2   2   3    7.12    0.27
   2  -2  -3    7.05    0.22
  -2   2   3    7.18    0.24
  -2   2   3    6.77    0.31
  -2   2   3    6.75    0.27
  -2  -2  -3    6.97    0.29
   2   2   2   63.78    1.61
   2  -2  -2   61.78    1.57
   2   2   2   62.25    1.63
   2   2   2   61.02    1.70
   2  -2  -2   60.77    1.65
  -2   2   2   62.45    1.63
  -2   2   2   62.32    1.66
   2  -2  -1    0.26    0.09
   2   2   1    0.34    0.07
  -2  -2  -1    0.39    0.08
  -2   2   1    0.34    0.09
  -2   2   1    0.28    0.09
   2  -2   0   60.11    1.61
   2   2   0   60.86    1.58
  -2  -2   0   61.91    1.59
  -2   2   0   60.71    1.62
   2   2  -1    0.25    0.08
   2  -2   1    0.43    0.11
   2  -2   1    0.39    0.11
   2   2  -1    0.33    0.12
   2  -2   1    0.42    0.10
  -2  -2   1    0.47    0.09
   2   2  -2   62.33    1.65
   2   2  -2   60.89    1.61
   2  -2   2   61.87    1.66
  -2   2  -2   61.76    1.68
  -2  -2   2   62.08    1.63
  -2   2  -2   60.62    1.67
   2   2  -3    7.18    0.30
   2   2  -3    6.65    0.22
   2  -2   3    6.80    0.31
  -2   2  -3    6.79    0.33
  -2  -2   3    7.31    0.30
   2   2  -4  132.36    3.34
   2  -2   4  135.32    3.45
   2   2  -4  135.75    3.43
  -2  -2   4  132.74    3.44
  -2  -2   4  134.34    3.36
   2   2  -5  155.64    3.95
   2   2  -5  152.60    3.86
   2  -2   5  155.91    3.96
  -2  -2   5  154.21    3.98
  -2  -2   5  156.81    3.87
   2  -2   6   49.74    1.51
   2  -2   6   50.18    1.40
   2   2  -6   50.10    1.40
  -2  -2   6   53.00    1.32
  -2  -2   6   51.35    1.43
   2   2  -7   48.18    1.33
   2  -2   7   47.15    1.32
   2  -2   7   46.22    1.44
  -2  -2   7   45.50    1.35
  -2  -2   7   49.12    1.24
   2   2  -8    0.34    0.14
   2  -2   8    0.64    0.12
   2  -2   8    0.25    0.19
  -2  -2   8    0.48    0.14
  -2  -2   8    0.28    0.09
   2  -2   9   49.55    1.56
   2  -2   9   51.52    1.43
  -2  -2   9   50.60    1.50
  -2  -2   9   51.92    1.34
   2  -2  10    5.11    0.42
   2  -2  10    4.29    0.28
  -2  -2  10    4.51    0.24
  -2  -2  10    5.18    0.38
   2  -2  11   -0.04    0.23
   2  -2  11   -0.05    0.15
  -2  -2  11    0.00    0.11
  -2  -2  11    0.00    0.16
   2  -2  12    2.65    0.35
   2  -2  12    2.47    0.29
  -2  -2  12    2.59    0.33
  -2  -2  12    2.46    0.23
   2  -2  13    0.11    0.26
   2  -2  13    0.02    0.18
  -2  -2  13   -0.19    0.20
  -2  -2  13    0.10    0.15
   2  -2  14    5.98    0.54
   2  -2  14    5.44    0.41
  -2  -2  14    5.99    0.34
  -2  -2  14    5.14    0.48
   2  -2  15    5.06    0.67
   2  -2  15    6.36    0.46
  -2  -2  15    6.39    0.37
  -2  -2  15    6.55    0.55
   2  -2  16    2.47    0.52
   2  -2  16    1.09    0.29
  -2  -2  16    0.84    0.36
  -2  -2  16    1.40    0.23
   2  -2  17    1.80    0.46
   2  -2  17    1.85    0.31
  -2  -2  17    2.37    0.34
  -2  -2  17    2.24    0.42
   2  -2  18    2.20    0.51
   2  -2  18    2.87    0.42
  -2  -2  18    3.11    0.51
   2  -2  19    2.03    0.46
   2  -2  19    1.36    0.50
  -2  -2  19    0.67    0.49
   3   2  19    0.44    0.44
   3   2  19    0.16    0.52
  -3   2  19    0.15    0.55
   3   2  18    1.61    0.38
   3   2  18    1.32    0.47
  -3   2  18    1.32    0.50
  -3   2  18    2.05    0.42
   3   2  17    1.16    0.40
   3   2  17    1.94    0.35
  -3   2  17    2.04    0.34
  -3   2  17    0.86    0.45
   3   2  16    0.69    0.27
   3   2  16    1.37    0.41
  -3   2  16    0.61    0.40
  -3   2  16    1.32    0.28
   3   2  15    0.25    0.23
   3   2  15    0.03    0.34
  -3   2  15    0.53    0.23
  -3   2  15    0.30    0.32
   3   2  14    0.71    0.22
   3   2  14    0.43    0.33
  -3   2  14    0.76    0.22
  -3   2  14    0.75    0.31
   3   2  13    1.39    0.23
   3   2  13    1.43    0.43
  -3   2  13    1.57    0.31
  -3   2  13    2.03    0.30
   3   2  12   -0.02    0.19
   3   2  12    0.31    0.31
  -3   2  12    0.00    0.16
  -3   2  12   -0.08    0.22
   3   2  11    5.34    0.47
   3   2  11    4.93    0.31
  -3   2  11    5.35    0.33
  -3   2  11    4.18    0.42
   3   2  10    0.48    0.13
   3   2  10    0.00    0.26
  -3   2  10    0.42    0.20
  -3   2  10    0.37    0.15
   3   2   9   14.90    0.72
   3   2   9   15.61    0.53
  -3   2   9   15.64    0.54
  -3   2   9   15.18    0.68
   3   2   8   28.22    0.83
   3   2   8   27.02    1.01
  -3   2   8   27.58    0.84
  -3   2   8   27.36    0.95
   3   2   7   40.85    1.38
   3   2   7   42.99    1.19
  -3   2   7   43.79    1.21
  -3   2   7   42.91    1.31
   3  -2  -6  100.24    2.54
   3   2   6   99.45    2.58
   3   2   6   99.62    2.77
  -3   2   6   97.62    2.68
  -3   2   6   98.69    2.59
   3   2   5    0.18    0.17
   3  -2  -5    0.18    0.08
  -3   2   5    0.23    0.13
  -3   2   5    0.26    0.11
   3   2   4    1.01    0.19
   3  -2  -4    1.43    0.12
   3   2   4    1.57    0.17
  -3   2   4    1.83    0.22
  -3  -2  -4    0.98    0.18
  -3   2   4    1.31    0.18
  -3  -2  -4    1.39    0.20
   3  -2  -3  102.79    2.60
   3   2   3   99.96    2.78
   3   2   3  102.33    2.68
   3   2   3  104.22    2.66
  -3   2   3  101.34    2.67
  -3   2   3  103.81    2.72
   3   2   2    1.66    0.18
   3   2   2    1.49    0.20
   3   2   2    1.41    0.19
  -3   2   2    1.33    0.17
  -3   2   2    1.58    0.20
   3   2   1    1.28    0.18
  -3   2   1    1.51    0.20
  -3  -2  -1    1.46    0.17
   3   2   0    0.20    0.11
  -3  -2   0   -0.06    0.09
  -3   2   0   -0.17    0.10
   3  -2   1    1.48    0.22
   3  -2   1    1.90    0.23
  -3  -2   1    1.35    0.17
   3   2  -2    1.60    0.20
   3  -2   2    1.43    0.21
  -3  -2   2    1.52    0.19
   3   2  -3  101.16    2.67
   3  -2   3  101.18    2.70
  -3  -2   3  102.12    2.68
   3  -2   4    1.58    0.20
   3   2  -4    1.19    0.18
  -3  -2   4    1.25    0.18
   3   2  -5    0.15    0.11
   3  -2   5    0.06    0.11
  -3  -2   5   -0.01    0.12
   3   2  -6   98.17    2.57
   3  -2   6   97.39    2.61
  -3  -2   6   97.98    2.64
  -3  -2   6   98.33    2.51
   3  -2   7   40.34    1.38
   3  -2   7   42.76    1.23
   3   2  -7   42.49    1.21
  -3  -2   7   43.50    1.15
  -3  -2   7   42.57    1.29
   3   2  -8   26.84    0.84
   3  -2   8   26.57    0.83
   3  -2   8   26.45    1.00
  -3  -2   8   27.16    0.91
  -3  -2   8   24.44    0.75
   3   2  -9   14.36    0.55
   3  -2   9   15.05    0.55
   3  -2   9   14.91    0.72
  -3  -2   9   14.75    0.49
  -3  -2   9   14.59    0.65
   3  -2  10    0.56    0.25
   3  -2  10    0.31    0.17
  -3  -2  10    0.26    0.17
  -3  -2  10    0.14    0.14
   3  -2  11    5.28    0.49
   3  -2  11    5.70    0.37
  -3  -2  11    4.91    0.40
  -3  -2  11    5.04    0.30
   3  -2  12   -0.28    0.28
   3  -2  12    0.00    0.17
  -3  -2  12   -0.12    0.15
   3  -2  13    1.45    0.22
   3  -2  13    1.28    0.38
  -3  -2  13    1.18    0.30
  -3  -2  13    2.06    0.27
   3  -2  14    0.65    0.23
   3  -2  14    0.10    0.51
  -3  -2  14    0.53    0.28
  -3  -2  14    1.06    0.21
   3  -2  15    0.42    0.43
   3  -2  15    0.33    0.23
  -3  -2  15    0.44    0.19
  -3  -2  15    0.04    0.31
   3  -2  16    0.27    0.42
   3  -2  16    1.24    0.27
  -3  -2  16    0.87    0.38
  -3  -2  16    1.02    0.24
   3  -2  17    1.49    0.32
   3  -2  17    1.82    0.49
  -3  -2  17    1.57    0.44
   3  -2  18    0.44    0.56
   3  -2  18    1.09    0.35
  -3  -2  18    1.12    0.50
   3  -2  19    0.34    0.53
   3  -2  19    0.79    0.41
  -3  -2  19    0.06    0.57
   4   2  18   -0.45    0.53
   4   2  18    1.08    0.41
  -4   2  18    1.52    0.61
   4   2  17    0.02    0.32
   4   2  17    0.39    0.47
  -4   2  17    0.23    0.33
  -4   2  17   -0.16    0.49
   4   2  16    1.75    0.30
   4   2  16    1.49    0.47
  -4   2  16    1.90    0.35
  -4   2  16    2.18    0.46
   4   2  15    2.24    0.30
   4   2  15    2.53    0.44
  -4   2  15    2.22    0.47
  -4   2  15    2.02    0.33
   4   2  14    0.25    0.21
   4   2  14    0.17    0.39
  -4   2  14    0.41    0.26
  -4   2  14   -0.22    0.34
   4   2  13   24.31    0.84
   4   2  13   24.54    1.09
  -4   2  13   25.80    1.06
  -4   2  13   24.79    0.87
   4   2  12   14.32    0.62
   4   2  12   13.81    0.81
  -4   2  12   14.07    0.60
  -4   2  12   13.70    0.74
   4   2  11    5.81    0.64
   4   2  11    6.19    0.41
  -4   2  11    6.56    0.41
  -4   2  11    6.45    0.52
   4   2  10    0.98    0.17
   4   2  10    0.65    0.33
  -4   2  10    1.19    0.22
  -4   2  10    1.09    0.25
   4   2   9    2.19    0.38
   4   2   9    2.76    0.25
  -4   2   9    2.37    0.28
  -4   2   9    2.22    0.30
   4   2   8    5.66    0.51
   4   2   8    4.78    0.29
  -4   2   8    4.37    0.32
  -4   2   8    4.96    0.43
   4   2   7    6.92    0.52
   4   2   7    7.13    0.35
   4  -2  -7    7.32    0.31
  -4   2   7    7.09    0.46
  -4   2   7    6.76    0.37
   4   2   6    0.00    0.19
   4   2   6    0.12    0.12
   4  -2  -6    0.18    0.10
  -4   2   6    0.02    0.15
  -4   2   6    0.31    0.15
   4   2   5   25.14    0.81
   4  -2  -5   25.14    0.72
   4   2   5   24.80    0.95
  -4   2   5   25.09    0.80
  -4   2   5   24.09    0.86
   4   2   4    0.27    0.21
   4   2   4    0.26    0.13
   4  -2  -4    0.51    0.12
  -4   2   4    0.36    0.16
  -4   2   4    0.31    0.14
   4  -2  -3  143.38    3.64
   4   2   3  140.22    3.72
  -4   2   3  143.22    3.76
   4   2   2   26.75    0.88
   4   2   2   26.24    0.87
  -4   2   2   26.68    0.89
  -4   2   1   56.50    1.62
  -4  -2  -1   57.14    1.58
  -4  -2   0    0.42    0.13
  -4   2   0    0.82    0.16
   4  -2   1   57.08    1.69
   4  -2   1   57.44    1.69
  -4  -2   1   56.64    1.60
   4   2  -2   27.62    0.90
   4  -2   2   25.75    0.92
   4  -2   2   27.23    0.93
  -4  -2   2   27.12    0.87
   4   2  -3  142.62    3.71
   4  -2   3  139.56    3.76
  -4  -2   3  143.10    3.72
   4  -2   4    0.20    0.15
   4   2  -4    0.59    0.16
  -4  -2   4    0.39    0.15
   4  -2   5   25.17    0.85
   4   2  -5   25.09    0.81
  -4  -2   5   24.87    0.86
   4   2  -6    0.27    0.15
   4  -2   6    0.23    0.14
  -4  -2   6    0.12    0.17
   4   2  -7    7.22    0.36
   4  -2   7    6.64    0.37
  -4  -2   7    6.37    0.46
   4  -2   8    5.14    0.33
   4  -2   8    4.65    0.48
   4   2  -8    4.51    0.31
  -4  -2   8    4.42    0.30
  -4  -2   8    4.48    0.39
   4   2  -9    2.76    0.27
   4  -2   9    2.56    0.39
   4  -2   9    2.46    0.31
  -4  -2   9    2.02    0.28
  -4  -2   9    2.98    0.28
   4  -2  10    0.40    0.31
   4   2 -10    0.84    0.21
   4  -2  10    0.95    0.22
  -4  -2  10    0.64    0.23
  -4  -2  10    1.23    0.20
   4  -2  11    6.54    0.66
   4  -2  11    5.94    0.39
  -4  -2  11    6.49    0.48
  -4  -2  11    6.20    0.38
   4  -2  12   12.49    0.57
   4  -2  12   13.13    0.92
  -4  -2  12   12.94    0.68
  -4  -2  12   13.04    0.54
   4  -2  13   26.02    1.19
   4  -2  13   24.47    0.88
  -4  -2  13   24.12    0.82
  -4  -2  13   26.15    1.04
   4  -2  14    1.20    0.43
   4  -2  14    0.31    0.22
  -4  -2  14    0.03    0.34
  -4  -2  14    0.22    0.22
   4  -2  15    2.72    0.40
   4  -2  15    1.52    0.48
  -4  -2  15    2.54    0.47
   4  -2  16    1.53    0.28
   4  -2  16    1.84    0.50
  -4  -2  16    1.50    0.45
   4  -2  17   -0.55    0.52
   4  -2  17   -0.68    0.30
  -4  -2  17    0.29    0.45
   4  -2  18    0.76    0.38
   4  -2  18    0.21    0.59
  -4  -2  18   -0.34    0.55
   5   2  17    4.59    0.60
   5   2  17    4.13    0.67
  -5   2  17    3.55    0.66
   5   2  16    5.93    0.79
   5   2  16    4.69    0.52
  -5   2  16    5.64    0.58
  -5   2  16    4.84    0.63
   5   2  15    2.24    0.50
   5   2  15    1.45    0.28
  -5   2  15    1.93    0.36
  -5   2  15    1.81    0.48
   5   2  14    1.46    0.46
   5   2  14    3.11    0.37
  -5   2  14    2.24    0.37
  -5   2  14    2.20    0.48
   5   2  13    0.61    0.39
   5   2  13    0.72    0.22
  -5   2  13    1.22    0.41
  -5   2  13    1.25    0.32
   5   2  12    0.25    0.20
   5   2  12   -0.18    0.35
  -5   2  12    0.07    0.25
  -5   2  12   -0.39    0.29
   5   2  11    5.67    0.61
   5   2  11    6.23    0.46
  -5   2  11    6.20    0.55
  -5   2  11    6.17    0.46
   5   2  10    0.52    0.33
   5   2  10    0.27    0.21
  -5   2  10   -0.02    0.24
  -5   2  10    0.34    0.22
   5   2   9    0.29    0.37
  -5   2   9    0.30    0.21
  -5   2   9    0.49    0.21
   5  -2  -8    3.70    0.27
   5   2   8    3.90    0.33
   5   2   8    4.05    0.56
  -5   2   8    4.01    0.41
  -5   2   8    4.51    0.37
   5   2   7    0.26    0.18
   5  -2  -7    0.86    0.14
   5   2   7    0.53    0.28
  -5   2   7    0.93    0.22
  -5   2   7    0.56    0.18
   5   2   6    0.01    0.16
   5  -2  -6    0.21    0.13
   5   2   6    0.10    0.27
  -5   2   6    0.40    0.22
  -5   2   6   -0.15    0.16
   5   2   5    8.18    0.58
   5  -2  -5    8.60    0.37
   5   2   5    8.86    0.45
  -5   2   5    9.18    0.55
   5  -2  -4    1.23    0.17
   5   2   4    1.00    0.20
   5   2   4    1.04    0.25
  -5   2   4    1.70    0.26
   5   2   3   16.22    0.67
   5  -2  -3   16.41    0.60
  -5   2   3   16.56    0.69
   5   2   2    5.67    0.39
   5   2   2    6.28    0.40
  -5   2   2    6.10    0.41
  -5   2   1    2.15    0.27
  -5  -2  -1    1.35    0.19
  -5  -2   0    0.36    0.16
  -5   2   0    0.48    0.17
   5  -2   1    1.28    0.25
   5  -2   1    1.32    0.24
  -5  -2   1    1.63    0.21
   5  -2   2    6.28    0.44
   5  -2   2    5.89    0.44
   5   2  -2    5.57    0.41
  -5  -2   2    5.84    0.37
   5  -2   3   15.71    0.69
   5   2  -3   15.79    0.64
  -5  -2   3   15.71    0.65
   5   2  -4    1.04    0.22
   5  -2   4    1.19    0.22
  -5  -2   4    1.03    0.21
   5   2  -5    8.55    0.45
   5  -2   5    9.41    0.49
  -5  -2   5    9.37    0.53
   5   2  -6   -0.11    0.17
   5  -2   6   -0.04    0.19
  -5  -2   6    0.17    0.21
   5   2  -7    0.81    0.18
   5  -2   7    0.48    0.24
  -5  -2   7    0.36    0.21
   5  -2   8    3.63    0.53
   5   2  -8    4.67    0.34
   5  -2   8    3.59    0.42
  -5  -2   8    3.77    0.40
   5   2  -9    0.31    0.20
   5  -2   9   -0.11    0.37
   5  -2   9    0.17    0.20
  -5  -2   9    0.12    0.21
   5  -2  10    0.11    0.22
   5   2 -10   -0.15    0.21
   5  -2  10   -0.12    0.32
  -5  -2  10    0.58    0.26
   5  -2  11    6.87    0.66
   5  -2  11    5.95    0.40
   5   2 -11    5.15    0.43
  -5  -2  11    5.79    0.54
   5  -2  12    0.23    0.40
   5  -2  12    0.56    0.21
  -5  -2  12    0.03    0.28
   5  -2  13    1.05    0.25
   5  -2  13    1.05    0.44
  -5  -2  13    1.36    0.39
  -5  -2  13    1.18    0.25
   5  -2  14    2.98    0.41
   5  -2  14    2.64    0.51
  -5  -2  14    2.93    0.49
   5  -2  15    1.59    0.30
   5  -2  15    1.70    0.53
  -5  -2  15    1.30    0.45
   5  -2  16    4.11    0.65
   5  -2  16    4.35    0.47
  -5  -2  16    6.46    0.83
   5  -2  17    3.68    0.51
   5  -2  17    3.13    0.64
  -5  -2  17    4.00    0.72
   6   2  16    0.02    0.59
   6   2  16    0.70    0.37
  -6   2  16    1.48    0.60
   6   2  15    0.54    0.51
   6   2  15    0.96    0.31
  -6   2  15    0.34    0.51
  -6   2  15    0.16    0.42
   6   2  14   -0.66    0.45
   6   2  14    0.49    0.29
  -6   2  14   -0.49    0.35
  -6   2  14    0.19    0.45
   6   2  13    1.22    0.28
   6   2  13    0.62    0.46
  -6   2  13    1.21    0.43
  -6   2  13    1.26    0.37
   6   2  12   -0.03    0.40
   6   2  12    0.07    0.22
  -6   2  12   -0.37    0.36
  -6   2  12    0.15    0.31
   6   2  11    0.50    0.22
   6   2  11    0.67    0.42
  -6   2  11    0.87    0.35
  -6   2  11    0.86    0.29
   6   2  10    0.28    0.24
   6   2  10   -0.17    0.35
  -6   2  10    0.75    0.30
  -6   2  10    0.55    0.27
   6   2   9   40.38    1.31
   6  -2  -9   40.43    1.16
   6   2   9   40.20    1.57
  -6   2   9   39.46    1.42
   6   2   8    0.03    0.34
   6  -2  -8   -0.14    0.17
   6   2   8    0.13    0.25
  -6   2   8    0.00    0.23
   6   2   7    0.52    0.36
   6   2   7    0.12    0.25
   6  -2  -7   -0.02    0.16
  -6   2   7    0.31    0.24
   6   2   6    5.79    0.67
   6   2   6    7.69    0.49
   6  -2  -6    7.22    0.37
  -6   2   6    8.45    0.52
   6  -2  -5    0.51    0.18
   6   2   5    0.53    0.23
   6   2   5    0.50    0.31
  -6   2   5    0.82    0.22
   6  -2  -4   16.29    0.61
   6   2   4   16.63    0.73
   6   2   4   16.72    0.85
  -6   2   4   17.26    0.74
   6  -2  -3    0.70    0.22
   6   2   3    1.06    0.25
  -6   2   3    0.81    0.22
   6   2   2   10.73    0.57
   6   2   2   10.73    0.58
  -6   2   2    9.88    0.56
   6   2   1    1.62    0.30
   6   2   1    0.76    0.26
  -6  -2  -1    1.10    0.22
  -6   2   1    1.20    0.27
   6  -2   0    0.86    0.31
   6  -2   0    0.65    0.30
  -6   2   0    1.25    0.29
  -6  -2   0    0.82    0.21
   6  -2   1    1.18    0.32
   6  -2   1    1.40    0.33
  -6  -2   1    1.17    0.23
   6  -2   2   10.55    0.67
   6   2  -2   10.92    0.59
   6  -2   2    9.35    0.65
  -6  -2   2   10.31    0.57
   6  -2   3    0.66    0.29
   6   2  -3    1.35    0.25
  -6  -2   3    0.82    0.27
   6  -2   4   15.77    0.79
   6   2  -4   16.56    0.69
  -6  -2   4   16.51    0.75
   6  -2   5    1.01    0.29
   6   2  -5    0.83    0.22
  -6  -2   5    0.74    0.23
   6   2  -6    7.24    0.44
   6  -2   6    7.75    0.57
  -6  -2   6    6.24    0.49
   6   2  -7    0.40    0.22
   6  -2   7    0.09    0.23
  -6  -2   7   -0.23    0.22
   6  -2   8   -0.43    0.31
   6  -2   8    0.28    0.26
   6   2  -8    0.20    0.20
  -6  -2   8    0.22    0.25
   6  -2   9   36.67    1.51
   6   2  -9   39.32    1.22
   6  -2   9   39.34    1.30
  -6  -2   9   40.53    1.40
   6  -2  10    0.32    0.26
   6   2 -10    0.27    0.24
   6  -2  10    0.29    0.36
  -6  -2  10   -0.24    0.29
   6  -2  11    0.40    0.26
   6   2 -11    0.29    0.26
   6  -2  11    0.51    0.40
  -6  -2  11    0.34    0.34
   6  -2  12    0.70    0.26
   6   2 -12    0.25    0.27
   6  -2  12    0.19    0.42
  -6  -2  12    0.73    0.35
   6  -2  13    0.72    0.28
   6  -2  13    0.86    0.47
   6  -2  14    0.03    0.50
   6  -2  14    0.11    0.26
  -6  -2  14    0.26    0.43
   6  -2  15    0.46    0.55
   6  -2  15    0.50    0.33
  -6  -2  15    0.64    0.52
   6  -2  16    0.08    0.58
   6  -2  16    0.57    0.32
  -6  -2  16   -0.18    0.58
   7   2  15    2.21    0.43
   7   2  15   -0.06    0.55
  -7   2  15    1.40    0.64
   7   2  14   -0.58    0.32
   7   2  14   -0.56    0.53
  -7   2  14    0.74    0.59
   7   2  13    1.45    0.53
   7   2  13    0.72    0.31
  -7   2  13    0.97    0.50
   7   2  12    0.38    0.47
   7   2  12   -0.03    0.28
  -7   2  12   -0.05    0.42
   7   2  11   -0.16    0.26
   7   2  11    0.61    0.43
  -7   2  11    0.36    0.40
   7   2  10   -0.36    0.41
   7   2  10    0.78    0.28
  -7   2  10    0.78    0.38
   7   2   9    0.69    0.43
   7   2   9    0.48    0.27
  -7   2   9   -0.24    0.33
   7  -2  -8    2.78    0.33
   7   2   8    2.56    0.34
   7   2   8    2.36    0.45
  -7   2   8    2.30    0.40
   7  -2  -7    0.39    0.20
   7   2   7    0.06    0.36
   7   2   7   -0.06    0.28
  -7   2   7   -0.27    0.29
   7  -2  -6    4.71    0.36
   7   2   6    4.65    0.62
   7   2   6    3.89    0.54
  -7   2   6    3.94    0.49
   7  -2  -5    1.44    0.24
   7   2   5    1.59    0.42
   7   2   5    1.35    0.34
  -7   2   5    1.12    0.29
   7   2   4    0.64    0.43
   7  -2  -4    0.82    0.24
   7   2   4    0.43    0.35
  -7   2   4    0.64    0.25
   7  -2  -3    6.38    0.46
   7   2   3    6.84    0.63
  -7   2   3    6.70    0.51
   7   2   2    1.99    0.41
   7   2   2    1.26    0.41
  -7   2   2    0.95    0.26
   7   2   1    2.55    0.44
   7   2   1    2.66    0.43
  -7   2   1    3.30    0.41
   7  -2   0   -0.15    0.33
   7  -2   0    0.44    0.32
  -7  -2   0    0.25    0.25
   7  -2   1    2.59    0.42
   7  -2   1    2.72    0.44
  -7  -2   1    2.57    0.34
   7   2  -2    1.85    0.33
   7  -2   2    1.13    0.35
   7  -2   2    1.54    0.35
  -7  -2   2    1.46    0.31
   7  -2   3    7.63    0.63
   7   2  -3    6.58    0.55
  -7  -2   3    6.13    0.53
   7  -2   4    0.35    0.29
   7   2  -4    0.52    0.26
  -7  -2   4    0.98    0.28
   7  -2   5    1.67    0.33
   7   2  -5    1.45    0.28
  -7  -2   5    1.17    0.32
   7  -2   6    4.64    0.55
   7   2  -6    4.75    0.43
  -7  -2   6    3.87    0.52
   7  -2   7   -0.29    0.27
   7   2  -7    0.16    0.25
  -7  -2   7    0.61    0.30
   7   2  -8    2.60    0.33
   7  -2   8    2.67    0.38
   7  -2   8    2.70    0.48
  -7  -2   8    2.97    0.44
   7  -2   9    0.61    0.41
  -7  -2   9    0.99    0.33
   7  -2  10    0.49    0.43
   7  -2  10    0.26    0.29
   7   2 -10    0.93    0.28
  -7  -2  10    1.03    0.37
   7   2 -11    0.02    0.29
   7  -2  11    0.81    0.31
   7  -2  11    0.18    0.44
  -7  -2  11    0.29    0.40
   7  -2  12    0.25    0.48
   7  -2  12   -0.16    0.28
  -7  -2  12   -0.61    0.41
   7  -2  13    0.78    0.56
   7  -2  13    0.43    0.30
  -7  -2  13    0.59    0.48
   7  -2  14   -0.41    0.53
   7  -2  14   -0.28    0.34
  -7  -2  14   -0.27    0.51
   7  -2  15    0.24    0.63
   7  -2  15    1.24    0.40
  -7  -2  15    1.06    0.65
   8   2  13    0.71    0.61
   8   2  13    0.26    0.39
  -8   2  13    0.01    0.62
   8   2  12    0.57    0.56
   8   2  12   -0.21    0.37
  -8   2  12    0.29    0.60
   8   2  11   -0.17    0.53
   8   2  11    0.05    0.34
  -8   2  11   -0.02    0.48
   8   2  10    1.31    0.35
   8   2  10    0.39    0.53
  -8   2  10    1.55    0.49
   8   2   9    0.57    0.47
   8   2   9    0.39    0.33
  -8   2   9    1.11    0.44
   8   2   8    1.19    0.46
   8   2   8   -0.06    0.34
  -8   2   8    0.05    0.38
   8   2   7    2.44    0.38
   8   2   7    2.08    0.53
  -8   2   7    2.32    0.47
   8   2   6    0.23    0.31
   8  -2  -6    0.54    0.29
   8   2   6    0.29    0.42
  -8   2   6    0.79    0.34
   8   2   5    7.10    0.72
   8   2   5    6.45    0.63
   8  -2  -5    5.44    0.49
  -8   2   5    6.38    0.59
   8   2   4    0.47    0.36
   8   2   4    0.29    0.43
   8  -2  -4    0.55    0.29
  -8   2   4    1.12    0.35
   8   2   3    4.59    0.61
   8  -2  -3    4.47    0.50
  -8   2   3    4.40    0.52
   8  -2  -2    4.03    0.53
   8   2   2    3.74    0.50
   8   2   2    3.39    0.49
  -8   2   2    3.47    0.44
   8   2   1    4.72    0.67
   8   2   1    3.82    0.52
   8  -2  -1    3.98    0.56
   8  -2  -1    3.37    0.55
   8  -2   0    4.37    0.58
   8   2   0    6.25    0.68
   8   2   0    5.61    0.66
   8  -2   0    4.97    0.68
   8  -2   1    4.45    0.64
   8  -2   1    4.82    0.66
  -8  -2   1    3.51    0.51
   8   2  -2    4.55    0.59
   8  -2   2    4.90    0.63
  -8  -2   2    4.09    0.57
   8   2  -3    4.47    0.53
   8  -2   3    4.44    0.65
  -8  -2   3    4.63    0.53
   8  -2   4    0.24    0.34
   8   2  -4    1.20    0.31
  -8  -2   4    0.27    0.31
   8  -2   5    4.95    0.64
   8   2  -5    5.56    0.54
  -8  -2   5    5.30    0.59
   8   2  -6    0.23    0.29
   8  -2   6    0.30    0.35
  -8  -2   6    0.49    0.33
   8   2  -7    3.03    0.37
   8  -2   7    2.46    0.42
  -8  -2   7    2.79    0.48
   8   2  -8    0.49    0.29
   8  -2   8    0.26    0.44
   8  -2   8    0.54    0.34
  -8  -2   8    0.20    0.39
   8   2  -9    0.95    0.33
   8  -2   9    0.87    0.38
   8  -2   9    0.38    0.49
  -8  -2   9    1.54    0.44
   8  -2  10    0.68    0.36
   8   2 -10    1.75    0.40
   8  -2  10    0.76    0.50
  -8  -2  10    1.48    0.49
   8  -2  11    0.42    0.53
   8  -2  11    0.22    0.35
  -8  -2  11   -0.20    0.47
   8  -2  12   -0.32    0.36
   8  -2  12    0.38    0.55
  -8  -2  12    0.75    0.54
   8  -2  13    0.80    0.62
   8  -2  13    0.17    0.39
  -8  -2  13    0.17    0.59
   9   2  11   -0.63    0.63
   9   2  11   -0.13    0.46
  -9   2  11    0.03    0.60
   9   2  10   -0.57    0.45
   9   2  10   -1.29    0.59
  -9   2  10    0.25    0.62
   9   2   9    1.71    0.60
   9   2   9    1.33    0.47
  -9   2   9    1.03    0.54
   9   2   8    0.01    0.42
   9   2   8    0.94    0.56
  -9   2   8   -0.36    0.45
   9   2   7   -0.21    0.52
   9   2   7   -0.41    0.39
  -9   2   7    0.32    0.43
   9   2   6    0.12    0.52
   9   2   6    0.23    0.40
  -9   2   6   -0.03    0.41
   9   2   5    0.21    0.48
   9   2   5   -0.21    0.38
  -9   2   5    0.21    0.42
   9   2   4    1.26    0.39
   9   2   4   -0.25    0.47
  -9   2   4    0.35    0.40
   9   2   3    1.47    0.43
   9  -2  -3    2.32    0.42
   9   2   3    3.10    0.58
  -9   2   3    2.28    0.43
   9  -2  -2    1.21    0.53
   9   2   2    0.24    0.39
   9  -2  -2    1.33    0.54
   9   2   2    0.56    0.39
   9  -2  -2    0.95    0.41
  -9   2   2    0.47    0.37
   9   2   1   -0.73    0.39
   9  -2  -1    0.66    0.47
   9  -2  -1   -0.30    0.44
   9   2   1    0.00    0.41
   9  -2   0   -0.42    0.45
   9  -2   0    0.03    0.42
   9   2   0   -0.65    0.43
   9   2   0    0.51    0.46
   9  -2   1   -0.02    0.42
   9   2  -1    0.22    0.55
   9   2  -1    0.08    0.41
   9  -2   1    0.26    0.41
   9   2  -1    1.64    0.49
  -9  -2   1    0.00    0.38
   9  -2   2    0.92    0.44
   9   2  -2    0.70    0.56
  -9  -2   2    0.27    0.36
   9  -2   3    3.11    0.53
   9   2  -3    1.75    0.55
  -9  -2   3    2.21    0.44
   9  -2   4   -0.53    0.41
   9   2  -4   -0.03    0.40
  -9  -2   4    0.67    0.39
   9  -2   5    0.06    0.45
   9   2  -5   -0.26    0.38
  -9  -2   5    0.23    0.40
   9   2  -6    0.37    0.39
   9  -2   6   -0.42    0.44
  -9  -2   6   -0.67    0.37
   9  -2   7   -0.90    0.44
   9  -2   7   -0.48    0.50
   9   2  -7    0.20    0.39
  -9  -2   7   -0.27    0.43
   9  -2   8    0.76    0.45
   9  -2   8    0.49    0.55
  -9  -2   8    0.49    0.47
   9  -2   9    1.40    0.60
   9  -2   9    1.56    0.46
  -9  -2   9    1.87    0.53
   9  -2  10    0.10    0.43
   9  -2  10    0.62    0.57
  -9  -2  10   -0.39    0.54
   9  -2  11   -0.74    0.62
   9  -2  11   -0.32    0.48
  -9  -2  11   -0.60    0.58
  10   2   7    2.01    0.60
  10   2   7    1.05    0.67
 -10   2   7    1.47    0.66
  10   2   6    0.44    0.54
  10   2   6    1.32    0.62
 -10   2   6   -1.01    0.55
  10   2   5    2.45    0.61
  10   2   5    2.26    0.63
 -10   2   5    1.77    0.57
  10   2   4    0.13    0.52
  10   2   4    0.47    0.55
 -10   2   4    0.57    0.46
  10   2   3    0.34    0.50
  10  -2  -3    0.03    0.59
  10  -2  -3   -0.09    0.58
  10   2   3   -0.57    0.54
  10   2   2    0.78    0.56
  10   2   2   -0.37    0.47
  10  -2  -2    0.23    0.59
  10  -2  -2   -0.63    0.57
  10  -2  -1    0.71    0.57
  10   2   1   -0.11    0.49
  10  -2  -1    0.20    0.64
  10  -2  -1   -0.26    0.56
  10   2   1   -0.85    0.51
  10   2   0    1.03    0.52
  10   2   0   -0.02    0.55
  10   2   0    0.65    0.53
  10  -2   0    2.47    0.57
  10  -2   0    0.57    0.55
  10  -2   1    0.12    0.53
  10   2  -1    0.95    0.51
  10   2  -1   -0.35    0.54
  10   2  -1    1.08    0.57
  10   2  -2    0.20    0.55
  10  -2   2   -0.04    0.55
  10   2  -2   -0.05    0.57
  10   2  -2   -0.39    0.54
 -10  -2   2   -0.19    0.44
  10   2  -3   -0.60    0.54
 -10  -2   3    0.66    0.51
  10  -2   4    1.19    0.59
  10   2  -4    0.14    0.56
 -10  -2   4    0.68    0.52
  10  -2   5    0.97    0.63
 -10  -2   5    2.50    0.59
  10  -2   6   -0.43    0.56
  10  -2   6   -0.28    0.54
 -10  -2   6    0.66    0.57
  10  -2   7    1.27    0.62
  10  -2   7    2.19    0.66
 -10  -2   7    0.17    0.62
   0   3  20   -0.05    0.52
   0   3  20    0.00    0.38
   0   3  19   -0.53    0.43
   0   3  19   -0.54    0.33
   0   3  18    0.20    0.29
   0   3  18    0.03    0.35
   0   3  17    0.16    0.29
   0   3  17   -0.49    0.31
   0   3  16   -0.22    0.33
   0   3  16   -0.14    0.28
   0   3  15    0.19    0.23
   0   3  15    0.50    0.27
   0   3  14   -0.26    0.17
   0   3  14    0.21    0.23
   0   3  13    0.39    0.17
   0   3  13   -0.09    0.22
   0   3  12    0.02    0.14
   0   3  12   -0.33    0.18
   0   3  11    0.04    0.12
   0   3  11    0.01    0.15
   0   3  10    0.03    0.12
   0   3  10    0.09    0.12
   0   3   9    0.09    0.11
   0   3   9   -0.05    0.10
   0   3   8    0.10    0.10
   0   3   8    0.02    0.10
   0   3   7    0.11    0.08
   0   3   7   -0.02    0.09
   0  -3  -6    0.09    0.08
   0   3   6    0.03    0.08
   0   3   6    0.02    0.07
   0  -3  -5   -0.02    0.05
   0   3   5    0.03    0.08
   0   3   5    0.06    0.07
   0  -3  -4    0.14    0.05
   0   3   4    0.13    0.07
   0   3   4    0.02    0.06
   0   3   3   -0.02    0.05
   0  -3  -3    0.06    0.04
   0   3   3    0.09    0.06
   0   3   2   -0.48    0.05
   0  -3  -2   -0.36    0.05
   0  -3  -1   -0.46    0.04
   0   3   1   -0.45    0.05
   0   3   1   -0.55    0.04
   0  -3  -1   -0.42    0.05
   0  -3   0    0.00    0.04
   0   3   0    0.01    0.04
   0  -3   0   -0.01    0.03
   0   3   0   -0.01    0.03
   0   3   0   -0.09    0.05
   0  -3   0   -0.01    0.06
   0  -3   1   -0.38    0.05
   0  -3   1   -0.47    0.04
   0   3  -1   -0.57    0.06
   0  -3   1   -0.58    0.06
   0   3  -1   -0.53    0.04
   0   3  -1   -0.54    0.05
   0   3  -2   -0.39    0.07
   0  -3   2   -0.44    0.05
   0   3  -3   -0.05    0.07
   0   3  -4   -0.06    0.08
   0  -3   4    0.06    0.07
   0  -3   4   -0.06    0.08
   0   3  -4   -0.12    0.06
   0  -3   5    0.04    0.09
   0  -3   5    0.06    0.07
   0  -3   6   -0.12    0.09
   0  -3   6   -0.15    0.06
   0  -3   7   -0.05    0.11
   0  -3   7   -0.10    0.08
   0  -3   8   -0.06    0.12
   0  -3   8   -0.08    0.08
   0  -3   9   -0.03    0.13
   0  -3   9   -0.18    0.10
   0  -3  10   -0.13    0.11
   0  -3  10    0.00    0.14
   0  -3  11    0.02    0.16
   0  -3  11   -0.11    0.15
   0  -3  12   -0.05    0.16
   0  -3  12   -0.13    0.17
   0  -3  13    0.08    0.18
   0  -3  13    0.10    0.17
   0  -3  14   -0.13    0.20
   0  -3  14   -0.28    0.18
   0  -3  15    0.17    0.23
   0  -3  15    0.25    0.20
   0  -3  16    0.06    0.26
   0  -3  16   -0.04    0.22
   0  -3  17    0.21    0.24
   0  -3  17    0.13    0.34
   0  -3  18    0.18    0.37
   0  -3  18    0.23    0.28
   0  -3  19   -0.52    0.31
   0  -3  19   -0.38    0.40
   0  -3  20    0.11    0.51
   1   3  20    0.05    0.50
   1   3  20   -0.31    0.42
  -1   3  20   -0.17    0.52
   1   3  19    4.93    0.72
   1   3  19    3.79    0.49
  -1   3  19    5.88    0.77
  -1   3  19    5.00    0.59
   1   3  18    3.66    0.46
   1   3  18    4.03    0.55
  -1   3  18    4.51    0.53
  -1   3  18    4.72    0.63
   1   3  17    0.13    0.29
   1   3  17    0.22    0.31
  -1   3  17    0.57    0.35
  -1   3  17    0.34    0.34
   1   3  16    0.14    0.26
   1   3  16    0.25    0.28
  -1   3  16    0.00    0.24
  -1   3  16    0.08    0.29
   1   3  15    0.23    0.34
   1   3  15    0.82    0.26
  -1   3  15    0.49    0.31
  -1   3  15    1.15    0.22
   1   3  14    1.39    0.28
   1   3  14    1.26    0.28
  -1   3  14    1.65    0.22
  -1   3  14    1.74    0.28
   1   3  13   12.44    0.62
   1   3  13   11.45    0.56
  -1   3  13   11.86    0.49
  -1   3  13   12.82    0.61
   1   3  12    1.34    0.23
   1   3  12    1.23    0.22
  -1   3  12    1.41    0.28
  -1   3  12    1.44    0.18
   1   3  11   15.29    0.57
   1   3  11   15.13    0.62
  -1   3  11   15.37    0.54
  -1   3  11   15.83    0.64
   1   3  10    0.52    0.13
   1   3  10    0.70    0.18
  -1   3  10    0.41    0.16
  -1   3  10    0.77    0.13
   1   3   9   15.49    0.61
   1   3   9   16.19    0.54
  -1   3   9   16.34    0.60
  -1   3   9   16.13    0.53
   1   3   8    4.91    0.25
   1   3   8    5.83    0.33
  -1   3   8    5.49    0.30
  -1   3   8    5.99    0.26
   1   3   7   30.35    0.86
   1   3   7   30.82    0.95
  -1   3   7   31.35    0.87
  -1   3   7   29.91    0.92
   1   3   6    0.44    0.13
   1   3   6    0.76    0.11
  -1   3   6    0.81    0.13
  -1  -3  -6    0.66    0.09
  -1   3   6    1.01    0.11
   1   3   5   25.41    0.81
   1   3   5   26.29    0.72
  -1  -3  -5   26.33    0.72
  -1   3   5   27.10    0.79
  -1   3   5   27.71    0.75
   1  -3  -4  257.99    6.30
   1   3   4  250.13    6.24
   1   3   4  251.04    6.34
  -1  -3  -4  247.22    6.25
  -1   3   4  247.20    6.27
  -1   3   4  257.12    6.32
   1   3   3  596.62   16.10
   1  -3  -3  677.26   16.08
  -1   3   3  674.79   16.09
   1  -3  -2   35.03    0.96
   1   3   2   34.94    0.98
   1   3   2   35.82    0.89
  -1   3   2   36.04    0.97
  -1   3   2   35.74    0.94
   1  -3  -1   28.52    0.72
   1   3   1   28.57    0.71
   1  -3  -1   28.42    0.78
   1   3   1   27.51    0.78
  -1  -3  -1   27.62    0.71
  -1   3   1   28.12    0.76
  -1   3   1   28.42    0.71
  -1   3   1   28.48    0.78
   1  -3   0  155.96    3.87
   1  -3   0  155.47    3.80
   1   3   0  153.72    3.83
   1   3   0  154.10    3.79
   1  -3   0  157.24    3.87
   1  -3   0  159.72    3.85
  -1   3   0  155.62    3.84
  -1  -3   0  149.53    3.80
  -1  -3   0  135.61    3.82
   1  -3   1   27.70    0.77
   1   3  -1   28.23    0.78
   1   3  -1   28.14    0.72
   1   3  -1   27.53    0.71
  -1   3  -1   27.45    0.75
  -1   3  -1   28.22    0.78
  -1  -3   1   23.48    0.71
  -1  -3   1   27.55    0.72
   1  -3   2   35.13    0.95
   1   3  -2   33.66    0.91
   1   3  -2   34.82    0.96
  -1   3  -2   34.85    0.96
  -1  -3   2   34.52    0.92
   1   3  -3  652.56   16.25
   1  -3   3  642.19   16.28
   1   3  -3  673.27   16.29
  -1   3  -3  661.85   16.30
   1  -3   4  243.46    6.22
   1   3  -4  253.10    6.24
  -1  -3   4  251.74    6.13
  -1  -3   4  246.17    6.22
   1  -3   5   26.12    0.75
   1   3  -5   26.29    0.77
   1   3  -5   23.81    0.69
  -1  -3   5   25.70    0.75
  -1  -3   5   27.23    0.67
   1   3  -6    0.61    0.11
   1   3  -6    0.77    0.13
   1  -3   6    0.92    0.17
   1  -3   6    1.06    0.14
  -1  -3   6    1.02    0.14
  -1  -3   6    0.82    0.09
   1  -3   7   29.48    0.87
   1  -3   7   29.38    0.94
  -1  -3   7   30.64    0.80
  -1  -3   7   30.22    0.90
   1  -3   8    5.85    0.28
   1  -3   8    5.43    0.35
  -1  -3   8    5.56    0.22
  -1  -3   8    5.05    0.28
   1  -3   9   14.82    0.53
   1  -3   9   15.21    0.61
  -1  -3   9   15.77    0.47
  -1  -3   9   15.32    0.57
   1  -3  10    0.56    0.14
   1  -3  10    0.40    0.19
  -1  -3  10    0.59    0.11
  -1  -3  10    0.77    0.18
   1  -3  11   13.08    0.56
   1  -3  11   15.18    0.62
  -1  -3  11   14.64    0.48
  -1  -3  11   14.86    0.60
   1  -3  12    1.30    0.25
   1  -3  12    1.05    0.19
  -1  -3  12    1.07    0.19
  -1  -3  12    1.37    0.20
   1  -3  13   11.21    0.57
   1  -3  13   10.69    0.52
  -1  -3  13   11.75    0.44
  -1  -3  13   10.78    0.56
   1  -3  14    1.68    0.30
   1  -3  14    1.17    0.24
  -1  -3  14    1.47    0.20
  -1  -3  14    1.39    0.27
   1  -3  15    0.94    0.25
   1  -3  15    1.41    0.31
  -1  -3  15    0.57    0.20
  -1  -3  15    0.72    0.26
   1  -3  16   -0.01    0.27
   1  -3  16    0.48    0.27
  -1  -3  16   -0.09    0.19
  -1  -3  16    0.61    0.32
   1  -3  17    0.46    0.31
   1  -3  17    0.34    0.36
  -1  -3  17    0.67    0.36
  -1  -3  17    0.85    0.21
   1  -3  18    5.40    0.62
   1  -3  18    4.51    0.55
  -1  -3  18    3.77    0.50
  -1  -3  18    3.57    0.39
   1  -3  19    4.22    0.49
   1  -3  19    4.41    0.51
  -1  -3  19    3.89    0.55
   1  -3  20   -0.03    0.39
   1  -3  20   -0.84    0.47
  -1  -3  20    0.06    0.51
   2   3  19    4.71    0.56
   2   3  19    4.15    0.56
  -2   3  19    5.02    0.60
  -2   3  19    5.46    0.81
   2   3  18    1.00    0.41
   2   3  18    0.61    0.37
  -2   3  18    1.31    0.45
  -2   3  18    1.05    0.38
   2   3  17    2.89    0.37
   2   3  17    2.93    0.44
  -2   3  17    2.99    0.39
  -2   3  17    1.78    0.43
   2   3  16    0.72    0.29
   2   3  16    0.85    0.26
  -2   3  16    0.29    0.24
  -2   3  16    0.01    0.35
   2   3  15   -0.04    0.30
   2   3  15    0.69    0.25
  -2   3  15   -0.06    0.20
  -2   3  15   -0.02    0.29
   2   3  14    6.36    0.46
   2   3  14    6.64    0.61
  -2   3  14    6.56    0.40
  -2   3  14    6.33    0.54
   2   3  13    0.51    0.26
   2   3  13    0.84    0.30
  -2   3  13    0.81    0.19
  -2   3  13    0.55    0.24
   2   3  12    0.77    0.25
   2   3  12    0.67    0.18
  -2   3  12    0.92    0.17
  -2   3  12    0.51    0.25
   2   3  11    1.51    0.26
   2   3  11    1.63    0.23
  -2   3  11    1.72    0.29
  -2   3  11    1.97    0.22
   2   3  10    2.34    0.30
   2   3  10    1.74    0.20
  -2   3  10    1.92    0.27
  -2   3  10    1.94    0.20
   2   3   9   36.05    1.21
   2   3   9   37.78    1.05
  -2   3   9   38.07    1.06
  -2   3   9   36.86    1.16
   2   3   8    0.15    0.17
   2   3   8    0.20    0.09
  -2   3   8    0.23    0.14
  -2   3   8    0.42    0.11
   2   3   7   27.13    0.93
   2   3   7   27.37    0.77
  -2   3   7   26.41    0.79
  -2   3   7   26.77    0.87
   2   3   6    6.01    0.38
   2   3   6    7.01    0.26
  -2  -3  -6    6.62    0.31
  -2   3   6    7.30    0.29
  -2   3   6    6.82    0.35
   2   3   5    2.03    0.13
   2   3   5    2.07    0.25
  -2  -3  -5    1.98    0.18
  -2   3   5    2.04    0.22
  -2   3   5    2.46    0.18
   2   3   4  111.31    3.03
   2   3   4  114.95    2.90
  -2  -3  -4  115.98    2.93
  -2   3   4  116.51    2.94
  -2   3   4  114.39    2.88
  -2   3   4  115.45    2.99
   2   3   3   42.84    1.14
   2   3   3   42.76    1.25
  -2  -3  -3   43.29    1.16
  -2  -3  -3   43.89    1.16
  -2   3   3   43.60    1.18
  -2   3   3   42.86    1.21
   2   3   2  194.01    4.89
   2  -3  -2  189.72    4.93
   2   3   2  198.87    4.87
   2   3   2  195.62    4.98
  -2   3   2  195.09    4.91
  -2   3   2  197.46    4.95
   2   3   1    0.25    0.07
   2   3   1    0.17    0.12
   2  -3  -1    0.20    0.10
  -2   3   1    0.12    0.10
  -2  -3  -1    0.21    0.07
  -2   3   1    0.30    0.09
   2   3   0   -0.10    0.06
   2   3   0   -0.11    0.10
   2  -3   0   -0.03    0.09
   2  -3   0   -0.10    0.12
   2  -3   0   -0.06    0.11
  -2   3   0   -0.16    0.08
  -2  -3   0   -0.11    0.07
  -2   3   0   -0.11    0.09
   2   3  -1    0.21    0.07
   2   3  -1    0.17    0.12
   2  -3   1    0.20    0.12
   2  -3   1    0.28    0.12
  -2   3  -1    0.32    0.13
  -2  -3   1    0.17    0.08
  -2   3  -1    0.38    0.14
   2   3  -2  181.03    4.89
   2   3  -2  196.69    4.84
   2  -3   2  195.09    4.91
  -2   3  -2  195.82    4.92
  -2  -3   2  193.66    4.85
  -2   3  -2  194.06    4.92
   2   3  -3   42.30    1.18
   2  -3   3   41.62    1.19
   2   3  -3   42.25    1.08
  -2  -3   3   42.68    1.16
   2   3  -4  115.82    2.94
   2   3  -4  113.30    2.82
   2  -3   4  113.65    2.95
  -2  -3   4  111.38    2.93
   2   3  -5    1.94    0.09
   2   3  -5    1.95    0.19
   2  -3   5    2.52    0.20
  -2  -3   5    1.90    0.12
  -2  -3   5    1.85    0.20
   2   3  -6    6.15    0.22
   2  -3   6    6.80    0.31
   2   3  -6    7.30    0.33
  -2  -3   6    6.89    0.33
  -2  -3   6    6.70    0.22
   2  -3   7   26.31    0.80
   2  -3   7   24.48    0.90
   2   3  -7   25.11    0.80
  -2  -3   7   27.19    0.70
  -2  -3   7   25.83    0.83
   2  -3   8    0.34    0.11
   2   3  -8    0.30    0.13
   2  -3   8    0.53    0.19
  -2  -3   8    0.25    0.14
  -2  -3   8    0.55    0.09
   2  -3   9   35.64    1.22
   2  -3   9   37.64    1.10
  -2  -3   9   37.95    1.00
  -2  -3   9   37.97    1.16
   2  -3  10    1.86    0.24
   2  -3  10    1.98    0.29
  -2  -3  10    1.71    0.25
  -2  -3  10    2.17    0.18
   2  -3  11    2.19    0.31
   2  -3  11    1.94    0.28
  -2  -3  11    1.96    0.25
  -2  -3  11    1.52    0.19
   2  -3  12    0.76    0.19
   2  -3  12    1.06    0.29
  -2  -3  12    1.04    0.15
  -2  -3  12    0.56    0.19
   2  -3  13    1.11    0.29
   2  -3  13    0.86    0.20
  -2  -3  13    0.57    0.22
  -2  -3  13    0.60    0.15
   2  -3  14    6.09    0.43
   2  -3  14    5.46    0.55
  -2  -3  14    5.58    0.50
  -2  -3  14    6.25    0.33
   2  -3  15    0.45    0.36
   2  -3  15    0.14    0.24
  -2  -3  15   -0.48    0.27
  -2  -3  15    0.37    0.18
   2  -3  16    1.00    0.53
   2  -3  16    0.65    0.26
  -2  -3  16    0.45    0.19
  -2  -3  16    0.50    0.34
   2  -3  17    2.91    0.55
   2  -3  17    2.25    0.36
  -2  -3  17    3.19    0.47
   2  -3  18    1.64    0.36
   2  -3  18    1.80    0.49
  -2  -3  18    2.03    0.47
   2  -3  19    6.26    0.72
   2  -3  19    4.93    0.58
  -2  -3  19    4.77    0.62
   3   3  19    0.59    0.50
   3   3  19   -0.04    0.48
  -3   3  19   -0.03    0.43
  -3   3  19   -0.05    0.57
   3   3  18    0.62    0.48
   3   3  18    0.26    0.39
  -3   3  18   -0.22    0.46
  -3   3  18   -0.32    0.42
   3   3  17    5.63    0.53
   3   3  17    5.11    0.61
  -3   3  17    3.86    0.54
  -3   3  17    4.14    0.48
   3   3  16   13.45    0.67
   3   3  16   13.95    0.85
  -3   3  16   13.26    0.66
  -3   3  16   14.29    0.85
   3   3  15   -0.25    0.33
   3   3  15   -0.03    0.23
  -3   3  15    0.26    0.23
  -3   3  15   -0.35    0.33
   3   3  14   -0.25    0.31
   3   3  14   -0.16    0.20
  -3   3  14    0.23    0.20
  -3   3  14    0.11    0.29
   3   3  13    0.22    0.25
   3   3  13    0.21    0.33
  -3   3  13    0.60    0.20
  -3   3  13    0.63    0.28
   3   3  12    0.22    0.18
   3   3  12   -0.04    0.32
  -3   3  12   -0.23    0.24
  -3   3  12    0.18    0.17
   3   3  11    2.68    0.25
   3   3  11    2.51    0.36
  -3   3  11    2.57    0.29
  -3   3  11    2.68    0.36
   3   3  10    4.48    0.26
   3   3  10    4.01    0.43
  -3   3  10    3.50    0.27
  -3   3  10    3.22    0.40
   3   3   9    5.55    0.28
   3   3   9    4.95    0.47
  -3   3   9    5.49    0.31
  -3   3   9    5.36    0.41
   3   3   8    1.44    0.17
   3   3   8    1.69    0.30
  -3   3   8    1.62    0.21
  -3   3   8    1.12    0.21
   3   3   7    7.21    0.30
   3   3   7    7.01    0.46
  -3   3   7    7.38    0.42
  -3   3   7    7.31    0.34
   3   3   6    5.32    0.25
   3   3   6    5.02    0.39
  -3   3   6    5.04    0.34
  -3   3   6    5.38    0.29
   3   3   5   19.62    0.77
   3   3   5   20.62    0.62
  -3   3   5   20.51    0.65
  -3   3   5   20.31    0.71
  -3  -3  -5   18.17    0.68
   3   3   4   79.25    2.21
   3  -3  -4   79.01    1.98
   3   3   4   76.74    2.05
  -3   3   4   78.21    2.08
  -3   3   4   78.50    2.14
  -3  -3  -4   77.56    2.10
  -3  -3  -4   78.25    2.10
   3  -3  -3    0.53    0.07
   3   3   3    0.65    0.12
   3   3   3    0.41    0.10
   3   3   3    0.37    0.17
  -3   3   3    0.29    0.12
  -3   3   3    0.43    0.12
   3   3   2    1.45    0.22
   3   3   2    1.16    0.14
   3   3   2    1.38    0.19
   3   3   2    1.29    0.19
  -3   3   2    1.23    0.17
  -3   3   2    1.16    0.17
   3   3   1   19.75    0.70
   3   3   1   19.99    0.61
  -3  -3  -1   20.29    0.62
  -3   3   1   20.43    0.67
   3   3   0    0.76    0.12
  -3   3   0    0.95    0.14
  -3  -3   0    1.08    0.15
   3  -3   1   19.94    0.72
   3  -3   1   20.57    0.72
  -3  -3   1   20.05    0.64
   3   3  -2    1.64    0.22
   3  -3   2    1.26    0.19
  -3  -3   2    1.20    0.17
   3  -3   3    0.39    0.14
   3   3  -3    0.44    0.14
  -3  -3   3    0.24    0.11
   3  -3   4   76.09    2.11
   3   3  -4   77.39    2.08
  -3  -3   4   78.10    2.09
   3  -3   5   19.68    0.69
   3   3  -5   20.65    0.67
  -3  -3   5   19.98    0.69
   3   3  -6    5.30    0.31
   3  -3   6    5.55    0.32
  -3  -3   6    5.54    0.34
   3  -3   7    7.36    0.37
   3   3  -7    7.60    0.36
  -3  -3   7    7.09    0.38
  -3  -3   7    7.57    0.29
   3  -3   8    0.84    0.24
   3   3  -8    1.73    0.23
   3  -3   8    1.23    0.17
  -3  -3   8    1.22    0.18
  -3  -3   8    1.31    0.22
   3  -3   9    5.55    0.33
   3  -3   9    6.40    0.48
   3   3  -9    5.05    0.32
  -3  -3   9    4.66    0.40
  -3  -3   9    5.30    0.27
   3  -3  10    3.65    0.43
   3  -3  10    3.64    0.32
   3   3 -10    4.21    0.33
  -3  -3  10    3.22    0.24
  -3  -3  10    4.16    0.35
   3  -3  11    2.55    0.29
   3  -3  11    2.70    0.37
  -3  -3  11    2.69    0.25
  -3  -3  11    2.51    0.34
   3  -3  12    0.43    0.20
   3  -3  12    0.16    0.28
  -3  -3  12    0.02    0.20
  -3  -3  12    0.19    0.16
   3  -3  13    0.73    0.35
   3  -3  13    0.59    0.20
  -3  -3  13    1.00    0.27
  -3  -3  13    0.60    0.18
   3  -3  14   -0.05    0.20
   3  -3  14    0.15    0.49
  -3  -3  14    0.09    0.26
  -3  -3  14    0.34    0.18
   3  -3  15   -0.14    0.22
   3  -3  15    0.50    0.40
  -3  -3  15    0.17    0.32
  -3  -3  15    0.18    0.19
   3  -3  16   10.92    0.83
   3  -3  16   12.44    0.64
  -3  -3  16   11.87    0.82
   3  -3  17    4.30    0.48
   3  -3  17    4.65    0.61
  -3  -3  17    4.35    0.58
   3  -3  18    0.06    0.33
   3  -3  18   -0.62    0.52
  -3  -3  18   -0.52    0.46
   3  -3  19    0.16    0.61
   3  -3  19    0.54    0.41
  -3  -3  19   -0.59    0.54
   4   3  18   -0.38    0.41
   4   3  18    0.93    0.54
  -4   3  18   -0.10    0.54
  -4   3  18    0.62    0.57
   4   3  17    0.60    0.35
   4   3  17    0.09    0.45
  -4   3  17    0.09    0.47
  -4   3  17    0.53    0.41
   4   3  16    0.11    0.43
   4   3  16   -0.20    0.25
  -4   3  16   -0.36    0.40
  -4   3  16    0.03    0.32
   4   3  15   -0.19    0.37
   4   3  15    0.36    0.24
  -4   3  15    0.14    0.27
  -4   3  15    0.13    0.38
   4   3  14    4.76    0.40
   4   3  14    5.02    0.59
  -4   3  14    4.79    0.45
  -4   3  14    4.09    0.62
   4   3  13    0.73    0.36
   4   3  13    0.38    0.21
  -4   3  13   -0.03    0.31
  -4   3  13    0.17    0.22
   4   3  12    5.07    0.41
   4   3  12    5.00    0.55
  -4   3  12    4.65    0.52
  -4   3  12    4.56    0.39
   4   3  11   12.24    0.76
   4   3  11   13.73    0.55
  -4   3  11   13.89    0.58
  -4   3  11   13.68    0.69
   4   3  10    0.42    0.33
   4   3  10    0.31    0.15
  -4   3  10    0.14    0.17
  -4   3  10    0.03    0.22
   4   3   9    0.07    0.12
   4   3   9    0.20    0.29
  -4   3   9    0.17    0.21
  -4   3   9    0.33    0.16
   4   3   8    0.08    0.26
   4   3   8    0.50    0.13
  -4   3   8    0.56    0.17
  -4   3   8    0.12    0.20
   4   3   7    0.79    0.26
   4   3   7    0.88    0.15
  -4   3   7    0.66    0.23
  -4   3   7    0.76    0.17
   4  -3  -6   15.73    0.48
   4   3   6   16.94    0.75
   4   3   6   15.52    0.56
  -4   3   6   16.00    0.59
  -4   3   6   15.31    0.66
   4  -3  -5   21.03    0.59
   4   3   5   20.76    0.85
   4   3   5   20.25    0.68
  -4   3   5   20.10    0.70
  -4   3   5   20.39    0.77
   4   3   4   35.54    1.21
   4   3   4   36.04    1.07
   4  -3  -4   36.12    0.96
  -4   3   4   36.11    1.13
  -4   3   4   34.06    1.06
   4  -3  -3    1.35    0.17
   4   3   3    1.19    0.23
   4   3   3    1.32    0.18
  -4   3   3    1.76    0.25
  -4   3   3    1.44    0.21
   4   3   2    7.24    0.37
   4   3   2    6.52    0.37
   4   3   2    6.92    0.43
  -4   3   2    6.11    0.36
  -4   3   1   54.52    1.57
  -4  -3  -1   54.20    1.51
  -4   3   0   -0.15    0.13
  -4  -3   0    0.08    0.11
   4  -3   1   53.81    1.63
   4  -3   1   53.84    1.63
  -4  -3   1   54.72    1.53
   4   3  -2    6.65    0.41
   4  -3   2    6.79    0.41
  -4  -3   2    6.90    0.35
   4  -3   3    1.46    0.21
   4   3  -3    1.91    0.27
  -4  -3   3    1.48    0.20
   4   3  -4   36.42    1.11
   4  -3   4   35.82    1.14
  -4  -3   4   35.43    1.12
   4   3  -5   20.48    0.72
   4  -3   5   20.80    0.75
  -4  -3   5   20.71    0.75
   4  -3   6   15.04    0.62
   4   3  -6   16.28    0.60
  -4  -3   6   15.32    0.64
   4  -3   7    0.87    0.17
   4   3  -7    0.66    0.16
  -4  -3   7    0.66    0.22
   4  -3   8    0.40    0.18
   4   3  -8    0.53    0.17
  -4  -3   8    0.16    0.19
   4   3  -9    0.29    0.17
   4  -3   9    0.24    0.19
   4  -3   9   -0.16    0.27
  -4  -3   9    0.02    0.17
   4  -3  10    0.10    0.29
   4   3 -10    0.30    0.19
   4  -3  10    0.39    0.18
  -4  -3  10    0.14    0.20
  -4  -3  10    0.50    0.18
   4  -3  11   13.36    0.83
   4  -3  11   13.26    0.57
   4   3 -11   12.87    0.58
  -4  -3  11   12.69    0.50
  -4  -3  11   12.81    0.65
   4  -3  12    5.14    0.39
   4  -3  12    4.33    0.63
  -4  -3  12    4.87    0.48
  -4  -3  12    4.78    0.35
   4  -3  13    0.26    0.21
   4  -3  13    0.04    0.41
  -4  -3  13    0.47    0.30
  -4  -3  13    0.46    0.20
   4  -3  14    4.95    0.40
   4  -3  14    3.32    0.52
  -4  -3  14    4.59    0.57
  -4  -3  14    4.54    0.47
   4  -3  15   -0.22    0.42
   4  -3  15    0.12    0.24
  -4  -3  15   -0.35    0.35
   4  -3  16   -0.26    0.49
   4  -3  16    0.37    0.28
  -4  -3  16   -0.31    0.40
   4  -3  17    1.29    0.61
  -4  -3  17    1.12    0.50
   4  -3  18   -0.53    0.62
   4  -3  18   -0.19    0.35
  -4  -3  18   -0.06    0.58
   5   3  17    3.09    0.62
   5   3  17    2.90    0.42
  -5   3  17    3.68    0.66
   5   3  16    1.72    0.54
   5   3  16    1.71    0.36
  -5   3  16    1.59    0.52
  -5   3  16    1.38    0.43
   5   3  15    0.61    0.26
   5   3  15    0.24    0.46
  -5   3  15    1.27    0.45
  -5   3  15    0.39    0.34
   5   3  14    1.82    0.25
   5   3  14    1.70    0.46
  -5   3  14    2.56    0.37
  -5   3  14    1.86    0.45
   5   3  13    1.07    0.42
   5   3  13    1.09    0.24
  -5   3  13    1.02    0.31
  -5   3  13    0.99    0.38
   5   3  12    4.97    0.60
   5   3  12    4.85    0.41
  -5   3  12    4.37    0.47
  -5   3  12    5.20    0.59
   5   3  11    0.46    0.25
   5   3  11    0.12    0.34
  -5   3  11    0.69    0.30
  -5   3  11    0.00    0.24
   5   3  10    1.81    0.37
   5   3  10    1.29    0.23
  -5   3  10    1.44    0.27
  -5   3  10    2.04    0.32
   5   3   9    4.26    0.58
   5   3   9    4.05    0.33
  -5   3   9    4.47    0.41
  -5   3   9    4.85    0.38
   5   3   8   20.62    1.01
   5   3   8   20.02    0.72
  -5   3   8   20.47    0.77
  -5   3   8   21.28    0.85
   5   3   7    0.40    0.15
   5  -3  -7   -0.03    0.12
   5   3   7    0.12    0.27
  -5   3   7    0.36    0.18
  -5   3   7    0.21    0.19
   5   3   6    1.17    0.19
   5   3   6    1.15    0.30
   5  -3  -6    1.21    0.14
  -5   3   6    1.18    0.24
  -5   3   6    1.45    0.22
   5  -3  -5    0.86    0.13
   5   3   5    0.61    0.18
   5   3   5    1.03    0.28
  -5   3   5    0.73    0.20
  -5   3   5    0.91    0.25
   5   3   4    0.58    0.18
   5  -3  -4    0.34    0.13
   5   3   4    0.67    0.26
  -5   3   4    0.30    0.21
   5  -3  -3   -0.14    0.14
   5   3   3    0.08    0.23
   5   3   3    0.21    0.17
  -5   3   3    0.28    0.19
   5   3   2   25.76    0.91
   5   3   2   25.39    0.91
  -5   3   2   27.15    0.93
  -5  -3  -1    8.30    0.41
  -5   3   1    8.20    0.45
   5  -3   0   18.06    0.79
   5  -3   0   18.22    0.80
  -5  -3   0   17.99    0.66
  -5   3   0   18.14    0.71
   5  -3   1    7.67    0.50
   5  -3   1    8.43    0.52
  -5  -3   1    8.35    0.42
   5   3  -2   25.84    0.92
   5  -3   2   25.32    0.96
   5  -3   2   24.81    0.96
  -5  -3   2   26.00    0.88
   5  -3   3    0.04    0.18
   5   3  -3    0.35    0.20
  -5  -3   3    0.16    0.17
   5  -3   4    0.06    0.18
   5   3  -4    0.26    0.18
  -5  -3   4    0.16    0.16
   5  -3   5    0.92    0.23
   5   3  -5    0.92    0.21
  -5  -3   5    0.88    0.23
   5  -3   6    1.00    0.24
   5   3  -6    1.43    0.23
  -5  -3   6    1.18    0.25
   5  -3   7    0.20    0.23
   5   3  -7    0.20    0.18
  -5  -3   7    0.14    0.18
   5  -3   8   19.70    0.79
   5   3  -8   19.60    0.72
  -5  -3   8   19.45    0.81
   5  -3   9    4.41    0.39
   5   3  -9    4.73    0.37
   5  -3   9    4.79    0.66
  -5  -3   9    4.94    0.44
   5  -3  10    1.08    0.25
   5   3 -10    1.26    0.25
   5  -3  10    1.26    0.42
   5   3 -11    0.41    0.24
   5  -3  11    0.41    0.22
   5  -3  11    0.85    0.40
  -5  -3  11    0.28    0.29
   5   3 -12    4.32    0.43
   5  -3  12    5.17    0.45
   5  -3  12    5.04    0.67
  -5  -3  12    4.08    0.55
   5  -3  13    1.14    0.46
   5  -3  13    1.71    0.27
  -5  -3  13    1.19    0.39
   5  -3  14    1.35    0.47
   5  -3  14    1.93    0.30
  -5  -3  14    2.08    0.48
   5  -3  15    0.54    0.27
   5  -3  15    0.26    0.47
  -5  -3  15    0.40    0.44
   5  -3  16    1.62    0.34
   5  -3  16    0.77    0.51
  -5  -3  16    1.27    0.50
   5  -3  17    2.88    0.66
   5  -3  17    4.01    0.53
  -5  -3  17    3.29    0.70
   6   3  16   -0.76    0.35
   6   3  16   -1.07    0.57
  -6   3  16   -0.05    0.58
   6   3  15    0.66    0.31
   6   3  15   -0.02    0.55
  -6   3  15    0.34    0.51
  -6   3  15    0.99    0.48
   6   3  14    0.13    0.26
   6   3  14    0.18    0.46
  -6   3  14   -0.49    0.44
  -6   3  14   -0.08    0.40
   6   3  13    0.36    0.24
   6   3  13    0.48    0.44
  -6   3  13    0.39    0.43
  -6   3  13    0.41    0.36
   6   3  12    0.26    0.41
   6   3  12    0.25    0.23
  -6   3  12    0.60    0.32
  -6   3  12    0.17    0.39
   6   3  11    3.03    0.37
   6   3  11    4.24    0.53
  -6   3  11    4.60    0.51
  -6   3  11    4.94    0.59
   6   3  10    4.10    0.58
   6   3  10    2.53    0.32
  -6   3  10    1.96    0.37
  -6   3  10    2.30    0.34
   6   3   9    8.60    0.69
   6   3   9    8.10    0.57
  -6   3   9    7.67    0.52
  -6   3   9    8.07    0.60
   6   3   8    5.89    0.48
   6   3   8    7.02    0.63
   6  -3  -8    6.30    0.33
  -6   3   8    6.32    0.53
   6   3   7    0.75    0.39
   6   3   7    0.39    0.22
   6  -3  -7    0.33    0.15
  -6   3   7   -0.14    0.23
   6  -3  -6   29.72    0.87
   6   3   6   29.85    1.29
   6   3   6   29.53    1.03
  -6   3   6   29.81    1.10
   6  -3  -5   -0.05    0.15
   6   3   5    0.09    0.30
  -6   3   5    0.17    0.21
   6  -3  -4   13.50    0.52
   6   3   4   13.63    0.64
   6   3   4   13.06    0.76
  -6   3   4   13.76    0.66
   6   3   3   -0.31    0.27
   6  -3  -3   -0.06    0.18
   6   3   3    0.00    0.22
  -6   3   3   -0.36    0.19
   6   3   2   16.39    0.73
   6   3   2   16.31    0.73
  -6   3   2   14.93    0.67
  -6   3   1    5.69    0.44
  -6  -3  -1    6.81    0.41
   6  -3   0   -0.06    0.28
   6  -3   0    0.21    0.30
  -6  -3   0    0.35    0.19
   6  -3   1    6.55    0.57
   6  -3   1    6.40    0.56
  -6  -3   1    6.34    0.42
   6  -3   2   15.46    0.82
   6   3  -2   16.99    0.73
   6  -3   2   16.74    0.82
  -6  -3   2   15.50    0.70
   6  -3   3   -0.40    0.27
   6   3  -3    0.06    0.23
  -6  -3   3    0.21    0.24
   6  -3   4   14.21    0.74
   6   3  -4   13.68    0.64
  -6  -3   4   14.09    0.71
   6  -3   5   -0.28    0.24
   6   3  -5    0.11    0.22
  -6  -3   5    0.00    0.22
   6   3  -6   28.87    1.00
   6  -3   6   29.26    1.10
  -6  -3   6   29.74    1.09
   6  -3   7    0.09    0.24
   6   3  -7    0.34    0.22
  -6  -3   7   -0.22    0.24
   6   3  -8    6.35    0.45
   6  -3   8    5.65    0.51
  -6  -3   8    5.82    0.51
   6   3  -9    8.14    0.49
   6  -3   9    8.34    0.54
   6  -3   9    8.59    0.71
  -6  -3   9    8.84    0.61
   6  -3  10    3.14    0.41
   6   3 -10    2.68    0.37
   6  -3  10    2.53    0.46
  -6  -3  10    2.86    0.42
   6   3 -11    3.93    0.44
   6  -3  11    4.17    0.59
   6  -3  11    4.55    0.45
  -6  -3  11    3.36    0.43
   6  -3  12   -0.05    0.44
   6  -3  12    0.56    0.25
   6   3 -12    0.25    0.30
  -6  -3  12    0.44    0.37
   6  -3  13    0.81    0.26
   6  -3  13   -0.09    0.46
  -6  -3  13   -0.11    0.37
   6  -3  14    0.82    0.49
   6  -3  14    0.44    0.30
  -6  -3  14   -0.26    0.42
   6  -3  15    0.37    0.53
   6  -3  15    0.66    0.35
  -6  -3  15    1.25    0.54
   6  -3  16   -0.85    0.57
   6  -3  16    0.14    0.35
  -6  -3  16    0.05    0.59
   7   3  15    1.23    0.62
   7   3  15    1.45    0.39
  -7   3  15    1.27    0.70
   7   3  14    1.59    0.60
   7   3  14    0.68    0.35
  -7   3  14    0.79    0.61
   7   3  13    0.27    0.51
   7   3  13    0.02    0.31
  -7   3  13   -0.44    0.48
   7   3  12    0.86    0.50
   7   3  12    0.50    0.28
  -7   3  12    1.25    0.49
   7   3  11    0.35    0.45
  -7   3  11    0.55    0.42
   7   3  10    1.06    0.43
   7   3  10    0.29    0.27
  -7   3  10    0.12    0.38
   7   3   9    0.17    0.25
   7   3   9    0.18    0.42
  -7   3   9    0.20    0.36
   7   3   8   -0.14    0.28
   7   3   8    1.02    0.38
  -7   3   8    0.42    0.32
   7  -3  -7    2.95    0.27
   7   3   7    2.25    0.43
   7   3   7    2.56    0.37
  -7   3   7    3.87    0.48
   7   3   6   29.65    1.17
   7   3   6   29.96    1.31
   7  -3  -6   30.33    0.93
  -7   3   6   30.39    1.18
   7   3   5    0.73    0.38
   7  -3  -5    0.02    0.20
   7   3   5    0.37    0.37
  -7   3   5   -0.12    0.23
   7   3   4    4.21    0.59
   7  -3  -4    3.61    0.37
   7   3   4    4.14    0.62
  -7   3   4    3.21    0.44
   7   3   3    8.88    0.75
   7   3   3    9.23    0.80
   7  -3  -3    8.56    0.53
  -7   3   3    9.55    0.58
   7   3   2    0.35    0.41
   7   3   2   -0.10    0.41
  -7   3   2    0.01    0.22
   7   3   1    6.35    0.71
   7   3   1    8.60    0.73
  -7   3   1    7.72    0.51
   7  -3   0    0.33    0.32
   7  -3   0    0.40    0.34
  -7  -3   0    0.56    0.31
   7  -3   1    7.59    0.64
   7  -3   1    7.37    0.65
  -7  -3   1    8.05    0.59
   7  -3   2    0.77    0.32
   7  -3   2    0.07    0.31
   7   3  -2    0.22    0.29
  -7  -3   2    0.37    0.25
   7  -3   3   10.17    0.70
   7   3  -3    9.50    0.61
  -7  -3   3    8.71    0.61
   7  -3   4    4.11    0.52
   7   3  -4    3.77    0.45
  -7  -3   4    4.04    0.45
   7   3  -5    0.03    0.26
   7  -3   5    0.37    0.31
  -7  -3   5    0.06    0.27
   7  -3   6   30.31    1.17
   7   3  -6   30.02    1.06
  -7  -3   6   30.00    1.17
   7   3  -7    2.92    0.38
   7  -3   7    2.50    0.38
  -7  -3   7    2.39    0.40
   7   3  -8    0.48    0.26
   7  -3   8    0.22    0.30
  -7  -3   8    0.75    0.32
   7  -3   9    0.34    0.39
   7   3  -9    0.15    0.27
   7  -3   9    0.59    0.32
  -7  -3   9    1.30    0.36
   7  -3  10    0.33    0.45
   7   3 -10    0.41    0.28
   7  -3  10    0.49    0.29
  -7  -3  10    0.40    0.38
   7  -3  11    0.10    0.28
   7  -3  11    0.34    0.46
   7   3 -11   -0.42    0.29
  -7  -3  11    0.43    0.40
   7  -3  12   -0.11    0.46
   7   3 -12    0.90    0.41
   7  -3  12   -0.17    0.30
  -7  -3  12    1.04    0.46
   7  -3  13    0.27    0.32
   7  -3  13    0.20    0.51
  -7  -3  13    0.55    0.47
   7  -3  14    0.55    0.33
   7  -3  14    0.56    0.61
  -7  -3  14    0.94    0.58
   7  -3  15    2.40    0.63
   7  -3  15    1.47    0.40
  -7  -3  15    0.70    0.60
   8   3  13    0.21    0.39
   8   3  13   -0.54    0.57
  -8   3  13   -0.02    0.66
   8   3  12    1.61    0.39
   8   3  12    0.65    0.58
  -8   3  12    1.74    0.67
   8   3  11    0.75    0.55
   8   3  11    0.46    0.37
  -8   3  11    0.11    0.49
   8   3  10    0.79    0.51
   8   3  10    0.18    0.32
  -8   3  10    0.46    0.46
   8   3   9    0.47    0.31
   8   3   9   -0.68    0.47
  -8   3   9    1.18    0.42
   8   3   8    0.30    0.32
   8   3   8    0.69    0.44
  -8   3   8    0.25    0.36
   8   3   7    0.24    0.30
   8   3   7    1.01    0.45
  -8   3   7    0.79    0.39
   8   3   6    3.95    0.56
   8   3   6    3.88    0.56
  -8   3   6    4.04    0.58
   8  -3  -5    0.41    0.28
   8   3   5    0.63    0.42
   8   3   5    1.13    0.34
  -8   3   5    0.89    0.34
   8   3   4    0.64    0.34
   8   3   4   -0.15    0.42
  -8   3   4   -0.10    0.32
   8  -3  -3   15.43    0.72
   8   3   3   13.76    0.94
   8   3   3   14.55    0.80
  -8   3   3   15.09    0.81
   8   3   2    5.39    0.63
   8  -3  -2    5.98    0.54
   8   3   2    5.42    0.62
  -8   3   2    5.58    0.54
   8  -3  -1    6.35    0.75
   8   3   1    6.56    0.65
   8  -3  -1    7.46    0.74
   8   3   1    6.54    0.65
   8  -3   0    0.18    0.40
   8  -3   0    0.14    0.42
   8   3   0    0.49    0.36
   8   3   0    0.67    0.39
  -8  -3   0    0.29    0.29
   8   3  -1    7.77    0.72
   8  -3   1    7.76    0.77
   8  -3   1    7.94    0.77
  -8  -3   1    7.26    0.63
   8   3  -2    4.81    0.64
   8  -3   2    4.80    0.66
  -8  -3   2    4.82    0.60
   8  -3   3   16.81    0.92
   8   3  -3   14.97    0.84
  -8  -3   3   15.73    0.82
   8   3  -4    0.19    0.33
   8  -3   4   -0.51    0.33
  -8  -3   4   -0.47    0.31
   8  -3   5    0.87    0.38
   8   3  -5    0.43    0.32
  -8  -3   5    0.86    0.33
   8   3  -6    4.00    0.54
   8  -3   6    3.73    0.47
  -8  -3   6    4.67    0.60
   8  -3   7    0.48    0.35
   8   3  -7    0.49    0.32
  -8  -3   7   -0.08    0.35
   8  -3   8    0.44    0.37
   8   3  -8    0.67    0.33
  -8  -3   8    0.40    0.39
   8  -3   9    0.41    0.35
   8   3  -9   -0.36    0.32
   8  -3   9   -0.96    0.44
  -8  -3   9   -0.01    0.40
   8   3 -10   -0.85    0.36
   8  -3  10    0.41    0.49
   8  -3  10    0.03    0.36
  -8  -3  10    0.42    0.44
   8   3 -11    0.68    0.52
   8  -3  11    0.80    0.56
   8  -3  11    0.40    0.37
  -8  -3  11    0.90    0.52
   8  -3  12    2.33    0.41
   8  -3  12    1.06    0.61
  -8  -3  12    1.60    0.60
   8  -3  13   -0.01    0.43
   8  -3  13   -1.27    0.55
  -8  -3  13    0.94    0.61
   9   3  11    1.09    0.67
   9   3  11   -0.35    0.46
  -9   3  11    0.23    0.59
   9   3  10   -0.12    0.44
   9   3  10   -0.99    0.58
  -9   3  10   -0.11    0.59
   9   3   9    0.96    0.68
   9   3   9   -0.73    0.43
  -9   3   9    0.28    0.50
   9   3   8    0.64    0.43
   9   3   8    1.30    0.60
  -9   3   8    0.18    0.48
   9   3   7    0.09    0.40
   9   3   7    0.26    0.53
  -9   3   7    1.23    0.48
   9   3   6    0.10    0.54
   9   3   6    1.04    0.41
  -9   3   6    0.60    0.43
   9   3   5    0.38    0.52
   9   3   5    1.32    0.42
  -9   3   5    0.42    0.42
   9   3   4    0.17    0.39
   9   3   4    1.57    0.54
  -9   3   4    0.10    0.38
   9   3   3   -0.26    0.43
   9   3   3    0.50    0.40
  -9   3   3   -0.06    0.39
   9   3   2    0.44    0.43
   9  -3  -2    1.28    0.41
   9  -3  -2    0.20    0.51
   9  -3  -2   -0.16    0.46
   9   3   2    0.23    0.48
   9   3   2   -0.38    0.42
   9   3   1    0.32    0.43
   9  -3  -1    0.06    0.49
   9  -3  -1   -0.03    0.49
   9   3   1   -0.03    0.44
   9   3   0    2.51    0.53
   9  -3   0    2.46    0.50
   9  -3   0    1.90    0.52
   9   3   0    3.75    0.54
   9  -3   1   -0.56    0.45
   9  -3   1    0.47    0.48
   9   3  -1    1.03    0.49
  -9  -3   1    0.06    0.36
   9   3  -2    0.32    0.54
   9  -3   2    0.57    0.43
  -9  -3   2    0.15    0.38
   9   3  -3   -0.60    0.53
   9  -3   3    0.56    0.43
  -9  -3   3   -0.34    0.36
   9  -3   4    1.16    0.47
   9   3  -4    0.74    0.52
  -9  -3   4    0.66    0.41
   9  -3   5    0.25    0.48
   9   3  -5    1.00    0.49
  -9  -3   5    0.68    0.42
   9   3  -6    0.05    0.49
   9  -3   6    0.11    0.45
  -9  -3   6    0.19    0.43
   9   3  -7    0.91    0.50
   9  -3   7    0.26    0.42
  -9  -3   7    0.46    0.45
   9   3  -8    0.33    0.50
   9  -3   8    0.79    0.48
   9  -3   8   -0.54    0.56
  -9  -3   8    1.66    0.52
   9  -3   9   -0.83    0.45
   9  -3   9   -0.25    0.55
  -9  -3   9    0.40    0.51
   9  -3  10    0.02    0.48
   9  -3  10    0.74    0.60
  -9  -3  10   -0.05    0.58
   9  -3  11   -0.58    0.49
   9  -3  11    0.61    0.63
  -9  -3  11    0.34    0.59
  10   3   7    0.44    0.62
  10   3   7   -0.39    0.56
 -10   3   7   -0.01    0.60
  10   3   6    1.52    0.57
  10   3   6    0.49    0.64
 -10   3   6    0.68    0.60
  10   3   5   -0.10    0.55
  10   3   5    0.31    0.57
 -10   3   5   -0.02    0.52
  10   3   4   -0.17    0.55
  10   3   4    0.24    0.54
 -10   3   4   -0.01    0.49
  10  -3  -3   -0.06    0.58
  10  -3  -3   -0.23    0.56
  10   3   3    0.00    0.50
  10   3   3    0.22    0.55
  10  -3  -2    2.86    0.65
  10   3   2    2.69    0.59
  10   3   2    1.57    0.57
  10  -3  -2    1.56    0.61
  10   3   1    0.03    0.52
  10  -3  -1   -0.73    0.52
  10  -3  -1   -0.74    0.55
  10   3   1   -0.65    0.53
  10   3   1    0.44    0.56
  10  -3   0   -0.59    0.54
  10   3   0   -0.13    0.54
  10   3   0   -0.47    0.50
  10   3   0    0.26    0.51
  10  -3   0   -0.86    0.56
  10   3   0    0.40    0.52
  10   3  -1    0.40    0.54
  10   3  -1    0.16    0.55
  10  -3   1    0.49    0.53
  10   3  -1   -0.78    0.50
  10   3  -2    1.91    0.56
  10   3  -2    1.47    0.59
  10   3  -2    2.20    0.63
  10  -3   2    1.26    0.57
 -10  -3   2    1.86    0.56
  10  -3   3    0.42    0.51
  10   3  -3   -0.17    0.53
 -10  -3   3   -0.04    0.50
  10  -3   4    0.39    0.62
  10   3  -4    0.56    0.54
 -10  -3   4   -0.15    0.48
  10  -3   5   -0.17    0.59
  10   3  -5   -0.36    0.56
 -10  -3   5   -0.01    0.52
  10  -3   6    0.03    0.57
 -10  -3   6    1.43    0.57
  10  -3   7   -0.20    0.60
  10  -3   7   -0.24    0.61
 -10  -3   7    1.47    0.67
   0   4  20   -0.36    0.39
   0   4  20    0.19    0.53
   0   4  19    0.12    0.45
   0   4  19    0.86    0.37
   0   4  18    0.51    0.34
   0   4  18    0.24    0.36
   0   4  17    1.64    0.32
   0   4  17    1.26    0.36
   0   4  16    1.70    0.34
   0   4  16    0.90    0.30
   0   4  15   28.84    1.00
   0   4  15   28.83    1.07
   0   4  14    0.56    0.19
   0   4  14    0.60    0.26
   0   4  13   21.62    0.86
   0   4  13   21.23    0.75
   0   4  12    4.34    0.31
   0   4  12    4.49    0.38
   0   4  11    4.32    0.30
   0   4  11    3.98    0.29
   0   4  10    2.07    0.23
   0   4  10    2.65    0.22
   0   4   9   18.18    0.62
   0   4   9   18.23    0.62
   0   4   8    1.61    0.19
   0   4   8    1.60    0.17
   0   4   7   93.93    2.47
   0   4   7   95.58    2.48
   0   4   6    3.40    0.20
   0  -4  -6    2.90    0.17
   0   4   6    3.64    0.20
   0  -4  -5   48.59    1.31
   0   4   5   51.01    1.33
   0   4   5   51.00    1.35
   0   4   4   31.37    0.87
   0   4   4   32.47    0.86
   0  -4  -4   31.12    0.84
   0   4   2  355.35    8.70
   0   4   2  343.23    8.71
   0  -4  -2  354.90    8.70
   0  -4   0 1000.00   24.70
   0   4  -2  343.54    8.51
   0  -4   2  343.87    8.51
   0   4  -2  345.02    8.55
   0  -4   2  336.33    8.53
   0   4  -2  348.68    8.54
   0   4  -3  555.45   15.09
   0  -4   3  639.24   15.05
   0   4  -3  632.81   15.08
   0  -4   4   31.81    0.88
   0   4  -4   31.99    0.91
   0  -4   5   54.08    1.34
   0   4  -5   48.99    1.37
   0  -4   5   46.93    1.33
   0  -4   6    3.52    0.22
   0  -4   6    3.25    0.19
   0  -4   7   91.91    2.39
   0  -4   7   91.04    2.39
   0  -4   8    1.53    0.22
   0  -4   8    1.42    0.17
   0  -4   9   17.73    0.60
   0  -4   9   17.22    0.60
   0  -4  10    2.13    0.25
   0  -4  10    2.49    0.26
   0  -4  11    3.75    0.31
   0  -4  11    3.85    0.31
   0  -4  12    4.00    0.32
   0  -4  12    4.40    0.33
   0  -4  13   20.34    0.72
   0  -4  13   20.11    0.76
   0  -4  14    0.44    0.20
   0  -4  14    0.44    0.22
   0  -4  15   27.82    1.03
   0  -4  15   28.77    0.93
   0  -4  16    1.19    0.33
   0  -4  16    0.83    0.24
   0  -4  17    1.44    0.27
   0  -4  17    0.64    0.34
   0  -4  18    1.49    0.42
   0  -4  19   -0.05    0.41
   0  -4  20   -0.03    0.48
   1   4  19   -0.35    0.36
   1   4  19    0.37    0.43
  -1   4  19   -0.22    0.46
  -1   4  19    0.16    0.36
   1   4  18    0.25    0.32
   1   4  18   -0.07    0.35
  -1   4  18   -0.23    0.30
  -1   4  18    0.07    0.40
   1   4  17    0.02    0.31
   1   4  17    0.11    0.29
  -1   4  17    0.34    0.35
  -1   4  17    0.03    0.29
   1   4  16    2.00    0.33
   1   4  16    1.60    0.32
  -1   4  16    1.84    0.37
  -1   4  16    1.55    0.36
   1   4  15    0.40    0.25
   1   4  15    0.84    0.33
  -1   4  15    1.08    0.25
  -1   4  15    0.63    0.29
   1   4  14    0.65    0.26
   1   4  14    0.29    0.24
  -1   4  14    0.50    0.19
  -1   4  14    0.46    0.26
   1   4  13    3.81    0.42
   1   4  13    3.77    0.35
  -1   4  13    3.88    0.44
  -1   4  13    3.82    0.29
   1   4  12    3.56    0.35
   1   4  12    4.35    0.32
  -1   4  12    4.39    0.29
  -1   4  12    3.54    0.42
   1   4  11    7.84    0.44
   1   4  11    7.96    0.39
  -1   4  11    8.06    0.37
  -1   4  11    7.79    0.46
   1   4  10   15.14    0.55
   1   4  10   15.62    0.61
  -1   4  10   15.16    0.53
  -1   4  10   15.28    0.60
   1   4   9    8.45    0.36
   1   4   9    8.52    0.42
  -1   4   9    8.75    0.41
  -1   4   9    8.93    0.35
   1   4   8    8.39    0.33
   1   4   8    7.95    0.40
  -1   4   8    8.82    0.34
  -1   4   8    8.70    0.39
   1   4   7    3.40    0.26
   1   4   7    3.38    0.19
  -1   4   7    3.58    0.25
  -1   4   7    3.50    0.20
   1   4   6    1.28    0.17
   1   4   6    1.34    0.12
  -1  -4  -6    1.18    0.12
  -1   4   6    1.25    0.18
   1   4   5    8.14    0.27
   1   4   5    8.39    0.36
  -1  -4  -5    8.11    0.27
  -1   4   5    8.50    0.34
  -1   4   5    8.49    0.30
   1  -4  -4    5.57    0.25
   1   4   4    6.14    0.20
   1   4   4    5.98    0.29
  -1  -4  -4    5.93    0.20
  -1   4   4    6.04    0.27
  -1   4   4    6.22    0.24
   1   4   3  102.20    2.70
   1  -4  -3  106.25    2.68
   1   4   3  100.73    2.60
  -1   4   3  106.36    2.68
  -1  -4  -3  102.41    2.60
  -1   4   3  108.91    2.66
   1  -4  -2    4.86    0.22
   1   4   2    5.19    0.24
  -1   4   2    4.76    0.23
  -1   4   2    5.10    0.21
   1  -4  -1   61.27    1.56
   1   4   1   60.16    1.60
   1  -4  -1   61.21    1.61
  -1   4   1   63.06    1.55
  -1   4   1   62.28    1.61
  -1   4   1   61.67    1.60
   1   4   0   -0.08    0.03
   1   4   0   -0.03    0.06
   1  -4   0   -0.12    0.09
   1  -4   0   -0.16    0.08
   1   4   0    0.06    0.12
   1  -4   0   -0.07    0.05
  -1  -4   0   -0.13    0.07
  -1   4   0   -0.06    0.05
  -1   4   0   -0.19    0.08
  -1   4   0   -0.17    0.08
  -1   4   0   -0.08    0.07
   1   4  -1   59.83    1.50
   1   4  -1   60.70    1.60
   1   4  -1   59.58    1.51
  -1  -4   1   55.60    1.51
  -1   4  -1   59.61    1.55
  -1  -4   1   58.23    1.51
  -1   4  -1   61.62    1.53
  -1   4  -1   59.98    1.58
   1   4  -2    5.05    0.18
   1   4  -2    4.79    0.14
  -1   4  -2    4.84    0.23
  -1  -4   2    4.99    0.20
   1   4  -3  106.96    2.69
   1   4  -3  102.76    2.63
   1  -4   3  103.88    2.67
  -1   4  -3  103.81    2.69
  -1  -4   3  101.82    2.64
   1   4  -4    5.78    0.28
   1  -4   4    5.80    0.27
  -1  -4   4    6.42    0.26
   1   4  -5    8.68    0.36
   1  -4   5    8.65    0.34
  -1  -4   5    8.76    0.33
  -1  -4   5    8.73    0.24
   1  -4   6    1.19    0.15
   1   4  -6    1.26    0.17
  -1  -4   6    1.23    0.15
  -1  -4   6    1.33    0.09
   1  -4   7    3.25    0.29
   1  -4   7    3.33    0.21
   1   4  -7    3.81    0.25
  -1  -4   7    3.87    0.16
  -1  -4   7    3.85    0.23
   1  -4   8    8.40    0.36
   1  -4   8    7.93    0.43
  -1  -4   8    8.63    0.37
  -1  -4   8    8.18    0.28
   1  -4   9    8.59    0.46
   1  -4   9    8.09    0.37
  -1  -4   9    8.54    0.30
  -1  -4   9    8.96    0.40
   1  -4  10   14.21    0.61
   1  -4  10   15.23    0.56
  -1  -4  10   14.40    0.58
  -1  -4  10   15.26    0.47
   1  -4  11    7.37    0.39
   1  -4  11    7.42    0.45
  -1  -4  11    7.61    0.41
  -1  -4  11    7.23    0.31
   1  -4  12    3.39    0.38
   1  -4  12    4.14    0.31
  -1  -4  12    4.23    0.34
  -1  -4  12    4.77    0.26
   1  -4  13    3.55    0.39
   1  -4  13    3.84    0.33
  -1  -4  13    3.73    0.26
  -1  -4  13    3.61    0.37
   1  -4  14    0.63    0.28
   1  -4  14    0.67    0.23
  -1  -4  14    0.26    0.22
  -1  -4  14    0.42    0.16
   1  -4  15    1.38    0.30
   1  -4  15    0.64    0.24
  -1  -4  15    0.92    0.19
  -1  -4  15    1.27    0.32
   1  -4  16    2.01    0.36
   1  -4  16    1.70    0.30
  -1  -4  16    1.48    0.34
  -1  -4  16    1.92    0.23
   1  -4  17    0.40    0.37
   1  -4  17   -0.01    0.30
  -1  -4  17    0.25    0.34
  -1  -4  17    0.20    0.20
   1  -4  18    0.63    0.37
   1  -4  18    0.13    0.43
  -1  -4  18   -0.12    0.38
   1  -4  19   -0.12    0.39
   1  -4  19   -0.57    0.40
  -1  -4  19    0.59    0.46
   2   4  19    2.44    0.49
   2   4  19    1.26    0.47
  -2   4  19    1.08    0.41
  -2   4  19    1.17    0.54
   2   4  18    6.46    0.67
   2   4  18    5.94    0.66
  -2   4  18    6.55    0.59
  -2   4  18    7.05    0.81
   2   4  17    4.85    0.57
   2   4  17    4.62    0.58
  -2   4  17    4.25    0.63
  -2   4  17    4.29    0.55
   2   4  16    1.15    0.34
   2   4  16    2.00    0.32
  -2   4  16    0.97    0.37
  -2   4  16    1.47    0.32
   2   4  15    0.10    0.31
   2   4  15    0.17    0.24
  -2   4  15   -0.38    0.19
  -2   4  15    0.01    0.30
   2   4  14    2.97    0.40
   2   4  14    4.19    0.54
  -2   4  14    2.85    0.32
  -2   4  14    2.75    0.37
   2   4  13    3.29    0.41
   2   4  13    3.14    0.46
  -2   4  13    3.52    0.46
  -2   4  13    3.57    0.30
   2   4  12   15.91    0.60
   2   4  12   16.13    0.72
  -2   4  12   15.78    0.59
  -2   4  12   16.02    0.72
   2   4  11    4.98    0.30
   2   4  11    4.81    0.41
  -2   4  11    4.60    0.44
  -2   4  11    4.74    0.30
   2   4  10   20.23    0.79
   2   4  10   19.81    0.64
  -2   4  10   19.89    0.66
  -2   4  10   19.68    0.76
   2   4   9   -0.03    0.10
   2   4   9   -0.01    0.17
  -2   4   9    0.14    0.15
  -2   4   9    0.14    0.11
   2   4   8    0.16    0.09
   2   4   8    0.13    0.18
  -2   4   8    0.39    0.10
  -2   4   8   -0.04    0.14
   2   4   7  107.78    2.73
   2   4   7  105.75    2.90
  -2   4   7  107.84    2.86
  -2   4   7  107.03    2.78
   2   4   6    0.41    0.16
   2   4   6    0.64    0.08
  -2   4   6    0.61    0.15
  -2  -4  -6    0.62    0.12
  -2   4   6    0.48    0.11
   2   4   5   77.08    1.94
   2   4   5   76.12    2.10
  -2   4   5   75.91    2.05
  -2   4   5   72.46    1.92
  -2   4   5   77.70    2.00
  -2  -4  -5   76.07    1.98
   2   4   4    5.37    0.20
   2   4   4    5.16    0.32
  -2   4   4    5.94    0.26
  -2   4   4    5.59    0.30
  -2  -4  -4    5.29    0.24
  -2   4   4    5.36    0.18
   2   4   3   16.09    0.58
   2   4   3   15.90    0.46
  -2   4   3   16.32    0.52
  -2  -4  -3   15.91    0.48
  -2   4   3   16.07    0.55
  -2  -4  -3   15.90    0.48
   2   4   2   17.45    0.50
   2   4   2   17.19    0.59
   2   4   2   17.36    0.49
  -2   4   2   17.03    0.57
  -2   4   2   17.58    0.55
   2  -4  -1    0.07    0.09
   2   4   1    0.10    0.11
   2   4   1    0.20    0.06
  -2   4   1    0.22    0.10
  -2   4   1    0.06    0.09
  -2  -4  -1    0.22    0.07
   2   4   0  155.35    3.83
   2   4   0  151.72    3.88
   2  -4   0  150.94    3.90
   2  -4   0  156.13    3.95
   2  -4   0  155.84    3.95
  -2  -4   0  149.02    3.83
  -2   4   0  150.27    3.89
   2  -4   1    0.22    0.13
   2   4  -1    0.16    0.09
   2   4  -1    0.22    0.07
   2   4  -1    0.17    0.13
  -2   4  -1    0.48    0.16
  -2   4  -1    0.46    0.15
  -2  -4   1    0.19    0.08
   2   4  -2   16.38    0.50
   2  -4   2   17.15    0.59
   2   4  -2   16.69    0.51
   2   4  -2   17.55    0.59
  -2  -4   2   17.33    0.53
   2   4  -3   15.49    0.45
   2   4  -3   16.07    0.55
   2  -4   3   15.74    0.55
  -2  -4   3   15.62    0.51
   2   4  -4    5.87    0.30
   2  -4   4    5.80    0.30
  -2  -4   4    5.65    0.28
   2   4  -5   75.47    2.02
   2  -4   5   74.08    2.01
  -2  -4   5   75.58    2.01
   2  -4   6    0.49    0.11
   2   4  -6    0.73    0.15
  -2  -4   6    0.70    0.14
   2  -4   7  102.05    2.69
   2   4  -7   93.59    2.57
   2   4  -7  104.64    2.71
  -2  -4   7  105.75    2.56
  -2  -4   7  104.70    2.72
   2  -4   8    0.19    0.11
   2   4  -8    0.25    0.13
   2   4  -8    0.31    0.11
  -2  -4   8    0.23    0.13
  -2  -4   8    0.37    0.08
   2  -4   9    0.03    0.11
   2  -4   9    0.12    0.21
   2   4  -9    0.36    0.14
  -2  -4   9    0.16    0.08
  -2  -4   9    0.30    0.16
   2  -4  10   19.35    0.81
   2  -4  10   19.90    0.70
  -2  -4  10   19.31    0.74
  -2  -4  10   20.41    0.57
   2  -4  11    4.38    0.32
   2  -4  11    5.30    0.45
  -2  -4  11    4.95    0.23
  -2  -4  11    4.60    0.33
   2  -4  12   14.66    0.71
   2  -4  12   14.86    0.59
  -2  -4  12   15.62    0.49
  -2  -4  12   14.64    0.65
   2  -4  13    4.12    0.47
   2  -4  13    2.65    0.35
  -2  -4  13    3.72    0.26
  -2  -4  13    4.07    0.40
   2  -4  14    2.77    0.36
   2  -4  14    3.37    0.50
  -2  -4  14    2.94    0.26
  -2  -4  14    3.01    0.41
   2  -4  15   -0.01    0.36
   2  -4  15   -0.12    0.22
  -2  -4  15    0.01    0.25
  -2  -4  15    0.09    0.16
   2  -4  16    1.03    0.50
   2  -4  16    0.80    0.28
  -2  -4  16    1.55    0.22
  -2  -4  16    1.04    0.35
   2  -4  17    4.46    0.50
   2  -4  17    4.45    0.57
  -2  -4  17    5.60    0.63
   2  -4  18    7.42    0.79
   2  -4  18    7.59    0.64
  -2  -4  18    7.29    0.75
   2  -4  19    1.60    0.43
   2  -4  19    1.51    0.50
  -2  -4  19    1.81    0.57
   3   4  19    2.78    0.58
   3   4  19    2.43    0.57
  -3   4  19    2.73    0.49
  -3   4  19    3.29    0.65
   3   4  18    0.93    0.44
   3   4  18    0.04    0.38
  -3   4  18    0.61    0.38
  -3   4  18    1.35    0.50
   3   4  17    3.82    0.51
   3   4  17    2.55    0.39
  -3   4  17    2.60    0.49
  -3   4  17    2.85    0.48
   3   4  16    5.92    0.52
   3   4  16    4.84    0.60
  -3   4  16    4.92    0.56
  -3   4  16    5.04    0.66
   3   4  15    1.23    0.36
   3   4  15    0.16    0.25
  -3   4  15    0.64    0.23
  -3   4  15    0.64    0.34
   3   4  14    0.04    0.23
   3   4  14    0.46    0.31
  -3   4  14    0.11    0.21
  -3   4  14    0.77    0.35
   3   4  13    3.00    0.43
   3   4  13    3.46    0.44
  -3   4  13    3.30    0.48
  -3   4  13    3.87    0.35
   3   4  12    1.64    0.39
   3   4  12    2.17    0.28
  -3   4  12    1.86    0.31
  -3   4  12    2.45    0.29
   3   4  11    0.08    0.27
   3   4  11    0.15    0.14
  -3   4  11    0.53    0.24
  -3   4  11    0.16    0.16
   3   4  10   17.13    0.78
   3   4  10   17.29    0.56
  -3   4  10   16.06    0.73
  -3   4  10   16.22    0.60
   3   4   9    3.13    0.39
   3   4   9    3.87    0.24
  -3   4   9    3.90    0.40
  -3   4   9    3.13    0.27
   3   4   8    2.07    0.29
   3   4   8    2.42    0.19
  -3   4   8    2.65    0.31
  -3   4   8    2.46    0.24
   3   4   7   12.71    0.42
   3   4   7   12.43    0.61
  -3   4   7   12.36    0.55
  -3   4   7   12.51    0.48
   3   4   6    0.27    0.09
   3   4   6    0.59    0.19
  -3   4   6    0.18    0.15
  -3   4   6   -0.05    0.11
  -3  -4  -6    0.12    0.17
   3   4   5   28.05    1.00
   3   4   5   30.13    0.84
  -3  -4  -5   29.77    0.90
  -3   4   5   30.36    0.90
  -3  -4  -5   29.68    0.90
  -3   4   5   29.48    0.81
  -3   4   5   30.07    0.96
   3   4   4   13.40    0.45
   3   4   4   13.01    0.58
   3   4   4   14.46    0.46
  -3   4   4   14.13    0.55
  -3   4   4   13.22    0.50
   3   4   3   13.87    0.56
   3   4   3   12.85    0.45
   3   4   3   13.31    0.43
  -3   4   3   12.74    0.48
  -3   4   3   13.16    0.51
   3   4   2    1.26    0.20
   3   4   2    1.15    0.17
   3   4   2    0.80    0.11
   3   4   2    0.93    0.14
  -3   4   2    1.29    0.20
  -3   4   2    0.84    0.15
   3   4   1   95.70    2.44
   3   4   1   94.14    2.54
  -3   4   1   92.58    2.49
  -3   4   1   95.86    2.52
  -3  -4  -1   94.32    2.44
   3   4   0   -0.17    0.13
   3  -4   0   -0.15    0.13
   3  -4   0    0.07    0.13
   3   4   0   -0.01    0.10
  -3  -4   0   -0.05    0.09
   3  -4   1   95.71    2.55
   3   4  -1   96.47    2.54
   3   4  -1   85.28    2.42
   3  -4   1   95.70    2.55
   3   4  -1   90.86    2.46
  -3  -4   1   95.99    2.44
   3   4  -2    1.16    0.19
   3  -4   2    0.88    0.18
  -3  -4   2    0.77    0.13
   3   4  -3   13.01    0.53
   3  -4   3   12.94    0.53
  -3  -4   3   13.16    0.48
   3  -4   4   12.65    0.52
   3   4  -4   13.38    0.52
  -3  -4   4   13.21    0.50
   3   4  -5   29.89    0.90
   3  -4   5   29.24    0.92
   3   4  -5   25.64    0.75
  -3  -4   5   29.54    0.91
   3   4  -6    0.18    0.13
   3   4  -6    0.28    0.06
   3  -4   6    0.23    0.13
  -3  -4   6    0.34    0.14
   3  -4   7   11.61    0.49
   3   4  -7   11.66    0.34
   3   4  -7   12.32    0.49
  -3  -4   7   12.01    0.52
   3  -4   8    2.67    0.25
   3   4  -8    2.68    0.27
   3   4  -8    1.90    0.18
  -3  -4   8    2.50    0.31
  -3  -4   8    2.34    0.18
   3  -4   9    3.11    0.42
   3  -4   9    4.12    0.31
   3   4  -9    3.25    0.28
  -3  -4   9    3.79    0.21
  -3  -4   9    3.87    0.32
   3  -4  10   15.14    0.77
   3  -4  10   16.02    0.62
   3   4 -10   15.78    0.63
  -3  -4  10   15.91    0.67
  -3  -4  10   16.49    0.50
   3  -4  11    0.37    0.27
   3  -4  11    0.39    0.18
  -3  -4  11    0.25    0.14
  -3  -4  11    0.21    0.18
   3  -4  12    2.34    0.39
   3  -4  12    2.26    0.26
  -3  -4  12    2.24    0.24
  -3  -4  12    1.80    0.26
   3  -4  13    3.92    0.36
   3  -4  13    3.19    0.45
  -3  -4  13    3.41    0.28
  -3  -4  13    3.04    0.43
   3  -4  14    0.04    0.45
   3  -4  14    0.01    0.20
  -3  -4  14   -0.03    0.17
  -3  -4  14    0.20    0.27
   3  -4  15    0.25    0.22
   3  -4  15    0.17    0.45
  -3  -4  15    0.14    0.31
   3  -4  16    4.57    0.46
   3  -4  16    5.79    0.79
  -3  -4  16    4.96    0.62
   3  -4  17    3.10    0.45
   3  -4  17    2.87    0.59
  -3  -4  17    2.80    0.49
   3  -4  18    0.99    0.35
   3  -4  18    1.06    0.54
  -3  -4  18    1.50    0.52
   3  -4  19    1.76    0.64
   3  -4  19    2.98    0.49
  -3  -4  19    3.05    0.65
   4   4  18   -0.06    0.42
   4   4  18    0.13    0.53
  -4   4  18    0.76    0.44
  -4   4  18    1.05    0.56
   4   4  17    0.23    0.45
   4   4  17   -0.26    0.34
  -4   4  17   -0.30    0.46
  -4   4  17   -0.13    0.45
   4   4  16   -0.38    0.28
   4   4  16   -0.36    0.38
  -4   4  16    0.73    0.41
  -4   4  16    0.09    0.40
   4   4  15   -0.16    0.39
   4   4  15    0.21    0.24
  -4   4  15    0.21    0.41
  -4   4  15    0.05    0.30
   4   4  14   24.00    0.86
   4   4  14   24.78    1.10
  -4   4  14   24.33    1.07
  -4   4  14   23.54    0.89
   4   4  13   12.96    0.76
   4   4  13   13.25    0.61
  -4   4  13   12.85    0.61
  -4   4  13   11.93    0.74
   4   4  12    2.74    0.35
   4   4  12    2.22    0.36
  -4   4  12    2.25    0.37
  -4   4  12    2.25    0.29
   4   4  11   -0.62    0.29
   4   4  11    0.22    0.16
  -4   4  11   -0.14    0.19
  -4   4  11    0.47    0.24
   4   4  10    3.18    0.26
   4   4  10    3.24    0.47
  -4   4  10    2.35    0.34
  -4   4  10    2.92    0.31
   4   4   9    8.46    0.61
   4   4   9    9.48    0.38
  -4   4   9    8.48    0.52
  -4   4   9    8.87    0.44
   4   4   8    0.62    0.13
   4   4   8    1.02    0.30
  -4   4   8    0.56    0.17
  -4   4   8    0.55    0.23
   4   4   7    7.06    0.33
   4   4   7    7.19    0.51
  -4   4   7    6.81    0.38
  -4   4   7    5.88    0.47
   4   4   6    0.42    0.12
   4   4   6    0.50    0.22
  -4   4   6    0.22    0.14
  -4   4   6    0.20    0.18
   4   4   5   16.68    0.73
   4  -4  -5   16.74    0.46
   4   4   5   15.83    0.56
  -4   4   5   15.89    0.60
  -4   4   5   16.04    0.65
   4   4   4    2.48    0.23
   4  -4  -4    2.65    0.14
   4   4   4    2.87    0.35
  -4   4   4    2.51    0.25
  -4   4   4    2.29    0.28
   4   4   3    9.05    0.40
   4  -4  -3    8.89    0.30
   4   4   3    8.08    0.48
  -4   4   3    8.38    0.44
  -4   4   3    8.16    0.40
   4   4   2   14.19    0.56
   4   4   2   15.10    0.56
   4   4   2   13.99    0.63
  -4   4   2   14.27    0.58
   4   4   1    7.42    0.44
  -4  -4  -1    7.24    0.34
  -4   4   1    7.29    0.40
   4  -4   0    2.51    0.32
   4  -4   0    2.17    0.29
  -4  -4   0    2.46    0.23
   4  -4   1    7.24    0.43
   4  -4   1    7.40    0.43
  -4  -4   1    7.46    0.36
   4   4  -2   14.57    0.63
   4  -4   2   15.16    0.64
  -4  -4   2   14.59    0.55
   4  -4   3    8.26    0.46
   4   4  -3    8.39    0.44
  -4  -4   3    8.71    0.41
   4   4  -4    2.77    0.28
   4  -4   4    2.70    0.29
  -4  -4   4    2.35    0.26
   4  -4   5   15.69    0.63
   4   4  -5   15.94    0.61
  -4  -4   5   15.72    0.63
   4   4  -6    0.53    0.17
   4  -4   6    0.26    0.15
  -4  -4   6    0.55    0.18
   4  -4   7    6.83    0.41
   4   4  -7    7.30    0.38
  -4  -4   7    7.57    0.47
   4   4  -8    0.96    0.19
   4  -4   8    1.07    0.23
  -4  -4   8    0.70    0.20
   4   4  -9    7.98    0.45
   4  -4   9    8.49    0.61
   4  -4   9    9.06    0.48
  -4  -4   9    9.42    0.50
   4   4 -10    2.22    0.31
   4  -4  10    2.65    0.41
   4  -4  10    2.40    0.34
  -4  -4  10    2.72    0.31
   4  -4  11   -0.25    0.18
   4  -4  11    0.01    0.35
   4   4 -11    0.12    0.20
  -4  -4  11   -0.17    0.21
   4  -4  12    1.88    0.51
   4  -4  12    2.26    0.34
  -4  -4  12    1.57    0.32
  -4  -4  12    2.10    0.27
   4  -4  13   11.62    0.91
   4  -4  13   12.00    0.58
  -4  -4  13   12.65    0.71
  -4  -4  13   11.83    0.50
   4  -4  14   23.56    0.88
   4  -4  14   22.22    1.13
  -4  -4  14   23.62    1.02
   4  -4  15    0.20    0.46
   4  -4  15    0.17    0.24
  -4  -4  15    0.12    0.37
   4  -4  16    0.02    0.49
   4  -4  16   -0.02    0.27
  -4  -4  16   -0.07    0.42
   4  -4  17   -0.65    0.32
   4  -4  17    0.88    0.54
  -4  -4  17   -0.23    0.44
   4  -4  18    0.51    0.65
   4  -4  18   -0.04    0.36
  -4  -4  18    0.22    0.57
   5   4  17    2.06    0.55
   5   4  17    1.87    0.43
  -5   4  17    1.72    0.49
  -5   4  17    1.99    0.66
   5   4  16    0.25    0.51
   5   4  16    0.19    0.32
  -5   4  16   -0.13    0.47
  -5   4  16    0.14    0.47
   5   4  15    2.09    0.48
   5   4  15    1.33    0.30
  -5   4  15    1.73    0.46
  -5   4  15    1.64    0.47
   5   4  14   -0.12    0.24
   5   4  14    0.39    0.40
  -5   4  14    0.21    0.34
  -5   4  14    0.25    0.40
   5   4  13    6.44    0.71
   5   4  13    6.69    0.44
  -5   4  13    5.95    0.64
  -5   4  13    5.20    0.51
   5   4  12    0.86    0.37
   5   4  12    1.16    0.27
  -5   4  12    1.19    0.38
  -5   4  12    1.28    0.29
   5   4  11    2.31    0.43
   5   4  11    3.56    0.37
  -5   4  11    2.19    0.36
  -5   4  11    3.25    0.40
   5   4  10    4.85    0.33
   5   4  10    5.13    0.50
  -5   4  10    4.91    0.41
  -5   4  10    3.98    0.49
   5   4   9    1.43    0.20
   5   4   9    1.79    0.42
  -5   4   9    1.75    0.27
  -5   4   9    1.08    0.27
   5   4   8    0.25    0.34
   5   4   8    0.29    0.16
  -5   4   8    0.20    0.23
  -5   4   8    0.34    0.20
   5   4   7    3.80    0.50
   5   4   7    3.71    0.29
  -5   4   7    4.17    0.36
  -5   4   7    3.41    0.38
   5   4   6    3.08    0.28
   5  -4  -6    3.36    0.19
   5   4   6    3.08    0.40
  -5   4   6    3.40    0.37
  -5   4   6    3.33    0.34
   5   4   5    6.29    0.51
   5   4   5    5.69    0.35
   5  -4  -5    5.69    0.23
  -5   4   5    5.37    0.45
  -5   4   5    4.92    0.37
   5   4   4    7.78    0.55
   5   4   4    8.51    0.44
   5  -4  -4    8.24    0.31
  -5   4   4    7.68    0.51
   5  -4  -3   17.70    0.59
   5   4   3   18.69    0.81
   5   4   3   18.01    0.69
  -5   4   3   18.01    0.75
   5   4   2    6.25    0.41
   5   4   2    6.05    0.40
   5   4   2    5.31    0.44
  -5   4   2    6.27    0.40
   5   4   1    1.64    0.27
  -5  -4  -1    1.55    0.23
  -5   4   1    2.00    0.27
   5  -4   0    0.28    0.20
   5  -4   0   -0.08    0.19
  -5  -4   0    0.23    0.14
   5  -4   1    1.51    0.29
   5  -4   1    2.62    0.36
  -5  -4   1    1.71    0.24
   5  -4   2    6.53    0.46
   5   4  -2    6.94    0.46
  -5  -4   2    6.32    0.39
   5   4  -3   18.49    0.75
   5  -4   3   19.24    0.79
  -5  -4   3   18.59    0.71
   5  -4   4    8.19    0.50
   5   4  -4    7.63    0.46
  -5  -4   4    8.34    0.45
   5  -4   5    5.58    0.46
   5   4  -5    5.73    0.39
  -5  -4   5    5.86    0.43
   5   4  -6    3.68    0.34
   5  -4   6    2.69    0.40
  -5  -4   6    3.29    0.40
   5   4  -7    3.45    0.34
   5  -4   7    4.04    0.42
  -5  -4   7    3.53    0.37
   5   4  -8    0.43    0.20
   5  -4   8    0.54    0.21
  -5  -4   8    0.22    0.23
   5   4  -9    0.96    0.23
   5  -4   9    1.29    0.26
  -5  -4   9    1.32    0.28
   5  -4  10    4.86    0.42
   5   4 -10    5.38    0.41
   5  -4  10    3.43    0.54
  -5  -4  10    4.28    0.48
   5  -4  11    3.16    0.52
   5   4 -11    2.57    0.39
   5  -4  11    2.87    0.41
  -5  -4  11    3.14    0.40
   5   4 -12    1.01    0.32
   5  -4  12    1.29    0.43
   5  -4  12    1.81    0.28
  -5  -4  12    1.42    0.36
   5  -4  13    4.47    0.61
   5  -4  13    6.15    0.46
  -5  -4  13    6.49    0.63
   5  -4  14    0.47    0.44
   5  -4  14    0.24    0.24
  -5  -4  14    0.32    0.36
   5  -4  15    1.57    0.32
   5  -4  15    1.76    0.53
  -5  -4  15    1.57    0.44
   5  -4  16    0.56    0.28
   5  -4  16    0.68    0.53
   5  -4  17    1.56    0.36
   5  -4  17    0.41    0.57
  -5  -4  17    1.38    0.59
   6   4  16    1.81    0.55
   6   4  16    0.27    0.38
  -6   4  16    0.72    0.62
  -6   4  16    1.30    0.52
   6   4  15    1.55    0.35
   6   4  15    2.39    0.61
  -6   4  15    1.09    0.54
  -6   4  15    1.43    0.59
   6   4  14    1.72    0.49
  -6   4  14    1.39    0.51
  -6   4  14    0.46    0.45
   6   4  13   -0.47    0.44
   6   4  13    0.74    0.25
  -6   4  13   -0.03    0.40
  -6   4  13    0.12    0.42
   6   4  12    4.03    0.40
   6   4  12    4.00    0.52
  -6   4  12    4.61    0.66
  -6   4  12    4.76    0.58
   6   4  11    0.83    0.25
   6   4  11    0.81    0.40
  -6   4  11    0.36    0.30
  -6   4  11    0.69    0.35
   6   4  10    0.36    0.37
   6   4  10    0.63    0.27
  -6   4  10    0.90    0.31
  -6   4  10    0.52    0.32
   6   4   9    1.58    0.41
   6   4   9    0.78    0.25
  -6   4   9    1.19    0.32
  -6   4   9    1.22    0.29
   6   4   8    2.10    0.27
   6   4   8    1.65    0.37
  -6   4   8    2.03    0.32
  -6   4   8    1.64    0.34
   6  -4  -7    1.66    0.17
   6   4   7    1.73    0.40
   6   4   7    1.54    0.26
  -6   4   7    1.68    0.27
   6   4   6   39.48    1.28
   6   4   6   42.54    1.58
   6  -4  -6   41.40    1.11
  -6   4   6   40.60    1.39
   6  -4  -5    0.43    0.14
   6   4   5    0.44    0.21
   6   4   5    0.15    0.31
  -6   4   5   -0.19    0.22
   6   4   4    0.14    0.27
   6  -4  -4    0.13    0.16
   6   4   4    0.00    0.20
  -6   4   4    0.35    0.20
   6   4   3    8.81    0.52
   6  -4  -3    9.18    0.42
   6   4   3    8.71    0.60
  -6   4   3    8.14    0.52
   6   4   2    6.45    0.46
   6   4   2    6.25    0.52
   6   4   2    5.87    0.46
  -6   4   2    5.36    0.43
  -6   4   1    0.87    0.21
  -6  -4  -1    0.86    0.20
   6  -4   0    0.51    0.29
   6  -4   0   -0.07    0.26
  -6  -4   0    0.35    0.20
   6  -4   1    0.73    0.32
   6  -4   1    1.76    0.37
  -6  -4   1    1.12    0.22
   6  -4   2    5.29    0.52
   6   4  -2    6.76    0.50
  -6  -4   2    5.51    0.43
   6   4  -3    9.34    0.55
   6  -4   3    9.66    0.62
  -6  -4   3    9.32    0.57
   6  -4   4   -0.13    0.25
   6   4  -4    0.32    0.24
  -6  -4   4   -0.34    0.25
   6  -4   5    0.94    0.29
   6   4  -5    0.76    0.24
  -6  -4   5    0.42    0.25
   6  -4   6   40.83    1.39
   6   4  -6   40.47    1.29
  -6  -4   6   38.83    1.35
   6   4  -7    2.68    0.35
   6  -4   7    1.56    0.31
  -6  -4   7    1.56    0.30
   6  -4   8    3.36    0.47
   6   4  -8    1.96    0.29
  -6  -4   8    1.81    0.33
   6   4  -9    0.99    0.26
   6  -4   9    1.00    0.27
  -6  -4   9    0.57    0.29
   6  -4  10    1.39    0.40
   6   4 -10    0.87    0.26
   6  -4  10    0.83    0.28
  -6  -4  10    1.27    0.31
   6  -4  11    0.54    0.42
   6  -4  11    0.55    0.28
   6   4 -11   -0.03    0.26
  -6  -4  11    1.04    0.35
   6  -4  12    3.92    0.59
   6   4 -12    5.13    0.57
   6  -4  12    3.75    0.45
  -6  -4  12    4.30    0.60
   6  -4  13   -0.34    0.24
   6   4 -13    0.01    0.45
   6  -4  13    0.60    0.46
  -6  -4  13    0.51    0.40
   6  -4  14    0.60    0.51
   6  -4  14    1.12    0.29
  -6  -4  14    0.44    0.45
   6  -4  15    1.90    0.57
   6  -4  15    1.88    0.36
  -6  -4  15    1.50    0.56
   6  -4  16    0.32    0.38
   6  -4  16    0.78    0.60
  -6  -4  16    1.33    0.63
   7   4  15    1.24    0.64
  -7   4  15    1.35    0.63
  -7   4  15    2.31    0.97
   7   4  14    0.50    0.55
   7   4  14    0.64    0.37
  -7   4  14    0.42    0.60
  -7   4  14    1.01    0.53
   7   4  13    0.17    0.53
   7   4  13   -0.24    0.30
  -7   4  13   -0.99    0.47
  -7   4  13    0.24    0.55
   7   4  12    1.32    0.31
   7   4  12    2.09    0.54
  -7   4  12    1.00    0.48
   7   4  11    2.16    0.31
   7   4  11    1.28    0.48
  -7   4  11    1.93    0.47
   7   4  10    0.73    0.27
   7   4  10    0.32    0.41
  -7   4  10    0.29    0.39
   7   4   9   -0.18    0.40
   7   4   9   -0.25    0.26
  -7   4   9    0.04    0.36
   7   4   8    0.58    0.32
   7   4   8    1.03    0.42
  -7   4   8    0.88    0.34
   7   4   7    0.78    0.40
   7   4   7    1.57    0.38
  -7   4   7    1.02    0.32
   7  -4  -6    7.72    0.39
   7   4   6    7.62    0.71
   7   4   6    7.53    0.69
  -7   4   6    8.76    0.61
   7  -4  -5    7.69    0.40
   7   4   5    7.96    0.72
   7   4   5    7.47    0.65
  -7   4   5    7.75    0.57
   7   4   4    0.12    0.40
   7  -4  -4    0.21    0.21
   7   4   4    0.00    0.32
  -7   4   4    0.30    0.26
   7   4   3    2.69    0.43
   7  -4  -3    2.47    0.28
   7   4   3    1.79    0.48
  -7   4   3    3.01    0.42
   7   4   2   10.90    0.80
   7   4   2   11.62    0.80
   7   4   2   12.48    0.82
  -7   4   2   13.56    0.67
   7   4   1   31.00    1.28
   7   4   1   28.78    1.26
   7  -4  -1   34.06    1.34
   7   4   1   32.00    1.25
   7  -4  -1   33.74    1.34
  -7   4   1   33.12    1.17
   7  -4   0    0.51    0.33
   7  -4   0    0.24    0.33
  -7  -4   0    0.70    0.34
   7  -4   1   33.94    1.35
   7   4  -1   34.77    1.30
   7  -4   1   33.96    1.34
  -7  -4   1   34.17    1.23
   7  -4   2   12.91    0.79
   7   4  -2   12.77    0.72
  -7  -4   2   12.95    0.68
   7   4  -3    3.26    0.48
   7  -4   3    2.44    0.42
  -7  -4   3    3.07    0.45
   7  -4   4    0.03    0.31
   7   4  -4   -0.09    0.27
  -7  -4   4   -0.19    0.25
   7   4  -5    7.15    0.54
   7  -4   5    7.70    0.62
  -7  -4   5    7.74    0.61
   7   4  -6    7.88    0.55
   7  -4   6    7.67    0.66
  -7  -4   6    7.24    0.61
   7   4  -7    0.90    0.29
   7  -4   7    1.06    0.34
  -7  -4   7    1.20    0.35
   7  -4   8    1.08    0.33
   7   4  -8    1.29    0.29
  -7  -4   8    1.00    0.33
   7  -4   9    0.50    0.31
   7   4  -9    0.33    0.28
  -7  -4   9   -0.76    0.32
   7  -4  10   -0.09    0.43
   7  -4  10    0.61    0.30
   7   4 -10    0.56    0.33
  -7  -4  10    0.50    0.36
   7  -4  11    1.56    0.35
   7   4 -11    2.09    0.44
   7  -4  11    1.24    0.47
  -7  -4  11    2.72    0.47
   7  -4  12    1.86    0.56
   7  -4  12    1.11    0.33
   7   4 -12    1.50    0.51
  -7  -4  12    2.03    0.48
   7  -4  13    0.32    0.33
   7   4 -13    0.20    0.46
   7  -4  13   -0.10    0.53
  -7  -4  13   -0.57    0.42
   7  -4  14    0.08    0.36
   7  -4  14   -0.27    0.58
  -7  -4  14   -0.37    0.53
   7  -4  15    0.10    0.65
   7  -4  15    0.25    0.40
  -7  -4  15   -0.96    0.58
   8   4  13    1.68    0.68
  -8   4  13    1.92    0.68
   8   4  12    0.92    0.56
   8   4  12    0.29    0.37
  -8   4  12   -0.29    0.58
   8   4  11    1.32    0.37
   8   4  11    1.07    0.60
  -8   4  11    1.50    0.53
   8   4  10   -0.36    0.33
   8   4  10    0.21    0.50
  -8   4  10    0.38    0.44
   8   4   9    1.06    0.32
   8   4   9    0.09    0.47
  -8   4   9    1.75    0.50
   8   4   8    0.81    0.33
   8   4   8    0.55    0.49
  -8   4   8   -0.18    0.37
   8   4   7    0.59    0.43
   8   4   7   -0.20    0.29
  -8   4   7    0.38    0.35
   8   4   6    2.16    0.50
   8   4   6    1.35    0.35
  -8   4   6    0.86    0.37
   8   4   5   -0.11    0.44
   8   4   5   -0.10    0.33
  -8   4   5   -0.02    0.33
   8  -4  -4    1.73    0.31
   8   4   4    1.96    0.38
   8   4   4    2.15    0.46
  -8   4   4    1.52    0.36
   8   4   3    4.04    0.58
   8  -4  -3    4.98    0.49
   8   4   3    5.41    0.60
  -8   4   3    6.52    0.58
   8   4   2    0.36    0.35
   8   4   2    0.01    0.41
   8  -4  -2    0.80    0.41
   8  -4  -2   -0.43    0.30
   8   4   2    0.50    0.35
   8  -4  -2    0.24    0.42
  -8   4   2    0.88    0.31
   8   4   1    1.66    0.39
   8  -4  -1    3.11    0.50
   8   4   1    1.70    0.50
   8  -4  -1    1.31    0.45
   8   4   1    2.40    0.40
   8  -4   0   23.27    1.15
   8  -4   0   24.56    1.16
  -8  -4   0   21.81    0.97
   8   4  -1    1.03    0.48
   8  -4   1    1.24    0.40
   8  -4   1    0.92    0.40
  -8  -4   1    1.81    0.35
   8  -4   2    0.29    0.36
   8   4  -2    0.83    0.44
  -8  -4   2    0.61    0.33
   8  -4   3    5.62    0.64
   8   4  -3    4.82    0.68
  -8  -4   3    5.50    0.57
   8  -4   4    1.44    0.40
   8   4  -4    2.16    0.40
  -8  -4   4    1.69    0.36
   8  -4   5   -0.09    0.35
   8   4  -5    0.04    0.34
  -8  -4   5    0.01    0.32
   8   4  -6    1.37    0.36
   8  -4   6    2.13    0.43
  -8  -4   6    1.35    0.40
   8   4  -7    0.33    0.35
   8  -4   7   -0.64    0.37
  -8  -4   7   -0.19    0.37
   8  -4   8    0.72    0.35
   8   4  -8    0.21    0.37
  -8  -4   8    0.47    0.38
   8  -4   9    0.54    0.48
   8   4  -9    1.39    0.47
   8  -4   9    1.44    0.39
  -8  -4   9    1.12    0.43
   8  -4  10   -0.14    0.48
   8   4 -10    0.04    0.47
   8  -4  10    0.80    0.37
  -8  -4  10    0.14    0.42
   8   4 -11    1.47    0.54
   8  -4  11    0.77    0.55
   8  -4  11    1.63    0.43
  -8  -4  11    1.32    0.49
   8   4 -12    0.12    0.69
   8  -4  12    0.76    0.40
   8  -4  12   -0.06    0.55
  -8  -4  12    1.48    0.57
   8  -4  13    1.53    0.48
   8  -4  13    1.80    0.66
  -8  -4  13    3.36    0.66
   9   4  10    1.35    0.62
   9   4  10    0.54    0.46
  -9   4  10    1.81    0.63
   9   4   9    0.12    0.60
   9   4   9    0.24    0.40
  -9   4   9    0.31    0.57
   9   4   8   -0.43    0.41
   9   4   8   -0.63    0.57
  -9   4   8   -0.16    0.49
   9   4   7    0.78    0.58
   9   4   7    1.32    0.42
  -9   4   7    0.20    0.44
   9   4   6    0.48    0.53
   9   4   6   -0.08    0.41
  -9   4   6    0.14    0.44
   9   4   5    0.38    0.40
   9   4   5   -0.09    0.50
  -9   4   5    0.54    0.42
   9   4   4    0.72    0.39
   9   4   4    1.19    0.50
  -9   4   4    1.03    0.40
   9   4   3    0.04    0.45
   9   4   3    0.25    0.40
  -9   4   3    0.05    0.39
   9  -4  -2    1.01    0.52
   9   4   2   -0.23    0.39
   9  -4  -2    0.11    0.46
   9  -4  -2    0.47    0.50
   9   4   2    0.14    0.42
   9   4   2    0.49    0.47
   9  -4  -1   -0.05    0.50
   9   4   1   -0.18    0.40
   9   4   1    0.53    0.47
   9   4   1   -0.03    0.40
   9  -4  -1   -0.36    0.47
   9   4   0   -0.61    0.43
   9   4   0   -0.09    0.44
   9  -4   0   -0.63    0.44
   9  -4   0   -0.20    0.47
   9   4   0   -0.18    0.44
   9   4   0   -0.56    0.44
   9   4  -1    1.00    0.46
   9  -4   1    1.30    0.48
   9  -4   1    0.03    0.45
  -9  -4   1   -0.14    0.38
   9   4  -2   -0.13    0.47
   9  -4   2    0.43    0.44
  -9  -4   2    0.44    0.40
   9   4  -3   -0.16    0.46
   9  -4   3    0.22    0.43
  -9  -4   3    0.03    0.39
   9  -4   4    0.55    0.47
   9   4  -4    1.83    0.52
  -9  -4   4    0.67    0.42
   9   4  -5    0.92    0.48
   9  -4   5    0.71    0.48
  -9  -4   5    0.25    0.43
   9  -4   6    0.69    0.47
   9   4  -6    0.23    0.49
  -9  -4   6    1.09    0.45
   9   4  -7    1.12    0.51
   9  -4   7    0.34    0.46
  -9  -4   7    1.53    0.50
   9  -4   8   -0.09    0.43
   9   4  -8   -0.24    0.48
  -9  -4   8    0.30    0.51
   9  -4   9    0.03    0.52
   9  -4   9    0.75    0.60
   9   4  -9    0.42    0.55
  -9  -4   9   -0.94    0.49
   9  -4  10    0.00    0.57
   9  -4  10    1.48    0.50
  -9  -4  10    1.46    0.65
  10   4   7    0.79    0.62
  10   4   7   -0.11    0.55
 -10   4   7    0.38    0.58
  10   4   6    0.29    0.53
  10   4   6    0.26    0.59
 -10   4   6    0.46    0.59
  10   4   5    0.33    0.56
  10   4   5    0.32    0.62
 -10   4   5    0.97    0.57
  10  -4  -4    1.23    0.71
  10  -4  -4    0.69    0.66
  10   4   4    0.74    0.59
  10   4   4    0.32    0.50
 -10   4   4    1.25    0.53
  10  -4  -3    0.21    0.62
  10  -4  -3    0.61    0.59
  10   4   3    0.16    0.54
  10   4   3   -0.01    0.50
  10   4   2    0.68    0.55
  10  -4  -2    0.13    0.54
  10   4   2    0.76    0.50
  10  -4  -2    1.10    0.59
  10   4   1    0.24    0.51
  10  -4  -1   -0.15    0.58
  10  -4  -1    0.40    0.58
  10   4   1    0.01    0.52
  10   4   1    1.04    0.56
  10   4   0    1.30    0.55
  10  -4   0   -0.22    0.53
  10  -4   0   -0.68    0.52
  10   4   0   -0.11    0.55
  10   4   0   -0.28    0.55
  10   4   0    0.62    0.54
  10   4  -1    0.42    0.53
  10  -4   1    1.05    0.54
  10   4  -1    0.53    0.52
  10   4  -1    0.55    0.56
  10   4  -1    0.65    0.53
  10   4  -2    0.43    0.55
  10  -4   2    0.36    0.51
  10   4  -2    0.53    0.55
 -10  -4   2    1.32    0.56
  10   4  -3   -0.47    0.54
  10  -4   3   -0.57    0.47
 -10  -4   3   -0.10    0.51
  10   4  -4    0.68    0.50
  10  -4   4   -0.23    0.60
 -10  -4   4    0.69    0.54
  10  -4   5    1.05    0.65
  10   4  -5    0.18    0.51
 -10  -4   5    1.01    0.54
  10  -4   6    1.13    0.61
  10   4  -6   -0.23    0.55
 -10  -4   6   -0.11    0.54
  10  -4   7   -0.76    0.60
 -10  -4   7   -0.45    0.60
   0   5  19    0.01    0.33
   0   5  19    0.33    0.47
   0   5  18   -0.03    0.32
   0   5  18   -0.77    0.39
   0   5  17   -0.39    0.33
   0   5  17    0.10    0.25
   0   5  16    0.23    0.31
   0   5  16    0.10    0.24
   0   5  15    0.05    0.29
   0   5  15   -0.43    0.26
   0   5  14    0.19    0.20
   0   5  14    0.02    0.25
   0   5  13    0.08    0.29
   0   5  13    0.16    0.16
   0   5  12   -0.18    0.14
   0   5  12    0.05    0.20
   0   5  11   -0.08    0.13
   0   5  11   -0.05    0.15
   0   5  10   -0.16    0.11
   0   5  10   -0.03    0.13
   0   5   9    0.12    0.11
   0   5   9   -0.10    0.11
   0   5   8    0.15    0.11
   0   5   8    0.11    0.11
   0   5   7    0.07    0.10
   0   5   7    0.03    0.09
   0   5   6    0.03    0.08
   0   5   6   -0.02    0.08
   0  -5  -6    0.07    0.08
   0   5   5    0.09    0.08
   0  -5  -5    0.09    0.06
   0   5   5    0.03    0.08
   0   5   4   -0.02    0.07
   0  -5  -4    0.00    0.06
   0   5   4    0.10    0.08
   0   5   3    0.00    0.07
   0   5   3   -0.18    0.06
   0  -5  -3   -0.06    0.06
   0  -5  -1   -0.08    0.05
   0   5   1    0.05    0.06
   0  -5  -1   -0.03    0.06
   0   5   1   -0.04    0.09
   0   5   0    0.09    0.06
   0  -5   0    0.08    0.06
   0   5   0    0.08    0.09
   0  -5   1   -0.02    0.05
   0  -5   1    0.07    0.06
   0   5  -1    0.01    0.06
   0   5  -1   -0.01    0.05
   0   5  -1   -0.06    0.08
   0   5  -2   -0.01    0.06
   0   5  -2   -0.03    0.08
   0   5  -2    0.01    0.06
   0  -5   2    0.01    0.06
   0  -5   2   -0.04    0.05
   0  -5   3   -0.20    0.06
   0   5  -3   -0.08    0.08
   0  -5   3   -0.10    0.07
   0   5  -3   -0.11    0.07
   0  -5   4    0.07    0.08
   0  -5   4    0.04    0.07
   0   5  -4    0.00    0.09
   0  -5   5    0.03    0.07
   0   5  -5   -0.09    0.09
   0   5  -6    0.11    0.12
   0  -5   6    0.08    0.12
   0  -5   6   -0.02    0.08
   0  -5   7    0.01    0.13
   0  -5   7    0.10    0.08
   0  -5   8    0.00    0.09
   0  -5   8   -0.09    0.13
   0  -5   9   -0.07    0.15
   0  -5   9   -0.13    0.10
   0  -5  10   -0.23    0.16
   0  -5  10   -0.03    0.13
   0  -5  11   -0.04    0.17
   0  -5  11   -0.02    0.14
   0  -5  12    0.01    0.19
   0  -5  12   -0.31    0.14
   0  -5  13   -0.18    0.17
   0  -5  13    0.29    0.21
   0  -5  14   -0.10    0.19
   0  -5  14   -0.07    0.19
   0  -5  15    1.11    0.26
   0  -5  15    0.00    0.21
   0  -5  16   -0.23    0.21
   0  -5  16    0.25    0.28
   0  -5  17    0.05    0.22
   0  -5  17    0.39    0.33
   0  -5  18   -0.49    0.23
   0  -5  18   -0.18    0.36
   0  -5  19    0.39    0.42
   1   5  19    0.56    0.37
   1   5  19    0.06    0.45
  -1   5  19    0.90    0.48
  -1   5  19    0.38    0.40
   1   5  18   -0.47    0.32
   1   5  18   -0.11    0.37
  -1   5  18    0.09    0.41
  -1   5  18    0.19    0.34
   1   5  17    1.02    0.30
   1   5  17    1.50    0.36
  -1   5  17    0.60    0.31
  -1   5  17    1.01    0.38
   1   5  16    3.83    0.45
   1   5  16    3.55    0.38
  -1   5  16    3.48    0.42
  -1   5  16    5.18    0.51
   1   5  15    6.97    0.51
   1   5  15    7.05    0.53
  -1   5  15    6.89    0.51
  -1   5  15    6.51    0.54
   1   5  14    0.32    0.29
   1   5  14    0.22    0.26
  -1   5  14   -0.02    0.17
  -1   5  14    0.17    0.26
   1   5  13    1.80    0.28
   1   5  13    1.82    0.30
  -1   5  13    1.92    0.24
  -1   5  13    2.35    0.32
   1   5  12    2.51    0.29
   1   5  12    2.29    0.30
  -1   5  12    1.76    0.24
  -1   5  12    2.05    0.33
   1   5  11   -0.16    0.16
   1   5  11   -0.10    0.14
  -1   5  11    0.13    0.13
  -1   5  11    0.12    0.18
   1   5  10    5.93    0.37
   1   5  10    5.52    0.31
  -1   5  10    6.01    0.31
  -1   5  10    5.93    0.35
   1   5   9    2.18    0.25
   1   5   9    1.99    0.20
  -1   5   9    2.26    0.19
  -1   5   9    2.08    0.25
   1   5   8    0.39    0.11
   1   5   8    0.41    0.15
  -1   5   8    0.65    0.12
  -1   5   8    0.72    0.14
   1   5   7    9.85    0.35
   1   5   7    9.73    0.42
  -1  -5  -7    9.42    0.34
  -1   5   7    9.96    0.37
  -1   5   7   10.30    0.41
   1   5   6    4.62    0.28
   1   5   6    4.25    0.20
  -1  -5  -6    4.22    0.19
  -1   5   6    4.30    0.26
  -1   5   6    5.05    0.23
   1   5   5   69.45    1.77
   1   5   5   69.01    1.87
  -1  -5  -5   67.81    1.76
  -1   5   5   69.74    1.82
  -1   5   5   70.15    1.85
   1  -5  -4   33.68    0.96
   1   5   4   34.93    0.89
   1   5   4   34.31    0.99
  -1  -5  -4   34.23    0.88
  -1   5   4   34.11    0.97
  -1   5   4   34.98    0.95
   1   5   3    0.21    0.10
   1   5   3    0.04    0.03
   1  -5  -3    0.12    0.09
  -1  -5  -3    0.10    0.03
  -1   5   3    0.18    0.08
  -1   5   3    0.04    0.09
   1  -5  -2   43.43    1.18
   1   5   2   43.44    1.18
  -1   5   2   45.15    1.18
  -1   5   2   43.85    1.14
  -1   5   2   43.34    1.18
   1   5   1   16.74    0.42
   1  -5  -1   16.36    0.54
   1   5   1   16.16    0.49
   1  -5  -1   16.33    0.54
   1  -5  -1   16.02    0.50
   1  -5  -1   16.06    0.47
  -1   5   1   15.18    0.49
  -1   5   1   16.81    0.46
   1  -5   0    0.80    0.11
   1   5   0    0.99    0.07
   1  -5   0    0.94    0.13
   1   5   0    0.97    0.09
   1   5   0    0.97    0.16
  -1   5   0    0.85    0.12
  -1   5   0    0.92    0.13
  -1  -5   0    0.95    0.07
  -1   5   0    0.91    0.13
  -1   5   0    0.99    0.10
   1   5  -1   14.76    0.54
   1   5  -1   17.21    0.45
   1   5  -1   16.17    0.44
   1  -5   1   16.33    0.52
  -1  -5   1   14.57    0.45
  -1   5  -1   16.01    0.49
  -1   5  -1   16.52    0.48
  -1  -5   1   16.20    0.45
   1  -5   2   43.49    1.18
   1   5  -2   42.99    1.20
   1   5  -2   42.96    1.12
   1   5  -2   43.84    1.08
  -1   5  -2   43.17    1.15
  -1  -5   2   41.34    1.09
  -1   5  -2   41.98    1.15
  -1  -5   2   42.29    1.12
   1  -5   3    0.00    0.08
   1   5  -3    0.08    0.07
   1   5  -3    0.22    0.11
  -1   5  -3    0.00    0.11
  -1  -5   3    0.00    0.06
   1   5  -4   34.33    0.98
   1  -5   4   33.89    0.96
  -1  -5   4   32.70    0.93
   1   5  -5   67.39    1.82
   1  -5   5   65.79    1.78
  -1  -5   5   68.49    1.78
   1   5  -6    4.22    0.26
   1  -5   6    4.20    0.22
  -1  -5   6    4.15    0.23
  -1  -5   6    4.43    0.16
   1   5  -7    9.42    0.42
   1  -5   7   10.13    0.39
  -1  -5   7   10.04    0.30
  -1  -5   7    9.89    0.40
   1  -5   8    0.43    0.18
   1  -5   8    0.47    0.12
   1   5  -8    0.42    0.14
  -1  -5   8    0.40    0.12
  -1  -5   8    0.62    0.09
   1  -5   9    1.98    0.29
   1  -5   9    2.11    0.22
  -1  -5   9    2.05    0.23
  -1  -5   9    2.36    0.17
   1  -5  10    5.21    0.33
   1  -5  10    5.29    0.39
  -1  -5  10    5.32    0.24
  -1  -5  10    4.79    0.35
   1  -5  11    0.03    0.21
   1  -5  11    0.19    0.14
  -1  -5  11    0.13    0.11
  -1  -5  11    0.24    0.15
   1  -5  12    1.92    0.26
   1  -5  12    1.94    0.29
  -1  -5  12    1.49    0.20
  -1  -5  12    1.63    0.20
   1  -5  13    1.37    0.29
   1  -5  13    1.91    0.29
  -1  -5  13    1.87    0.22
  -1  -5  13    1.89    0.26
   1  -5  14   -0.03    0.25
   1  -5  14    0.18    0.20
  -1  -5  14    0.13    0.23
  -1  -5  14   -0.18    0.14
   1  -5  15    6.04    0.51
   1  -5  15    5.88    0.48
  -1  -5  15    5.95    0.34
  -1  -5  15    5.43    0.50
   1  -5  16    3.82    0.45
   1  -5  16    3.44    0.50
  -1  -5  16    3.43    0.44
  -1  -5  16    3.55    0.31
   1  -5  17    0.24    0.31
   1  -5  17    0.82    0.34
  -1  -5  17    0.56    0.34
  -1  -5  17    0.50    0.35
   1  -5  18    0.32    0.39
   1  -5  18    0.05    0.34
  -1  -5  18    1.04    0.41
   1  -5  19    0.04    0.40
   1  -5  19    0.76    0.42
  -1  -5  19    0.70    0.50
   2   5  19    2.17    0.49
   2   5  19    2.04    0.53
  -2   5  19    2.08    0.43
  -2   5  19    1.55    0.55
   2   5  18    0.20    0.34
   2   5  18    0.67    0.40
  -2   5  18    0.46    0.46
  -2   5  18    0.48    0.36
   2   5  17    0.53    0.33
   2   5  17    0.41    0.32
  -2   5  17    0.33    0.29
  -2   5  17    0.05    0.41
   2   5  16   -0.04    0.28
   2   5  16    0.00    0.31
  -2   5  16    0.26    0.35
  -2   5  16    0.40    0.36
   2   5  15   13.97    0.65
   2   5  15   13.18    0.70
  -2   5  15   13.76    0.76
  -2   5  15   13.80    0.65
   2   5  14   -0.17    0.25
   2   5  14    0.73    0.29
  -2   5  14    0.43    0.19
  -2   5  14    0.08    0.28
   2   5  13    7.73    0.60
   2   5  13    8.17    0.49
  -2   5  13    9.63    0.59
  -2   5  13    8.09    0.43
   2   5  12    1.58    0.21
   2   5  12    2.01    0.32
  -2   5  12    1.76    0.30
  -2   5  12    1.95    0.25
   2   5  11    1.43    0.27
   2   5  11    1.29    0.17
  -2   5  11    1.32    0.19
  -2   5  11    0.81    0.28
   2   5  10    1.30    0.24
   2   5  10    1.85    0.20
  -2   5  10    1.56    0.26
  -2   5  10    2.02    0.22
   2   5   9    5.76    0.41
   2   5   9    6.17    0.28
  -2   5   9    6.02    0.38
  -2   5   9    6.59    0.32
   2   5   8   16.78    0.52
   2   5   8   16.68    0.67
  -2   5   8   15.92    0.64
  -2   5   8   17.07    0.57
   2   5   7   61.40    1.59
   2   5   7   61.14    1.76
  -2   5   7   60.51    1.72
  -2   5   7   62.46    1.65
  -2  -5  -7   58.83    1.62
   2   5   6   27.53    0.91
   2   5   6   27.72    0.74
  -2  -5  -6   26.15    0.78
  -2   5   6   26.98    0.87
  -2   5   6   28.00    0.82
   2   5   5    3.71    0.15
   2   5   5    3.07    0.27
  -2   5   5    3.56    0.22
  -2   5   5    2.98    0.25
  -2  -5  -5    3.46    0.20
  -2   5   5    3.34    0.15
   2   5   4   13.96    0.39
   2   5   4   13.31    0.53
  -2   5   4   14.34    0.48
  -2  -5  -4   13.77    0.43
  -2   5   4   13.31    0.50
   2   5   3   27.74    0.71
   2   5   3   26.47    0.84
   2   5   3   24.67    0.70
  -2   5   3   26.77    0.82
  -2   5   3   28.46    0.80
   2   5   2    0.08    0.11
   2   5   2   -0.02    0.05
   2   5   2    0.06    0.06
  -2   5   2   -0.14    0.10
  -2   5   2    0.03    0.09
   2  -5  -1    0.22    0.05
   2   5   1    0.23    0.10
   2   5   1    0.30    0.06
  -2   5   1    0.27    0.10
  -2   5   1    0.37    0.10
  -2  -5  -1    0.24    0.06
   2   5   0   -0.02    0.09
   2  -5   0    0.05    0.06
   2  -5   0    0.20    0.13
   2  -5   0   -0.04    0.12
   2   5   0    0.05    0.05
  -2   5   0    0.21    0.10
  -2  -5   0    0.05    0.07
   2   5  -1    0.26    0.06
   2   5  -1    0.25    0.14
   2   5  -1    0.15    0.08
   2  -5   1    0.27    0.13
  -2  -5   1    0.16    0.07
  -2   5  -1    0.11    0.10
   2   5  -2   -0.03    0.07
   2   5  -2   -0.02    0.12
   2   5  -2   -0.08    0.07
   2  -5   2   -0.01    0.11
  -2  -5   2    0.16    0.08
   2   5  -3   26.01    0.70
   2   5  -3   26.82    0.84
   2  -5   3   26.61    0.83
  -2  -5   3   26.62    0.77
   2  -5   4   13.43    0.50
   2   5  -4   12.84    0.50
  -2  -5   4   13.92    0.47
   2  -5   5    3.38    0.24
   2   5  -5    3.32    0.25
  -2  -5   5    3.31    0.23
   2   5  -6   27.00    0.84
   2  -5   6   25.85    0.82
  -2  -5   6   27.05    0.83
   2  -5   7   58.75    1.64
   2   5  -7   59.74    1.67
  -2  -5   7   60.02    1.67
   2   5  -8   16.67    0.61
   2  -5   8   16.14    0.58
  -2  -5   8   16.26    0.61
   2   5  -9    5.79    0.35
   2  -5   9    6.49    0.46
   2  -5   9    6.70    0.35
  -2  -5   9    6.12    0.37
  -2  -5   9    6.67    0.22
   2   5 -10    1.54    0.22
   2  -5  10    1.74    0.29
   2  -5  10    1.73    0.26
  -2  -5  10    1.44    0.21
  -2  -5  10    1.70    0.15
   2  -5  11    1.13    0.19
   2  -5  11    1.38    0.29
  -2  -5  11    1.30    0.17
  -2  -5  11    1.08    0.19
   2  -5  12    2.05    0.27
   2  -5  12    1.41    0.31
  -2  -5  12    1.56    0.19
  -2  -5  12    1.67    0.26
   2  -5  13    6.57    0.56
   2  -5  13    8.15    0.45
  -2  -5  13    8.09    0.51
  -2  -5  13    8.37    0.34
   2  -5  14    0.03    0.20
   2  -5  14    0.11    0.31
  -2  -5  14   -0.07    0.25
  -2  -5  14    0.00    0.14
   2  -5  15   12.81    0.79
   2  -5  15   12.64    0.63
  -2  -5  15   12.55    0.72
  -2  -5  15   13.09    0.47
   2  -5  16    0.47    0.27
   2  -5  16   -0.26    0.42
  -2  -5  16    0.40    0.33
   2  -5  17    0.82    0.30
   2  -5  17    0.90    0.51
  -2  -5  17    0.50    0.40
   2  -5  18    0.53    0.35
   2  -5  18    0.08    0.51
  -2  -5  18    0.80    0.44
   2  -5  19    1.56    0.54
   2  -5  19    2.82    0.48
  -2  -5  19    1.57    0.55
   3   5  19    0.79    0.47
   3   5  19    0.89    0.52
  -3   5  19    0.12    0.42
  -3   5  19    1.10    0.62
   3   5  18   -0.23    0.39
   3   5  18   -0.23    0.44
  -3   5  18    0.86    0.49
  -3   5  18    0.14    0.37
   3   5  17    0.36    0.36
   3   5  17    0.05    0.35
  -3   5  17   -0.08    0.39
  -3   5  17    0.20    0.33
   3   5  16    9.41    0.61
   3   5  16    9.10    0.67
  -3   5  16    9.54    0.68
  -3   5  16   10.07    0.76
   3   5  15    2.08    0.38
   3   5  15    1.98    0.29
  -3   5  15    2.12    0.33
  -3   5  15    1.94    0.39
   3   5  14    0.64    0.32
   3   5  14    0.43    0.26
  -3   5  14    0.06    0.31
  -3   5  14    0.08    0.20
   3   5  13   22.83    0.98
   3   5  13   23.44    0.83
  -3   5  13   22.70    0.81
  -3   5  13   22.72    0.97
   3   5  12    0.62    0.29
   3   5  12    0.49    0.18
  -3   5  12    1.01    0.27
  -3   5  12    0.91    0.20
   3   5  11    0.06    0.14
   3   5  11    0.27    0.28
  -3   5  11    0.28    0.16
  -3   5  11   -0.04    0.23
   3   5  10    4.14    0.45
   3   5  10    4.21    0.26
  -3   5  10    3.55    0.43
  -3   5  10    4.23    0.31
   3   5   9    9.93    0.37
   3   5   9    9.46    0.56
  -3   5   9    9.68    0.42
  -3   5   9    8.85    0.54
   3   5   8    0.17    0.10
   3   5   8    0.17    0.20
  -3   5   8    0.19    0.17
  -3   5   8    0.12    0.12
   3   5   7    6.95    0.45
   3   5   7    6.78    0.27
  -3   5   7    6.74    0.41
  -3   5   7    7.17    0.34
   3   5   6    9.87    0.51
   3   5   6   10.36    0.34
  -3   5   6    9.40    0.46
  -3   5   6    9.39    0.33
  -3  -5  -6    8.92    0.43
  -3   5   6    9.67    0.41
   3   5   5   37.19    1.20
   3   5   5   38.03    1.02
  -3   5   5   37.20    1.16
  -3  -5  -5   37.18    1.08
  -3   5   5   37.90    1.10
  -3  -5  -5   37.34    1.08
   3   5   4   27.00    0.92
   3   5   4   26.78    0.76
   3   5   4   26.89    0.76
  -3   5   4   27.24    0.89
  -3   5   4   26.52    0.83
   3   5   3    4.91    0.33
   3   5   3    4.93    0.24
   3   5   3    5.15    0.23
  -3   5   3    5.33    0.29
  -3   5   3    5.10    0.31
   3   5   2   42.27    1.18
   3   5   2   42.48    1.14
   3   5   2   41.72    1.27
   3   5   2   42.25    1.18
  -3   5   2   43.31    1.23
  -3   5   2   43.86    1.26
   3   5   1    0.00    0.14
   3   5   1   -0.02    0.08
  -3   5   1    0.17    0.12
  -3   5   1    0.09    0.10
  -3  -5  -1    0.10    0.09
   3   5   0  161.16    4.02
   3   5   0  157.52    4.10
   3  -5   0  161.72    4.19
   3  -5   0  162.63    4.19
  -3   5   0  153.59    4.09
  -3  -5   0  157.39    4.03
   3   5  -1    0.09    0.12
   3  -5   1   -0.15    0.12
   3  -5   1   -0.09    0.12
   3   5  -1    0.16    0.10
   3   5  -1    0.36    0.17
  -3  -5   1    0.29    0.10
   3   5  -2   42.04    1.19
   3   5  -2   43.25    1.29
   3  -5   2   42.78    1.29
  -3  -5   2   42.63    1.20
   3  -5   3    4.94    0.32
   3   5  -3    5.01    0.25
   3   5  -3    5.22    0.33
  -3  -5   3    4.91    0.27
   3   5  -4   20.87    0.68
   3   5  -4   26.12    0.83
   3  -5   4   26.58    0.85
  -3  -5   4   25.87    0.79
   3   5  -5   36.26    1.11
   3   5  -5   36.03    0.94
   3  -5   5   37.03    1.13
  -3  -5   5   36.80    1.10
   3   5  -6    9.60    0.43
   3  -5   6    9.65    0.44
  -3  -5   6    9.61    0.44
   3   5  -7    6.70    0.36
   3  -5   7    6.68    0.36
  -3  -5   7    6.46    0.38
   3  -5   8    0.01    0.14
   3   5  -8    0.36    0.15
  -3  -5   8    0.00    0.17
   3  -5   9    9.26    0.58
   3   5  -9    9.23    0.44
   3  -5   9    8.35    0.44
  -3  -5   9    9.28    0.48
   3  -5  10    3.60    0.31
   3   5 -10    3.85    0.33
   3  -5  10    3.47    0.45
  -3  -5  10    4.18    0.33
   3   5 -11   -0.05    0.18
   3  -5  11    0.18    0.29
   3  -5  11   -0.22    0.15
  -3  -5  11    0.17    0.19
   3  -5  12    0.90    0.21
   3  -5  12    0.60    0.31
  -3  -5  12    0.61    0.20
  -3  -5  12    0.68    0.14
   3  -5  13   21.36    0.81
   3  -5  13   22.69    1.00
  -3  -5  13   21.73    0.90
  -3  -5  13   21.59    0.65
   3  -5  14    0.24    0.45
   3  -5  14    0.29    0.21
  -3  -5  14   -0.42    0.26
   3  -5  15    1.90    0.28
   3  -5  15    2.00    0.57
  -3  -5  15    2.17    0.37
   3  -5  16    8.83    0.86
   3  -5  16    8.42    0.58
  -3  -5  16    9.87    0.74
   3  -5  17   -0.45    0.48
   3  -5  17    0.48    0.28
  -3  -5  17    0.56    0.42
   3  -5  18   -0.27    0.32
   3  -5  18    0.48    0.56
  -3  -5  18   -0.29    0.50
   3  -5  19    0.64    0.41
   3  -5  19   -0.89    0.61
  -3  -5  19    0.75    0.58
   4   5  18    0.62    0.50
   4   5  18    0.22    0.45
  -4   5  18    0.02    0.42
   4   5  17    1.88    0.40
   4   5  17    1.63    0.48
  -4   5  17    1.48    0.54
  -4   5  17    1.59    0.46
   4   5  16    2.04    0.47
   4   5  16    1.58    0.34
  -4   5  16    0.99    0.46
  -4   5  16    1.70    0.48
   4   5  15    0.58    0.27
   4   5  15    1.02    0.40
  -4   5  15    1.08    0.36
  -4   5  15    0.56    0.41
   4   5  14    0.93    0.26
   4   5  14    0.77    0.38
  -4   5  14    0.93    0.29
  -4   5  14    0.38    0.36
   4   5  13    0.89    0.34
   4   5  13    0.81    0.27
  -4   5  13    0.89    0.27
  -4   5  13    0.94    0.34
   4   5  12   11.18    0.49
   4   5  12   11.00    0.70
  -4   5  12   10.88    0.56
  -4   5  12   10.79    0.69
   4   5  11    1.29    0.18
   4   5  11    1.35    0.31
  -4   5  11    1.15    0.24
  -4   5  11    1.32    0.30
   4   5  10    0.62    0.35
   4   5  10    0.47    0.14
  -4   5  10    1.10    0.26
  -4   5  10    0.67    0.18
   4   5   9    1.48    0.34
   4   5   9    2.07    0.22
  -4   5   9    1.59    0.29
  -4   5   9    2.37    0.29
   4   5   8    5.57    0.50
   4   5   8    6.08    0.29
  -4   5   8    5.81    0.37
  -4   5   8    5.38    0.45
   4   5   7    3.33    0.23
   4   5   7    3.86    0.41
  -4   5   7    3.68    0.31
  -4   5   7    3.91    0.40
   4   5   6    3.17    0.22
   4   5   6    2.14    0.32
  -4   5   6    2.38    0.27
  -4   5   6    2.77    0.35
   4   5   5    9.20    0.54
   4   5   5    9.93    0.39
  -4   5   5   10.10    0.51
  -4   5   5   10.66    0.46
   4   5   4    6.22    0.45
   4   5   4    7.75    0.35
  -4   5   4    7.43    0.38
  -4   5   4    7.98    0.43
   4   5   3    2.24    0.24
   4   5   3    2.45    0.31
  -4   5   3    2.48    0.25
  -4   5   3    2.47    0.27
   4   5   2    1.61    0.26
   4   5   2    1.63    0.23
   4   5   2    1.82    0.24
  -4   5   2    1.27    0.21
  -4   5   2    1.34    0.20
   4   5   1   26.69    0.93
  -4   5   1   26.65    0.89
  -4  -5  -1   26.40    0.81
   4   5   0    0.24    0.18
   4  -5   0   -0.17    0.17
   4  -5   0    0.24    0.18
  -4  -5   0    0.16    0.11
   4   5  -1   26.78    0.95
   4  -5   1   26.80    0.95
   4   5  -1   25.63    0.87
   4  -5   1   26.16    0.95
  -4  -5   1   26.83    0.84
   4   5  -2    1.49    0.24
   4  -5   2    1.19    0.23
  -4  -5   2    1.62    0.21
   4   5  -3    1.99    0.27
   4  -5   3    2.03    0.29
  -4  -5   3    2.00    0.24
   4   5  -4    7.07    0.41
   4  -5   4    6.89    0.41
  -4  -5   4    7.34    0.39
   4   5  -5   10.00    0.48
   4  -5   5   10.06    0.49
  -4  -5   5    9.47    0.47
   4   5  -6    3.39    0.30
   4  -5   6    2.49    0.30
  -4  -5   6    2.26    0.30
   4  -5   7    3.36    0.35
   4   5  -7    2.96    0.29
  -4  -5   7    3.64    0.38
   4   5  -8    5.06    0.35
   4  -5   8    5.85    0.42
  -4  -5   8    5.09    0.40
   4   5  -9    2.16    0.29
   4  -5   9    2.49    0.31
  -4  -5   9    2.14    0.27
   4  -5  10    0.37    0.20
   4   5 -10    0.42    0.20
   4  -5  10    0.28    0.30
  -4  -5  10    0.67    0.20
   4  -5  11    1.47    0.41
   4  -5  11    0.73    0.22
   4   5 -11    0.72    0.24
  -4  -5  11    0.88    0.24
   4   5 -12    9.79    0.59
   4  -5  12    9.83    0.53
   4  -5  12    9.03    0.89
  -4  -5  12   10.10    0.61
   4  -5  13    1.13    0.26
   4  -5  13    0.36    0.46
  -4  -5  13    0.77    0.29
   4  -5  14    0.80    0.44
   4  -5  14    0.63    0.25
  -4  -5  14    1.69    0.36
   4  -5  15    0.75    0.26
   4  -5  15    0.23    0.46
  -4  -5  15    1.04    0.38
   4  -5  16    1.71    0.30
   4  -5  16    2.39    0.57
  -4  -5  16    1.53    0.47
   4  -5  17    1.85    0.57
   4  -5  17    2.20    0.37
  -4  -5  17    1.41    0.50
   4  -5  18   -0.28    0.36
   4  -5  18   -0.68    0.63
  -4  -5  18    0.19    0.58
   5   5  17    0.19    0.42
   5   5  17    0.05    0.52
  -5   5  17    0.29    0.48
  -5   5  17    0.60    0.60
   5   5  16    1.63    0.52
   5   5  16    2.64    0.40
  -5   5  16    3.39    0.58
  -5   5  16    1.62    0.48
   5   5  15    1.39    0.32
   5   5  15    0.61    0.46
  -5   5  15    0.35    0.45
  -5   5  15    1.09    0.52
   5   5  14    1.97    0.29
   5   5  14    1.90    0.44
  -5   5  14    1.62    0.43
  -5   5  14    2.22    0.45
   5   5  13    0.75    0.41
   5   5  13    0.78    0.25
  -5   5  13    0.43    0.32
  -5   5  13    0.09    0.38
   5   5  12   14.49    0.63
   5   5  12   14.51    0.83
  -5   5  12   12.90    0.69
  -5   5  12   12.30    0.80
   5   5  11    4.59    0.54
   5   5  11    4.96    0.34
  -5   5  11    3.99    0.54
  -5   5  11    4.60    0.45
   5   5  10    1.92    0.36
   5   5  10    1.57    0.20
  -5   5  10    0.99    0.29
  -5   5  10    1.98    0.29
   5   5   9    0.14    0.14
   5   5   9    0.31    0.32
  -5   5   9    0.07    0.20
  -5   5   9    0.41    0.27
   5   5   8   -0.28    0.32
   5   5   8    0.06    0.14
  -5   5   8   -0.01    0.23
  -5   5   8    0.38    0.20
   5   5   7    7.68    0.38
   5   5   7    7.47    0.59
  -5   5   7    7.80    0.44
  -5   5   7    7.14    0.50
   5   5   6    2.74    0.27
   5   5   6    2.51    0.39
  -5   5   6    2.38    0.30
  -5   5   6    2.00    0.30
   5   5   5    6.40    0.50
   5   5   5    4.49    0.33
  -5   5   5    5.28    0.37
  -5   5   5    5.68    0.44
   5   5   4    0.36    0.24
   5   5   4    0.27    0.16
  -5   5   4    0.23    0.17
  -5   5   4    0.35    0.22
   5   5   3    1.12    0.20
   5   5   3    1.40    0.28
   5  -5  -3    1.15    0.14
  -5   5   3    0.98    0.23
   5   5   2    0.66    0.20
   5   5   2    0.57    0.23
  -5   5   2    0.57    0.21
   5   5   1    2.75    0.36
  -5   5   1    2.42    0.29
  -5  -5  -1    2.34    0.26
   5  -5   0    5.95    0.48
   5  -5   0    5.42    0.48
   5   5   0    5.31    0.40
  -5  -5   0    5.62    0.35
   5  -5   1    3.06    0.39
   5  -5   1    2.99    0.37
   5   5  -1    1.84    0.29
  -5  -5   1    2.37    0.28
   5  -5   2    0.51    0.23
   5   5  -2    0.30    0.22
  -5  -5   2    0.16    0.16
   5   5  -3    0.98    0.23
   5  -5   3    0.89    0.26
  -5  -5   3    0.97    0.20
   5   5  -4   -0.04    0.19
   5  -5   4    0.51    0.22
  -5  -5   4    0.24    0.18
   5   5  -5    4.63    0.39
   5  -5   5    4.70    0.44
  -5  -5   5    4.90    0.41
   5  -5   6    2.29    0.30
   5   5  -6    2.27    0.32
  -5  -5   6    2.02    0.33
   5  -5   7    7.58    0.49
   5   5  -7    7.78    0.45
  -5  -5   7    7.37    0.50
   5  -5   8    0.24    0.21
   5   5  -8    0.16    0.20
  -5  -5   8   -0.01    0.22
   5   5  -9    0.22    0.21
   5  -5   9    0.07    0.21
  -5  -5   9    0.54    0.25
   5  -5  10    1.59    0.26
   5  -5  10    1.59    0.47
   5   5 -10    1.44    0.27
  -5  -5  10    1.41    0.30
   5  -5  11    5.02    0.68
   5   5 -11    4.96    0.46
   5  -5  11    4.43    0.47
  -5  -5  11    5.03    0.46
   5  -5  12   12.76    0.93
   5  -5  12   13.58    0.65
   5   5 -12   14.11    0.76
  -5  -5  12   14.25    0.78
   5  -5  13    0.30    0.25
   5  -5  13   -0.06    0.44
   5   5 -13    0.49    0.42
  -5  -5  13   -0.17    0.33
   5  -5  14    0.73    0.50
   5  -5  14    1.97    0.32
  -5  -5  14    1.92    0.43
   5  -5  15    1.07    0.29
   5  -5  15    0.60    0.50
  -5  -5  15    0.64    0.44
   5  -5  16    1.89    0.35
   5  -5  16    2.26    0.59
  -5  -5  16    1.82    0.53
   5  -5  17   -0.16    0.34
   5  -5  17    0.53    0.62
  -5  -5  17   -0.17    0.58
   6   5  16   -0.19    0.55
  -6   5  16   -0.76    0.58
  -6   5  16    0.73    0.53
   6   5  15    1.14    0.54
   6   5  15   -0.21    0.35
  -6   5  15    1.55    0.51
  -6   5  15    0.53    0.52
   6   5  14    0.87    0.48
   6   5  14   -0.12    0.30
  -6   5  14   -0.19    0.48
  -6   5  14    0.00    0.47
   6   5  13    0.59    0.27
   6   5  13    0.88    0.44
  -6   5  13    0.75    0.43
  -6   5  13    0.37    0.48
   6   5  12    0.76    0.42
   6   5  12    0.72    0.27
  -6   5  12    1.11    0.42
  -6   5  12    0.87    0.40
   6   5  11    2.08    0.34
   6   5  11    2.59    0.49
  -6   5  11    1.79    0.45
  -6   5  11    2.44    0.42
   6   5  10   12.98    0.81
   6   5  10   13.13    0.59
  -6   5  10   11.25    0.67
  -6   5  10   11.58    0.77
   6   5   9    1.09    0.21
   6   5   9    1.12    0.40
  -6   5   9    1.84    0.32
  -6   5   9    0.85    0.32
   6   5   8    0.64    0.20
   6   5   8    0.50    0.34
  -6   5   8    0.87    0.27
  -6   5   8    0.83    0.28
   6   5   7   14.45    0.59
   6   5   7   12.89    0.81
  -6   5   7   12.50    0.63
  -6   5   7   12.74    0.68
   6   5   6    4.09    0.39
   6   5   6    4.55    0.65
  -6   5   6    5.40    0.47
   6   5   5   13.28    0.80
   6   5   5   12.63    0.59
   6  -5  -5   12.20    0.40
  -6   5   5   11.68    0.64
   6   5   4   -0.05    0.26
   6   5   4    0.06    0.20
   6  -5  -4    0.07    0.14
  -6   5   4    0.34    0.23
   6   5   3    1.31    0.31
   6   5   3    1.13    0.23
   6  -5  -3    1.22    0.20
  -6   5   3    1.13    0.24
   6   5   2    0.33    0.22
   6   5   2    0.11    0.23
   6   5   2   -0.22    0.25
  -6   5   2    0.14    0.19
   6  -5  -1   -0.49    0.27
   6   5   1   -0.12    0.25
   6  -5  -1   -0.01    0.27
  -6   5   1    0.00    0.20
  -6  -5  -1    0.04    0.18
   6   5   0    0.10    0.24
   6  -5   0   -0.42    0.25
   6  -5   0    0.28    0.26
  -6  -5   0    0.14    0.18
   6  -5   1    0.24    0.26
   6  -5   1    0.31    0.28
   6   5  -1   -0.24    0.25
  -6  -5   1   -0.05    0.18
   6  -5   2   -0.16    0.24
   6   5  -2    0.44    0.28
  -6  -5   2    0.29    0.19
   6   5  -3    0.87    0.27
   6  -5   3    0.62    0.29
  -6  -5   3    1.15    0.27
   6   5  -4    0.34    0.24
   6  -5   4    0.49    0.23
  -6  -5   4    0.31    0.29
   6  -5   5   12.39    0.68
   6   5  -5   13.49    0.65
  -6  -5   5   13.04    0.67
   6  -5   6    6.23    0.51
   6   5  -6    5.48    0.45
  -6  -5   6    4.29    0.46
   6  -5   7   12.88    0.70
   6   5  -7   13.21    0.64
  -6  -5   7   12.97    0.68
   6   5  -8    0.64    0.25
   6  -5   8    0.71    0.28
  -6  -5   8    0.03    0.26
   6   5  -9    1.61    0.29
   6  -5   9    1.03    0.29
  -6  -5   9    1.44    0.33
   6  -5  10   12.00    0.83
   6   5 -10   12.66    0.65
   6  -5  10   11.41    0.68
  -6  -5  10   11.49    0.72
   6  -5  11    1.84    0.32
   6   5 -11    1.83    0.38
   6  -5  11    1.16    0.46
  -6  -5  11    1.92    0.37
   6   5 -12    1.24    0.44
   6  -5  12    0.95    0.30
   6  -5  12    0.36    0.48
  -6  -5  12    1.56    0.42
   6   5 -13   -0.25    0.36
   6  -5  13    0.41    0.26
   6  -5  13    0.45    0.48
  -6  -5  13    0.81    0.41
   6  -5  14    0.06    0.28
   6  -5  14    0.03    0.53
  -6  -5  14    0.50    0.46
   6  -5  15    0.27    0.57
   6  -5  15   -0.35    0.32
  -6  -5  15    0.27    0.53
   6  -5  16    0.11    0.37
   6  -5  16    0.87    0.63
  -6  -5  16    1.32    0.59
   7   5  15    0.71    0.64
  -7   5  15   -0.47    0.60
   7   5  14    0.42    0.56
  -7   5  14    0.45    0.54
  -7   5  14    0.43    0.60
   7   5  13   -0.60    0.33
   7   5  13   -0.07    0.49
  -7   5  13    0.35    0.50
  -7   5  13    0.36    0.50
   7   5  12    0.28    0.29
   7   5  12    0.19    0.49
  -7   5  12    0.39    0.46
  -7   5  12    0.73    0.47
   7   5  11    0.44    0.27
   7   5  11    0.33    0.46
  -7   5  11    1.14    0.45
  -7   5  11    0.36    0.45
   7   5  10    1.58    0.48
   7   5  10    1.21    0.30
  -7   5  10    0.87    0.43
   7   5   9    2.12    0.36
   7   5   9    2.03    0.47
  -7   5   9    1.91    0.39
   7   5   8   -0.06    0.39
   7   5   8    0.33    0.33
  -7   5   8    0.83    0.34
   7   5   7    2.11    0.42
   7   5   7    3.05    0.38
  -7   5   7    2.31    0.37
   7   5   6    6.31    0.68
   7   5   6    6.77    0.58
  -7   5   6    6.42    0.57
   7   5   5    0.19    0.40
   7   5   5   -0.10    0.28
   7  -5  -5    0.08    0.17
  -7   5   5   -0.04    0.28
   7   5   4    1.64    0.35
   7   5   4    1.53    0.45
   7  -5  -4    2.12    0.24
  -7   5   4    2.17    0.34
   7   5   3    6.05    0.70
   7  -5  -3    5.08    0.40
   7   5   3    4.94    0.60
  -7   5   3    5.81    0.48
   7   5   2   18.70    0.99
   7   5   2   20.64    0.97
   7   5   2   22.53    0.99
  -7   5   2   21.46    0.90
   7   5   1    1.10    0.35
   7  -5  -1    0.55    0.36
   7   5   1    0.96    0.41
   7  -5  -1    0.23    0.36
   7   5   1    1.04    0.39
  -7  -5  -1    1.45    0.32
   7  -5   0   30.53    1.25
   7   5   0   29.10    1.18
   7  -5   0   30.27    1.25
  -7  -5   0   27.55    1.11
   7  -5   1    0.72    0.34
   7   5  -1    0.92    0.35
   7  -5   1    0.84    0.33
  -7  -5   1    0.86    0.35
   7  -5   2   21.28    0.99
   7   5  -2   20.65    0.96
  -7  -5   2   21.12    0.89
   7  -5   3    6.44    0.58
   7   5  -3    6.03    0.55
  -7  -5   3    5.53    0.54
   7   5  -4    2.29    0.37
   7  -5   4    1.73    0.36
  -7  -5   4    2.00    0.34
   7  -5   5    0.53    0.33
   7   5  -5    0.15    0.29
  -7  -5   5    0.20    0.27
   7  -5   6    7.57    0.64
   7   5  -6    7.28    0.53
  -7  -5   6    6.03    0.60
   7   5  -7    1.95    0.35
   7  -5   7    2.12    0.41
  -7  -5   7    1.92    0.36
   7  -5   8    0.99    0.34
   7   5  -8   -0.13    0.29
  -7  -5   8    0.02    0.32
   7  -5   9    1.55    0.33
   7   5  -9    1.61    0.36
  -7  -5   9    1.83    0.41
   7   5 -10    1.24    0.43
   7  -5  10    0.79    0.45
   7  -5  10    0.78    0.32
  -7  -5  10    0.84    0.37
   7   5 -11    0.52    0.47
   7  -5  11    0.07    0.32
   7  -5  11    1.10    0.47
  -7  -5  11    1.02    0.41
   7   5 -12    0.00    0.40
   7  -5  12    0.49    0.34
   7  -5  12    0.39    0.52
  -7  -5  12    0.03    0.44
   7  -5  13   -0.31    0.58
   7   5 -13   -0.02    0.43
   7  -5  13    0.41    0.33
  -7  -5  13    0.74    0.48
   7  -5  14   -0.68    0.56
   7  -5  14   -0.31    0.36
  -7  -5  14   -1.26    0.54
   7  -5  15   -1.12    0.63
   7  -5  15    1.43    0.43
  -7  -5  15    0.06    0.60
   8   5  13    1.04    0.65
  -8   5  13    1.83    0.71
   8   5  12   -0.05    0.58
  -8   5  12    0.13    0.58
   8   5  11    0.37    0.57
   8   5  11    0.70    0.39
  -8   5  11    1.53    0.55
   8   5  10   -0.42    0.33
   8   5  10   -0.02    0.53
  -8   5  10    0.12    0.45
   8   5   9    1.73    0.56
   8   5   9    1.19    0.35
   8   5   8   -0.34    0.33
   8   5   8   -0.24    0.46
  -8   5   8   -0.16    0.40
   8   5   7    0.06    0.47
   8   5   7   -0.32    0.31
  -8   5   7    0.89    0.38
   8   5   6    0.50    0.32
   8   5   6    0.29    0.45
  -8   5   6    0.16    0.35
   8   5   5    2.62    0.53
   8   5   5    2.22    0.40
  -8   5   5    2.02    0.42
   8   5   4    1.15    0.36
   8   5   4    0.33    0.47
  -8   5   4    0.56    0.33
   8   5   3    0.27    0.43
   8  -5  -3    0.33    0.30
   8   5   3    0.37    0.34
  -8   5   3    1.19    0.31
   8   5   2   18.60    1.05
   8   5   2   18.94    0.93
   8  -5  -2   18.93    1.09
   8   5   2   18.95    0.93
   8  -5  -2   18.30    1.09
   8  -5  -2   19.21    0.81
   8  -5  -1    0.14    0.44
   8  -5  -1   -0.64    0.40
   8   5   1   -0.08    0.42
   8   5   1    0.51    0.37
   8   5   1   -0.52    0.33
   8  -5   0    0.33    0.43
   8   5   0    0.83    0.54
   8  -5   0   -0.85    0.39
  -8  -5   0   -0.14    0.29
   8  -5   1    0.46    0.39
   8   5  -1    0.81    0.50
   8  -5   1    0.29    0.37
   8   5  -1   -0.33    0.44
  -8  -5   1    0.30    0.31
   8  -5   2   17.98    1.04
   8   5  -2   19.21    1.12
  -8  -5   2   20.21    0.90
   8   5  -3    0.69    0.47
   8  -5   3    0.85    0.39
  -8  -5   3    0.85    0.34
   8  -5   4    1.76    0.42
   8   5  -4    1.46    0.47
  -8  -5   4    1.65    0.36
   8  -5   5    1.91    0.45
   8   5  -5    2.09    0.48
  -8  -5   5    2.32    0.40
   8  -5   6   -0.01    0.36
   8   5  -6   -0.03    0.40
  -8  -5   6    0.34    0.33
   8  -5   7   -0.83    0.34
   8   5  -7   -0.19    0.39
  -8  -5   7   -0.32    0.37
   8   5  -8   -0.01    0.50
   8  -5   8    0.62    0.37
  -8  -5   8   -0.64    0.37
   8  -5   9    2.46    0.43
   8   5  -9    2.11    0.48
  -8  -5   9    1.23    0.44
   8  -5  10    0.24    0.52
   8  -5  10   -0.15    0.38
   8   5 -10    0.46    0.42
  -8  -5  10   -0.08    0.41
   8   5 -11    1.08    0.44
   8  -5  11    0.91    0.55
   8  -5  11    0.65    0.40
  -8  -5  11    1.14    0.46
   8  -5  12   -0.03    0.43
   8   5 -12    0.67    0.51
   8  -5  12   -0.41    0.55
  -8  -5  12    0.46    0.54
   8  -5  13   -0.05    0.58
   8  -5  13    0.39    0.43
  -8  -5  13    0.48    0.64
   9   5  10   -0.25    0.63
  -9   5  10    0.61    0.63
   9   5   9    0.82    0.60
   9   5   9    0.22    0.42
  -9   5   9    1.61    0.62
   9   5   8    0.64    0.61
   9   5   8    1.17    0.44
  -9   5   8    1.15    0.50
   9   5   7    3.37    0.67
   9   5   7    3.61    0.52
  -9   5   7    4.24    0.63
   9   5   6    3.98    0.51
   9   5   6    2.99    0.63
  -9   5   6    4.27    0.59
   9   5   5   -0.83    0.38
   9   5   5    0.43    0.51
  -9   5   5    1.19    0.49
   9   5   4    0.56    0.51
   9   5   4   -0.41    0.40
  -9   5   4    0.67    0.43
   9  -5  -3    1.22    0.52
   9   5   3    0.18    0.50
   9   5   3    0.28    0.38
   9  -5  -3    0.73    0.52
  -9   5   3   -0.04    0.38
   9   5   2    3.46    0.58
   9  -5  -2    3.37    0.61
   9  -5  -2    3.60    0.61
   9   5   2    2.87    0.50
   9   5   2    3.90    0.51
   9  -5  -1   -0.04    0.48
   9   5   1    0.69    0.41
   9  -5  -1    0.23    0.51
   9   5   1   -0.08    0.42
   9   5   1    0.45    0.47
   9  -5   0    3.17    0.59
   9  -5   0    2.64    0.55
   9   5   0    3.23    0.56
   9   5   0    2.58    0.50
   9   5   0    2.95    0.49
   9   5   0    2.41    0.52
   9  -5   1    0.75    0.47
   9   5  -1   -0.16    0.47
   9   5  -1   -0.24    0.45
  -9  -5   1    0.10    0.41
   9   5  -2    3.51    0.61
   9  -5   2    3.62    0.58
   9   5  -2    3.93    0.57
  -9  -5   2    3.22    0.49
   9   5  -3    0.59    0.52
   9  -5   3   -0.38    0.41
   9   5  -3    0.50    0.47
  -9  -5   3    0.63    0.40
   9  -5   4    0.42    0.46
   9   5  -4    0.45    0.43
  -9  -5   4    0.06    0.41
   9   5  -5   -0.14    0.43
   9  -5   5   -0.61    0.44
  -9  -5   5   -0.12    0.40
   9   5  -6    3.23    0.53
   9  -5   6    3.79    0.55
  -9  -5   6    5.85    0.75
   9  -5   7    3.68    0.55
   9   5  -7    2.79    0.51
  -9  -5   7    5.22    0.76
   9   5  -8    0.34    0.47
   9  -5   8    0.67    0.49
  -9  -5   8    0.87    0.51
   9   5  -9    0.50    0.50
   9  -5   9    0.46    0.51
  -9  -5   9    0.26    0.54
   9   5 -10   -0.08    0.68
   9  -5  10   -0.16    0.58
   9  -5  10    0.65    0.52
  -9  -5  10   -0.26    0.61
  10   5   6    0.16    0.58
  10   5   6    0.32    0.57
 -10   5   6    1.00    0.60
  10   5   5    0.14    0.56
  10   5   5    1.28    0.59
 -10   5   5    0.68    0.60
  10   5   4    1.44    0.59
  10  -5  -4    0.52    0.69
  10  -5  -4    1.18    0.71
  10   5   4    1.66    0.58
  10   5   3    0.02    0.60
  10  -5  -3    0.34    0.63
  10  -5  -3    1.21    0.65
  10   5   3    1.04    0.53
  10   5   2    0.67    0.53
  10  -5  -2   -0.19    0.63
  10  -5  -2   -0.13    0.61
  10   5   2   -0.66    0.52
  10   5   1   -0.60    0.52
  10   5   1    0.22    0.56
  10   5   1    0.29    0.54
  10   5   1    0.17    0.56
  10  -5  -1    0.34    0.55
  10  -5  -1   -1.11    0.53
  10   5   0    0.18    0.55
  10   5   0    0.07    0.53
  10  -5   0    0.59    0.54
  10   5   0   -0.11    0.54
  10  -5   0    0.89    0.55
  10   5   0    0.47    0.53
  10   5  -1   -1.32    0.55
  10   5  -1   -0.99    0.52
  10  -5   1    0.29    0.54
  10   5  -1    0.17    0.56
  10   5  -1   -0.06    0.53
  10   5  -2   -0.30    0.56
  10   5  -2   -0.68    0.53
  10  -5   2   -0.36    0.54
 -10  -5   2    0.79    0.53
  10   5  -3   -0.14    0.57
  10  -5   3    0.72    0.52
  10   5  -3    1.08    0.53
 -10  -5   3    0.17    0.52
  10   5  -4    1.19    0.60
  10   5  -4    0.79    0.54
  10  -5   4   -0.40    0.63
 -10  -5   4    1.02    0.55
  10   5  -5    1.02    0.65
  10  -5   5    2.65    0.68
  10   5  -5    2.40    0.59
 -10  -5   5    2.98    0.60
  10  -5   6    0.67    0.63
  10   5  -6    0.20    0.57
 -10  -5   6   -0.40    0.56
 -10  -5   7    0.45    0.67
   0   6  19   -0.10    0.48
   0   6  19    0.56    0.37
   0   6  18    0.23    0.34
   0   6  18    1.02    0.40
   0   6  17    0.08    0.26
   0   6  17   -0.29    0.34
   0   6  16   27.01    1.05
   0   6  16   27.12    0.98
   0   6  15    5.02    0.44
   0   6  15    4.90    0.47
   0   6  14   23.42    0.87
   0   6  14   24.12    0.93
   0   6  13    0.25    0.18
   0   6  13    0.27    0.28
   0   6  12    3.12    0.28
   0   6  12    3.37    0.36
   0   6  11    0.12    0.16
   0   6  11    0.03    0.13
   0   6  10   30.26    0.95
   0   6  10   30.46    0.94
   0   6   9   18.63    0.64
   0   6   9   18.63    0.63
   0   6   8   10.27    0.41
   0   6   8   10.20    0.41
   0   6   7  127.75    3.29
   0   6   7  128.24    3.30
   0   6   6    4.43    0.23
   0   6   6    4.65    0.24
   0  -6  -6    4.01    0.21
   0  -6  -5    0.81    0.12
   0   6   5    0.72    0.11
   0   6   5    0.75    0.11
   0   6   4  436.94   11.03
   0   6   4  449.01   11.01
   0  -6  -4  446.16   11.00
   0   6   3  194.86    4.80
   0  -6  -3  192.17    4.79
   0   6   3  189.24    4.82
   0   6   2  512.30   12.94
   0  -6  -2  532.51   12.92
   0   6   1   74.42    1.92
   0  -6  -1   72.06    1.86
   0   6   1   71.11    1.86
   0  -6   0   41.28    1.11
   0   6   0   42.42    1.11
   0   6   0   42.44    1.12
   0   6   0   41.96    1.16
   0   6  -1   71.50    1.86
   0  -6   1   70.68    1.85
   0   6  -1   73.45    1.90
   0   6  -1   72.24    1.84
   0  -6   2  488.28   12.66
   0   6  -2  514.28   12.71
   0   6  -2  528.88   12.69
   0   6  -2  513.85   12.65
   0   6  -3  190.37    4.75
   0   6  -3  189.22    4.68
   0  -6   3  181.11    4.70
   0   6  -3  188.11    4.72
   0   6  -4  445.81   10.84
   0  -6   4  422.75   10.79
   0  -6   5    0.61    0.10
   0   6  -5    0.61    0.12
   0  -6   6    4.22    0.23
   0   6  -6    4.01    0.25
   0  -6   7  121.83    3.13
   0  -6   7  120.42    3.13
   0  -6   8    9.70    0.39
   0  -6   8    9.50    0.40
   0  -6   9   17.03    0.61
   0  -6   9   17.44    0.61
   0  -6  10   29.08    0.87
   0  -6  10   25.38    0.87
   0  -6  11    0.17    0.13
   0  -6  11   -0.04    0.18
   0  -6  12    3.33    0.32
   0  -6  12    2.94    0.29
   0  -6  13    0.41    0.21
   0  -6  13    0.01    0.17
   0  -6  14   22.29    0.87
   0  -6  14   22.47    0.79
   0  -6  15    4.80    0.46
   0  -6  15    4.41    0.40
   0  -6  16   28.61    1.07
   0  -6  16   26.07    0.90
   0  -6  17    0.08    0.31
   0  -6  17    0.13    0.22
   0  -6  18    0.35    0.37
   0  -6  19    0.37    0.46
   1   6  19   -0.09    0.38
   1   6  19    0.16    0.48
  -1   6  19   -0.47    0.47
  -1   6  19    0.10    0.39
   1   6  18    0.12    0.39
   1   6  18    0.77    0.32
  -1   6  18    0.72    0.36
  -1   6  18    0.47    0.45
   1   6  17   -0.47    0.27
   1   6  17    0.19    0.33
  -1   6  17    0.13    0.28
  -1   6  17   -0.04    0.37
   1   6  16    3.44    0.46
   1   6  16    4.01    0.51
  -1   6  16    4.21    0.55
  -1   6  16    3.56    0.44
   1   6  15    0.73    0.27
   1   6  15    0.82    0.28
  -1   6  15    0.53    0.31
  -1   6  15    1.41    0.33
   1   6  14    0.57    0.26
   1   6  14    0.44    0.28
  -1   6  14    0.83    0.22
  -1   6  14    0.98    0.28
   1   6  13    4.07    0.42
   1   6  13    4.16    0.41
  -1   6  13    4.10    0.45
  -1   6  13    3.79    0.30
   1   6  12    1.33    0.23
   1   6  12    0.79    0.20
  -1   6  12    1.80    0.32
  -1   6  12    1.32    0.19
   1   6  11    5.27    0.36
   1   6  11    5.03    0.32
  -1   6  11    5.41    0.31
  -1   6  11    5.70    0.40
   1   6  10    8.43    0.39
   1   6  10    9.30    0.44
  -1   6  10    8.58    0.44
  -1   6  10    8.50    0.38
   1   6   9    6.80    0.37
   1   6   9    6.34    0.31
  -1   6   9    6.27    0.37
  -1   6   9    6.75    0.31
   1   6   8    1.65    0.18
   1   6   8    1.60    0.23
  -1   6   8    1.94    0.23
  -1   6   8    2.04    0.18
   1   6   7   47.87    1.37
   1   6   7   47.93    1.28
  -1  -6  -7   45.50    1.26
  -1   6   7   48.19    1.36
  -1   6   7   49.29    1.32
   1   6   6    3.72    0.25
   1   6   6    3.52    0.18
  -1  -6  -6    3.57    0.16
  -1   6   6    3.79    0.22
  -1   6   6    3.70    0.24
   1   6   5   42.46    1.11
   1   6   5   41.59    1.20
  -1   6   5   43.64    1.20
  -1   6   5   43.05    1.17
  -1  -6  -5   41.84    1.09
   1   6   4   91.90    2.30
   1  -6  -4   89.00    2.37
   1   6   4   92.35    2.40
  -1   6   4   93.15    2.39
  -1   6   4   92.77    2.37
  -1  -6  -4   90.91    2.29
   1  -6  -3  113.12    2.95
   1   6   3  115.41    2.96
  -1   6   3  117.03    2.96
  -1   6   3  114.96    2.94
   1  -6  -2   48.67    1.31
   1   6   2   48.09    1.30
  -1   6   2   49.42    1.28
  -1   6   2   48.58    1.31
  -1   6   2   48.09    1.30
   1  -6  -1   55.36    1.48
   1   6   1   48.87    1.41
   1  -6  -1   54.58    1.48
   1   6   1   56.27    1.37
   1  -6  -1   53.56    1.43
   1  -6  -1   55.14    1.45
  -1   6   1   55.08    1.44
  -1  -6  -1   53.62    1.35
  -1   6   1   55.94    1.41
   1   6   0   -0.20    0.11
   1  -6   0   -0.10    0.09
   1   6   0   -0.03    0.05
  -1   6   0    0.05    0.07
  -1   6   0   -0.05    0.10
  -1   6   0    0.07    0.10
  -1   6   0    0.04    0.08
   1  -6   1   54.65    1.47
   1   6  -1   55.59    1.39
   1   6  -1   54.82    1.50
   1   6  -1   56.77    1.38
  -1   6  -1   55.92    1.42
  -1  -6   1   53.30    1.38
  -1   6  -1   47.22    1.42
  -1   6  -1   53.61    1.48
   1   6  -2   48.17    1.19
   1   6  -2   47.63    1.32
   1  -6   2   46.92    1.29
   1   6  -2   49.00    1.22
  -1  -6   2   46.33    1.19
  -1   6  -2   43.11    1.25
  -1  -6   2   47.87    1.22
  -1   6  -2   45.98    1.30
  -1   6  -2   44.53    1.25
   1   6  -3  114.95    2.81
   1   6  -3  112.76    2.87
   1   6  -3  115.49    2.95
   1  -6   3  112.54    2.92
  -1  -6   3  111.63    2.87
  -1  -6   3  110.43    2.81
  -1   6  -3  113.10    2.91
   1   6  -4   91.10    2.40
   1  -6   4   90.83    2.36
  -1  -6   4   89.22    2.33
   1  -6   5   41.96    1.16
   1   6  -5   40.72    1.19
  -1  -6   5   41.25    1.14
   1  -6   6    3.14    0.21
   1   6  -6    3.61    0.24
  -1  -6   6    3.36    0.22
   1   6  -7   45.72    1.34
   1  -6   7   46.74    1.30
  -1  -6   7   46.26    1.30
  -1  -6   7   46.59    1.19
   1  -6   8    1.50    0.23
   1   6  -8    1.25    0.20
   1  -6   8    1.29    0.19
  -1  -6   8    1.36    0.18
  -1  -6   8    1.56    0.14
   1  -6   9    5.75    0.40
   1  -6   9    6.44    0.33
  -1  -6   9    6.52    0.36
  -1  -6   9    6.60    0.25
   1  -6  10    8.76    0.40
   1  -6  10    8.49    0.48
  -1  -6  10    8.55    0.31
  -1  -6  10    8.19    0.42
   1  -6  11    5.23    0.33
   1  -6  11    5.69    0.43
  -1  -6  11    5.20    0.35
  -1  -6  11    5.33    0.25
   1  -6  12    0.92    0.19
   1  -6  12    1.20    0.28
  -1  -6  12    1.50    0.20
  -1  -6  12    0.92    0.20
   1  -6  13    3.53    0.34
   1  -6  13    3.58    0.44
  -1  -6  13    3.98    0.36
  -1  -6  13    3.65    0.26
   1  -6  14    0.81    0.21
   1  -6  14    0.70    0.27
  -1  -6  14    0.49    0.15
  -1  -6  14    0.54    0.23
   1  -6  15    0.99    0.25
   1  -6  15    0.59    0.30
  -1  -6  15    0.24    0.27
  -1  -6  15    0.49    0.16
   1  -6  16    3.71    0.47
   1  -6  16    4.26    0.54
  -1  -6  16    4.19    0.31
  -1  -6  16    4.01    0.48
   1  -6  17    0.25    0.31
   1  -6  17   -0.47    0.33
  -1  -6  17   -0.18    0.34
   1  -6  18    0.94    0.37
   1  -6  18    0.48    0.38
  -1  -6  18    0.62    0.42
   1  -6  19    0.13    0.45
   1  -6  19   -0.25    0.68
  -1  -6  19   -0.23    0.48
   2   6  19    4.75    0.70
   2   6  19    4.29    0.58
  -2   6  19    4.47    0.66
  -2   6  19    4.14    0.51
   2   6  18    1.85    0.44
   2   6  18    0.89    0.41
  -2   6  18    0.77    0.49
  -2   6  18    1.14    0.37
   2   6  17    1.74    0.39
   2   6  17    1.52    0.38
  -2   6  17    2.18    0.45
  -2   6  17    2.23    0.38
   2   6  16    2.36    0.33
   2   6  16    1.50    0.34
  -2   6  16    2.18    0.42
  -2   6  16    2.04    0.36
   2   6  15    0.11    0.26
   2   6  15    0.57    0.28
  -2   6  15   -0.15    0.32
  -2   6  15   -0.17    0.31
   2   6  14    0.07    0.31
   2   6  14    0.45    0.28
  -2   6  14    0.15    0.23
  -2   6  14    0.58    0.29
   2   6  13    4.21    0.49
   2   6  13    3.64    0.39
  -2   6  13    3.13    0.32
  -2   6  13    4.17    0.48
   2   6  12    0.47    0.26
   2   6  12    0.36    0.17
  -2   6  12    0.16    0.16
  -2   6  12    0.29    0.25
   2   6  11    4.24    0.39
   2   6  11    4.07    0.30
  -2   6  11    3.93    0.46
  -2   6  11    4.85    0.31
   2   6  10    0.92    0.22
   2   6  10    0.68    0.14
  -2   6  10    1.08    0.17
  -2   6  10    1.28    0.25
   2   6   9    0.21    0.18
   2   6   9    0.10    0.11
  -2   6   9    0.43    0.13
  -2   6   9    0.34    0.17
   2   6   8   34.31    0.95
   2   6   8   34.05    1.11
  -2   6   8   34.42    1.01
  -2   6   8   34.14    1.08
   2   6   7   14.79    0.45
   2   6   7   14.06    0.59
  -2   6   7   14.90    0.57
  -2  -6  -7   13.94    0.48
  -2   6   7   15.09    0.52
   2   6   6   40.68    1.06
   2   6   6   38.86    1.22
  -2   6   6   40.20    1.20
  -2   6   6   40.89    1.15
  -2  -6  -6   40.69    1.09
   2   6   5   13.07    0.37
   2   6   5   12.95    0.53
  -2  -6  -5   12.97    0.41
  -2   6   5   13.15    0.51
  -2   6   5   14.02    0.48
   2   6   4    0.09    0.12
  -2   6   4    0.29    0.10
  -2  -6  -4    0.02    0.08
  -2   6   4    0.07    0.11
  -2  -6  -4   -0.03    0.08
   2   6   3   51.61    1.49
   2   6   3   53.85    1.34
  -2   6   3   53.48    1.46
  -2   6   3   54.14    1.49
   2   6   2    8.40    0.24
   2   6   2    7.93    0.35
   2   6   2    8.09    0.25
  -2   6   2    8.58    0.35
  -2   6   2    8.51    0.36
   2  -6  -1    0.14    0.13
   2   6   1    0.19    0.05
   2  -6  -1    0.27    0.14
   2   6   1    0.28    0.11
   2  -6  -1    0.10    0.06
  -2   6   1    0.10    0.10
  -2  -6  -1    0.06    0.06
  -2   6   1    0.16    0.10
   2   6   0    7.08    0.30
   2   6   0    7.51    0.24
   2  -6   0    7.79    0.38
   2  -6   0    7.96    0.38
  -2   6   0    7.38    0.33
  -2  -6   0    7.45    0.26
   2  -6   1    0.11    0.11
   2   6  -1   -0.03    0.14
   2   6  -1   -0.01    0.05
   2   6  -1    0.08    0.08
  -2   6  -1    0.13    0.10
  -2  -6   1    0.08    0.07
   2   6  -2    8.11    0.28
   2   6  -2    8.05    0.27
   2   6  -2    8.62    0.39
   2  -6   2    8.16    0.38
  -2  -6   2    8.09    0.30
   2  -6   3   51.94    1.47
   2   6  -3   52.50    1.32
   2   6  -3   52.70    1.49
  -2  -6   3   51.22    1.40
   2  -6   4    0.16    0.10
   2   6  -4   -0.14    0.11
  -2  -6   4   -0.17    0.08
   2   6  -5   12.80    0.50
   2  -6   5   12.75    0.49
  -2  -6   5   12.54    0.46
   2   6  -6   38.83    1.15
   2  -6   6   37.89    1.13
  -2  -6   6   39.01    1.13
   2  -6   7   14.01    0.52
   2   6  -7   13.96    0.55
  -2  -6   7   14.31    0.54
   2   6  -8   32.55    1.02
   2  -6   8   32.44    0.99
  -2  -6   8   31.92    1.01
   2   6  -9   -0.03    0.15
   2  -6   9    0.46    0.16
   2  -6   9    0.39    0.22
  -2  -6   9    0.16    0.16
   2   6 -10    0.83    0.20
   2  -6  10    0.84    0.25
   2  -6  10    1.05    0.18
  -2  -6  10    1.07    0.18
   2  -6  11    4.50    0.32
   2  -6  11    4.09    0.44
  -2  -6  11    4.38    0.33
  -2  -6  11    4.37    0.20
   2  -6  12   -0.36    0.27
   2  -6  12    0.06    0.17
  -2  -6  12    0.04    0.17
  -2  -6  12    0.04    0.10
   2  -6  13    3.57    0.35
   2  -6  13    4.20    0.51
  -2  -6  13    2.83    0.39
  -2  -6  13    3.77    0.22
   2  -6  14    0.17    0.33
   2  -6  14    0.22    0.21
  -2  -6  14    0.46    0.25
  -2  -6  14    0.23    0.13
   2  -6  15    0.25    0.25
   2  -6  15    0.21    0.35
  -2  -6  15    0.34    0.28
   2  -6  16    2.28    0.33
   2  -6  16    1.95    0.50
  -2  -6  16    1.93    0.40
   2  -6  17    2.46    0.37
   2  -6  17    1.87    0.60
  -2  -6  17    1.75    0.45
   2  -6  18    1.02    0.55
   2  -6  18    1.30    0.34
  -2  -6  18    1.16    0.46
   2  -6  19    3.73    0.58
   2  -6  19    4.34    0.64
  -2  -6  19    3.59    0.64
   3   6  19   -0.22    0.50
   3   6  18    0.26    0.42
   3   6  18   -0.21    0.42
  -3   6  18    0.27    0.52
  -3   6  18   -0.61    0.38
   3   6  17    1.74    0.42
   3   6  17   -0.10    0.37
  -3   6  17   -0.16    0.42
  -3   6  17    0.38    0.35
   3   6  16    1.12    0.39
   3   6  16    1.25    0.33
  -3   6  16    0.87    0.38
  -3   6  16    1.55    0.36
   3   6  15    3.49    0.46
   3   6  15    3.22    0.47
  -3   6  15    4.16    0.58
  -3   6  15    3.47    0.47
   3   6  14   -0.36    0.30
   3   6  14    0.45    0.28
  -3   6  14   -0.30    0.24
  -3   6  14    0.14    0.33
   3   6  13   12.08    0.53
   3   6  13   12.51    0.69
  -3   6  13   13.49    0.73
  -3   6  13   12.93    0.58
   3   6  12    1.81    0.27
   3   6  12    2.06    0.34
  -3   6  12    2.58    0.31
   3   6  11    0.13    0.14
   3   6  11    0.61    0.29
  -3   6  11    0.26    0.16
  -3   6  11   -0.25    0.24
   3   6  10    0.33    0.13
   3   6  10    0.20    0.23
  -3   6  10    0.54    0.25
  -3   6  10    0.34    0.16
   3   6   9    4.04    0.41
   3   6   9    4.25    0.23
  -3   6   9    4.04    0.30
  -3   6   9    4.24    0.41
   3   6   8    0.21    0.19
   3   6   8    0.20    0.09
  -3   6   8    0.23    0.13
  -3   6   8    0.12    0.18
   3   6   7   10.43    0.34
   3   6   7    9.79    0.52
  -3   6   7    9.85    0.49
  -3   6   7   10.37    0.44
  -3  -6  -7    9.85    0.45
   3   6   6   16.04    0.46
   3   6   6   15.04    0.65
  -3   6   6   14.70    0.61
  -3   6   6   15.22    0.56
  -3  -6  -6   15.35    0.54
  -3  -6  -6   14.75    0.54
   3   6   5    9.98    0.33
   3   6   5   10.02    0.50
   3   6   5    9.97    0.35
  -3   6   5    9.70    0.47
  -3   6   5   10.04    0.42
   3   6   4    5.66    0.37
   3   6   4    5.89    0.24
   3   6   4    5.75    0.23
  -3   6   4    5.54    0.34
  -3   6   4    5.64    0.31
   3   6   3   31.85    1.01
   3   6   3   30.54    0.86
   3   6   3   31.11    0.85
  -3   6   3   30.90    0.95
  -3   6   3   31.29    0.98
   3   6   2   11.67    0.42
   3   6   2   12.03    0.50
   3   6   2   12.36    0.38
   3   6   2   11.52    0.41
  -3   6   2   12.61    0.48
  -3   6   2   11.90    0.48
   3  -6  -1   20.19    0.55
   3   6   1   20.50    0.59
   3   6   1   18.63    0.68
  -3  -6  -1   20.43    0.60
  -3   6   1   20.88    0.68
  -3   6   1   20.01    0.69
   3  -6   0   -0.14    0.15
   3   6   0    0.08    0.13
   3  -6   0    0.21    0.15
   3   6   0    0.02    0.08
  -3   6   0   -0.02    0.11
  -3  -6   0    0.07    0.09
   3  -6   1   20.07    0.74
   3   6  -1   20.80    0.76
   3   6  -1   19.61    0.65
   3   6  -1   19.40    0.60
  -3  -6   1   20.56    0.63
   3   6  -2   11.89    0.43
   3  -6   2   12.00    0.51
   3   6  -2   11.80    0.52
  -3  -6   2   12.00    0.44
   3   6  -3   30.43    0.98
   3   6  -3   29.46    0.85
   3  -6   3   30.21    0.98
  -3  -6   3   30.56    0.91
   3   6  -4    5.76    0.35
   3  -6   4    6.13    0.34
   3   6  -4    5.24    0.23
  -3  -6   4    5.78    0.31
   3  -6   5    9.47    0.45
   3   6  -5    9.31    0.45
  -3  -6   5    9.73    0.42
   3  -6   6   15.54    0.60
   3   6  -6   15.21    0.60
  -3  -6   6   14.97    0.58
   3   6  -7   10.30    0.47
   3  -6   7    9.91    0.46
  -3  -6   7    9.79    0.47
   3   6  -8    0.12    0.15
   3  -6   8    0.24    0.17
  -3  -6   8    0.17    0.17
   3   6  -9    3.07    0.31
   3  -6   9    4.26    0.32
  -3  -6   9    3.55    0.33
   3  -6  10   -0.19    0.26
   3   6 -10    0.24    0.18
   3  -6  10    0.43    0.16
  -3  -6  10    0.33    0.18
   3   6 -11    0.28    0.19
   3  -6  11   -0.15    0.15
   3  -6  11    0.49    0.29
  -3  -6  11    0.06    0.17
   3  -6  12    2.16    0.39
   3  -6  12    2.15    0.30
  -3  -6  12    1.91    0.30
   3  -6  13   12.03    0.56
   3  -6  13   10.71    0.76
  -3  -6  13   11.56    0.64
   3  -6  14    0.01    0.44
   3  -6  14    0.13    0.22
  -3  -6  14   -0.04    0.27
   3  -6  15    2.78    0.40
   3  -6  15    4.16    0.65
  -3  -6  15    4.15    0.56
   3  -6  16    0.65    0.49
   3  -6  16    1.09    0.27
  -3  -6  16    1.08    0.38
   3  -6  17    0.15    0.52
   3  -6  17    0.61    0.32
  -3  -6  17    0.34    0.40
   3  -6  18    0.01    0.33
   3  -6  18    0.02    0.56
  -3  -6  18    0.03    0.51
   3  -6  19    0.96    0.43
  -3  -6  19   -0.35    0.58
   4   6  18   -0.42    0.46
  -4   6  18    0.36    0.58
  -4   6  18    0.08    0.45
   4   6  17    0.54    0.41
   4   6  17    1.50    0.47
  -4   6  17    0.43    0.48
  -4   6  17    0.65    0.41
   4   6  16   -0.47    0.32
   4   6  16   -0.01    0.41
  -4   6  16   -0.79    0.43
  -4   6  16    0.29    0.36
   4   6  15    1.78    0.41
   4   6  15    2.98    0.34
  -4   6  15    2.56    0.48
  -4   6  15    3.14    0.47
   4   6  14    1.26    0.32
   4   6  14    1.80    0.39
  -4   6  14    1.00    0.35
  -4   6  14    1.41    0.38
   4   6  13    2.90    0.41
   4   6  13    3.25    0.41
  -4   6  13    2.35    0.39
  -4   6  13    2.34    0.35
   4   6  12    5.77    0.54
   4   6  12    6.24    0.37
  -4   6  12    6.13    0.45
  -4   6  12    5.44    0.56
   4   6  11    0.51    0.29
   4   6  11    0.50    0.15
  -4   6  11    0.31    0.21
  -4   6  11    0.35    0.28
   4   6  10    4.05    0.53
   4   6  10    4.40    0.26
  -4   6  10    3.47    0.45
  -4   6  10    4.07    0.34
   4   6   9   24.60    1.05
   4   6   9   26.78    0.77
  -4   6   9   25.38    0.97
  -4   6   9   25.36    0.88
   4   6   8    3.74    0.43
   4   6   8    3.94    0.23
  -4   6   8    4.00    0.41
  -4   6   8    2.99    0.31
  -4   6   8    3.54    0.32
   4   6   7    0.86    0.13
   4   6   7    0.75    0.25
  -4   6   7    1.17    0.27
  -4   6   7    0.47    0.17
   4   6   6    0.68    0.12
   4   6   6    0.75    0.23
  -4   6   6    0.31    0.21
  -4   6   6    0.48    0.16
   4   6   5    0.01    0.10
   4   6   5    0.20    0.20
   4   6   5    0.13    0.14
  -4   6   5    0.08    0.16
  -4   6   5    0.14    0.14
   4   6   4   11.03    0.42
   4   6   4   11.37    0.56
   4   6   4    9.87    0.41
  -4   6   4   11.72    0.49
  -4   6   4   10.90    0.53
   4   6   3   20.45    0.79
   4   6   3   19.74    0.65
   4   6   3   18.36    0.62
  -4   6   3   20.44    0.75
  -4   6   3   19.68    0.71
   4   6   2   19.06    0.65
   4   6   2   17.69    0.60
   4   6   2   18.79    0.73
   4   6   2   18.90    0.65
  -4   6   2   18.48    0.68
  -4  -6  -2   19.39    0.60
  -4   6   2   18.91    0.71
   4   6   1   37.11    1.20
  -4  -6  -1   38.58    1.08
  -4   6   1   37.02    1.16
  -4   6   1   38.72    1.18
   4  -6   0   93.21    2.65
   4   6   0   93.95    2.56
   4  -6   0   95.13    2.66
  -4  -6   0   93.01    2.47
   4   6  -1   37.98    1.24
   4   6  -1   36.26    1.13
   4  -6   1   37.02    1.24
   4  -6   1   37.10    1.24
  -4  -6   1   37.91    1.10
   4   6  -2   19.12    0.68
   4  -6   2   19.65    0.78
   4   6  -2   19.41    0.77
  -4  -6   2   19.82    0.67
   4   6  -3   18.39    0.65
   4   6  -3   20.21    0.76
   4  -6   3   19.42    0.75
  -4  -6   3   19.63    0.68
   4   6  -4   10.98    0.52
   4  -6   4   11.35    0.54
   4   6  -4    9.76    0.42
  -4  -6   4   11.10    0.48
   4  -6   5    0.26    0.16
   4   6  -5    0.31    0.14
   4   6  -5    0.18    0.17
  -4  -6   5    0.14    0.15
   4  -6   6    0.77    0.22
   4   6  -6    0.45    0.19
   4   6  -6    0.61    0.13
  -4  -6   6    0.58    0.18
   4   6  -7    0.86    0.20
   4  -6   7    0.73    0.21
   4   6  -7    0.60    0.07
  -4  -6   7    0.78    0.23
   4  -6   8    3.07    0.33
   4   6  -8    3.20    0.34
  -4  -6   8    3.43    0.34
   4  -6   9   24.43    0.87
   4   6  -9   24.86    0.87
  -4  -6   9   24.21    0.91
   4   6 -10    4.41    0.39
   4  -6  10    4.02    0.37
  -4  -6  10    3.21    0.38
   4   6 -11    0.10    0.24
   4  -6  11    0.35    0.20
   4  -6  11    0.99    0.40
  -4  -6  11    0.34    0.24
   4  -6  12    5.10    0.42
   4  -6  12    5.45    0.83
   4   6 -12    5.37    0.51
  -4  -6  12    5.46    0.49
   4  -6  13    1.73    0.30
   4  -6  13    2.68    0.55
  -4  -6  13    2.36    0.34
   4  -6  14    1.40    0.28
   4  -6  14    1.87    0.47
  -4  -6  14    1.45    0.37
   4  -6  15    2.15    0.52
   4  -6  15    2.18    0.31
  -4  -6  15    2.10    0.45
   4  -6  16    0.29    0.28
   4  -6  16    0.61    0.55
  -4  -6  16    0.83    0.43
   4  -6  17    0.49    0.60
   4  -6  17    0.74    0.32
  -4  -6  17   -0.40    0.49
   4  -6  18   -0.46    0.68
   4  -6  18   -0.23    0.38
  -4  -6  18    0.13    0.57
   5   6  17    0.70    0.51
  -5   6  17    1.33    0.59
  -5   6  17    0.35    0.49
   5   6  16    1.71    0.45
   5   6  16    1.17    0.52
  -5   6  16    1.65    0.52
  -5   6  16    0.82    0.46
   5   6  15    5.65    0.70
   5   6  15    4.83    0.54
  -5   6  15    6.85    0.77
  -5   6  15    4.59    0.55
   5   6  14   -0.06    0.36
   5   6  14    0.58    0.29
  -5   6  14   -0.18    0.42
  -5   6  14   -0.19    0.39
   5   6  13    6.10    0.50
   5   6  13    5.71    0.64
  -5   6  13    5.79    0.68
  -5   6  13    5.00    0.68
   5   6  12    2.63    0.40
   5   6  12    2.19    0.25
  -5   6  12    2.27    0.39
  -5   6  12    1.19    0.41
   5   6  11    2.85    0.39
   5   6  11    3.92    0.32
  -5   6  11    3.80    0.52
  -5   6  11    3.28    0.43
   5   6  10   43.39    1.22
   5   6  10   41.09    1.54
  -5   6  10   43.98    1.50
  -5   6  10   41.93    1.36
   5   6   9    9.37    0.40
   5   6   9   10.26    0.66
  -5   6   9    7.86    0.57
  -5   6   9    8.62    0.52
   5   6   8   26.90    1.18
   5   6   8   29.83    0.88
  -5   6   8   29.10    1.09
  -5   6   8   28.91    1.00
   5   6   7   14.09    0.79
   5   6   7   13.57    0.52
  -5   6   7   13.85    0.68
  -5   6   7   14.05    0.63
   5   6   6    1.69    0.25
   5   6   6    2.17    0.36
  -5   6   6    2.31    0.33
  -5   6   6    1.55    0.27
   5   6   5    0.35    0.24
   5   6   5    0.26    0.15
  -5   6   5    0.57    0.19
  -5   6   5    0.38    0.20
   5   6   4    1.48    0.21
   5   6   4    1.28    0.27
  -5   6   4    1.61    0.23
  -5   6   4    1.35    0.27
   5  -6  -3   -0.04    0.10
   5   6   3    0.01    0.22
   5   6   3    0.01    0.16
  -5   6   3    0.31    0.22
  -5   6   3    0.12    0.17
   5   6   2    0.55    0.19
   5   6   2    0.85    0.24
   5   6   2    0.19    0.18
  -5   6   2    0.65    0.24
   5  -6  -1    4.87    0.46
   5  -6  -1    4.87    0.47
   5   6   1    4.12    0.41
  -5  -6  -1    5.57    0.33
  -5   6   1    4.92    0.38
   5  -6   0   -0.01    0.23
   5  -6   0   -0.37    0.22
   5   6   0    0.02    0.19
  -5  -6   0    0.05    0.14
   5   6  -1    4.80    0.40
   5   6  -1    4.44    0.42
   5  -6   1    4.49    0.48
   5  -6   1    5.68    0.49
  -5  -6   1    5.49    0.35
   5   6  -2    0.49    0.22
   5  -6   2    0.54    0.25
   5   6  -2    0.25    0.22
  -5  -6   2    0.66    0.17
   5  -6   3   -0.05    0.21
   5   6  -3    0.18    0.19
   5   6  -3    0.26    0.21
  -5  -6   3    0.06    0.16
   5   6  -4    1.64    0.27
   5  -6   4    2.02    0.32
   5   6  -4    1.69    0.24
  -5  -6   4    1.70    0.23
   5   6  -5    0.19    0.21
   5  -6   5    0.50    0.21
  -5  -6   5    0.29    0.21
   5   6  -6    1.68    0.26
   5  -6   6    1.92    0.29
  -5  -6   6    1.98    0.33
   5   6  -7   14.27    0.64
   5  -6   7   14.10    0.65
  -5  -6   7   13.88    0.67
   5   6  -8   28.04    1.00
   5  -6   8   28.95    1.03
  -5  -6   8   28.46    1.05
   5   6  -9    8.53    0.52
   5  -6   9    8.43    0.53
  -5  -6   9    9.62    0.57
   5   6 -10   40.00    1.31
   5  -6  10   39.29    1.32
  -5  -6  10   41.15    1.39
   5  -6  11    2.96    0.52
   5   6 -11    3.29    0.41
   5  -6  11    3.66    0.42
  -5  -6  11    3.89    0.45
   5  -6  12    1.93    0.31
   5   6 -12    2.04    0.48
   5  -6  12    2.42    0.53
  -5  -6  12    1.53    0.38
   5   6 -13    5.87    0.59
   5  -6  13    4.61    0.64
   5  -6  13    5.14    0.50
  -5  -6  13    5.69    0.61
   5  -6  14    0.23    0.46
   5  -6  14    0.27    0.28
  -5  -6  14   -0.12    0.37
   5  -6  15    5.04    0.50
   5  -6  15    4.47    0.65
  -5  -6  15    4.79    0.70
   5  -6  16    1.18    0.33
   5  -6  16    1.10    0.55
  -5  -6  16    1.81    0.56
   5  -6  17    0.13    0.64
   5  -6  17    0.65    0.34
  -5  -6  17    0.04    0.60
   6   6  16    0.69    0.55
  -6   6  16    1.93    0.68
  -6   6  16    0.36    0.52
   6   6  15    1.44    0.54
  -6   6  15    1.07    0.55
  -6   6  15    0.88    0.50
   6   6  14   -0.03    0.33
   6   6  14    0.12    0.48
  -6   6  14    0.43    0.47
  -6   6  14    0.29    0.44
   6   6  13    0.34    0.28
   6   6  13    0.83    0.45
  -6   6  13   -0.01    0.42
  -6   6  13   -0.19    0.41
   6   6  12    0.30    0.29
   6   6  12   -0.04    0.38
  -6   6  12    0.89    0.50
  -6   6  12    0.41    0.42
   6   6  11    1.57    0.29
   6   6  11    1.11    0.40
  -6   6  11    0.65    0.39
  -6   6  11    2.00    0.47
   6   6  10    0.69    0.19
   6   6  10    1.54    0.39
  -6   6  10    0.35    0.35
  -6   6  10    0.67    0.37
   6   6   9    4.16    0.35
   6   6   9    4.30    0.57
  -6   6   9    3.88    0.52
  -6   6   9    3.51    0.52
   6   6   8    6.49    0.63
   6   6   8    6.96    0.41
  -6   6   8    6.77    0.56
  -6   6   8    6.86    0.52
   6   6   7    4.20    0.35
   6   6   7    3.70    0.56
  -6   6   7    3.40    0.43
  -6   6   7    4.39    0.47
   6   6   6    0.56    0.19
   6   6   6    0.62    0.37
  -6   6   6    0.62    0.25
  -6   6   6    0.24    0.24
   6   6   5   31.09    1.05
   6   6   5   33.62    1.31
  -6   6   5   32.20    1.17
   6   6   4   23.88    0.86
   6  -6  -4   23.89    0.67
   6   6   4   24.57    1.04
  -6   6   4   23.03    0.93
   6   6   3    0.38    0.21
   6   6   3   -0.13    0.27
   6   6   3    0.37    0.21
   6  -6  -3    0.03    0.16
  -6   6   3   -0.05    0.20
   6   6   2    1.75    0.33
   6   6   2    1.64    0.26
   6   6   2    1.75    0.27
  -6   6   2    1.77    0.28
   6   6   1    1.67    0.31
   6  -6  -1    1.20    0.28
   6  -6  -1    1.58    0.32
  -6  -6  -1    1.53    0.22
   6  -6   0    0.66    0.26
   6  -6   0    1.20    0.28
   6   6   0    0.77    0.28
  -6  -6   0    0.89    0.21
   6   6  -1    1.61    0.30
   6  -6   1    1.27    0.29
   6   6  -1    1.84    0.33
   6  -6   1    1.40    0.30
  -6  -6   1    1.18    0.24
   6   6  -2    1.91    0.31
   6   6  -2    1.48    0.32
   6  -6   2    1.28    0.27
  -6  -6   2    1.39    0.24
   6   6  -3   -0.04    0.24
   6   6  -3    0.21    0.24
   6  -6   3    0.12    0.25
  -6  -6   3    0.14    0.23
   6   6  -4   23.13    0.93
   6  -6   4   23.69    0.97
  -6  -6   4   23.62    0.95
   6   6  -5   31.48    1.13
   6  -6   5   31.96    1.18
  -6  -6   5   31.24    1.13
   6  -6   6    0.56    0.28
   6   6  -6    0.30    0.25
  -6  -6   6    0.32    0.25
   6  -6   7    3.77    0.48
   6   6  -7    3.58    0.44
  -6  -6   7    3.89    0.46
   6   6  -8    6.39    0.50
   6  -6   8    5.92    0.53
  -6  -6   8    5.39    0.53
   6  -6   9    2.68    0.36
   6   6  -9    3.50    0.46
  -6  -6   9    3.50    0.43
   6  -6  10    0.65    0.27
   6   6 -10    0.92    0.36
  -6  -6  10    1.19    0.31
   6   6 -11    1.06    0.45
   6  -6  11    1.96    0.49
   6  -6  11    1.03    0.29
  -6  -6  11    1.33    0.38
   6  -6  12    0.37    0.44
   6  -6  12    0.25    0.27
   6   6 -12    0.70    0.36
  -6  -6  12   -0.05    0.36
   6  -6  13   -0.10    0.52
   6   6 -13    1.07    0.37
   6  -6  13    0.68    0.30
  -6  -6  13   -0.39    0.41
   6   6 -14    0.69    0.39
   6  -6  14   -0.25    0.29
   6  -6  14   -0.11    0.54
  -6  -6  14   -0.03    0.45
   6  -6  15    0.60    0.37
   6  -6  15    2.10    0.63
  -6  -6  15    0.66    0.54
   6  -6  16    0.12    0.66
   6  -6  16    0.18    0.39
  -6  -6  16   -0.05    0.58
   7   6  14    2.03    0.63
  -7   6  14    1.71    0.58
  -7   6  14    1.92    0.63
   7   6  13    0.28    0.51
  -7   6  13    1.99    0.55
  -7   6  13    0.98    0.52
   7   6  12    0.33    0.32
   7   6  12    0.09    0.48
  -7   6  12    0.52    0.47
  -7   6  12    0.64    0.46
   7   6  11   -0.12    0.29
   7   6  11   -0.60    0.45
  -7   6  11    0.52    0.43
  -7   6  11   -0.01    0.42
   7   6  10   -0.15    0.43
   7   6  10    0.11    0.31
  -7   6  10   -0.39    0.42
  -7   6  10   -0.19    0.38
   7   6   9   -0.30    0.40
   7   6   9   -0.41    0.30
  -7   6   9    0.04    0.35
   7   6   8   -0.60    0.39
   7   6   8    0.25    0.27
  -7   6   8   -0.18    0.33
   7   6   7   -0.18    0.26
   7   6   7   -0.60    0.37
  -7   6   7   -0.02    0.31
   7   6   6    3.48    0.43
   7   6   6    2.35    0.44
  -7   6   6    2.99    0.42
   7   6   5    0.50    0.42
   7   6   5    0.74    0.27
  -7   6   5    0.59    0.28
   7   6   4    2.48    0.52
   7   6   4    2.75    0.36
   7  -6  -4    1.99    0.28
  -7   6   4    2.86    0.37
   7   6   3   10.24    0.69
   7  -6  -3    9.86    0.48
   7   6   3    9.13    0.80
  -7   6   3   10.29    0.62
   7   6   2    9.68    0.72
   7  -6  -2    8.44    0.72
   7  -6  -2    8.63    0.72
   7   6   2    8.95    0.69
   7   6   2    8.34    0.71
  -7   6   2    9.06    0.57
   7  -6  -1    1.33    0.36
   7   6   1    0.71    0.40
   7  -6  -1    1.55    0.38
   7   6   1    0.72    0.38
   7   6   1    1.10    0.34
  -7  -6  -1    0.81    0.29
   7  -6   0   -0.01    0.34
   7   6   0    0.17    0.32
   7  -6   0    0.72    0.34
  -7  -6   0    0.54    0.31
   7  -6   1    0.60    0.34
   7  -6   1    0.27    0.36
   7   6  -1    1.16    0.37
   7   6  -1    0.74    0.32
  -7  -6   1    1.15    0.38
   7  -6   2    9.30    0.69
   7   6  -2    8.34    0.61
   7   6  -2    7.74    0.65
  -7  -6   2    9.49    0.62
   7  -6   3    9.32    0.69
   7   6  -3    9.47    0.69
   7   6  -3    9.79    0.63
  -7  -6   3   10.96    0.66
   7   6  -4    2.76    0.39
   7  -6   4    2.62    0.41
  -7  -6   4    2.27    0.35
   7  -6   5    0.48    0.33
   7   6  -5    1.00    0.32
  -7  -6   5    0.29    0.28
   7  -6   6    2.54    0.42
   7   6  -6    2.28    0.39
  -7  -6   6    3.32    0.50
   7  -6   7   -0.28    0.29
   7   6  -7   -0.28    0.34
  -7  -6   7    0.21    0.29
   7  -6   8   -0.21    0.32
   7   6  -8    0.08    0.35
  -7  -6   8    0.06    0.32
   7  -6   9    0.27    0.31
   7   6  -9   -0.47    0.36
  -7  -6   9    0.13    0.36
   7  -6  10   -0.34    0.30
   7   6 -10   -0.30    0.39
  -7  -6  10    0.58    0.36
   7  -6  11    0.97    0.50
   7  -6  11    0.01    0.32
   7   6 -11    0.44    0.38
  -7  -6  11    0.08    0.40
   7   6 -12    0.11    0.38
   7  -6  12   -0.02    0.32
   7  -6  12    0.24    0.53
  -7  -6  12    0.38    0.44
   7  -6  13   -0.49    0.58
   7  -6  13    1.32    0.37
   7   6 -13    0.60    0.43
  -7  -6  13    1.10    0.48
   7   6 -14    2.26    0.50
   7  -6  14    0.88    0.60
   7  -6  14    1.81    0.41
  -7  -6  14    2.37    0.64
  -8   6  13    0.33    0.65
   8   6  12    1.15    0.58
  -8   6  12   -0.41    0.62
   8   6  11   -0.09    0.54
  -8   6  11   -0.13    0.51
   8   6  10    0.03    0.50
   8   6  10    0.19    0.36
  -8   6  10    0.78    0.48
   8   6   9    0.95    0.37
   8   6   9    1.27    0.53
  -8   6   9    0.94    0.47
   8   6   8    1.79    0.36
   8   6   8    1.67    0.48
  -8   6   8    1.32    0.42
   8   6   7    2.91    0.59
   8   6   7    3.80    0.56
  -8   6   7    4.08    0.57
   8   6   6   -0.33    0.43
   8   6   6   -0.38    0.34
   8   6   5    0.36    0.45
   8   6   5    0.52    0.38
  -8   6   5    0.00    0.35
   8   6   4    0.75    0.35
   8   6   4    0.02    0.41
  -8   6   4    0.11    0.31
   8   6   3    9.54    0.69
   8   6   3    8.85    0.83
  -8   6   3    9.08    0.68
   8   6   2    0.88    0.38
   8   6   2    1.31    0.46
   8  -6  -2    0.98    0.33
   8  -6  -2    0.66    0.44
   8   6   2    0.46    0.39
   8  -6  -2    0.72    0.45
   8  -6  -1    1.01    0.46
   8   6   1    1.38    0.39
   8  -6  -1    0.64    0.45
   8   6   1    1.13    0.56
   8   6   1    0.91    0.40
   8   6   0    5.22    0.71
   8  -6   0    4.78    0.72
   8  -6   0    4.81    0.72
  -8  -6   0    5.51    0.59
   8   6  -1    1.12    0.51
   8  -6   1    0.55    0.39
   8  -6   1    1.33    0.40
   8   6  -1    1.03    0.53
  -8  -6   1    1.45    0.35
   8  -6   2    0.71    0.43
   8   6  -2    1.26    0.55
   8   6  -2    1.05    0.44
  -8  -6   2    1.83    0.35
   8   6  -3    9.66    0.71
   8   6  -3    8.71    0.85
   8  -6   3    7.66    0.76
  -8  -6   3    9.61    0.69
   8   6  -4    0.05    0.52
   8   6  -4    0.12    0.37
   8  -6   4    0.85    0.40
  -8  -6   4    0.75    0.35
   8  -6   5   -0.45    0.36
   8   6  -5    0.36    0.37
   8   6  -5    0.39    0.50
  -8  -6   5    0.18    0.34
   8   6  -6    0.16    0.43
   8  -6   6    0.21    0.39
  -8  -6   6   -0.23    0.36
   8  -6   7    2.55    0.46
   8   6  -7    2.50    0.46
  -8  -6   7    2.70    0.46
   8  -6   8    2.38    0.44
   8   6  -8    1.67    0.41
  -8  -6   8    1.92    0.46
   8  -6   9    1.34    0.41
   8   6  -9    0.50    0.39
  -8  -6   9    2.00    0.47
   8  -6  10    0.11    0.40
   8   6 -10    0.72    0.42
  -8  -6  10    0.88    0.46
   8  -6  11   -0.27    0.54
   8  -6  11   -0.47    0.39
   8   6 -11   -0.46    0.44
  -8  -6  11    0.59    0.48
   8   6 -12   -0.64    0.48
   8  -6  12    0.31    0.61
   8  -6  12   -0.40    0.41
  -8  -6  12   -0.09    0.59
   9   6  10    0.59    0.64
  -9   6  10    0.05    0.62
   9   6   9    0.57    0.59
  -9   6   9    0.99    0.61
   9   6   8    0.72    0.58
   9   6   8    0.01    0.43
  -9   6   8    0.43    0.56
   9   6   7   -0.19    0.53
   9   6   7    0.99    0.45
  -9   6   7    0.28    0.47
   9   6   6    1.04    0.43
   9   6   6    0.65    0.55
  -9   6   6    1.02    0.49
   9   6   5    0.02    0.49
   9   6   5    0.20    0.42
  -9   6   5   -0.24    0.41
   9   6   4   -0.26    0.38
   9   6   4    0.56    0.48
  -9   6   4    0.61    0.42
   9  -6  -3    3.56    0.64
   9  -6  -3    2.69    0.65
   9   6   3    3.37    0.56
   9   6   3    3.51    0.48
   9   6   2   -0.09    0.40
   9   6   2   -0.46    0.48
   9  -6  -2    0.34    0.53
   9  -6  -2   -0.05    0.53
   9   6   1   -0.22    0.43
   9   6   1   -0.07    0.47
   9  -6  -1    1.43    0.53
   9  -6  -1   -0.80    0.46
   9   6   1    0.34    0.41
   9  -6   0   -0.27    0.47
   9   6   0   -0.95    0.44
   9   6   0    0.43    0.44
   9  -6   0    0.18    0.47
   9   6   0    0.20    0.48
   9   6   0    0.38    0.47
   9   6  -1    0.66    0.49
   9  -6   1    0.06    0.44
   9   6  -1   -0.75    0.45
  -9  -6   1    0.64    0.42
   9   6  -2    0.75    0.50
   9  -6   2    0.65    0.46
   9   6  -2   -0.12    0.43
  -9  -6   2   -0.39    0.40
   9   6  -3    2.94    0.53
   9   6  -3    3.13    0.66
   9  -6   3    1.72    0.49
  -9  -6   3    2.92    0.52
   9  -6   4    0.72    0.49
   9   6  -4    0.74    0.43
   9   6  -4    0.89    0.63
  -9  -6   4    0.26    0.41
   9   6  -5    0.66    0.61
   9   6  -5    0.49    0.42
   9  -6   5    0.28    0.46
  -9  -6   5    0.55    0.44
   9   6  -6    1.78    0.53
   9  -6   6    0.82    0.49
   9   6  -6   -0.02    0.44
  -9  -6   6    1.50    0.46
   9   6  -7    0.68    0.43
   9  -6   7    0.45    0.47
  -9  -6   7    1.36    0.49
   9  -6   8   -0.09    0.50
   9   6  -8    0.15    0.46
  -9  -6   8   -0.49    0.48
   9  -6   9    0.40    0.48
   9   6  -9    0.19    0.45
  -9  -6   9   -0.03    0.51
   9  -6  10    0.32    0.55
   9  -6  10   -0.73    0.58
   9   6 -10    0.16    0.55
  -9  -6  10    0.38    0.64
  10   6   6    0.52    0.60
  10   6   6    0.13    0.61
 -10   6   6    0.52    0.59
  10  -6  -5    2.76    0.78
  10  -6  -5    3.51    0.84
  10   6   5    1.67    0.65
  10   6   5    2.88    0.64
 -10   6   5    2.76    0.71
  10  -6  -4    1.24    0.74
  10  -6  -4    0.02    0.68
  10   6   4    0.98    0.60
  10   6   4    1.25    0.60
  10   6   3    1.36    0.55
  10  -6  -3    1.40    0.70
  10   6   3    0.71    0.56
  10  -6  -3    1.71    0.70
  10   6   2    0.36    0.56
  10   6   2    0.02    0.53
  10  -6  -2    0.50    0.67
  10  -6  -2    0.15    0.65
  10   6   1   -0.74    0.54
  10   6   1   -1.17    0.54
  10   6   1    0.92    0.53
  10   6   1    0.13    0.54
  10  -6  -1    0.51    0.61
  10  -6  -1    0.05    0.63
  10   6   0    0.59    0.58
  10   6   0    1.24    0.57
  10   6   0    1.55    0.59
  10   6   0    2.02    0.58
  10  -6   0    1.89    0.60
  10   6  -1   -0.26    0.54
  10  -6   1   -0.21    0.53
  10   6  -1    0.28    0.61
  10   6  -1    0.09    0.57
  10   6  -1   -0.08    0.54
  10  -6   2   -0.03    0.49
  10   6  -2   -0.44    0.49
  10   6  -2    0.12    0.55
 -10  -6   2   -0.14    0.54
  10   6  -3    1.78    0.63
  10   6  -3    0.11    0.54
  10  -6   3    0.47    0.64
 -10  -6   3    1.59    0.53
  10   6  -4    0.66    0.66
  10  -6   4    2.27    0.63
  10   6  -4    2.21    0.54
 -10  -6   4    0.98    0.58
  10   6  -5    3.67    0.96
  10  -6   5    3.85    0.77
  10   6  -5    3.43    0.62
 -10  -6   5    3.49    0.68
  10  -6   6    0.67    0.67
  10   6  -6    0.98    0.55
 -10  -6   6    1.35    0.63
   0   7  19    0.19    0.40
   0   7  18   -0.93    0.40
   0   7  18   -0.49    0.31
   0   7  17    0.34    0.29
   0   7  16   -0.47    0.30
   0   7  16    0.37    0.25
   0   7  15    0.20    0.23
   0   7  15    0.18    0.27
   0   7  14    0.44    0.26
   0   7  14    0.67    0.30
   0   7  13    0.39    0.28
   0   7  13   -0.27    0.19
   0   7  12    0.12    0.19
   0   7  12   -0.10    0.16
   0   7  11   -0.14    0.16
   0   7  11   -0.10    0.14
   0   7  10    0.02    0.15
   0   7  10   -0.18    0.13
   0   7   9    0.09    0.13
   0   7   9    0.04    0.12
   0   7   8   -0.01    0.11
   0   7   8    0.08    0.12
   0   7   7   -0.06    0.11
   0   7   7    0.13    0.10
   0   7   6    0.15    0.09
   0  -7  -6    0.29    0.09
   0   7   5    0.05    0.08
   0   7   5   -0.06    0.08
   0  -7  -5    0.04    0.07
   0  -7  -4   -0.06    0.07
   0   7   4    0.17    0.08
   0   7   4    0.07    0.08
   0  -7  -3   -0.13    0.07
   0   7   3   -0.04    0.08
   0   7   3   -0.14    0.07
   0  -7  -2   -0.01    0.08
   0  -7  -2   -0.11    0.06
   0   7   2    0.11    0.08
   0  -7  -2   -0.16    0.08
   0  -7  -1   -0.11    0.07
   0   7   1    0.07    0.08
   0   7   1   -0.01    0.07
   0   7   1    0.08    0.11
   0  -7   0   -0.15    0.06
   0   7   0   -0.12    0.08
   0   7   0   -0.05    0.10
   0   7  -1   -0.07    0.10
   0   7  -1    0.09    0.07
   0  -7   1    0.06    0.07
   0   7  -1    0.11    0.08
   0  -7   2    0.14    0.07
   0   7  -2   -0.03    0.09
   0   7  -2    0.11    0.07
   0   7  -2    0.07    0.10
   0   7  -3    0.10    0.08
   0  -7   3   -0.03    0.07
   0   7  -3   -0.10    0.09
   0   7  -4    0.10    0.11
   0  -7   4    0.20    0.08
   0  -7   5   -0.03    0.08
   0   7  -5    0.06    0.10
   0   7  -6    0.00    0.11
   0  -7   6    0.11    0.09
   0   7  -7    0.07    0.12
   0  -7   7    0.01    0.10
   0  -7   8   -0.05    0.15
   0  -7   9    0.04    0.13
   0  -7   9   -0.03    0.17
   0  -7  10    0.18    0.18
   0  -7  10    0.13    0.13
   0  -7  11    0.34    0.19
   0  -7  11    0.00    0.12
   0  -7  12    0.03    0.15
   0  -7  12    0.00    0.19
   0  -7  13   -0.17    0.20
   0  -7  13    0.21    0.17
   0  -7  14   -0.01    0.20
   0  -7  14    0.32    0.22
   0  -7  15    0.53    0.25
   0  -7  15    0.11    0.23
   0  -7  16    0.06    0.22
   0  -7  16    0.52    0.29
   0  -7  17    0.39    0.31
   0  -7  17   -0.32    0.23
   0  -7  18   -0.29    0.38
   0  -7  19    0.61    0.52
   1   7  19    1.22    0.53
   1   7  19    0.17    0.40
  -1   7  19    0.89    0.40
  -1   7  19    0.30    0.52
   1   7  18    2.84    0.42
   1   7  18    2.93    0.48
  -1   7  18    2.72    0.53
  -1   7  18    3.50    0.52
   1   7  17    2.42    0.41
   1   7  17    2.20    0.35
  -1   7  17    2.57    0.38
  -1   7  17    1.49    0.43
   1   7  16    0.08    0.27
   1   7  16    0.14    0.30
  -1   7  16    0.00    0.24
  -1   7  16    0.27    0.33
   1   7  15    1.01    0.30
   1   7  15    0.57    0.26
  -1   7  15    1.31    0.32
  -1   7  15    0.67    0.26
   1   7  14    1.27    0.28
   1   7  14    1.12    0.35
  -1   7  14    0.98    0.29
  -1   7  14    0.83    0.29
   1   7  13    2.77    0.41
   1   7  13    3.10    0.40
  -1   7  13    3.29    0.32
  -1   7  13    3.00    0.45
   1   7  12    4.20    0.34
   1   7  12    3.95    0.37
  -1   7  12    4.14    0.44
  -1   7  12    3.57    0.31
   1   7  11    0.03    0.15
   1   7  11    0.08    0.16
  -1   7  11   -0.20    0.12
  -1   7  11    0.00    0.19
   1   7  10    4.29    0.32
   1   7  10    3.90    0.27
  -1   7  10    3.56    0.28
  -1   7  10    3.53    0.32
   1   7   9    0.99    0.14
   1   7   9    1.35    0.20
  -1   7   9    1.07    0.15
  -1   7   9    0.97    0.18
   1   7   8    1.08    0.14
   1   7   8    1.40    0.20
  -1   7   8    1.58    0.22
  -1   7   8    1.44    0.18
   1   7   7   51.78    1.37
   1   7   7   50.50    1.46
  -1   7   7   52.08    1.45
  -1   7   7   52.52    1.42
  -1  -7  -7   49.74    1.34
   1   7   6   58.33    1.51
   1   7   6   58.24    1.60
  -1  -7  -6   56.19    1.48
  -1   7   6   57.22    1.59
  -1   7   6   58.40    1.57
   1   7   5  110.37    2.74
   1   7   5  108.97    2.84
  -1  -7  -5  106.49    2.72
  -1   7   5  110.10    2.83
  -1   7   5  108.08    2.81
   1   7   4   80.01    1.96
   1   7   4   78.51    2.06
   1  -7  -4   74.61    2.04
  -1   7   4   80.06    2.06
  -1   7   4   78.25    2.04
  -1  -7  -4   75.09    1.94
   1   7   3    7.17    0.30
   1  -7  -3    6.38    0.30
  -1   7   3    7.27    0.29
  -1   7   3    6.85    0.30
   1   7   2   26.61    0.76
   1  -7  -2   26.29    0.77
  -1   7   2   26.33    0.75
  -1   7   2   26.26    0.77
  -1   7   2   27.24    0.77
   1   7   1    5.66    0.19
   1  -7  -1    5.58    0.29
   1   7   1    6.32    0.24
   1  -7  -1    5.84    0.26
   1  -7  -1    5.22    0.28
  -1   7   1    5.35    0.25
  -1  -7  -1    5.94    0.17
  -1   7   1    5.54    0.24
   1   7   0    8.84    0.41
   1   7   0    8.92    0.27
   1  -7   0    8.59    0.35
   1   7   0    8.93    0.29
  -1   7   0    8.22    0.37
  -1   7   0    8.72    0.33
  -1   7   0    8.54    0.37
  -1  -7   0    8.72    0.26
  -1   7   0    8.55    0.31
   1  -7   1    5.74    0.28
   1   7  -1    5.90    0.20
   1   7  -1    5.96    0.32
   1   7  -1    5.67    0.21
  -1   7  -1    5.39    0.24
  -1   7  -1    5.82    0.26
  -1   7  -1    5.45    0.30
  -1  -7   1    5.43    0.20
   1   7  -2   26.21    0.82
   1  -7   2   26.08    0.79
   1   7  -2   25.91    0.72
   1   7  -2   26.68    0.69
  -1  -7   2   25.82    0.72
  -1   7  -2   26.31    0.77
  -1   7  -2   25.89    0.76
   1   7  -3    7.00    0.22
   1  -7   3    6.97    0.31
   1   7  -3    7.08    0.35
  -1  -7   3    7.12    0.26
  -1   7  -3    6.61    0.30
  -1  -7   3    6.79    0.22
   1  -7   4   75.05    2.01
   1   7  -4   76.80    2.06
  -1  -7   4   74.59    1.97
  -1  -7   4   76.31    1.89
  -1   7  -4   75.88    2.02
   1   7  -5  105.29    2.79
   1  -7   5  106.65    2.75
  -1  -7   5  104.13    2.61
  -1  -7   5  105.15    2.72
   1  -7   6   56.39    1.53
   1   7  -6   56.30    1.58
  -1  -7   6   54.09    1.51
   1  -7   7   49.93    1.40
   1   7  -7   49.70    1.44
  -1  -7   7   50.87    1.27
  -1  -7   7   48.52    1.28
  -1  -7   7   50.06    1.40
   1  -7   8    0.99    0.15
   1   7  -8    0.92    0.18
  -1  -7   8    1.10    0.14
  -1  -7   8    1.38    0.20
  -1  -7   8    1.04    0.12
   1   7  -9    0.99    0.21
   1  -7   9    0.91    0.22
   1  -7   9    1.00    0.18
  -1  -7   9    1.09    0.20
  -1  -7   9    1.03    0.12
   1  -7  10    3.87    0.28
   1  -7  10    3.87    0.39
  -1  -7  10    3.73    0.21
  -1  -7  10    4.09    0.31
   1  -7  11   -0.35    0.22
   1  -7  11    0.19    0.14
  -1  -7  11    0.16    0.11
  -1  -7  11   -0.02    0.14
   1  -7  12    3.72    0.31
   1  -7  12    4.20    0.43
  -1  -7  12    3.38    0.30
  -1  -7  12    3.43    0.24
   1  -7  13    3.08    0.32
   1  -7  13    3.01    0.44
  -1  -7  13    2.74    0.24
  -1  -7  13    2.42    0.33
   1  -7  14    0.84    0.29
   1  -7  14    1.13    0.24
  -1  -7  14    1.03    0.26
  -1  -7  14    1.00    0.16
   1  -7  15    0.54    0.33
   1  -7  15    0.72    0.25
  -1  -7  15    0.56    0.15
  -1  -7  15    0.88    0.29
   1  -7  16    0.72    0.30
   1  -7  16    0.44    0.31
   1  -7  17    2.48    0.39
   1  -7  17    2.13    0.36
  -1  -7  17    2.37    0.45
   1  -7  18    2.76    0.43
   1  -7  18    3.14    0.43
  -1  -7  18    3.12    0.48
   1  -7  19    1.31    0.44
  -1  -7  19    0.91    0.52
   2   7  19    0.39    0.42
   2   7  19   -0.20    0.53
  -2   7  19    1.01    0.55
  -2   7  19    0.33    0.42
   2   7  18    0.40    0.35
   2   7  18    0.06    0.42
  -2   7  18    0.17    0.35
  -2   7  18    0.14    0.45
   2   7  17    2.84    0.39
   2   7  17    2.36    0.39
  -2   7  17    1.94    0.38
  -2   7  17    2.32    0.46
   2   7  16    1.48    0.33
   2   7  16    1.82    0.33
  -2   7  16    1.78    0.39
  -2   7  16    1.75    0.33
   2   7  15    2.43    0.34
   2   7  15    1.86    0.35
  -2   7  15    2.31    0.34
  -2   7  15    2.82    0.38
   2   7  14    0.05    0.27
   2   7  14   -0.19    0.26
  -2   7  14   -0.20    0.24
  -2   7  14   -0.01    0.31
   2   7  13    0.24    0.20
   2   7  13    0.40    0.25
  -2   7  13    0.18    0.29
  -2   7  13    0.29    0.20
   2   7  12    7.01    0.37
   2   7  12    5.58    0.50
  -2   7  12    6.07    0.37
  -2   7  12    6.58    0.51
   2   7  11   31.54    0.93
   2   7  11   31.02    1.08
  -2   7  11   28.49    1.10
  -2   7  11   30.25    0.96
   2   7  10    0.72    0.22
   2   7  10    0.44    0.14
  -2   7  10    0.57    0.22
  -2   7  10    0.51    0.15
   2   7   9    0.36    0.19
   2   7   9    0.09    0.11
  -2   7   9    0.35    0.14
  -2   7   9    0.32    0.18
   2   7   8    0.12    0.18
   2   7   8   -0.01    0.09
  -2   7   8    0.16    0.12
  -2  -7  -8    0.04    0.13
  -2   7   8    0.09    0.15
   2   7   7   14.94    0.44
   2   7   7   13.39    0.57
  -2   7   7   14.24    0.52
  -2  -7  -7   13.97    0.47
  -2   7   7   14.27    0.57
   2   7   6   27.85    0.73
   2   7   6   27.43    0.90
  -2   7   6   27.18    0.88
  -2   7   6   27.11    0.84
  -2  -7  -6   26.53    0.76
   2   7   5   28.33    0.91
   2   7   5   27.08    0.73
  -2   7   5   28.28    0.89
  -2  -7  -5   28.77    0.77
  -2   7   5   28.29    0.86
   2   7   4   24.87    0.81
  -2   7   4   25.72    0.68
  -2   7   4   25.31    0.78
  -2   7   4   25.50    0.81
   2   7   3    0.41    0.13
  -2   7   3    0.29    0.12
  -2   7   3    0.13    0.10
   2   7   2    0.03    0.10
  -2   7   2   -0.11    0.10
  -2   7   2   -0.19    0.10
  -2   7   2    0.09    0.05
   2   7   1    9.57    0.37
   2  -7  -1    9.44    0.44
   2   7   1    9.89    0.27
   2  -7  -1    9.77    0.44
   2  -7  -1    9.46    0.32
  -2   7   1   10.06    0.38
  -2  -7  -1    8.96    0.29
  -2   7   1    9.90    0.30
   2  -7   0    0.03    0.12
   2   7   0    0.17    0.16
   2   7   0   -0.02    0.08
   2   7   0   -0.03    0.05
  -2   7   0    0.07    0.10
  -2  -7   0    0.10    0.06
   2   7  -1    9.75    0.32
   2   7  -1    9.42    0.30
   2   7  -1   10.00    0.45
   2  -7   1    9.69    0.43
  -2   7  -1    9.54    0.39
  -2  -7   1    9.51    0.33
   2  -7   2    0.15    0.12
   2   7  -2    0.09    0.07
   2   7  -2    0.07    0.06
   2   7  -2    0.07    0.14
  -2  -7   2    0.02    0.07
  -2   7  -2    0.02    0.12
   2  -7   3    0.12    0.11
   2   7  -3    0.27    0.05
   2   7  -3    0.16    0.14
  -2  -7   3    0.18    0.10
  -2  -7   3    0.32    0.09
   2  -7   4   24.29    0.80
   2   7  -4   24.61    0.82
  -2  -7   4   25.03    0.75
   2  -7   5   27.64    0.88
   2   7  -5   28.44    0.91
  -2  -7   5   28.00    0.85
   2   7  -6   26.53    0.87
   2  -7   6   26.31    0.84
  -2  -7   6   25.98    0.82
   2  -7   7   14.67    0.55
   2   7  -7   13.89    0.56
  -2  -7   7   14.00    0.54
   2   7  -8    0.15    0.16
   2  -7   8    0.02    0.13
  -2  -7   8   -0.19    0.12
   2  -7   9    0.29    0.15
   2   7  -9    0.00    0.15
  -2  -7   9    0.12    0.17
   2  -7  10    0.50    0.26
   2  -7  10    0.63    0.15
   2   7 -10    0.51    0.17
  -2  -7  10    0.42    0.14
   2  -7  11   30.66    0.96
   2  -7  11   27.71    1.07
   2   7 -11   29.26    1.01
  -2  -7  11   29.39    1.00
   2  -7  12    5.83    0.37
   2  -7  12    5.47    0.51
  -2  -7  12    5.72    0.40
   2  -7  13    0.56    0.32
   2  -7  13   -0.22    0.18
  -2  -7  13    0.37    0.11
  -2  -7  13    0.36    0.19
   2  -7  14    0.10    0.20
   2  -7  14   -0.10    0.33
  -2  -7  14   -0.11    0.23
   2  -7  15    2.73    0.43
   2  -7  15    2.00    0.29
  -2  -7  15    2.49    0.38
   2  -7  16    1.47    0.30
   2  -7  16    1.19    0.48
  -2  -7  16    1.81    0.41
   2  -7  17    2.83    0.63
   2  -7  17    1.95    0.36
  -2  -7  17    2.45    0.47
   2  -7  18    0.15    0.52
   2  -7  18    0.56    0.35
  -2  -7  18    0.75    0.44
   2  -7  19   -0.41    0.39
   2  -7  19    0.50    0.51
  -2  -7  19   -0.24    0.54
   3   7  18    4.80    0.67
   3   7  18    4.36    0.59
  -3   7  18    5.41    0.71
  -3   7  18    4.70    0.67
   3   7  17    1.10    0.42
   3   7  17    0.52    0.40
  -3   7  17    1.13    0.47
  -3   7  17    0.76    0.38
   3   7  16   -0.12    0.33
   3   7  16    0.00    0.33
  -3   7  16    0.13    0.32
  -3   7  16   -0.28    0.41
   3   7  15    1.07    0.37
   3   7  15    0.66    0.32
  -3   7  15    0.93    0.32
  -3   7  15   -0.18    0.36
   3   7  14   -0.02    0.28
   3   7  14   -0.10    0.29
  -3   7  14   -0.28    0.32
  -3   7  14    0.13    0.31
   3   7  13    0.40    0.20
   3   7  13   -0.07    0.26
  -3   7  13    0.34    0.24
  -3   7  13   -0.18    0.28
   3   7  12   18.08    0.63
   3   7  12   17.22    0.78
  -3   7  12   17.60    0.82
  -3   7  12   18.78    0.70
   3   7  11   15.01    0.52
   3   7  11   13.74    0.73
  -3   7  11   14.61    0.60
  -3   7  11   15.07    0.73
   3   7  10    2.40    0.34
   3   7  10    2.15    0.21
  -3   7  10    2.32    0.26
  -3   7  10    3.32    0.43
   3   7   9    7.36    0.29
   3   7   9    6.10    0.46
  -3   7   9    6.49    0.37
  -3   7   9    6.41    0.49
   3   7   8    8.94    0.50
   3   7   8    9.66    0.33
  -3   7   8    9.01    0.49
  -3   7   8    8.81    0.43
   3   7   7   14.86    0.44
   3   7   7   14.34    0.64
  -3   7   7   14.73    0.55
  -3   7   7   13.33    0.43
  -3   7   7   14.37    0.61
  -3  -7  -7   14.62    0.54
   3   7   6    2.34    0.31
   3   7   6    3.12    0.15
  -3   7   6    2.99    0.30
  -3  -7  -6    2.80    0.26
  -3   7   6    2.77    0.25
  -3  -7  -6    3.01    0.26
   3   7   5    1.31    0.21
   3   7   5    1.64    0.15
   3   7   5    1.54    0.11
  -3   7   5    1.09    0.17
  -3   7   5    1.32    0.21
   3   7   4   10.52    0.49
   3   7   4   10.52    0.33
   3   7   4   10.30    0.32
  -3   7   4   10.30    0.47
  -3   7   4   10.52    0.44
   3   7   3    1.21    0.12
   3   7   3    1.14    0.19
   3   7   3    1.19    0.13
  -3   7   3    0.74    0.16
  -3   7   3    1.05    0.17
   3   7   2    1.87    0.22
   3   7   2    1.51    0.13
  -3  -7  -2    1.70    0.14
  -3   7   2    1.53    0.23
  -3   7   2    1.60    0.21
   3   7   1   19.32    0.55
   3  -7  -1   18.73    0.53
   3  -7  -1   19.35    0.75
   3   7   1   18.36    0.65
   3  -7  -1   19.14    0.75
  -3   7   1   18.66    0.66
  -3  -7  -1   19.42    0.57
   3  -7   0   14.47    0.62
   3   7   0   14.23    0.44
   3  -7   0   13.99    0.61
   3   7   0   14.34    0.52
  -3   7   0   13.15    0.53
  -3  -7   0   14.07    0.46
   3   7  -1   18.70    0.61
   3   7  -1   18.72    0.57
   3  -7   1   19.34    0.73
   3   7  -1   19.35    0.75
  -3  -7   1   19.02    0.60
   3   7  -2    2.08    0.29
   3  -7   2    2.01    0.26
   3   7  -2    1.64    0.18
  -3  -7   2    1.34    0.18
   3   7  -3    1.18    0.15
   3  -7   3    1.13    0.19
   3   7  -3    1.11    0.19
  -3  -7   3    0.84    0.14
   3  -7   4   10.30    0.48
   3   7  -4    9.58    0.31
   3   7  -4   10.02    0.48
  -3  -7   4    9.99    0.41
   3   7  -5    1.12    0.18
   3  -7   5    1.03    0.17
  -3  -7   5    1.17    0.17
   3   7  -6    2.97    0.29
   3  -7   6    2.82    0.28
  -3  -7   6    2.95    0.27
   3  -7   7   14.37    0.59
   3   7  -7   14.11    0.58
  -3  -7   7   14.10    0.58
   3  -7   8    8.97    0.46
   3   7  -8    8.91    0.45
  -3  -7   8    8.83    0.49
   3  -7   9    6.77    0.38
   3   7  -9    6.00    0.39
  -3  -7   9    5.88    0.40
   3  -7  10    2.22    0.28
   3   7 -10    1.76    0.26
  -3  -7  10    1.57    0.23
   3  -7  11   13.47    0.59
   3  -7  11   13.75    0.75
   3   7 -11   13.42    0.65
  -3  -7  11   14.29    0.64
   3   7 -12   17.47    0.78
   3  -7  12   15.31    0.85
   3  -7  12   16.55    0.68
  -3  -7  12   17.52    0.76
   3  -7  13    0.89    0.38
   3  -7  13    0.09    0.20
  -3  -7  13    0.31    0.22
   3  -7  14    0.02    0.23
   3  -7  14    0.91    0.49
  -3  -7  14   -0.33    0.27
   3  -7  15    0.74    0.61
   3  -7  15    0.51    0.24
  -3  -7  15    0.39    0.33
   3  -7  16   -0.13    0.26
   3  -7  16    0.54    0.51
  -3  -7  16   -0.35    0.34
   3  -7  17    0.54    0.31
   3  -7  17    0.85    0.56
  -3  -7  17    0.83    0.42
   3  -7  18    4.54    0.60
   3  -7  18    5.64    0.72
  -3  -7  18    5.56    0.72
   4   7  18    0.87    0.50
  -4   7  18    0.77    0.51
  -4   7  18    0.14    0.59
   4   7  17    2.26    0.52
  -4   7  17    0.59    0.45
  -4   7  17    0.93    0.52
   4   7  16    4.18    0.46
   4   7  16    3.13    0.49
  -4   7  16    3.91    0.53
  -4   7  16    4.15    0.49
   4   7  15    2.40    0.43
   4   7  15    2.38    0.37
  -4   7  15    3.11    0.43
  -4   7  15    2.66    0.46
   4   7  14    0.37    0.31
   4   7  14   -0.13    0.32
  -4   7  14    0.98    0.38
  -4   7  14   -0.09    0.33
   4   7  13    5.67    0.39
   4   7  13    5.73    0.55
  -4   7  13    5.05    0.56
  -4   7  13    4.63    0.59
   4   7  12   -0.01    0.28
   4   7  12   -0.09    0.16
  -4   7  12   -0.05    0.31
  -4   7  12   -0.07    0.23
   4   7  11    1.26    0.30
   4   7  11    1.31    0.19
  -4   7  11    1.24    0.24
  -4   7  11    0.66    0.29
   4   7  10    1.77    0.21
   4   7  10    2.08    0.36
  -4   7  10    1.53    0.25
  -4   7  10    1.48    0.32
   4   7   9   11.59    0.41
   4   7   9   11.17    0.70
  -4   7   9   11.76    0.53
  -4   7   9   11.77    0.63
   4   7   8    0.25    0.24
   4   7   8    0.40    0.11
  -4   7   8   -0.08    0.23
  -4   7   8    0.42    0.18
   4   7   7    1.94    0.31
   4   7   7    1.88    0.17
  -4   7   7    1.11    0.27
  -4   7   7    2.18    0.26
   4   7   6    0.61    0.22
   4   7   6    0.52    0.11
   4   7   6    0.89    0.16
  -4   7   6    0.47    0.18
  -4   7   6    0.66    0.24
   4   7   5    0.31    0.13
   4   7   5    0.26    0.22
   4   7   5    0.41    0.11
  -4   7   5    0.18    0.17
  -4   7   5    0.39    0.16
   4   7   4    8.42    0.34
   4   7   4    9.18    0.35
   4   7   4    9.07    0.50
  -4   7   4    9.02    0.44
  -4   7   4    8.84    0.48
   4   7   3    0.25    0.19
   4   7   3    0.45    0.13
   4   7   3    0.51    0.12
  -4   7   3    0.68    0.18
  -4   7   3    0.47    0.18
   4  -7  -2    3.83    0.15
   4   7   2    3.63    0.24
   4   7   2    3.84    0.35
  -4   7   2    4.01    0.31
  -4   7   2    3.97    0.31
  -4  -7  -2    3.60    0.24
   4  -7  -1    2.49    0.32
   4   7   1    2.34    0.23
   4   7   1    2.32    0.28
   4  -7  -1    2.40    0.35
  -4  -7  -1    2.92    0.22
  -4   7   1    2.39    0.27
   4  -7   0    0.50    0.22
   4  -7   0    0.07    0.19
   4   7   0   -0.09    0.15
  -4  -7   0   -0.06    0.12
   4   7  -1    2.24    0.30
   4  -7   1    2.53    0.32
   4   7  -1    2.87    0.28
  -4  -7   1    2.49    0.24
   4   7  -2    3.71    0.29
   4   7  -2    4.45    0.37
   4  -7   2    4.33    0.37
  -4  -7   2    3.88    0.28
   4   7  -3    0.58    0.16
   4   7  -3    0.64    0.20
   4  -7   3    0.39    0.18
  -4  -7   3    0.71    0.15
   4   7  -4    8.89    0.37
   4  -7   4    9.23    0.50
   4   7  -4    8.77    0.48
  -4  -7   4    9.13    0.42
   4   7  -5    0.41    0.13
   4  -7   5    0.13    0.19
   4   7  -5    0.51    0.19
  -4  -7   5    0.27    0.15
   4  -7   6    0.54    0.22
   4   7  -6    0.59    0.10
   4   7  -6    0.45    0.20
   4   7  -6    0.61    0.08
  -4  -7   6    0.60    0.18
   4   7  -7    1.62    0.25
   4  -7   7    2.17    0.30
  -4  -7   7    1.53    0.27
   4   7  -8    0.75    0.20
   4  -7   8    0.24    0.17
  -4  -7   8    0.17    0.19
   4  -7   9   12.11    0.55
   4   7  -9   10.53    0.53
  -4  -7   9   10.50    0.55
   4  -7  10    1.40    0.24
   4   7 -10    1.25    0.25
  -4  -7  10    1.20    0.25
   4   7 -11    0.72    0.30
   4  -7  11    0.57    0.21
   4  -7  11    0.63    0.41
  -4  -7  11    1.23    0.28
   4  -7  12    0.07    0.21
   4   7 -12    0.12    0.34
   4  -7  12    0.16    0.50
  -4  -7  12    0.41    0.26
   4  -7  13    5.55    0.48
   4  -7  13    4.72    0.71
   4   7 -13    5.98    0.59
  -4  -7  13    5.41    0.54
   4  -7  14    0.34    0.46
   4  -7  14    0.86    0.27
  -4  -7  14    0.70    0.32
   4  -7  15    2.50    0.34
   4  -7  15    2.09    0.56
  -4  -7  15    2.56    0.42
   4  -7  16    3.40    0.48
   4  -7  16    4.38    0.69
  -4  -7  16    3.24    0.54
   4  -7  17    1.48    0.34
   4  -7  17    1.31    0.63
  -4  -7  17    1.20    0.51
   4  -7  18    0.58    0.66
   4  -7  18    0.94    0.40
  -4  -7  18    0.28    0.57
   5   7  17    1.83    0.53
  -5   7  17    0.49    0.62
  -5   7  17    0.97    0.50
   5   7  16   -0.19    0.47
  -5   7  16   -0.49    0.43
  -5   7  16    0.13    0.50
   5   7  15    1.37    0.45
   5   7  15    2.19    0.57
  -5   7  15    0.84    0.42
  -5   7  15    1.83    0.51
   5   7  14    0.34    0.34
   5   7  14    1.15    0.44
  -5   7  14    0.28    0.39
  -5   7  14   -0.15    0.39
   5   7  13    4.25    0.59
   5   7  13    4.66    0.46
  -5   7  13    6.10    0.67
  -5   7  13    4.68    0.66
   5   7  12   -0.31    0.18
   5   7  12   -0.06    0.32
  -5   7  12   -0.42    0.34
  -5   7  12   -0.08    0.35
   5   7  11    0.51    0.33
   5   7  11    1.01    0.18
  -5   7  11    0.67    0.34
  -5   7  11    0.80    0.36
   5   7  10    7.89    0.62
   5   7  10    8.18    0.38
  -5   7  10    8.55    0.54
  -5   7  10    7.83    0.63
   5   7   9   13.33    0.75
   5   7   9   14.05    0.50
  -5   7   9   13.61    0.72
  -5   7   9   13.32    0.64
   5   7   8    1.40    0.21
   5   7   8    1.34    0.38
  -5   7   8    1.34    0.27
  -5   7   8    1.07    0.28
   5   7   7    8.03    0.65
   5   7   7    7.81    0.36
  -5   7   7    8.13    0.48
  -5   7   7    8.56    0.54
   5   7   6    5.85    0.49
   5   7   6    5.60    0.30
  -5   7   6    4.94    0.39
  -5   7   6    4.64    0.40
   5   7   5    2.04    0.33
   5   7   5    2.08    0.25
  -5   7   5    2.17    0.31
  -5   7   5    2.36    0.36
   5   7   4    3.35    0.40
   5   7   4    3.38    0.30
  -5   7   4    2.79    0.34
  -5   7   4    3.23    0.33
   5   7   3    7.23    0.40
   5   7   3    7.05    0.48
  -5   7   3    6.26    0.44
  -5   7   3    6.47    0.43
   5   7   2    4.52    0.36
   5   7   2    4.63    0.36
   5   7   2    4.38    0.40
  -5   7   2    4.26    0.40
   5   7   1    0.57    0.23
   5  -7  -1    0.25    0.28
   5  -7  -1    0.69    0.30
  -5  -7  -1    0.48    0.16
   5   7   0    0.18    0.21
   5  -7   0    0.55    0.29
   5  -7   0    0.13    0.27
  -5  -7   0    0.15    0.14
   5   7  -1    0.52    0.23
   5  -7   1    0.52    0.26
   5   7  -1    0.58    0.21
   5  -7   1    0.35    0.27
  -5  -7   1    0.35    0.16
   5  -7   2    4.25    0.43
   5   7  -2    4.77    0.36
   5   7  -2    5.02    0.44
  -5  -7   2    4.64    0.35
   5  -7   3    8.07    0.55
   5   7  -3    7.54    0.50
   5   7  -3    7.29    0.43
  -5  -7   3    8.02    0.44
   5   7  -4    2.88    0.33
   5  -7   4    3.44    0.40
   5   7  -4    3.60    0.37
  -5  -7   4    3.08    0.33
   5   7  -5    2.38    0.28
   5  -7   5    1.74    0.27
   5   7  -5    2.28    0.33
  -5  -7   5    2.09    0.30
   5   7  -6    4.85    0.39
   5   7  -6    5.32    0.32
   5  -7   6    4.86    0.42
  -5  -7   6    4.38    0.47
   5  -7   7    7.30    0.49
   5   7  -7    6.61    0.34
   5   7  -7    8.81    0.49
  -5  -7   7    7.58    0.52
   5   7  -8    1.13    0.26
   5  -7   8    1.32    0.26
  -5  -7   8    0.82    0.24
   5   7  -9   13.24    0.64
   5  -7   9   13.30    0.65
  -5  -7   9   13.83    0.69
   5   7 -10    7.52    0.55
   5  -7  10    8.59    0.53
  -5  -7  10    8.92    0.59
   5   7 -11    0.67    0.36
   5  -7  11   -0.18    0.41
   5  -7  11    0.80    0.26
  -5  -7  11    0.72    0.29
   5  -7  12    0.08    0.23
   5   7 -12    0.00    0.34
   5  -7  12   -0.39    0.41
  -5  -7  12    0.15    0.30
   5   7 -13    5.07    0.55
   5  -7  13    5.06    0.47
   5  -7  13    4.53    0.61
  -5  -7  13    5.31    0.61
   5  -7  14   -0.07    0.27
   5  -7  14    0.09    0.47
  -5  -7  14    0.32    0.39
   5  -7  15    1.50    0.57
   5  -7  15    1.68    0.32
  -5  -7  15    1.90    0.49
   5  -7  16    0.11    0.59
   5  -7  16    0.21    0.30
  -5  -7  16    0.37    0.51
   5  -7  17    1.02    0.39
   5  -7  17    1.45    0.70
  -5  -7  17    1.44    0.60
   6   7  16    0.14    0.58
  -6   7  16   -0.08    0.52
  -6   7  16    0.88    0.62
   6   7  15    1.64    0.53
  -6   7  15    0.19    0.56
  -6   7  15    0.94    0.51
   6   7  14   -0.58    0.44
  -6   7  14   -0.14    0.49
  -6   7  14   -0.11    0.45
   6   7  13    4.71    0.69
   6   7  13    5.40    0.71
  -6   7  13    3.91    0.56
  -6   7  13    4.12    0.55
   6   7  12    2.40    0.48
   6   7  12    2.84    0.33
  -6   7  12    2.52    0.48
  -6   7  12    2.71    0.50
   6   7  11    6.56    0.67
   6   7  11    5.64    0.40
  -6   7  11    5.70    0.67
  -6   7  11    7.58    0.74
   6   7  10    5.92    0.63
   6   7  10    5.67    0.36
  -6   7  10    4.82    0.65
  -6   7  10    4.65    0.63
   6   7   9    1.55    0.20
   6   7   9    1.61    0.39
  -6   7   9    1.35    0.37
  -6   7   9    0.82    0.32
   6   7   8    0.11    0.33
   6   7   8    0.29    0.17
  -6   7   8    0.26    0.29
  -6   7   8    0.30    0.32
   6   7   7   21.37    0.74
   6   7   7   21.46    1.03
  -6   7   7   20.68    0.92
  -6   7   7   20.63    0.90
   6   7   6    1.16    0.41
   6   7   6    1.36    0.21
  -6   7   6    1.51    0.31
  -6   7   6    1.32    0.28
   6   7   5    3.83    0.53
   6   7   5    4.80    0.35
  -6   7   5    3.19    0.44
  -6   7   5    3.33    0.44
   6   7   4    2.58    0.36
   6   7   4    2.99    0.41
  -6   7   4    3.34    0.42
   6   7   3    3.10    0.38
   6  -7  -3    3.77    0.24
   6   7   3    3.82    0.46
   6   7   3    3.74    0.38
  -6   7   3    3.46    0.40
   6   7   2   -0.36    0.21
   6   7   2   -0.23    0.26
   6   7   2    0.30    0.22
   6  -7  -1    2.01    0.36
   6   7   1    2.06    0.32
   6  -7  -1    1.47    0.32
  -6  -7  -1    1.46    0.23
   6   7   0    0.02    0.25
   6  -7   0   -0.26    0.25
   6  -7   0    0.08    0.27
  -6  -7   0    0.05    0.18
   6  -7   1    1.98    0.32
   6   7  -1    1.84    0.33
   6   7  -1    1.40    0.29
   6  -7   1    1.28    0.31
  -6  -7   1    1.56    0.24
   6   7  -2   -0.32    0.27
   6  -7   2   -0.05    0.26
   6   7  -2    0.15    0.24
  -6  -7   2    0.08    0.19
   6   7  -3    4.00    0.44
   6   7  -3    2.93    0.40
   6  -7   3    3.48    0.44
  -6  -7   3    3.61    0.45
   6  -7   4    4.18    0.44
   6   7  -4    2.72    0.41
   6   7  -4    3.02    0.33
  -6  -7   4    3.18    0.41
   6   7  -5    4.15    0.44
   6   7  -5    3.25    0.39
   6  -7   5    4.41    0.46
  -6  -7   5    4.17    0.49
   6  -7   6    1.31    0.29
   6   7  -6    1.19    0.29
   6   7  -6    1.09    0.26
  -6  -7   6    1.82    0.34
   6   7  -7   19.38    0.73
   6   7  -7   20.65    0.88
   6  -7   7   21.64    0.92
  -6  -7   7   21.82    0.92
   6  -7   8    0.51    0.28
   6   7  -8    0.32    0.23
   6   7  -8    0.42    0.28
  -6  -7   8    0.06    0.28
   6   7  -9    1.51    0.38
   6  -7   9    1.23    0.30
  -6  -7   9    1.01    0.32
   6  -7  10    5.16    0.52
   6   7 -10    5.80    0.67
  -6  -7  10    6.14    0.59
   6  -7  11    6.96    0.55
   6   7 -11    5.98    0.56
  -6  -7  11    4.18    0.61
   6  -7  12    3.27    0.57
   6   7 -12    2.73    0.42
   6  -7  12    1.80    0.38
  -6  -7  12    2.89    0.48
   6   7 -13    3.76    0.57
   6  -7  13    3.82    0.49
   6  -7  13    3.36    0.59
  -6  -7  13    4.56    0.57
   6  -7  14   -0.47    0.31
   6   7 -14   -0.01    0.40
  -6  -7  14   -0.86    0.45
   6  -7  15    0.77    0.35
   6  -7  15    0.65    0.58
  -6  -7  15    0.39    0.57
   6  -7  16    0.27    0.63
   6  -7  16    0.50    0.41
  -6  -7  16    0.58    0.59
   7   7  14   -0.91    0.51
  -7   7  14    0.27    0.64
  -7   7  14   -0.39    0.53
   7   7  13    1.98    0.58
  -7   7  13    2.40    0.63
  -7   7  13    2.65    0.61
   7   7  12    0.77    0.52
  -7   7  12    0.52    0.48
  -7   7  12    0.38    0.51
   7   7  11   -0.11    0.46
   7   7  11    0.08    0.40
  -7   7  11    0.35    0.45
  -7   7  11    0.26    0.42
   7   7  10   -0.18    0.44
   7   7  10    0.28    0.29
  -7   7  10    1.16    0.45
  -7   7  10    0.26    0.38
   7   7   9    0.34    0.25
   7   7   9    0.37    0.44
  -7   7   9    0.38    0.39
  -7   7   9    0.94    0.41
   7   7   8   -0.50    0.22
   7   7   8    0.26    0.43
  -7   7   8    0.14    0.34
   7   7   7    0.19    0.23
   7   7   7   -0.44    0.39
  -7   7   7    0.25    0.32
   7   7   6    2.74    0.47
   7   7   6    2.34    0.31
  -7   7   6    1.95    0.36
   7   7   5    0.07    0.25
   7   7   5   -0.40    0.39
  -7   7   5    0.08    0.29
   7   7   4    9.45    0.83
   7   7   4    9.52    0.56
  -7   7   4    8.15    0.61
   7  -7  -3    1.61    0.23
   7   7   3    1.98    0.35
   7   7   3    1.96    0.52
  -7   7   3    2.29    0.34
   7   7   2    1.53    0.43
   7   7   2    1.14    0.35
   7  -7  -2    0.81    0.37
   7   7   2    0.82    0.32
   7  -7  -2    1.39    0.41
   7  -7  -1    6.28    0.65
   7  -7  -1    6.95    0.67
   7   7   1    6.82    0.61
  -7  -7  -1    7.86    0.55
   7  -7   0   37.86    1.47
   7   7   0   37.12    1.37
   7  -7   0   36.95    1.46
  -7  -7   0   37.74    1.28
   7   7  -1    6.41    0.71
   7   7  -1    6.06    0.56
   7  -7   1    6.32    0.61
   7  -7   1    6.54    0.60
  -7  -7   1    6.18    0.64
   7  -7   2    1.15    0.37
   7   7  -2    0.89    0.42
   7   7  -2    1.13    0.34
  -7  -7   2    1.56    0.36
   7   7  -3    2.46    0.38
   7   7  -3    2.65    0.45
   7  -7   3    1.21    0.37
  -7  -7   3    2.26    0.35
   7   7  -4   10.36    0.71
   7  -7   4    8.33    0.68
   7   7  -4    9.11    0.60
  -7  -7   4    9.09    0.62
   7   7  -5   -0.10    0.36
   7   7  -5    0.18    0.31
   7  -7   5    0.18    0.31
  -7  -7   5    0.49    0.31
   7   7  -6    2.08    0.35
   7  -7   6    1.81    0.37
   7   7  -6    1.61    0.44
  -7  -7   6    2.19    0.38
   7  -7   7   -0.12    0.32
   7   7  -7   -0.50    0.30
   7   7  -7    0.15    0.40
  -7  -7   7   -0.42    0.29
   7   7  -8    0.07    0.44
   7  -7   8   -0.46    0.30
  -7  -7   8   -0.40    0.31
   7   7  -9    0.29    0.37
  -7  -7   9    0.60    0.37
   7   7 -10    0.24    0.37
   7  -7  10    0.18    0.34
  -7  -7  10    0.61    0.38
   7  -7  11    0.22    0.35
   7  -7  11   -0.33    0.50
   7   7 -11    0.03    0.38
  -7  -7  11   -0.07    0.39
   7  -7  12   -0.02    0.37
   7   7 -12   -0.20    0.37
   7  -7  12   -0.67    0.50
  -7  -7  12   -0.54    0.44
   7  -7  13    1.87    0.43
   7  -7  13    1.14    0.59
   7   7 -13    1.66    0.43
  -7  -7  13    1.90    0.54
   7  -7  14   -0.42    0.36
   7  -7  14    0.15    0.60
   7   7 -14   -0.38    0.47
  -7  -7  14   -1.25    0.54
   8   7  12   -0.05    0.58
  -8   7  12    0.35    0.61
   8   7  11    1.24    0.57
  -8   7  11    1.55    0.58
   8   7  10    0.32    0.53
  -8   7  10   -0.37    0.48
   8   7   9    1.01    0.40
   8   7   9    0.81    0.50
  -8   7   9    0.85    0.49
   8   7   8    1.06    0.50
   8   7   8    0.35    0.36
  -8   7   8    0.63    0.40
   8   7   7    3.38    0.57
   8   7   7    4.38    0.66
  -8   7   7    3.53    0.53
   8   7   6   -0.12    0.45
   8   7   6   -0.24    0.39
  -8   7   6   -0.11    0.37
   8   7   5    0.60    0.46
   8   7   5   -0.13    0.39
  -8   7   5    0.41    0.39
   8   7   4    1.81    0.43
   8   7   4    1.89    0.48
  -8   7   4    1.30    0.38
   8  -7  -3    0.41    0.46
   8   7   3    0.48    0.45
   8   7   3    0.55    0.36
   8  -7  -3    0.16    0.45
  -8   7   3    0.43    0.32
   8  -7  -2    9.74    0.87
   8   7   2    9.66    0.75
   8  -7  -2   10.32    0.87
   8   7   2    9.29    0.73
   8   7   2   11.55    0.86
   8  -7  -1   24.09    1.23
   8   7   1   22.66    1.07
   8   7   1   22.92    1.06
   8   7   1   25.62    1.25
   8  -7  -1   24.61    1.23
   8   7   0   -0.25    0.55
   8  -7   0    0.48    0.41
   8  -7   0   -0.33    0.41
   8   7   0    0.81    0.44
  -8  -7   0   -0.16    0.32
   8  -7   1   24.78    1.22
   8   7  -1   25.69    1.25
   8   7  -1   24.50    1.22
  -8  -7   1   24.66    1.05
   8  -7   2    8.26    0.80
   8   7  -2   10.45    0.79
   8   7  -2    9.80    0.83
  -8  -7   2   10.54    0.72
   8  -7   3    0.04    0.39
   8   7  -3    0.84    0.38
   8   7  -3    1.08    0.45
  -8  -7   3    1.12    0.37
   8   7  -4    3.05    0.42
   8  -7   4    1.59    0.46
   8   7  -4    2.18    0.50
  -8  -7   4    1.72    0.39
   8   7  -5   -0.29    0.40
   8  -7   5   -0.22    0.39
   8   7  -5   -0.04    0.37
  -8  -7   5    0.62    0.34
   8   7  -6    0.14    0.37
   8   7  -6    0.08    0.38
   8  -7   6    0.26    0.38
  -8  -7   6    0.00    0.38
   8  -7   7    4.60    0.66
   8   7  -7    4.27    0.62
  -8  -7   7    2.99    0.48
   8  -7   8    1.18    0.41
   8   7  -8    0.10    0.38
  -8  -7   8    0.70    0.41
   8  -7   9    0.38    0.41
   8   7  -9    0.67    0.37
  -8  -7   9    0.75    0.42
   8   7 -10    0.19    0.41
   8  -7  10   -0.27    0.39
  -8  -7  10    0.11    0.45
   8  -7  11    1.83    0.62
   8   7 -11    0.55    0.46
   8  -7  11    0.97    0.43
  -8  -7  11    0.84    0.52
   8  -7  12    1.52    0.63
   8  -7  12    0.82    0.44
   8   7 -12    0.90    0.49
  -8  -7  12    0.10    0.58
   9   7  10    0.42    0.60
  -9   7  10   -0.11    0.61
   9   7   9    0.42    0.61
  -9   7   9    0.92    0.62
   9   7   8    0.76    0.59
  -9   7   8    0.76    0.55
   9   7   7    1.57    0.50
   9   7   7    1.75    0.59
  -9   7   7    0.70    0.51
   9   7   6    1.35    0.55
   9   7   6    1.34    0.47
  -9   7   6    0.98    0.46
   9   7   5    0.27    0.53
  -9   7   5   -0.20    0.42
   9  -7  -4    0.44    0.58
   9   7   4   -0.77    0.50
   9  -7  -4   -0.84    0.58
   9   7   4   -0.04    0.41
  -9   7   4    0.19    0.44
   9  -7  -3    0.81    0.56
   9   7   3   -0.15    0.41
   9  -7  -3    0.77    0.58
   9   7   3    0.62    0.52
   9   7   2    0.14    0.42
   9  -7  -2   -0.19    0.53
   9   7   2   -0.04    0.41
   9   7   2    0.28    0.43
   9  -7  -2    0.53    0.55
   9   7   1    0.87    0.45
   9   7   1    1.90    0.50
   9   7   1    1.59    0.45
   9  -7  -1    0.27    0.52
   9  -7  -1    1.02    0.58
   9  -7   0    0.47    0.49
   9   7   0   -0.21    0.45
   9   7   0   -0.59    0.46
   9   7   0    0.49    0.43
   9   7   0    1.97    0.51
   9  -7   0    0.61    0.50
   9   7  -1    0.98    0.49
   9   7  -1    1.56    0.51
   9  -7   1    0.93    0.47
  -9  -7   1    1.10    0.46
   9  -7   2    0.78    0.48
   9   7  -2    0.25    0.46
   9   7  -2   -0.12    0.49
  -9  -7   2    0.28    0.45
   9  -7   3    0.32    0.45
   9   7  -3    0.43    0.45
   9   7  -3    0.92    0.59
  -9  -7   3    0.54    0.43
   9  -7   4    0.10    0.47
   9   7  -4    0.73    0.60
   9   7  -4    0.33    0.44
  -9  -7   4   -0.38    0.41
   9   7  -5   -0.03    0.52
   9   7  -5   -0.47    0.42
   9  -7   5   -0.08    0.49
  -9  -7   5    0.12    0.46
   9  -7   6    1.62    0.50
   9   7  -6   -0.14    0.41
  -9  -7   6    0.77    0.44
   9   7  -7    1.10    0.44
   9  -7   7    1.75    0.54
  -9  -7   7    1.08    0.49
   9   7  -8    0.19    0.46
   9  -7   8    1.97    0.53
  -9  -7   8    0.71    0.52
   9   7  -9    0.27    0.48
   9  -7   9    0.66    0.53
  -9  -7   9    0.36    0.58
   9   7 -10   -0.46    0.51
   9  -7  10   -0.30    0.51
  -9  -7  10   -0.01    0.67
  10   7   6   -0.10    0.62
 -10   7   6   -0.50    0.61
  10  -7  -5   -0.29    0.75
  10  -7  -5   -1.20    0.71
  10   7   5    0.16    0.89
  10   7   5   -0.78    0.58
  10   7   4    1.56    0.63
  10   7   4    0.72    0.57
  10  -7  -4    2.48    0.82
  10  -7  -4    1.70    0.79
  10   7   3   -0.46    0.54
  10   7   3   -0.21    0.56
  10  -7  -3   -0.35    0.72
  10  -7  -3    0.23    0.69
  10   7   2   -0.18    0.57
  10  -7  -2    0.31    0.72
  10  -7  -2    0.09    0.71
  10   7   2    0.87    0.53
  10   7   1   -0.20    0.53
  10   7   1    0.43    0.54
  10   7   1    0.33    0.57
  10  -7  -1   -0.12    0.65
  10   7   1    0.61    0.56
  10  -7  -1    0.09    0.66
  10  -7   0    0.45    0.62
  10   7   0   -0.39    0.56
  10   7   0   -0.45    0.56
  10   7   0    0.34    0.55
  10   7   0    0.83    0.59
  10   7  -1    0.06    0.57
  10  -7   1   -0.28    0.59
  10   7  -1   -0.59    0.57
  10   7  -1   -0.25    0.55
  10   7  -1    0.24    0.58
  10  -7   2    0.85    0.59
  10   7  -2   -0.63    0.56
  10   7  -2   -0.33    0.54
 -10  -7   2    1.00    0.58
  10   7  -3   -1.15    0.59
  10  -7   3   -0.92    0.70
  10   7  -3    0.13    0.54
 -10  -7   3    0.92    0.58
  10  -7   4    2.69    0.73
  10   7  -4    1.50    0.70
  10   7  -4    1.80    0.57
 -10  -7   4    0.39    0.56
  10  -7   5    0.34    0.66
  10   7  -5    0.87    0.54
 -10  -7   5    0.80    0.64
  10   7  -6    0.20    0.54
  10  -7   6   -0.30    0.65
 -10  -7   6    1.23    0.67
   0   8  19   -0.09    0.40
   0   8  19   -0.69    0.52
   0   8  18    0.70    0.33
   0   8  18    0.94    0.45
   0   8  17    1.54    0.32
   0   8  17    2.11    0.40
   0   8  16    3.84    0.43
   0   8  16    3.45    0.43
   0   8  15    8.44    0.60
   0   8  15    9.68    0.52
   0   8  14   11.21    0.67
   0   8  14   11.90    0.59
   0   8  13   10.91    0.63
   0   8  13    9.74    0.54
   0   8  12    6.10    0.40
   0   8  12    5.48    0.42
   0   8  11    3.31    0.33
   0   8  11    3.31    0.28
   0   8  10    0.28    0.15
   0   8  10    0.64    0.16
   0   8   9    7.03    0.36
   0   8   9    6.99    0.35
   0   8   8    2.04    0.23
   0   8   8    2.35    0.22
   0   8   7    1.90    0.20
   0   8   7    1.67    0.18
   0   8   6   81.02    2.08
   0  -8  -6   75.79    2.04
   0   8   6   80.71    2.10
   0   8   5   73.47    1.89
   0   8   5   72.86    1.92
   0  -8  -5   70.69    1.86
   0   8   4  309.44    7.59
   0   8   4  298.59    7.62
   0  -8  -4  305.96    7.58
   0  -8  -3    3.28    0.18
   0   8   3    3.45    0.20
   0   8   3    3.40    0.18
   0   8   2   63.38    1.67
   0   8   2   62.73    1.74
   0  -8  -2   63.54    1.64
   0  -8  -2   64.00    1.66
   0   8   1   23.55    0.67
   0  -8  -1   23.44    0.67
   0   8   1   22.76    0.74
   0   8   1   23.17    0.69
   0   8   1   23.76    0.69
   0   8   0    5.26    0.25
   0   8   0    5.09    0.28
   0  -8   0    5.43    0.23
   0   8   0    5.41    0.23
   0  -8   1   22.54    0.65
   0   8  -1   21.32    0.64
   0   8  -1   23.25    0.68
   0   8  -1   22.50    0.71
   0   8  -2   64.09    1.71
   0   8  -2   62.94    1.64
   0  -8   2   61.94    1.64
   0   8  -2   61.99    1.68
   0   8  -3    3.66    0.20
   0  -8   3    3.80    0.20
   0   8  -3    3.58    0.25
   0  -8   4  290.21    7.45
   0   8  -4  305.64    7.52
   0   8  -5   70.76    1.93
   0  -8   5   70.65    1.87
   0  -8   6   78.70    2.06
   0   8  -6   76.22    2.11
   0  -8   7    1.31    0.19
   0   8  -7    1.77    0.20
   0  -8   8    2.04    0.22
   0  -8   8    2.04    0.26
   0  -8   9    6.52    0.37
   0  -8   9    6.94    0.38
   0  -8  10    0.42    0.13
   0  -8  10    0.30    0.19
   0  -8  11    3.46    0.34
   0  -8  11    2.97    0.28
   0  -8  12    5.36    0.37
   0  -8  12    5.23    0.38
   0  -8  13    9.83    0.51
   0  -8  13    9.89    0.50
   0  -8  14   11.34    0.58
   0  -8  14   10.22    0.53
   0  -8  15    7.18    0.45
   0  -8  15    8.20    0.55
   0  -8  16    3.69    0.50
   0  -8  16    2.86    0.36
   0  -8  17    1.45    0.36
   0  -8  18    1.12    0.40
   0  -8  19    0.87    0.49
   1   8  19    0.59    0.41
   1   8  19    0.16    0.55
  -1   8  19    0.58    0.56
  -1   8  19   -0.02    0.40
   1   8  18   -0.06    0.35
   1   8  18   -0.02    0.45
  -1   8  18    0.06    0.36
  -1   8  18   -0.45    0.44
   1   8  17    1.26    0.38
   1   8  17    0.08    0.30
  -1   8  17    0.47    0.31
  -1   8  17    0.48    0.40
   1   8  16   -0.13    0.25
   1   8  16    0.09    0.33
  -1   8  16   -0.07    0.35
  -1   8  16   -0.31    0.25
   1   8  15    3.72    0.51
   1   8  15    3.74    0.43
  -1   8  15    3.31    0.40
  -1   8  15    2.99    0.43
   1   8  14    1.44    0.27
   1   8  14    2.00    0.35
  -1   8  14    1.55    0.30
  -1   8  14    0.96    0.30
   1   8  13    1.14    0.24
   1   8  13    1.52    0.29
  -1   8  13    0.92    0.25
  -1   8  13    0.91    0.32
   1   8  12   12.29    0.53
   1   8  12   12.99    0.61
  -1   8  12   11.91    0.65
  -1   8  12   12.71    0.54
   1   8  11    9.84    0.45
   1   8  11    9.23    0.48
  -1   8  11    9.90    0.52
  -1   8  11    9.55    0.45
   1   8  10    4.08    0.32
   1   8  10    3.65    0.28
  -1   8  10    3.39    0.33
  -1   8  10    3.41    0.27
   1   8   9    6.79    0.32
   1   8   9    7.00    0.38
  -1   8   9    6.97    0.34
  -1   8   9    6.95    0.39
   1   8   8   12.61    0.51
   1   8   8   12.16    0.44
  -1   8   8   11.54    0.50
  -1   8   8   13.02    0.48
   1   8   7   97.27    2.46
   1   8   7   94.49    2.55
  -1  -8  -7   91.44    2.42
  -1   8   7   95.77    2.52
  -1   8   7   98.55    2.55
   1   8   6   46.36    1.21
   1   8   6   45.88    1.30
  -1  -8  -6   44.21    1.18
  -1   8   6   46.35    1.30
  -1   8   6   45.31    1.28
   1   8   5   93.60    2.43
   1   8   5   93.73    2.33
  -1   8   5   92.01    2.41
  -1   8   5   93.25    2.43
  -1  -8  -5   87.70    2.30
   1   8   4   37.43    1.06
   1   8   4   37.82    0.95
  -1   8   4   37.21    1.06
  -1   8   4   37.53    1.05
  -1  -8  -4   35.39    0.93
   1  -8  -3  119.88    3.15
   1   8   3  122.56    3.15
  -1   8   3  126.02    3.16
  -1   8   3  122.78    3.15
  -1   8   3  122.78    3.16
   1   8   2   23.45    0.68
   1  -8  -2   22.43    0.70
   1  -8  -2   23.24    0.74
   1  -8  -2   23.55    0.75
  -1   8   2   23.39    0.70
  -1   8   2   23.33    0.69
   1   8   1   49.43    1.42
   1   8   1   49.83    1.25
   1  -8  -1   48.62    1.36
   1   8   1   49.77    1.29
   1  -8  -1   48.41    1.32
  -1   8   1   49.79    1.31
  -1  -8  -1   41.26    1.22
  -1   8   1   50.04    1.32
   1   8   0   -0.09    0.13
   1  -8   0   -0.20    0.09
   1   8   0   -0.07    0.06
   1   8   0   -0.06    0.06
  -1   8   0    0.04    0.09
  -1   8   0    0.06    0.09
  -1   8   0    0.20    0.13
  -1   8   0   -0.11    0.13
  -1  -8   0    0.01    0.04
   1   8  -1   50.48    1.27
   1   8  -1   49.51    1.29
   1  -8   1   48.62    1.36
   1   8  -1   48.58    1.41
  -1   8  -1   48.46    1.32
  -1  -8   1   48.00    1.26
  -1   8  -1   48.31    1.33
   1  -8   2   22.64    0.72
   1   8  -2   22.98    0.66
   1   8  -2   23.79    0.63
   1   8  -2   22.64    0.76
  -1  -8   2   22.88    0.65
  -1   8  -2   23.16    0.70
  -1   8  -2   23.64    0.70
   1  -8   3  118.39    3.11
   1   8  -3  123.23    3.17
   1   8  -3  121.77    3.01
  -1  -8   3  116.92    3.05
  -1   8  -3  119.38    3.09
  -1   8  -3  120.86    3.11
   1  -8   4   36.16    1.06
   1   8  -4   37.05    0.96
   1   8  -4   36.36    1.10
  -1   8  -4   37.40    1.07
  -1  -8   4   35.87    0.94
  -1  -8   4   36.36    1.01
   1   8  -5   90.35    2.42
   1  -8   5   89.87    2.37
  -1  -8   5   90.56    2.24
  -1   8  -5   89.29    2.39
  -1  -8   5   88.52    2.34
   1  -8   6   44.80    1.28
   1   8  -6   45.10    1.33
  -1  -8   6   45.19    1.26
   1   8  -7   92.79    2.47
   1  -8   7   91.46    2.41
  -1  -8   7   87.89    2.28
  -1  -8   7   89.98    2.40
   1  -8   8   12.66    0.49
   1   8  -8   11.80    0.52
  -1  -8   8   12.04    0.48
  -1  -8   8   11.28    0.36
  -1  -8   8   11.32    0.36
   1  -8   9    5.39    0.35
   1   8  -9    6.46    0.39
  -1  -8   9    6.42    0.37
  -1  -8   9    6.42    0.25
   1  -8  10    3.46    0.39
   1  -8  10    3.04    0.26
  -1  -8  10    2.93    0.20
  -1  -8  10    3.26    0.26
   1  -8  11    8.56    0.52
   1  -8  11    8.63    0.42
  -1  -8  11    8.65    0.32
  -1  -8  11    8.78    0.43
   1  -8  12   11.81    0.52
   1  -8  12   11.19    0.60
  -1  -8  12   12.06    0.53
  -1  -8  12    9.87    0.38
   1  -8  13    0.87    0.19
   1  -8  13    0.70    0.28
  -1  -8  13    0.91    0.14
  -1  -8  13    1.07    0.23
   1  -8  14    1.04    0.24
   1  -8  14    1.38    0.32
  -1  -8  14    1.08    0.26
  -1  -8  14    1.50    0.16
   1  -8  15    4.19    0.43
   1  -8  15    3.45    0.40
  -1  -8  15    3.02    0.38
   1  -8  16   -0.19    0.32
   1  -8  16   -0.01    0.28
  -1  -8  16   -0.36    0.31
   1  -8  17   -0.37    0.32
   1  -8  17    0.60    0.34
  -1  -8  17    0.48    0.35
   1  -8  18    0.18    0.36
  -1  -8  18    0.18    0.39
   1  -8  19    0.69    0.46
  -1  -8  19    0.39    0.51
   2   8  19    3.07    0.91
   2   8  19    2.54    0.50
  -2   8  19    3.19    0.52
  -2   8  19    2.21    0.63
   2   8  18    0.56    0.38
   2   8  18    0.45    0.47
  -2   8  18    0.92    0.49
  -2   8  18    0.76    0.37
   2   8  17    0.79    0.32
   2   8  17   -0.29    0.39
  -2   8  17   -0.24    0.31
  -2   8  17    0.37    0.42
   2   8  16    1.40    0.33
   2   8  16    1.69    0.36
  -2   8  16    2.14    0.40
  -2   8  16    1.96    0.34
   2   8  15    0.36    0.28
   2   8  15    1.15    0.33
  -2   8  15    0.87    0.36
  -2   8  15    0.64    0.27
   2   8  14   -0.32    0.23
   2   8  14    0.19    0.29
  -2   8  14    0.00    0.29
  -2   8  14    0.12    0.25
   2   8  13    3.76    0.40
   2   8  13    3.10    0.35
  -2   8  13    4.51    0.51
  -2   8  13    2.83    0.37
   2   8  12    1.87    0.23
   2   8  12    2.95    0.37
  -2   8  12    2.41    0.36
  -2   8  12    2.81    0.30
   2   8  11    0.69    0.16
   2   8  11    1.15    0.25
  -2   8  11    0.65    0.29
   2   8  10   13.24    0.61
   2   8  10   12.53    0.47
  -2   8  10   12.58    0.62
  -2   8  10   12.46    0.51
   2   8   9    4.18    0.36
   2   8   9    4.19    0.25
  -2   8   9    4.46    0.34
  -2   8   9    3.55    0.28
   2   8   8    6.88    0.28
   2   8   8    6.87    0.39
  -2   8   8    6.95    0.40
  -2   8   8    7.17    0.35
  -2  -8  -8    6.17    0.31
   2   8   7   29.28    0.97
   2   8   7   29.71    0.81
  -2   8   7   29.75    0.91
  -2   8   7   29.84    0.96
  -2  -8  -7   28.66    0.82
   2   8   6   52.37    1.52
   2   8   6   52.88    1.34
  -2   8   6   52.00    1.47
  -2  -8  -6   51.27    1.36
  -2   8   6   52.79    1.51
   2   8   5   35.55    1.08
  -2   8   5   35.41    1.08
  -2   8   5   34.90    1.04
   2   8   4   60.86    1.69
  -2   8   4   61.56    1.69
  -2   8   4   60.34    1.56
  -2   8   4   60.65    1.67
   2   8   3   30.38    0.92
  -2   8   3   30.88    0.81
  -2   8   3   30.17    0.92
  -2   8   3   30.07    0.93
   2   8   2   38.44    1.12
  -2   8   2   39.78    1.03
  -2   8   2   40.29    1.15
  -2   8   2   39.30    1.14
   2  -8  -1    6.96    0.38
   2  -8  -1    7.10    0.38
   2   8   1    7.14    0.21
   2   8   1    7.16    0.30
  -2  -8  -1    6.27    0.23
  -2   8   1    6.86    0.33
  -2   8   1    7.08    0.25
   2   8   0   96.09    2.61
   2   8   0   96.85    2.39
   2   8   0   94.94    2.44
   2  -8   0   95.08    2.56
  -2   8   0   95.98    2.42
  -2   8   0   93.95    2.51
  -2  -8   0   91.22    2.40
   2   8  -1    6.39    0.25
   2   8  -1    7.24    0.41
   2   8  -1    6.97    0.24
   2  -8   1    6.90    0.37
  -2   8  -1    6.94    0.33
  -2  -8   1    6.97    0.26
   2   8  -2   38.74    1.19
   2   8  -2   39.18    1.00
   2  -8   2   38.15    1.15
   2   8  -2   37.35    1.02
  -2   8  -2   37.90    1.12
  -2  -8   2   38.17    1.05
   2   8  -3   30.44    0.75
   2  -8   3   29.56    0.92
   2   8  -3   29.32    0.94
  -2  -8   3   24.35    0.79
  -2  -8   3   29.76    0.83
   2  -8   4   58.53    1.66
   2   8  -4   58.86    1.69
  -2  -8   4   59.09    1.59
   2   8  -5   34.93    1.09
   2  -8   5   34.20    1.05
  -2  -8   5   34.17    1.00
   2   8  -6   50.53    1.48
   2  -8   6   49.49    1.45
  -2  -8   6   50.80    1.42
   2  -8   7   28.42    0.91
   2   8  -7   27.82    0.94
  -2  -8   7   29.23    0.91
   2  -8   8    6.91    0.39
   2   8  -8    6.88    0.40
  -2  -8   8    6.66    0.37
   2   8  -9    3.95    0.33
   2  -8   9    3.70    0.29
  -2  -8   9    3.96    0.31
   2  -8  10   12.67    0.52
   2   8 -10   11.66    0.57
   2  -8  10   12.34    0.64
  -2  -8  10   12.33    0.54
   2   8 -11    0.51    0.23
   2  -8  11    0.65    0.17
   2  -8  11    0.48    0.29
  -2  -8  11    0.83    0.19
   2  -8  12    2.20    0.29
   2  -8  12    2.79    0.41
  -2  -8  12    2.54    0.29
   2  -8  13    3.06    0.42
   2  -8  13    3.37    0.35
  -2  -8  13    3.54    0.36
   2  -8  14    0.74    0.33
   2  -8  14    0.06    0.22
  -2  -8  14    0.36    0.24
   2  -8  15    0.10    0.24
   2  -8  15    0.16    0.36
  -2  -8  15    0.09    0.29
   2  -8  16    0.74    0.29
   2  -8  16    1.64    0.51
  -2  -8  16    1.56    0.39
   2  -8  17   -0.37    0.53
   2  -8  17    0.32    0.31
  -2  -8  17   -0.30    0.38
   2  -8  18   -0.06    0.55
   2  -8  18    0.76    0.35
  -2  -8  18    0.02    0.46
   2  -8  19    3.28    0.53
   2  -8  19    3.19    0.71
  -2  -8  19    3.03    0.63
   3   8  18    0.29    0.39
  -3   8  18    0.35    0.43
  -3   8  18    0.55    0.53
   3   8  17    2.29    0.44
   3   8  17    1.91    0.45
  -3   8  17    2.36    0.52
  -3   8  17    2.15    0.42
   3   8  16    0.54    0.35
   3   8  16    0.65    0.33
  -3   8  16    0.93    0.41
  -3   8  16    0.90    0.33
   3   8  15    1.87    0.37
   3   8  15    1.50    0.40
  -3   8  15    1.43    0.33
  -3   8  15    1.10    0.39
   3   8  14    4.30    0.45
   3   8  14    4.48    0.51
  -3   8  14    5.38    0.58
  -3   8  14    5.15    0.51
   3   8  13    7.70    0.42
   3   8  13    6.70    0.53
  -3   8  13    6.21    0.52
  -3   8  13    6.93    0.60
   3   8  12   10.99    0.61
   3   8  12   11.57    0.49
  -3   8  12   11.72    0.57
  -3   8  12   12.09    0.68
   3   8  11    0.17    0.24
   3   8  11    0.42    0.16
  -3   8  11    0.65    0.20
  -3   8  11    0.61    0.26
   3   8  10    0.26    0.12
   3   8  10    0.47    0.28
  -3   8  10    0.39    0.19
  -3   8  10    0.10    0.25
   3   8   9    6.15    0.46
   3   8   9    7.26    0.29
  -3   8   9    6.90    0.39
  -3   8   9    7.12    0.52
   3   8   8    0.40    0.09
   3   8   8    0.41    0.21
  -3   8   8    0.56    0.16
  -3   8   8    0.55    0.22
  -3  -8  -8    0.38    0.20
   3   8   7    5.52    0.21
   3   8   7    5.46    0.39
  -3   8   7    5.38    0.33
  -3  -8  -7    5.33    0.32
  -3   8   7    5.43    0.38
   3   8   6   22.60    0.84
   3   8   6   23.21    0.61
   3   8   6   22.80    0.64
  -3   8   6   22.77    0.82
  -3   8   6   22.72    0.78
   3   8   5    0.87    0.13
   3   8   5    0.86    0.20
   3   8   5    0.94    0.09
  -3   8   5    1.27    0.20
  -3   8   5    0.89    0.18
   3   8   4    3.18    0.13
   3   8   4    2.86    0.28
   3   8   4    3.40    0.14
  -3   8   4    2.97    0.26
  -3   8   4    3.30    0.29
   3   8   3   -0.03    0.06
   3   8   3    0.11    0.14
   3   8   3    0.05    0.07
  -3   8   3   -0.14    0.11
  -3   8   3    0.12    0.14
   3   8   2   40.03    1.20
   3   8   2   40.31    1.04
  -3  -8  -2   40.12    1.06
  -3   8   2   40.70    1.20
  -3   8   2   38.85    1.20
   3  -8  -1   22.43    0.84
   3  -8  -1   23.15    0.85
   3   8   1   22.65    0.74
   3   8   1   23.23    0.62
  -3  -8  -1   22.54    0.65
  -3   8   1   21.69    0.75
   3   8   0    0.25    0.17
   3  -8   0   -0.07    0.17
   3   8   0    0.09    0.07
   3  -8   0    0.00    0.16
   3   8   0   -0.02    0.11
  -3  -8   0    0.07    0.09
  -3   8   0   -0.10    0.12
   3   8  -1   22.43    0.69
   3   8  -1   22.94    0.85
   3   8  -1   21.33    0.64
   3  -8   1   22.56    0.82
  -3  -8   1   23.04    0.68
  -3   8  -1   21.38    0.75
   3   8  -2   39.92    1.24
   3   8  -2   34.41    1.04
   3  -8   2   38.72    1.21
  -3  -8   2   39.71    1.09
   3  -8   3    0.10    0.16
   3   8  -3   -0.04    0.16
   3   8  -3    0.14    0.09
  -3  -8   3   -0.09    0.10
   3  -8   4    2.90    0.30
   3   8  -4    3.28    0.14
   3   8  -4    2.96    0.30
  -3  -8   4    3.38    0.25
   3  -8   5    0.95    0.18
   3   8  -5    1.14    0.21
  -3  -8   5    0.98    0.16
   3   8  -6   23.09    0.81
   3  -8   6   22.40    0.81
  -3  -8   6   22.15    0.77
   3  -8   7    5.39    0.38
   3   8  -7    5.12    0.36
  -3  -8   7    4.82    0.34
   3  -8   8    0.32    0.17
   3   8  -8    0.47    0.18
  -3  -8   8    0.29    0.19
   3   8  -9    6.67    0.42
   3  -8   9    6.41    0.38
  -3  -8   9    6.71    0.40
   3  -8  10    0.45    0.17
   3   8 -10    0.35    0.20
  -3  -8  10    0.03    0.19
   3  -8  11    0.10    0.17
   3   8 -11    0.33    0.25
   3  -8  11   -0.11    0.30
  -3  -8  11   -0.01    0.19
   3   8 -12   11.03    0.66
   3  -8  12   11.38    0.54
   3  -8  12   10.11    0.72
  -3  -8  12   11.06    0.60
   3  -8  13    6.23    0.67
   3  -8  13    6.93    0.45
  -3  -8  13    5.91    0.50
   3  -8  14    5.02    0.65
   3  -8  14    4.46    0.43
  -3  -8  14    4.96    0.53
   3  -8  15    1.03    0.27
   3  -8  15    1.44    0.62
  -3  -8  15    1.25    0.37
   3  -8  16    0.98    0.52
   3  -8  16    0.13    0.29
  -3  -8  16    0.68    0.40
   3  -8  17    2.13    0.62
   3  -8  17    2.03    0.35
  -3  -8  17    2.28    0.49
   3  -8  18    0.92    0.62
   3  -8  18   -0.02    0.41
  -3  -8  18    0.02    0.55
   4   8  17    1.63    0.47
  -4   8  17    1.42    0.53
  -4   8  17    1.98    0.51
   4   8  16   -0.23    0.39
  -4   8  16   -0.17    0.42
  -4   8  16    0.22    0.39
   4   8  15    3.15    0.47
   4   8  15    3.20    0.46
  -4   8  15    3.18    0.49
  -4   8  15    3.93    0.56
   4   8  14    1.35    0.28
   4   8  14    1.74    0.39
  -4   8  14    2.08    0.36
  -4   8  14    0.77    0.40
   4   8  13   16.11    0.84
   4   8  13   17.30    0.64
  -4   8  13   15.75    0.88
  -4   8  13   15.55    0.82
   4   8  12    1.82    0.35
   4   8  12    1.51    0.21
  -4   8  12    1.43    0.37
  -4   8  12    1.38    0.34
   4   8  11    8.64    0.60
   4   8  11    8.59    0.38
  -4   8  11    7.98    0.63
  -4   8  11    9.01    0.55
   4   8  10   32.29    0.90
   4   8  10   30.34    1.18
  -4   8  10   31.09    1.06
  -4   8  10   30.90    1.15
   4   8   9    4.80    0.53
   4   8   9    5.19    0.26
  -4   8   9    5.42    0.49
  -4   8   9    4.77    0.39
   4   8   8    0.56    0.27
   4   8   8    0.19    0.09
   4   8   8   -0.37    0.29
  -4   8   8    0.26    0.24
  -4   8   8    0.61    0.19
   4   8   7    5.46    0.23
   4   8   7    4.84    0.44
   4   8   7    5.00    0.30
  -4   8   7    5.03    0.47
  -4   8   7    5.37    0.38
   4   8   6    8.82    0.30
   4   8   6    9.20    0.53
   4   8   6    8.33    0.34
  -4   8   6    7.94    0.52
  -4   8   6    8.16    0.45
   4   8   5    0.10    0.20
   4   8   5   -0.10    0.11
   4   8   5   -0.05    0.09
  -4   8   5   -0.27    0.16
  -4   8   5   -0.07    0.19
   4   8   4    2.12    0.19
   4   8   4    2.61    0.33
   4   8   4    2.11    0.19
  -4   8   4    2.27    0.31
  -4   8   4    2.39    0.28
   4   8   3    8.77    0.33
   4   8   3    8.68    0.47
   4   8   3    8.99    0.37
  -4   8   3    9.38    0.46
  -4   8   3    9.99    0.49
   4   8   2   36.27    1.00
   4   8   2   36.71    1.17
  -4   8   2   36.19    1.15
  -4  -8  -2   36.97    1.02
  -4   8   2   36.64    1.17
   4   8   1    4.16    0.33
   4  -8  -1    3.75    0.42
   4   8   1    3.84    0.24
   4  -8  -1    4.53    0.43
  -4   8   1    4.60    0.33
  -4  -8  -1    4.13    0.25
   4   8   0    3.65    0.30
   4  -8   0    3.43    0.40
   4  -8   0    3.26    0.40
  -4  -8   0    3.78    0.26
   4  -8   1    3.55    0.39
   4   8  -1    4.02    0.30
   4   8  -1    4.29    0.41
  -4  -8   1    4.33    0.28
   4   8  -2   37.12    1.25
   4   8  -2   36.57    1.09
   4  -8   2   37.40    1.25
  -4  -8   2   37.89    1.11
   4  -8   3    9.22    0.51
   4   8  -3    9.26    0.39
   4   8  -3    9.56    0.52
  -4  -8   3    9.94    0.44
   4   8  -4    2.63    0.21
   4   8  -4    2.11    0.31
   4  -8   4    2.62    0.35
  -4  -8   4    2.50    0.26
   4  -8   5    0.25    0.21
   4   8  -5    0.06    0.19
   4   8  -5   -0.12    0.09
  -4  -8   5   -0.19    0.15
   4   8  -6    8.37    0.46
   4  -8   6    7.70    0.48
  -4  -8   6    7.83    0.44
   4   8  -7    4.35    0.38
   4  -8   7    5.60    0.39
  -4  -8   7    5.07    0.45
   4   8  -8    0.27    0.20
   4  -8   8    0.21    0.17
  -4  -8   8    0.32    0.20
   4   8  -9    5.24    0.40
   4  -8   9    4.93    0.39
  -4  -8   9    5.37    0.41
   4  -8  10   29.32    1.02
   4   8 -10   29.68    1.05
  -4  -8  10   29.09    1.06
   4  -8  11    7.81    0.48
   4   8 -11    8.89    0.61
  -4  -8  11    7.45    0.54
   4  -8  12    1.21    0.57
   4   8 -12    1.96    0.38
   4  -8  12    1.48    0.26
  -4  -8  12    1.64    0.32
   4   8 -13   15.84    0.80
   4  -8  13   14.38    1.00
   4  -8  13   15.68    0.71
  -4  -8  13   15.67    0.80
   4  -8  14    1.48    0.49
   4  -8  14    2.08    0.32
  -4  -8  14    2.10    0.39
   4  -8  15    2.84    0.59
   4  -8  15    2.93    0.36
  -4  -8  15    4.70    0.61
   4  -8  16    0.38    0.58
   4  -8  16    0.20    0.30
  -4  -8  16    0.20    0.40
   4  -8  17    1.66    0.38
   4  -8  17    2.86    0.69
  -4  -8  17    2.10    0.63
   5   8  17   -0.59    0.50
  -5   8  17    0.26    0.62
   5   8  16    0.69    0.47
  -5   8  16    0.14    0.47
  -5   8  16   -0.83    0.49
   5   8  15    0.26    0.45
  -5   8  15    0.54    0.50
  -5   8  15    0.08    0.42
   5   8  14    2.78    0.50
  -5   8  14    2.77    0.53
  -5   8  14    2.82    0.46
   5   8  13    1.84    0.39
   5   8  13    1.67    0.25
  -5   8  13    2.04    0.39
  -5   8  13    2.07    0.44
   5   8  12    0.25    0.20
   5   8  12    0.28    0.32
  -5   8  12    0.28    0.36
  -5   8  12    0.72    0.39
   5   8  11    0.48    0.17
   5   8  11    1.41    0.38
  -5   8  11    0.88    0.34
  -5   8  11    0.75    0.42
   5   8  10    6.45    0.33
   5   8  10    6.64    0.59
  -5   8  10    6.57    0.54
  -5   8  10    7.45    0.61
   5   8   9   12.51    0.44
   5   8   9   11.14    0.69
  -5   8   9   11.27    0.62
  -5   8   9   11.24    0.68
   5   8   8    1.55    0.17
   5   8   8    1.63    0.33
  -5   8   8    1.58    0.31
  -5   8   8    1.57    0.29
   5   8   7    7.40    0.33
   5   8   7    7.99    0.64
  -5   8   7    7.19    0.53
  -5   8   7    7.46    0.48
   5   8   6    0.50    0.13
   5   8   6    0.54    0.26
  -5   8   6    0.48    0.23
  -5   8   6    0.79    0.22
   5   8   5   -0.23    0.25
   5   8   5    0.10    0.13
  -5   8   5   -0.33    0.21
  -5   8   5    0.36    0.20
   5   8   4    2.91    0.27
   5   8   4    3.01    0.37
  -5   8   4    2.21    0.31
  -5   8   4    2.46    0.34
   5   8   3    0.07    0.16
   5   8   3    0.25    0.22
  -5   8   3    0.11    0.19
  -5   8   3   -0.24    0.19
   5   8   2    6.80    0.47
   5   8   2    6.94    0.41
   5   8   2    5.95    0.40
   5  -8  -2    6.43    0.25
  -5   8   2    7.05    0.44
  -5  -8  -2    7.07    0.35
  -5   8   2    5.98    0.44
   5   8   1    1.30    0.25
   5  -8  -1    1.50    0.30
   5  -8  -1    0.88    0.29
  -5  -8  -1    1.15    0.19
   5  -8   0    0.08    0.27
   5   8   0   -0.01    0.19
   5  -8   0   -0.02    0.29
  -5  -8   0    0.06    0.14
   5   8  -1    0.99    0.23
   5   8  -1    0.93    0.27
   5  -8   1    0.99    0.25
  -5  -8   1    1.11    0.19
   5   8  -2    7.17    0.50
   5   8  -2    6.06    0.40
   5  -8   2    6.97    0.50
  -5  -8   2    6.85    0.40
   5   8  -3    0.17    0.22
   5  -8   3    0.34    0.24
   5   8  -3    0.00    0.18
  -5  -8   3    0.23    0.17
   5  -8   4    1.86    0.30
   5   8  -4    2.77    0.34
   5   8  -4    2.23    0.28
  -5  -8   4    2.94    0.31
   5   8  -5    0.18    0.16
   5  -8   5   -0.06    0.20
   5   8  -5    0.49    0.23
  -5  -8   5    0.14    0.22
   5   8  -6    0.40    0.15
   5   8  -6    0.34    0.22
   5  -8   6    0.53    0.21
  -5  -8   6    0.48    0.30
   5   8  -7    8.13    0.51
   5  -8   7    7.21    0.50
   5   8  -7    6.60    0.29
  -5  -8   7    7.14    0.51
   5   8  -8    1.78    0.27
   5  -8   8    1.73    0.28
  -5  -8   8    2.05    0.32
   5   8  -9   11.89    0.68
   5  -8   9   11.59    0.62
  -5  -8   9   11.10    0.65
   5   8 -10    6.69    0.59
   5  -8  10    6.86    0.49
  -5  -8  10    5.16    0.53
   5  -8  11    0.31    0.27
   5   8 -11    0.96    0.40
  -5  -8  11    0.63    0.29
   5   8 -12    0.53    0.33
   5  -8  12    0.93    0.45
   5  -8  12    0.42    0.25
  -5  -8  12    0.00    0.30
   5   8 -13    2.37    0.37
   5  -8  13    1.89    0.33
   5  -8  13    1.59    0.52
  -5  -8  13    1.99    0.42
   5  -8  14    2.45    0.54
   5  -8  14    2.31    0.35
   5   8 -14    2.83    0.44
  -5  -8  14    3.33    0.50
   5  -8  15    0.27    0.30
   5  -8  15   -0.51    0.50
  -5  -8  15    0.08    0.42
   5  -8  16    0.13    0.34
   5  -8  16   -0.38    0.61
  -5  -8  16    0.90    0.54
   5  -8  17    0.43    0.37
   5  -8  17   -0.51    0.69
  -5  -8  17    0.66    0.58
   6   8  15   -0.28    0.50
  -6   8  15    0.49    0.58
  -6   8  15    0.08    0.50
   6   8  14    0.28    0.48
  -6   8  14   -0.01    0.45
  -6   8  14    0.48    0.48
   6   8  13    0.31    0.42
  -6   8  13    0.44    0.45
  -6   8  13    0.10    0.42
   6   8  12    0.44    0.41
  -6   8  12   -0.78    0.39
  -6   8  12   -0.11    0.38
   6   8  11    0.00    0.20
   6   8  11    0.40    0.37
  -6   8  11    0.28    0.41
  -6   8  11   -0.24    0.35
   6   8  10    2.89    0.45
   6   8  10    3.27    0.32
  -6   8  10    3.32    0.47
  -6   8  10    4.37    0.60
   6   8   9    6.64    0.64
   6   8   9    7.97    0.39
  -6   8   9    7.20    0.63
  -6   8   9    8.09    0.72
   6   8   8    0.28    0.35
   6   8   8    0.46    0.17
  -6   8   8   -0.18    0.28
  -6   8   8    0.67    0.37
   6   8   7    0.17    0.17
   6   8   7    0.60    0.35
  -6   8   7    0.64    0.30
  -6   8   7    0.17    0.31
   6   8   6   -0.12    0.37
   6   8   6   -0.17    0.18
  -6   8   6    0.16    0.26
  -6   8   6    0.06    0.29
   6   8   5   13.00    0.56
   6   8   5   15.18    0.88
  -6   8   5   13.97    0.73
  -6   8   5   13.35    0.70
   6   8   4   10.91    0.52
   6   8   4   11.44    0.71
  -6   8   4   11.44    0.63
   6   8   3    4.26    0.37
   6   8   3    3.85    0.45
  -6   8   3    3.10    0.41
   6   8   2    0.15    0.27
   6   8   2    0.21    0.23
   6  -8  -2   -0.30    0.29
   6   8   2   -0.19    0.22
   6  -8  -2   -0.14    0.28
   6   8   1    0.57    0.27
   6  -8  -1    0.72    0.30
   6  -8  -1    1.11    0.30
  -6  -8  -1    0.42    0.21
   6  -8   0   17.18    0.82
   6  -8   0   16.14    0.81
   6   8   0   17.50    0.77
  -6  -8   0   16.48    0.66
   6  -8   1    0.70    0.29
   6   8  -1    0.52    0.27
   6   8  -1    0.91    0.30
  -6  -8   1    0.45    0.21
   6  -8   2   -0.10    0.25
   6   8  -2    0.19    0.29
   6   8  -2   -0.05    0.24
  -6  -8   2    0.11    0.19
   6  -8   3    3.85    0.44
   6   8  -3    2.98    0.39
   6   8  -3    3.95    0.45
  -6  -8   3    4.00    0.44
   6  -8   4   11.68    0.67
   6   8  -4   10.72    0.64
   6   8  -4   10.78    0.54
  -6  -8   4   11.15    0.67
   6  -8   5   14.32    0.73
   6   8  -5   11.45    0.58
   6   8  -5   13.43    0.71
  -6  -8   5   13.73    0.69
   6   8  -6   -0.09    0.22
   6  -8   6   -0.20    0.24
   6   8  -6    0.61    0.28
  -6  -8   6    0.41    0.27
   6   8  -7    0.37    0.32
   6  -8   7    0.68    0.30
   6   8  -7    0.08    0.21
  -6  -8   7    0.56    0.28
   6   8  -8    0.29    0.33
   6  -8   8    0.70    0.30
  -6  -8   8    0.41    0.29
   6  -8   9    6.29    0.56
   6   8  -9    7.25    0.69
  -6  -8   9    7.35    0.62
   6   8 -10    3.90    0.52
   6  -8  10    3.00    0.41
  -6  -8  10    4.26    0.56
   6  -8  11    0.52    0.29
   6   8 -11   -0.02    0.31
  -6  -8  11    0.17    0.36
   6   8 -12   -0.54    0.34
   6  -8  12    0.28    0.31
   6  -8  12    0.12    0.45
  -6  -8  12   -0.09    0.38
   6   8 -13    0.06    0.37
   6  -8  13    0.94    0.32
   6  -8  13   -0.36    0.51
  -6  -8  13    1.13    0.45
   6  -8  14    0.28    0.55
   6  -8  14   -0.40    0.34
   6   8 -14   -0.53    0.42
  -6  -8  14   -0.77    0.44
   6  -8  15   -0.33    0.36
   6  -8  15    0.44    0.59
  -6  -8  15    0.92    0.57
   7   8  14    0.50    0.57
  -7   8  14    1.01    0.59
  -7   8  14    0.22    0.62
   7   8  13    0.01    0.49
  -7   8  13   -0.64    0.51
  -7   8  13   -0.11    0.52
   7   8  12    0.35    0.50
  -7   8  12    0.33    0.48
  -7   8  12    0.65    0.47
   7   8  11    0.24    0.46
  -7   8  11    1.12    0.46
  -7   8  11    0.90    0.47
   7   8  10   -0.98    0.41
  -7   8  10   -0.03    0.42
  -7   8  10    0.07    0.39
   7   8   9    0.50    0.44
   7   8   9   -0.03    0.22
  -7   8   9    0.38    0.41
  -7   8   9    0.12    0.37
   7   8   8    0.47    0.40
   7   8   8   -0.13    0.23
  -7   8   8    0.30    0.32
  -7   8   8    0.05    0.36
   7   8   7    0.02    0.39
   7   8   7    0.84    0.24
  -7   8   7    0.50    0.33
   7   8   6    0.07    0.22
   7   8   6    0.35    0.41
  -7   8   6   -0.09    0.33
   7   8   5    0.11    0.40
   7   8   5    0.17    0.24
  -7   8   5    0.09    0.29
   7   8   4    3.19    0.53
   7   8   4    3.35    0.43
  -7   8   4    3.36    0.49
   7   8   3    9.38    0.82
   7   8   3    8.82    0.57
  -7   8   3    8.62    0.61
   7   8   2   14.21    0.73
   7   8   2   13.43    0.90
   7  -8  -2   14.94    0.90
   7   8   2   12.77    0.71
   7  -8  -2   15.32    0.90
   7  -8  -1    0.62    0.38
   7   8   1    1.35    0.36
   7  -8  -1    0.86    0.39
  -7  -8  -1    1.24    0.27
   7   8   0   -0.33    0.31
   7  -8   0   -0.64    0.32
   7   8   0    0.47    0.45
   7  -8   0    0.51    0.34
  -7  -8   0    0.17    0.28
   7   8  -1    0.48    0.45
   7  -8   1    0.34    0.35
   7   8  -1    0.59    0.33
  -7  -8   1    1.59    0.37
   7   8  -2   13.13    0.91
   7  -8   2   13.68    0.83
   7   8  -2   13.12    0.73
  -7  -8   2   15.60    0.80
   7  -8   3    9.81    0.71
   7   8  -3    8.15    0.81
   7   8  -3    8.85    0.60
  -7  -8   3    8.71    0.63
   7  -8   4    3.54    0.51
   7   8  -4    2.48    0.51
   7   8  -4    3.22    0.41
  -7  -8   4    3.13    0.41
   7   8  -5   -0.09    0.40
   7   8  -5   -0.25    0.28
   7  -8   5    0.06    0.32
  -7  -8   5   -0.19    0.32
   7   8  -6   -0.08    0.30
   7   8  -6    0.59    0.45
   7  -8   6    0.27    0.35
  -7  -8   6    0.60    0.32
   7   8  -7    0.74    0.41
   7  -8   7   -0.24    0.32
   7   8  -7   -0.05    0.38
  -7  -8   7    0.43    0.34
   7  -8   8   -0.46    0.33
   7   8  -8    0.30    0.35
  -7  -8   8   -0.26    0.31
   7   8  -9    0.37    0.33
   7  -8   9   -0.16    0.32
  -7  -8   9   -0.19    0.34
   7  -8  10    0.03    0.35
   7   8 -10    0.61    0.38
  -7  -8  10    0.19    0.38
   7   8 -11    0.21    0.39
   7  -8  11    0.82    0.36
  -7  -8  11    1.24    0.42
   7  -8  12    0.60    0.54
   7   8 -12    0.47    0.42
   7  -8  12    0.68    0.38
  -7  -8  12   -0.55    0.43
   7  -8  13    0.64    0.60
   7  -8  13    0.15    0.40
   7   8 -13   -0.10    0.44
  -7  -8  13   -0.09    0.50
   7   8 -14   -0.40    0.50
   7  -8  14   -0.29    0.39
   7  -8  14    0.49    0.59
  -7  -8  14   -0.16    0.59
   8   8  12    0.36    0.61
  -8   8  12   -1.03    0.59
   8   8  11    0.84    0.56
  -8   8  11    2.25    0.60
   8   8  10    1.65    0.59
  -8   8  10    0.12    0.49
   8   8   9    1.22    0.52
  -8   8   9    0.29    0.47
   8   8   8   -0.81    0.50
  -8   8   8    0.09    0.45
   8   8   7    5.01    0.75
   8   8   7    4.70    0.68
  -8   8   7    3.93    0.55
   8   8   6   -0.13    0.46
   8   8   6    0.43    0.41
  -8   8   6    0.66    0.41
   8   8   5    0.39    0.44
   8   8   5    0.52    0.43
  -8   8   5    0.34    0.38
   8   8   4    2.18    0.49
   8   8   4    2.22    0.52
  -8   8   4    2.42    0.44
   8   8   3   -0.51    0.42
   8   8   3    0.28    0.44
   8  -8  -3   -0.39    0.48
   8  -8  -3    0.36    0.49
   8   8   2    0.31    0.48
   8  -8  -2   -0.74    0.43
   8  -8  -2   -0.48    0.45
   8   8   2    0.35    0.39
   8  -8  -1    6.02    0.76
   8   8   1    5.91    0.69
   8   8   1    6.21    0.81
   8  -8  -1    5.08    0.74
   8   8   1    4.97    0.69
   8  -8   0    3.83    0.61
   8  -8   0    3.11    0.59
   8   8   0    2.88    0.64
   8   8   0    3.55    0.59
  -8  -8   0    3.14    0.46
   8   8  -1    7.08    0.81
   8  -8   1    6.04    0.76
   8   8  -1    4.82    0.63
  -8  -8   1    5.33    0.63
   8  -8   2   -0.01    0.42
   8   8  -2   -0.04    0.37
   8   8  -2    0.45    0.43
  -8  -8   2    0.08    0.34
   8  -8   3   -0.21    0.39
   8   8  -3    0.12    0.45
   8   8  -3    0.31    0.38
  -8  -8   3    0.35    0.37
   8   8  -4    2.61    0.47
   8   8  -4    3.01    0.44
   8  -8   4    2.94    0.48
  -8  -8   4    2.50    0.43
   8  -8   5    0.48    0.43
   8   8  -5   -0.15    0.36
   8   8  -5    0.15    0.38
  -8  -8   5    0.40    0.37
   8   8  -6   -0.42    0.39
   8   8  -6    0.62    0.38
   8  -8   6   -0.12    0.42
  -8  -8   6    0.76    0.41
   8  -8   7    3.97    0.55
   8   8  -7    4.45    0.62
  -8  -8   7    3.89    0.52
   8   8  -8   -0.08    0.38
   8  -8   8    0.79    0.42
  -8  -8   8    0.64    0.44
   8   8  -9    0.78    0.41
   8  -8   9    0.93    0.43
  -8  -8   9    0.38    0.49
   8   8 -10    2.41    0.44
   8  -8  10    1.66    0.45
  -8  -8  10    1.44    0.51
   8   8 -11    1.20    0.48
   8  -8  11    0.90    0.46
  -8  -8  11    1.50    0.56
   8  -8  12    0.28    0.49
   8  -8  12    0.20    0.58
   8   8 -12    0.62    0.50
  -8  -8  12    0.74    0.63
   9   8   9    0.36    0.58
  -9   8   9   -1.03    0.62
   9   8   8    1.46    0.59
  -9   8   8    0.85    0.59
   9   8   7    0.50    0.56
  -9   8   7    0.57    0.53
   9   8   6    0.56    0.51
  -9   8   6    0.94    0.49
   9   8   5   -0.03    0.44
   9   8   5   -0.45    0.52
  -9   8   5   -0.75    0.45
   9   8   4   -0.47    0.42
   9  -8  -4   -0.24    0.57
   9  -8  -4   -0.61    0.55
   9   8   3   -0.38    0.45
   9   8   3   -0.18    0.43
   9  -8  -3    0.09    0.56
   9   8   2    0.40    0.43
   9   8   2   -0.10    0.47
   9   8   2   -0.22    0.42
   9  -8  -2    0.72    0.55
   9  -8  -2    0.85    0.53
   9  -8  -1    4.40    0.69
   9   8   1    3.44    0.51
   9   8   1    2.47    0.49
   9  -8  -1    3.40    0.64
   9   8   1    2.84    0.50
   9   8   1    3.15    0.63
   9   8   0   -0.55    0.47
   9   8   0    0.27    0.47
   9   8   0   -0.96    0.45
   9   8   0    0.29    0.48
   9  -8   0   -0.51    0.48
   9   8  -1    2.87    0.55
   9  -8   1    2.69    0.59
   9   8  -1    3.11    0.55
  -9  -8   1    5.12    0.76
   9   8  -2    0.64    0.46
   9  -8   2    0.26    0.48
   9   8  -2    0.33    0.50
  -9  -8   2   -0.23    0.44
   9   8  -3    0.02    0.43
   9   8  -3   -0.20    0.56
   9  -8   3   -0.47    0.50
  -9  -8   3   -0.58    0.45
   9   8  -4   -0.93    0.59
   9   8  -4    0.31    0.44
   9  -8   4   -0.28    0.49
  -9  -8   4    0.33    0.47
   9   8  -5   -0.27    0.42
   9   8  -5   -0.63    0.52
   9  -8   5    0.68    0.52
  -9  -8   5   -0.21    0.48
   9  -8   6    0.39    0.52
   9   8  -6   -0.30    0.40
  -9  -8   6    0.36    0.51
   9   8  -7    1.60    0.46
   9  -8   7    1.17    0.52
  -9  -8   7    1.11    0.51
   9  -8   8    1.62    0.56
   9   8  -8    0.45    0.47
  -9  -8   8    1.27    0.55
   9   8  -9    1.11    0.49
   9  -8   9    1.05    0.55
  -9  -8   9    0.37    0.54
  10  -8  -5   -0.39    0.70
  10   8   5    0.23    0.60
  10  -8  -5    0.42    0.76
  10  -8  -4   -1.08    0.67
  10  -8  -4   -0.29    0.70
  10   8   4   -0.48    0.57
  10   8   3    0.51    0.55
  10  -8  -3   -0.91    0.71
  10   8   3    0.89    0.59
  10  -8  -3   -0.34    0.73
  10   8   2    0.24    0.55
  10  -8  -2    0.27    0.70
  10   8   2    0.76    0.61
  10  -8  -2   -0.18    0.71
  10   8   2   -1.23    0.55
  10  -8  -1    0.20    0.66
  10   8   1    0.46    0.58
  10   8   1   -0.24    0.57
  10  -8  -1    0.33    0.68
  10   8   1    0.09    0.57
  10   8   1    0.27    0.56
  10   8   0    0.09    0.55
  10   8   0   -0.30    0.57
  10   8   0    0.69    0.62
  10  -8   0    0.96    0.65
  10   8  -1   -1.19    0.56
  10   8  -1    0.35    0.57
  10  -8   1    0.29    0.64
  10   8  -1    0.20    0.63
  10   8  -1   -0.25    0.58
  10  -8   2   -0.47    0.60
  10   8  -2   -0.70    0.55
  10   8  -2    0.56    0.62
 -10  -8   2    0.28    0.58
  10   8  -3    1.17    0.56
  10  -8   3    0.98    0.66
  10   8  -3    1.01    0.63
 -10  -8   3    1.26    0.60
  10  -8   4   -0.62    0.70
  10   8  -4    0.20    0.51
  10   8  -4    0.76    1.06
 -10  -8   4    0.26    0.57
  10   8  -5    0.27    0.55
 -10  -8   5    0.13    0.64
   0   9  19    0.13    0.54
   0   9  19   -0.12    0.40
   0   9  18    0.23    0.46
   0   9  18   -0.13    0.32
   0   9  17   -0.25    0.41
   0   9  17   -0.39    0.27
   0   9  16    0.31    0.26
   0   9  16    0.02    0.33
   0   9  15    0.52    0.31
   0   9  15    0.30    0.24
   0   9  14    0.60    0.33
   0   9  14    0.50    0.23
   0   9  13    0.10    0.20
   0   9  13    0.39    0.30
   0   9  12    0.09    0.20
   0   9  12    0.14    0.22
   0   9  11    0.35    0.17
   0   9  11   -0.28    0.18
   0   9  10   -0.27    0.15
   0   9  10    0.00    0.14
   0   9   9    0.17    0.13
   0   9   9    0.14    0.14
   0   9   8    0.10    0.13
   0   9   8   -0.03    0.12
   0   9   7    0.02    0.11
   0   9   7    0.02    0.10
   0   9   6   -0.16    0.11
   0  -9  -6   -0.02    0.10
   0   9   6   -0.04    0.10
   0  -9  -5   -0.01    0.09
   0   9   5   -0.16    0.09
   0   9   5   -0.04    0.10
   0  -9  -4    0.00    0.09
   0   9   4   -0.12    0.09
   0   9   4    0.06    0.09
   0   9   3    0.07    0.09
   0  -9  -3    0.07    0.11
   0  -9  -3    0.08    0.11
   0  -9  -2   -0.13    0.08
   0   9   2   -0.14    0.13
   0  -9  -2   -0.07    0.09
   0   9   1    0.12    0.12
   0   9   1    0.04    0.08
   0  -9  -1   -0.08    0.08
   0   9   1    0.10    0.10
   0   9   1   -0.05    0.10
   0   9   0   -0.13    0.07
   0  -9   0   -0.06    0.07
   0   9   0   -0.06    0.12
   0   9   0    0.05    0.10
   0  -9   1    0.03    0.07
   0   9  -1    0.03    0.11
   0   9  -1    0.14    0.12
   0   9  -1    0.13    0.08
   0  -9   2    0.10    0.07
   0   9  -2    0.07    0.12
   0   9  -2    0.08    0.08
   0   9  -3    0.08    0.09
   0   9  -3    0.00    0.12
   0  -9   3    0.00    0.08
   0  -9   4    0.16    0.09
   0   9  -4    0.05    0.12
   0   9  -4    0.10    0.10
   0  -9   5    0.10    0.09
   0   9  -5   -0.15    0.12
   0   9  -6   -0.04    0.14
   0  -9   6    0.04    0.10
   0   9  -7    0.10    0.14
   0  -9   7    0.10    0.12
   0  -9   8   -0.18    0.10
   0   9  -8   -0.20    0.14
   0  -9   9    0.07    0.13
   0  -9   9   -0.14    0.18
   0  -9  10   -0.13    0.12
   0  -9  10   -0.12    0.19
   0  -9  11   -0.04    0.15
   0  -9  11   -0.18    0.21
   0  -9  12    0.21    0.22
   0  -9  12   -0.06    0.16
   0  -9  13    0.34    0.19
   0  -9  13    0.11    0.23
   0  -9  14    0.20    0.23
   0  -9  14    0.18    0.22
   0  -9  15    0.20    0.22
   0  -9  15   -0.38    0.26
   0  -9  16    0.19    0.28
   0  -9  17    0.56    0.34
   0  -9  18   -0.33    0.39
   0  -9  19   -0.38    0.49
   1   9  19    0.04    0.38
   1   9  19    0.35    0.58
  -1   9  19    0.77    0.44
  -1   9  19    0.71    0.59
   1   9  18    0.62    0.32
   1   9  18    0.32    0.49
  -1   9  18    0.00    0.48
  -1   9  18    0.28    0.34
   1   9  17    0.16    0.41
   1   9  17    0.15    0.31
  -1   9  17    0.24    0.31
  -1   9  17   -0.27    0.38
   1   9  16    0.52    0.35
   1   9  16   -0.15    0.25
  -1   9  16    1.02    0.37
  -1   9  16   -0.03    0.27
   1   9  15    0.58    0.26
   1   9  15    0.57    0.31
  -1   9  15    0.23    0.24
  -1   9  15   -0.10    0.31
   1   9  14    0.54    0.24
   1   9  14    0.14    0.31
  -1   9  14    0.23    0.29
  -1   9  14   -0.43    0.19
   1   9  13    2.79    0.37
   1   9  13    3.29    0.38
  -1   9  13    3.25    0.42
  -1   9  13    3.79    0.54
   1   9  12    4.00    0.34
   1   9  12    3.62    0.39
  -1   9  12    3.82    0.36
  -1   9  12    4.99    0.51
   1   9  11    1.12    0.20
   1   9  11    1.34    0.24
  -1   9  11    1.49    0.21
  -1   9  11    1.09    0.24
   1   9  10    2.42    0.27
   1   9  10    2.74    0.31
  -1   9  10    2.96    0.32
  -1   9  10    2.85    0.28
   1   9   9   17.50    0.59
   1   9   9   17.86    0.67
  -1   9   9   17.66    0.67
  -1   9   9   17.70    0.63
   1   9   8   -0.16    0.12
   1   9   8   -0.18    0.11
  -1  -9  -8    0.04    0.10
  -1   9   8    0.14    0.12
  -1   9   8    0.02    0.15
   1   9   7   13.95    0.53
   1   9   7   14.35    0.45
  -1   9   7   14.22    0.53
  -1   9   7   13.67    0.51
  -1  -9  -7   13.02    0.41
   1   9   6   12.40    0.39
   1   9   6   12.35    0.47
  -1   9   6   11.90    0.48
  -1  -9  -6   11.41    0.35
  -1   9   6   13.27    0.47
   1   9   5   13.99    0.49
   1   9   5   12.64    0.39
  -1   9   5   13.74    0.48
  -1   9   5   12.92    0.48
  -1  -9  -5   12.84    0.36
   1   9   4   17.98    0.58
  -1   9   4   17.74    0.59
  -1   9   4   17.42    0.58
   1  -9  -3   -0.15    0.12
   1   9   3    0.04    0.09
  -1   9   3    0.25    0.13
  -1   9   3   -0.14    0.10
  -1   9   3    0.05    0.09
   1  -9  -2    0.15    0.12
   1   9   2    0.12    0.08
   1  -9  -2    0.00    0.12
   1  -9  -2    0.11    0.12
  -1   9   2    0.00    0.08
  -1  -9  -2    0.12    0.04
  -1  -9  -2   -0.03    0.05
  -1   9   2    0.07    0.11
   1   9   1    0.97    0.12
   1   9   1    1.05    0.13
   1  -9  -1    0.81    0.14
   1  -9  -1    1.02    0.16
   1   9   1    1.02    0.19
  -1   9   1    1.28    0.16
  -1   9   1    1.02    0.15
   1   9   0    0.22    0.14
   1  -9   0    0.14    0.11
   1   9   0    0.41    0.09
   1   9   0    0.45    0.08
  -1   9   0    0.37    0.11
  -1   9   0    0.20    0.10
  -1  -9   0    0.38    0.06
   1   9  -1    0.90    0.13
   1  -9   1    1.04    0.14
   1   9  -1    1.07    0.19
   1   9  -1    1.08    0.11
  -1   9  -1    1.03    0.14
  -1   9  -1    1.04    0.14
  -1  -9   1    1.09    0.10
   1   9  -2    0.07    0.07
   1   9  -2    0.29    0.10
   1   9  -2    0.25    0.14
   1  -9   2    0.11    0.10
  -1   9  -2    0.06    0.10
  -1  -9   2    0.15    0.06
  -1   9  -2    0.00    0.10
   1   9  -3    0.19    0.07
   1  -9   3    0.35    0.11
   1   9  -3    0.16    0.12
  -1   9  -3    0.15    0.11
  -1   9  -3    0.12    0.11
  -1  -9   3    0.06    0.07
   1   9  -4   17.93    0.64
   1   9  -4   17.55    0.50
   1  -9   4   17.19    0.59
  -1  -9   4   16.94    0.54
  -1   9  -4   16.99    0.60
   1  -9   5   13.11    0.49
   1   9  -5   13.07    0.53
  -1  -9   5   13.20    0.37
  -1  -9   5   13.57    0.46
  -1   9  -5   12.88    0.51
   1   9  -6   11.95    0.51
   1  -9   6   12.07    0.47
  -1  -9   6   11.49    0.33
  -1  -9   6   11.87    0.44
   1   9  -7   13.43    0.55
   1  -9   7   13.56    0.51
  -1  -9   7   12.98    0.37
  -1  -9   7   13.40    0.50
  -1  -9   7   11.98    0.41
   1   9  -8    0.00    0.15
   1  -9   8    0.48    0.16
  -1  -9   8   -0.03    0.11
  -1  -9   8   -0.04    0.08
   1   9  -9   16.58    0.68
   1  -9   9   17.29    0.63
  -1  -9   9   16.28    0.49
  -1  -9   9   17.15    0.63
  -1  -9   9   16.59    0.49
   1  -9  10    2.49    0.33
   1   9 -10    2.06    0.32
   1  -9  10    1.84    0.22
  -1  -9  10    2.26    0.19
  -1  -9  10    2.68    0.26
   1  -9  11    1.18    0.18
   1  -9  11    0.72    0.28
  -1  -9  11    1.20    0.14
  -1  -9  11    1.06    0.18
   1  -9  12    3.13    0.28
   1  -9  12    3.12    0.37
  -1  -9  12    3.04    0.20
  -1  -9  12    2.65    0.32
   1  -9  13    3.25    0.47
   1  -9  13    3.05    0.32
  -1  -9  13    3.00    0.36
  -1  -9  13    2.48    0.20
   1  -9  14    0.39    0.32
   1  -9  14    0.29    0.21
  -1  -9  14   -0.36    0.16
  -1  -9  14   -0.22    0.22
   1  -9  15    0.27    0.23
   1  -9  15   -0.25    0.30
  -1  -9  15    0.25    0.28
   1  -9  16    0.39    0.29
   1  -9  16   -0.10    0.31
  -1  -9  16   -0.12    0.32
   1  -9  17    0.42    0.35
   1  -9  17    0.33    0.33
  -1  -9  17    0.35    0.36
   1  -9  18    0.75    0.42
  -1  -9  18    0.41    0.45
   1  -9  19   -0.02    0.47
  -1  -9  19    0.74    0.53
   2   9  18   -0.52    0.37
  -2   9  18    0.00    0.51
  -2   9  18   -0.29    0.36
   2   9  17    2.92    0.50
   2   9  17    2.79    0.42
  -2   9  17    2.83    0.40
  -2   9  17    2.85    0.50
   2   9  16    4.03    0.49
   2   9  16    4.27    0.60
  -2   9  16    3.86    0.43
  -2   9  16    3.72    0.50
   2   9  15   -0.27    0.37
   2   9  15    0.40    0.28
  -2   9  15   -0.10    0.24
  -2   9  15   -0.30    0.34
   2   9  14   13.02    0.66
   2   9  14   12.54    0.60
  -2   9  14   11.34    0.69
  -2   9  14   11.36    0.62
   2   9  13   -0.01    0.23
   2   9  13    0.25    0.21
  -2   9  13    0.28    0.26
  -2   9  13   -0.10    0.28
   2   9  12    2.48    0.33
   2   9  12    1.48    0.21
  -2   9  12    1.55    0.27
  -2   9  12    1.98    0.35
   2   9  11    0.25    0.15
   2   9  11    0.26    0.23
  -2   9  11    0.24    0.17
  -2   9  11    0.36    0.30
   2   9  10    0.58    0.23
   2   9  10    0.71    0.14
  -2   9  10    0.56    0.17
  -2   9  10    0.43    0.24
   2   9   9   18.37    0.58
   2   9   9   17.97    0.72
  -2   9   9   18.58    0.67
  -2   9   9   18.58    0.73
   2   9   8   27.65    0.93
   2   9   8   28.12    0.77
  -2   9   8   27.45    0.88
  -2   9   8   27.20    0.92
  -2  -9  -8   26.25    0.78
   2   9   7   51.42    1.48
   2   9   7   50.54    1.30
  -2   9   7   48.75    1.43
  -2  -9  -7   48.76    1.31
  -2   9   7   49.74    1.47
   2   9   6    9.42    0.43
  -2   9   6    8.63    0.40
  -2   9   6    9.22    0.43
   2   9   5    0.50    0.14
  -2   9   5    0.11    0.12
  -2   9   5    0.03    0.14
  -2   9   5    0.31    0.13
   2   9   4   74.88    2.03
  -2   9   4   74.47    2.03
  -2   9   4   73.82    2.02
  -2   9   4   74.38    1.91
   2   9   3    0.15    0.11
  -2   9   3    0.11    0.08
  -2   9   3    0.08    0.12
  -2   9   3    0.13    0.10
   2  -9  -2   34.29    1.10
   2  -9  -2   34.98    1.10
   2   9   2   34.36    1.00
  -2   9   2   34.58    1.03
  -2   9   2   34.80    0.93
   2   9   1   28.33    0.84
   2  -9  -1   28.63    0.94
   2   9   1   29.39    1.00
   2   9   1   29.45    0.75
   2  -9  -1   28.60    0.94
  -2  -9  -1   27.30    0.76
  -2   9   1   28.74    0.89
  -2   9   1   29.61    0.80
   2   9   0   -0.02    0.08
   2   9   0   -0.01    0.06
   2  -9   0   -0.16    0.14
   2   9   0   -0.27    0.17
  -2  -9   0   -0.05    0.06
  -2   9   0    0.06    0.09
  -2   9   0   -0.04    0.12
   2   9  -1   28.63    0.97
   2  -9   1   28.36    0.92
   2   9  -1   28.94    0.78
   2   9  -1   29.03    0.79
  -2   9  -1   28.18    0.82
  -2  -9   1   28.65    0.79
  -2   9  -1   27.88    0.88
   2  -9   2   34.07    1.06
   2   9  -2   34.21    1.10
   2   9  -2   34.66    0.91
  -2   9  -2   34.72    0.98
  -2   9  -2   34.35    1.03
  -2  -9   2   33.32    0.95
   2  -9   3    0.39    0.14
   2   9  -3    0.14    0.06
   2   9  -3   -0.02    0.16
  -2  -9   3    0.13    0.08
   2   9  -4   73.44    2.04
   2   9  -4   73.63    1.82
   2  -9   4   75.32    2.01
  -2  -9   4   72.56    1.92
  -2  -9   4   65.65    1.84
   2   9  -5    0.40    0.16
   2  -9   5    0.28    0.14
  -2  -9   5    0.41    0.11
   2  -9   6    8.54    0.40
   2   9  -6    8.69    0.44
  -2  -9   6    8.46    0.38
   2   9  -7   47.58    1.44
   2  -9   7   47.79    1.40
  -2  -9   7   47.90    1.38
   2   9  -8   26.98    0.92
   2  -9   8   26.20    0.87
  -2  -9   8   25.95    0.88
   2  -9   9   17.43    0.64
   2   9  -9   16.87    0.69
  -2  -9   9   16.54    0.65
   2  -9  10    0.68    0.17
   2   9 -10    0.47    0.20
  -2  -9  10    0.89    0.19
   2  -9  11    0.13    0.16
   2   9 -11   -0.09    0.24
   2  -9  11   -0.24    0.27
  -2  -9  11   -0.22    0.17
   2  -9  12    0.87    0.33
   2  -9  12    1.66    0.24
  -2  -9  12    1.48    0.25
   2  -9  13    0.29    0.33
   2  -9  13    0.12    0.17
  -2  -9  13   -0.20    0.20
   2  -9  14   10.87    0.70
   2  -9  14   11.81    0.59
  -2  -9  14   11.16    0.64
   2  -9  15    0.05    0.24
   2  -9  15    0.40    0.40
  -2  -9  15    0.51    0.31
   2  -9  16    3.36    0.47
   2  -9  16    3.95    0.55
  -2  -9  16    3.72    0.49
   2  -9  17    2.19    0.58
   2  -9  17    3.00    0.40
  -2  -9  17    3.70    0.52
   2  -9  18    0.62    0.39
   2  -9  18   -0.64    0.52
  -2  -9  18   -0.63    0.46
   3   9  18    0.39    0.38
  -3   9  18    0.40    0.43
  -3   9  18    0.10    0.57
   3   9  17   -0.33    0.37
  -3   9  17   -0.57    0.48
  -3   9  17    0.09    0.39
   3   9  16    0.41    0.43
   3   9  16    0.82    0.36
  -3   9  16    0.17    0.41
  -3   9  16    0.78    0.35
   3   9  15    0.53    0.36
   3   9  15    0.59    0.33
  -3   9  15    0.06    0.37
  -3   9  15    0.15    0.28
   3   9  14   -0.07    0.24
   3   9  14   -0.39    0.29
  -3   9  14    0.06    0.33
  -3   9  14    0.00    0.26
   3   9  13    0.71    0.28
   3   9  13    0.25    0.20
  -3   9  13    0.56    0.30
  -3   9  13    0.28    0.30
   3   9  12   20.93    0.70
   3   9  12   20.80    0.87
  -3   9  12   19.56    0.83
  -3   9  12   19.46    0.87
   3   9  11    0.22    0.22
   3   9  11    0.27    0.16
  -3   9  11    0.08    0.20
  -3   9  11    0.73    0.31
   3   9  10    1.11    0.30
   3   9  10    1.08    0.16
  -3   9  10    0.93    0.29
  -3   9  10    1.07    0.21
   3   9   9    2.29    0.20
   3   9   9    2.37    0.33
  -3  -9  -9    1.94    0.25
  -3   9   9    2.05    0.34
  -3   9   9    2.49    0.29
   3   9   8    4.77    0.40
  -3   9   8    4.30    0.42
  -3  -9  -8    4.64    0.33
  -3   9   8    4.32    0.32
   3   9   7   12.15    0.57
   3   9   7   11.90    0.35
  -3   9   7   12.93    0.58
  -3  -9  -7   10.98    0.43
  -3  -9  -7   11.06    0.43
  -3   9   7   11.83    0.51
   3   9   6    2.71    0.30
  -3   9   6    2.16    0.26
  -3   9   6    2.66    0.30
   3   9   5    3.75    0.31
  -3   9   5    3.55    0.30
  -3   9   5    3.33    0.29
   3   9   4    1.45    0.21
  -3   9   4    1.36    0.20
  -3   9   4    1.27    0.19
   3   9   3    2.96    0.26
  -3   9   3    2.53    0.25
  -3   9   3    2.52    0.26
   3   9   2    4.71    0.29
   3  -9  -2    4.66    0.39
   3  -9  -2    4.44    0.39
   3   9   2    4.92    0.16
   3  -9  -2    4.71    0.22
  -3  -9  -2    4.51    0.20
  -3   9   2    4.66    0.31
   3   9   1   71.37    1.79
   3   9   1   69.47    1.92
   3  -9  -1   71.78    2.06
   3  -9  -1   70.42    2.05
  -3   9   1   69.18    1.96
  -3  -9  -1   70.78    1.82
   3   9   0   47.71    1.26
   3   9   0   47.66    1.34
   3   9   0   49.19    1.53
   3  -9   0   49.68    1.50
  -3   9   0   47.10    1.41
  -3  -9   0   48.02    1.30
   3   9  -1   70.52    2.02
   3   9  -1   69.58    1.82
   3   9  -1   64.04    1.77
   3  -9   1   70.49    1.99
  -3   9  -1   67.37    1.91
  -3  -9   1   69.00    1.81
   3   9  -2    4.62    0.23
   3   9  -2    4.32    0.38
   3  -9   2    4.84    0.36
  -3  -9   2    4.78    0.26
   3   9  -3    2.59    0.32
   3  -9   3    2.83    0.30
   3   9  -3    2.82    0.16
  -3  -9   3    2.85    0.21
   3  -9   4    0.99    0.19
   3   9  -4    1.63    0.10
   3   9  -4    2.06    0.30
  -3  -9   4    1.49    0.20
   3  -9   5    3.83    0.34
   3   9  -5    3.64    0.33
  -3  -9   5    3.77    0.26
   3  -9   6    2.51    0.29
   3   9  -6    2.82    0.31
  -3  -9   6    2.62    0.26
   3  -9   7   11.39    0.53
   3   9  -7   11.46    0.54
  -3  -9   7   11.12    0.51
   3   9  -8    4.77    0.37
   3  -9   8    4.70    0.34
  -3  -9   8    5.18    0.40
   3   9  -9    2.45    0.32
   3  -9   9    2.05    0.24
  -3  -9   9    2.08    0.30
   3   9 -10    1.26    0.27
   3  -9  10    1.04    0.19
  -3  -9  10    0.88    0.22
   3   9 -11    0.44    0.27
   3  -9  11    0.19    0.17
  -3  -9  11    0.34    0.20
   3   9 -12   20.10    0.85
   3  -9  12   17.89    0.92
   3  -9  12   17.81    0.74
  -3  -9  12   19.56    0.82
   3  -9  13    0.11    0.39
   3   9 -13    0.44    0.31
   3  -9  13    0.60    0.22
  -3  -9  13   -0.10    0.24
   3  -9  14    0.31    0.48
   3  -9  14    0.25    0.24
  -3  -9  14   -0.17    0.29
   3  -9  15   -0.20    0.59
   3  -9  15    0.10    0.24
  -3  -9  15   -0.19    0.31
   3  -9  16    0.32    0.31
   3  -9  16    0.12    0.53
  -3  -9  16    0.63    0.41
   3  -9  17   -0.74    0.52
   3  -9  17    0.16    0.32
  -3  -9  17   -0.01    0.48
   3  -9  18    0.28    0.38
   3  -9  18   -0.27    0.63
  -3  -9  18    0.52    0.55
   4   9  17   -0.09    0.41
  -4   9  17    0.54    0.46
  -4   9  17    0.27    0.56
   4   9  16    0.94    0.44
  -4   9  16   -0.45    0.44
  -4   9  16    1.06    0.41
   4   9  15    0.52    0.35
  -4   9  15    0.76    0.35
  -4   9  15    0.61    0.40
   4   9  14    6.48    0.52
   4   9  14    5.62    0.59
  -4   9  14    5.87    0.57
  -4   9  14    6.35    0.69
   4   9  13    1.12    0.34
   4   9  13    1.44    0.24
  -4   9  13    1.30    0.31
  -4   9  13    0.82    0.36
   4   9  12    8.69    0.42
   4   9  12    8.28    0.58
  -4   9  12    8.30    0.63
  -4   9  12    7.88    0.65
   4   9  11   -0.03    0.15
   4   9  11   -0.13    0.27
  -4   9  11    0.31    0.30
  -4   9  11   -0.02    0.27
   4   9  10    0.25    0.26
   4   9  10    0.08    0.13
  -4   9  10    0.09    0.28
  -4   9  10    0.17    0.23
   4   9   9    0.80    0.13
   4   9   9    1.01    0.30
  -4   9   9    0.43    0.27
  -4   9   9    0.62    0.22
   4   9   8    8.80    0.31
   4   9   8    7.57    0.37
   4   9   8    8.61    0.59
  -4   9   8    8.62    0.56
  -4   9   8    8.35    0.48
   4   9   7    7.25    0.26
   4   9   7    6.82    0.31
   4   9   7    7.86    0.51
  -4   9   7    6.41    0.43
  -4   9   7    7.15    0.55
   4   9   6    0.19    0.11
   4   9   6    0.21    0.08
   4   9   6    0.18    0.21
  -4   9   6    0.14    0.18
  -4   9   6    0.68    0.25
   4   9   5    4.51    0.22
   4   9   5    4.68    0.20
   4   9   5    5.17    0.40
  -4   9   5    3.81    0.41
  -4   9   5    5.15    0.37
   4   9   4    0.30    0.10
   4   9   4    0.50    0.19
   4   9   4    0.22    0.10
  -4   9   4    0.15    0.20
  -4   9   4    0.48    0.19
   4   9   3   58.01    1.51
   4   9   3   55.00    1.67
   4   9   3   55.54    1.46
  -4   9   3   55.75    1.66
  -4   9   3   56.69    1.68
   4  -9  -2    4.15    0.45
   4   9   2    4.01    0.20
   4   9   2    4.09    0.33
   4  -9  -2    4.31    0.46
  -4  -9  -2    4.18    0.25
  -4   9   2    4.51    0.34
   4   9   1    1.22    0.20
   4   9   1    1.90    0.17
   4  -9  -1    1.47    0.27
   4  -9  -1    1.39    0.27
  -4  -9  -1    1.99    0.21
  -4   9   1    2.09    0.27
   4   9   0    0.31    0.23
   4  -9   0    0.13    0.23
   4   9   0    0.12    0.16
   4  -9   0    0.51    0.24
  -4  -9   0   -0.05    0.12
  -4   9   0   -0.22    0.15
   4   9  -1    2.22    0.31
   4   9  -1    2.03    0.25
   4  -9   1    1.42    0.26
  -4  -9   1    1.78    0.22
   4   9  -2    4.18    0.28
   4   9  -2    3.51    0.35
   4  -9   2    4.31    0.41
  -4  -9   2    4.03    0.29
   4   9  -3   53.67    1.50
   4  -9   3   55.29    1.72
   4   9  -3   56.05    1.71
  -4  -9   3   56.35    1.57
   4   9  -4    0.32    0.12
   4  -9   4    0.38    0.23
   4   9  -4    0.70    0.22
  -4  -9   4    0.26    0.15
   4   9  -5    4.50    0.38
   4  -9   5    5.16    0.41
   4   9  -5    4.76    0.20
  -4  -9   5    4.70    0.34
   4  -9   6    0.29    0.18
   4   9  -6    0.25    0.20
  -4  -9   6    0.06    0.17
   4   9  -7    6.47    0.44
   4  -9   7    7.03    0.43
  -4  -9   7    6.21    0.47
   4   9  -8    7.50    0.48
   4  -9   8    8.24    0.46
  -4  -9   8    7.98    0.48
   4  -9   9    0.92    0.22
   4   9  -9    0.89    0.26
  -4  -9   9    1.12    0.24
   4  -9  10   -0.02    0.20
   4   9 -10   -0.16    0.27
  -4  -9  10   -0.01    0.22
   4   9 -11   -0.22    0.29
   4  -9  11    0.36    0.21
  -4  -9  11    0.06    0.25
   4  -9  12    7.26    0.51
   4   9 -12    7.71    0.58
   4  -9  12    8.67    0.96
  -4  -9  12    8.11    0.59
   4  -9  13    0.45    0.25
   4   9 -13    0.58    0.32
   4  -9  13    0.88    0.48
  -4  -9  13    1.17    0.34
   4  -9  14    5.01    0.65
   4   9 -14    5.71    0.56
   4  -9  14    5.91    0.49
  -4  -9  14    5.15    0.60
   4  -9  15   -0.13    0.29
   4  -9  15   -0.50    0.52
  -4  -9  15    0.28    0.37
   4  -9  16    0.32    0.29
   4  -9  16    0.76    0.61
  -4  -9  16    0.19    0.43
   4  -9  17   -0.07    0.67
   4  -9  17   -0.37    0.36
  -4  -9  17    0.70    0.53
   5   9  16    4.15    0.59
  -5   9  16    4.54    0.61
  -5   9  16    4.77    0.66
   5   9  15    0.66    0.43
  -5   9  15    1.14    0.47
  -5   9  15    0.60    0.44
   5   9  14    1.55    0.43
  -5   9  14    1.22    0.40
  -5   9  14    1.10    0.45
   5   9  13    0.79    0.36
  -5   9  13   -0.24    0.32
  -5   9  13   -0.04    0.41
   5   9  12    8.26    0.52
   5   9  12    7.03    0.64
  -5   9  12    7.73    0.62
  -5   9  12    6.88    0.67
   5   9  11    1.82    0.21
   5   9  11    1.57    0.36
  -5   9  11    1.75    0.37
  -5   9  11    1.15    0.37
   5   9  10    5.01    0.49
   5   9  10    5.56    0.31
  -5   9  10    4.74    0.57
  -5   9  10    6.68    0.65
   5   9   9    0.52    0.31
   5   9   9    1.14    0.15
  -5   9   9    1.39    0.35
  -5   9   9    1.20    0.31
   5   9   8    1.98    0.20
   5   9   8    1.72    0.36
  -5   9   8    1.84    0.34
  -5   9   8    1.74    0.35
   5   9   7    9.29    0.67
   5   9   7    9.03    0.34
  -5   9   7    8.67    0.58
  -5   9   7    8.75    0.53
   5   9   6    4.76    0.51
   5   9   6    5.05    0.27
   5   9   6    4.21    0.32
  -5   9   6    4.06    0.40
  -5   9   6    3.86    0.45
   5   9   5    1.38    0.21
   5   9   5    1.07    0.27
   5   9   5    1.21    0.19
  -5   9   5    0.98    0.25
  -5   9   5    1.12    0.26
   5   9   4    0.96    0.26
   5   9   4    1.28    0.18
   5   9   4    1.20    0.17
  -5   9   4    1.24    0.26
  -5   9   4    1.41    0.25
   5   9   3    0.26    0.23
   5   9   3    0.41    0.16
  -5   9   3    0.59    0.20
  -5   9   3    0.83    0.23
   5  -9  -2    5.21    0.22
   5  -9  -2    5.89    0.48
   5  -9  -2    4.66    0.46
   5   9   2    6.35    0.45
   5   9   2    5.45    0.38
   5   9   2    5.74    0.37
  -5  -9  -2    5.73    0.34
  -5   9   2    5.21    0.42
   5  -9  -1    9.75    0.63
   5   9   1   10.37    0.54
   5  -9  -1   10.75    0.64
  -5  -9  -1   10.17    0.45
   5  -9   0    4.52    0.46
   5   9   0    4.36    0.37
   5   9   0    3.81    0.46
   5  -9   0    4.53    0.46
  -5  -9   0    4.07    0.33
   5  -9   1    9.26    0.60
   5   9  -1   10.24    0.51
   5   9  -1   10.39    0.64
  -5  -9   1   10.02    0.47
   5  -9   2    6.03    0.48
   5   9  -2    5.30    0.38
   5   9  -2    5.73    0.49
  -5  -9   2    5.45    0.37
   5  -9   3    0.28    0.19
   5   9  -3    0.61    0.23
   5   9  -3    0.49    0.19
  -5  -9   3    0.19    0.18
   5  -9   4    1.33    0.25
   5   9  -4    0.93    0.26
   5   9  -4    0.93    0.19
  -5  -9   4    1.13    0.23
   5  -9   5    1.06    0.25
   5   9  -5    1.05    0.17
   5   9  -5    1.38    0.27
  -5  -9   5    1.19    0.27
   5   9  -6    4.67    0.25
   5  -9   6    4.73    0.42
   5   9  -6    4.88    0.43
  -5  -9   6    4.33    0.49
   5  -9   7    8.77    0.55
   5   9  -7    9.52    0.56
  -5  -9   7    9.11    0.55
   5  -9   8    1.58    0.28
   5   9  -8    2.00    0.33
  -5  -9   8    2.23    0.31
   5  -9   9    0.95    0.26
   5   9  -9    1.60    0.37
  -5  -9   9    0.40    0.26
   5  -9  10    6.21    0.49
   5   9 -10    5.29    0.57
  -5  -9  10    5.02    0.51
   5  -9  11    1.95    0.33
   5   9 -11    1.67    0.39
  -5  -9  11    1.54    0.34
   5  -9  12    7.63    0.54
   5   9 -12    7.36    0.57
   5  -9  12    6.89    0.74
  -5  -9  12    6.83    0.65
   5   9 -13   -0.09    0.35
   5  -9  13    0.11    0.48
   5  -9  13    0.33    0.27
  -5  -9  13   -0.04    0.35
   5  -9  14    0.68    0.50
   5  -9  14    1.07    0.33
   5   9 -14    1.75    0.40
  -5  -9  14    1.68    0.42
   5  -9  15    0.80    0.58
   5  -9  15    0.63    0.32
  -5  -9  15    0.01    0.45
   5  -9  16    4.37    0.77
   5  -9  16    4.88    0.61
  -5  -9  16    4.02    0.67
   6   9  15    0.54    0.52
  -6   9  15    0.58    0.58
  -6   9  15    0.27    0.53
   6   9  14    0.66    0.49
  -6   9  14    1.00    0.48
  -6   9  14    0.40    0.51
   6   9  13   -0.45    0.42
  -6   9  13    0.26    0.43
  -6   9  13   -0.43    0.46
   6   9  12   -0.22    0.39
  -6   9  12   -0.54    0.38
  -6   9  12    0.02    0.41
   6   9  11    0.46    0.37
  -6   9  11   -0.55    0.33
  -6   9  11    0.05    0.39
   6   9  10   11.49    0.55
   6   9  10   10.16    0.76
  -6   9  10   11.16    0.70
  -6   9  10   11.76    0.81
   6   9   9    0.79    0.18
   6   9   9    0.58    0.35
  -6   9   9    0.75    0.35
  -6   9   9   -0.30    0.35
   6   9   8   13.56    0.80
   6   9   8   14.55    0.52
  -6   9   8   13.24    0.78
  -6   9   8   14.14    0.77
   6   9   7    4.66    0.33
   6   9   7    4.53    0.54
  -6   9   7    4.49    0.61
  -6   9   7    5.45    0.54
   6   9   6    0.18    0.18
   6   9   6    0.16    0.34
  -6   9   6    0.60    0.36
  -6   9   6    0.38    0.30
   6   9   5    0.92    0.20
   6   9   5    0.84    0.39
  -6   9   5    0.69    0.34
  -6   9   5    0.60    0.27
   6   9   4   18.70    0.70
   6   9   4   19.80    0.93
  -6   9   4   18.68    0.86
  -6   9   4   18.62    0.84
   6   9   3    0.36    0.21
   6   9   3    0.11    0.26
  -6   9   3    0.18    0.24
   6   9   2    1.24    0.24
   6   9   2    0.84    0.23
   6   9   2    1.21    0.29
   6  -9  -2    1.64    0.34
   6  -9  -2    1.05    0.34
   6  -9  -1   -0.01    0.29
   6  -9  -1    0.10    0.27
   6   9   1   -0.41    0.24
  -6  -9  -1    0.05    0.19
   6   9   0    0.13    0.25
   6  -9   0   -0.12    0.27
   6   9   0   -0.05    0.31
   6  -9   0   -0.48    0.26
  -6  -9   0    0.02    0.19
   6   9  -1    0.16    0.25
   6   9  -1    0.21    0.30
   6  -9   1    0.40    0.28
  -6  -9   1    0.06    0.20
   6  -9   2    1.45    0.30
   6   9  -2    1.05    0.27
   6   9  -2    1.26    0.33
  -6  -9   2    0.94    0.23
   6   9  -3    0.37    0.30
   6   9  -3   -0.07    0.22
   6  -9   3    0.10    0.25
  -6  -9   3    0.26    0.26
   6   9  -4   18.22    0.87
   6  -9   4   18.38    0.85
   6   9  -4   17.06    0.69
  -6  -9   4   18.71    0.88
   6  -9   5    0.63    0.26
   6   9  -5    0.99    0.33
   6   9  -5    0.91    0.23
  -6  -9   5    1.10    0.30
   6   9  -6   -0.03    0.20
   6  -9   6    0.03    0.26
   6   9  -6    0.14    0.33
  -6  -9   6    0.29    0.27
   6   9  -7    4.53    0.34
   6   9  -7    4.25    0.60
   6  -9   7    5.27    0.53
  -6  -9   7    4.35    0.50
   6   9  -8   14.54    0.82
   6  -9   8   12.95    0.75
  -6  -9   8   15.54    0.80
   6   9  -9    0.21    0.36
   6  -9   9    0.44    0.29
  -6  -9   9    0.83    0.31
   6  -9  10   10.17    0.67
   6   9 -10   11.59    0.72
  -6  -9  10   11.75    0.75
   6   9 -11    0.90    0.34
   6  -9  11    0.18    0.32
  -6  -9  11   -0.08    0.38
   6   9 -12    0.41    0.37
   6  -9  12   -0.03    0.45
   6  -9  12   -0.07    0.33
  -6  -9  12    0.97    0.41
   6  -9  13   -0.01    0.32
   6  -9  13    0.34    0.52
   6   9 -13    0.41    0.40
  -6  -9  13   -0.87    0.39
   6  -9  14    0.49    0.34
   6   9 -14    0.98    0.44
   6  -9  14   -0.27    0.54
  -6  -9  14   -0.55    0.47
   6   9 -15   -0.25    0.47
   6  -9  15   -0.77    0.61
   6  -9  15    0.01    0.39
  -6  -9  15   -0.27    0.53
   7   9  14    0.00    0.57
  -7   9  14   -0.34    0.60
  -7   9  14   -0.04    0.58
   7   9  13    0.25    0.50
  -7   9  13    1.59    0.55
  -7   9  13    2.81    0.60
   7   9  12   -0.24    0.47
  -7   9  12   -0.45    0.47
  -7   9  12    0.25    0.49
   7   9  11    0.21    0.46
  -7   9  11   -0.16    0.45
  -7   9  11    0.63    0.46
   7   9  10    1.77    0.53
  -7   9  10    2.05    0.46
  -7   9  10    1.34    0.46
   7   9   9    0.20    0.43
  -7   9   9    0.05    0.39
  -7   9   9    0.05    0.38
   7   9   8    0.02    0.23
   7   9   8    0.20    0.41
  -7   9   8   -0.33    0.35
   7   9   7   -0.34    0.39
   7   9   7    0.07    0.22
  -7   9   7   -0.03    0.34
  -7   9   7    0.42    0.38
   7   9   6   -0.18    0.22
   7   9   6   -0.23    0.39
  -7   9   6   -0.16    0.31
   7   9   5    1.23    0.45
   7   9   5    1.16    0.26
  -7   9   5    1.45    0.35
   7   9   4    6.83    0.72
   7   9   4    7.04    0.49
  -7   9   4    6.09    0.57
   7   9   3   -0.22    0.46
   7   9   3    0.14    0.27
   7  -9  -3    0.21    0.37
   7  -9  -3   -0.26    0.35
   7   9   2   21.76    1.09
   7  -9  -2   22.93    1.10
   7   9   2   21.04    0.88
   7   9   2   22.08    0.91
   7  -9  -2   21.74    1.10
   7  -9  -1    0.35    0.37
   7   9   1    0.21    0.33
   7  -9  -1    0.26    0.35
  -7  -9  -1    0.36    0.24
   7  -9   0    0.71    0.38
   7   9   0    0.45    0.32
   7   9   0    0.92    0.45
   7  -9   0    0.50    0.38
  -7  -9   0    1.07    0.30
   7   9  -1    0.49    0.44
   7  -9   1   -0.38    0.32
   7   9  -1    0.05    0.31
  -7  -9   1    0.13    0.31
   7   9  -2   21.57    1.10
   7   9  -2   20.82    0.89
   7  -9   2   21.56    1.04
  -7  -9   2   22.34    1.00
   7   9  -3    0.65    0.45
   7   9  -3    0.65    0.30
  -7  -9   3    0.60    0.31
   7   9  -4    7.13    0.69
   7  -9   4    6.35    0.62
   7   9  -4    6.05    0.50
  -7  -9   4    6.94    0.61
   7   9  -5    1.35    0.42
   7  -9   5    1.98    0.41
   7   9  -5    0.84    0.30
  -7  -9   5    0.79    0.34
   7  -9   6   -0.17    0.33
   7   9  -6    0.16    0.28
   7   9  -6    0.38    0.38
  -7  -9   6    0.43    0.30
   7  -9   7    0.25    0.33
   7   9  -7    0.01    0.36
  -7  -9   7    0.21    0.35
   7   9  -8   -0.05    0.36
   7  -9   8   -0.29    0.34
  -7  -9   8    0.35    0.37
   7  -9   9    0.04    0.34
   7   9  -9   -0.08    0.34
  -7  -9   9    0.09    0.35
   7  -9  10    1.16    0.37
   7   9 -10    1.59    0.41
  -7  -9  10    1.24    0.43
   7  -9  11    0.22    0.40
   7   9 -11    0.10    0.38
  -7  -9  11    0.69    0.44
   7  -9  12   -1.13    0.54
   7   9 -12   -0.31    0.43
   7  -9  12   -0.79    0.36
  -7  -9  12    0.15    0.45
   7  -9  13    0.23    0.60
   7  -9  13    0.90    0.44
   7   9 -13    0.99    0.48
  -7  -9  13    1.20    0.57
   7  -9  14   -0.51    0.41
   7  -9  14   -0.82    0.63
   7   9 -14   -0.58    0.51
  -7  -9  14   -0.34    0.56
   8   9  12    0.15    0.57
  -8   9  12    0.05    0.59
   8   9  11    0.74    0.58
  -8   9  11   -0.58    0.59
   8   9  10    0.45    0.54
  -8   9  10    0.15    0.53
  -8   9   9   -0.44    0.48
   8   9   8   -0.15    0.49
  -8   9   8    0.18    0.46
   8   9   7    0.81    0.51
  -8   9   7    1.51    0.47
   8   9   6    0.19    0.46
   8   9   6   -0.07    0.35
  -8   9   6    0.13    0.38
   8   9   5    0.04    0.37
   8   9   5    1.35    0.47
  -8   9   5   -0.31    0.38
   8   9   4    3.18    0.51
   8  -9  -4    3.01    0.57
   8  -9  -4    2.65    0.58
   8   9   4    3.19    0.50
  -8   9   4    3.48    0.50
   8  -9  -3   -0.36    0.47
   8  -9  -3    0.94    0.48
   8   9   3    0.05    0.44
   8   9   3   -0.13    0.44
   8   9   2    3.70    0.59
   8  -9  -2    3.11    0.58
   8  -9  -2    4.49    0.67
   8   9   2    3.53    0.56
   8   9   2    3.17    0.55
   8   9   1   -0.55    0.41
   8   9   1    0.43    0.45
   8   9   1   -0.20    0.42
   8  -9  -1    0.20    0.43
   8   9   1    0.31    0.43
   8  -9  -1    0.41    0.47
   8  -9   0    0.36    0.44
   8  -9   0   -0.68    0.42
   8   9   0    0.62    0.44
   8   9   0   -0.42    0.53
  -8  -9   0    0.03    0.37
   8   9  -1    0.55    0.44
   8   9  -1   -0.61    0.44
   8  -9   1    1.18    0.46
  -8  -9   1    0.36    0.38
   8  -9   2    3.72    0.58
   8   9  -2    3.83    0.57
   8   9  -2    3.38    0.53
  -8  -9   2    4.72    0.63
   8   9  -3    0.19    0.41
   8  -9   3   -0.01    0.41
   8   9  -3    0.69    0.37
  -8  -9   3    0.27    0.36
   8   9  -4    2.30    0.46
   8  -9   4    3.36    0.58
   8   9  -4    3.98    0.57
  -8  -9   4    3.87    0.49
   8   9  -5    0.10    0.39
   8   9  -5    0.07    0.36
   8  -9   5    0.27    0.43
  -8  -9   5    0.97    0.42
   8   9  -6   -0.32    0.38
   8  -9   6    0.55    0.39
  -8  -9   6    0.01    0.40
   8  -9   7    0.83    0.44
   8   9  -7    0.77    0.39
  -8  -9   7    1.24    0.45
   8  -9   8   -0.39    0.41
   8   9  -8    0.08    0.38
  -8  -9   8    0.28    0.44
   8  -9   9   -0.18    0.41
   8   9  -9    0.38    0.40
  -8  -9   9    0.23    0.45
   8  -9  10   -0.11    0.43
   8   9 -10   -0.19    0.45
  -8  -9  10    0.68    0.51
   8  -9  11   -0.78    0.46
   8   9 -11   -0.65    0.46
  -8  -9  11    1.01    0.53
   8   9 -12    0.45    0.51
   8  -9  12   -0.85    0.47
   8  -9  12   -0.20    0.61
  -8  -9  12    0.22    0.61
   9   9   9    3.15    0.69
  -9   9   9    3.67    0.73
   9   9   8    0.50    0.57
  -9   9   8    1.69    0.65
   9   9   7    1.27    0.56
  -9   9   7    2.80    0.69
   9   9   6    0.46    0.51
  -9   9   6    0.83    0.52
   9  -9  -5    0.30    0.64
   9  -9  -5    0.05    0.62
   9   9   5   -0.34    0.51
   9  -9  -4    1.90    0.63
   9   9   4    1.31    0.53
   9  -9  -4    0.84    0.59
   9   9   4    1.90    0.54
   9   9   3   -0.22    0.49
   9  -9  -3   -0.22    0.52
   9  -9  -3   -0.21    0.54
   9   9   3    0.85    0.47
   9  -9  -2    0.64    0.58
   9   9   2    0.98    0.48
   9   9   2    0.74    0.49
   9  -9  -2    0.64    0.59
   9   9   1    1.56    0.50
   9  -9  -1    0.84    0.53
   9  -9  -1    1.82    0.58
   9   9   1   -0.14    0.45
   9   9   1    1.69    0.49
   9   9   1    0.90    0.51
   9   9   0    0.35    0.46
   9  -9   0   -0.09    0.51
   9   9   0    0.13    0.52
   9   9   0   -0.45    0.46
   9   9   0   -0.26    0.47
   9   9  -1    1.53    0.51
   9   9  -1    1.31    0.52
   9  -9   1    0.71    0.51
  -9  -9   1    1.77    0.53
   9   9  -2   -0.78    0.49
   9   9  -2    0.12    0.51
   9  -9   2   -0.77    0.48
  -9  -9   2   -0.18    0.46
   9   9  -3    1.34    0.49
   9  -9   3    1.40    0.57
   9   9  -3    0.51    0.61
  -9  -9   3    0.74    0.47
   9   9  -4    2.47    0.52
   9  -9   4    1.45    0.58
   9   9  -4    2.12    0.59
  -9  -9   4    2.02    0.54
   9   9  -5    0.17    0.46
   9  -9   5   -1.23    0.50
  -9  -9   5    0.40    0.52
   9  -9   6   -0.07    0.53
   9   9  -6   -0.07    0.44
  -9  -9   6   -0.52    0.50
   9  -9   7    2.87    0.62
   9   9  -7    1.39    0.47
  -9  -9   7    1.35    0.58
   9   9  -8    1.46    0.49
   9  -9   8    1.72    0.59
  -9  -9   8    1.23    0.61
   9   9  -9    3.45    0.53
   9  -9   9    3.44    0.70
  -9  -9   9    5.34    0.78
  10  -9  -4   -0.22    0.74
  10  -9  -4   -0.11    0.73
  10   9   4    0.18    0.57
  10  -9  -3    1.15    0.75
  10   9   3    0.22    0.59
  10  -9  -3    0.87    0.76
  10   9   2    0.36    0.56
  10  -9  -2    0.28    0.72
  10   9   2    0.66    0.62
  10   9   2    0.16    0.56
  10  -9  -2   -0.58    0.74
  10   9   1    0.94    0.61
  10   9   1    1.51    0.66
  10   9   1    1.38    0.57
  10   9   1    1.37    0.63
  10  -9  -1    0.91    0.72
  10   9   0    0.28    0.63
  10  -9   0    0.63    0.68
  10   9   0    0.39    0.62
  10   9   0    1.74    0.58
  10  -9   1    0.55    0.64
  10   9  -1    0.22    0.63
  10   9  -1    0.71    0.58
  10   9  -1    1.50    0.57
  10   9  -1   -0.01    0.65
  10   9  -2   -0.43    0.54
  10   9  -2    0.29    0.60
  10  -9   2    0.55    0.63
 -10  -9   2    1.26    0.62
  10   9  -3    0.35    0.64
  10   9  -3   -0.07    0.55
  10  -9   3    0.50    0.72
 -10  -9   3   -0.46    0.60
  10   9  -4   -0.28    0.52
  10  -9   4   -0.76    0.73
 -10  -9   4    0.75    0.62
   0  10  18    0.04    0.48
   0  10  18    0.66    0.34
   0  10  17   -0.05    0.28
   0  10  17    0.09    0.41
   0  10  16    6.02    0.50
   0  10  16    6.13    0.66
   0  10  15    0.55    0.35
   0  10  15    0.66    0.23
   0  10  14    9.06    0.50
   0  10  14    9.39    0.67
   0  10  13   17.83    0.80
   0  10  13   18.95    0.75
   0  10  12    6.98    0.44
   0  10  12    6.69    0.45
   0  10  11   32.14    1.05
   0  10  11   31.95    1.03
   0  10  10    3.46    0.33
   0  10  10    3.56    0.30
   0  10   9   30.24    0.97
   0  10   9   31.44    0.96
   0  10   8   37.17    1.09
   0  10   8   37.21    1.11
   0  10   7    3.05    0.24
   0  10   7    2.59    0.23
   0 -10  -6  118.50    3.15
   0  10   6  124.81    3.23
   0  10   6  129.07    3.19
   0  10   5    0.89    0.13
   0  10   5    1.12    0.17
   0 -10  -5    0.86    0.12
   0 -10  -4   43.34    1.17
   0  10   4   44.14    1.22
   0  10   3   18.32    0.59
   0 -10  -3   17.93    0.55
   0 -10  -3   18.65    0.58
   0 -10  -2    6.00    0.27
   0  10   2    5.77    0.35
   0 -10  -2    5.48    0.25
   0  10   2    5.92    0.27
   0 -10  -1   32.26    0.89
   0  10   1   32.00    0.90
   0  10   1   31.87    0.98
   0  10   1   31.44    0.92
   0  10   1   31.22    0.92
   0  10   0    9.38    0.41
   0  10   0    9.24    0.34
   0 -10   0    8.86    0.33
   0  10   0    8.72    0.37
   0 -10   1   32.19    0.87
   0  10  -1   25.65    0.90
   0  10  -1   32.02    0.95
   0  10  -1   32.38    0.88
   0  10  -2    6.06    0.32
   0 -10   2    5.65    0.26
   0  10  -2    5.58    0.26
   0  10  -3   17.94    0.56
   0 -10   3   18.30    0.57
   0  10  -3   17.47    0.63
   0  10  -4   42.69    1.18
   0 -10   4   43.17    1.20
   0  10  -4   43.35    1.27
   0 -10   5    1.15    0.16
   0  10  -5    0.77    0.16
   0  10  -6  123.64    3.27
   0 -10   6  122.54    3.19
   0 -10   7    2.78    0.24
   0  10  -7    2.91    0.29
   0  10  -8   40.04    1.21
   0 -10   8   35.66    1.12
   0 -10   9   29.65    0.91
   0 -10   9   26.84    0.89
   0 -10  10    3.33    0.36
   0 -10  10    2.82    0.25
   0 -10  11   28.56    0.94
   0 -10  11   30.34    0.97
   0 -10  12    5.48    0.42
   0 -10  12    4.90    0.37
   0 -10  13   16.62    0.68
   0 -10  13   15.57    0.64
   0 -10  14    8.90    0.54
   0 -10  14    8.15    0.46
   0 -10  15    0.18    0.27
   0 -10  15    0.03    0.24
   0 -10  16    4.87    0.53
   0 -10  17    0.72    0.35
   0 -10  18   -0.35    0.41
   0 -10  19    0.98    0.51
   1  10  18    0.87    0.40
   1  10  18    1.15    0.53
  -1  10  18    1.53    0.51
  -1  10  18    1.21    0.39
   1  10  17    0.14    0.30
   1  10  17   -0.56    0.43
  -1  10  17    0.66    0.31
  -1  10  17   -0.08    0.41
   1  10  16    0.83    0.39
   1  10  16    0.33    0.27
  -1  10  16    0.43    0.36
  -1  10  16    0.73    0.30
   1  10  15    0.62    0.27
   1  10  15    0.21    0.36
  -1  10  15    0.40    0.26
  -1  10  15    0.02    0.32
   1  10  14    2.74    0.36
   1  10  14    2.84    0.38
  -1  10  14    2.28    0.32
  -1  10  14    2.34    0.37
   1  10  13    2.62    0.34
   1  10  13    3.29    0.40
  -1  10  13    2.60    0.38
  -1  10  13    2.73    0.40
   1  10  12   -0.17    0.18
   1  10  12    0.17    0.19
  -1  10  12    0.52    0.25
  -1  10  12    0.12    0.30
   1  10  11    0.30    0.23
   1  10  11    0.31    0.17
  -1  10  11    0.36    0.19
  -1  10  11    0.44    0.21
   1  10  10    6.37    0.35
   1  10  10    7.12    0.41
  -1  10  10    6.03    0.40
  -1  10  10    6.31    0.38
   1  10   9   17.47    0.58
   1  10   9   17.42    0.66
  -1  10   9   17.27    0.66
  -1  10   9   16.84    0.63
   1  10   8   -0.04    0.12
   1  10   8    0.16    0.14
  -1  10   8    0.28    0.15
  -1 -10  -8    0.22    0.10
  -1  10   8    0.30    0.14
   1  10   7   20.36    0.61
   1  10   7   20.45    0.70
  -1  10   7   20.62    0.70
  -1  10   7   20.86    0.69
  -1 -10  -7   19.02    0.56
   1  10   6    0.40    0.09
   1  10   6    0.50    0.12
  -1 -10  -6    0.44    0.07
  -1  10   6    0.49    0.12
  -1  10   6    0.23    0.13
   1  10   5   13.83    0.50
  -1 -10  -5   13.14    0.38
  -1  10   5   14.49    0.51
  -1  10   5   14.20    0.51
   1  10   4   84.16    2.23
  -1  10   4   85.80    2.23
  -1  10   4   84.03    2.25
  -1  10   4   82.79    2.24
   1 -10  -3   26.65    0.86
   1 -10  -3   26.93    0.86
   1  10   3   26.57    0.79
  -1  10   3   26.80    0.81
  -1  10   3   25.57    0.82
   1  10   2   32.59    1.04
   1 -10  -2   32.17    0.97
   1 -10  -2   31.87    0.96
   1  10   2   32.42    0.90
  -1  10   2   31.95    0.93
  -1 -10  -2   32.38    0.83
  -1  10   2   31.55    0.93
  -1 -10  -2   26.90    0.80
   1  10   1    2.89    0.18
   1 -10  -1    2.95    0.24
   1  10   1    2.74    0.18
   1  10   1    2.81    0.30
  -1  10   1    3.08    0.22
  -1  10   1    2.79    0.21
  -1 -10  -1    2.82    0.13
   1  10   0   -0.09    0.09
   1  10   0    0.07    0.15
   1 -10   0   -0.02    0.11
   1  10   0   -0.03    0.07
  -1  10   0   -0.07    0.09
  -1  10   0    0.11    0.11
  -1 -10   0    0.04    0.06
   1  10  -1    2.70    0.20
   1  10  -1    2.60    0.27
   1  10  -1    2.76    0.16
   1 -10   1    2.78    0.23
  -1 -10   1    2.90    0.15
  -1  10  -1    2.65    0.22
  -1  10  -1    3.36    0.22
   1  10  -2   32.33    0.87
   1 -10   2   32.13    0.96
   1  10  -2   31.77    1.01
  -1 -10   2   30.71    0.87
  -1  10  -2   31.51    0.94
  -1  10  -2   31.78    0.94
   1  10  -3   25.80    0.86
   1  10  -3   25.64    0.72
   1 -10   3   25.87    0.80
  -1  10  -3   26.13    0.81
  -1  10  -3   25.01    0.78
  -1 -10   3   25.12    0.73
   1  10  -4   83.10    2.27
   1 -10   4   81.02    2.20
   1  10  -4   83.76    2.11
  -1 -10   4   81.18    2.15
  -1  10  -4   82.97    2.22
   1 -10   5   13.45    0.50
   1  10  -5   14.17    0.56
  -1  10  -5   13.66    0.53
  -1 -10   5   13.61    0.47
   1  10  -6    0.48    0.16
   1 -10   6    0.40    0.13
  -1  10  -6    0.56    0.15
  -1 -10   6    0.67    0.12
  -1 -10   6    0.46    0.09
   1  10  -7   20.04    0.74
   1 -10   7   20.92    0.69
  -1 -10   7   20.05    0.67
  -1 -10   7   18.64    0.53
   1  10  -8    0.11    0.15
   1 -10   8    0.09    0.15
  -1 -10   8    0.11    0.08
  -1 -10   8    0.21    0.14
  -1 -10   8    0.30    0.12
   1  10  -9   16.96    0.69
   1 -10   9   16.39    0.61
  -1 -10   9   15.90    0.49
  -1 -10   9   16.30    0.46
  -1 -10   9   16.59    0.61
   1  10 -10    6.02    0.44
   1 -10  10    5.24    0.35
  -1 -10  10    6.03    0.36
   1 -10  11   -0.07    0.14
   1 -10  11    0.35    0.27
  -1 -10  11    0.41    0.16
  -1 -10  11    0.16    0.11
   1 -10  12    0.25    0.17
   1 -10  12    0.55    0.28
  -1 -10  12   -0.16    0.17
   1 -10  13    2.19    0.32
   1 -10  13    2.47    0.37
  -1 -10  13    2.28    0.30
  -1 -10  13    2.24    0.19
   1 -10  14    2.44    0.38
   1 -10  14    2.40    0.32
  -1 -10  14    2.25    0.32
   1 -10  15    0.79    0.33
   1 -10  15    0.35    0.26
  -1 -10  15    0.70    0.30
   1 -10  16    0.96    0.31
   1 -10  16    0.65    0.34
  -1 -10  16    0.46    0.32
   1 -10  17    0.33    0.34
  -1 -10  17    0.75    0.37
   1 -10  18    0.65    0.42
  -1 -10  18    1.09    0.47
   2  10  18    1.57    0.41
  -2  10  18    1.52    0.52
  -2  10  18    1.89    0.45
   2  10  17    1.06    0.36
  -2  10  17    0.80    0.34
  -2  10  17    1.20    0.47
   2  10  16    0.10    0.41
   2  10  16    0.29    0.29
  -2  10  16    0.92    0.38
  -2  10  16    0.41    0.29
   2  10  15    0.37    0.27
   2  10  15    0.19    0.38
  -2  10  15    0.85    0.36
  -2  10  15    0.35    0.26
   2  10  14    0.23    0.25
   2  10  14    0.37    0.25
  -2  10  14    0.50    0.31
  -2  10  14    0.27    0.24
   2  10  13    1.46    0.25
   2  10  13    1.46    0.27
  -2  10  13    1.19    0.32
  -2  10  13    1.03    0.26
   2  10  12    6.11    0.42
   2  10  12    4.92    0.37
  -2  10  12    5.12    0.53
  -2  10  12    4.67    0.45
   2  10  11    9.66    0.52
   2  10  11    9.37    0.42
  -2  10  11    9.37    0.50
  -2  10  11    8.20    0.65
   2  10  10   -0.02    0.22
   2  10  10    0.00    0.14
  -2  10  10    0.22    0.16
  -2  10  10    0.38    0.24
   2  10   9   72.11    1.85
   2  10   9   70.57    2.02
  -2  10   9   70.46    1.97
  -2 -10  -9   66.59    1.84
  -2  10   9   71.33    2.02
   2  10   8    6.58    0.40
   2  10   8    6.54    0.26
  -2  10   8    6.32    0.41
  -2 -10  -8    5.86    0.28
  -2  10   8    5.64    0.36
   2  10   7    0.71    0.09
   2  10   7    0.65    0.16
  -2  10   7    0.36    0.17
  -2  10   7    0.66    0.16
  -2 -10  -7    0.73    0.11
   2  10   6   19.74    0.71
  -2  10   6   20.52    0.70
  -2  10   6   19.41    0.71
   2  10   5    6.49    0.34
  -2  10   5    5.98    0.33
  -2  10   5    6.72    0.31
  -2  10   5    5.79    0.34
   2  10   4    1.24    0.19
  -2  10   4    0.33    0.14
  -2  10   4    0.66    0.13
  -2  10   4    0.79    0.13
   2  10   3    1.00    0.16
  -2  10   3    0.60    0.15
  -2  10   3    0.95    0.12
  -2  10   3    0.92    0.15
   2  10   2   72.86    1.93
   2 -10  -2   71.55    2.04
   2 -10  -2   71.55    2.04
  -2  10   2   72.15    1.97
  -2  10   2   73.18    1.87
   2  10   1    1.11    0.11
   2 -10  -1    0.87    0.18
   2  10   1    1.09    0.14
   2  10   1    1.11    0.23
  -2  10   1    1.27    0.15
  -2 -10  -1    0.99    0.11
  -2  10   1    1.19    0.17
   2  10   0    4.50    0.37
   2  10   0    3.93    0.18
   2  10   0    4.28    0.21
   2 -10   0    3.93    0.32
  -2  10   0    4.03    0.27
  -2 -10   0    4.17    0.19
  -2  10   0    3.99    0.22
   2 -10   1    1.39    0.20
   2  10  -1    1.03    0.12
   2  10  -1    1.26    0.23
   2  10  -1    1.07    0.11
  -2 -10   1    1.18    0.13
  -2  10  -1    1.00    0.17
  -2  10  -1    1.34    0.18
   2 -10   2   70.12    1.97
   2  10  -2   71.71    1.81
   2  10  -2   69.71    2.01
  -2 -10   2   70.13    1.84
  -2  10  -2   71.85    1.89
  -2  10  -2   68.57    1.93
   2  10  -3    1.08    0.11
   2  10  -3    0.89    0.20
  -2 -10   3    1.03    0.15
  -2  10  -3    0.83    0.17
   2  10  -4    0.64    0.16
   2 -10   4    0.83    0.16
   2  10  -4    0.96    0.10
  -2 -10   4    0.64    0.12
   2  10  -5    6.17    0.37
   2 -10   5    6.18    0.37
  -2 -10   5    5.95    0.31
   2 -10   6   19.13    0.70
   2  10  -6   19.78    0.74
  -2 -10   6   18.89    0.65
   2  10  -7    0.83    0.18
   2 -10   7    0.71    0.19
  -2 -10   7    0.70    0.15
   2  10  -8    6.24    0.39
   2 -10   8    6.44    0.37
  -2 -10   8    6.36    0.40
   2  10  -9   67.03    1.97
   2 -10   9   66.46    1.89
  -2 -10   9   67.80    1.91
   2  10 -10    0.26    0.20
   2 -10  10    0.20    0.15
  -2 -10  10    0.12    0.16
   2  10 -11    8.84    0.57
   2 -10  11    9.49    0.61
   2 -10  11    8.28    0.43
  -2 -10  11    9.34    0.49
   2 -10  12    5.77    0.39
   2  10 -12    4.83    0.47
   2 -10  12    4.39    0.56
  -2 -10  12    5.41    0.43
   2 -10  13    1.01    0.23
   2 -10  13    1.42    0.37
  -2 -10  13    1.47    0.31
   2 -10  14    0.77    0.24
   2 -10  14    0.26    0.38
  -2 -10  14   -0.19    0.25
   2 -10  15    0.01    0.41
   2 -10  15    0.60    0.28
  -2 -10  15    0.18    0.28
   2 -10  16    1.15    0.49
   2 -10  16    0.57    0.29
  -2 -10  16    0.45    0.37
   2 -10  17    0.34    0.56
  -2 -10  17    0.37    0.41
   2 -10  18    2.21    0.46
   2 -10  18    2.37    1.03
  -2 -10  18    1.99    0.56
   3  10  18   -0.07    0.41
  -3  10  18    0.25    0.43
  -3  10  18    0.45    0.57
   3  10  17    0.77    0.40
  -3  10  17    0.10    0.49
  -3  10  17   -0.67    0.35
   3  10  16    0.38    0.35
  -3  10  16    0.57    0.43
  -3  10  16    1.47    0.36
   3  10  15    0.79    0.32
  -3  10  15    1.65    0.42
  -3  10  15    1.67    0.32
   3  10  14    3.54    0.49
   3  10  14    5.35    0.45
  -3  10  14    4.19    0.63
  -3  10  14    4.40    0.44
   3  10  13    0.31    0.26
   3  10  13    0.79    0.23
  -3  10  13    0.45    0.31
  -3  10  13    0.62    0.27
   3  10  12   11.15    0.47
   3  10  12   11.53    0.61
  -3  10  12    9.86    0.59
  -3  10  12   10.77    0.67
   3  10  11   -0.21    0.22
   3  10  11    0.09    0.16
  -3  10  11    0.47    0.28
  -3  10  11    0.14    0.26
   3  10  10   24.93    0.98
   3  10  10   25.89    0.75
  -3  10  10   25.54    1.00
  -3  10  10   24.42    0.90
   3  10   9    0.96    0.29
   3  10   9    0.86    0.12
  -3  10   9    0.77    0.33
  -3 -10  -9    0.75    0.20
  -3  10   9    0.76    0.19
   3  10   8    0.57    0.21
   3  10   8    0.55    0.10
  -3  10   8    0.55    0.25
  -3  10   8    0.22    0.12
  -3 -10  -8    0.47    0.18
  -3  10   8    0.59    0.18
  -3 -10  -8    0.34    0.17
   3  10   7    3.58    0.34
  -3  10   7    2.90    0.30
  -3  10   7    2.90    0.36
   3  10   6    0.14    0.17
  -3  10   6    0.14    0.15
  -3  10   6   -0.05    0.17
   3  10   5    0.67    0.18
  -3  10   5    0.57    0.18
  -3  10   5    0.52    0.18
   3  10   4    0.05    0.15
  -3  10   4    0.18    0.14
  -3  10   4   -0.08    0.14
   3  10   3   27.86    0.89
  -3  10   3   27.10    0.90
  -3  10   3   26.97    0.90
   3 -10  -2    6.41    0.44
   3 -10  -2    6.49    0.45
   3 -10  -2    6.19    0.28
   3  10   2    7.05    0.36
   3  10   2    6.98    0.20
  -3 -10  -2    6.19    0.23
  -3  10   2    6.53    0.37
   3  10   1   29.55    0.77
   3  10   1   29.72    0.89
   3 -10  -1   29.14    1.03
   3 -10  -1   28.69    1.02
   3  10   1   28.29    1.05
  -3 -10  -1   28.80    0.80
  -3  10   1   28.61    0.94
   3  10   0   -0.14    0.07
   3  10   0   -0.06    0.20
   3  10   0    0.02    0.11
   3 -10   0    0.18    0.18
  -3  10   0    0.12    0.13
  -3 -10   0    0.13    0.10
   3 -10   1   28.79    1.00
   3  10  -1   28.67    1.03
   3  10  -1   29.40    0.84
  -3 -10   1   29.26    0.84
  -3  10  -1   28.14    0.94
   3  10  -2    6.03    0.43
   3  10  -2    6.91    0.27
   3 -10   2    6.88    0.43
  -3 -10   2    6.20    0.30
  -3  10  -2    6.16    0.37
   3  10  -3   26.60    0.97
   3 -10   3   27.49    0.96
   3  10  -3   28.06    0.75
  -3 -10   3   27.11    0.84
   3  10  -4    0.22    0.19
   3  10  -4    0.08    0.06
   3 -10   4    0.02    0.15
  -3 -10   4    0.01    0.11
   3  10  -5    0.70    0.20
   3 -10   5    0.49    0.20
  -3 -10   5    0.43    0.14
   3  10  -6    0.01    0.19
   3 -10   6    0.30    0.19
  -3 -10   6    0.14    0.14
   3  10  -7    2.81    0.33
   3 -10   7    2.58    0.29
  -3 -10   7    3.03    0.32
   3  10  -8    0.45    0.21
   3 -10   8    0.75    0.18
  -3 -10   8    0.70    0.21
   3 -10   9    0.73    0.17
   3  10  -9    0.98    0.26
  -3 -10   9    0.92    0.21
   3 -10  10   23.21    0.85
   3  10 -10   25.24    0.97
  -3 -10  10   25.00    0.91
   3  10 -11    0.44    0.29
   3 -10  11    0.16    0.20
  -3 -10  11    0.37    0.22
   3  10 -12   10.47    0.65
   3 -10  12    9.24    0.72
   3 -10  12    8.75    0.49
  -3 -10  12   10.37    0.59
   3 -10  13    0.75    0.23
   3 -10  13   -0.01    0.42
   3  10 -13    0.02    0.32
  -3 -10  13    0.94    0.31
   3 -10  14    4.20    0.44
   3 -10  14    4.50    0.65
  -3 -10  14    3.84    0.52
   3 -10  15    1.28    0.63
   3 -10  15    1.68    0.32
  -3 -10  15    1.31    0.39
   3 -10  16    1.22    0.59
   3 -10  16    0.36    0.31
  -3 -10  16    1.10    0.41
   3 -10  17    0.26    0.34
   3 -10  17    0.48    0.58
  -3 -10  17   -0.08    0.45
   3 -10  18    1.33    0.64
   3 -10  18   -0.04    0.39
  -3 -10  18    0.29    0.52
   4  10  17    0.86    0.44
  -4  10  17    0.36    0.46
  -4  10  17   -0.43    0.54
   4  10  16   -0.33    0.40
  -4  10  16    0.80    0.40
  -4  10  16   -0.31    0.49
   4  10  15    1.96    0.43
  -4  10  15    1.82    0.39
  -4  10  15    1.46    0.46
   4  10  14    0.30    0.34
  -4  10  14   -0.52    0.40
  -4  10  14   -0.54    0.28
   4  10  13    0.81    0.32
  -4  10  13    0.60    0.29
  -4  10  13    1.42    0.38
   4  10  12    0.22    0.26
   4  10  12    0.29    0.19
  -4  10  12    0.15    0.33
  -4  10  12    0.77    0.30
   4  10  11    0.58    0.31
   4  10  11    0.70    0.17
  -4  10  11    0.49    0.31
  -4  10  11    0.65    0.30
   4  10  10    6.89    0.49
   4  10  10    7.71    0.32
  -4  10  10    6.72    0.56
  -4  10  10    6.48    0.55
   4  10   9    2.96    0.42
   4  10   9    2.77    0.20
  -4  10   9    2.36    0.33
  -4  10   9    3.62    0.47
   4  10   8   13.71    0.40
   4  10   8   12.35    0.44
   4  10   8   13.44    0.73
  -4  10   8   13.64    0.69
  -4  10   8   13.73    0.62
   4  10   7   23.72    0.95
  -4  10   7   23.22    0.94
  -4  10   7   23.80    0.87
   4  10   6   20.50    0.84
  -4  10   6   20.67    0.86
  -4  10   6   20.67    0.80
   4  10   5    3.06    0.34
  -4  10   5    2.66    0.40
  -4  10   5    2.62    0.32
   4  10   4   31.12    0.81
   4  10   4   30.32    1.04
  -4  10   4   29.68    1.06
  -4  10   4   30.04    1.03
   4  10   3    1.21    0.17
   4  10   3    1.27    0.13
   4  10   3    1.46    0.22
  -4  10   3    1.25    0.24
  -4  10   3    1.89    0.26
   4 -10  -2    7.24    0.55
   4 -10  -2    6.88    0.54
   4  10   2    7.25    0.41
   4  10   2    7.17    0.25
  -4  10   2    6.96    0.43
  -4 -10  -2    7.08    0.31
   4 -10  -1    7.93    0.56
   4 -10  -1    8.43    0.56
   4  10   1    7.66    0.41
   4  10   1    7.54    0.28
  -4 -10  -1    7.77    0.34
  -4  10   1    7.76    0.44
   4  10   0   18.62    0.68
   4  10   0   19.94    0.86
   4 -10   0   19.99    0.86
  -4  10   0   18.72    0.73
  -4 -10   0   19.13    0.63
   4  10  -1    8.06    0.54
   4 -10   1    7.68    0.54
   4  10  -1    8.10    0.38
  -4 -10   1    8.09    0.37
   4  10  -2    7.56    0.50
   4 -10   2    7.19    0.52
   4  10  -2    6.89    0.34
  -4 -10   2    7.04    0.37
   4 -10   3    1.52    0.29
   4  10  -3    1.30    0.19
   4  10  -3    1.40    0.27
  -4 -10   3    1.30    0.19
   4 -10   4   29.70    1.05
   4  10  -4   26.75    0.79
   4  10  -4   29.72    1.05
  -4 -10   4   29.10    0.93
   4 -10   5    1.68    0.25
   4  10  -5    2.30    0.14
   4  10  -5    2.74    0.35
  -4 -10   5    2.78    0.28
   4  10  -6   19.90    0.82
   4 -10   6   20.30    0.81
  -4 -10   6   20.88    0.78
   4 -10   7   22.53    0.87
   4  10  -7   23.06    0.90
  -4 -10   7   25.21    0.92
   4  10  -8   12.92    0.64
   4 -10   8   13.34    0.61
  -4 -10   8   12.58    0.64
   4  10  -9    3.06    0.40
   4 -10   9    2.31    0.30
  -4 -10   9    2.69    0.37
   4  10 -10    6.50    0.56
   4 -10  10    7.16    0.47
  -4 -10  10    6.58    0.50
   4  10 -11   -0.09    0.30
   4 -10  11    0.61    0.22
  -4 -10  11    0.05    0.26
   4  10 -12    0.46    0.29
   4 -10  12    0.36    0.24
  -4 -10  12    0.37    0.29
   4  10 -13    0.07    0.33
   4 -10  13    0.84    0.49
   4 -10  13    0.53    0.27
  -4 -10  13   -0.10    0.30
   4  10 -14   -0.47    0.35
   4 -10  14   -0.03    0.26
   4 -10  14    0.78    0.53
  -4 -10  14   -0.19    0.32
   4 -10  15    1.72    0.35
   4 -10  15    0.77    0.61
  -4 -10  15    1.79    0.46
   4 -10  16   -0.12    0.30
   4 -10  16    0.60    0.59
  -4 -10  16   -0.19    0.41
   4 -10  17    0.09    0.67
   4 -10  17    0.17    0.35
  -4 -10  17    0.18    0.54
   5  10  16   -0.02    0.46
  -5  10  16   -0.43    0.55
  -5  10  16    0.93    0.50
   5  10  15    2.93    0.51
  -5  10  15    2.63    0.58
  -5  10  15    3.29    0.56
   5  10  14    2.15    0.45
  -5  10  14    2.07    0.46
  -5  10  14    2.04    0.47
   5  10  13    0.37    0.37
  -5  10  13    0.89    0.37
  -5  10  13    0.93    0.42
   5  10  12    4.21    0.55
  -5  10  12    3.04    0.45
  -5  10  12    4.31    0.55
   5  10  11    0.14    0.32
  -5  10  11    0.30    0.37
  -5  10  11    0.70    0.32
   5  10  10   21.05    0.63
   5  10  10   19.33    0.92
  -5  10  10   18.00    0.93
  -5  10  10   18.34    0.85
   5  10   9    4.46    0.50
   5  10   9    3.67    0.25
  -5  10   9    4.09    0.55
  -5  10   9    4.21    0.53
   5  10   8   -0.02    0.11
   5  10   8   -0.45    0.27
  -5  10   8   -0.23    0.27
  -5  10   8   -0.20    0.28
   5  10   7   21.27    0.96
   5  10   7   21.82    0.61
  -5  10   7   20.59    0.88
  -5  10   7   20.13    0.90
   5  10   6   10.38    0.66
   5  10   6    9.28    0.38
   5  10   6    9.56    0.34
  -5  10   6    8.42    0.56
  -5  10   6    8.91    0.58
   5  10   5   21.70    0.63
   5  10   5   19.75    0.61
   5  10   5   21.25    0.87
  -5  10   5   19.54    0.85
  -5  10   5   19.05    0.82
   5  10   4    7.81    0.51
   5  10   4    7.68    0.34
   5  10   4    7.07    0.32
  -5  10   4    7.71    0.50
  -5  10   4    7.34    0.50
   5  10   3   11.92    0.43
   5 -10  -3   11.55    0.69
   5 -10  -3   12.78    0.71
   5  10   3   11.84    0.59
   5  10   3   11.40    0.46
  -5  10   3   10.61    0.59
  -5  10   3   11.77    0.61
   5 -10  -2    7.99    0.56
   5  10   2    6.79    0.47
   5  10   2    7.37    0.39
   5 -10  -2    7.63    0.56
   5  10   2    7.11    0.39
  -5  10   2    7.08    0.48
  -5 -10  -2    6.91    0.36
   5 -10  -1    7.14    0.53
   5  10   1    5.43    0.42
   5 -10  -1    5.45    0.50
  -5 -10  -1    5.93    0.36
  -5  10   1    5.81    0.44
   5  10   0    0.19    0.27
   5  10   0    0.40    0.20
   5 -10   0   -0.01    0.25
   5 -10   0    0.06    0.25
  -5 -10   0   -0.08    0.16
   5 -10   1    7.17    0.51
   5  10  -1    5.30    0.53
   5  10  -1    6.10    0.39
  -5 -10   1    6.24    0.38
   5  10  -2    6.39    0.51
   5  10  -2    7.76    0.41
   5 -10   2    7.31    0.52
  -5 -10   2    7.75    0.42
   5  10  -3   11.30    0.48
   5  10  -3   12.42    0.68
   5 -10   3   12.39    0.64
  -5 -10   3   12.34    0.55
   5  10  -4    7.97    0.36
   5  10  -4    7.01    0.50
   5 -10   4    7.18    0.51
  -5 -10   4    7.70    0.45
   5  10  -5   20.04    0.63
   5 -10   5   19.27    0.82
   5  10  -5   21.52    0.87
  -5 -10   5   20.48    0.83
   5  10  -6    9.76    0.59
   5 -10   6    9.29    0.56
   5  10  -6    8.44    0.31
  -5 -10   6    9.12    0.61
   5 -10   7   19.23    0.83
   5  10  -7   19.63    0.88
  -5 -10   7   18.92    0.83
   5  10  -8    0.34    0.31
   5 -10   8   -0.29    0.23
  -5 -10   8   -0.14    0.23
   5 -10   9    2.88    0.42
   5  10  -9    4.11    0.52
  -5 -10   9    3.12    0.47
   5  10 -10   17.73    0.84
   5 -10  10   19.49    0.83
  -5 -10  10   17.91    0.86
   5  10 -11    1.03    0.37
   5 -10  11   -0.21    0.27
  -5 -10  11    0.06    0.31
   5  10 -12    3.77    0.52
   5 -10  12    3.40    0.47
  -5 -10  12    3.53    0.47
   5 -10  13    0.30    0.28
   5  10 -13   -0.51    0.35
   5 -10  13    0.32    0.49
  -5 -10  13    0.49    0.38
   5  10 -14    1.99    0.43
   5 -10  14    1.92    0.58
   5 -10  14    1.21    0.34
  -5 -10  14    2.32    0.51
   5  10 -15    4.16    0.53
   5 -10  15    3.02    0.70
   5 -10  15    4.81    0.54
  -5 -10  15    3.74    0.57
   5 -10  16    0.90    0.39
   5 -10  16    0.02    0.68
  -5 -10  16   -0.60    0.55
   6  10  15    3.01    0.59
  -6  10  15    2.03    0.58
  -6  10  15    3.65    0.67
   6  10  14    0.44    0.50
  -6  10  14    0.93    0.52
  -6  10  14    0.74    0.52
   6  10  13    0.32    0.43
  -6  10  13   -0.31    0.46
  -6  10  13    0.05    0.44
   6  10  12   -0.31    0.40
  -6  10  12    0.51    0.40
  -6  10  12   -0.48    0.41
   6  10  11    0.47    0.37
  -6  10  11    0.12    0.35
  -6  10  11    0.42    0.41
   6  10  10    0.39    0.37
  -6  10  10    0.58    0.35
  -6  10  10    0.05    0.40
   6  10   9    0.09    0.33
  -6  10   9   -0.05    0.32
  -6  10   9   -0.32    0.33
   6  10   8    0.56    0.35
   6  10   8    1.26    0.17
  -6  10   8    0.96    0.35
  -6  10   8    1.44    0.36
   6  10   7   10.41    0.42
   6  10   7   10.71    0.71
  -6  10   7   11.27    0.70
  -6  10   7   10.05    0.69
   6  10   6    5.69    0.34
   6  10   6    5.64    0.61
  -6  10   6    5.74    0.56
  -6  10   6    4.62    0.58
   6  10   5   12.24    0.79
   6  10   5   11.94    0.49
  -6  10   5   10.95    0.67
  -6  10   5   10.53    0.68
   6  10   4    2.71    0.33
   6  10   4    1.72    0.39
  -6  10   4    2.01    0.33
  -6  10   4    3.18    0.45
   6  10   3    1.82    0.32
   6 -10  -3    1.43    0.36
   6  10   3    2.15    0.27
   6 -10  -3    0.97    0.36
   6  10   2    2.68    0.31
   6 -10  -2    2.49    0.35
   6  10   2    2.87    0.36
   6  10   2    2.32    0.28
   6 -10  -2    2.14    0.36
   6 -10  -1    4.68    0.54
   6 -10  -1    5.04    0.54
   6  10   1    4.64    0.46
  -6 -10  -1    4.95    0.38
   6 -10   0    0.44    0.30
   6  10   0    0.15    0.36
   6 -10   0    0.48    0.31
   6  10   0    0.64    0.25
  -6 -10   0    0.47    0.21
   6  10  -1    4.66    0.63
   6 -10   1    4.33    0.51
   6  10  -1    4.12    0.42
  -6 -10   1    4.11    0.41
   6  10  -2    2.30    0.29
   6  10  -2    2.40    0.46
   6 -10   2    2.51    0.37
  -6 -10   2    2.24    0.29
   6  10  -3    1.66    0.26
   6  10  -3    1.73    0.39
   6 -10   3    1.69    0.32
  -6 -10   3    1.67    0.31
   6  10  -4    1.92    0.27
   6 -10   4    1.89    0.34
   6  10  -4    2.23    0.40
  -6 -10   4    2.55    0.43
   6  10  -5   10.00    0.75
   6 -10   5   11.69    0.69
   6  10  -5   10.79    0.49
  -6 -10   5   11.76    0.68
   6  10  -6    5.85    0.35
   6  10  -6    4.16    0.55
   6 -10   6    4.69    0.52
  -6 -10   6    5.70    0.54
   6 -10   7    9.40    0.63
   6  10  -7    9.63    0.70
  -6 -10   7    8.91    0.62
   6 -10   8    0.62    0.32
   6  10  -8    0.67    0.34
  -6 -10   8    0.78    0.36
   6  10  -9   -0.12    0.29
   6 -10   9   -0.23    0.30
   6  10 -10    1.14    0.38
   6 -10  10    0.65    0.32
  -6 -10  10    0.83    0.38
   6 -10  11   -0.34    0.31
   6  10 -11   -0.32    0.37
  -6 -10  11    0.31    0.38
   6  10 -12   -0.35    0.35
   6 -10  12    0.01    0.35
  -6 -10  12   -0.07    0.38
   6 -10  13    0.40    0.36
   6  10 -13   -0.17    0.40
   6 -10  13   -0.37    0.50
  -6 -10  13    0.20    0.42
   6  10 -14    0.80    0.46
   6 -10  14    1.49    0.38
   6 -10  14    1.34    0.63
  -6 -10  14    0.83    0.49
   6  10 -15    3.51    0.54
   6 -10  15    2.07    0.71
   6 -10  15    1.38    0.46
  -6 -10  15    2.75    0.66
   7  10  13   -0.93    0.52
  -7  10  13    0.62    0.55
  -7  10  13    0.66    0.64
   7  10  12   -0.62    0.48
  -7  10  12    0.23    0.47
  -7  10  12   -0.16    0.48
   7  10  11    0.94    0.48
  -7  10  11    0.69    0.43
  -7  10  11    0.07    0.48
   7  10  10    0.61    0.45
  -7  10  10    0.31    0.42
  -7  10  10    0.40    0.41
   7  10   9    0.19    0.41
  -7  10   9   -0.25    0.41
  -7  10   9    0.30    0.38
   7  10   8    0.15    0.42
  -7  10   8    0.17    0.36
  -7  10   8    0.58    0.40
   7  10   7    1.43    0.44
  -7  10   7    1.48    0.39
  -7  10   7    2.21    0.43
   7  10   6    0.97    0.24
   7  10   6    0.65    0.41
  -7  10   6    0.78    0.33
  -7  10   6    0.97    0.39
   7  10   5    5.02    0.43
   7  10   5    5.43    0.63
  -7  10   5    3.66    0.55
   7 -10  -4    1.75    0.49
   7 -10  -4    1.14    0.43
   7  10   4    0.65    0.38
   7  10   4    1.43    0.27
  -7  10   4    1.47    0.36
   7  10   3    0.39    0.44
   7  10   3    0.67    0.27
   7 -10  -3    0.12    0.38
   7 -10  -3    0.74    0.40
   7  10   2   10.94    0.62
   7  10   2   10.52    0.62
   7  10   2   11.49    0.84
   7 -10  -2   10.32    0.80
   7 -10  -2   11.31    0.82
   7 -10  -1    0.18    0.36
   7 -10  -1    0.58    0.38
   7  10   1    0.56    0.41
   7  10   1    0.47    0.33
  -7 -10  -1    0.57    0.26
   7  10   0    0.01    0.32
   7  10   0   -0.07    0.40
  -7 -10   0   -0.06    0.26
   7  10  -1    0.22    0.29
   7  10  -1   -0.02    0.40
   7 -10   1    0.37    0.34
  -7 -10   1    0.43    0.31
   7  10  -2   11.08    0.80
   7  10  -2    9.98    0.60
   7 -10   2    8.81    0.72
  -7 -10   2   10.95    0.80
   7  10  -3    0.67    0.39
   7  10  -3    0.35    0.30
   7 -10   3    0.22    0.32
  -7 -10   3    0.56    0.34
   7 -10   4    1.05    0.36
   7  10  -4    1.29    0.39
   7  10  -4    1.73    0.30
  -7 -10   4    1.52    0.37
   7  10  -5    4.89    0.67
   7  10  -5    4.30    0.46
   7 -10   5    4.99    0.62
  -7 -10   5    5.46    0.57
   7 -10   6    0.34    0.36
   7  10  -6    0.74    0.38
  -7 -10   6    0.50    0.34
   7  10  -7    1.26    0.39
   7 -10   7    1.14    0.39
  -7 -10   7    1.12    0.33
   7  10  -8    0.10    0.34
   7 -10   8    0.04    0.35
  -7 -10   8    0.07    0.34
   7  10  -9    0.07    0.34
   7 -10   9   -0.02    0.36
  -7 -10   9    0.25    0.38
   7 -10  10    0.47    0.38
   7  10 -10    0.22    0.39
  -7 -10  10    0.25    0.40
   7  10 -11    0.16    0.42
   7 -10  11    0.24    0.38
  -7 -10  11   -0.03    0.43
   7 -10  12   -0.13    0.39
   7  10 -12   -0.30    0.42
  -7 -10  12    0.27    0.50
   7 -10  13    0.07    0.60
   7  10 -13   -0.07    0.48
   7 -10  13    0.76    0.47
  -7 -10  13    0.86    0.56
   8  10  11    0.06    0.56
  -8  10  11    0.19    0.56
  -8  10  11   -0.80    0.57
   8  10  10    0.37    0.53
  -8  10  10    0.49    0.59
   8  10   9    0.56    0.51
  -8  10   9    0.80    0.48
   8  10   8   -1.00    0.45
  -8  10   8   -0.57    0.46
   8  10   7    0.58    0.50
  -8  10   7    0.89    0.46
   8  10   6    1.33    0.49
  -8  10   6    0.98    0.44
   8  10   5    0.22    0.36
   8  10   5   -0.52    0.45
  -8  10   5    0.17    0.40
   8 -10  -4    4.00    0.67
   8  10   4    5.91    0.72
   8 -10  -4    3.52    0.66
   8  10   4    4.40    0.60
   8  10   3    0.52    0.44
   8 -10  -3    0.14    0.52
   8  10   3   -0.02    0.41
   8 -10  -3    0.01    0.49
   8 -10  -2    0.47    0.42
   8  10   2   -0.50    0.45
   8  10   2    0.60    0.42
   8  10   2    0.53    0.48
   8 -10  -2    1.34    0.48
   8 -10  -1    0.34    0.48
   8  10   1    0.14    0.44
   8 -10  -1    0.69    0.49
   8  10   1    0.25    0.45
   8  10   1    0.00    0.47
   8  10   1    0.54    0.47
   8  10   0    0.49    0.55
   8  10   0    0.53    0.43
   8 -10   0    0.27    0.48
  -8 -10   0    0.05    0.38
   8 -10   1   -0.15    0.42
   8  10  -1    0.64    0.44
   8  10  -1    0.70    0.48
  -8 -10   1    0.04    0.37
   8  10  -2    0.28    0.42
   8  10  -2    0.45    0.37
   8 -10   2    1.22    0.48
  -8 -10   2    1.01    0.38
   8  10  -3   -0.36    0.39
   8  10  -3    0.25    0.35
   8 -10   3    0.27    0.43
  -8 -10   3    0.19    0.42
   8 -10   4    5.80    0.79
   8  10  -4    5.24    0.66
   8  10  -4    3.77    0.45
  -8 -10   4    4.76    0.55
   8  10  -5    0.10    0.40
   8 -10   5    0.54    0.43
   8  10  -5    0.00    0.41
  -8 -10   5    0.21    0.40
   8  10  -6    2.37    0.45
   8 -10   6    1.57    0.44
  -8 -10   6    1.06    0.45
   8  10  -7    0.38    0.39
   8 -10   7    0.68    0.46
  -8 -10   7    0.55    0.44
   8 -10   8    0.50    0.46
   8  10  -8    0.21    0.39
  -8 -10   8    0.07    0.43
   8 -10   9   -0.08    0.43
   8  10  -9    0.59    0.41
  -8 -10   9   -0.33    0.46
   8  10 -10    0.00    0.46
   8 -10  10    0.25    0.44
  -8 -10  10    0.49    0.49
   8 -10  11    0.18    0.50
   8  10 -11    0.99    0.48
  -8 -10  11   -0.01    0.58
   9  10   8    0.51    0.54
  -9  10   8    0.67    0.59
   9  10   7    0.49    0.54
  -9  10   7    0.01    0.57
   9  10   6    0.67    0.52
   9 -10  -6    0.64    0.71
   9 -10  -6   -0.50    0.68
  -9  10   6    0.48    0.56
   9 -10  -5   -0.93    0.68
   9 -10  -5    0.32    0.66
   9  10   5   -0.19    0.49
   9  10   4    1.00    0.49
   9 -10  -4    1.21    0.69
   9 -10  -4    2.37    0.69
   9 -10  -3    0.84    0.60
   9 -10  -3    0.62    0.59
   9  10   3    0.60    0.55
   9  10   3    0.15    0.46
   9  10   2    0.23    0.47
   9  10   2   -0.08    0.54
   9 -10  -2    0.17    0.55
   9 -10  -2    0.20    0.54
   9  10   2   -0.23    0.48
   9  10   1    1.40    0.53
   9  10   1    1.94    0.50
   9  10   1    0.87    0.52
   9 -10  -1    1.09    0.55
   9  10   1    1.08    0.56
   9 -10  -1    2.15    0.60
   9  10   0   -0.76    0.51
   9  10   0    0.17    0.50
   9  10   0    0.46    0.45
   9 -10   0   -0.44    0.49
   9  10   0   -0.39    0.48
   9  10  -1    2.00    0.55
   9 -10   1    1.69    0.56
   9  10  -1    1.47    0.49
  -9 -10   1    1.49    0.51
   9 -10   2   -0.76    0.48
   9  10  -2    0.22    0.49
   9  10  -2    0.37    0.48
  -9 -10   2    0.16    0.52
   9  10  -3    0.22    0.47
   9 -10   3   -0.21    0.53
   9  10  -3    0.23    0.62
  -9 -10   3   -0.61    0.47
   9  10  -4    0.26    0.47
   9 -10   4    0.17    0.52
   9  10  -4    1.66    0.69
  -9 -10   4    1.18    0.50
   9  10  -5   -0.39    0.48
   9 -10   5    0.75    0.55
  -9 -10   5    0.20    0.52
   9  10  -6    0.07    0.45
   9 -10   6    0.21    0.57
  -9 -10   6   -0.34    0.52
   9  10  -7    0.84    0.46
   9 -10   7    1.28    0.59
  -9 -10   7    0.61    0.59
   9  10  -8    1.00    0.46
   9 -10   8    0.30    0.62
  -9 -10   8   -0.06    0.59
  10  10   3   -0.35    0.56
  10 -10  -3    0.79    0.70
  10 -10  -3   -0.26    0.68
  10 -10  -2    0.24    0.71
  10  10   2    0.82    0.56
  10  10   2    0.52    0.60
  10 -10  -2    0.04    0.72
  10  10   1    0.39    0.55
  10  10   1   -0.30    0.59
  10 -10  -1    0.34    0.71
  10  10   0   -0.96    0.65
  10  10   0   -1.15    0.59
  10  10   0   -0.33    0.66
  10 -10   0   -0.37    0.69
  10  10   0    0.90    0.60
  10  10  -1    0.59    0.72
  10  10  -1    0.50    0.66
  10  10  -1    1.65    0.60
  10 -10   1    0.39    0.68
  10  10  -1    0.09    0.59
  10  10  -2    0.86    0.58
  10  10  -2    0.58    0.63
  10 -10   2    0.74    0.74
 -10 -10   2    1.04    0.65
  10 -10   3   -0.48    0.69
  10  10  -3   -0.94    0.53
 -10 -10   3    0.52    0.66
   0  11  18   -0.09    0.52
   0  11  18    0.59    0.36
   0  11  17    0.30    0.45
   0  11  17    0.14    0.30
   0  11  16    0.17    0.26
   0  11  16   -0.30    0.38
   0  11  15    0.19    0.23
   0  11  15    0.22    0.34
   0  11  14    0.63    0.23
   0  11  14   -0.07    0.39
   0  11  13    0.23    0.19
   0  11  13    0.07    0.26
   0  11  12    0.14    0.22
   0  11  12    0.09    0.18
   0  11  11    0.18    0.19
   0  11  11   -0.19    0.18
   0  11  10    0.00    0.17
   0  11  10    0.12    0.18
   0  11   9   -0.12    0.12
   0  11   9   -0.12    0.16
   0  11   8    0.06    0.12
   0  11   8   -0.12    0.14
   0  11   7    0.09    0.13
   0  11   7   -0.03    0.13
   0  11   6    0.13    0.11
   0 -11  -6    0.08    0.12
   0  11   6   -0.14    0.11
   0  11   5    0.05    0.11
   0  11   5   -0.22    0.10
   0 -11  -5   -0.01    0.11
   0 -11  -4   -0.03    0.12
   0 -11  -4    0.00    0.13
   0  11   4    0.13    0.10
   0 -11  -4   -0.10    0.10
   0  11   3    0.16    0.10
   0 -11  -3    0.12    0.11
   0 -11  -3   -0.03    0.11
   0  11   3   -0.14    0.16
   0  11   2   -0.05    0.09
   0  11   2    0.03    0.15
   0 -11  -2   -0.04    0.11
   0 -11  -2    0.15    0.10
   0 -11  -1    0.10    0.10
   0  11   1    0.17    0.10
   0  11   1    0.22    0.13
   0  11   1   -0.11    0.14
   0  11   1   -0.10    0.13
   0  11   0    0.17    0.10
   0 -11   0   -0.08    0.08
   0  11   0    0.00    0.14
   0  11   0    0.03    0.14
   0  11  -1    0.02    0.09
   0 -11   1   -0.04    0.08
   0  11  -1    0.01    0.12
   0  11  -2    0.05    0.13
   0 -11   2    0.00    0.08
   0  11  -2    0.19    0.10
   0  11  -3    0.06    0.11
   0 -11   3    0.05    0.09
   0  11  -3    0.11    0.14
   0  11  -4    0.30    0.12
   0 -11   4    0.31    0.10
   0  11  -4    0.16    0.13
   0  11  -5    0.11    0.14
   0 -11   5    0.08    0.09
   0 -11   6    0.16    0.11
   0  11  -6    0.26    0.16
   0  11  -7   -0.02    0.15
   0 -11   7    0.12    0.13
   0  11  -8    0.03    0.17
   0 -11   8    0.02    0.14
   0 -11   9    0.31    0.14
   0  11  -9   -0.07    0.18
   0 -11  10   -0.04    0.14
   0 -11  10   -0.22    0.22
   0 -11  11    0.20    0.15
   0 -11  11   -0.01    0.24
   0 -11  12   -0.29    0.17
   0 -11  12    0.54    0.24
   0 -11  13    0.25    0.21
   0 -11  13   -0.16    0.23
   0 -11  14    0.11    0.22
   0 -11  14    0.28    0.24
   0 -11  15    0.25    0.27
   0 -11  17    0.16    0.35
   0 -11  18    0.32    0.45
   1  11  18    0.88    0.38
  -1  11  18    0.76    0.41
  -1  11  18    2.14    0.57
   1  11  17   -1.01    0.45
   1  11  17   -0.44    0.31
  -1  11  17   -0.35    0.43
  -1  11  17    0.38    0.32
   1  11  16    0.63    0.42
   1  11  16    0.29    0.28
  -1  11  16    0.67    0.40
  -1  11  16    0.43    0.28
   1  11  15    4.61    0.68
   1  11  15    4.69    0.46
  -1  11  15    4.48    0.58
  -1  11  15    4.15    0.43
   1  11  14    1.16    0.26
   1  11  14    1.03    0.29
  -1  11  14    1.07    0.33
  -1  11  14    1.10    0.27
   1  11  13    0.22    0.22
   1  11  13    0.13    0.21
  -1  11  13    0.50    0.23
  -1  11  13    0.15    0.33
   1  11  12   14.15    0.62
   1  11  12   14.13    0.60
  -1  11  12   14.08    0.63
  -1  11  12   15.26    0.76
   1  11  11    2.02    0.29
   1  11  11    1.30    0.21
  -1  11  11    1.30    0.27
  -1  11  11    1.48    0.28
   1  11  10    9.78    0.42
   1  11  10    9.42    0.51
  -1  11  10    9.41    0.47
  -1  11  10    8.45    0.48
   1  11   9    5.52    0.37
   1  11   9    5.84    0.31
  -1  11   9    6.42    0.37
  -1  11   9    6.61    0.40
   1  11   8    2.03    0.25
   1  11   8    1.75    0.20
  -1 -11  -8    1.87    0.17
  -1  11   8    1.75    0.23
   1  11   7   37.47    1.12
   1  11   7   37.93    1.01
  -1  11   7   38.58    1.12
  -1 -11  -7   35.09    0.97
  -1  11   7   36.91    1.12
   1  11   6   62.06    1.55
   1  11   6   60.08    1.67
  -1  11   6   59.74    1.67
  -1 -11  -6   57.64    1.52
  -1  11   6   60.08    1.66
   1  11   5   12.61    0.46
  -1 -11  -5   11.23    0.37
  -1  11   5   12.05    0.47
  -1  11   5   12.06    0.47
  -1 -11  -5   11.34    0.37
   1  11   4    2.79    0.20
  -1  11   4    2.35    0.21
  -1  11   4    2.01    0.29
  -1  11   4    2.70    0.22
   1 -11  -3    2.14    0.25
   1 -11  -3    2.47    0.26
   1  11   3    2.54    0.19
  -1  11   3    2.83    0.26
  -1 -11  -3    2.16    0.13
  -1 -11  -3    2.47    0.12
  -1  11   3    2.53    0.20
   1  11   2   33.96    1.12
   1 -11  -2   33.85    1.03
   1  11   2   34.10    0.97
  -1  11   2   34.33    1.01
  -1 -11  -2   33.46    0.88
  -1 -11  -2   34.40    0.91
  -1  11   2   34.16    1.01
   1  11   1    3.50    0.20
   1 -11  -1    3.38    0.26
   1  11   1    3.54    0.33
   1  11   1    3.43    0.21
  -1  11   1    3.45    0.23
  -1 -11  -1    3.40    0.15
  -1  11   1    3.15    0.26
   1  11   0   90.88    2.50
   1 -11   0   90.77    2.42
   1  11   0   90.11    2.34
   1  11   0   91.76    2.35
  -1  11   0   92.20    2.41
  -1 -11   0   88.01    2.30
  -1  11   0   91.72    2.41
   1  11  -1    3.83    0.19
   1 -11   1    3.30    0.24
   1  11  -1    3.17    0.28
   1  11  -1    2.86    0.24
  -1 -11   1    3.55    0.18
  -1  11  -1    3.64    0.25
  -1  11  -1    3.45    0.24
   1  11  -2   34.14    1.08
   1 -11   2   34.56    1.02
   1  11  -2   34.07    0.93
  -1  11  -2   33.69    1.00
  -1  11  -2   33.45    1.01
  -1 -11   2   32.69    0.93
   1 -11   3    2.09    0.21
   1  11  -3    2.29    0.24
   1  11  -3    2.49    0.17
  -1  11  -3    2.26    0.22
  -1  11  -3    2.09    0.22
  -1 -11   3    2.38    0.17
   1 -11   4    2.71    0.22
   1  11  -4    2.33    0.25
   1  11  -4    2.46    0.17
  -1  11  -4    2.13    0.24
  -1  11  -4    2.05    0.22
  -1 -11   4    2.18    0.18
   1 -11   5   11.45    0.47
   1  11  -5   12.12    0.52
   1  11  -5   12.05    0.39
  -1 -11   5   12.01    0.44
  -1  11  -5   12.21    0.50
   1 -11   6   58.58    1.63
   1  11  -6   57.67    1.70
  -1  11  -6   57.73    1.67
  -1 -11   6   58.74    1.60
   1 -11   7   35.34    1.09
   1  11  -7   36.87    1.16
  -1 -11   7   35.86    1.08
   1  11  -8    1.65    0.25
   1 -11   8    1.63    0.24
  -1 -11   8    1.87    0.14
  -1 -11   8    1.63    0.22
  -1 -11   8    1.50    0.21
   1 -11   9    5.50    0.34
   1  11  -9    6.25    0.42
  -1 -11   9    5.86    0.33
   1  11 -10    8.84    0.54
   1 -11  10    8.92    0.43
  -1 -11  10    8.67    0.44
   1 -11  11    1.33    0.20
   1 -11  11    1.07    0.31
   1  11 -11    0.44    0.26
  -1 -11  11    1.21    0.20
   1 -11  12   13.61    0.59
   1 -11  12   12.62    0.68
  -1 -11  12   13.37    0.61
   1 -11  13    0.49    0.20
   1 -11  13    0.31    0.32
   1 -11  14    0.52    0.33
   1 -11  14    0.84    0.26
  -1 -11  14    1.17    0.29
   1 -11  15    3.91    0.54
   1 -11  15    3.73    0.46
  -1 -11  15    4.09    0.49
   1 -11  16   -0.09    0.37
   1 -11  16    1.06    0.33
  -1 -11  16   -0.07    0.35
   1 -11  17   -0.37    0.35
  -1 -11  17   -0.09    0.38
   1 -11  18    0.71    0.46
  -1 -11  18    0.35    0.49
   2  11  18    1.77    0.42
  -2  11  18    1.89    0.46
  -2  11  18    1.59    0.58
   2  11  17    0.76    0.37
  -2  11  17    0.04    0.45
  -2  11  17    0.56    0.36
   2  11  16    3.45    0.49
  -2  11  16    4.29    0.50
  -2  11  16    3.04    0.46
   2  11  15    0.72    0.34
   2  11  15   -0.52    0.27
  -2  11  15    0.28    0.28
  -2  11  15    0.33    0.36
   2  11  14    0.30    0.28
   2  11  14    0.27    0.26
  -2  11  14    0.04    0.32
  -2  11  14   -0.06    0.23
   2  11  13    6.01    0.45
   2  11  13    5.09    0.42
  -2  11  13    4.73    0.42
  -2  11  13    4.58    0.55
   2  11  12    1.22    0.22
  -2  11  12    1.49    0.28
  -2  11  12    0.80    0.32
   2  11  11   10.74    0.53
   2  11  11   10.45    0.44
  -2  11  11    8.60    0.56
  -2  11  11    9.83    0.69
   2  11  10    0.95    0.24
   2  11  10    0.91    0.17
  -2  11  10    1.08    0.30
  -2 -11 -10    0.50    0.26
  -2  11  10    0.98    0.22
   2  11   9   10.58    0.38
   2  11   9   11.45    0.56
  -2  11   9    9.63    0.49
  -2 -11  -9   10.23    0.39
  -2  11   9   10.95    0.55
   2  11   8    0.07    0.10
   2  11   8    0.45    0.18
  -2  11   8   -0.19    0.18
  -2 -11  -8   -0.06    0.11
  -2  11   8    0.22    0.16
   2  11   7    9.63    0.45
  -2  11   7    9.04    0.44
  -2  11   7    9.15    0.47
   2  11   6    2.29    0.25
  -2  11   6    2.48    0.28
  -2  11   6    2.25    0.25
  -2  11   6    2.90    0.29
   2  11   5   12.84    0.50
  -2  11   5   12.69    0.46
  -2  11   5   12.04    0.50
  -2  11   5   11.29    0.51
   2  11   4    8.72    0.39
  -2  11   4    8.51    0.35
  -2  11   4    8.67    0.40
  -2  11   4    9.00    0.42
   2 -11  -3    6.78    0.43
   2  11   3    7.41    0.34
   2 -11  -3    7.71    0.44
  -2  11   3    6.62    0.35
  -2  11   3    7.22    0.31
   2  11   2   12.66    0.46
   2 -11  -2   12.52    0.55
   2 -11  -2   12.06    0.55
  -2  11   2   13.20    0.51
  -2  11   2   12.98    0.43
   2 -11  -1    2.85    0.29
   2  11   1    2.93    0.36
   2  11   1    3.22    0.20
   2  11   1    3.41    0.17
  -2  11   1    3.33    0.26
  -2  11   1    3.27    0.21
  -2 -11  -1    3.41    0.16
   2 -11   0   -0.06    0.14
   2  11   0   -0.14    0.08
   2  11   0    0.02    0.19
   2  11   0   -0.09    0.08
  -2  11   0   -0.10    0.12
  -2 -11   0    0.06    0.07
  -2  11   0   -0.02    0.10
   2  11  -1    2.57    0.32
   2 -11   1    3.42    0.29
   2  11  -1    3.23    0.20
   2  11  -1    3.32    0.18
  -2  11  -1    3.29    0.27
  -2 -11   1    3.20    0.18
  -2  11  -1    3.34    0.23
   2  11  -2   12.95    0.57
   2  11  -2   12.94    0.40
   2 -11   2   13.09    0.54
  -2  11  -2   12.70    0.48
  -2  11  -2   12.57    0.51
  -2 -11   2   12.46    0.42
   2  11  -3    7.08    0.25
   2  11  -3    6.76    0.42
   2 -11   3    7.01    0.39
  -2  11  -3    7.20    0.36
  -2 -11   3    6.70    0.30
  -2  11  -3    6.55    0.33
   2  11  -4    9.12    0.47
   2 -11   4    8.74    0.44
   2  11  -4    8.63    0.29
  -2 -11   4    8.21    0.34
   2 -11   5   11.20    0.51
   2  11  -5   11.65    0.55
   2  11  -5   11.92    0.34
  -2 -11   5   10.72    0.38
  -2 -11   5   11.68    0.44
   2 -11   6    1.49    0.23
   2  11  -6    1.75    0.24
  -2 -11   6    1.95    0.23
   2  11  -7    9.28    0.49
   2 -11   7    9.19    0.44
  -2 -11   7    8.78    0.43
   2 -11   8    0.08    0.14
   2  11  -8    0.29    0.20
  -2 -11   8    0.15    0.19
   2 -11   9   10.46    0.48
   2  11  -9   10.58    0.58
  -2 -11   9   10.30    0.49
   2  11 -10    0.81    0.25
   2 -11  10    1.21    0.21
  -2 -11  10    1.14    0.19
   2  11 -11    9.54    0.58
   2 -11  11    9.33    0.47
  -2 -11  11    9.71    0.51
   2  11 -12    0.80    0.24
   2 -11  12    1.16    0.22
   2 -11  12    1.25    0.36
  -2 -11  12    1.41    0.25
   2 -11  13    3.89    0.58
   2 -11  13    4.70    0.40
  -2 -11  13    3.90    0.45
   2 -11  14    0.48    0.25
   2 -11  14    0.39    0.40
  -2 -11  14    0.74    0.30
   2 -11  15   -0.04    0.42
   2 -11  15    0.33    0.26
  -2 -11  15   -0.27    0.29
   2 -11  16    3.77    0.56
   2 -11  16    3.66    0.51
  -2 -11  16    3.82    0.58
   2 -11  17    0.29    0.58
   2 -11  17    0.29    0.34
  -2 -11  17    0.34    0.45
   2 -11  18    1.86    0.47
  -2 -11  18    0.95    0.54
   3  11  17    0.72    0.40
  -3  11  17    0.74    0.42
  -3  11  17    0.13    0.53
   3  11  16   -0.07    0.34
  -3  11  16   -0.29    0.32
   3  11  15   -0.23    0.30
  -3  11  15   -0.12    0.29
  -3  11  15    0.65    0.41
   3  11  14    0.82    0.30
  -3  11  14    0.44    0.29
  -3  11  14    0.11    0.36
   3  11  13    5.11    0.47
   3  11  13    5.55    0.44
  -3  11  13    3.54    0.54
  -3  11  13    5.71    0.46
   3  11  12    0.08    0.19
   3  11  12    0.09    0.23
  -3  11  12    0.43    0.31
  -3  11  12    0.40    0.24
   3  11  11    0.50    0.17
   3  11  11    0.47    0.24
  -3  11  11    0.26    0.26
  -3  11  11    0.88    0.31
   3  11  10   28.92    0.81
   3  11  10   26.80    1.02
  -3  11  10   28.60    1.02
  -3 -11 -10   29.01    0.93
  -3  11  10   27.86    1.09
   3  11   9    7.73    0.28
   3  11   9    6.71    0.50
  -3 -11  -9    7.09    0.36
  -3  11   9    7.05    0.63
  -3  11   9    7.27    0.46
   3  11   8   10.98    0.56
  -3  11   8   10.52    0.52
  -3  11   8   11.58    0.65
  -3  11   8   10.63    0.40
   3  11   7    1.16    0.23
  -3  11   7    0.94    0.23
  -3  11   7    0.75    0.20
   3  11   6    2.15    0.28
  -3  11   6    2.01    0.30
  -3  11   6    1.62    0.24
   3  11   5    1.31    0.20
  -3  11   5    1.38    0.22
  -3  11   5    0.85    0.19
   3  11   4   32.99    1.04
  -3  11   4   32.25    1.05
  -3  11   4   31.84    1.05
   3 -11  -3    3.14    0.36
   3 -11  -3    2.40    0.36
   3  11   3    2.69    0.25
  -3  11   3    2.92    0.28
   3  11   2    3.03    0.25
   3 -11  -2    3.15    0.36
   3 -11  -2    3.34    0.37
  -3  11   2    3.34    0.29
   3 -11  -1    0.56    0.21
   3  11   1    0.28    0.07
   3 -11  -1    0.29    0.20
   3  11   1    0.28    0.23
   3  11   1    0.12    0.13
  -3  11   1    0.19    0.15
  -3 -11  -1    0.28    0.10
   3  11   0   32.77    1.17
   3  11   0   34.14    0.89
   3 -11   0   33.34    1.13
   3  11   0   33.86    0.97
  -3  11   0   33.24    1.07
  -3 -11   0   32.20    0.93
   3  11  -1   -0.05    0.10
   3  11  -1   -0.10    0.17
   3  11  -1   -0.04    0.11
   3 -11   1    0.01    0.16
  -3  11  -1   -0.35    0.14
  -3 -11   1    0.07    0.10
   3  11  -2    2.98    0.18
   3 -11   2    3.13    0.33
   3  11  -2    2.81    0.32
  -3 -11   2    2.92    0.22
  -3  11  -2    2.50    0.28
   3  11  -3    2.61    0.15
   3  11  -3    2.66    0.35
   3 -11   3    2.65    0.32
  -3 -11   3    2.77    0.23
   3 -11   4   31.09    1.07
   3  11  -4   32.65    0.83
   3  11  -4   30.73    1.09
  -3 -11   4   31.10    0.95
   3 -11   5    1.11    0.25
   3  11  -5    1.36    0.24
  -3 -11   5    1.65    0.21
   3  11  -6    2.25    0.31
   3 -11   6    2.55    0.27
  -3 -11   6    2.09    0.25
   3  11  -7    1.45    0.25
   3 -11   7    1.27    0.20
  -3 -11   7    1.37    0.24
   3  11  -8    9.88    0.55
   3 -11   8    9.83    0.50
  -3 -11   8   10.30    0.52
   3 -11   9    7.36    0.42
   3  11  -9    6.79    0.52
  -3 -11   9    7.15    0.45
   3 -11  10   26.14    0.93
   3  11 -10   28.02    1.06
  -3 -11  10   27.01    0.98
   3  11 -11    0.79    0.30
   3 -11  11    0.65    0.21
  -3 -11  11    0.87    0.25
   3 -11  12    0.15    0.36
   3  11 -12    0.48    0.28
   3 -11  12    0.66    0.23
  -3 -11  12    0.73    0.26
   3 -11  13    3.78    0.57
   3  11 -13    5.08    0.56
   3 -11  13    4.51    0.44
  -3 -11  13    5.51    0.50
   3 -11  14   -0.29    0.53
   3 -11  14    0.93    0.27
  -3 -11  14    0.16    0.32
   3 -11  15    0.19    0.29
   3 -11  15    0.29    0.63
  -3 -11  15   -0.35    0.35
   3 -11  16    0.28    0.63
   3 -11  16    0.37    0.30
  -3 -11  16    0.40    0.39
   3 -11  17    0.97    0.38
   3 -11  17    0.31    0.60
  -3 -11  17    0.12    0.53
   4  11  17    2.47    0.51
  -4  11  17    2.17    0.62
  -4  11  17    2.46    0.55
   4  11  16    1.84    0.42
  -4  11  16    1.32    0.42
  -4  11  16    0.13    0.51
   4  11  15    0.13    0.36
  -4  11  15   -0.05    0.33
  -4  11  15    0.11    0.46
   4  11  14    0.03    0.32
  -4  11  14    0.10    0.31
  -4  11  14    0.41    0.40
   4  11  13    0.55    0.31
  -4  11  13    0.73    0.32
  -4  11  13    0.46    0.39
   4  11  12    3.76    0.49
  -4  11  12    4.11    0.57
  -4  11  12    4.06    0.46
   4  11  11   -0.19    0.24
  -4  11  11    0.34    0.34
  -4  11  11    0.18    0.26
   4  11  10    3.40    0.44
   4  11  10    3.34    0.25
  -4  11  10    2.92    0.39
  -4  11  10    3.34    0.45
   4  11   9    0.34    0.26
  -4  11   9    0.19    0.29
  -4  11   9    0.00    0.26
   4  11   8    0.53    0.26
  -4  11   8    0.83    0.27
  -4  11   8    0.90    0.29
   4  11   7    9.75    0.61
  -4  11   7   11.06    0.62
  -4  11   7    9.54    0.55
   4  11   6   13.40    0.63
  -4  11   6   12.52    0.61
  -4  11   6   12.90    0.70
   4  11   5    4.48    0.38
  -4  11   5    3.97    0.46
  -4  11   5    3.97    0.39
   4  11   4    3.33    0.33
  -4  11   4    3.64    0.42
  -4  11   4    3.54    0.34
   4  11   3   -0.15    0.17
   4 -11  -3   -0.28    0.29
   4 -11  -3    0.04    0.28
  -4  11   3    0.24    0.17
   4 -11  -2    0.56    0.31
   4  11   2    1.29    0.12
   4 -11  -2    0.87    0.34
   4  11   2    1.04    0.20
   4 -11  -2    0.69    0.14
  -4 -11  -2    1.10    0.14
  -4  11   2    0.90    0.22
   4  11   1    3.92    0.31
   4 -11  -1    3.02    0.40
   4 -11  -1    3.92    0.48
   4  11   1    3.83    0.45
   4  11   1    3.85    0.19
  -4  11   1    3.44    0.34
  -4 -11  -1    3.76    0.25
   4  11   0    0.29    0.23
   4  11   0   -0.04    0.14
   4 -11   0    0.54    0.27
  -4 -11   0    0.16    0.14
  -4  11   0   -0.06    0.16
   4  11  -1    3.54    0.27
   4 -11   1    4.11    0.49
   4  11  -1    4.11    0.45
  -4 -11   1    3.75    0.28
  -4  11  -1    3.19    0.34
   4  11  -2    1.08    0.24
   4 -11   2    0.39    0.23
   4  11  -2    1.07    0.16
  -4 -11   2    1.08    0.17
   4  11  -3   -0.01    0.11
   4 -11   3   -0.15    0.20
   4  11  -3    0.03    0.21
  -4 -11   3    0.19    0.14
   4  11  -4    2.91    0.39
   4  11  -4    2.99    0.18
   4 -11   4    3.11    0.35
  -4 -11   4    3.89    0.31
   4  11  -5    3.82    0.37
   4  11  -5    4.06    0.17
   4 -11   5    4.36    0.38
  -4 -11   5    4.52    0.35
   4 -11   6   12.87    0.62
   4  11  -6   12.38    0.64
  -4 -11   6   13.27    0.60
   4  11  -7    9.71    0.59
   4 -11   7    9.81    0.53
  -4 -11   7   10.71    0.57
   4 -11   8    0.59    0.19
   4  11  -8    0.72    0.28
  -4 -11   8    0.64    0.24
   4 -11   9    0.26    0.21
   4  11  -9    0.56    0.31
  -4 -11   9   -0.01    0.21
   4  11 -10    3.12    0.44
   4 -11  10    3.33    0.39
  -4 -11  10    3.04    0.43
   4  11 -11   -0.12    0.31
   4 -11  11   -0.03    0.22
  -4 -11  11    0.18    0.25
   4  11 -12    3.62    0.49
   4 -11  12    3.06    0.42
  -4 -11  12    2.69    0.38
   4 -11  13    0.24    0.27
   4  11 -13    0.33    0.34
   4 -11  13    0.82    0.53
  -4 -11  13    0.70    0.35
   4  11 -14    0.70    0.38
   4 -11  14    0.17    0.29
   4 -11  14   -0.61    0.55
  -4 -11  14    0.11    0.36
   4 -11  15    0.24    0.33
   4 -11  15   -0.36    0.62
  -4 -11  15    0.33    0.40
   4 -11  16    1.32    0.65
   4 -11  16    1.26    0.36
  -4 -11  16    0.44    0.50
   4 -11  17    1.20    0.41
   4 -11  17    1.71    0.74
  -4 -11  17    1.88    0.58
   5  11  16    0.30    0.50
  -5  11  16    0.07    0.47
  -5  11  16    0.80    0.62
   5  11  15   -0.53    0.41
  -5  11  15    0.50    0.45
  -5  11  15    0.28    0.52
   5  11  14   -0.60    0.38
  -5  11  14   -1.05    0.45
  -5  11  14    0.14    0.38
   5  11  13    2.62    0.41
  -5  11  13    2.18    0.48
  -5  11  13    2.23    0.45
   5  11  12    0.85    0.35
  -5  11  12    0.94    0.33
  -5  11  12    0.60    0.40
   5  11  11    2.16    0.40
  -5  11  11    1.85    0.35
  -5  11  11    2.14    0.42
   5  11  10    0.34    0.31
  -5  11  10    0.73    0.35
  -5  11  10    0.10    0.30
   5  11   9    0.80    0.29
  -5  11   9    0.03    0.29
  -5  11   9   -0.10    0.32
   5  11   8    2.70    0.40
  -5  11   8    4.60    0.51
  -5  11   8    3.42    0.47
   5  11   7    1.46    0.31
  -5  11   7    1.59    0.36
  -5  11   7    2.04    0.34
   5  11   6    5.42    0.56
  -5  11   6    5.29    0.52
  -5  11   6    5.81    0.53
   5  11   5    4.78    0.23
   5  11   5    4.90    0.47
   5  11   5    4.44    0.23
  -5  11   5    5.08    0.47
  -5  11   5    4.60    0.48
   5  11   4    3.92    0.40
   5  11   4    2.66    0.23
   5  11   4    3.45    0.21
  -5  11   4    2.85    0.41
  -5  11   4    3.80    0.42
   5  11   3    0.62    0.22
   5 -11  -3    0.02    0.31
   5  11   3    0.17    0.16
   5 -11  -3    0.23    0.29
   5  11   3    0.30    0.12
  -5  11   3    0.25    0.24
   5  11   2    3.55    0.31
   5  11   2    3.27    0.37
   5 -11  -2    4.22    0.48
   5  11   2    3.55    0.31
   5  11   2    3.05    0.30
   5 -11  -2    3.85    0.48
  -5 -11  -2    3.51    0.29
  -5  11   2    3.78    0.40
   5  11   1    0.31    0.20
   5 -11  -1    0.61    0.27
   5  11   1   -0.17    0.30
   5 -11  -1    0.34    0.25
  -5  11   1    0.01    0.21
  -5 -11  -1    0.12    0.16
   5  11   0    6.95    0.59
   5 -11   0    7.33    0.51
   5  11   0    6.77    0.42
  -5 -11   0    7.16    0.40
   5  11  -1    0.76    0.20
   5 -11   1    0.79    0.26
   5  11  -1    0.05    0.28
  -5 -11   1    0.32    0.19
   5  11  -2    3.63    0.47
   5  11  -2    3.89    0.32
   5 -11   2    4.23    0.45
  -5 -11   2    3.90    0.35
   5  11  -3    0.18    0.26
   5  11  -3    0.24    0.16
   5 -11   3    0.10    0.21
  -5 -11   3    0.42    0.20
   5 -11   4    3.72    0.42
   5  11  -4    3.15    0.45
   5  11  -4    3.49    0.26
  -5 -11   4    2.70    0.35
   5  11  -5    4.30    0.25
   5  11  -5    4.94    0.53
   5 -11   5    5.03    0.43
  -5 -11   5    4.79    0.45
   5  11  -6    5.27    0.53
   5 -11   6    5.13    0.42
  -5 -11   6    5.82    0.53
   5 -11   7    1.08    0.25
   5  11  -7    0.81    0.35
  -5 -11   7    1.31    0.30
   5 -11   8    3.14    0.43
   5  11  -8    4.00    0.51
  -5 -11   8    3.75    0.44
   5  11  -9    0.36    0.31
   5 -11   9    0.24    0.25
  -5 -11   9    0.12    0.27
   5  11 -10    0.17    0.31
   5 -11  10    0.47    0.23
  -5 -11  10    0.51    0.28
   5  11 -11    2.53    0.39
   5 -11  11    1.88    0.34
  -5 -11  11    2.35    0.39
   5 -11  12    0.99    0.32
   5  11 -12    0.94    0.37
  -5 -11  12    0.86    0.37
   5 -11  13    2.36    0.62
   5 -11  13    2.67    0.39
   5  11 -13    3.21    0.48
  -5 -11  13    2.27    0.42
   5 -11  14    0.38    0.61
   5 -11  14    0.15    0.33
   5  11 -14    0.63    0.40
  -5 -11  14    0.10    0.41
   5  11 -15    0.09    0.45
   5 -11  15    0.02    0.36
   5 -11  15   -0.20    0.59
  -5 -11  15    0.61    0.49
   5 -11  16    0.60    0.41
   5 -11  16   -0.01    0.68
  -5 -11  16    0.47    0.57
   6  11  14    0.22    0.50
  -6  11  14   -0.53    0.49
  -6  11  14    0.07    0.50
   6  11  13    0.14    0.45
  -6  11  13    0.44    0.51
  -6  11  13    0.98    0.48
   6  11  12    0.59    0.42
  -6  11  12   -0.57    0.41
  -6  11  12    0.51    0.39
   6  11  11    1.32    0.42
  -6  11  11    0.58    0.42
  -6  11  11    1.36    0.40
   6  11  10    0.42    0.38
  -6  11  10    0.03    0.31
  -6  11  10    0.24    0.40
   6  11   9   -0.07    0.36
  -6  11   9    0.21    0.35
  -6  11   9   -0.01    0.29
   6  11   8    0.66    0.35
  -6  11   8    0.87    0.38
  -6  11   8    1.01    0.33
   6  11   7    0.19    0.34
  -6  11   7    0.17    0.32
  -6  11   7   -0.02    0.30
   6  11   6   19.53    0.62
   6  11   6   19.37    0.93
  -6  11   6   18.72    0.87
  -6  11   6   19.65    0.92
   6  11   5   -0.07    0.34
   6  11   5   -0.02    0.17
  -6  11   5   -0.10    0.26
  -6  11   5    0.21    0.29
   6 -11  -4    0.14    0.35
   6 -11  -4    1.04    0.38
   6  11   4    0.09    0.34
   6  11   4   -0.29    0.19
  -6  11   4    0.62    0.26
  -6  11   4    0.42    0.28
   6  11   3    0.28    0.29
   6 -11  -3    0.60    0.34
   6 -11  -3    0.75    0.36
   6  11   3    0.45    0.21
  -6  11   3   -0.19    0.25
   6 -11  -2    0.52    0.34
   6  11   2    0.88    0.25
   6  11   2    0.66    0.24
   6  11   2    0.21    0.26
   6 -11  -2    0.43    0.32
   6 -11  -1    2.63    0.38
   6  11   1    4.03    0.43
   6  11   1    2.40    0.46
   6 -11  -1    3.47    0.49
  -6 -11  -1    3.36    0.37
   6  11   0    0.11    0.24
   6 -11   0   -0.05    0.29
   6  11   0   -0.40    0.34
  -6 -11   0   -0.11    0.20
   6  11  -1    2.64    0.53
   6 -11   1    2.62    0.35
   6  11  -1    2.89    0.40
  -6 -11   1    2.89    0.39
   6  11  -2    0.12    0.22
   6 -11   2    0.32    0.26
   6  11  -2    0.90    0.42
  -6 -11   2    0.68    0.25
   6  11  -3   -0.10    0.39
   6  11  -3    0.31    0.22
   6 -11   3    0.30    0.25
  -6 -11   3    0.19    0.27
   6 -11   4   -0.06    0.26
   6  11  -4   -0.04    0.35
   6  11  -4    0.12    0.20
  -6 -11   4   -0.13    0.35
   6 -11   5    0.11    0.27
   6  11  -5    0.14    0.36
   6  11  -5   -0.26    0.19
  -6 -11   5    0.41    0.27
   6  11  -6   17.92    0.63
   6 -11   6   18.61    0.89
   6  11  -6   19.99    0.93
  -6 -11   6   18.47    0.86
   6  11  -7   -0.40    0.31
   6 -11   7    0.46    0.29
  -6 -11   7    0.08    0.30
   6  11  -8    0.71    0.36
   6 -11   8    0.24    0.28
  -6 -11   8    0.68    0.31
   6  11  -9    0.43    0.32
   6 -11   9    0.25    0.30
  -6 -11   9    0.30    0.32
   6  11 -10    0.15    0.37
   6 -11  10    0.23    0.32
  -6 -11  10    0.02    0.35
   6 -11  11    1.75    0.35
   6  11 -11    0.95    0.40
  -6 -11  11    1.60    0.44
   6 -11  12    0.68    0.37
   6  11 -12    0.00    0.42
  -6 -11  12    0.56    0.40
   6  11 -13    0.45    0.41
   6 -11  13    0.90    0.35
   6 -11  13   -0.02    0.59
  -6 -11  13   -0.24    0.44
   6 -11  14    1.01    0.41
   6 -11  14    1.42    0.64
   6  11 -14    0.12    0.48
  -6 -11  14    1.77    0.54
  -6 -11  15   -0.21    0.57
   7  11  13    0.76    0.56
  -7  11  13    0.37    0.61
  -7  11  13    0.62    0.59
   7  11  12    0.47    0.49
  -7  11  12   -1.11    0.52
  -7  11  12    0.34    0.51
   7  11  11    0.94    0.48
  -7  11  11    0.55    0.48
  -7  11  11    0.29    0.45
   7  11  10    0.51    0.43
  -7  11  10   -0.10    0.44
  -7  11  10    0.13    0.41
   7  11   9    0.53    0.46
  -7  11   9    0.39    0.43
  -7  11   9    0.30    0.37
   7  11   8   -0.47    0.40
  -7  11   8    0.45    0.38
  -7  11   8   -0.70    0.38
   7  11   7    0.43    0.41
  -7  11   7    0.24    0.35
  -7  11   7    0.42    0.37
   7  11   6   -0.32    0.36
  -7  11   6    0.19    0.32
  -7  11   6   -0.53    0.37
   7  11   5    2.15    0.29
   7  11   5    1.38    0.40
  -7  11   5    2.34    0.43
   7 -11  -4    0.24    0.42
   7  11   4    0.47    0.25
   7 -11  -4    0.25    0.45
   7  11   4    0.52    0.37
   7 -11  -3    4.57    0.66
   7  11   3    4.40    0.56
   7 -11  -3    3.90    0.53
   7  11   3    4.94    0.47
   7 -11  -2    0.42    0.38
   7  11   2    1.65    0.30
   7  11   2    0.72    0.30
   7  11   2   -0.08    0.41
   7 -11  -2    0.67    0.39
   7  11   1    2.06    0.42
   7 -11  -1    1.95    0.47
   7  11   1    1.94    0.45
   7 -11  -1    2.38    0.50
  -7 -11  -1    2.02    0.31
   7  11   0    2.78    0.53
   7 -11   0    2.34    0.43
   7  11   0    2.73    0.41
  -7 -11   0    2.37    0.33
   7  11  -1    1.83    0.49
   7 -11   1    1.79    0.40
   7  11  -1    1.92    0.34
  -7 -11   1    2.06    0.36
   7 -11   2    0.69    0.38
   7  11  -2    1.36    0.29
   7  11  -2    0.86    0.42
  -7 -11   2    0.88    0.42
   7  11  -3    3.92    0.44
   7  11  -3    3.38    0.51
   7 -11   3    4.39    0.60
  -7 -11   3    5.18    0.61
   7 -11   4    0.04    0.33
   7  11  -4    0.14    0.26
   7  11  -4    0.46    0.39
  -7 -11   4   -0.20    0.34
   7  11  -5    2.06    0.30
   7  11  -5    1.76    0.45
   7 -11   5    1.49    0.38
  -7 -11   5    1.59    0.39
   7  11  -6    0.36    0.35
   7 -11   6   -0.12    0.35
  -7 -11   6    0.25    0.33
   7  11  -7    0.06    0.37
   7 -11   7    0.12    0.38
  -7 -11   7    0.24    0.36
   7 -11   8    0.51    0.38
   7  11  -8   -0.10    0.34
  -7 -11   8    0.28    0.39
   7  11  -9    0.24    0.36
   7 -11   9   -0.03    0.36
  -7 -11   9    0.03    0.38
   7 -11  10    0.22    0.38
   7  11 -10   -0.35    0.41
  -7 -11  10    0.24    0.41
   7  11 -11    0.65    0.43
   7 -11  11    1.21    0.42
  -7 -11  11    0.81    0.50
   7  11 -12    0.04    0.47
   7 -11  12    0.17    0.43
  -7 -11  12    0.21    0.49
   7 -11  13    0.43    0.64
   7  11 -13   -0.22    0.47
   7 -11  13   -0.53    0.45
  -7 -11  13   -0.64    0.58
   8  11  11   -0.28    0.52
  -8  11  11   -0.10    0.59
  -8  11  11   -0.97    0.52
   8  11  10    0.10    0.51
  -8  11  10    1.26    0.54
  -8  11  10    1.80    0.65
  -8  11   9    0.02    0.52
   8  11   8    0.28    0.50
  -8  11   8    1.38    0.50
   8  11   7    2.72    0.51
  -8  11   7    1.01    0.47
   8  11   6    1.05    0.44
  -8  11   6    1.17    0.48
   8  11   5    1.57    0.47
   8 -11  -5    2.12    0.59
   8 -11  -5    1.54    0.58
   8  11   4    3.36    0.52
   8 -11  -4    3.43    0.61
   8 -11  -4    3.45    0.58
   8  11   3    0.03    0.42
   8 -11  -3   -0.14    0.47
   8  11   3    0.08    0.36
   8 -11  -3   -0.83    0.46
   8  11   2    4.11    0.58
   8 -11  -2    4.16    0.60
   8 -11  -2    3.91    0.58
   8  11   2    3.57    0.50
   8  11   2    4.28    0.57
   8  11   1    9.42    0.95
   8 -11  -1   10.70    0.91
   8  11   1   10.73    0.81
   8  11   1   11.63    0.96
   8  11   1   10.89    0.92
   8 -11  -1   12.35    0.92
   8 -11   0   -0.49    0.42
   8  11   0    0.36    0.51
   8  11   0    0.02    0.46
  -8 -11   0    0.33    0.41
   8 -11   1   10.96    0.91
   8  11  -1   10.97    0.89
   8  11  -1   10.37    0.88
  -8 -11   1   11.81    0.82
   8  11  -2    4.16    0.59
   8  11  -2    3.57    0.55
   8 -11   2    3.32    0.53
  -8 -11   2    5.69    0.66
   8  11  -3   -0.64    0.34
   8  11  -3   -0.51    0.43
   8 -11   3    0.16    0.44
  -8 -11   3    0.60    0.42
   8 -11   4    2.47    0.47
   8  11  -4    4.03    0.55
   8  11  -4    3.44    0.52
  -8 -11   4    2.97    0.51
   8  11  -5    1.77    0.48
   8 -11   5    1.95    0.49
  -8 -11   5    1.85    0.49
   8 -11   6    0.64    0.46
   8  11  -6    0.70    0.41
  -8 -11   6    0.37    0.45
   8  11  -7    1.86    0.45
   8 -11   7    1.90    0.50
  -8 -11   7    3.05    0.55
   8  11  -8    0.95    0.41
   8 -11   8    0.85    0.47
  -8 -11   8    0.46    0.48
   8 -11   9    0.78    0.47
   8  11  -9   -0.05    0.39
  -8 -11   9    0.42    0.52
   8 -11  10    0.39    0.55
   8  11 -10    0.44    0.51
  -8 -11  10    0.74    0.55
   8  11 -11   -0.44    0.49
   8 -11  11   -0.13    0.49
  -8 -11  11    0.03    0.57
   9  11   8   -0.87    0.51
  -9  11   8    0.56    0.64
   9  11   7    1.80    0.60
  -9  11   7    2.30    0.66
   9  11   6   -0.53    0.52
   9 -11  -6   -0.29    0.75
   9 -11  -6    0.75    0.73
   9 -11  -5    0.90    0.67
   9 -11  -5    0.53    0.69
   9  11   5   -0.07    0.47
   9 -11  -4    0.41    0.67
   9  11   4    0.03    0.46
   9 -11  -4    0.71    0.66
   9  11   3    0.13    0.49
   9 -11  -3    0.16    0.58
   9 -11  -3   -0.38    0.59
   9 -11  -2   -0.06    0.58
   9  11   2   -0.34    0.47
   9 -11  -2    1.02    0.61
   9  11   2    1.29    0.58
   9  11   1   -0.09    0.53
   9  11   1    0.67    0.53
   9 -11  -1   -0.21    0.55
   9  11   1    0.22    0.47
   9  11   1    0.61    0.57
   9  11   0    0.90    0.55
   9  11   0    1.81    0.53
   9  11   0    0.75    0.55
   9  11   0    0.87    0.48
   9 -11   0    1.80    0.59
   9  11  -1   -0.23    0.49
   9  11  -1   -0.39    0.47
   9 -11   1    0.11    0.54
  -9 -11   1    0.18    0.48
   9 -11   2    0.03    0.59
   9  11  -2   -0.36    0.47
   9  11  -2    0.14    0.53
  -9 -11   2    0.60    0.51
   9 -11   3    0.44    0.57
   9  11  -3   -0.13    0.59
   9  11  -3    0.98    0.48
  -9 -11   3   -0.33    0.49
   9 -11   4   -0.21    0.53
   9  11  -4    0.41    0.45
  -9 -11   4    1.07    0.55
   9 -11   5    1.23    0.61
   9  11  -5    0.77    0.49
  -9 -11   5   -0.14    0.55
   9 -11   6    0.32    0.59
   9  11  -6    0.51    0.48
  -9 -11   6   -0.42    0.57
   9 -11   7    1.52    0.65
   9  11  -7    0.75    0.47
  -9 -11   7    0.19    0.60
   9  11  -8    0.36    0.47
   9 -11   8   -0.40    0.62
  -9 -11   8   -0.27    0.63
  10  11   1    1.76    0.61
  10  11   1    0.66    0.64
  10 -11  -1    0.31    0.68
  10  11   0   -1.06    0.57
  10 -11   0    0.50    0.68
  10  11   0   -0.57    0.57
  10  11  -1    0.13    0.67
  10  11  -1    1.48    0.75
  10  11  -1    1.19    0.64
  10  11  -1    0.84    0.63
  10 -11   1   -0.39    0.68
   0  12  18   10.93    0.73
   0  12  17    3.00    0.55
   0  12  17    1.97    0.38
   0  12  16    1.18    0.42
   0  12  16    0.70    0.28
   0  12  15    1.11    0.38
   0  12  15    1.26    0.28
   0  12  14    4.10    0.40
   0  12  14    4.29    0.50
   0  12  13    2.36    0.33
   0  12  13    3.02    0.45
   0  12  12    1.64    0.23
   0  12  12    1.75    0.26
   0  12  11    0.57    0.19
   0  12  11    0.47    0.20
   0  12  10    1.97    0.23
   0  12  10    1.72    0.27
   0  12   9    3.65    0.30
   0  12   9    3.99    0.33
   0  12   8   12.64    0.53
   0  12   8   12.84    0.49
   0  12   7   33.90    1.05
   0  12   7   35.61    1.01
   0 -12  -6   32.44    0.94
   0  12   6   34.29    1.02
   0  12   6   33.83    0.96
   0 -12  -5    1.33    0.19
   0 -12  -5    0.90    0.14
   0 -12  -5    1.08    0.18
   0  12   5    1.04    0.16
   0  12   4   49.92    1.40
   0  12   4   50.26    1.50
   0 -12  -4   50.71    1.38
   0 -12  -4   48.28    1.34
   0 -12  -3   46.18    1.28
   0 -12  -3   48.43    1.31
   0  12   3   47.86    1.43
   0  12   3   47.26    1.33
   0 -12  -2    1.12    0.16
   0 -12  -2    1.17    0.15
   0  12   2    1.67    0.17
   0  12   2    1.73    0.24
   0 -12  -1    0.31    0.10
   0  12   1    0.02    0.16
   0  12   1    0.35    0.16
   0  12   1    0.38    0.16
   0  12   1    0.23    0.10
   0  12   0   80.80    2.23
   0  12   0   82.10    2.15
   0 -12   0   80.39    2.12
   0  12  -1    0.19    0.11
   0  12  -1    0.23    0.14
   0 -12   1    0.12    0.09
   0  12  -2    1.70    0.19
   0  12  -2    1.51    0.23
   0 -12   2    1.47    0.17
   0  12  -3   47.21    1.39
   0 -12   3   46.87    1.30
   0  12  -3   47.22    1.31
   0 -12   4   49.44    1.39
   0  12  -4   51.01    1.39
   0  12  -4   50.25    1.48
   0 -12   5    1.06    0.15
   0  12  -5    1.29    0.21
   0 -12   6   33.89    1.02
   0  12  -6   34.94    1.12
   0 -12   7   34.10    1.04
   0  12  -7   33.95    1.11
   0  12  -8   13.32    0.59
   0 -12   8   12.41    0.50
   0 -12   9    3.43    0.28
   0  12  -9    4.11    0.39
   0 -12  10    1.90    0.25
   0 -12  10    1.61    0.28
   0 -12  11    0.27    0.17
   0 -12  11    1.11    0.27
   0 -12  12    1.14    0.23
   0 -12  12    1.52    0.28
   0 -12  13    2.13    0.30
   0 -12  13    2.49    0.38
   0 -12  14    3.55    0.43
   0 -12  15    1.18    0.29
   0 -12  16    0.13    0.31
   0 -12  17    1.68    0.43
   0 -12  18   10.40    0.85
   1  12  18    0.51    0.36
  -1  12  18    0.16    0.35
  -1  12  18    0.48    0.58
   1  12  17   -0.11    0.31
  -1  12  17   -0.38    0.46
  -1  12  17    0.42    0.33
   1  12  16    3.15    0.46
   1  12  16    4.13    0.64
  -1  12  16    3.62    0.50
  -1  12  16    2.68    0.48
   1  12  15    3.05    0.41
   1  12  15    4.82    0.69
  -1  12  15    3.54    0.42
  -1  12  15    3.82    0.46
   1  12  14    1.48    0.27
   1  12  14    1.42    0.30
  -1  12  14    1.44    0.35
  -1  12  14    0.74    0.26
   1  12  13    5.10    0.43
   1  12  13    4.67    0.38
  -1  12  13    4.30    0.40
  -1  12  13    5.23    0.64
   1  12  12    4.11    0.38
   1  12  12    4.30    0.37
  -1  12  12    4.92    0.38
  -1  12  12    3.73    0.44
   1  12  11    5.80    0.37
   1  12  11    5.66    0.38
  -1  12  11    5.69    0.44
  -1  12  11    5.72    0.39
   1  12  10    9.90    0.44
   1  12  10    9.56    0.50
  -1  12  10    9.96    0.51
  -1  12  10    9.07    0.51
   1  12   9    1.14    0.17
   1  12   9    1.48    0.24
  -1  12   9    0.76    0.21
  -1 -12  -9    1.04    0.15
  -1  12   9    1.14    0.22
   1  12   8   16.24    0.52
   1  12   8   15.82    0.61
  -1  12   8   17.03    0.63
  -1  12   8   16.44    0.62
  -1 -12  -8   15.00    0.47
   1  12   7   11.90    0.38
   1  12   7   11.99    0.49
  -1  12   7   11.54    0.49
  -1  12   7   10.80    0.47
  -1 -12  -7   10.56    0.34
   1  12   6    2.75    0.24
  -1 -12  -6    2.27    0.22
  -1 -12  -6    2.44    0.13
  -1  12   6    2.69    0.24
  -1  12   6    2.14    0.26
  -1 -12  -6    2.68    0.22
   1  12   5    0.25    0.12
  -1  12   5   -0.15    0.12
  -1  12   5    0.14    0.19
  -1  12   5    0.08    0.11
  -1 -12  -5   -0.19    0.09
   1  12   4   13.87    0.50
   1 -12  -4   13.54    0.56
   1 -12  -4   13.48    0.56
  -1  12   4   14.84    0.57
  -1 -12  -4   14.14    0.39
  -1  12   4   13.38    0.52
   1 -12  -3   -0.02    0.15
   1  12   3    0.20    0.19
   1 -12  -3    0.04    0.16
   1  12   3    0.06    0.10
  -1  12   3   -0.10    0.11
  -1  12   3   -0.20    0.15
  -1 -12  -3    0.10    0.08
  -1 -12  -3    0.03    0.05
   1  12   2   86.94    2.43
   1 -12  -2   86.27    2.31
   1  12   2   86.40    2.25
  -1  12   2   84.44    2.29
  -1 -12  -2   84.85    2.18
  -1 -12  -2   83.19    2.15
  -1  12   2   86.48    2.30
   1  12   1    1.51    0.19
   1  12   1    1.13    0.15
   1  12   1    1.05    0.22
   1 -12  -1    1.14    0.18
  -1 -12  -1    1.23    0.11
  -1  12   1    1.37    0.19
  -1  12   1    1.05    0.18
   1  12   0   -0.01    0.08
   1  12   0    0.18    0.17
   1 -12   0    0.08    0.12
  -1 -12   0    0.05    0.07
  -1  12   0   -0.12    0.12
  -1  12   0   -0.08    0.11
   1 -12   1    1.21    0.17
   1  12  -1    1.84    0.27
   1  12  -1    1.45    0.15
  -1 -12   1    1.25    0.13
  -1  12  -1    1.72    0.21
  -1  12  -1    1.25    0.19
   1 -12   2   85.46    2.28
   1  12  -2   85.39    2.19
   1  12  -2   83.15    2.35
  -1  12  -2   83.58    2.27
  -1 -12   2   83.48    2.18
  -1  12  -2   85.54    2.27
   1  12  -3   -0.10    0.10
   1 -12   3   -0.03    0.12
   1  12  -3    0.19    0.17
  -1  12  -3    0.02    0.13
  -1 -12   3   -0.01    0.08
  -1  12  -3   -0.06    0.13
   1  12  -4   13.51    0.45
   1  12  -4   14.03    0.59
   1 -12   4   13.56    0.52
  -1  12  -4   14.07    0.54
  -1 -12   4   13.43    0.47
  -1  12  -4   13.39    0.51
   1  12  -5    0.02    0.17
   1 -12   5   -0.01    0.12
   1  12  -5    0.01    0.10
  -1 -12   5    0.11    0.09
  -1  12  -5    0.18    0.15
   1 -12   6    2.76    0.26
   1  12  -6    2.69    0.29
  -1 -12   6    2.92    0.23
  -1  12  -6    2.42    0.28
   1  12  -7   11.33    0.55
   1 -12   7   10.06    0.47
  -1  12  -7   10.84    0.52
  -1 -12   7   11.66    0.47
   1  12  -8   16.12    0.68
   1 -12   8   15.18    0.59
  -1 -12   8   15.55    0.60
   1 -12   9    0.94    0.16
   1  12  -9    1.12    0.26
  -1 -12   9    0.76    0.12
  -1 -12   9    1.47    0.22
  -1 -12   9    1.30    0.16
   1 -12  10    9.50    0.45
   1  12 -10    7.95    0.55
  -1 -12  10    9.25    0.45
   1  12 -11    4.71    0.43
   1 -12  11    5.30    0.37
   1 -12  11    5.02    0.49
  -1 -12  11    5.59    0.38
   1 -12  12    4.04    0.43
   1 -12  12    3.78    0.36
  -1 -12  12    3.98    0.38
   1 -12  13    3.88    0.38
   1 -12  13    3.53    0.52
  -1 -12  13    3.85    0.41
   1 -12  14    1.37    0.26
   1 -12  14    1.40    0.36
  -1 -12  14    1.24    0.31
   1 -12  15    4.20    0.47
   1 -12  15    4.76    0.56
  -1 -12  15    4.19    0.50
   1 -12  16    2.75    0.41
  -1 -12  16    3.91    0.55
   1 -12  17    0.30    0.38
  -1 -12  17   -0.48    0.41
   1 -12  18    0.51    0.43
  -1 -12  18    0.76    0.48
   2  12  18    0.64    0.37
  -2  12  18    0.71    0.62
   2  12  17    0.07    0.35
  -2  12  17   -0.06    0.35
  -2  12  17    0.60    0.51
   2  12  16    0.88    0.34
  -2  12  16    0.56    0.43
   2  12  15    0.51    0.27
  -2  12  15    0.79    0.28
  -2  12  15    1.13    0.39
   2  12  14   -0.31    0.35
   2  12  14    0.34    0.25
  -2  12  14    0.56    0.24
  -2  12  14   -0.23    0.34
   2  12  13   10.01    0.56
   2  12  13    9.49    0.53
  -2  12  13    9.71    0.54
  -2  12  13   10.27    0.66
   2  12  12    2.38    0.33
   2  12  12    2.76    0.34
  -2  12  12    2.17    0.37
  -2  12  12    2.41    0.33
   2  12  11    0.72    0.21
   2  12  11    0.32    0.18
  -2  12  11   -0.32    0.36
  -2  12  11    0.71    0.23
   2  12  10    9.31    0.50
   2  12  10    8.85    0.36
  -2 -12 -10    7.83    0.37
  -2  12  10    8.16    0.50
  -2  12  10    8.42    0.61
   2  12   9   14.12    0.44
   2  12   9   13.21    0.62
  -2  12   9   13.36    0.63
  -2  12   9   13.25    0.60
  -2 -12  -9   12.89    0.44
  -2  12   8    0.23    0.20
  -2  12   8    0.22    0.17
   2  12   7    0.40    0.16
  -2  12   7    0.27    0.16
  -2  12   7    0.30    0.17
   2  12   6    2.10    0.24
  -2  12   6    1.79    0.25
  -2  12   6    1.85    0.23
  -2  12   6    1.84    0.23
   2  12   5    0.97    0.17
  -2  12   5    0.79    0.18
  -2  12   5    1.12    0.19
  -2  12   5    1.11    0.19
   2 -12  -4   40.37    1.30
   2 -12  -4   39.99    1.30
   2  12   4   41.75    1.20
  -2  12   4   41.33    1.14
  -2  12   4   39.75    1.22
   2  12   3    0.63    0.13
   2 -12  -3    0.44    0.20
   2 -12  -3    0.54    0.19
  -2  12   3    0.47    0.13
  -2  12   3    0.52    0.15
   2  12   2    0.08    0.11
   2  12   2    0.16    0.22
   2 -12  -2    0.16    0.17
  -2  12   2    0.16    0.13
  -2  12   2    0.07    0.13
   2 -12  -1    5.00    0.35
   2  12   1    5.20    0.22
   2  12   1    4.74    0.39
   2  12   1    5.32    0.25
  -2  12   1    5.15    0.27
  -2 -12  -1    5.25    0.20
  -2  12   1    4.47    0.29
   2  12   0    6.35    0.28
   2 -12   0    6.50    0.38
   2  12   0    6.26    0.43
   2  12   0    6.55    0.27
  -2 -12   0    6.01    0.24
  -2  12   0    6.43    0.31
  -2  12   0    6.55    0.35
   2  12  -1    5.23    0.27
   2  12  -1    4.51    0.37
   2 -12   1    4.80    0.34
   2  12  -1    5.29    0.24
  -2  12  -1    5.72    0.30
  -2 -12   1    4.95    0.23
  -2  12  -1    4.80    0.32
   2 -12   2    0.22    0.15
   2  12  -2    0.09    0.08
   2  12  -2    0.36    0.18
  -2  12  -2   -0.18    0.12
  -2 -12   2    0.18    0.08
  -2  12  -2    0.02    0.14
   2  12  -3    0.53    0.21
   2  12  -3    0.63    0.10
   2 -12   3    0.60    0.18
  -2  12  -3    0.66    0.17
  -2  12  -3    0.52    0.15
  -2 -12   3    0.68    0.12
   2  12  -4   39.54    1.06
   2  12  -4   38.70    1.27
   2 -12   4   40.22    1.23
  -2  12  -4   40.57    1.20
  -2 -12   4   40.45    1.14
   2  12  -5    1.09    0.13
   2 -12   5    1.04    0.20
   2  12  -5    0.90    0.22
  -2 -12   5    1.30    0.18
   2 -12   6    1.82    0.26
   2  12  -6    1.30    0.22
  -2 -12   6    1.68    0.21
   2 -12   7    0.21    0.16
   2  12  -7    0.48    0.18
  -2 -12   7    0.42    0.17
   2 -12   8    0.47    0.15
   2  12  -8   -0.07    0.19
  -2 -12   8    0.34    0.19
   2  12  -9   13.32    0.66
   2 -12   9   12.88    0.56
  -2 -12   9   13.58    0.58
   2 -12  10    7.86    0.44
   2  12 -10    7.78    0.54
  -2 -12  10    8.94    0.48
   2 -12  11    0.25    0.18
   2  12 -11    0.42    0.27
  -2 -12  11    0.42    0.22
   2 -12  12    2.16    0.32
   2  12 -12    1.56    0.32
   2 -12  12    2.02    0.41
  -2 -12  12    2.61    0.37
   2 -12  13    9.04    0.53
  -2 -12  13    9.86    0.59
   2 -12  14    0.08    0.24
   2 -12  14    0.43    0.40
  -2 -12  14    0.32    0.27
   2 -12  15    0.37    0.44
   2 -12  15    0.71    0.28
  -2 -12  15    1.40    0.35
   2 -12  16    0.50    0.31
   2 -12  16    0.08    0.44
  -2 -12  16    0.03    0.35
   2 -12  17   -0.46    0.38
  -2 -12  17    0.22    0.45
   2 -12  18   -0.21    0.40
  -2 -12  18    0.60    0.51
   3  12  17    0.09    0.36
  -3  12  17   -0.64    0.42
  -3  12  17   -0.36    0.53
   3  12  16    1.19    0.38
  -3  12  16    0.44    0.35
  -3  12  16   -0.60    0.47
   3  12  15    0.30    0.30
  -3  12  15    0.68    0.42
  -3  12  15    0.56    0.32
   3  12  14    0.64    0.29
  -3  12  14    0.76    0.39
  -3  12  14    1.04    0.32
   3  12  13    0.67    0.27
  -3  12  13    0.44    0.27
  -3  12  13    0.04    0.34
   3  12  12    4.65    0.43
  -3  12  12    3.89    0.42
  -3  12  12    5.23    0.54
   3  12  11   -0.18    0.18
   3  12  11   -0.08    0.22
  -3  12  11   -0.19    0.23
  -3  12  11    0.74    0.30
   3  12  10    4.81    0.41
   3  12  10    4.11    0.24
  -3  12  10    3.29    0.42
  -3  12  10    3.94    0.42
   3  12   9    5.67    0.43
  -3  12   9    5.15    0.54
  -3  12   9    4.68    0.45
   3  12   8    0.27    0.23
  -3  12   8    0.19    0.16
  -3  12   8    0.17    0.27
  -3  12   8    0.06    0.20
   3  12   7   17.63    0.72
  -3  12   7   17.04    0.71
  -3  12   7   18.31    0.76
   3  12   6   20.23    0.75
  -3  12   6   19.78    0.77
  -3  12   6   18.55    0.75
   3  12   5    0.34    0.17
  -3  12   5    0.04    0.16
  -3  12   5    0.01    0.16
   3  12   4    0.14    0.15
  -3  12   4    0.08    0.16
  -3  12   4    0.02    0.08
  -3  12   4   -0.13    0.15
   3 -12  -3   17.47    0.76
   3 -12  -3   16.46    0.75
   3  12   3   17.37    0.64
  -3  12   3   17.92    0.68
   3  12   2    1.57    0.21
   3 -12  -2    0.92    0.25
   3 -12  -2    1.11    0.25
  -3  12   2    1.40    0.22
   3  12   1   18.68    0.84
   3  12   1   19.86    0.53
   3  12   1   18.24    0.63
   3 -12  -1   18.50    0.77
  -3 -12  -1   18.67    0.56
  -3  12   1   18.70    0.71
   3 -12   0   -0.16    0.18
   3  12   0    0.01    0.23
   3  12   0   -0.16    0.11
   3  12   0   -0.01    0.08
  -3 -12   0    0.09    0.11
  -3  12   0    0.08    0.16
   3  12  -1   18.85    0.58
   3 -12   1   17.71    0.75
   3  12  -1   18.82    0.80
  -3 -12   1   18.78    0.60
  -3  12  -1   18.47    0.70
   3 -12   2    1.14    0.22
   3  12  -2    1.23    0.14
   3  12  -2    1.27    0.25
  -3 -12   2    1.09    0.15
  -3  12  -2    0.90    0.20
   3  12  -3   17.44    0.75
   3  12  -3   18.00    0.52
   3 -12   3   17.08    0.73
  -3 -12   3   17.14    0.59
   3 -12   4    0.03    0.21
   3  12  -4   -0.30    0.19
   3  12  -4    0.12    0.08
  -3 -12   4    0.14    0.12
   3  12  -5   -0.13    0.19
   3 -12   5   -0.25    0.16
  -3 -12   5    0.21    0.13
   3  12  -6   18.64    0.80
   3 -12   6   18.74    0.74
  -3 -12   6   19.98    0.70
   3 -12   7   17.04    0.68
   3  12  -7   16.81    0.74
  -3 -12   7   15.79    0.68
   3  12  -8    0.37    0.24
   3 -12   8    0.43    0.19
  -3 -12   8    0.05    0.19
   3 -12   9    5.09    0.38
   3  12  -9    4.54    0.48
  -3 -12   9    4.20    0.38
   3  12 -10    3.15    0.42
   3 -12  10    3.37    0.34
  -3 -12  10    3.05    0.38
   3  12 -11    0.12    0.28
   3 -12  11    0.04    0.21
  -3 -12  11   -0.08    0.23
   3 -12  12    3.77    0.41
   3  12 -12    5.08    0.52
  -3 -12  12    4.17    0.47
   3  12 -13    0.24    0.30
   3 -12  13    0.41    0.25
   3 -12  13    0.69    0.49
  -3 -12  13    0.42    0.31
   3  12 -14    0.35    0.37
   3 -12  14   -0.66    0.53
   3 -12  14    0.39    0.26
   3 -12  15    0.84    0.68
   3 -12  15    0.50    0.29
  -3 -12  15    0.27    0.37
   3 -12  16    0.99    0.62
   3 -12  16    0.48    0.34
  -3 -12  16    0.91    0.42
   3 -12  17    0.74    0.64
   3 -12  17   -0.45    0.38
  -3 -12  17   -0.80    0.49
   4  12  16    0.17    0.41
  -4  12  16    0.64    0.43
   4  12  15   -0.11    0.36
  -4  12  15   -0.30    0.36
  -4  12  15   -0.21    0.47
   4  12  14    0.61    0.35
  -4  12  14    0.55    0.34
  -4  12  14    0.39    0.42
   4  12  13    1.03    0.34
  -4  12  13    1.99    0.40
  -4  12  13    1.23    0.34
   4  12  12    0.68    0.29
  -4  12  12   -0.31    0.35
  -4  12  12    0.38    0.29
   4  12  11   -0.05    0.26
  -4  12  11    0.01    0.31
  -4  12  11    0.07    0.26
   4  12  10    7.37    0.54
  -4  12  10    8.34    0.59
  -4  12  10    6.46    0.53
   4  12   9    8.99    0.56
  -4  12   9    7.86    0.62
  -4  12   9    8.66    0.56
   4  12   8   24.56    0.95
  -4  12   8   23.47    0.99
  -4  12   8   23.01    0.94
   4  12   7   18.82    0.84
  -4  12   7   20.40    0.86
  -4  12   7   18.98    0.82
   4  12   6    1.18    0.26
  -4  12   6    0.73    0.25
  -4  12   6    1.33    0.30
   4  12   5    4.09    0.36
  -4  12   5    3.27    0.49
  -4  12   5    3.34    0.38
   4  12   4    0.19    0.19
  -4  12   4    0.81    0.22
  -4  12   4    0.77    0.29
   4  12   3    0.43    0.18
   4 -12  -3    0.11    0.31
   4 -12  -3   -0.31    0.31
  -4  12   3    0.42    0.20
   4  12   2   18.88    0.70
   4 -12  -2   18.02    0.90
   4  12   2   19.51    0.51
   4 -12  -2   18.71    0.90
  -4 -12  -2   18.53    0.56
  -4  12   2   17.97    0.75
   4  12   1    2.10    0.27
   4  12   1    2.13    0.15
   4  12   1    2.40    0.39
   4 -12  -1    1.54    0.35
  -4  12   1    2.51    0.31
  -4 -12  -1    2.38    0.23
   4  12   0    0.32    0.15
   4  12   0    0.00    0.15
   4  12   0   -0.05    0.26
   4 -12   0    0.27    0.28
  -4  12   0    0.07    0.18
  -4 -12   0   -0.07    0.14
   4  12  -1    1.81    0.23
   4  12  -1    2.03    0.34
   4 -12   1    1.98    0.30
  -4 -12   1    2.25    0.26
  -4  12  -1    2.19    0.32
   4  12  -2   18.66    0.60
   4  12  -2   18.25    0.84
   4 -12   2   18.04    0.78
  -4 -12   2   18.92    0.66
   4  12  -3   -0.18    0.21
   4  12  -3    0.19    0.11
   4 -12   3    0.06    0.19
  -4 -12   3    0.31    0.16
   4  12  -4    0.50    0.10
   4 -12   4    0.16    0.18
   4  12  -4    1.10    0.28
  -4 -12   4    0.57    0.17
   4  12  -5    3.08    0.15
   4 -12   5    2.86    0.37
   4  12  -5    3.13    0.40
  -4 -12   5    3.34    0.32
   4 -12   6    0.95    0.21
   4  12  -6    1.05    0.28
  -4 -12   6    1.06    0.25
   4 -12   7   18.66    0.77
   4  12  -7   17.89    0.82
  -4 -12   7   18.64    0.77
   4  12  -8   23.01    0.97
   4 -12   8   22.93    0.88
  -4 -12   8   22.70    0.89
   4 -12   9    8.32    0.52
   4  12  -9    8.85    0.58
  -4 -12   9    8.07    0.55
   4  12 -10    6.77    0.55
   4 -12  10    5.92    0.44
  -4 -12  10    8.02    0.53
   4  12 -11    0.01    0.31
   4 -12  11    0.07    0.23
  -4 -12  11    0.10    0.26
   4  12 -12   -0.07    0.36
   4 -12  12    0.27    0.26
  -4 -12  12    0.18    0.28
   4 -12  13    1.14    0.28
   4  12 -13    1.31    0.38
   4 -12  13    1.46    0.56
  -4 -12  13    1.36    0.37
   4 -12  14    0.06    0.56
   4  12 -14    1.41    0.43
   4 -12  14    0.85    0.31
  -4 -12  14    1.28    0.39
   4 -12  15   -0.04    0.31
   4 -12  15   -0.03    0.61
  -4 -12  15   -0.32    0.40
   4 -12  16   -0.58    0.63
   4 -12  16    0.06    0.36
  -4 -12  16   -0.97    0.48
   5  12  15    0.08    0.41
  -5  12  15   -0.33    0.43
  -5  12  15   -0.23    0.51
   5  12  14    0.95    0.44
  -5  12  14    0.63    0.46
  -5  12  14    0.35    0.41
   5  12  13    0.55    0.38
  -5  12  13   -0.16    0.41
  -5  12  13   -0.75    0.34
   5  12  12    5.11    0.58
  -5  12  12    3.80    0.48
  -5  12  12    4.20    0.61
   5  12  11    1.28    0.34
  -5  12  11    1.89    0.41
  -5  12  11    1.43    0.35
   5  12  10    1.47    0.34
  -5  12  10    2.08    0.34
  -5  12  10    1.86    0.40
   5  12   9    3.10    0.42
  -5  12   9    3.67    0.44
  -5  12   9    3.83    0.47
   5  12   8    0.41    0.31
  -5  12   8    0.47    0.28
  -5  12   8    0.44    0.31
   5  12   7    1.00    0.30
  -5  12   7    1.11    0.31
  -5  12   7    1.18    0.31
   5  12   6   17.43    0.84
  -5  12   6   15.26    0.74
  -5  12   6   16.16    0.82
   5  12   5    0.39    0.31
  -5  12   5   -0.04    0.27
  -5  12   5    0.50    0.24
   5 -12  -4    0.59    0.33
   5 -12  -4    0.56    0.32
   5  12   4    0.44    0.24
   5  12   4    0.51    0.10
  -5  12   4    0.30    0.28
   5  12   3    7.07    0.48
   5 -12  -3    7.73    0.61
   5  12   3    7.08    0.34
   5  12   3    7.35    0.27
   5 -12  -3    7.41    0.61
  -5  12   3    6.97    0.55
   5 -12  -2    6.62    0.57
   5  12   2    6.59    0.29
   5  12   2    6.29    0.37
   5 -12  -2    6.34    0.58
   5  12   2    7.49    0.46
   5  12   2    6.85    0.38
  -5  12   2    7.35    0.53
   5  12   1    1.67    0.40
   5 -12  -1    1.83    0.37
   5  12   1    2.21    0.33
   5 -12  -1    1.67    0.36
  -5  12   1    1.89    0.32
  -5 -12  -1    1.81    0.21
   5 -12   0    0.38    0.27
   5  12   0   -0.15    0.18
   5  12   0    0.11    0.34
  -5 -12   0    0.01    0.17
   5  12  -1    2.10    0.28
   5  12  -1    2.45    0.40
   5 -12   1    1.56    0.29
  -5 -12   1    2.20    0.31
   5  12  -2    6.92    0.37
   5  12  -2    6.98    0.62
   5 -12   2    6.25    0.50
  -5 -12   2    7.40    0.44
   5 -12   3    7.23    0.51
   5  12  -3    7.96    0.63
   5  12  -3    7.28    0.35
  -5 -12   3    7.04    0.45
   5  12  -4    0.60    0.34
   5 -12   4    0.38    0.23
   5  12  -4    0.85    0.15
  -5 -12   4    0.59    0.22
   5  12  -5    0.30    0.33
   5  12  -5    0.25    0.12
   5 -12   5    0.48    0.24
  -5 -12   5    0.61    0.28
   5  12  -6   15.67    0.83
   5 -12   6   14.03    0.71
  -5 -12   6   16.22    0.75
   5 -12   7    0.83    0.27
   5  12  -7    1.48    0.35
  -5 -12   7    1.26    0.28
   5  12  -8    0.78    0.30
   5 -12   8    0.64    0.26
  -5 -12   8    0.38    0.28
   5 -12   9    3.61    0.46
   5  12  -9    3.59    0.53
  -5 -12   9    3.71    0.48
   5  12 -10    1.89    0.39
   5 -12  10    1.66    0.34
  -5 -12  10    2.12    0.34
   5  12 -11    1.75    0.37
   5 -12  11    1.22    0.33
  -5 -12  11    1.24    0.35
   5  12 -12    4.33    0.54
   5 -12  12    4.76    0.52
  -5 -12  12    3.54    0.49
   5  12 -13    0.39    0.39
   5 -12  13   -0.37    0.29
  -5 -12  13   -0.15    0.37
   5 -12  14    0.08    0.61
   5  12 -14    0.81    0.47
   5 -12  14    0.38    0.34
  -5 -12  14    0.47    0.43
   5 -12  15    0.04    0.37
   5 -12  15   -0.67    0.63
   5  12 -15    0.51    0.47
  -5 -12  15   -0.33    0.51
   6  12  14   -0.29    0.46
  -6  12  14   -0.33    0.48
  -6  12  14    1.25    0.58
   6  12  13    0.29    0.47
  -6  12  13    1.05    0.51
  -6  12  13   -0.05    0.42
   6  12  12    0.25    0.41
  -6  12  12    0.65    0.42
  -6  12  12   -0.59    0.43
   6  12  11    0.15    0.40
  -6  12  11    0.56    0.44
  -6  12  11    1.06    0.39
   6  12  10    0.73    0.39
  -6  12  10    0.85    0.36
  -6  12  10    0.41    0.41
   6  12   9    1.56    0.39
  -6  12   9    2.27    0.39
  -6  12   9    2.10    0.44
   6  12   8    6.31    0.60
  -6  12   8    5.64    0.68
  -6  12   8    5.60    0.58
   6  12   7    1.69    0.39
  -6  12   7    1.38    0.38
  -6  12   7    1.79    0.36
   6  12   6   14.25    0.79
  -6  12   6   13.17    0.77
  -6  12   6   14.19    0.75
   6  12   5   13.86    0.78
   6  12   5   12.75    0.47
  -6  12   5   13.45    0.75
  -6  12   5   12.51    0.68
   6 -12  -4    0.75    0.40
   6  12   4    1.32    0.43
   6 -12  -4    1.27    0.39
   6  12   4    1.24    0.20
  -6  12   4    1.11    0.29
   6 -12  -3    3.49    0.49
   6 -12  -3    2.77    0.47
   6  12   3    2.94    0.35
   6  12   3    3.41    0.50
  -6  12   3    2.00    0.33
   6 -12  -2    1.40    0.40
   6 -12  -2    2.71    0.44
   6  12   2    2.20    0.28
   6  12   2    1.97    0.27
   6  12   2    1.81    0.33
   6  12   1   16.25    0.92
   6 -12  -1   14.47    0.83
   6  12   1   15.13    0.70
   6 -12  -1   13.95    0.84
  -6 -12  -1   14.72    0.62
   6  12   0    0.13    0.24
   6  12   0    0.02    0.39
   6 -12   0   -0.27    0.30
  -6 -12   0    0.34    0.21
   6 -12   1   14.60    0.81
   6  12  -1   15.26    0.87
   6  12  -1   14.62    0.66
  -6 -12   1   14.61    0.64
   6  12  -2    2.31    0.35
   6  12  -2    1.07    0.39
   6 -12   2    1.71    0.36
  -6 -12   2    1.57    0.30
   6 -12   3    2.19    0.37
   6  12  -3    2.36    0.35
   6  12  -3    2.35    0.45
  -6 -12   3    3.03    0.38
   6  12  -4    1.26    0.22
   6 -12   4    1.65    0.33
   6  12  -4    1.32    0.38
  -6 -12   4    1.56    0.43
   6  12  -5   11.93    0.48
   6 -12   5   12.12    0.72
   6  12  -5   11.56    0.76
  -6 -12   5   13.71    0.72
   6  12  -6   13.23    0.80
   6 -12   6   14.23    0.79
  -6 -12   6   14.37    0.74
   6  12  -7    0.77    0.37
   6 -12   7    1.79    0.35
  -6 -12   7    1.83    0.37
   6 -12   8    6.47    0.60
   6  12  -8    4.92    0.56
  -6 -12   8    5.80    0.61
   6 -12   9    0.99    0.34
   6  12  -9    2.22    0.37
  -6 -12   9    1.59    0.40
   6  12 -10    1.20    0.42
   6 -12  10    0.55    0.34
  -6 -12  10    0.65    0.39
   6  12 -11    0.77    0.40
   6 -12  11    0.89    0.37
  -6 -12  11    1.24    0.41
   6  12 -12   -0.88    0.41
   6 -12  12   -0.06    0.35
  -6 -12  12    0.75    0.44
   6 -12  13    0.07    0.39
   6  12 -13   -0.16    0.41
  -6 -12  13    0.76    0.47
   6 -12  14   -1.32    0.65
   6  12 -14   -0.52    0.45
   6 -12  14   -0.35    0.40
  -6 -12  14    0.64    0.56
   7  12  12    0.41    0.49
  -7  12  12    0.90    0.55
  -7  12  12   -0.59    0.52
   7  12  11    0.06    0.49
  -7  12  11   -0.52    0.47
  -7  12  11    0.64    0.48
   7  12  10    0.66    0.46
  -7  12  10   -0.31    0.45
  -7  12  10   -0.26    0.38
   7  12   9    0.71    0.46
  -7  12   9   -0.27    0.43
  -7  12   9   -0.10    0.38
   7  12   8    2.38    0.46
  -7  12   8    1.86    0.46
  -7  12   8    2.18    0.44
   7  12   7    1.83    0.46
  -7  12   7    0.70    0.42
  -7  12   7    1.33    0.41
   7  12   6    1.49    0.40
  -7  12   6    1.26    0.39
  -7  12   6    1.06    0.39
   7 -12  -5    0.23    0.46
   7  12   5    0.48    0.36
   7 -12  -5    1.12    0.50
  -7  12   5    0.39    0.34
   7  12   4    0.19    0.29
   7  12   4    0.12    0.35
   7 -12  -4    0.55    0.42
   7 -12  -4    0.63    0.48
   7 -12  -3    9.30    0.81
   7  12   3   10.49    0.59
   7 -12  -3    9.77    0.83
   7  12   3    9.71    0.74
   7  12   2    1.02    0.30
   7  12   2    1.21    0.47
   7 -12  -2    1.35    0.42
   7  12   2    1.07    0.31
   7 -12  -2    1.56    0.44
   7  12   1    0.94    0.43
   7 -12  -1   -0.25    0.39
   7  12   1    0.62    0.40
   7 -12  -1   -0.30    0.38
  -7 -12  -1    0.56    0.27
   7  12   0   -0.22    0.30
   7  12   0    0.88    0.44
   7 -12   0    0.15    0.36
  -7 -12   0   -0.04    0.27
   7  12  -1   -0.60    0.42
   7 -12   1    1.08    0.40
   7  12  -1   -0.12    0.27
  -7 -12   1    0.47    0.31
   7  12  -2    1.35    0.30
   7  12  -2    0.28    0.37
   7 -12   2    0.55    0.37
  -7 -12   2    0.62    0.40
   7  12  -3    9.47    0.55
   7  12  -3   10.67    0.79
   7 -12   3   10.45    0.78
  -7 -12   3    9.89    0.73
   7  12  -4    0.11    0.39
   7 -12   4    0.36    0.35
   7  12  -4    0.06    0.26
  -7 -12   4   -0.05    0.35
   7  12  -5    0.34    0.38
   7 -12   5   -0.04    0.35
  -7 -12   5    0.22    0.36
   7 -12   6    0.78    0.39
   7  12  -6    1.14    0.38
  -7 -12   6    1.06    0.39
   7  12  -7    1.00    0.39
   7 -12   7    1.05    0.41
  -7 -12   7    1.07    0.40
   7  12  -8    2.75    0.45
   7 -12   8    2.38    0.48
  -7 -12   8    2.62    0.47
   7 -12   9    0.59    0.37
   7  12  -9   -0.35    0.35
  -7 -12   9   -0.52    0.39
   7  12 -10   -0.32    0.41
   7 -12  10    0.08    0.40
  -7 -12  10    0.19    0.43
   7 -12  11    0.21    0.44
   7  12 -11    0.60    0.44
  -7 -12  11    0.09    0.49
   7  12 -12   -0.46    0.48
   7 -12  12   -0.59    0.46
  -7 -12  12   -0.09    0.51
   8  12  10    1.59    0.56
  -8  12  10    2.21    0.56
  -8  12  10    1.81    0.67
   8  12   9    0.19    0.48
  -8  12   9    0.03    0.53
   8  12   8    0.90    0.50
  -8  12   8   -0.04    0.48
   8  12   7   -0.05    0.40
  -8  12   7    1.35    0.51
   8 -12  -6    0.67    0.59
   8 -12  -6    0.16    0.58
   8  12   6    0.68    0.44
  -8  12   6    0.63    0.45
   8 -12  -5    0.30    0.57
   8  12   5    0.02    0.44
   8 -12  -5    0.53    0.56
   8  12   4    0.50    0.40
   8 -12  -4   -0.10    0.49
   8 -12  -4    0.53    0.50
   8 -12  -3    0.21    0.49
   8 -12  -3    0.98    0.55
   8  12   3    0.18    0.42
   8  12   2    4.71    0.55
   8 -12  -2    3.38    0.60
   8  12   2    4.14    0.50
   8  12   2    3.83    0.51
   8 -12  -2    3.45    0.56
   8  12   2    4.58    0.65
   8  12   1    0.53    0.51
   8 -12  -1    0.70    0.51
   8  12   1    0.94    0.42
   8  12   1    0.58    0.50
   8  12   1    0.11    0.49
   8 -12   0    5.74    0.81
   8  12   0    4.73    0.69
   8  12   0    5.18    0.72
  -8 -12   0    6.70    0.83
   8 -12   1    1.26    0.47
   8  12  -1    0.32    0.50
   8  12  -1    0.22    0.46
  -8 -12   1    0.34    0.41
   8  12  -2    4.71    0.59
   8  12  -2    4.90    0.72
   8 -12   2    4.11    0.58
  -8 -12   2    5.61    0.73
   8  12  -3    0.05    0.43
   8 -12   3   -0.24    0.44
   8  12  -3    0.43    0.35
  -8 -12   3    0.29    0.42
   8 -12   4    0.21    0.44
   8  12  -4    0.69    0.53
   8  12  -4   -0.18    0.41
  -8 -12   4    0.03    0.42
   8  12  -5    0.82    0.46
   8 -12   5   -0.68    0.44
  -8 -12   5    0.14    0.42
   8  12  -6    0.86    0.44
   8 -12   6    0.86    0.49
  -8 -12   6    1.09    0.50
   8  12  -7    0.35    0.40
   8 -12   7    0.64    0.47
  -8 -12   7    1.59    0.51
   8  12  -8    0.73    0.41
   8 -12   8    1.79    0.52
  -8 -12   8    0.15    0.51
   8 -12   9   -0.24    0.49
   8  12  -9   -0.09    0.41
  -8 -12   9    0.37    0.55
   8 -12  10    0.76    0.52
   8  12 -10    2.10    0.55
  -8 -12  10    2.65    0.64
   9  12   7    1.38    0.52
   9 -12  -7    1.40    0.78
   9 -12  -7   -0.04    0.72
   9  12   6   -0.76    0.51
   9 -12  -6    0.37    0.72
   9 -12  -6    0.51    0.72
   9 -12  -5    0.12    0.73
   9 -12  -5   -0.39    0.73
   9  12   5   -0.01    0.47
   9  12   4   -0.35    0.49
   9 -12  -4   -0.33    0.65
   9 -12  -4   -0.07    0.69
   9  12   3    0.66    0.60
   9  12   3    0.10    0.48
   9 -12  -3    0.56    0.63
   9 -12  -3    0.26    0.64
   9  12   2    0.71    0.48
   9 -12  -2    0.50    0.62
   9  12   2    0.42    0.57
   9 -12  -2   -0.21    0.58
   9 -12  -1    1.39    0.60
   9  12   1    0.81    0.56
   9  12   1    0.55    0.47
   9  12   0   -0.17    0.46
   9 -12   0   -0.46    0.56
   9  12   0   -0.18    0.55
   9  12   0    0.04    0.57
   9  12   0   -0.52    0.60
   9 -12   1   -0.11    0.58
   9  12  -1    1.39    0.51
   9  12  -1    0.39    0.55
  -9 -12   1    0.73    0.49
   9  12  -2    0.98    0.52
   9  12  -2   -0.01    0.48
   9 -12   2    1.31    0.61
  -9 -12   2    0.16    0.51
   9 -12   3   -0.16    0.56
   9  12  -3    0.66    0.49
  -9 -12   3    0.40    0.51
   9  12  -4    0.00    0.48
   9 -12   4   -0.23    0.60
  -9 -12   4    0.73    0.55
   9  12  -5   -0.35    0.50
   9 -12   5   -0.39    0.59
  -9 -12   5    0.31    0.59
   9 -12   6   -0.26    0.61
   9  12  -6   -0.14    0.45
  -9 -12   6    0.46    0.60
   9  12  -7    1.11    0.50
   9 -12   7    2.12    0.63
  -9 -12   7    2.03    0.66
   0  13  18   -0.20    0.37
   0  13  17   -0.04    0.33
   0  13  16   -0.49    0.46
   0  13  16   -0.09    0.30
   0  13  15    0.40    0.41
   0  13  15    0.13    0.25
   0  13  14   -0.31    0.23
   0  13  14   -0.53    0.38
   0  13  13    0.25    0.22
   0  13  13   -0.19    0.27
   0  13  12    0.21    0.19
   0  13  12   -0.19    0.22
   0  13  11    0.16    0.18
   0  13  11    0.08    0.22
   0  13  10   -0.31    0.17
   0  13  10   -0.10    0.19
   0  13   9   -0.04    0.16
   0  13   9   -0.07    0.19
   0  13   8   -0.04    0.14
   0  13   8   -0.04    0.15
   0  13   7   -0.31    0.13
   0  13   7   -0.04    0.13
   0 -13  -6   -0.33    0.13
   0  13   6    0.05    0.13
   0  13   5    0.06    0.11
   0 -13  -5    0.12    0.16
   0 -13  -5    0.05    0.14
   0 -13  -5    0.30    0.16
   0  13   4    0.18    0.11
   0 -13  -4   -0.20    0.13
   0 -13  -4   -0.15    0.13
   0  13   4   -0.25    0.20
   0 -13  -3    0.06    0.13
   0 -13  -3   -0.03    0.14
   0  13   3   -0.10    0.10
   0  13   3    0.26    0.19
   0  13   2    0.39    0.18
   0  13   2    0.18    0.11
   0 -13  -2    0.01    0.15
   0 -13  -2    0.07    0.11
   0 -13  -1   -0.06    0.10
   0  13   1   -0.07    0.19
   0  13   1    0.09    0.15
   0  13   1   -0.01    0.19
   0  13   1    0.03    0.11
   0  13   0    0.57    0.12
   0  13   0    0.34    0.16
   0 -13   0    0.42    0.11
   0 -13   1    0.07    0.10
   0  13  -1    0.09    0.11
   0  13  -1   -0.05    0.15
   0  13  -2    0.07    0.14
   0 -13   2    0.02    0.09
   0  13  -2    0.12    0.11
   0 -13   3    0.29    0.11
   0  13  -3    0.14    0.12
   0  13  -3    0.20    0.15
   0  13  -4   -0.05    0.13
   0  13  -4    0.00    0.14
   0 -13   4    0.14    0.10
   0  13  -5    0.25    0.13
   0 -13   5    0.15    0.12
   0  13  -5   -0.22    0.16
   0 -13   6    0.05    0.12
   0  13  -6    0.10    0.18
   0  13  -7   -0.03    0.19
   0 -13   7    0.19    0.17
   0  13  -8   -0.08    0.19
   0 -13   8    0.14    0.14
   0  13  -9   -0.09    0.23
   0 -13   9   -0.08    0.14
   0  13 -10   -0.20    0.23
   0 -13  10    0.16    0.15
   0 -13  11    0.03    0.26
   0 -13  11    0.06    0.17
   0 -13  12   -0.06    0.19
   0 -13  12   -0.37    0.24
   0 -13  13   -0.46    0.20
   0 -13  13    0.48    0.25
   0 -13  14    0.16    0.24
   0 -13  15    0.12    0.27
   0 -13  16    0.75    0.32
   0 -13  17    0.53    0.41
   0 -13  18    0.21    0.46
   1  13  17   -0.15    0.33
  -1  13  17    0.12    0.34
  -1  13  17    0.27    0.54
   1  13  16    4.52    0.50
  -1  13  16    4.74    0.51
  -1  13  16    5.25    0.77
   1  13  15    0.18    0.25
  -1  13  15    0.28    0.39
  -1  13  15    0.53    0.26
   1  13  14    0.47    0.24
   1  13  14    0.65    0.30
  -1  13  14    0.41    0.36
  -1  13  14    0.30    0.25
   1  13  13    3.04    0.35
   1  13  13    3.43    0.42
  -1  13  13    3.07    0.38
  -1  13  13    2.51    0.46
   1  13  12    0.39    0.23
   1  13  12    0.68    0.20
  -1  13  12    1.06    0.32
  -1  13  12    0.57    0.20
   1  13  11    1.60    0.24
   1  13  11    1.36    0.22
  -1  13  11    1.45    0.23
  -1  13  11    2.06    0.28
   1  13  10    0.30    0.17
   1  13  10    0.00    0.17
  -1  13  10    0.24    0.17
  -1  13  10    0.02    0.20
   1  13   9    4.50    0.28
   1  13   9    5.00    0.37
  -1 -13  -9    3.89    0.22
  -1  13   9    3.98    0.37
  -1  13   9    4.73    0.38
   1  13   8    1.49    0.23
   1  13   8    1.57    0.21
  -1  13   8    1.35    0.22
  -1  13   8    1.43    0.21
  -1 -13  -8    1.24    0.15
   1  13   7    0.94    0.18
  -1 -13  -7    1.27    0.12
  -1  13   7    1.09    0.20
  -1  13   7    1.37    0.21
   1  13   6    1.40    0.21
  -1 -13  -6    1.28    0.11
  -1  13   6    1.55    0.23
  -1 -13  -6    1.22    0.15
  -1  13   6    1.36    0.19
   1 -13  -5    5.84    0.39
   1 -13  -5    5.23    0.38
  -1  13   5    4.37    0.29
  -1  13   5    3.82    0.38
   1 -13  -4    0.71    0.18
   1  13   4    0.62    0.13
   1 -13  -4    0.72    0.19
  -1  13   4    0.94    0.20
  -1  13   4    0.60    0.14
   1 -13  -3    0.31    0.16
   1  13   3    0.21    0.11
   1  13   3    0.08    0.20
  -1  13   3   -0.01    0.15
  -1  13   3   -0.06    0.12
  -1 -13  -3    0.02    0.06
  -1 -13  -3    0.15    0.09
   1 -13  -2    7.47    0.39
   1  13   2    7.71    0.33
   1  13   2    7.21    0.47
  -1 -13  -2    7.87    0.31
  -1  13   2    8.41    0.38
  -1 -13  -2    7.54    0.26
  -1  13   2    8.39    0.41
   1 -13  -1    5.85    0.34
   1  13   1    5.65    0.40
   1  13   1    5.93    0.30
   1  13   1    5.67    0.28
   1  13   1    5.63    0.29
  -1  13   1    5.77    0.34
  -1  13   1    5.63    0.31
  -1 -13  -1    5.78    0.22
   1  13   0    4.38    0.29
   1  13   0    3.95    0.23
   1  13   0    4.43    0.36
   1 -13   0    4.67    0.30
  -1  13   0    3.85    0.27
  -1 -13   0    4.34    0.20
  -1  13   0    4.30    0.30
   1  13  -1    5.63    0.27
   1 -13   1    5.62    0.33
   1  13  -1    5.46    0.40
  -1 -13   1    5.73    0.25
  -1  13  -1    5.60    0.33
  -1  13  -1    5.95    0.34
   1  13  -2    7.90    0.32
   1 -13   2    8.34    0.38
   1  13  -2    8.03    0.44
  -1  13  -2    7.82    0.38
  -1  13  -2    7.42    0.38
  -1 -13   2    7.47    0.30
   1  13  -3    0.02    0.18
   1 -13   3    0.37    0.13
   1  13  -3    0.12    0.11
  -1  13  -3    0.04    0.13
  -1 -13   3   -0.03    0.08
  -1  13  -3   -0.03    0.13
   1  13  -4    0.64    0.20
   1 -13   4    0.80    0.15
  -1 -13   4    0.53    0.12
  -1  13  -4    0.57    0.17
  -1  13  -4    0.58    0.15
   1  13  -5    4.89    0.26
   1 -13   5    4.98    0.31
   1  13  -5    4.62    0.34
  -1 -13   5    4.43    0.26
  -1  13  -5    4.90    0.33
   1  13  -6    1.57    0.25
   1 -13   6    1.77    0.27
  -1 -13   6    1.69    0.21
  -1  13  -6    1.48    0.22
   1  13  -7    1.06    0.23
   1 -13   7    0.87    0.16
  -1  13  -7    1.52    0.24
  -1 -13   7    1.37    0.20
   1  13  -8    1.27    0.24
   1 -13   8    1.66    0.23
  -1 -13   8    1.60    0.22
   1 -13   9    4.64    0.32
   1  13  -9    3.77    0.39
  -1 -13   9    4.27    0.29
  -1 -13   9    4.84    0.33
   1 -13  10   -0.05    0.15
   1  13 -10   -0.24    0.21
  -1 -13  10   -0.09    0.16
   1 -13  11    1.40    0.23
  -1 -13  11    1.15    0.23
   1 -13  12    0.43    0.33
   1 -13  12    0.27    0.19
  -1 -13  12    0.49    0.21
   1 -13  13    2.86    0.38
   1 -13  13    3.03    0.41
  -1 -13  13    2.66    0.36
   1 -13  14   -0.11    0.33
   1 -13  14    0.31    0.24
  -1 -13  14    0.19    0.27
   1 -13  15   -0.05    0.27
  -1 -13  15    0.01    0.30
   1 -13  16    3.64    0.54
  -1 -13  16    4.62    0.59
   1 -13  17   -0.52    0.38
  -1 -13  17    0.63    0.46
   1 -13  18    0.03    0.42
  -1 -13  18    0.46    0.48
   2  13  17    2.17    0.40
  -2  13  17    1.99    0.43
  -2  13  17    2.31    0.61
   2  13  16    1.43    0.35
  -2  13  16    1.01    0.33
  -2  13  16    0.33    0.47
   2  13  15    0.76    0.32
  -2  13  15    0.31    0.41
  -2  13  15    0.61    0.30
   2  13  14    0.99    0.29
  -2  13  14    0.66    0.27
  -2  13  14    0.54    0.36
   2  13  13    0.72    0.24
  -2  13  13    0.85    0.34
  -2  13  13    1.27    0.27
   2  13  12    2.66    0.36
   2  13  12    2.18    0.29
  -2  13  12    1.54    0.36
  -2  13  12    1.76    0.27
   2  13  11   20.89    0.82
   2  13  11   22.19    0.69
  -2  13  11   21.64    0.97
  -2  13  11   21.02    0.82
   2  13  10   50.76    1.55
   2  13  10   51.25    1.36
  -2  13  10   51.88    1.61
  -2  13  10   49.35    1.54
   2  13   9    2.11    0.31
  -2  13   9    1.54    0.27
  -2  13   9    1.25    0.26
   2  13   8   30.33    1.03
  -2  13   8   30.51    1.04
  -2  13   8   31.11    1.04
   2  13   7    4.28    0.32
  -2  13   7    3.34    0.39
  -2  13   7    3.79    0.35
  -2  13   7    3.26    0.33
   2  13   6    1.28    0.20
  -2  13   6    1.99    0.29
  -2  13   6    1.58    0.22
  -2  13   6    1.99    0.25
   2  13   5   11.19    0.47
  -2  13   5   12.07    0.51
  -2  13   5   11.04    0.46
  -2  13   5   10.26    0.49
   2 -13  -4    0.00    0.20
   2 -13  -4   -0.11    0.19
   2  13   4   -0.02    0.13
  -2  13   4    0.16    0.13
  -2  13   4    0.31    0.16
   2 -13  -3   10.83    0.55
   2 -13  -3   10.51    0.55
   2  13   3   11.33    0.44
  -2  13   3   10.94    0.49
  -2  13   3   10.94    0.43
   2 -13  -2   17.46    0.71
   2  13   2   17.60    0.58
   2  13   2   17.38    0.77
  -2  13   2   17.23    0.65
  -2  13   2   17.81    0.59
   2 -13  -1    0.94    0.19
   2  13   1    0.96    0.25
   2  13   1    1.00    0.14
   2  13   1    0.84    0.11
  -2  13   1    1.18    0.16
  -2  13   1    0.91    0.17
  -2 -13  -1    0.93    0.10
   2 -13   0   -0.07    0.16
   2  13   0    0.08    0.21
   2  13   0   -0.17    0.11
   2  13   0   -0.11    0.10
  -2  13   0    0.13    0.13
  -2 -13   0    0.05    0.08
  -2  13   0   -0.05    0.14
   2  13  -1    1.25    0.25
   2 -13   1    0.91    0.19
   2  13  -1    1.00    0.13
   2  13  -1    0.55    0.25
  -2 -13   1    1.17    0.15
  -2  13  -1    1.01    0.16
  -2  13  -1    0.66    0.17
   2  13  -2   17.42    0.53
   2 -13   2   17.30    0.67
   2  13  -2   16.83    0.72
  -2 -13   2   17.01    0.54
  -2  13  -2   17.98    0.61
  -2  13  -2   16.11    0.64
   2  13  -3   11.10    0.37
   2 -13   3   10.89    0.51
   2  13  -3   10.26    0.54
  -2 -13   3   10.44    0.40
  -2  13  -3   10.90    0.47
  -2  13  -3   11.41    0.50
   2  13  -4    0.68    0.21
   2 -13   4   -0.03    0.15
   2  13  -4   -0.07    0.09
  -2  13  -4   -0.16    0.14
  -2 -13   4   -0.04    0.10
   2 -13   5   11.49    0.55
   2  13  -5   11.37    0.37
   2  13  -5   11.17    0.56
  -2 -13   5   11.68    0.46
   2  13  -6    1.88    0.28
   2 -13   6    1.39    0.20
  -2 -13   6    1.59    0.23
  -2 -13   6    1.70    0.19
   2 -13   7    3.99    0.31
   2  13  -7    3.51    0.37
  -2 -13   7    3.58    0.34
   2  13  -8   29.39    1.08
   2 -13   8   29.65    0.98
  -2 -13   8   29.82    0.98
   2 -13   9    2.28    0.28
   2  13  -9    1.32    0.28
  -2 -13   9    1.43    0.22
   2  13 -10   47.83    1.57
   2 -13  10   49.29    1.49
  -2 -13  10   50.41    1.51
   2 -13  11   20.81    0.78
   2  13 -11   18.97    0.83
  -2 -13  11   19.83    0.80
   2 -13  12    1.83    0.28
   2  13 -12    3.31    0.43
  -2 -13  12    2.83    0.40
   2 -13  13    0.81    0.24
   2  13 -13    0.92    0.32
   2 -13  13    0.42    0.42
  -2 -13  13    1.17    0.28
   2 -13  14    0.68    0.26
   2 -13  14    0.24    0.44
  -2 -13  14    1.17    0.31
   2 -13  15    0.24    0.44
   2 -13  15    0.65    0.31
  -2 -13  15    0.60    0.36
   2 -13  16    1.13    0.37
   2 -13  16    0.45    0.47
  -2 -13  16    0.28    0.36
   2 -13  17    2.03    0.45
  -2 -13  17    1.73    0.54
   3  13  17    0.84    0.39
  -3  13  17    1.27    0.49
  -3  13  17    1.42    0.61
   3  13  16    3.92    0.57
  -3  13  16    3.03    0.46
  -3  13  16    3.93    0.56
   3  13  15   -0.17    0.32
  -3  13  15   -0.34    0.31
  -3  13  15   -0.50    0.42
   3  13  14    1.78    0.34
  -3  13  14    1.67    0.35
  -3  13  14    1.56    0.43
   3  13  13    3.69    0.44
  -3  13  13    1.95    0.40
  -3  13  13    2.42    0.37
   3  13  12    1.28    0.30
  -3  13  12    1.49    0.35
  -3  13  12    1.33    0.28
   3  13  11    0.74    0.23
  -3  13  11   -0.13    0.22
  -3  13  11    0.15    0.29
   3  13  10   23.76    0.90
  -3  13  10   21.21    0.86
  -3  13  10   23.17    0.96
   3  13   9   10.40    0.55
  -3  13   9    9.91    0.66
  -3  13   9    9.11    0.43
  -3  13   9    9.71    0.53
   3  13   8    0.35    0.20
  -3  13   8    0.26    0.31
  -3  13   8   -0.13    0.21
  -3  13   8    0.31    0.15
   3  13   7    0.16    0.22
  -3  13   7    0.40    0.23
  -3  13   7    0.82    0.29
   3  13   6    4.20    0.35
  -3  13   6    4.49    0.38
  -3  13   6    4.18    0.44
   3  13   5    0.87    0.19
  -3  13   5    0.86    0.22
  -3  13   5    0.83    0.21
  -3  13   5    0.87    0.11
   3 -13  -4   11.33    0.63
   3 -13  -4   10.98    0.62
   3  13   4   10.44    0.47
  -3  13   4   10.07    0.34
  -3  13   4    9.95    0.51
   3 -13  -3    1.14    0.27
   3  13   3    1.58    0.22
   3 -13  -3    1.25    0.28
  -3  13   3    1.37    0.17
  -3  13   3    1.53    0.23
   3  13   2    7.98    0.38
   3 -13  -2    8.65    0.51
   3 -13  -2    8.58    0.53
   3  13   2    8.44    0.58
  -3  13   2    8.57    0.45
  -3  13   2    7.25    0.32
   3 -13  -1   10.05    0.55
   3  13   1    9.86    0.32
   3  13   1    9.84    0.61
   3  13   1    9.37    0.40
  -3  13   1    9.32    0.48
  -3 -13  -1    9.61    0.34
   3  13   0    0.73    0.28
   3  13   0    0.80    0.14
   3 -13   0    0.90    0.23
   3  13   0    0.76    0.11
  -3  13   0    0.86    0.19
  -3 -13   0    0.81    0.13
   3 -13   1    9.41    0.52
   3  13  -1    8.73    0.57
   3  13  -1    9.32    0.36
  -3  13  -1    9.07    0.47
  -3 -13   1    9.17    0.37
   3  13  -2    8.21    0.32
   3 -13   2    8.32    0.51
   3  13  -2    8.45    0.54
  -3  13  -2    8.34    0.45
  -3 -13   2    8.54    0.36
   3  13  -3    1.18    0.25
   3 -13   3    1.30    0.29
   3  13  -3    1.43    0.15
  -3 -13   3    1.21    0.17
   3  13  -4   10.63    0.57
   3  13  -4    8.84    0.32
   3 -13   4   10.25    0.53
  -3 -13   4    9.26    0.42
   3  13  -5    1.22    0.13
   3 -13   5    0.80    0.20
   3  13  -5    1.20    0.27
  -3 -13   5    0.92    0.18
   3 -13   6    4.56    0.36
   3  13  -6    4.06    0.43
  -3 -13   6    4.20    0.35
   3  13  -7    0.33    0.27
   3 -13   7    0.16    0.18
  -3 -13   7    0.23    0.23
   3 -13   8   -0.01    0.18
   3  13  -8    0.46    0.27
  -3 -13   8    0.28    0.20
   3  13  -9    8.74    0.57
   3 -13   9    9.82    0.51
  -3 -13   9   10.12    0.53
   3 -13  10   21.78    0.83
   3  13 -10   20.84    0.90
  -3 -13  10   22.46    0.87
   3  13 -11   -0.50    0.26
   3 -13  11   -0.27    0.20
  -3 -13  11    0.17    0.23
   3  13 -12    1.62    0.32
   3 -13  12    1.75    0.30
  -3 -13  12    1.55    0.32
   3 -13  13    1.97    0.57
   3 -13  13    2.27    0.34
   3  13 -13    2.20    0.39
  -3 -13  13    2.87    0.40
   3 -13  14    1.92    0.33
   3 -13  14    1.01    0.62
   3  13 -14    2.15    0.42
  -3 -13  14    1.53    0.38
   3 -13  15    0.61    0.66
   3 -13  15   -0.14    0.29
  -3 -13  15    0.62    0.39
   3 -13  16    2.05    0.68
  -3 -13  16    2.42    0.51
   3 -13  17    1.35    0.44
   3 -13  17    1.22    0.68
  -3 -13  17   -0.05    0.51
   4  13  16    0.39    0.42
  -4  13  16    0.26    0.44
  -4  13  16    0.38    0.55
   4  13  15   -0.44    0.36
  -4  13  15    0.30    0.40
  -4  13  15    0.57    0.50
   4  13  14   -0.23    0.33
  -4  13  14   -0.21    0.33
  -4  13  14   -0.05    0.42
   4  13  13    0.21    0.31
  -4  13  13   -0.07    0.37
  -4  13  13    0.90    0.32
   4  13  12   -0.08    0.29
  -4  13  12    0.08    0.27
  -4  13  12   -0.24    0.35
   4  13  11   -0.22    0.27
  -4  13  11    0.51    0.28
  -4  13  11   -0.13    0.34
   4  13  10    1.24    0.29
  -4  13  10    1.51    0.31
  -4  13  10    1.34    0.36
   4  13   9    4.84    0.45
  -4  13   9    4.07    0.44
  -4  13   9    4.83    0.51
   4  13   8    9.35    0.56
  -4  13   8    8.49    0.53
  -4  13   8   10.29    0.66
   4  13   7    5.42    0.46
  -4  13   7    4.34    0.41
  -4  13   7    4.04    0.49
   4  13   6    2.87    0.42
  -4  13   6    3.05    0.42
  -4  13   6    2.84    0.36
   4  13   5    3.22    0.35
  -4  13   5    3.44    0.43
  -4  13   5    3.01    0.44
   4 -13  -4    0.60    0.37
   4 -13  -4    1.22    0.37
   4  13   4    1.27    0.22
  -4  13   4    1.11    0.26
   4 -13  -3    1.63    0.41
   4  13   3    1.99    0.29
   4 -13  -3    2.31    0.43
  -4  13   3    1.86    0.29
   4 -13  -2    8.10    0.66
   4  13   2   10.20    0.67
   4  13   2    9.31    0.28
   4  13   2    9.03    0.44
   4 -13  -2    8.36    0.67
  -4 -13  -2    9.38    0.33
  -4  13   2    9.17    0.52
   4 -13  -1    0.28    0.30
   4  13   1   -0.16    0.15
   4  13   1    0.12    0.28
   4  13   1    0.04    0.10
  -4  13   1    0.06    0.20
  -4 -13  -1    0.23    0.14
   4 -13   0   -0.15    0.26
   4  13   0   -0.46    0.23
   4  13   0    0.14    0.15
   4  13   0   -0.31    0.14
  -4  13   0    0.24    0.21
  -4 -13   0    0.00    0.14
   4  13  -1   -0.23    0.26
   4 -13   1   -0.11    0.21
   4  13  -1    0.16    0.14
  -4 -13   1   -0.12    0.14
  -4  13  -1    0.13    0.19
   4 -13   2    8.86    0.52
   4  13  -2    9.82    0.61
   4  13  -2    9.00    0.36
  -4 -13   2    8.95    0.43
   4  13  -3    2.27    0.18
   4  13  -3    2.32    0.35
   4 -13   3    1.75    0.25
  -4 -13   3    1.99    0.23
   4  13  -4    1.50    0.33
   4  13  -4    1.08    0.12
   4 -13   4    1.10    0.25
  -4 -13   4    1.18    0.20
   4 -13   5    3.47    0.37
   4  13  -5    2.79    0.17
   4  13  -5    4.21    0.49
  -4 -13   5    3.66    0.34
   4 -13   6    3.66    0.36
   4  13  -6    2.85    0.42
  -4 -13   6    2.41    0.33
   4 -13   7    4.33    0.40
   4  13  -7    4.31    0.50
  -4 -13   7    4.60    0.44
   4  13  -8    8.17    0.57
   4 -13   8    8.53    0.50
  -4 -13   8    9.10    0.52
   4 -13   9    4.52    0.42
   4  13  -9    4.68    0.48
  -4 -13   9    4.81    0.43
   4  13 -10    1.50    0.33
   4 -13  10    1.10    0.28
  -4 -13  10    1.50    0.30
   4 -13  11    0.32    0.25
   4  13 -11    0.09    0.32
  -4 -13  11    0.41    0.28
   4 -13  12   -0.30    0.25
   4  13 -12   -0.39    0.34
  -4 -13  12   -0.01    0.31
   4 -13  13   -0.08    0.27
   4  13 -13    0.84    0.40
  -4 -13  13    0.24    0.32
   4  13 -14    0.59    0.40
   4 -13  14    0.31    0.29
   4 -13  14   -0.31    0.59
  -4 -13  14    0.59    0.38
   4  13 -15    0.38    0.45
   4 -13  15   -0.10    0.67
   4 -13  15    0.77    0.37
  -4 -13  15    0.20    0.42
   4 -13  16    0.77    0.72
   4 -13  16   -0.05    0.36
  -4 -13  16   -0.90    0.50
  -5  13  15    0.11    0.48
  -5  13  15   -0.32    0.55
   5  13  14    1.55    0.43
  -5  13  14    0.66    0.46
  -5  13  14    0.85    0.53
   5  13  13    0.91    0.42
  -5  13  13    0.43    0.41
  -5  13  13    0.67    0.37
   5  13  12    3.32    0.48
  -5  13  12    2.95    0.45
  -5  13  12    3.34    0.52
   5  13  11    0.49    0.34
  -5  13  11    0.13    0.36
  -5  13  11    0.24    0.32
   5  13  10    1.33    0.35
  -5  13  10    1.20    0.38
  -5  13  10    1.63    0.36
   5  13   9    0.48    0.31
  -5  13   9    1.50    0.35
  -5  13   9    0.75    0.30
   5  13   8    3.82    0.47
  -5  13   8    3.50    0.49
  -5  13   8    4.23    0.58
   5  13   7    1.39    0.32
  -5  13   7    0.60    0.31
  -5  13   7    0.74    0.28
   5  13   6    0.27    0.29
  -5  13   6    0.40    0.24
  -5  13   6    0.02    0.28
   5  13   5    8.35    0.63
  -5  13   5    7.81    0.57
  -5  13   5    7.25    0.52
   5 -13  -4   29.19    1.23
   5 -13  -4   29.57    1.24
   5  13   4   29.82    1.07
  -5  13   4   28.75    1.09
   5 -13  -3   13.44    0.80
   5 -13  -3   12.66    0.78
   5  13   3   12.99    0.63
   5  13   3   13.02    0.44
   5  13   3   13.64    0.46
  -5  13   3   12.74    0.68
   5  13   2    0.12    0.37
   5  13   2    0.14    0.18
   5 -13  -2    0.40    0.31
   5  13   2   -0.26    0.16
   5  13   2    0.18    0.21
   5  13   2    0.26    0.15
   5 -13  -2    0.19    0.29
  -5  13   2    0.03    0.28
   5 -13  -1    7.57    0.60
   5  13   1    7.81    0.69
   5  13   1    8.48    0.46
  -5  13   1    7.70    0.56
  -5 -13  -1    8.53    0.40
   5  13   0    2.18    0.47
   5  13   0    1.86    0.25
   5 -13   0    1.29    0.31
  -5 -13   0    2.01    0.30
  -5  13   0    2.62    0.38
   5 -13   1    8.69    0.59
   5  13  -1    8.72    0.44
   5  13  -1    7.52    0.70
  -5 -13   1    9.41    0.47
   5 -13   2    0.32    0.24
   5  13  -2    0.09    0.16
   5  13  -2    0.39    0.32
  -5 -13   2   -0.29    0.19
   5  13  -3   11.59    0.77
   5  13  -3   13.09    0.48
   5 -13   3   12.21    0.67
  -5 -13   3   12.27    0.58
   5  13  -4   29.77    0.85
   5 -13   4   27.74    1.09
   5  13  -4   29.90    1.21
  -5 -13   4   30.76    1.04
   5  13  -5    8.16    0.63
   5  13  -5    8.11    0.30
   5 -13   5    7.94    0.55
  -5 -13   5    8.12    0.61
   5  13  -6    0.02    0.29
   5 -13   6    0.14    0.25
  -5 -13   6    0.54    0.26
   5 -13   7    1.14    0.28
   5  13  -7    1.29    0.33
  -5 -13   7    0.91    0.28
   5 -13   8    4.07    0.46
   5  13  -8    4.26    0.50
  -5 -13   8    3.40    0.50
   5 -13   9    0.99    0.31
   5  13  -9    1.19    0.35
  -5 -13   9    1.40    0.32
   5 -13  10    1.37    0.34
   5  13 -10    1.73    0.42
  -5 -13  10    1.42    0.37
   5  13 -11    0.77    0.39
   5 -13  11   -0.23    0.31
  -5 -13  11    0.41    0.34
   5  13 -12    2.85    0.48
   5 -13  12    2.69    0.38
  -5 -13  12    3.37    0.46
   5 -13  13    0.77    0.34
   5  13 -13    0.76    0.43
  -5 -13  13   -0.19    0.42
   5 -13  14    0.79    0.67
   5  13 -14   -0.18    0.41
   5 -13  14    0.28    0.35
  -5 -13  14    0.77    0.43
   5 -13  15    0.30    0.41
   5  13 -15    0.15    0.49
   5 -13  15   -0.35    0.72
  -5 -13  15    0.15    0.54
   6  13  14    1.92    0.56
  -6  13  14    2.74    0.60
  -6  13  14    1.76    0.65
   6  13  13    0.27    0.43
  -6  13  13    0.30    0.51
  -6  13  13   -0.06    0.48
   6  13  12    0.06    0.41
  -6  13  12    0.00    0.46
  -6  13  12    0.10    0.39
   6  13  11    1.39    0.45
  -6  13  11    2.03    0.43
  -6  13  11    1.85    0.45
   6  13  10    0.15    0.38
  -6  13  10    0.25    0.37
  -6  13  10    0.02    0.41
   6  13   9    1.23    0.38
  -6  13   9    0.94    0.34
  -6  13   9    0.49    0.41
   6  13   8    0.08    0.33
  -6  13   8   -0.59    0.33
  -6  13   8    0.13    0.32
   6  13   7    2.10    0.41
  -6  13   7    1.81    0.36
  -6  13   7    1.44    0.39
   6  13   6    4.46    0.55
  -6  13   6    2.56    0.40
  -6  13   6    2.68    0.40
   6  13   5    0.77    0.32
   6 -13  -5    1.27    0.42
   6 -13  -5   -0.04    0.40
  -6  13   5    0.97    0.30
   6  13   4    0.25    0.25
   6 -13  -4    0.43    0.36
   6 -13  -4    0.32    0.39
   6  13   4    0.65    0.37
  -6  13   4    1.10    0.31
   6 -13  -3   10.38    0.78
   6  13   3   10.92    0.72
   6 -13  -3    9.02    0.76
   6  13   3   10.39    0.48
  -6  13   3    9.50    0.61
   6  13   2    2.53    0.30
   6  13   2    2.25    0.41
   6  13   2    3.05    0.40
   6 -13  -2    1.81    0.42
   6  13   2    2.40    0.36
   6 -13  -2    2.54    0.44
  -6  13   2    2.87    0.39
   6  13   1    0.64    0.37
   6 -13  -1    1.17    0.37
   6  13   1    0.31    0.26
  -6 -13  -1    0.68    0.23
   6  13   0   -0.16    0.35
   6  13   0    1.05    0.26
   6 -13   0   -0.09    0.34
  -6 -13   0    0.32    0.22
   6  13  -1    0.69    0.37
   6  13  -1    0.84    0.24
   6 -13   1    0.66    0.32
  -6 -13   1    0.19    0.22
   6 -13   2    3.33    0.49
   6  13  -2    2.64    0.29
   6  13  -2    2.07    0.42
  -6 -13   2    2.69    0.34
   6  13  -3    9.91    0.48
   6 -13   3    9.38    0.66
   6  13  -3    9.40    0.71
  -6 -13   3   10.74    0.65
   6  13  -4    0.52    0.19
   6 -13   4    0.70    0.29
   6  13  -4    0.41    0.36
  -6 -13   4    0.67    0.41
   6 -13   5    0.84    0.32
   6  13  -5    0.23    0.35
   6  13  -5    0.72    0.19
  -6 -13   5    0.66    0.32
   6  13  -6    2.22    0.38
   6 -13   6    2.86    0.41
   6  13  -7    2.03    0.41
   6 -13   7    1.48    0.36
  -6 -13   7    2.03    0.39
   6  13  -8   -0.61    0.33
   6 -13   8    0.17    0.34
  -6 -13   8   -0.08    0.34
   6 -13   9    0.42    0.34
   6  13  -9    0.55    0.34
  -6 -13   9    0.83    0.39
   6  13 -10    0.09    0.41
   6 -13  10    0.19    0.34
  -6 -13  10   -0.04    0.38
   6 -13  11    1.21    0.39
   6  13 -11    1.86    0.45
  -6 -13  11    2.01    0.44
   6  13 -12   -0.15    0.46
   6 -13  12    0.62    0.38
  -6 -13  12   -0.21    0.42
   6 -13  13    0.68    0.43
   6  13 -13   -0.58    0.47
  -6 -13  13    0.06    0.48
   6 -13  14    1.80    0.48
   6 -13  14    2.85    0.75
   6  13 -14    2.50    0.54
  -6 -13  14    3.64    0.70
   7  13  12   -0.12    0.48
  -7  13  12   -0.13    0.53
  -7  13  12    1.02    0.56
   7  13  11    0.01    0.46
  -7  13  11    0.67    0.50
  -7  13  11    0.13    0.46
   7  13  10    0.45    0.46
  -7  13  10    0.57    0.47
  -7  13  10    0.86    0.46
   7  13   9    0.61    0.42
  -7  13   9    1.07    0.41
  -7  13   9    0.71    0.49
   7  13   8   -0.19    0.40
  -7  13   8   -0.32    0.42
  -7  13   8    0.12    0.38
   7  13   7    0.11    0.40
  -7  13   7    0.66    0.40
  -7  13   7    0.42    0.35
   7  13   6    1.41    0.40
   7 -13  -6    1.19    0.55
   7 -13  -6    1.87    0.56
  -7  13   6    0.69    0.38
  -7  13   6    0.99    0.41
   7 -13  -5    0.81    0.49
   7  13   5    0.15    0.34
   7 -13  -5    0.91    0.51
  -7  13   5    0.35    0.36
   7 -13  -4    2.34    0.51
   7  13   4    2.74    0.43
   7 -13  -4    2.32    0.54
   7 -13  -3    0.75    0.46
   7 -13  -3    0.65    0.47
   7  13   3    0.49    0.37
   7  13   2   -0.47    0.44
   7  13   2    0.16    0.30
   7  13   2    0.89    0.43
   7 -13  -2    0.36    0.42
   7  13   2   -0.07    0.29
   7 -13  -2    0.36    0.43
   7  13   1    0.22    0.40
   7  13   1   -0.07    0.40
   7 -13  -1   -0.25    0.40
  -7 -13  -1    0.17    0.26
   7  13   0   15.72    0.77
   7  13   0   13.83    0.92
   7 -13   0   14.21    0.91
  -7 -13   0   14.42    0.72
   7 -13   1   -0.32    0.37
   7  13  -1    0.56    0.40
   7  13  -1    0.35    0.28
  -7 -13   1    0.24    0.31
   7  13  -2    0.00    0.26
   7  13  -2    1.02    0.43
   7 -13   2    0.50    0.36
  -7 -13   2    0.25    0.38
   7  13  -3    0.37    0.27
   7  13  -3    0.59    0.40
   7 -13   3    0.34    0.35
  -7 -13   3    0.52    0.38
   7  13  -4    2.06    0.50
   7  13  -4    2.55    0.32
   7 -13   4    3.00    0.45
  -7 -13   4    2.80    0.46
   7  13  -5    0.45    0.41
   7 -13   5    0.44    0.39
  -7 -13   5    1.15    0.41
   7  13  -6    0.92    0.40
   7 -13   6    0.93    0.41
  -7 -13   6    1.20    0.41
   7  13  -7   -0.27    0.39
   7 -13   7    0.41    0.37
  -7 -13   7    0.50    0.40
   7 -13   8    0.03    0.39
   7  13  -8   -0.10    0.40
  -7 -13   8   -0.16    0.43
   7 -13   9    1.20    0.43
   7  13  -9    0.46    0.37
  -7 -13   9   -0.21    0.43
   7 -13  10    0.00    0.39
   7  13 -10    0.56    0.46
  -7 -13  10    0.89    0.50
   7  13 -11    0.80    0.49
   7 -13  11   -0.66    0.44
  -7 -13  11    0.58    0.52
   7 -13  12    0.01    0.48
   7  13 -12    0.42    0.48
  -7 -13  12   -0.69    0.52
   8  13  10   -0.65    0.52
  -8  13  10   -0.82    0.60
  -8  13  10   -0.59    0.51
   8  13   9   -0.05    0.48
  -8  13   9   -0.24    0.47
  -8  13   9   -0.36    0.57
   8  13   8    0.18    0.46
  -8  13   8   -0.16    0.50
   8 -13  -7    0.37    0.64
   8  13   7    0.46    0.45
   8 -13  -7    0.17    0.62
  -8  13   7    0.57    0.48
   8 -13  -6    0.13    0.57
   8 -13  -6    0.02    0.60
   8  13   6    1.09    0.43
   8 -13  -5    0.88    0.58
   8 -13  -5    0.35    0.55
   8  13   5    0.48    0.42
   8  13   4    0.19    0.43
   8 -13  -4   -0.07    0.57
   8 -13  -4   -0.86    0.52
   8 -13  -3    1.32    0.53
   8 -13  -3    0.81    0.54
   8  13   3    0.46    0.39
   8  13   2    3.06    0.61
   8 -13  -2    2.09    0.55
   8 -13  -2    2.31    0.56
   8  13   2    3.11    0.45
   8 -13  -1   -0.11    0.47
   8  13   1    0.74    0.53
   8  13   1    0.86    0.54
   8  13   1    0.17    0.55
   8  13   1   -0.03    0.37
   8  13   0   -0.08    0.48
   8  13   0   -0.27    0.40
   8 -13   0    0.17    0.47
  -8 -13   0   -0.21    0.42
   8  13  -1   -0.63    0.46
   8 -13   1    0.21    0.47
   8  13  -1    0.30    0.46
  -8 -13   1    0.67    0.43
   8  13  -2    1.94    0.52
   8 -13   2    3.01    0.57
   8  13  -2    3.25    0.43
  -8 -13   2    2.67    0.48
   8  13  -3    0.69    0.36
   8 -13   3    0.56    0.46
   8  13  -3    0.48    0.43
  -8 -13   3   -0.13    0.43
   8 -13   4    0.29    0.46
   8  13  -4   -0.03    0.43
  -8 -13   4   -0.36    0.46
   8 -13   5    0.31    0.46
   8  13  -5   -0.11    0.45
  -8 -13   5    0.37    0.50
   8  13  -6    0.40    0.45
   8 -13   6    0.22    0.48
  -8 -13   6   -0.17    0.48
   8  13  -7    0.44    0.42
   8 -13   7   -0.44    0.44
  -8 -13   7    0.55    0.51
   8 -13   8   -0.38    0.49
   8  13  -8    0.03    0.43
  -8 -13   8    0.46    0.53
   8  13  -9    0.79    0.44
   8 -13   9    0.46    0.53
  -8 -13   9    0.33    0.58
   8  13 -10   -0.06    0.54
   8 -13  10   -0.21    0.54
  -8 -13  10    0.06    0.65
   9  13   6    1.71    0.55
   9 -13  -6   -0.35    0.68
   9 -13  -6   -0.52    0.70
   9 -13  -5   -0.83    0.69
   9  13   5    1.17    0.50
   9 -13  -5   -0.58    0.72
   9 -13  -4    0.69    0.64
   9  13   4    0.09    0.47
   9 -13  -4   -0.06    0.65
   9 -13  -3    0.71    0.68
   9  13   3   -0.05    0.45
   9 -13  -3    1.13    0.65
   9  13   3    0.54    0.59
   9 -13  -2   -1.38    0.62
   9  13   2    0.50    0.60
   9  13   2   -0.37    0.46
   9 -13  -1    0.64    0.64
   9  13   1    0.41    0.45
   9  13   1   -0.61    0.60
   9  13   0    0.56    0.57
   9  13   0    0.49    0.48
   9 -13   0    1.44    0.64
   9  13  -1   -0.15    0.49
   9  13  -1   -0.41    0.53
   9 -13   1    0.63    0.58
  -9 -13   1    0.22    0.49
   9  13  -2    0.04    0.53
   9  13  -2   -1.28    0.53
   9 -13   2    0.05    0.63
  -9 -13   2   -0.45    0.51
   9 -13   3    1.25    0.62
   9  13  -3    0.37    0.51
  -9 -13   3    0.98    0.56
   9 -13   4   -0.34    0.61
   9  13  -4    0.86    0.54
  -9 -13   4    0.13    0.57
   9 -13   5    0.35    0.66
   9  13  -5    1.00    0.53
  -9 -13   5   -0.20    0.59
   9 -13   6    0.81    0.65
   9  13  -6    0.69    0.48
  -9 -13   6   -0.70    0.60
   0  14  17    2.13    0.41
   0  14  16   -0.54    0.30
   0  14  15    0.17    0.27
   0  14  15    0.58    0.49
   0  14  14    0.41    0.39
   0  14  14    0.07    0.24
   0  14  13    2.53    0.36
   0  14  13    1.99    0.33
   0  14  12    6.21    0.46
   0  14  12    5.84    0.41
   0  14  11    3.27    0.39
   0  14  11    3.46    0.33
   0  14  10   -0.09    0.20
   0  14  10    0.20    0.17
   0  14   9    6.63    0.41
   0  14   9    6.20    0.38
   0  14   8    4.50    0.34
   0  14   8    4.63    0.31
   0  14   7    0.41    0.17
   0  14   6    0.40    0.15
   0 -14  -6    0.51    0.19
   0 -14  -6    0.64    0.21
   0 -14  -6    0.49    0.15
   0  14   5   11.36    0.47
   0 -14  -5   10.37    0.42
   0  14   5   11.29    0.58
   0 -14  -5   11.51    0.47
   0  14   4    1.65    0.27
   0  14   4    1.57    0.21
   0 -14  -4    1.37    0.18
   0 -14  -4    1.56    0.19
   0 -14  -3   53.68    1.50
   0  14   3   55.76    1.55
   0  14   3   54.77    1.66
   0 -14  -3   56.98    1.51
   0  14   2    5.74    0.41
   0 -14  -2    5.36    0.29
   0  14   2    5.51    0.30
   0  14   1   23.07    0.76
   0 -14  -1   24.60    0.74
   0  14   1   24.43    0.85
   0 -14   0  128.94    3.30
   0  14   0  129.15    3.43
   0  14   0  126.47    3.33
   0 -14   1   23.68    0.72
   0  14  -1   23.31    0.82
   0  14  -1   22.81    0.74
   0  14  -2    6.12    0.38
   0 -14   2    5.63    0.29
   0  14  -3   55.27    1.53
   0 -14   3   55.11    1.52
   0  14  -3   55.07    1.63
   0  14  -4    1.52    0.22
   0  14  -4    1.87    0.26
   0 -14   4    1.84    0.19
   0  14  -5   10.73    0.53
   0  14  -5   11.15    0.45
   0 -14   5   11.32    0.45
   0  14  -6    0.59    0.20
   0 -14   6    0.70    0.17
   0  14  -7    0.86    0.23
   0 -14   7    0.95    0.19
   0  14  -8    4.42    0.42
   0 -14   8    4.75    0.32
   0  14  -9    6.68    0.46
   0 -14   9    5.78    0.36
   0  14 -10   -0.28    0.19
   0 -14  10    0.15    0.17
   0 -14  11    3.18    0.42
   0 -14  11    2.50    0.32
   0 -14  12    6.34    0.43
   0 -14  12    4.82    0.44
   0 -14  13    2.19    0.30
   0 -14  14    0.04    0.25
   0 -14  15   -0.31    0.28
   0 -14  16   -0.04    0.33
   0 -14  17    1.49    0.47
   1  14  17    0.07    0.35
  -1  14  17    0.68    0.38
  -1  14  17    1.11    0.85
   1  14  16    1.57    0.34
  -1  14  16    1.63    0.54
  -1  14  16    2.68    0.39
   1  14  15    0.73    0.30
  -1  14  15    0.33    0.42
  -1  14  15    0.88    0.30
   1  14  14    0.08    0.23
  -1  14  14    0.19    0.25
  -1  14  14    0.58    0.38
   1  14  13    0.36    0.23
   1  14  13    0.74    0.30
  -1  14  13    0.20    0.24
  -1  14  13    0.67    0.42
   1  14  12    2.48    0.30
   1  14  12    2.72    0.29
  -1  14  12    2.76    0.34
  -1  14  12    2.60    0.39
   1  14  11    0.06    0.17
   1  14  11   -0.02    0.20
  -1  14  11    0.06    0.19
  -1  14  11   -0.43    0.23
   1  14  10    2.08    0.26
   1  14  10    1.97    0.21
  -1  14  10    1.91    0.26
  -1  14  10    2.13    0.29
   1  14   9   -0.03    0.17
   1  14   9    0.16    0.15
  -1  14   9    0.45    0.18
  -1  14   9    0.26    0.19
  -1 -14  -9    0.16    0.10
   1  14   8    2.01    0.30
  -1  14   8    2.81    0.33
  -1  14   8    2.52    0.33
  -1 -14  -8    1.69    0.15
   1  14   7    0.33    0.16
  -1 -14  -7    0.25    0.08
  -1 -14  -7    0.18    0.15
  -1  14   7    0.25    0.16
  -1  14   7    0.35    0.18
   1  14   6    9.64    0.44
  -1  14   6   10.01    0.55
  -1  14   6    9.15    0.45
   1 -14  -5    0.38    0.21
   1 -14  -5    0.42    0.20
  -1  14   5    0.39    0.21
  -1  14   5    0.02    0.13
   1  14   4   -0.04    0.23
   1 -14  -4    0.06    0.18
   1  14   4   -0.11    0.12
  -1  14   4    0.01    0.19
  -1 -14  -4    0.10    0.09
  -1  14   4   -0.06    0.13
   1 -14  -3    2.67    0.30
   1  14   3    2.90    0.23
   1  14   3    3.10    0.38
  -1  14   3    3.05    0.26
  -1 -14  -3    3.18    0.16
  -1 -14  -3    2.99    0.20
  -1  14   3    3.24    0.31
   1  14   2   11.50    0.59
   1 -14  -2   11.96    0.51
   1  14   2   11.30    0.44
  -1 -14  -2   11.13    0.40
  -1  14   2   11.32    0.48
  -1 -14  -2   11.13    0.35
  -1  14   2   11.30    0.50
   1  14   1    6.26    0.30
   1 -14  -1    6.41    0.36
   1  14   1    5.47    0.32
   1  14   1    6.42    0.44
   1  14   1    5.78    0.32
  -1  14   1    6.23    0.34
  -1 -14  -1    6.46    0.24
  -1  14   1    6.48    0.37
   1 -14   0   -0.02    0.14
   1  14   0   -0.01    0.18
   1  14   0    0.24    0.17
   1  14   0    0.25    0.12
  -1 -14   0   -0.02    0.08
  -1  14   0    0.05    0.13
  -1  14   0   -0.12    0.16
   1  14  -1    6.77    0.31
   1 -14   1    6.87    0.37
   1  14  -1    6.33    0.43
  -1  14  -1    6.52    0.38
  -1  14  -1    6.14    0.35
  -1 -14   1    6.56    0.27
   1  14  -2   11.15    0.42
   1  14  -2   11.27    0.56
   1 -14   2   12.38    0.49
  -1  14  -2   11.05    0.48
  -1 -14   2   11.51    0.40
  -1  14  -2   11.15    0.50
   1  14  -3    2.26    0.29
   1  14  -3    2.76    0.22
   1 -14   3    2.82    0.26
  -1  14  -3    2.74    0.27
  -1  14  -3    3.25    0.28
  -1 -14   3    3.00    0.20
   1  14  -4   -0.21    0.18
   1  14  -4    0.07    0.12
   1 -14   4    0.26    0.14
  -1  14  -4    0.04    0.15
  -1 -14   4    0.13    0.10
  -1  14  -4   -0.11    0.16
   1  14  -5    0.04    0.13
   1  14  -5    0.26    0.20
   1 -14   5    0.04    0.14
  -1  14  -5    0.13    0.16
  -1 -14   5   -0.01    0.11
   1  14  -6    8.74    0.49
   1 -14   6    9.03    0.47
  -1 -14   6    9.64    0.41
  -1  14  -6    9.46    0.49
   1 -14   7    0.24    0.15
   1  14  -7    0.09    0.21
  -1  14  -7    0.23    0.21
  -1 -14   7    0.40    0.18
   1  14  -8    1.78    0.31
   1 -14   8    2.15    0.26
  -1  14  -8    2.42    0.37
  -1 -14   8    2.63    0.30
   1 -14   9    0.00    0.15
   1  14  -9   -0.03    0.21
  -1 -14   9    0.02    0.15
   1 -14  10    1.74    0.24
   1  14 -10    1.89    0.30
  -1 -14  10    1.87    0.25
   1  14 -11   -0.19    0.23
   1 -14  11   -0.33    0.17
  -1 -14  11    0.40    0.21
   1  14 -12    2.00    0.35
   1 -14  12    2.43    0.41
   1 -14  12    2.25    0.29
  -1 -14  12    2.68    0.38
   1 -14  13    0.22    0.24
   1 -14  13    0.85    0.35
  -1 -14  13    0.54    0.26
   1 -14  14    0.16    0.35
   1 -14  14    0.04    0.25
  -1 -14  14    0.00    0.28
   1 -14  15   -0.02    0.29
  -1 -14  15    0.01    0.31
   1 -14  16    2.47    0.41
  -1 -14  16    1.86    0.42
   1 -14  17    0.87    0.43
  -1 -14  17    0.45    0.46
   2  14  17    1.26    0.39
  -2  14  17    0.81    0.41
  -2  14  17    1.18    0.63
   2  14  16   -0.19    0.31
  -2  14  16    0.47    0.49
  -2  14  16    0.16    0.31
   2  14  15   -0.03    0.29
  -2  14  15    0.44    0.44
  -2  14  15    0.16    0.30
   2  14  14    2.46    0.35
  -2  14  14    1.69    0.39
  -2  14  14    2.13    0.34
   2  14  13    0.82    0.26
  -2  14  13    0.73    0.35
  -2  14  13    0.92    0.28
   2  14  12   15.65    0.71
  -2  14  12   16.92    0.83
  -2  14  12   16.75    0.73
   2  14  11    1.41    0.25
  -2  14  11    1.21    0.25
  -2  14  11    0.95    0.37
  -2  14  10    1.62    0.25
  -2  14  10    2.08    0.38
   2  14   9   24.81    0.88
  -2  14   9   23.82    0.88
  -2  14   9   24.03    0.93
   2  14   8    3.56    0.35
  -2  14   8    2.69    0.35
  -2  14   8    3.13    0.40
  -2  14   8    2.81    0.34
   2  14   7    5.78    0.39
  -2  14   7    5.74    0.41
  -2  14   7    5.41    0.41
  -2  14   7    4.54    0.42
   2  14   6   17.48    0.65
  -2  14   6   16.70    0.65
  -2  14   6   16.74    0.67
  -2  14   6   17.01    0.64
   2  14   5    0.43    0.15
   2 -14  -5    0.12    0.23
   2 -14  -5    0.64    0.23
  -2  14   5    0.85    0.20
  -2  14   5    0.84    0.18
   2  14   4   -0.03    0.12
   2 -14  -4   -0.06    0.20
   2 -14  -4   -0.03    0.21
  -2  14   4    0.19    0.15
  -2  14   4    0.13    0.16
   2  14   3    0.63    0.27
   2  14   3    0.45    0.14
   2 -14  -3    0.27    0.21
  -2  14   3    0.99    0.18
  -2  14   3    0.70    0.18
   2 -14  -2    8.14    0.48
   2  14   2    8.17    0.35
   2  14   2    7.95    0.56
  -2  14   2    8.38    0.38
  -2  14   2    8.37    0.43
   2  14   1    0.04    0.12
   2  14   1    0.01    0.11
   2  14   1    0.30    0.22
   2 -14  -1    0.25    0.17
  -2 -14  -1    0.07    0.08
  -2  14   1    0.11    0.13
  -2  14   1   -0.02    0.15
   2  14   0    0.89    0.25
   2  14   0    0.42    0.14
   2  14   0    0.48    0.12
   2 -14   0    0.82    0.19
  -2 -14   0    0.61    0.10
  -2  14   0    0.55    0.17
  -2  14   0    0.52    0.15
   2  14  -1    0.43    0.24
   2 -14   1    0.02    0.16
   2  14  -1    0.06    0.10
  -2  14  -1   -0.05    0.14
  -2 -14   1    0.10    0.09
  -2  14  -1    0.15    0.15
   2  14  -2    8.21    0.32
   2 -14   2    8.45    0.44
   2  14  -2    7.82    0.48
  -2  14  -2    8.03    0.42
  -2  14  -2    7.89    0.39
  -2 -14   2    7.54    0.32
   2  14  -3    0.60    0.24
   2 -14   3    0.76    0.18
   2  14  -3    0.75    0.13
  -2  14  -3    0.52    0.16
  -2  14  -3    0.52    0.18
  -2 -14   3    0.68    0.13
   2 -14   4   -0.14    0.18
   2  14  -4    0.03    0.20
   2  14  -4    0.01    0.10
  -2  14  -4    0.02    0.15
  -2  14  -4   -0.02    0.16
  -2 -14   4   -0.17    0.10
   2 -14   5    0.58    0.21
   2  14  -5    0.64    0.12
   2  14  -5    0.53    0.24
  -2  14  -5    0.72    0.18
  -2 -14   5    0.50    0.14
   2  14  -6   16.36    0.72
   2 -14   6   16.57    0.65
  -2 -14   6   17.06    0.62
   2  14  -7    4.25    0.42
   2 -14   7    6.13    0.38
  -2 -14   7    5.52    0.42
   2  14  -8    3.10    0.42
   2 -14   8    3.68    0.32
  -2 -14   8    4.12    0.34
   2 -14   9   23.80    0.83
   2  14  -9   20.65    0.88
  -2 -14   9   22.68    0.82
   2 -14  10    2.91    0.32
   2  14 -10    2.77    0.39
   2 -14  11    1.49    0.25
   2  14 -11    1.76    0.31
  -2 -14  11    1.56    0.25
   2  14 -12   15.93    0.78
   2 -14  12   15.04    0.69
  -2 -14  12   15.93    0.74
   2  14 -13    0.32    0.32
   2 -14  13    0.81    0.26
   2 -14  13    0.32    0.41
  -2 -14  13    0.98    0.31
   2 -14  14    1.37    0.32
   2 -14  14    1.17    0.47
  -2 -14  14    2.00    0.35
   2 -14  15   -0.02    0.44
   2 -14  15   -0.03    0.30
  -2 -14  15   -0.12    0.34
   2 -14  16    0.30    0.34
  -2 -14  16    0.42    0.42
   2 -14  17    0.64    0.41
  -2 -14  17    0.59    0.48
   3  14  16    3.55    0.48
  -3  14  16    3.26    0.48
  -3  14  16    2.05    0.58
   3  14  15    0.23    0.34
  -3  14  15    0.34    0.35
  -3  14  15    1.34    0.48
   3  14  14    1.64    0.33
  -3  14  14    1.67    0.35
  -3  14  14    2.26    0.43
   3  14  13    4.46    0.47
  -3  14  13    4.72    0.48
  -3  14  13    4.19    0.48
   3  14  12    8.38    0.54
  -3  14  12    8.17    0.65
  -3  14  12    8.58    0.55
   3  14  11    1.11    0.26
  -3  14  11    1.29    0.32
  -3  14  11    0.64    0.28
   3  14  10   22.05    0.85
  -3  14  10   21.75    0.90
  -3  14  10   21.49    0.85
  -3  14  10   19.52    0.77
   3  14   9    2.51    0.34
  -3  14   9    1.84    0.22
  -3  14   9    2.45    0.33
  -3  14   9    2.27    0.36
   3  14   8    0.36    0.22
  -3  14   8    0.03    0.19
  -3  14   8   -0.14    0.15
  -3  14   8   -0.41    0.32
   3  14   7    2.65    0.37
  -3  14   7    2.55    0.21
  -3  14   7    2.46    0.36
  -3  14   7    2.33    0.32
   3  14   6    0.84    0.21
  -3  14   6    1.33    0.28
  -3  14   6    1.23    0.14
  -3  14   6    0.73    0.25
   3 -14  -5   20.73    0.91
   3  14   5   20.94    0.75
   3 -14  -5   21.52    0.92
  -3  14   5   20.17    0.60
  -3  14   5   20.44    0.80
   3 -14  -4   -0.13    0.25
   3  14   4   -0.22    0.15
  -3  14   4    0.10    0.12
  -3  14   4    0.07    0.17
   3  14   3   13.55    0.76
   3  14   3   15.37    0.58
   3 -14  -3   16.38    0.75
   3 -14  -3   14.91    0.72
  -3  14   3   15.03    0.49
  -3  14   3   14.77    0.64
   3  14   2    0.07    0.28
   3  14   2    0.24    0.14
   3 -14  -2   -0.23    0.21
  -3  14   2   -0.22    0.18
  -3  14   2    0.13    0.13
   3  14   1    8.06    0.30
   3  14   1    7.37    0.59
   3 -14  -1    8.47    0.53
   3  14   1    7.93    0.36
  -3  14   1    7.05    0.45
  -3 -14  -1    7.38    0.31
  -3  14   1    8.29    0.35
   3  14   0   -0.03    0.12
   3 -14   0   -0.09    0.20
   3  14   0   -0.05    0.26
   3  14   0   -0.13    0.12
  -3  14   0   -0.22    0.16
  -3 -14   0    0.01    0.12
   3  14  -1    7.73    0.33
   3 -14   1    7.46    0.52
   3  14  -1    8.32    0.57
  -3 -14   1    8.08    0.35
  -3  14  -1    8.59    0.46
   3  14  -2   -0.02    0.23
   3  14  -2    0.05    0.11
   3 -14   2    0.01    0.23
  -3  14  -2    0.21    0.18
  -3 -14   2   -0.01    0.13
   3  14  -3   14.76    0.72
   3  14  -3   14.93    0.47
   3 -14   3   14.97    0.69
  -3  14  -3   13.94    0.62
  -3 -14   3   15.28    0.55
   3  14  -4   -0.12    0.22
   3  14  -4    0.06    0.10
   3 -14   4   -0.01    0.18
  -3 -14   4   -0.04    0.13
   3 -14   5   21.05    0.80
   3  14  -5   20.42    0.59
   3  14  -5   21.47    0.89
  -3 -14   5   20.16    0.72
   3 -14   6    0.76    0.20
   3  14  -6    0.84    0.26
  -3 -14   6    0.52    0.19
   3 -14   7    2.52    0.33
   3  14  -7    2.50    0.36
  -3 -14   7    3.05    0.39
   3  14  -8    0.75    0.26
   3 -14   8    0.09    0.20
  -3 -14   8   -0.20    0.19
   3 -14   9    1.87    0.27
   3  14  -9    1.76    0.31
  -3 -14   9    2.01    0.28
   3 -14  10   20.80    0.81
   3  14 -10   20.29    0.88
  -3 -14  10   19.53    0.82
   3  14 -11    0.83    0.30
   3 -14  11    0.54    0.22
  -3 -14  11    0.82    0.26
   3  14 -12    7.37    0.56
   3 -14  12    8.53    0.54
  -3 -14  12    7.87    0.57
   3 -14  13    3.90    0.68
   3  14 -13    4.85    0.57
   3 -14  13    5.06    0.48
  -3 -14  13    5.54    0.56
   3  14 -14    2.04    0.46
   3 -14  14    1.86    0.35
   3 -14  14    2.22    0.77
  -3 -14  14    2.20    0.41
   3 -14  15   -0.29    0.60
   3 -14  15    0.40    0.31
  -3 -14  15   -0.17    0.38
   3 -14  16    4.17    0.61
   3 -14  16    3.05    0.72
  -3 -14  16    3.96    0.61
   4  14  16    1.31    0.44
  -4  14  16    2.24    0.54
  -4  14  16    0.94    0.59
   4  14  15    2.13    0.42
  -4  14  15    1.21    0.44
  -4  14  15    1.12    0.52
   4  14  14    2.60    0.43
  -4  14  14    2.45    0.45
  -4  14  14    2.54    0.52
   4  14  13    0.40    0.33
  -4  14  13    0.04    0.31
  -4  14  13    0.49    0.42
   4  14  12    0.38    0.31
  -4  14  12    0.48    0.31
  -4  14  12    0.21    0.38
   4  14  11    0.00    0.28
  -4  14  11    0.03    0.26
  -4  14  11    0.37    0.35
   4  14  10    3.09    0.42
  -4  14  10    2.52    0.38
  -4  14  10    3.21    0.43
   4  14   9    2.85    0.42
  -4  14   9    3.30    0.42
  -4  14   9    2.84    0.38
   4  14   8    4.59    0.44
  -4  14   8    4.36    0.42
  -4  14   8    4.88    0.52
   4  14   7    1.73    0.32
  -4  14   7    1.28    0.28
  -4  14   7    1.67    0.35
   4  14   6    6.71    0.53
  -4  14   6    8.45    0.52
  -4  14   6    8.28    0.60
   4 -14  -5   11.55    0.79
   4 -14  -5   13.11    0.81
   4  14   5   11.04    0.59
  -4  14   5   11.66    0.62
   4 -14  -4   -0.08    0.31
   4  14   4   -0.03    0.18
   4 -14  -4   -0.34    0.33
  -4  14   4   -0.12    0.23
   4 -14  -3    3.93    0.53
   4  14   3    3.33    0.32
   4 -14  -3    3.94    0.52
  -4  14   3    3.14    0.41
   4  14   2    0.43    0.17
   4  14   2    0.27    0.34
   4 -14  -2    0.92    0.34
  -4  14   2    0.41    0.23
   4  14   1    0.49    0.16
   4  14   1    0.86    0.33
   4 -14  -1    0.23    0.27
   4  14   1    0.10    0.11
  -4  14   1    0.27    0.22
  -4 -14  -1    0.30    0.14
   4  14   0    2.44    0.25
   4  14   0    2.71    0.43
   4 -14   0    2.30    0.36
   4  14   0    1.84    0.21
  -4  14   0    2.43    0.36
  -4 -14   0    2.78    0.27
   4  14  -1    0.45    0.31
   4  14  -1    0.43    0.14
   4 -14   1    0.19    0.22
  -4 -14   1    0.40    0.17
  -4  14  -1    0.36    0.22
   4  14  -2    0.97    0.31
   4  14  -2    0.69    0.13
   4 -14   2    0.40    0.23
  -4 -14   2    0.72    0.18
   4  14  -3    3.27    0.49
   4  14  -3    3.26    0.21
   4 -14   3    2.82    0.39
  -4 -14   3    3.28    0.32
   4 -14   4   -0.10    0.22
   4  14  -4    0.07    0.30
   4  14  -4    0.00    0.11
  -4 -14   4    0.06    0.18
   4  14  -5   10.69    0.35
   4 -14   5   11.45    0.60
   4  14  -5   11.37    0.68
  -4 -14   5   11.19    0.56
   4 -14   6    8.59    0.53
   4  14  -6    7.78    0.58
  -4 -14   6    7.63    0.58
   4  14  -7    1.67    0.34
   4 -14   7    1.52    0.25
  -4 -14   7    1.78    0.28
   4  14  -8    3.66    0.47
   4 -14   8    4.98    0.44
  -4 -14   8    4.42    0.42
   4  14  -9    3.76    0.47
   4 -14   9    3.75    0.43
  -4 -14   9    3.64    0.44
   4  14 -10    2.89    0.40
   4 -14  10    3.45    0.44
  -4 -14  10    2.91    0.37
   4 -14  11    0.28    0.26
   4  14 -11    0.23    0.33
  -4 -14  11    0.06    0.30
   4 -14  12    1.11    0.31
   4  14 -12    0.31    0.36
  -4 -14  12    0.70    0.33
   4  14 -13    0.10    0.38
   4 -14  13   -0.05    0.30
  -4 -14  13    0.49    0.36
   4 -14  14    2.26    0.70
   4 -14  14    2.63    0.38
   4  14 -14    1.89    0.46
  -4 -14  14    1.92    0.45
   4 -14  15    1.33    0.68
   4  14 -15    1.46    0.50
   4 -14  15    1.43    0.41
  -4 -14  15    1.67    0.49
   4 -14  16    1.59    0.45
   4 -14  16    1.41    0.76
  -4 -14  16    2.20    0.56
   5  14  15   -0.31    0.43
  -5  14  15    0.47    0.57
   5  14  14    0.14    0.40
  -5  14  14    1.00    0.53
  -5  14  14    0.15    0.44
   5  14  13    0.17    0.39
  -5  14  13    0.12    0.40
  -5  14  13    0.35    0.47
   5  14  12   -0.22    0.35
  -5  14  12    0.02    0.35
  -5  14  12    1.06    0.45
   5  14  11    0.88    0.34
  -5  14  11    0.60    0.39
  -5  14  11   -0.13    0.33
   5  14  10    1.82    0.35
  -5  14  10    1.06    0.34
  -5  14  10    1.29    0.41
   5  14   9    7.85    0.58
  -5  14   9    6.15    0.55
  -5  14   9    6.31    0.66
   5  14   8    0.18    0.27
  -5  14   8    0.31    0.33
  -5  14   8   -0.30    0.28
   5  14   7    6.55    0.55
  -5  14   7    6.25    0.62
  -5  14   7    6.76    0.52
   5  14   6    1.00    0.30
  -5  14   6    0.79    0.28
  -5  14   6    0.48    0.30
   5 -14  -5   12.55    0.82
   5  14   5   12.09    0.72
   5 -14  -5   12.92    0.83
  -5  14   5   11.78    0.65
   5 -14  -4    2.55    0.45
   5 -14  -4    3.00    0.47
   5  14   4    3.21    0.47
  -5  14   4    2.57    0.39
   5 -14  -3    0.51    0.35
   5 -14  -3    0.79    0.35
   5  14   3    0.60    0.23
  -5  14   3    0.93    0.25
   5  14   2   11.00    0.72
   5  14   2   11.42    0.45
   5 -14  -2   11.89    0.77
   5 -14  -2   10.81    0.74
   5  14   2   11.36    0.46
   5  14   2   12.23    0.56
  -5  14   2   10.44    0.61
   5  14   1    6.14    0.62
   5  14   1    6.07    0.40
   5 -14  -1    6.02    0.59
  -5  14   1    6.65    0.49
  -5 -14  -1    6.26    0.37
   5  14   0   -0.13    0.18
   5  14   0   -0.03    0.34
   5 -14   0   -0.11    0.29
  -5 -14   0    0.01    0.19
  -5  14   0    0.28    0.25
   5  14  -1    6.17    0.37
   5  14  -1    6.07    0.61
   5 -14   1    6.60    0.55
  -5 -14   1    6.58    0.43
   5  14  -2   11.22    0.74
   5 -14   2   11.71    0.68
   5  14  -2   11.88    0.47
  -5 -14   2   11.90    0.57
   5  14  -3   -0.01    0.29
   5 -14   3    0.46    0.27
   5  14  -3    0.49    0.16
  -5 -14   3    0.90    0.25
   5 -14   4    2.52    0.36
   5  14  -4    2.85    0.22
   5  14  -4    2.46    0.38
  -5 -14   4    3.44    0.43
   5 -14   5   11.34    0.66
   5  14  -5   12.16    0.39
   5  14  -5   10.68    0.69
  -5 -14   5   10.54    0.71
   5  14  -6    0.67    0.33
   5 -14   6    0.53    0.25
  -5 -14   6    1.21    0.30
   5  14  -7    6.78    0.59
   5 -14   7    8.11    0.56
  -5 -14   7    5.84    0.52
   5  14  -8    0.47    0.32
   5 -14   8   -0.26    0.23
  -5 -14   8    0.12    0.28
   5 -14   9    5.74    0.54
   5  14  -9    6.24    0.58
  -5 -14   9    7.46    0.60
   5  14 -10    1.47    0.41
   5 -14  10    0.90    0.32
  -5 -14  10    1.53    0.36
   5  14 -11    0.06    0.39
   5 -14  11    0.40    0.33
  -5 -14  11    0.64    0.37
   5  14 -12    0.67    0.41
   5 -14  12   -0.18    0.33
  -5 -14  12   -0.02    0.35
   5 -14  13    0.54    0.37
   5  14 -13    0.33    0.45
  -5 -14  13    0.30    0.42
   5 -14  14    1.03    0.68
   5 -14  14    0.33    0.40
   5  14 -14   -0.21    0.46
  -5 -14  14   -0.08    0.47
   5 -14  15   -0.26    0.75
   5  14 -15   -1.06    0.48
   5 -14  15    0.00    0.42
  -5 -14  15   -0.05    0.56
   6  14  13    0.26    0.48
  -6  14  13   -0.57    0.52
  -6  14  13   -0.53    0.45
   6  14  12    0.45    0.42
  -6  14  12    0.31    0.43
  -6  14  12    0.64    0.48
   6  14  11    1.46    0.44
  -6  14  11    2.37    0.48
  -6  14  11    2.62    0.50
   6  14  10    0.64    0.38
  -6  14  10    1.02    0.43
  -6  14  10    0.68    0.35
   6  14   9    1.55    0.38
  -6  14   9    1.76    0.45
  -6  14   9    1.72    0.39
   6  14   8    1.12    0.38
  -6  14   8   -0.26    0.36
  -6  14   8    0.29    0.34
   6  14   7    7.04    0.61
  -6  14   7    6.23    0.62
  -6  14   7    5.28    0.56
   6 -14  -6    1.82    0.48
   6  14   6    1.72    0.37
   6 -14  -6    1.76    0.47
  -6  14   6    0.92    0.34
  -6  14   6    1.53    0.39
   6 -14  -5    3.55    0.54
   6 -14  -5    3.25    0.53
   6  14   5    3.30    0.47
  -6  14   5    3.44    0.47
   6 -14  -4   -0.27    0.40
   6  14   4    0.13    0.31
   6 -14  -4   -0.43    0.41
  -6  14   4   -0.05    0.28
   6 -14  -3   -0.11    0.36
   6 -14  -3   -0.04    0.38
   6  14   3   -0.57    0.36
  -6  14   3    0.02    0.26
   6 -14  -2    8.27    0.69
   6  14   2    7.80    0.46
   6  14   2    7.72    0.59
   6  14   2    7.08    0.46
   6  14   2    6.23    0.69
   6 -14  -2    6.71    0.70
  -6  14   2    6.14    0.53
   6  14   1    0.50    0.26
   6  14   1   -0.09    0.33
   6 -14  -1    0.55    0.34
  -6 -14  -1   -0.24    0.21
   6  14   0   47.02    1.42
   6 -14   0   45.35    1.66
   6  14   0   44.33    1.68
  -6 -14   0   45.12    1.36
   6 -14   1    0.47    0.30
   6  14  -1   -0.14    0.38
   6  14  -1    0.37    0.21
  -6 -14   1    0.38    0.25
   6  14  -2    6.99    0.43
   6  14  -2    7.73    0.68
   6 -14   2    6.42    0.60
  -6 -14   2    6.34    0.53
   6  14  -3   -0.24    0.34
   6 -14   3    0.34    0.31
   6  14  -3   -0.12    0.19
  -6 -14   3   -0.19    0.29
   6 -14   4    0.09    0.31
   6  14  -4   -0.27    0.34
   6  14  -4   -0.19    0.18
  -6 -14   4   -0.39    0.40
   6  14  -5    4.94    0.60
   6 -14   5    4.44    0.56
  -6 -14   5    4.39    0.58
   6  14  -6    1.51    0.37
   6 -14   6    1.67    0.39
  -6 -14   6    1.56    0.36
   6  14  -7    6.59    0.63
   6 -14   7    5.76    0.55
  -6 -14   7    7.38    0.65
   6 -14   8    0.11    0.32
   6  14  -8   -0.09    0.37
  -6 -14   8    0.01    0.34
   6 -14   9    0.69    0.36
   6  14  -9    0.63    0.36
  -6 -14   9    0.48    0.41
   6 -14  10    1.30    0.40
   6  14 -10    0.92    0.43
  -6 -14  10    0.81    0.40
   6  14 -11    2.52    0.50
   6 -14  11    2.67    0.49
  -6 -14  11    2.85    0.47
   6 -14  12    0.20    0.40
   6  14 -12   -0.19    0.42
  -6 -14  12    0.49    0.46
   6 -14  13    0.27    0.43
   6  14 -13   -0.14    0.49
  -6 -14  13    0.11    0.49
   7  14  11    0.19    0.47
  -7  14  11   -0.46    0.52
  -7  14  11    0.17    0.48
   7  14  10    0.62    0.47
  -7  14  10   -0.21    0.45
  -7  14  10   -0.36    0.48
   7  14   9    0.13    0.42
  -7  14   9   -0.09    0.45
  -7  14   9   -0.44    0.44
   7  14   8    0.81    0.43
  -7  14   8    0.30    0.41
  -7  14   8    0.10    0.43
   7  14   7    3.45    0.47
  -7  14   7    2.95    0.45
  -7  14   7    2.19    0.44
   7 -14  -6    1.00    0.53
   7 -14  -6    0.84    0.53
   7  14   6    0.34    0.41
  -7  14   6    0.59    0.38
   7 -14  -5    0.28    0.47
   7 -14  -5    0.51    0.49
   7  14   5    0.26    0.36
  -7  14   5    0.20    0.35
   7 -14  -4    3.61    0.65
   7 -14  -4    3.12    0.59
   7  14   4    3.32    0.44
   7 -14  -3    1.81    0.48
   7  14   3    1.79    0.40
   7 -14  -3    1.23    0.48
   7  14   2    0.65    0.40
   7 -14  -2    0.61    0.46
   7  14   2    0.75    0.48
   7 -14  -2   -0.37    0.41
   7  14   1    0.63    0.42
   7 -14  -1    1.50    0.45
   7  14   1    1.14    0.43
  -7 -14  -1    0.86    0.26
   7 -14   0    0.71    0.41
   7  14   0   -0.35    0.44
   7  14   0    0.50    0.32
  -7 -14   0   -0.15    0.29
   7  14  -1    0.28    0.30
   7  14  -1    1.39    0.47
   7 -14   1    0.61    0.39
  -7 -14   1    0.77    0.32
   7  14  -2    0.72    0.28
   7  14  -2    0.64    0.47
   7 -14   2    0.55    0.38
  -7 -14   2    0.11    0.38
   7  14  -3    1.06    0.27
   7 -14   3    0.68    0.41
   7  14  -3    1.75    0.47
  -7 -14   3    1.27    0.42
   7 -14   4    2.76    0.46
   7  14  -4    2.80    0.50
  -7 -14   4    4.49    0.64
   7  14  -5    1.25    0.45
   7 -14   5    0.19    0.39
  -7 -14   5    0.13    0.41
   7 -14   6    0.10    0.37
   7  14  -6   -0.26    0.37
  -7 -14   6    0.11    0.41
   7 -14   7    2.97    0.49
   7  14  -7    2.31    0.48
  -7 -14   7    2.58    0.50
   7 -14   8    0.04    0.39
   7  14  -8    1.09    0.40
  -7 -14   8    1.08    0.45
   7  14  -9    0.69    0.39
   7 -14   9    0.70    0.44
  -7 -14   9    0.17    0.46
   7  14 -10   -0.10    0.44
   7 -14  10    0.00    0.45
  -7 -14  10    1.22    0.52
   7 -14  11    0.28    0.50
   7  14 -11    0.73    0.48
  -7 -14  11   -0.06    0.54
   8  14   9    0.42    0.48
  -8  14   9   -0.50    0.57
  -8  14   9    0.24    0.54
   8  14   8   -0.53    0.48
  -8  14   8    0.80    0.51
  -8  14   8    0.35    0.54
   8 -14  -7    0.25    0.67
   8  14   7    1.05    0.49
   8 -14  -7   -0.12    0.62
   8 -14  -6    2.08    0.65
   8  14   6    1.41    0.45
   8 -14  -6    2.44    0.68
   8 -14  -5    1.21    0.63
   8  14   5    0.97    0.40
   8 -14  -5    2.15    0.62
   8 -14  -4    0.25    0.57
   8  14   4    1.09    0.43
   8 -14  -4    0.31    0.55
   8  14   3    1.06    0.56
   8 -14  -3    0.93    0.57
   8  14   3    0.46    0.41
   8 -14  -3   -0.08    0.54
   8  14   2   -0.43    0.50
   8 -14  -2   -0.04    0.52
   8  14   2    0.43    0.40
   8  14   1    0.49    0.54
   8  14   1   -0.11    0.40
   8 -14  -1    0.55    0.49
   8 -14   0   -0.34    0.46
   8  14   0   -0.86    0.49
   8  14   0   -0.24    0.39
  -8 -14   0   -0.33    0.41
   8  14  -1   -0.61    0.47
   8  14  -1    0.07    0.47
   8 -14   1   -0.26    0.47
  -8 -14   1   -0.27    0.44
   8  14  -2   -0.32    0.37
   8  14  -2    0.06    0.49
   8 -14   2    0.21    0.50
  -8 -14   2   -0.14    0.41
   8 -14   3    0.64    0.47
   8  14  -3    1.22    0.51
  -8 -14   3    1.26    0.48
   8 -14   4    0.54    0.48
   8  14  -4    0.34    0.45
  -8 -14   4    0.63    0.49
   8  14  -5    1.13    0.48
   8 -14   5    0.43    0.48
  -8 -14   5    1.52    0.54
   8 -14   6    2.93    0.59
   8  14  -6    2.67    0.49
  -8 -14   6    3.63    0.62
   8 -14   7    1.36    0.55
   8  14  -7    0.08    0.45
  -8 -14   7    0.16    0.55
   8 -14   8    0.10    0.55
   8  14  -8    0.45    0.43
  -8 -14   8   -0.79    0.56
   8  14  -9   -0.24    0.47
   8 -14   9    0.28    0.54
  -8 -14   9    0.30    0.61
   9  14   5    0.64    0.51
   9 -14  -5   -0.09    0.74
   9 -14  -5   -0.09    0.70
   9  14   4    6.52    0.81
   9 -14  -4    4.23    0.86
   9 -14  -4    5.13    0.86
   9  14   4    3.31    0.74
   9  14   3    1.58    0.67
   9  14   3   -0.17    0.48
   9 -14  -3    0.17    0.70
   9 -14  -3    1.55    0.73
   9 -14  -2    0.09    0.68
   9  14   2    0.62    0.47
   9  14   2    0.11    0.60
   9  14   1    0.80    0.60
   9  14   1   -0.03    0.47
   9 -14  -1    0.44    0.71
   9 -14   0    0.59    0.69
   9  14   0    0.36    0.48
   9  14   0   -0.66    0.57
   9 -14   1    0.53    0.65
   9  14  -1    1.09    0.55
   9  14  -1    0.66    0.58
  -9 -14   1    0.27    0.65
   9 -14   2    1.40    0.72
   9  14  -2   -0.17    0.57
  -9 -14   2    1.05    0.55
   9  14  -3    0.64    0.54
   9 -14   3    0.88    0.67
  -9 -14   3    0.87    0.56
   9 -14   4    3.91    0.75
   9  14  -4    5.19    0.80
  -9 -14   4    5.17    0.68
   9 -14   5   -0.40    0.60
   9  14  -5    0.23    0.55
  -9 -14   5    0.01    0.60
   0  15  17   -0.18    0.33
   0  15  16    0.10    0.32
   0  15  15   -0.37    0.27
   0  15  14    0.22    0.55
   0  15  14    0.17    0.27
   0  15  13    0.01    0.23
   0  15  13   -0.02    0.30
   0  15  12   -0.05    0.21
   0  15  12   -0.08    0.26
   0  15  11   -0.13    0.20
   0  15  11    0.17    0.23
   0  15  10    0.04    0.18
   0  15  10   -0.16    0.20
   0  15   9   -0.08    0.17
   0  15   9   -0.22    0.18
   0  15   8   -0.01    0.16
   0  15   8   -0.10    0.17
   0 -15  -7   -0.03    0.21
   0  15   7   -0.10    0.16
   0 -15  -7    0.11    0.22
   0 -15  -6    0.14    0.19
   0 -15  -6    0.10    0.19
   0  15   6   -0.02    0.15
   0  15   5    0.16    0.24
   0 -15  -5   -0.31    0.16
   0  15   5    0.06    0.14
   0 -15  -5   -0.04    0.16
   0 -15  -4    0.03    0.14
   0 -15  -4   -0.15    0.16
   0  15   4    0.17    0.23
   0  15   4    0.15    0.14
   0  15   3    0.29    0.13
   0  15   3    0.50    0.21
   0 -15  -2    0.02    0.12
   0  15   2    0.29    0.13
   0  15   2    0.13    0.20
   0  15   1    0.30    0.13
   0  15   1    0.15    0.20
   0 -15  -1    0.39    0.12
   0  15   0    1.10    0.21
   0 -15   1    0.25    0.11
   0  15  -1    0.41    0.18
   0  15  -1    0.01    0.12
   0  15  -2   -0.15    0.13
   0  15  -2   -0.17    0.17
   0 -15   2    0.02    0.11
   0  15  -3    0.02    0.14
   0 -15   3    0.03    0.11
   0  15  -3    0.23    0.18
   0  15  -4   -0.19    0.17
   0  15  -4   -0.24    0.15
   0 -15   4    0.18    0.12
   0  15  -5   -0.08    0.15
   0 -15   5    0.13    0.14
   0 -15   6    0.11    0.17
   0  15  -6    0.24    0.21
   0  15  -7   -0.09    0.22
   0 -15   7   -0.07    0.15
   0 -15   8   -0.01    0.15
   0  15  -8   -0.43    0.23
   0  15  -9   -0.15    0.21
   0 -15   9    0.04    0.16
   0  15 -10    0.01    0.24
   0 -15  10    0.06    0.17
   0 -15  11    0.22    0.19
   0 -15  11   -0.24    0.27
   0 -15  12   -0.18    0.19
   0 -15  12   -0.29    0.31
   0 -15  13    0.08    0.23
   0 -15  14    0.08    0.27
   0 -15  15    0.08    0.31
   0 -15  16   -0.52    0.35
   0 -15  17   -0.26    0.42
   1  15  17    0.48    0.36
  -1  15  17    0.15    0.36
   1  15  16    4.47    0.55
  -1  15  16    4.02    0.54
   1  15  15    0.38    0.30
  -1  15  15    0.10    0.45
  -1  15  15    0.53    0.31
   1  15  14    1.15    0.27
  -1  15  14    1.61    0.44
  -1  15  14    1.89    0.34
   1  15  13    0.38    0.24
  -1  15  13    0.06    0.44
  -1  15  13    0.30    0.23
   1  15  12    0.17    0.22
  -1  15  12   -0.21    0.20
  -1  15  12   -0.16    0.31
   1  15  11    0.67    0.22
   1  15  11    0.60    0.20
  -1  15  11    1.04    0.22
  -1  15  11    1.02    0.27
   1  15  10    1.98    0.29
   1  15  10    1.61    0.24
  -1  15  10    2.26    0.30
  -1  15  10    2.24    0.28
   1  15   9   11.36    0.54
  -1  15   9   13.04    0.55
  -1  15   9   11.31    0.54
   1  15   8    0.29    0.19
  -1  15   8    0.11    0.18
  -1 -15  -8    0.19    0.19
  -1  15   8   -0.19    0.18
  -1 -15  -8    0.10    0.08
  -1 -15  -8    0.14    0.18
   1  15   7   -0.22    0.18
  -1  15   7   -0.09    0.18
  -1  15   7    0.08    0.27
   1 -15  -6    0.08    0.25
   1 -15  -6    0.86    0.25
   1  15   6    0.67    0.18
  -1  15   6    0.90    0.28
  -1  15   6    0.77    0.19
   1 -15  -5    0.48    0.22
   1 -15  -5    0.83    0.23
   1  15   5    0.66    0.17
  -1  15   5    0.50    0.14
  -1  15   5    0.47    0.24
   1 -15  -4    1.20    0.23
   1  15   4    1.39    0.21
   1  15   4    1.53    0.30
  -1  15   4    1.39    0.22
  -1 -15  -4    1.38    0.13
  -1  15   4    1.49    0.24
  -1 -15  -4    1.04    0.16
   1 -15  -3    0.94    0.20
   1  15   3    1.17    0.28
   1  15   3    0.82    0.15
  -1  15   3    0.71    0.18
  -1 -15  -3    1.11    0.13
  -1  15   3    0.96    0.22
  -1 -15  -3    0.97    0.13
   1  15   2    0.24    0.12
   1  15   2    0.19    0.22
   1 -15  -2    0.18    0.16
  -1 -15  -2    0.35    0.14
  -1  15   2    0.58    0.19
  -1 -15  -2    0.29    0.08
  -1  15   2    0.74    0.16
   1  15   1    2.94    0.37
   1  15   1    3.13    0.29
   1  15   1    2.70    0.23
   1  15   1    1.99    0.29
   1 -15  -1    2.91    0.28
  -1 -15  -1    2.66    0.17
  -1  15   1    2.52    0.27
  -1  15   1    2.99    0.30
   1 -15   0   49.43    1.42
   1  15   0   49.18    1.54
   1  15   0   47.78    1.37
  -1 -15   0   48.32    1.30
  -1  15   0   49.80    1.45
  -1  15   0   49.44    1.43
   1 -15   1    2.32    0.25
   1  15  -1    2.86    0.22
   1  15  -1    2.69    0.34
  -1 -15   1    2.50    0.19
  -1  15  -1    2.92    0.26
  -1  15  -1    2.82    0.30
   1  15  -2    0.02    0.18
   1  15  -2    0.37    0.13
   1 -15   2    0.25    0.14
  -1  15  -2    0.25    0.16
  -1 -15   2    0.28    0.10
  -1  15  -2    0.19    0.16
   1  15  -3    0.72    0.21
   1 -15   3    0.86    0.18
  -1 -15   3    0.83    0.13
  -1  15  -3    0.66    0.18
  -1  15  -3    0.91    0.19
   1  15  -4    1.63    0.27
   1 -15   4    1.32    0.20
  -1  15  -4    1.12    0.22
  -1  15  -4    1.25    0.21
   1 -15   5    0.49    0.19
   1  15  -5    0.86    0.24
   1  15  -5    0.48    0.15
  -1  15  -5    0.35    0.18
  -1 -15   5    0.64    0.14
   1  15  -6    0.72    0.25
   1 -15   6    0.74    0.19
  -1 -15   6    0.79    0.17
  -1  15  -6    0.51    0.19
   1 -15   7   -0.05    0.16
   1  15  -7    0.04    0.24
  -1 -15   7   -0.05    0.16
  -1  15  -7   -0.27    0.19
   1  15  -8    0.00    0.23
   1 -15   8    0.04    0.15
  -1  15  -8    0.02    0.24
  -1 -15   8    0.33    0.16
   1 -15   9   11.76    0.54
   1  15  -9   12.15    0.60
  -1 -15   9   11.24    0.53
   1  15 -10    1.45    0.29
   1 -15  10    1.60    0.24
  -1 -15  10    1.91    0.25
   1 -15  11    0.71    0.20
   1  15 -11    0.81    0.28
  -1 -15  11    0.94    0.23
   1 -15  12   -0.09    0.34
   1 -15  12   -0.04    0.21
   1  15 -12   -0.47    0.27
  -1 -15  12   -0.02    0.22
   1 -15  13    0.87    0.26
   1 -15  13    0.31    0.35
  -1 -15  13    0.47    0.28
   1 -15  14    1.64    0.31
  -1 -15  14    1.41    0.32
   1 -15  15    0.22    0.30
  -1 -15  15    0.54    0.34
   1 -15  16    5.49    0.64
  -1 -15  16    5.25    0.68
   1 -15  17    0.53    0.42
  -1 -15  17    0.13    0.44
   2  15  16   -0.37    0.31
  -2  15  16    0.06    0.36
  -2  15  16   -0.36    0.54
   2  15  15    0.59    0.30
  -2  15  15   -0.23    0.45
  -2  15  15    0.45    0.30
   2  15  14    1.54    0.30
  -2  15  14    1.63    0.32
  -2  15  14    0.98    0.40
   2  15  13    5.16    0.45
  -2  15  13    3.79    0.46
  -2  15  13    4.88    0.46
   2  15  12    1.78    0.28
  -2  15  12    1.84    0.38
  -2  15  12    2.66    0.37
   2  15  11    4.84    0.40
  -2  15  11    5.60    0.64
  -2  15  11    5.21    0.41
   2  15  10    6.37    0.42
  -2  15  10    6.27    0.43
  -2  15  10    5.21    0.59
   2  15   9    4.56    0.36
  -2  15   9    3.40    0.48
  -2  15   9    3.90    0.49
  -2  15   9    3.48    0.35
   2  15   8   11.72    0.54
  -2  15   8   10.97    0.60
  -2  15   8   10.10    0.51
  -2  15   8   11.23    0.61
   2  15   7    2.94    0.34
  -2  15   7    3.37    0.36
  -2  15   7    3.24    0.40
  -2  15   7    2.60    0.36
   2 -15  -6    2.56    0.35
   2  15   6    2.59    0.30
   2 -15  -6    2.37    0.34
  -2  15   6    2.34    0.34
  -2  15   6    2.67    0.34
   2 -15  -5    4.64    0.47
   2 -15  -5    4.08    0.45
   2  15   5    3.84    0.29
  -2  15   5    4.62    0.35
  -2  15   5    4.49    0.36
   2 -15  -4    1.35    0.26
   2  15   4    1.53    0.20
   2  15   4    1.25    0.30
   2 -15  -4    1.26    0.26
  -2  15   4    1.33    0.21
  -2  15   4    1.14    0.21
   2  15   3    0.22    0.13
   2  15   3    0.40    0.26
   2 -15  -3    0.76    0.22
  -2  15   3    0.41    0.17
  -2  15   3    0.48    0.18
   2 -15  -2    0.92    0.21
   2  15   2    0.74    0.14
   2  15   2    0.68    0.27
  -2 -15  -2    0.69    0.11
  -2  15   2    0.70    0.18
  -2  15   2    0.87    0.19
   2  15   1    5.53    0.30
   2 -15  -1    5.59    0.41
   2  15   1    5.40    0.48
   2  15   1    5.97    0.29
  -2  15   1    5.46    0.37
  -2 -15  -1    5.35    0.23
  -2  15   1    5.79    0.34
   2  15   0    0.00    0.12
   2  15   0    0.31    0.23
   2  15   0    0.11    0.16
   2 -15   0   -0.10    0.17
  -2  15   0   -0.35    0.15
  -2  15   0    0.08    0.15
  -2 -15   0    0.06    0.09
   2 -15   1    5.85    0.39
   2  15  -1    5.11    0.43
   2  15  -1    5.88    0.28
  -2 -15   1    5.66    0.26
  -2  15  -1    4.96    0.36
  -2  15  -1    5.84    0.34
   2  15  -2    0.57    0.24
   2  15  -2    0.84    0.14
   2 -15   2    0.35    0.19
  -2  15  -2    0.63    0.18
  -2  15  -2    0.61    0.18
  -2 -15   2    0.97    0.14
   2  15  -3    0.41    0.13
   2 -15   3    0.34    0.21
   2  15  -3    0.31    0.21
  -2  15  -3    0.33    0.19
  -2  15  -3    0.66    0.18
  -2 -15   3    0.45    0.13
   2  15  -4    1.42    0.29
   2 -15   4    1.07    0.28
   2  15  -4    1.17    0.15
  -2  15  -4    1.41    0.23
  -2 -15   4    1.34    0.20
  -2  15  -4    1.44    0.23
   2 -15   5    4.05    0.37
   2  15  -5    3.98    0.25
   2  15  -5    4.85    0.41
  -2 -15   5    4.48    0.29
  -2  15  -5    4.52    0.34
   2  15  -6    2.25    0.21
   2 -15   6    2.41    0.30
   2  15  -6    2.37    0.35
  -2 -15   6    2.57    0.32
   2 -15   7    3.15    0.32
   2  15  -7    3.20    0.38
  -2 -15   7    3.64    0.35
   2  15  -8   11.03    0.59
   2 -15   8   10.63    0.52
  -2 -15   8   11.11    0.54
   2 -15   9    3.18    0.35
   2  15  -9    3.44    0.41
  -2 -15   9    3.41    0.35
   2 -15  10    6.12    0.42
   2  15 -10    5.77    0.48
  -2 -15  10    5.84    0.44
   2 -15  11    4.55    0.40
   2  15 -11    4.31    0.45
  -2 -15  11    5.06    0.43
   2 -15  12    1.41    0.26
   2  15 -12    1.95    0.35
  -2 -15  12    1.77    0.29
   2 -15  13    4.54    0.45
   2 -15  13    4.72    0.57
   2  15 -13    5.65    0.57
  -2 -15  13    5.17    0.53
   2 -15  14    1.26    0.48
   2 -15  14    0.86    0.32
  -2 -15  14    1.44    0.36
   2 -15  15   -0.32    0.31
   2 -15  15    0.62    0.49
  -2 -15  15    0.40    0.36
   2 -15  16    0.41    0.36
  -2 -15  16    0.02    0.44
   3  15  16   -0.23    0.37
  -3  15  16   -0.10    0.40
  -3  15  16   -1.17    0.55
   3  15  15    0.19    0.32
  -3  15  15    0.39    0.33
  -3  15  15    0.41    0.49
   3  15  14    5.98    0.55
  -3  15  14    5.45    0.57
  -3  15  14    5.88    0.72
   3  15  13    3.85    0.46
  -3  15  13    2.40    0.35
  -3  15  13    2.38    0.43
   3  15  12    4.04    0.45
  -3  15  12    4.57    0.64
  -3  15  12    4.87    0.48
   3  15  11    6.17    0.47
  -3  15  11    5.41    0.46
  -3  15  11    5.46    0.56
   3  15  10    1.52    0.26
  -3  15  10    0.88    0.32
  -3  15  10    0.97    0.27
   3  15   9    0.39    0.22
  -3  15   9    0.17    0.30
  -3  15   9   -0.06    0.22
  -3  15   9    0.29    0.22
   3  15   8    9.60    0.52
  -3  15   8    8.03    0.49
  -3  15   8    8.87    0.37
  -3  15   8    9.22    0.67
   3  15   7    3.62    0.39
  -3  15   7    3.82    0.25
  -3  15   7    4.09    0.52
  -3  15   7    4.66    0.36
   3  15   6    5.44    0.44
   3 -15  -6    6.60    0.68
   3 -15  -6    5.88    0.70
  -3  15   6    5.30    0.44
  -3  15   6    5.72    0.28
   3 -15  -5    0.29    0.31
   3 -15  -5    0.42    0.33
   3  15   5    0.30    0.17
  -3  15   5    0.19    0.14
  -3  15   5    0.20    0.22
   3  15   4   -0.26    0.15
   3 -15  -4   -0.10    0.29
   3 -15  -4    0.02    0.29
  -3  15   4   -0.06    0.14
  -3  15   4    0.16    0.20
   3 -15  -3    0.14    0.28
   3  15   3    0.19    0.15
   3  15   3    0.02    0.30
  -3  15   3    0.08    0.14
  -3  15   3    0.01    0.19
   3  15   2    2.08    0.38
   3  15   2    2.01    0.24
   3 -15  -2    1.95    0.34
  -3  15   2    1.73    0.24
  -3  15   2    1.88    0.28
   3  15   1    0.83    0.16
   3 -15  -1    1.20    0.30
   3  15   1    1.12    0.13
   3  15   1    1.22    0.35
  -3 -15  -1    0.97    0.14
  -3  15   1    1.10    0.23
  -3  15   1    1.28    0.19
   3 -15   0    0.26    0.26
   3  15   0    0.26    0.25
   3  15   0    0.36    0.15
   3  15   0    0.16    0.13
  -3 -15   0    0.17    0.13
  -3  15   0    0.39    0.16
  -3  15   0    0.31    0.20
   3  15  -1    1.24    0.31
   3 -15   1    0.93    0.28
   3  15  -1    1.43    0.19
  -3 -15   1    1.12    0.16
  -3  15  -1    0.86    0.22
   3 -15   2    1.89    0.35
   3  15  -2    1.55    0.19
   3  15  -2    2.04    0.33
  -3  15  -2    1.51    0.25
  -3 -15   2    1.83    0.23
   3 -15   3   -0.37    0.20
   3  15  -3    0.05    0.11
   3  15  -3    0.25    0.27
  -3 -15   3   -0.04    0.14
  -3  15  -3    0.13    0.20
   3 -15   4   -0.16    0.19
   3  15  -4    0.24    0.26
   3  15  -4   -0.07    0.12
  -3 -15   4    0.02    0.14
   3  15  -5    0.23    0.12
   3 -15   5    0.30    0.20
   3  15  -5    0.23    0.29
  -3 -15   5    0.18    0.16
   3 -15   6    6.40    0.43
   3  15  -6    6.47    0.52
  -3 -15   6    5.47    0.45
   3  15  -7    4.30    0.45
   3 -15   7    4.09    0.38
  -3 -15   7    4.25    0.41
   3  15  -8    9.15    0.57
   3 -15   8    8.97    0.52
  -3 -15   8    8.81    0.52
   3  15  -9    0.21    0.27
   3 -15   9    0.00    0.20
  -3 -15   9    0.48    0.20
   3 -15  10    1.48    0.27
   3  15 -10    1.24    0.33
  -3 -15  10    0.97    0.25
   3  15 -11    6.18    0.55
   3 -15  11    5.01    0.45
  -3 -15  11    4.64    0.52
   3  15 -12    4.80    0.54
   3 -15  12    4.00    0.45
  -3 -15  12    5.20    0.52
   3  15 -13    2.67    0.46
   3 -15  13    3.23    0.48
  -3 -15  13    3.45    0.52
   3  15 -14    4.43    0.64
   3 -15  14    6.35    0.54
   3 -15  14    4.96    0.85
  -3 -15  14    7.67    0.65
   3 -15  15    0.90    0.66
   3 -15  15    0.43    0.34
  -3 -15  15    0.56    0.40
   3 -15  16    0.01    0.38
   3 -15  16    1.02    0.68
  -3 -15  16   -0.11    0.48
   4  15  15    0.38    0.38
  -4  15  15    0.36    0.40
  -4  15  15    0.38    0.51
   4  15  14    0.51    0.35
  -4  15  14    0.89    0.39
  -4  15  14    0.56    0.47
   4  15  13    1.46    0.38
  -4  15  13    1.05    0.37
  -4  15  13    0.86    0.39
   4  15  12    2.19    0.36
  -4  15  12    1.73    0.43
  -4  15  12    3.41    0.48
   4  15  11    0.06    0.28
  -4  15  11    0.68    0.32
  -4  15  11    0.23    0.36
   4  15  10    1.74    0.32
  -4  15  10    1.87    0.38
  -4  15  10    2.30    0.36
   4  15   9    2.25    0.34
  -4  15   9    2.11    0.34
  -4  15   9    2.49    0.39
   4  15   8    6.78    0.48
  -4  15   8    5.99    0.47
  -4  15   8    5.92    0.55
   4  15   7    0.83    0.28
  -4  15   7    0.66    0.25
  -4  15   7    0.47    0.29
   4 -15  -6   18.42    0.95
   4 -15  -6   16.82    0.94
   4  15   6   18.67    0.78
  -4  15   6   17.21    0.77
   4 -15  -5    1.12    0.37
   4  15   5    1.56    0.30
   4 -15  -5    1.28    0.40
  -4  15   5    1.23    0.28
   4 -15  -4    3.62    0.54
   4 -15  -4    3.92    0.50
   4  15   4    4.07    0.35
  -4  15   4    4.36    0.43
   4 -15  -3   -0.32    0.28
   4  15   3    0.31    0.19
   4  15   3    0.67    0.37
   4 -15  -3   -0.17    0.30
  -4  15   3   -0.45    0.22
   4 -15  -2   -0.58    0.30
   4  15   2    0.29    0.16
   4  15   2   -0.20    0.37
  -4  15   2    0.17    0.24
   4  15   1   23.55    1.12
   4 -15  -1   24.54    1.03
   4  15   1   23.83    0.79
   4  15   1   23.78    0.68
  -4  15   1   24.15    0.96
  -4 -15  -1   22.75    0.71
   4 -15   0    0.09    0.26
   4  15   0    0.34    0.40
   4  15   0    0.06    0.15
  -4 -15   0    0.34    0.17
  -4  15   0    0.16    0.25
   4  15  -1   23.35    0.72
   4  15  -1   21.44    1.05
   4 -15   1   22.70    0.95
  -4 -15   1   22.86    0.75
  -4  15  -1   21.86    0.91
   4  15  -2    0.25    0.13
   4 -15   2    0.60    0.26
   4  15  -2    0.50    0.36
  -4  15  -2    0.37    0.25
  -4 -15   2    0.66    0.18
   4  15  -3    0.04    0.12
   4 -15   3    0.06    0.23
   4  15  -3    0.52    0.31
  -4 -15   3    0.09    0.18
   4 -15   4    3.19    0.40
   4  15  -4    3.66    0.44
   4  15  -4    3.33    0.22
  -4 -15   4    3.76    0.35
   4 -15   5    1.81    0.30
   4  15  -5    1.02    0.27
   4  15  -5    1.15    0.17
  -4 -15   5    1.38    0.27
   4  15  -6   16.16    0.77
   4 -15   6   17.34    0.77
  -4 -15   6   16.85    0.77
   4  15  -7    0.23    0.29
   4 -15   7    0.40    0.25
  -4 -15   7    0.22    0.24
   4  15  -8    5.71    0.51
   4 -15   8    5.21    0.47
  -4 -15   8    5.64    0.49
   4 -15   9    1.86    0.31
   4  15  -9    2.00    0.34
  -4 -15   9    2.11    0.34
   4  15 -10    1.98    0.39
   4 -15  10    1.66    0.32
  -4 -15  10    1.93    0.32
   4  15 -11    0.41    0.36
   4 -15  11    0.21    0.26
  -4 -15  11    0.64    0.29
   4 -15  12    1.72    0.31
   4  15 -12    1.89    0.43
  -4 -15  12    2.21    0.40
   4  15 -13    1.26    0.41
   4 -15  13   -0.07    0.32
  -4 -15  13    0.20    0.36
   4 -15  14    0.09    0.67
   4  15 -14    0.16    0.43
   4 -15  14   -0.16    0.34
  -4 -15  14    0.62    0.41
   4 -15  15   -1.06    0.66
   4  15 -15   -0.40    0.48
   4 -15  15    0.15    0.40
  -4 -15  15    0.98    0.51
   5  15  14    0.53    0.42
  -5  15  14    0.05    0.43
  -5  15  14    0.31    0.55
   5  15  13   -0.17    0.39
  -5  15  13    0.50    0.41
  -5  15  13   -0.47    0.48
   5  15  12    0.30    0.36
  -5  15  12   -0.28    0.46
  -5  15  12    0.78    0.39
   5  15  11   -0.02    0.35
  -5  15  11   -0.38    0.40
   5  15  10    0.03    0.32
  -5  15  10    0.56    0.33
  -5  15  10    0.58    0.38
   5  15   9    1.58    0.35
  -5  15   9    1.34    0.36
  -5  15   9    1.98    0.38
   5  15   8    6.25    0.53
  -5  15   8    5.45    0.54
  -5  15   8    5.44    0.62
   5  15   7    0.76    0.28
  -5  15   7    0.40    0.29
  -5  15   7    0.65    0.33
   5  15   6    0.92    0.32
   5 -15  -6    0.77    0.45
   5 -15  -6    0.52    0.42
  -5  15   6    1.01    0.27
   5  15   5   -0.15    0.26
   5 -15  -5   -0.63    0.38
   5 -15  -5   -0.22    0.37
  -5  15   5   -0.05    0.25
   5 -15  -4   19.76    1.01
   5  15   4   19.52    0.89
   5 -15  -4   20.98    1.02
  -5  15   4   20.37    0.88
   5  15   3    1.83    0.31
   5 -15  -3    1.13    0.39
   5 -15  -3    1.32    0.38
   5  15   3    2.06    0.41
  -5  15   3    1.49    0.31
   5 -15  -2    0.78    0.35
   5  15   2    0.89    0.17
   5  15   2    0.72    0.23
   5  15   2    1.17    0.38
  -5  15   2    0.65    0.26
   5  15   1    0.08    0.20
   5  15   1   -0.45    0.34
   5 -15  -1   -0.31    0.31
  -5  15   1   -0.50    0.23
  -5 -15  -1    0.24    0.18
   5 -15   0    3.90    0.54
   5  15   0    5.06    0.58
   5  15   0    4.73    0.37
  -5 -15   0    5.14    0.38
  -5  15   0    4.82    0.47
   5  15  -1    0.03    0.17
   5 -15   1    0.29    0.28
   5  15  -1    0.42    0.31
  -5 -15   1    0.30    0.21
   5 -15   2    0.05    0.28
   5  15  -2    0.70    0.29
   5  15  -2    0.71    0.18
  -5 -15   2    0.76    0.23
   5 -15   3    1.15    0.32
   5  15  -3    1.02    0.33
   5  15  -3    1.88    0.23
  -5 -15   3    1.71    0.28
   5  15  -4   20.39    0.63
   5 -15   4   19.76    0.91
   5  15  -4   20.26    0.97
  -5 -15   4   21.48    0.85
   5  15  -5   -0.19    0.20
   5 -15   5   -0.04    0.26
   5  15  -5    0.61    0.32
  -5 -15   5    0.20    0.36
   5  15  -6    0.48    0.32
   5 -15   6    1.10    0.29
  -5 -15   6    0.66    0.29
   5  15  -7    0.21    0.30
   5 -15   7   -0.12    0.26
  -5 -15   7    0.18    0.28
   5 -15   8    5.47    0.54
   5  15  -8    4.93    0.55
  -5 -15   8    4.34    0.55
   5  15  -9    1.20    0.37
   5 -15   9    1.65    0.35
  -5 -15   9    1.54    0.37
   5  15 -10    0.13    0.36
   5 -15  10    0.52    0.30
  -5 -15  10   -0.41    0.32
   5  15 -11    0.08    0.42
   5 -15  11    0.16    0.35
  -5 -15  11    0.11    0.37
   5  15 -12    1.41    0.44
   5 -15  12    0.38    0.34
  -5 -15  12    0.58    0.39
   5  15 -13    0.48    0.45
   5 -15  13   -0.38    0.36
  -5 -15  13   -0.08    0.45
   5  15 -14    0.49    0.46
   5 -15  14   -0.01    0.69
   5 -15  14   -0.16    0.41
  -5 -15  14    0.33    0.56
   6  15  13    0.25    0.43
  -6  15  13   -0.14    0.49
  -6  15  13    1.37    0.59
   6  15  12    1.88    0.44
  -6  15  12    2.00    0.51
  -6  15  12    1.87    0.54
   6  15  11    0.88    0.44
  -6  15  11    1.07    0.46
  -6  15  11    1.95    0.51
   6  15  10    1.40    0.41
  -6  15  10    1.01    0.46
  -6  15  10    1.29    0.44
   6  15   9    1.00    0.38
  -6  15   9    0.04    0.35
  -6  15   9    0.05    0.42
   6  15   8   -0.12    0.34
  -6  15   8    0.26    0.40
  -6  15   8   -0.40    0.34
   6  15   7   -0.07    0.34
  -6  15   7    0.17    0.33
  -6  15   7   -0.43    0.34
   6 -15  -6    5.54    0.82
   6  15   6    5.29    0.54
   6 -15  -6    5.97    0.84
  -6  15   6    4.77    0.55
   6 -15  -5    1.05    0.44
   6  15   5    1.85    0.36
   6 -15  -5    2.35    0.52
   6 -15  -4    2.69    0.50
   6 -15  -4    5.04    0.72
  -6  15   4    3.03    0.41
   6  15   3   -0.24    0.34
   6 -15  -3   -0.93    0.42
   6 -15  -3   -0.25    0.40
   6  15   3    0.13    0.38
  -6  15   3    0.00    0.29
   6  15   2    0.54    0.32
   6  15   2    0.20    0.39
   6 -15  -2    0.46    0.39
  -6  15   2    0.13    0.28
   6 -15  -1    0.49    0.37
   6  15   1    0.82    0.40
   6  15   1    0.79    0.29
  -6 -15  -1    0.80    0.23
   6 -15   0    0.42    0.36
   6  15   0    0.23    0.24
   6  15   0    0.63    0.39
  -6 -15   0    0.36    0.23
   6  15  -1    0.39    0.22
   6  15  -1    1.09    0.40
   6 -15   1    0.51    0.33
  -6 -15   1    0.30    0.26
   6 -15   2    0.14    0.32
   6  15  -2   -0.31    0.36
   6  15  -2    0.27    0.21
  -6 -15   2    0.28    0.28
   6  15  -3    0.66    0.37
   6  15  -3   -0.10    0.19
   6 -15   3   -0.40    0.31
  -6 -15   3   -0.05    0.32
   6  15  -4    4.51    0.58
   6 -15   4    2.84    0.45
   6  15  -4    4.27    0.31
  -6 -15   4    3.81    0.51
   6  15  -5    1.48    0.40
   6 -15   5    1.68    0.37
  -6 -15   5    2.06    0.39
   6  15  -6    4.62    0.60
   6 -15   6    4.20    0.58
  -6 -15   6    5.12    0.63
   6 -15   7   -0.53    0.31
   6  15  -7   -0.03    0.38
  -6 -15   7   -0.13    0.36
   6 -15   8   -0.41    0.31
   6  15  -8   -0.34    0.37
  -6 -15   8   -0.57    0.37
   6  15  -9   -0.06    0.37
   6 -15   9    0.49    0.38
  -6 -15   9    0.96    0.43
   6 -15  10    1.51    0.41
   6  15 -10    1.54    0.45
  -6 -15  10    1.49    0.47
   6 -15  11    0.61    0.41
   6  15 -11    0.73    0.45
  -6 -15  11    1.75    0.52
   6  15 -12    1.84    0.51
   6 -15  12    1.30    0.50
  -6 -15  12    1.05    0.51
   6 -15  13    0.19    0.45
   6  15 -13    1.02    0.52
  -6 -15  13   -0.42    0.58
   7  15  11   -0.71    0.44
  -7  15  11    0.58    0.58
  -7  15  11    0.50    0.54
   7  15  10    0.79    0.46
  -7  15  10    1.17    0.52
  -7  15  10    0.35    0.50
   7  15   9    0.34    0.43
  -7  15   9   -0.13    0.50
  -7  15   9    0.74    0.47
   7  15   8   -0.79    0.39
  -7  15   8   -0.67    0.39
  -7  15   8    0.30    0.46
   7 -15  -7    0.18    0.58
   7  15   7   -0.07    0.36
   7 -15  -7    0.85    0.57
  -7  15   7    0.28    0.38
   7 -15  -6    0.75    0.55
   7 -15  -6    1.10    0.55
   7  15   6    0.65    0.36
  -7  15   6    0.65    0.39
   7 -15  -5   -0.73    0.47
   7 -15  -5    0.35    0.49
  -7  15   5    0.63    0.37
   7 -15  -4    1.78    0.53
   7 -15  -4    1.93    0.53
   7  15   4    2.15    0.41
  -7  15   4    2.58    0.44
   7  15   3    0.06    0.47
   7  15   3    0.12    0.34
   7 -15  -3   -0.63    0.46
   7 -15  -3    0.12    0.46
   7 -15  -2    4.22    0.62
   7  15   2    6.32    0.76
   7  15   2    5.48    0.59
   7  15   1    2.31    0.53
   7 -15  -1    2.17    0.47
   7  15   1    2.43    0.49
   7 -15   0   -0.20    0.41
   7  15   0    0.60    0.45
   7  15   0    0.02    0.34
  -7 -15   0    0.11    0.28
   7  15  -1    2.32    0.51
   7  15  -1    2.91    0.35
   7 -15   1    2.34    0.48
  -7 -15   1    3.03    0.38
   7  15  -2    5.16    0.45
   7  15  -2    5.53    0.72
   7 -15   2    3.96    0.56
  -7 -15   2    4.96    0.68
   7  15  -3   -0.22    0.25
   7  15  -3   -0.19    0.41
   7 -15   3   -0.05    0.38
  -7 -15   3    0.36    0.43
   7  15  -4    2.21    0.51
   7 -15   4    2.60    0.47
  -7 -15   4    2.08    0.47
   7  15  -5    0.20    0.41
   7 -15   5    0.32    0.42
  -7 -15   5   -0.34    0.39
   7  15  -6    0.58    0.41
   7 -15   6    0.81    0.42
  -7 -15   6    0.70    0.46
   7 -15   7   -0.05    0.40
   7  15  -7    0.54    0.44
  -7 -15   7    0.07    0.44
   7 -15   8    0.36    0.42
   7  15  -8    0.38    0.43
  -7 -15   8    0.18    0.48
   7  15  -9    0.73    0.45
   7 -15   9    0.94    0.47
  -7 -15   9    1.55    0.51
   7 -15  10    0.06    0.51
   7  15 -10    0.43    0.50
  -7 -15  10    0.41    0.53
   7  15 -11    0.90    0.53
   7 -15  11    0.22    0.51
  -7 -15  11    0.29    0.58
   8 -15  -8    0.11    0.79
   8 -15  -8   -0.82    0.71
   8  15   8   -0.27    0.44
  -8  15   8    0.59    0.50
   8 -15  -7    3.21    0.82
   8 -15  -7    3.65    0.80
   8  15   7    3.82    0.58
   8  15   6    3.09    0.52
   8 -15  -6    1.52    0.71
   8 -15  -6    1.92    0.72
   8 -15  -5   -0.05    0.63
   8 -15  -5    0.16    0.59
   8  15   5    0.06    0.44
   8  15   4   -0.25    0.40
   8 -15  -4    0.23    0.61
   8 -15  -4    0.36    0.58
   8  15   4    0.45    0.59
   8  15   3    0.28    0.39
   8 -15  -3   -0.67    0.55
   8 -15  -3    1.32    0.57
   8  15   3    1.10    0.62
   8  15   2   -0.60    0.51
   8 -15  -2    0.05    0.54
   8  15   2    0.13    0.40
   8  15   1    1.06    0.56
   8 -15  -1    0.88    0.57
   8  15   1    1.46    0.41
   8  15   0    1.09    0.56
   8 -15   0    0.33    0.50
   8  15   0    0.02    0.39
   8 -15   1    1.78    0.56
   8  15  -1    0.87    0.51
   8  15  -1    1.45    0.50
  -8 -15   1    0.67    0.47
   8  15  -2   -0.35    0.47
   8  15  -2    0.16    0.39
   8 -15   2   -0.18    0.45
  -8 -15   2    0.89    0.45
   8 -15   3   -0.20    0.47
   8  15  -3   -0.11    0.47
  -8 -15   3   -0.27    0.47
   8  15  -4    0.76    0.47
   8 -15   4   -0.02    0.48
  -8 -15   4   -0.45    0.48
   8 -15   5    0.96    0.51
   8  15  -5   -0.03    0.47
  -8 -15   5    0.49    0.52
   8 -15   6    2.67    0.63
   8  15  -6    3.40    0.58
  -8 -15   6    3.46    0.65
   8 -15   7    2.43    0.63
   8  15  -7    3.07    0.52
  -8 -15   7    3.69    0.68
   8  15  -8    0.45    0.47
   8 -15   8   -0.03    0.54
  -8 -15   8    0.19    0.60
   9 -15  -4    0.45    0.69
   9  15   4   -0.04    0.68
   9  15   4    0.41    0.50
   9 -15  -4    0.01    0.71
   9 -15  -3    0.39    0.69
   9  15   3    1.63    0.69
   9  15   3   -0.54    0.48
   9 -15  -2   -1.10    0.65
   9  15   2    0.77    0.63
   9  15   2    0.96    0.50
   9 -15  -1   -1.42    0.70
   9  15   1    0.05    0.50
   9  15   1   -0.20    0.60
   9  15   0    0.10    0.50
   9 -15   0   -0.06    0.64
   9  15   0   -0.27    0.58
   9 -15   1   -0.15    0.64
   9  15  -1    1.11    0.61
   9  15  -1   -0.04    0.55
   9 -15   2    0.35    0.66
   9  15  -2    0.38    0.56
   9  15  -3   -0.26    0.49
   9 -15   3    0.39    0.68
  -9 -15   3    1.35    0.58
   9 -15   4    1.27    0.68
   9  15  -4    0.35    0.51
  -9 -15   4    1.24    0.62
   0  16  16    4.44    0.54
   0  16  15    3.37    0.50
   0  16  14    0.09    0.27
   0  16  13   -0.06    0.24
   0  16  12    0.03    0.27
   0  16  12    0.40    0.24
   0  16  11    0.89    0.25
   0  16  11    0.51    0.23
   0  16  10    0.93    0.23
   0  16  10    0.42    0.20
   0  16   9   22.56    0.82
   0 -16  -8   -0.23    0.26
   0 -16  -8   -0.22    0.25
   0  16   8   -0.31    0.16
   0 -16  -7    4.79    0.40
   0  16   7    4.01    0.36
   0 -16  -7    4.88    0.40
   0 -16  -6   17.44    0.63
   0  16   6   16.39    0.79
   0  16   6   16.93    0.67
   0 -16  -5    1.26    0.21
   0  16   5    1.32    0.20
   0  16   5    1.77    0.31
   0  16   4    4.87    0.42
   0  16   4    5.11    0.33
   0 -16  -4    5.16    0.32
   0  16   3   32.56    1.03
   0  16   3   34.02    1.15
   0 -16  -3   33.42    0.98
   0 -16  -2    0.19    0.13
   0  16   2    0.26    0.13
   0  16   2    0.00    0.20
   0  16   1    0.17    0.20
   0  16   1    0.35    0.15
   0 -16  -1    0.20    0.13
   0 -16   0    0.37    0.13
   0  16   0    0.08    0.19
   0  16   0    0.34    0.15
   0  16  -1    0.47    0.20
   0 -16   1    0.37    0.13
   0  16  -1    0.23    0.15
   0  16  -2   -0.20    0.18
   0  16  -2   -0.07    0.15
   0 -16   2    0.09    0.12
   0  16  -3   32.96    1.10
   0 -16   3   32.70    0.98
   0  16  -3   32.33    1.01
   0  16  -4    4.59    0.38
   0 -16   4    4.84    0.29
   0  16  -4    4.52    0.32
   0 -16   5    0.91    0.18
   0  16  -5    0.90    0.22
   0  16  -5    0.80    0.20
   0 -16   6   16.73    0.65
   0  16  -6   17.40    0.75
   0  16  -7    4.95    0.48
   0 -16   7    4.79    0.34
   0 -16   8    0.09    0.15
   0  16  -8   -0.23    0.21
   0 -16   9   24.47    0.84
   0  16  -9   22.18    0.91
   0 -16  10    1.13    0.22
   0  16 -10    0.62    0.27
   0 -16  11    0.45    0.21
   0 -16  12    0.42    0.24
   0 -16  13   -0.27    0.24
   0 -16  14    0.42    0.29
   0 -16  15    2.96    0.42
   0 -16  16    3.57    0.53
   1  16  16   -0.29    0.33
  -1  16  16    0.33    0.33
   1  16  15    0.51    0.31
  -1  16  15    0.20    0.32
   1  16  14    0.13    0.27
  -1  16  14    0.29    0.45
  -1  16  14    0.44    0.29
   1  16  13   -0.03    0.24
  -1  16  13   -0.40    0.24
  -1  16  13   -0.20    0.45
   1  16  12   -0.40    0.20
  -1  16  12    0.07    0.33
  -1  16  12    0.31    0.24
   1  16  11    3.39    0.35
  -1  16  11    2.80    0.35
  -1  16  11    2.73    0.33
   1  16  10    2.45    0.33
  -1  16  10    3.58    0.41
  -1  16  10    2.91    0.32
   1  16   9    1.25    0.23
  -1 -16  -9    1.49    0.22
  -1  16   9    1.18    0.25
  -1  16   9    1.47    0.25
  -1 -16  -9    1.43    0.21
   1  16   8   17.99    0.69
  -1  16   8   18.05    0.71
  -1  16   8   17.41    0.80
   1  16   7    0.62    0.21
   1 -16  -7    0.49    0.27
   1 -16  -7    0.80    0.29
  -1  16   7    0.24    0.20
  -1  16   7    0.47    0.30
   1 -16  -6    5.03    0.45
   1  16   6    4.76    0.36
   1 -16  -6    4.91    0.44
  -1  16   6    4.36    0.37
  -1  16   6    4.33    0.46
   1  16   5    6.52    0.36
   1 -16  -5    6.87    0.47
   1  16   5    6.03    0.56
  -1  16   5    5.83    0.46
  -1  16   5    5.71    0.40
   1  16   4    0.72    0.16
   1  16   4    0.75    0.27
   1 -16  -4    0.69    0.23
  -1  16   4    0.95    0.24
  -1 -16  -4    0.65    0.12
  -1 -16  -4    0.82    0.09
  -1  16   4    1.00    0.20
   1 -16  -3    8.01    0.45
   1  16   3    8.55    0.39
   1  16   3    8.27    0.57
  -1 -16  -3    8.26    0.28
  -1  16   3    8.42    0.47
  -1 -16  -3    8.18    0.34
  -1  16   3    7.72    0.42
   1  16   2   10.09    0.42
   1 -16  -2    9.72    0.48
   1  16   2    9.39    0.56
  -1 -16  -2    9.78    0.41
  -1  16   2    8.94    0.48
  -1  16   2   10.06    0.46
  -1 -16  -2    9.69    0.33
   1  16   1   25.46    0.81
   1  16   1   24.18    0.83
   1  16   1   24.64    0.96
   1  16   1   25.07    0.83
   1 -16  -1   25.78    0.85
  -1 -16  -1   25.13    0.72
  -1  16   1   25.26    0.85
  -1  16   1   26.48    0.88
   1 -16   0    0.19    0.16
   1  16   0    0.19    0.13
   1  16   0    0.14    0.22
  -1  16   0    0.37    0.19
  -1  16   0    0.22    0.15
   1  16  -1   26.08    0.80
   1  16  -1   24.04    0.94
   1 -16   1   24.97    0.83
  -1  16  -1   25.13    0.86
  -1 -16   1   24.47    0.74
  -1  16  -1   25.07    0.87
   1  16  -2   10.06    0.55
   1  16  -2    9.14    0.41
   1 -16   2    9.26    0.45
  -1 -16   2    9.94    0.38
  -1  16  -2    9.73    0.47
  -1  16  -2    9.80    0.48
   1 -16   3    8.69    0.43
   1  16  -3    8.51    0.38
   1  16  -3    7.91    0.52
  -1  16  -3    8.72    0.44
  -1  16  -3    8.11    0.45
  -1 -16   3    8.21    0.35
   1  16  -4    0.52    0.16
   1 -16   4    0.75    0.20
   1  16  -4    1.07    0.26
  -1  16  -4    0.55    0.19
  -1 -16   4    0.80    0.14
   1  16  -5    6.24    0.34
   1 -16   5    6.57    0.43
   1  16  -5    6.39    0.48
  -1  16  -5    6.46    0.42
  -1 -16   5    7.38    0.36
  -1  16  -5    6.66    0.40
   1 -16   6    4.34    0.34
   1  16  -6    3.83    0.45
  -1  16  -6    5.01    0.41
  -1 -16   6    3.98    0.36
   1  16  -7    0.64    0.26
   1 -16   7    0.22    0.17
  -1  16  -7    0.40    0.26
  -1 -16   7    0.46    0.17
   1 -16   8   17.74    0.70
   1  16  -8   19.02    0.79
  -1 -16   8   17.66    0.68
  -1  16  -8   17.76    0.79
   1  16  -9    1.33    0.29
   1 -16   9    1.40    0.23
  -1 -16   9    1.40    0.23
   1  16 -10    2.79    0.40
   1 -16  10    3.21    0.35
  -1 -16  10    3.29    0.35
   1 -16  11    2.79    0.35
   1  16 -11    2.53    0.37
  -1 -16  11    3.10    0.37
   1 -16  12   -0.08    0.22
   1  16 -12    0.23    0.29
  -1 -16  12    0.31    0.25
   1 -16  13    0.01    0.40
   1 -16  13    0.25    0.24
  -1 -16  13    0.05    0.26
   1 -16  14    0.19    0.29
  -1 -16  14    0.37    0.32
   1 -16  15    1.17    0.35
  -1 -16  15    1.10    0.34
   1 -16  16    1.23    0.43
  -1 -16  16    0.64    0.43
   2  16  16   -0.56    0.34
  -2  16  16    0.13    0.36
  -2  16  16   -0.33    0.61
   2  16  15    0.20    0.31
  -2  16  15   -0.56    0.32
  -2  16  15   -0.18    0.51
   2  16  14    2.67    0.38
  -2  16  14    2.13    0.45
  -2  16  14    3.17    0.41
   2  16  13    1.84    0.31
  -2  16  13    1.90    0.32
  -2  16  13    2.59    0.45
   2  16  12    0.44    0.24
  -2  16  12    0.21    0.37
  -2  16  12    0.26    0.25
   2  16  11    1.94    0.29
  -2  16  11    2.60    0.34
  -2  16  11    2.19    0.44
   2  16  10    0.48    0.22
  -2  16  10    0.73    0.24
  -2  16  10    0.36    0.34
  -2  16  10   -0.02    0.32
   2  16   9    1.95    0.25
  -2  16   9    1.72    0.35
  -2  16   9    2.39    0.37
  -2  16   9    1.79    0.26
   2  16   8    0.16    0.18
  -2  16   8   -0.16    0.28
  -2  16   8   -0.31    0.19
  -2  16   8    0.23    0.23
   2  16   7    9.44    0.49
   2 -16  -7    9.35    0.63
   2 -16  -7    9.37    0.63
  -2  16   7    8.60    0.49
  -2  16   7    7.81    0.52
   2  16   6    0.22    0.19
   2 -16  -6    0.54    0.31
   2 -16  -6    0.43    0.28
  -2  16   6    0.47    0.21
  -2  16   6    0.18    0.23
   2 -16  -5    7.64    0.53
   2 -16  -5    7.59    0.53
   2  16   5    7.25    0.39
  -2  16   5    7.15    0.46
  -2  16   5    6.52    0.42
   2 -16  -4    0.41    0.26
   2  16   4    1.05    0.18
   2  16   4    0.67    0.30
  -2  16   4    0.77    0.22
  -2  16   4    1.24    0.22
   2  16   3    0.94    0.17
   2 -16  -3    0.66    0.24
   2  16   3    0.54    0.29
  -2  16   3    0.33    0.19
  -2  16   3    0.72    0.19
   2  16   2   10.80    0.65
   2 -16  -2   10.51    0.55
   2  16   2   10.45    0.45
  -2  16   2   10.79    0.48
  -2  16   2   10.74    0.53
   2  16   1    3.64    0.29
   2  16   1    4.83    0.48
   2  16   1    4.19    0.26
   2 -16  -1    4.17    0.40
  -2  16   1    4.34    0.32
  -2 -16  -1    4.11    0.21
  -2  16   1    4.11    0.34
   2  16   0   -0.07    0.23
   2 -16   0    0.29    0.20
   2  16   0   -0.17    0.20
   2  16   0    0.21    0.13
  -2  16   0   -0.04    0.17
  -2 -16   0   -0.03    0.10
  -2  16   0    0.09    0.17
   2  16  -1    4.47    0.26
   2  16  -1    4.24    0.45
   2 -16   1    4.15    0.39
  -2 -16   1    4.41    0.25
  -2  16  -1    4.02    0.33
  -2  16  -1    4.17    0.35
   2  16  -2   10.72    0.41
   2 -16   2   10.45    0.54
   2  16  -2   10.59    0.61
  -2 -16   2    9.60    0.40
  -2  16  -2    9.89    0.47
  -2  16  -2    9.92    0.50
   2 -16   3    0.62    0.26
   2  16  -3    1.34    0.29
   2  16  -3    1.03    0.15
  -2  16  -3    0.70    0.19
  -2 -16   3    0.93    0.15
  -2  16  -3    0.79    0.21
   2  16  -4    0.86    0.15
   2  16  -4    0.61    0.27
   2 -16   4    0.66    0.23
  -2  16  -4    0.90    0.23
  -2 -16   4    0.43    0.15
  -2  16  -4    1.05    0.21
   2 -16   5    6.79    0.44
   2  16  -5    6.68    0.33
   2  16  -5    7.53    0.56
  -2  16  -5    6.75    0.43
  -2 -16   5    6.58    0.36
   2  16  -6    0.28    0.15
   2  16  -6    0.34    0.25
   2 -16   6    0.38    0.20
  -2 -16   6    0.11    0.20
   2 -16   7    8.11    0.47
   2  16  -7    8.19    0.51
  -2 -16   7    8.64    0.47
   2 -16   8    0.18    0.19
   2  16  -8    0.14    0.23
  -2 -16   8   -0.12    0.18
   2  16  -9    1.46    0.28
   2 -16   9    1.35    0.24
  -2 -16   9    1.58    0.26
   2 -16  10    0.31    0.21
   2  16 -10    0.28    0.27
  -2 -16  10    0.57    0.23
   2  16 -11    1.85    0.31
   2 -16  11    2.41    0.33
  -2 -16  11    2.68    0.40
   2 -16  12    0.25    0.23
   2  16 -12    0.23    0.31
  -2 -16  12   -0.24    0.26
   2 -16  13    1.25    0.46
   2 -16  13    1.70    0.30
   2  16 -13    1.82    0.40
  -2 -16  13    1.43    0.32
   2 -16  14    2.20    0.36
   2 -16  14    3.00    0.53
  -2 -16  14    2.54    0.41
   2 -16  15   -0.04    0.35
  -2 -16  15   -0.30    0.36
   2 -16  16    0.19    0.38
  -2 -16  16   -0.37    0.45
   3  16  15    1.93    0.40
  -3  16  15    1.57    0.43
  -3  16  15    2.27    0.55
   3  16  14    2.45    0.40
  -3  16  14    2.96    0.43
  -3  16  14    2.00    0.50
   3  16  13    7.35    0.58
  -3  16  13    7.50    0.77
  -3  16  13    7.38    0.61
   3  16  12    0.41    0.27
  -3  16  12   -0.10    0.37
  -3  16  12    0.70    0.30
   3  16  11   -0.01    0.25
  -3  16  11    0.65    0.34
  -3  16  11   -0.04    0.24
   3  16  10   -0.31    0.23
  -3  16  10   -0.12    0.33
  -3  16  10   -0.19    0.23
   3  16   9    0.82    0.24
  -3  16   9    0.83    0.31
  -3  16   9    0.83    0.24
   3  16   8    1.35    0.27
  -3  16   8    0.66    0.33
  -3  16   8    0.92    0.20
  -3  16   8    1.14    0.23
   3  16   7   17.31    0.70
   3 -16  -7   17.51    1.02
   3 -16  -7   18.14    1.03
  -3  16   7   15.48    0.53
  -3  16   7   15.16    0.69
   3  16   6   14.02    0.64
   3 -16  -6   13.12    0.94
   3 -16  -6   11.47    0.90
  -3  16   6   12.48    0.62
  -3  16   6   12.58    0.45
   3 -16  -5    2.66    0.47
   3 -16  -5    2.50    0.47
   3  16   5    1.94    0.28
  -3  16   5    1.92    0.30
  -3  16   5    2.10    0.24
   3 -16  -4    2.80    0.45
   3  16   4    3.49    0.32
   3 -16  -4    3.67    0.47
   3  16   4    3.46    0.50
  -3  16   4    3.36    0.38
  -3  16   4    3.61    0.28
   3 -16  -3    3.20    0.43
   3  16   3    3.38    0.27
   3  16   3    3.07    0.48
  -3  16   3    3.20    0.27
  -3  16   3    2.86    0.39
   3  16   2   -0.09    0.14
   3 -16  -2    0.04    0.31
   3  16   2    0.15    0.32
  -3  16   2    0.27    0.16
  -3  16   2    0.28    0.23
   3 -16  -1    4.13    0.51
   3  16   1    3.77    0.28
   3  16   1    3.97    0.54
   3  16   1    4.50    0.26
  -3  16   1    4.78    0.41
  -3  16   1    4.54    0.32
  -3 -16  -1    4.30    0.25
   3  16   0    0.18    0.14
   3  16   0    0.04    0.28
   3 -16   0    0.18    0.32
   3  16   0   -0.28    0.17
  -3  16   0    0.09    0.17
  -3  16   0   -0.21    0.20
  -3 -16   0    0.05    0.13
   3  16  -1    3.99    0.27
   3  16  -1    4.45    0.54
   3 -16   1    5.42    0.50
  -3  16  -1    3.77    0.32
  -3  16  -1    4.33    0.38
  -3 -16   1    4.55    0.28
   3  16  -2    0.29    0.32
   3  16  -2    0.14    0.12
   3 -16   2    0.21    0.24
  -3 -16   2    0.10    0.14
  -3  16  -2   -0.24    0.20
   3  16  -3    2.97    0.45
   3 -16   3    3.79    0.41
   3  16  -3    3.36    0.22
  -3  16  -3    3.01    0.35
  -3 -16   3    2.30    0.28
   3  16  -4    3.02    0.43
   3 -16   4    3.53    0.38
   3  16  -4    2.83    0.23
  -3 -16   4    3.42    0.30
   3  16  -5    2.35    0.22
   3 -16   5    2.00    0.30
   3  16  -5    2.46    0.37
  -3 -16   5    2.00    0.26
   3  16  -6   12.14    0.41
   3  16  -6   12.92    0.69
   3 -16   6   12.71    0.62
  -3 -16   6   12.51    0.64
   3 -16   7   15.85    0.70
   3  16  -7   14.18    0.73
  -3 -16   7   15.72    0.68
   3 -16   8    1.08    0.27
   3  16  -8    1.13    0.29
  -3 -16   8    1.10    0.25
   3  16  -9    0.73    0.30
   3 -16   9    0.86    0.25
  -3 -16   9    0.92    0.26
   3  16 -10    0.28    0.29
   3 -16  10    0.21    0.24
  -3 -16  10   -0.20    0.24
   3  16 -11    0.91    0.35
   3 -16  11    0.02    0.24
  -3 -16  11   -0.04    0.28
   3 -16  12    0.45    0.28
   3  16 -12   -0.02    0.33
  -3 -16  12   -0.28    0.30
   3 -16  13    5.63    0.54
   3  16 -13    6.62    0.65
  -3 -16  13    7.99    0.61
   3 -16  14    1.42    0.75
   3  16 -14    2.11    0.49
   3 -16  14    1.94    0.38
  -3 -16  14    2.48    0.45
   3 -16  15    1.60    0.42
   3 -16  15    0.69    0.69
  -3 -16  15    2.07    0.50
   4  16  15    1.04    0.42
  -4  16  15    1.88    0.61
  -4  16  15    1.12    0.45
   4  16  14    0.00    0.34
  -4  16  14    0.09    0.39
  -4  16  14    0.47    0.50
   4  16  13    0.26    0.35
  -4  16  13   -0.11    0.34
  -4  16  13   -0.82    0.43
   4  16  12    1.20    0.34
  -4  16  12    2.00    0.43
  -4  16  12    2.04    0.39
   4  16  11    2.27    0.35
  -4  16  11    1.86    0.37
  -4  16  11    1.91    0.40
   4  16  10    1.36    0.30
  -4  16  10    1.79    0.34
  -4  16  10    1.11    0.38
   4  16   9    0.44    0.25
  -4  16   9    0.64    0.33
  -4  16   9    0.81    0.29
   4  16   8    1.37    0.29
  -4  16   8    1.44    0.32
  -4  16   8    0.58    0.25
   4 -16  -7   10.65    0.84
   4 -16  -7    9.46    0.84
   4  16   7   11.27    0.60
  -4  16   7   11.41    0.61
   4  16   6   12.06    0.60
   4 -16  -6   11.14    0.81
   4 -16  -6   11.46    0.80
  -4  16   6   11.04    0.62
   4 -16  -5    1.03    0.38
   4  16   5    0.75    0.28
   4 -16  -5    0.86    0.39
  -4  16   5    0.94    0.27
   4 -16  -4    8.96    0.68
   4 -16  -4    7.45    0.66
   4  16   4    8.58    0.50
  -4  16   4    7.91    0.53
   4 -16  -3    6.06    0.63
   4  16   3    4.85    0.53
   4  16   3    6.09    0.38
  -4  16   3    6.49    0.47
   4  16   2    1.91    0.25
   4  16   2    1.71    0.37
   4 -16  -2    1.77    0.39
  -4  16   2    3.13    0.39
   4  16   1    0.38    0.32
   4  16   1    0.78    0.18
   4 -16  -1    0.98    0.30
  -4  16   1    0.39    0.26
  -4 -16  -1    0.65    0.16
   4  16   0    8.01    0.65
   4 -16   0    7.37    0.59
   4  16   0    7.59    0.37
  -4  16   0    7.26    0.56
  -4 -16   0    7.71    0.39
   4 -16   1    0.55    0.27
   4  16  -1    0.54    0.33
   4  16  -1    0.53    0.16
  -4  16  -1    0.23    0.26
  -4 -16   1    0.53    0.19
   4 -16   2    2.07    0.32
   4  16  -2    1.98    0.22
   4  16  -2    1.75    0.31
  -4 -16   2    2.06    0.30
  -4  16  -2    1.91    0.37
   4 -16   3    6.12    0.54
   4  16  -3    5.31    0.53
   4  16  -3    5.84    0.29
  -4 -16   3    5.42    0.39
   4  16  -4    7.86    0.59
   4 -16   4    8.71    0.57
   4  16  -4    7.61    0.33
  -4 -16   4    8.85    0.48
   4  16  -5    1.09    0.15
   4 -16   5    0.68    0.27
   4  16  -5    1.09    0.30
  -4 -16   5    0.93    0.28
   4 -16   6   10.86    0.63
   4  16  -6   10.45    0.63
  -4 -16   6   12.12    0.63
   4  16  -7    9.50    0.65
   4 -16   7    9.85    0.60
  -4 -16   7   10.41    0.59
   4  16  -8    1.27    0.34
   4 -16   8    0.82    0.28
  -4 -16   8    0.56    0.27
   4  16  -9    0.73    0.32
   4 -16   9    0.73    0.27
  -4 -16   9    0.03    0.26
   4 -16  10    1.32    0.28
   4  16 -10    2.00    0.35
  -4 -16  10    1.60    0.33
   4  16 -11    2.22    0.41
   4 -16  11    2.06    0.34
  -4 -16  11    2.34    0.40
   4 -16  12    1.49    0.37
   4  16 -12    1.88    0.47
  -4 -16  12    1.86    0.41
   4 -16  13   -0.35    0.32
   4  16 -13    0.27    0.41
  -4 -16  13    0.32    0.39
   4 -16  14    0.65    0.40
   4 -16  14    0.73    0.63
   4  16 -14   -0.71    0.45
  -4 -16  14   -0.47    0.42
   4 -16  15    0.51    0.40
   4 -16  15    1.39    0.77
   4  16 -15    1.32    0.53
  -4 -16  15    1.70    0.56
   5  16  14    2.15    0.47
  -5  16  14    0.82    0.56
   5  16  13   -0.35    0.37
  -5  16  13    1.50    0.52
  -5  16  13   -0.19    0.41
   5  16  12    0.79    0.39
  -5  16  12    0.40    0.39
  -5  16  12    0.16    0.47
   5  16  11    1.04    0.38
  -5  16  11    1.04    0.43
  -5  16  11    1.58    0.41
   5  16  10    0.37    0.31
  -5  16  10    0.11    0.32
  -5  16  10    0.02    0.40
   5  16   9    0.13    0.29
  -5  16   9    0.25    0.36
  -5  16   9    0.07    0.32
   5  16   8    0.12    0.30
  -5  16   8   -0.30    0.34
  -5  16   8    0.10    0.31
   5  16   7    1.49    0.33
   5 -16  -7    1.14    0.51
   5 -16  -7    1.34    0.50
  -5  16   7    0.96    0.33
   5 -16  -6    0.52    0.44
   5 -16  -6   -0.20    0.40
   5  16   6    0.50    0.28
  -5  16   6    0.34    0.28
   5  16   5    0.79    0.28
   5 -16  -5    1.14    0.45
   5 -16  -5    1.22    0.43
  -5  16   5    1.54    0.31
   5  16   4   11.56    0.66
   5 -16  -4   10.00    0.77
   5 -16  -4    9.38    0.76
  -5  16   4    9.41    0.61
   5  16   3    0.22    0.28
   5 -16  -3   -0.27    0.33
   5  16   3    0.34    0.33
  -5  16   3    0.31    0.27
   5  16   2    0.14    0.39
   5  16   2   -0.06    0.22
   5 -16  -2    0.41    0.34
  -5  16   2    0.03    0.27
   5  16   1    2.75    0.43
   5 -16  -1    2.15    0.42
   5  16   1    3.02    0.35
  -5  16   1    2.46    0.35
  -5 -16  -1    2.46    0.29
   5  16   0   -0.05    0.18
   5  16   0   -0.39    0.33
   5 -16   0   -0.36    0.30
  -5  16   0    0.00    0.26
  -5 -16   0    0.29    0.21
   5  16  -1    2.75    0.28
   5  16  -1    2.33    0.40
   5 -16   1    2.10    0.37
  -5 -16   1    2.66    0.38
   5  16  -2   -0.12    0.32
   5 -16   2    0.40    0.31
   5  16  -2   -0.14    0.16
  -5 -16   2    0.04    0.23
   5  16  -3    0.19    0.15
   5 -16   3   -0.03    0.28
   5  16  -3    1.02    0.33
  -5 -16   3    0.06    0.24
   5  16  -4   10.23    0.40
   5  16  -4   11.08    0.72
   5 -16   4   11.41    0.69
  -5 -16   4   10.58    0.64
   5  16  -5    1.39    0.34
   5 -16   5    1.11    0.29
  -5 -16   5    0.84    0.36
   5 -16   6    0.45    0.30
   5  16  -6   -0.07    0.32
  -5 -16   6    0.45    0.28
   5 -16   7    0.85    0.30
   5  16  -7    1.10    0.35
  -5 -16   7    0.91    0.34
   5 -16   8   -0.69    0.28
   5  16  -8   -0.12    0.31
  -5 -16   8   -0.01    0.31
   5 -16   9    0.37    0.32
   5  16  -9    0.63    0.38
  -5 -16   9   -0.14    0.33
   5 -16  10   -0.05    0.34
   5  16 -10    1.05    0.41
  -5 -16  10   -0.19    0.36
   5 -16  11    1.22    0.36
   5  16 -11    1.03    0.41
  -5 -16  11    1.04    0.41
   5  16 -12    0.74    0.47
   5 -16  12    1.17    0.39
  -5 -16  12    0.27    0.43
   5 -16  13    0.33    0.43
   5  16 -13    0.00    0.46
  -5 -16  13    0.11    0.46
   5 -16  14    1.58    0.44
   5  16 -14    1.42    0.54
  -5 -16  14    2.20    0.63
   6  16  12    1.57    0.48
  -6  16  12    0.37    0.55
  -6  16  12    0.69    0.49
   6  16  11    2.75    0.49
  -6  16  11    3.35    0.59
  -6  16  11    5.07    0.76
   6  16  10   -0.17    0.38
  -6  16  10   -0.20    0.38
  -6  16  10    0.00    0.43
   6  16   9    6.51    0.65
  -6  16   9    5.82    0.70
  -6  16   9    4.86    0.67
   6  16   8    2.82    0.43
  -6  16   8    2.38    0.46
  -6  16   8    2.78    0.47
   6 -16  -7    1.97    0.56
   6  16   7    1.82    0.37
   6 -16  -7    2.10    0.59
  -6  16   7    2.02    0.40
   6  16   6    3.32    0.50
   6 -16  -6    2.39    0.54
  -6  16   6    2.49    0.43
   6  16   5    1.31    0.32
   6 -16  -5    1.14    0.51
  -6  16   5    1.16    0.34
   6 -16  -4    0.90    0.48
   6 -16  -4    1.42    0.47
   6  16   4    0.36    0.30
  -6  16   4    0.83    0.31
   6  16   3    0.09    0.30
   6  16   3    0.21    0.41
   6 -16  -3   -0.07    0.40
   6 -16  -3    0.21    0.40
  -6  16   3    0.50    0.31
   6  16   2    0.11    0.34
   6  16   2    0.63    0.42
   6 -16  -2   -0.47    0.38
  -6  16   2   -0.26    0.28
   6  16   1    8.93    0.57
   6 -16  -1    8.27    0.78
   6  16   1   10.35    0.80
  -6 -16  -1    9.73    0.47
   6  16   0   26.35    0.90
   6  16   0   26.65    1.24
   6 -16   0   25.47    1.18
  -6 -16   0   25.34    0.87
   6  16  -1    9.52    0.76
   6  16  -1    9.01    0.47
   6 -16   1    7.98    0.71
  -6 -16   1    8.46    0.54
   6  16  -2   -0.25    0.21
   6 -16   2    0.21    0.33
   6  16  -2   -0.13    0.40
  -6 -16   2    0.11    0.28
   6  16  -3    0.15    0.20
   6  16  -3    0.78    0.39
   6 -16   3    0.07    0.35
  -6 -16   3    0.40    0.36
   6  16  -4    0.63    0.41
   6 -16   4    0.54    0.35
  -6 -16   4    0.71    0.44
   6  16  -5    0.21    0.38
   6 -16   5    0.85    0.37
  -6 -16   5    0.87    0.37
   6 -16   6    1.74    0.38
   6  16  -6    1.36    0.42
  -6 -16   6    2.26    0.45
   6 -16   7    1.74    0.40
   6  16  -7    1.25    0.41
  -6 -16   7    1.84    0.44
   6  16  -8    2.51    0.49
   6 -16   8    2.93    0.48
  -6 -16   8    3.05    0.50
   6  16  -9    4.79    0.66
   6 -16   9    5.63    0.64
  -6 -16   9    6.41    0.78
   6 -16  10   -0.87    0.38
   6  16 -10   -0.12    0.45
  -6 -16  10   -0.76    0.47
   6  16 -11    3.10    0.55
   6 -16  11    3.23    0.55
  -6 -16  11    4.03    0.61
   6  16 -12    1.27    0.52
   6 -16  12    2.70    0.52
  -6 -16  12    1.41    0.55
   7  16  10   -0.19    0.43
  -7  16  10    0.32    0.49
  -7  16  10    0.03    0.54
   7  16   9    1.15    0.44
  -7  16   9    1.18    0.51
  -7  16   9    0.03    0.50
   7 -16  -8   -0.07    0.61
   7 -16  -8   -0.67    0.57
   7  16   8   -0.19    0.36
  -7  16   8    0.02    0.45
   7 -16  -7    0.57    0.62
   7 -16  -7   -0.02    0.58
   7  16   7   -0.12    0.36
  -7  16   7    0.17    0.42
   7 -16  -6    0.31    0.52
   7  16   6    0.31    0.35
   7 -16  -6    0.73    0.53
  -7  16   6    0.30    0.39
   7  16   5    0.52    0.36
   7 -16  -5    0.13    0.55
   7 -16  -5   -0.29    0.56
  -7  16   5    1.22    0.41
   7  16   4    2.12    0.39
   7  16   4    1.40    0.56
   7 -16  -4    2.68    0.58
   7 -16  -4    3.14    0.60
  -7  16   4    2.70    0.47
   7  16   3    0.18    0.32
   7 -16  -3    0.42    0.46
   7  16   2    0.69    0.46
   7  16   2    0.42    0.31
   7 -16  -2    0.65    0.49
   7  16   1   -0.15    0.34
   7 -16  -1   -0.39    0.47
   7  16   1   -0.46    0.46
   7  16   0   -0.21    0.36
   7  16   0    0.24    0.44
   7 -16   0   -0.22    0.42
  -7 -16   0   -0.58    0.28
   7  16  -1    1.40    0.48
   7 -16   1    0.44    0.41
   7  16  -1    0.24    0.27
  -7 -16   1    0.05    0.31
   7 -16   2    0.66    0.41
   7  16  -2   -0.09    0.43
   7  16  -2    1.01    0.27
  -7 -16   2    0.51    0.42
   7  16  -3   -0.28    0.43
   7 -16   3   -0.18    0.41
  -7 -16   3    0.05    0.42
   7  16  -4    2.95    0.57
   7 -16   4    2.84    0.49
  -7 -16   4    2.48    0.46
   7  16  -5    0.49    0.44
   7 -16   5   -0.34    0.40
  -7 -16   5    0.52    0.43
   7 -16   6    0.53    0.44
   7  16  -6    0.60    0.44
  -7 -16   6    0.49    0.48
   7  16  -7    0.50    0.43
   7 -16   7    0.35    0.42
  -7 -16   7    0.47    0.49
   7  16  -8   -0.34    0.43
   7 -16   8    0.10    0.43
  -7 -16   8    0.18    0.50
   7  16  -9    0.67    0.44
   7 -16   9    1.03    0.48
  -7 -16   9    1.89    0.60
   7  16 -10   -0.23    0.51
   7 -16  10   -0.41    0.51
  -7 -16  10    0.51    0.58
   8 -16  -7    1.90    0.78
   8 -16  -7    1.00    0.75
   8  16   7    1.98    0.53
   8 -16  -6    0.19    0.67
   8  16   6   -0.50    0.44
   8 -16  -6   -0.72    0.68
   8 -16  -5   -0.10    0.65
   8  16   5   -0.56    0.38
   8 -16  -5    1.69    0.72
   8  16   4    2.22    0.47
   8 -16  -4    2.41    0.66
   8 -16  -4    1.97    0.68
   8  16   4    3.09    0.72
   8  16   3    3.89    0.77
   8  16   3    3.69    0.49
   8 -16  -3    3.46    0.68
   8 -16  -2    0.76    0.57
   8  16   2    1.84    0.40
   8  16   2    0.72    0.61
   8 -16  -1   -0.52    0.54
   8  16   1   -0.18    0.36
   8  16   1    0.23    0.58
   8 -16   0    0.22    0.53
   8  16   0   -0.17    0.38
   8  16   0    0.46    0.54
   8  16  -1   -0.86    0.44
   8  16  -1   -0.81    0.50
   8 -16   1    0.67    0.50
   8  16  -2    0.71    0.52
   8 -16   2    0.48    0.50
  -8 -16   2    0.69    0.49
   8 -16   3    3.64    0.63
   8  16  -3    2.77    0.59
  -8 -16   3    3.99    0.57
   8  16  -4    2.37    0.58
   8 -16   4    2.64    0.63
  -8 -16   4    2.74    0.59
   8  16  -5    0.51    0.52
   8 -16   5    0.15    0.59
  -8 -16   5   -0.16    0.54
   8  16  -6   -0.40    0.47
   8 -16   6   -0.11    0.54
  -8 -16   6   -0.42    0.56
   8  16  -7    2.24    0.53
   8 -16   7    0.95    0.55
  -8 -16   7    2.35    0.66
   9 -16  -1    1.60    0.72
   9  16   1    1.59    0.71
   9 -16   0    0.36    0.67
   9  16   0    0.17    0.62
   9  16   0   -0.73    0.51
   9  16  -1    1.18    0.60
   9 -16   1    0.19    0.63
   0  17  16   -0.44    0.36
   0  17  15   -0.03    0.31
   0  17  14    0.06    0.27
   0  17  13   -0.02    0.25
   0  17  12   -0.22    0.22
   0  17  11    0.18    0.31
   0  17  11    0.43    0.21
   0  17  10    0.23    0.19
   0  17   9    0.23    0.17
   0 -17  -9   -0.03    0.30
   0 -17  -9   -0.31    0.28
   0  17   8   -0.07    0.18
   0 -17  -8    0.27    0.27
   0 -17  -8   -0.38    0.25
   0  17   7   -0.19    0.17
   0 -17  -7    0.04    0.22
   0  17   7   -0.33    0.32
   0 -17  -6   -0.26    0.19
   0  17   6   -0.06    0.30
   0  17   6    0.32    0.20
   0  17   5    0.11    0.18
   0  17   5    0.24    0.28
   0 -17  -5   -0.37    0.17
   0  17   4   -0.13    0.15
   0  17   4   -0.07    0.24
   0 -17  -4    0.11    0.16
   0  17   3    0.39    0.16
   0 -17  -3   -0.29    0.14
   0  17   3    0.18    0.23
   0  17   2   -0.05    0.21
   0  17   2    0.06    0.15
   0 -17  -2   -0.06    0.14
   0  17   1   -0.11    0.15
   0 -17  -1   -0.04    0.13
   0  17   1    0.22    0.21
   0 -17   0    0.10    0.13
   0  17   0    0.11    0.16
   0  17   0    0.08    0.20
   0  17  -1    0.07    0.21
   0 -17   1   -0.17    0.12
   0  17  -1    0.08    0.16
   0  17  -2    0.22    0.20
   0  17  -2    0.24    0.17
   0 -17   2    0.23    0.14
   0 -17   3    0.18    0.12
   0  17  -3    0.07    0.20
   0  17  -3    0.22    0.18
   0  17  -4   -0.13    0.17
   0  17  -4   -0.39    0.20
   0 -17   4   -0.04    0.14
   0  17  -5    0.14    0.18
   0 -17   5    0.38    0.19
   0  17  -5   -0.17    0.21
   0 -17   6    0.53    0.17
   0  17  -6    0.11    0.27
   0 -17   7   -0.01    0.16
   0  17  -7   -0.15    0.20
   0 -17   8    0.00    0.18
   0  17  -8   -0.03    0.21
   0 -17   9    0.26    0.18
   0  17  -9   -0.12    0.21
   0 -17  10   -0.04    0.18
   0  17 -10   -0.23    0.26
   0 -17  12   -0.06    0.23
   0 -17  13    0.27    0.27
   0 -17  14    0.30    0.31
   0 -17  15   -0.29    0.33
   0 -17  16    0.05    0.40
   1  17  16    1.12    0.40
  -1  17  16    1.03    0.39
   1  17  15    1.88    0.36
  -1  17  15    1.48    0.37
   1  17  14    1.38    0.31
  -1  17  14    1.51    0.35
   1  17  13    1.64    0.32
  -1  17  13    1.78    0.34
  -1  17  13    1.47    0.50
   1  17  12    0.10    0.23
  -1  17  12    0.36    0.24
  -1  17  12    0.72    0.35
   1  17  11    0.52    0.22
  -1  17  11    0.94    0.30
  -1  17  11    0.29    0.22
   1  17  10    7.64    0.46
  -1  17  10    7.42    0.49
  -1  17  10    7.58    0.47
   1  17   9    0.17    0.19
  -1  17   9    0.47    0.20
  -1  17   9    0.88    0.36
   1  17   8    2.24    0.30
   1 -17  -8    2.40    0.37
   1 -17  -8    2.54    0.38
  -1  17   8    2.09    0.27
  -1  17   8    1.96    0.39
   1  17   7   -0.05    0.17
   1 -17  -7    0.07    0.26
   1 -17  -7   -0.01    0.28
  -1  17   7   -0.44    0.29
  -1  17   7   -0.06    0.17
   1  17   6    0.04    0.18
   1 -17  -6   -0.20    0.24
   1  17   6   -0.03    0.31
  -1  17   6    0.38    0.19
  -1  17   6    0.40    0.27
   1  17   5    0.24    0.29
   1 -17  -5    0.39    0.23
   1  17   5    0.38    0.19
  -1  17   5    0.57    0.26
  -1  17   5    0.17    0.21
   1  17   4   10.72    0.47
   1  17   4   10.31    0.66
   1 -17  -4   10.99    0.53
  -1 -17  -4   10.26    0.33
  -1  17   4   10.52    0.56
  -1  17   4   10.54    0.52
  -1 -17  -4    9.72    0.36
   1  17   3    1.24    0.19
   1 -17  -3    1.30    0.24
   1  17   3    1.19    0.30
  -1 -17  -3    1.54    0.15
  -1  17   3    1.34    0.26
  -1  17   3    1.60    0.23
  -1 -17  -3    1.34    0.17
   1 -17  -2    6.20    0.40
   1  17   2    5.83    0.48
   1  17   2    5.77    0.33
  -1  17   2    5.44    0.36
  -1 -17  -2    5.76    0.25
  -1  17   2    5.38    0.40
  -1 -17  -2    5.80    0.35
   1  17   1    6.73    0.35
   1  17   1    7.45    0.50
   1 -17  -1    6.69    0.40
  -1 -17  -1    6.99    0.29
  -1  17   1    6.68    0.41
  -1  17   1    7.40    0.44
   1  17   0   19.66    0.82
   1 -17   0   18.88    0.70
   1  17   0   19.17    0.67
  -1 -17   0   19.21    0.59
  -1  17   0   19.61    0.73
  -1  17   0   19.60    0.72
   1  17  -1    6.98    0.36
   1  17  -1    7.88    0.50
   1 -17   1    7.20    0.40
  -1  17  -1    6.73    0.41
  -1  17  -1    6.62    0.42
  -1 -17   1    7.09    0.31
   1  17  -2    5.30    0.45
   1 -17   2    5.39    0.36
   1  17  -2    5.21    0.32
  -1  17  -2    5.54    0.40
  -1 -17   2    5.39    0.29
  -1  17  -2    5.49    0.37
   1 -17   3    1.29    0.22
   1  17  -3    1.68    0.30
   1  17  -3    1.75    0.25
  -1  17  -3    1.43    0.25
  -1 -17   3    1.51    0.20
  -1  17  -3    1.64    0.24
   1  17  -4   10.00    0.60
   1 -17   4    9.45    0.51
   1  17  -4   10.10    0.44
  -1  17  -4   10.59    0.50
  -1 -17   4   10.14    0.42
  -1  17  -4   10.28    0.53
   1 -17   5    0.27    0.19
   1  17  -5    0.64    0.29
   1  17  -5    0.98    0.18
  -1 -17   5    0.26    0.16
  -1  17  -5    0.52    0.21
  -1  17  -5    0.53    0.22
   1 -17   6    0.13    0.17
   1  17  -6   -0.05    0.24
   1  17  -6    0.13    0.18
  -1  17  -6   -0.29    0.23
  -1 -17   6    0.20    0.18
   1 -17   7   -0.19    0.17
   1  17  -7    0.07    0.23
  -1  17  -7    0.12    0.28
  -1 -17   7   -0.03    0.17
   1 -17   8    2.01    0.31
   1  17  -8    2.05    0.33
  -1  17  -8    2.27    0.34
  -1 -17   8    2.93    0.31
   1  17  -9    0.30    0.26
   1 -17   9    0.55    0.19
  -1 -17   9    0.67    0.21
   1 -17  10    7.94    0.49
   1  17 -10    6.22    0.50
  -1 -17  10    7.79    0.46
   1 -17  11    0.63    0.24
   1  17 -11    0.86    0.30
  -1 -17  11    0.61    0.24
   1  17 -12    0.36    0.31
   1 -17  12    0.33    0.26
  -1 -17  12    0.29    0.25
   1 -17  13    1.40    0.30
  -1 -17  13    1.70    0.31
   1 -17  14    2.02    0.35
  -1 -17  14    1.44    0.37
   1 -17  15    1.62    0.40
  -1 -17  15    1.86    0.42
   1 -17  16    1.16    0.41
  -1 -17  16    1.68    0.47
   2  17  15    0.94    0.34
  -2  17  15    1.10    0.76
  -2  17  15    0.81    0.37
   2  17  14    0.12    0.28
  -2  17  14    0.21    0.49
  -2  17  14   -0.35    0.31
   2  17  13    0.36    0.28
  -2  17  13   -0.08    0.29
  -2  17  13    0.80    0.41
   2  17  12    1.68    0.30
  -2  17  12    2.03    0.33
  -2  17  12    3.21    0.44
   2  17  11   10.44    0.57
  -2  17  11   10.25    0.74
  -2  17  11    9.96    0.69
  -2  17  11   10.97    0.60
   2  17  10    0.50    0.22
  -2  17  10   -0.09    0.37
  -2  17  10    0.83    0.27
  -2  17  10    0.36    0.35
   2  17   9    1.16    0.25
  -2  17   9    0.79    0.25
  -2  17   9    0.83    0.34
  -2  17   9    1.61    0.33
   2 -17  -8    4.00    0.50
   2  17   8    3.60    0.35
   2 -17  -8    3.27    0.47
  -2  17   8    3.89    0.38
  -2  17   8    3.10    0.45
   2  17   7    1.60    0.24
   2 -17  -7    0.95    0.35
   2 -17  -7    1.13    0.37
  -2  17   7    1.21    0.23
  -2  17   7    1.42    0.29
   2 -17  -6    1.04    0.33
   2  17   6    1.18    0.25
   2 -17  -6    1.00    0.31
  -2  17   6    1.02    0.23
  -2  17   6    0.72    0.26
   2 -17  -5    1.20    0.29
   2  17   5    0.94    0.22
   2  17   5    0.84    0.34
  -2  17   5    1.31    0.24
  -2  17   5    1.02    0.25
   2  17   4    0.87    0.33
   2  17   4    0.49    0.17
   2 -17  -4    0.06    0.25
  -2  17   4    0.20    0.22
  -2  17   4    0.73    0.24
   2 -17  -3   49.23    1.54
   2  17   3   50.70    1.44
   2  17   3   49.09    1.68
  -2  17   3   49.74    1.44
  -2  17   3   48.75    1.53
   2  17   2   18.70    0.88
   2  17   2   18.37    0.65
   2 -17  -2   19.48    0.77
  -2 -17  -2   18.07    0.52
  -2 -17  -2   17.85    0.55
  -2  17   2   18.34    0.74
  -2  17   2   18.50    0.69
   2  17   1    1.34    0.31
   2  17   1    1.49    0.20
   2  17   1    0.93    0.17
   2 -17  -1    1.41    0.24
   2  17   1    1.68    0.20
  -2 -17  -1    1.31    0.17
  -2  17   1    1.32    0.23
  -2  17   1    1.13    0.22
   2 -17   0    0.14    0.20
   2  17   0   -0.04    0.24
   2  17   0    0.06    0.14
  -2 -17   0   -0.08    0.11
  -2  17   0    0.11    0.19
  -2  17   0    0.02    0.18
   2  17  -1    1.23    0.31
   2  17  -1    1.15    0.18
   2 -17   1    0.96    0.26
  -2  17  -1    0.95    0.23
  -2 -17   1    1.24    0.15
  -2  17  -1    1.04    0.22
   2 -17   2   16.92    0.77
   2  17  -2   19.08    0.87
   2  17  -2   19.55    0.63
  -2  17  -2   19.20    0.74
  -2  17  -2   18.75    0.71
  -2 -17   2   18.09    0.61
   2  17  -3   47.17    1.59
   2 -17   3   48.17    1.50
   2  17  -3   48.48    1.34
  -2 -17   3   47.13    1.34
  -2  17  -3   47.49    1.47
  -2  17  -3   49.36    1.46
   2 -17   4    0.68    0.21
   2  17  -4    0.41    0.15
   2  17  -4    0.31    0.28
  -2  17  -4    0.54    0.21
  -2  17  -4    0.54    0.20
  -2 -17   4    0.29    0.14
   2 -17   5    1.16    0.23
   2  17  -5    0.48    0.29
   2  17  -5    0.94    0.18
  -2  17  -5    1.07    0.25
  -2 -17   5    1.04    0.21
   2  17  -6    0.88    0.23
   2  17  -6    0.99    0.17
   2 -17   6    1.29    0.23
  -2  17  -6    0.95    0.26
  -2 -17   6    0.81    0.25
   2 -17   7    1.40    0.24
   2  17  -7    1.50    0.29
  -2 -17   7    1.37    0.24
   2 -17   8    3.79    0.39
   2  17  -8    4.05    0.44
  -2 -17   8    3.20    0.38
   2  17  -9    1.20    0.28
   2 -17   9    0.99    0.23
  -2 -17   9    1.19    0.26
   2  17 -10    0.52    0.30
   2 -17  10    0.53    0.24
  -2 -17  10    0.36    0.23
   2 -17  11   10.27    0.58
   2  17 -11   10.13    0.64
  -2 -17  11    9.81    0.61
   2 -17  12    2.32    0.33
   2  17 -12    1.98    0.41
  -2 -17  12    2.43    0.36
   2 -17  13   -0.13    0.28
   2  17 -13    0.48    0.36
  -2 -17  13    0.53    0.31
   2 -17  14   -0.18    0.31
  -2 -17  14    0.78    0.37
   2 -17  15    0.69    0.38
  -2 -17  15   -0.15    0.43
   3  17  15   -0.06    0.33
  -3  17  15    0.73    0.40
  -3  17  15   -0.37    0.57
   3  17  14   11.05    0.71
  -3  17  14   10.10    0.88
  -3  17  14   10.58    0.76
   3  17  13    1.72    0.34
  -3  17  13    2.19    0.46
  -3  17  13    1.66    0.36
   3  17  12    0.54    0.29
  -3  17  12    0.38    0.29
  -3  17  12    0.93    0.40
   3  17  11    0.96    0.28
  -3  17  11    0.80    0.29
  -3  17  11    0.08    0.35
   3  17  10    0.76    0.26
  -3  17  10    0.86    0.27
  -3  17  10    0.20    0.32
   3  17   9    1.88    0.30
  -3  17   9    1.63    0.32
  -3  17   9    1.62    0.30
   3 -17  -8    4.35    0.60
   3 -17  -8    4.14    0.61
   3  17   8    3.41    0.38
  -3  17   8    4.22    0.40
   3 -17  -7    7.54    0.82
   3  17   7    7.29    0.46
   3 -17  -7    8.00    0.82
  -3  17   7    7.07    0.36
  -3  17   7    6.56    0.48
   3  17   6    3.88    0.38
   3 -17  -6    4.13    0.60
   3 -17  -6    3.68    0.57
  -3  17   6    3.54    0.38
  -3  17   6    3.51    0.28
   3 -17  -5    0.94    0.49
   3 -17  -5    0.51    0.45
   3  17   5    0.62    0.25
  -3  17   5    0.55    0.18
  -3  17   5    0.36    0.22
   3  17   4    2.03    0.49
   3 -17  -4    2.38    0.50
   3  17   4    1.84    0.25
  -3  17   4    2.14    0.28
  -3  17   4    2.11    0.31
   3 -17  -3   13.52    0.81
   3  17   3   14.36    0.57
   3  17   3   13.88    0.90
  -3  17   3   13.31    0.52
  -3  17   3   13.87    0.68
   3  17   2    2.38    0.47
   3 -17  -2    2.08    0.44
   3  17   2    1.72    0.24
  -3  17   2    1.63    0.32
  -3  17   2    2.17    0.27
   3  17   1    0.58    0.17
   3 -17  -1    0.70    0.36
   3  17   1    0.63    0.39
   3  17   1    0.25    0.15
  -3  17   1    0.42    0.18
  -3  17   1    0.20    0.26
  -3 -17  -1    0.32    0.14
   3  17   0    4.90    0.31
   3  17   0    5.57    0.62
   3 -17   0    5.51    0.55
   3  17   0    5.39    0.38
  -3  17   0    5.24    0.36
  -3  17   0    5.22    0.46
  -3 -17   0    5.08    0.29
   3  17  -1    0.57    0.31
   3 -17   1    0.83    0.28
   3  17  -1    0.43    0.16
  -3  17  -1    0.45    0.20
  -3  17  -1    0.13    0.23
  -3 -17   1    0.29    0.15
   3  17  -2    1.80    0.23
   3  17  -2    1.85    0.40
   3 -17   2    2.25    0.32
  -3 -17   2    1.82    0.27
  -3  17  -2    2.21    0.32
   3  17  -3   13.36    0.47
   3 -17   3   12.52    0.65
   3  17  -3   13.89    0.73
  -3 -17   3   12.31    0.52
  -3  17  -3   12.63    0.64
   3  17  -4    2.60    0.24
   3 -17   4    2.24    0.30
   3  17  -4    1.83    0.33
  -3 -17   4    2.46    0.31
   3  17  -5    0.04    0.25
   3 -17   5    0.39    0.23
   3  17  -5    0.47    0.15
  -3 -17   5    0.44    0.22
   3  17  -6    4.27    0.34
   3  17  -6    3.94    0.45
   3 -17   6    3.88    0.43
  -3 -17   6    4.29    0.45
   3 -17   7    7.92    0.51
   3  17  -7    7.54    0.55
  -3 -17   7    7.14    0.46
   3  17  -8    3.61    0.46
   3 -17   8    4.22    0.42
  -3 -17   8    3.57    0.40
   3  17  -9    0.98    0.32
   3 -17   9    1.52    0.27
  -3 -17   9    0.99    0.28
   3  17 -10    0.03    0.29
   3 -17  10    0.31    0.26
  -3 -17  10    0.26    0.28
   3  17 -11    0.81    0.36
   3 -17  11    0.49    0.29
  -3 -17  11    0.77    0.32
   3  17 -12   -0.12    0.36
   3 -17  12    0.23    0.29
  -3 -17  12    0.62    0.33
   3 -17  13    2.05    0.35
   3  17 -13    1.45    0.42
  -3 -17  13    0.59    0.38
   3 -17  14    7.35    1.12
   3 -17  14    9.92    0.71
   3  17 -14    8.43    0.77
  -3 -17  14   10.81    0.80
   3 -17  15    1.18    0.41
   3  17 -15   -0.83    0.45
   3 -17  15   -0.08    0.76
  -3 -17  15   -0.13    0.47
   4  17  14    0.14    0.38
  -4  17  14   -0.58    0.38
  -4  17  14    0.64    0.56
   4  17  13    1.30    0.39
  -4  17  13    1.47    0.42
  -4  17  13    2.00    0.51
   4  17  12    2.22    0.40
  -4  17  12    2.09    0.48
  -4  17  12    2.66    0.40
   4  17  11    0.45    0.31
  -4  17  11   -0.01    0.39
  -4  17  11    0.47    0.34
   4  17  10   -0.09    0.27
  -4  17  10   -0.04    0.36
  -4  17  10    0.30    0.29
   4  17   9    5.25    0.49
  -4  17   9    5.33    0.60
  -4  17   9    6.26    0.53
   4 -17  -8    8.45    0.86
   4  17   8    8.17    0.54
   4 -17  -8    7.74    0.86
  -4  17   8    8.18    0.57
   4 -17  -7   -0.12    0.41
   4 -17  -7   -0.32    0.41
   4  17   7   -0.34    0.23
  -4  17   7   -0.22    0.24
   4 -17  -6   -0.27    0.37
   4  17   6   -0.27    0.24
   4 -17  -6    0.63    0.41
  -4  17   6   -0.08    0.23
   4 -17  -5    0.00    0.38
   4 -17  -5    0.35    0.37
   4  17   5    0.15    0.23
  -4  17   5   -0.45    0.23
   4  17   4   20.66    1.05
   4 -17  -4   22.52    1.01
   4  17   4   21.77    0.86
   4 -17  -4   21.71    1.02
  -4  17   4   21.30    0.90
   4  17   3   -0.15    0.30
   4  17   3   -0.13    0.21
   4 -17  -3   -0.19    0.34
  -4  17   3   -0.26    0.23
   4 -17  -2    5.60    0.60
   4  17   2    5.97    0.38
   4  17   2    5.34    0.59
  -4  17   2    5.25    0.43
   4  17   1    0.14    0.34
   4 -17  -1   -0.03    0.30
   4  17   1    0.20    0.16
  -4 -17  -1    0.05    0.15
  -4  17   1   -0.05    0.25
   4  17   0    0.15    0.33
   4  17   0   -0.24    0.16
   4 -17   0   -0.12    0.26
  -4  17   0    0.03    0.26
  -4 -17   0   -0.05    0.17
   4 -17   1    0.02    0.27
   4  17  -1    0.02    0.15
   4  17  -1   -0.28    0.29
  -4 -17   1    0.07    0.19
  -4  17  -1   -0.33    0.27
   4  17  -2    5.69    0.31
   4  17  -2    5.57    0.55
   4 -17   2    4.78    0.50
  -4  17  -2    5.37    0.54
  -4 -17   2    5.08    0.38
   4 -17   3    0.07    0.26
   4  17  -3    0.16    0.14
  -4 -17   3    0.00    0.19
   4  17  -4   22.19    0.67
   4  17  -4   21.35    0.97
   4 -17   4   21.73    0.94
  -4 -17   4   21.85    0.80
   4  17  -5    0.38    0.17
   4 -17   5   -0.17    0.25
   4  17  -5   -0.48    0.28
  -4 -17   5    0.11    0.27
   4 -17   6   -0.21    0.25
   4  17  -6   -0.29    0.26
  -4 -17   6    0.16    0.26
   4 -17   7    0.45    0.26
   4  17  -7    0.07    0.30
  -4 -17   7    0.17    0.26
   4 -17   8    7.29    0.55
   4  17  -8    8.15    0.60
  -4 -17   8    7.01    0.57
   4  17  -9    5.20    0.58
   4 -17   9    5.67    0.51
  -4 -17   9    4.45    0.55
   4 -17  10   -0.12    0.27
   4  17 -10   -0.44    0.32
  -4 -17  10   -0.28    0.31
   4 -17  11   -0.24    0.30
   4  17 -11    0.05    0.38
  -4 -17  11   -0.62    0.33
   4  17 -12    2.00    0.47
   4 -17  12    1.54    0.37
  -4 -17  12    1.71    0.42
   4 -17  13    0.79    0.39
   4  17 -13    1.11    0.48
  -4 -17  13    1.88    0.46
   4 -17  14   -0.23    0.40
   4  17 -14    0.59    0.50
  -4 -17  14    0.93    0.49
   5  17  13    1.39    0.42
  -5  17  13    0.29    0.56
  -5  17  13    0.89    0.47
   5  17  12   -0.10    0.38
  -5  17  12   -0.58    0.42
  -5  17  12   -0.23    0.49
   5  17  11    0.86    0.38
  -5  17  11    0.45    0.43
  -5  17  11    0.98    0.40
   5  17  10    2.82    0.42
  -5  17  10    2.50    0.44
  -5  17  10    2.50    0.44
   5  17   9    0.78    0.33
  -5  17   9    0.50    0.36
  -5  17   9    0.38    0.37
   5 -17  -8   -0.36    0.55
   5  17   8   -0.04    0.29
   5 -17  -8    0.48    0.54
  -5  17   8    0.68    0.32
   5 -17  -7    0.82    0.49
   5  17   7    0.63    0.29
   5 -17  -7    0.12    0.46
  -5  17   7    0.50    0.34
   5 -17  -6    1.25    0.46
   5  17   6    1.66    0.32
   5 -17  -6    1.78    0.47
  -5  17   6    1.59    0.32
   5 -17  -5   -0.18    0.43
   5  17   5   -0.01    0.27
   5 -17  -5   -0.02    0.41
  -5  17   5    0.62    0.30
   5  17   4    2.96    0.44
   5 -17  -4    3.21    0.50
   5  17   4    2.74    0.47
   5 -17  -4    2.54    0.47
  -5  17   4    2.72    0.38
   5 -17  -3   19.46    1.00
   5  17   3   19.55    0.84
   5  17   3   19.50    1.04
  -5  17   3   18.08    0.87
   5  17   2    8.96    0.74
   5  17   2    9.86    0.56
   5 -17  -2    9.03    0.77
  -5  17   2    9.94    0.62
   5 -17  -1    1.15    0.39
   5  17   1    0.07    0.38
   5  17   1    0.63    0.23
  -5 -17  -1    0.59    0.17
  -5  17   1    0.24    0.27
   5  17   0   12.34    0.80
   5 -17   0   10.42    0.72
   5  17   0   12.81    0.52
  -5  17   0   11.44    0.68
  -5 -17   0   11.50    0.52
   5 -17   1    0.43    0.33
   5  17  -1    0.65    0.37
   5  17  -1    0.61    0.19
  -5 -17   1    0.39    0.23
   5  17  -2    9.73    0.43
   5 -17   2    8.85    0.69
   5  17  -2    9.26    0.71
  -5 -17   2   10.33    0.55
   5  17  -3   19.29    0.62
   5  17  -3   18.36    0.95
   5 -17   3   17.21    0.89
  -5 -17   3   19.08    0.78
   5  17  -4    2.37    0.38
   5  17  -4    2.71    0.26
   5 -17   4    2.38    0.39
  -5 -17   4    2.77    0.40
   5 -17   5   -0.09    0.28
   5  17  -5    0.33    0.32
  -5 -17   5    0.29    0.32
   5  17  -6    1.34    0.38
   5 -17   6    1.22    0.32
  -5 -17   6    1.41    0.36
   5 -17   7    0.21    0.28
   5  17  -7   -0.35    0.34
  -5 -17   7    0.67    0.34
   5 -17   8    0.03    0.33
   5  17  -8    0.70    0.36
  -5 -17   8    0.31    0.36
   5  17  -9   -0.07    0.39
   5 -17   9    0.53    0.33
  -5 -17   9    0.79    0.35
   5  17 -10    3.27    0.52
   5 -17  10    2.07    0.41
  -5 -17  10    3.14    0.48
   5  17 -11   -0.21    0.43
   5 -17  11    0.16    0.34
  -5 -17  11    0.99    0.46
   5 -17  12    0.06    0.41
   5  17 -12   -0.04    0.48
  -5 -17  12    0.14    0.46
   5 -17  13    1.18    0.43
   5  17 -13    1.21    0.51
  -5 -17  13    0.52    0.50
   6  17  11    0.25    0.41
  -6  17  11    0.70    0.52
  -6  17  11    1.21    0.48
   6  17  10    2.09    0.45
  -6  17  10    2.58    0.55
  -6  17  10    2.45    0.50
   6  17   9    0.85    0.39
  -6  17   9   -0.68    0.42
  -6  17   9    0.79    0.41
   6 -17  -8    0.66    0.55
   6 -17  -8   -0.16    0.52
   6  17   8    0.42    0.34
  -6  17   8    0.05    0.36
   6 -17  -7    0.63    0.57
   6  17   7    0.01    0.34
   6 -17  -7   -0.30    0.51
  -6  17   7   -0.15    0.34
   6 -17  -6    0.40    0.49
   6 -17  -6    0.06    0.48
   6  17   6   -0.07    0.32
  -6  17   6   -0.48    0.33
   6 -17  -5   -0.11    0.45
   6  17   5    0.19    0.30
   6 -17  -5   -0.64    0.43
  -6  17   5   -0.18    0.33
   6  17   4    0.14    0.27
   6 -17  -4   -0.55    0.45
   6 -17  -4    0.54    0.47
   6  17   4    0.08    0.45
  -6  17   4    0.06    0.32
   6 -17  -3    0.25    0.42
   6  17   3    0.35    0.29
   6  17   3    0.83    0.46
  -6  17   3    0.61    0.34
   6 -17  -2    0.95    0.43
   6  17   2    0.47    0.45
   6  17   2    0.05    0.32
  -6  17   2    0.36    0.32
   6  17   1    0.83    0.44
   6 -17  -1    0.38    0.38
   6  17   1    0.30    0.32
  -6  17   1    0.17    0.32
   6  17   0    0.57    0.44
   6  17   0    0.17    0.23
   6 -17   0    0.72    0.40
  -6 -17   0    0.11    0.24
   6 -17   1    0.07    0.39
   6  17  -1    0.45    0.22
   6  17  -1   -0.10    0.37
  -6 -17   1    0.41    0.25
   6 -17   2    0.67    0.40
   6  17  -2    0.64    0.21
   6  17  -2   -0.28    0.39
  -6 -17   2    0.41    0.31
   6  17  -3    0.65    0.21
   6  17  -3    0.69    0.43
   6 -17   3   -0.24    0.33
  -6 -17   3    0.43    0.37
   6  17  -4   -0.40    0.39
   6 -17   4   -0.19    0.37
  -6 -17   4   -0.10    0.42
   6 -17   5    0.08    0.37
   6  17  -5   -0.06    0.39
  -6 -17   5   -0.77    0.38
   6  17  -6    0.16    0.39
   6 -17   6    0.17    0.35
  -6 -17   6   -0.32    0.37
   6 -17   7    0.06    0.35
   6  17  -7   -0.09    0.41
  -6 -17   7    0.49    0.40
   6  17  -8   -0.23    0.39
   6 -17   8    0.29    0.35
  -6 -17   8   -0.36    0.42
   6 -17   9   -0.31    0.39
   6  17  -9    0.94    0.40
  -6 -17   9    0.09    0.43
   6  17 -10    1.30    0.54
   6 -17  10    1.60    0.49
  -6 -17  10    2.99    0.56
   6  17 -11    0.16    0.50
   6 -17  11    1.20    0.48
  -6 -17  11    1.51    0.58
   7 -17  -9    0.86    0.75
   7 -17  -9    1.09    0.73
   7  17   9    0.16    0.44
  -7  17   9    0.57    0.50
   7 -17  -8    0.80    0.64
   7  17   8   -0.57    0.38
   7 -17  -8   -0.28    0.64
  -7  17   8   -0.17    0.45
   7 -17  -7    0.72    0.62
   7  17   7    1.37    0.39
   7 -17  -7   -0.17    0.62
  -7  17   7    1.19    0.49
   7 -17  -6   -0.67    0.56
   7  17   6   -0.42    0.35
   7 -17  -6    0.23    0.60
  -7  17   6    0.10    0.41
   7 -17  -5    1.16    0.59
   7 -17  -5    0.74    0.58
   7  17   5    0.07    0.33
  -7  17   5   -0.20    0.38
   7  17   4   -0.19    0.34
   7 -17  -4    0.82    0.52
   7 -17  -4   -0.36    0.51
   7  17   4    0.07    0.53
  -7  17   4    0.66    0.40
   7  17   3   -0.52    0.50
   7 -17  -3   -0.64    0.47
   7  17   3   -0.35    0.32
   7  17   2   -0.38    0.31
   7 -17  -2    0.91    0.49
   7  17   2   -0.57    0.46
   7  17   1    2.22    0.55
   7 -17  -1    1.36    0.49
   7  17   1    1.05    0.36
   7 -17   0   -0.68    0.43
   7  17   0    1.03    0.52
   7  17   0    0.33    0.39
   7 -17   1    1.03    0.46
   7  17  -1    2.14    0.54
   7  17  -1    1.02    0.32
  -7 -17   1    1.13    0.50
   7 -17   2    0.26    0.43
   7  17  -2    0.21    0.27
   7  17  -2    0.23    0.41
  -7 -17   2    0.06    0.39
   7 -17   3    0.25    0.45
   7  17  -3   -0.80    0.47
  -7 -17   3   -0.17    0.45
   7 -17   4    0.51    0.45
   7  17  -4    0.10    0.45
  -7 -17   4   -0.07    0.42
   7  17  -5    0.34    0.48
   7 -17   5    0.15    0.44
  -7 -17   5    0.35    0.45
   7 -17   6    0.43    0.45
   7  17  -6    0.61    0.46
  -7 -17   6    0.81    0.48
   7 -17   7    0.39    0.49
   7  17  -7    0.50    0.45
  -7 -17   7    1.34    0.58
   7  17  -8   -0.73    0.42
   7 -17   8    0.04    0.50
  -7 -17   8   -0.26    0.53
   7  17  -9    0.26    0.47
   7 -17   9   -0.43    0.46
  -7 -17   9    0.84    0.56
   8  17   6   -0.20    0.44
   8 -17  -6    0.03    0.71
   8 -17  -6    1.26    0.77
   8 -17  -5    0.60    0.73
   8  17   5    1.08    0.66
   8 -17  -5    0.50    0.76
   8  17   5    0.16    0.40
   8  17   4    2.39    0.67
   8 -17  -4    3.30    0.74
   8  17   4    1.92    0.46
   8  17   3    0.85    0.41
   8  17   3    1.09    0.65
   8 -17  -3    0.20    0.60
   8  17   2   -0.44    0.60
   8  17   2    1.12    0.39
   8 -17  -2    0.37    0.67
   8  17   1    0.04    0.54
   8 -17  -1    0.93    0.63
   8  17   1    0.19    0.38
   8  17   0    0.28    0.60
   8 -17   0    0.49    0.57
   8  17   0   -0.01    0.38
   8  17  -1    0.21    0.45
   8 -17   1    0.02    0.55
   8  17  -1   -0.03    0.54
   8 -17   2    0.19    0.58
   8  17  -2    0.86    0.54
   8  17  -3    0.18    0.52
   8 -17   3   -0.09    0.55
  -8 -17   3    1.25    0.65
   8 -17   4    2.24    0.65
   8  17  -4    2.16    0.58
  -8 -17   4    2.26    0.57
   8 -17   5    0.10    0.53
   8  17  -5    0.22    0.50
  -8 -17   5    0.88    0.58
   8 -17   6   -0.20    0.57
   8  17  -6    0.27    0.51
  -8 -17   6    0.84    0.60
   0  18  15   -0.09    0.33
   0  18  14    1.15    0.34
   0  18  13    1.94    0.34
   0  18  12   -0.18    0.24
   0  18  11    7.01    0.48
   0 -18 -10    5.44    0.53
   0 -18 -10    5.88    0.53
   0  18  10    5.79    0.43
   0 -18  -9    0.07    0.26
   0 -18  -9    0.19    0.28
   0  18   9   -0.11    0.19
   0  18   8   15.91    0.85
   0  18   8   15.70    0.66
   0 -18  -8   15.29    0.65
   0 -18  -7    0.62    0.23
   0  18   7    0.79    0.38
   0  18   7    0.92    0.21
   0 -18  -6    9.63    0.47
   0  18   6    9.59    0.50
   0  18   6    9.53    0.66
   0  18   5    4.68    0.38
   0 -18  -5    4.79    0.35
   0  18   5    4.43    0.50
   0  18   4   24.37    0.88
   0 -18  -4   24.94    0.79
   0  18   4   25.04    0.99
   0  18   3    6.74    0.47
   0 -18  -3    6.74    0.36
   0  18   3    7.04    0.40
   0  18   2    0.04    0.16
   0 -18  -2   -0.03    0.15
   0  18   2    0.08    0.24
   0  18   1    6.54    0.40
   0  18   1    6.44    0.48
   0 -18  -1    6.92    0.36
   0  18   0   68.44    2.03
   0 -18   0   70.45    1.87
   0  18   0   67.52    1.93
   0  18  -1    6.64    0.39
   0 -18   1    6.58    0.35
   0  18  -1    6.91    0.47
   0 -18   2   -0.03    0.13
   0  18  -2   -0.21    0.21
   0  18  -2   -0.08    0.17
   0 -18   3    7.26    0.37
   0  18  -3    6.83    0.41
   0  18  -3    7.24    0.48
   0  18  -4   25.01    0.85
   0  18  -4   24.15    0.94
   0 -18   4   25.22    0.84
   0  18  -5    5.20    0.49
   0 -18   5    4.73    0.40
   0  18  -5    4.89    0.36
   0  18  -6   10.88    0.64
   0 -18   6    9.85    0.50
   0  18  -7    0.41    0.26
   0 -18   7    0.55    0.20
   0  18  -8   14.26    0.70
   0 -18   8   15.11    0.62
   0 -18   9    0.08    0.20
   0  18  -9    0.30    0.27
   0  18 -10    5.55    0.46
   0 -18  10    6.03    0.44
   0  18 -11    5.77    0.56
   0 -18  11    7.66    0.49
   0 -18  12    0.41    0.25
   0 -18  13    2.32    0.35
   0 -18  14    1.93    0.39
   0 -18  15    0.34    0.41
   1  18  15    0.28    0.35
  -1  18  15   -0.07    0.32
   1  18  14    0.46    0.30
  -1  18  14   -0.27    0.30
   1  18  13    0.67    0.31
  -1  18  13    0.59    0.31
   1  18  12   -0.03    0.23
  -1  18  12    0.50    0.59
  -1  18  12   -0.11    0.25
   1  18  11    0.44    0.24
  -1  18  11    0.10    0.23
  -1  18  11   -0.24    0.28
   1  18  10    0.54    0.24
  -1  18  10    0.47    0.41
  -1  18  10    0.09    0.21
   1  18   9    0.73    0.20
   1 -18  -9    0.32    0.34
   1 -18  -9    0.10    0.36
  -1  18   9   -0.36    0.20
  -1  18   9    0.26    0.39
   1  18   8   14.96    0.66
   1 -18  -8   15.52    0.77
   1 -18  -8   16.34    0.78
  -1  18   8   15.37    0.67
  -1  18   8   16.98    0.81
   1 -18  -7    1.27    0.31
   1  18   7    1.48    0.39
   1  18   7    1.50    0.26
  -1  18   7    1.56    0.26
  -1  18   7    1.36    0.35
   1  18   6    1.69    0.25
   1 -18  -6    1.49    0.30
   1  18   6    2.03    0.40
  -1  18   6    1.51    0.33
  -1  18   6    1.68    0.26
   1  18   5   32.27    1.21
   1  18   5   27.69    1.01
   1 -18  -5   31.54    1.04
  -1  18   5   30.77    1.08
  -1  18   5   30.90    1.05
   1  18   4    2.66    0.31
   1 -18  -4    2.02    0.28
   1  18   4    2.16    0.37
  -1 -18  -4    1.80    0.16
  -1  18   4    2.45    0.33
  -1 -18  -4    2.16    0.21
  -1  18   4    1.77    0.29
   1  18   3    0.38    0.28
   1 -18  -3   -0.01    0.21
   1  18   3   -0.14    0.16
  -1 -18  -3   -0.02    0.16
  -1 -18  -3   -0.05    0.10
  -1  18   3    0.13    0.23
  -1  18   3    0.32    0.20
   1  18   2   17.87    0.81
   1  18   2   16.86    0.65
   1 -18  -2   17.15    0.68
  -1 -18  -2   17.06    0.65
  -1  18   2   17.17    0.68
  -1  18   2   16.82    0.70
  -1 -18  -2   17.85    0.53
   1  18   1    0.36    0.26
   1  18   1   -0.09    0.15
   1 -18  -1    0.15    0.19
  -1 -18  -1    0.06    0.11
  -1  18   1   -0.08    0.18
  -1  18   1   -0.08    0.21
   1  18   0    0.35    0.16
   1 -18   0    0.30    0.17
   1  18   0    0.32    0.25
  -1  18   0    0.09    0.19
  -1  18   0   -0.02    0.20
  -1 -18   0   -0.01    0.11
   1  18  -1    0.23    0.16
   1  18  -1   -0.13    0.25
   1 -18   1    0.11    0.18
  -1 -18   1    0.11    0.12
  -1  18  -1    0.11    0.19
  -1  18  -1   -0.17    0.20
   1  18  -2   17.64    0.79
   1 -18   2   17.34    0.67
   1  18  -2   16.91    0.64
  -1  18  -2   17.66    0.71
  -1  18  -2   17.07    0.70
  -1 -18   2   18.39    0.59
   1  18  -3    0.13    0.17
   1  18  -3    0.51    0.27
   1 -18   3   -0.04    0.20
  -1  18  -3    0.14    0.20
  -1  18  -3    0.16    0.21
  -1 -18   3    0.05    0.12
   1  18  -4    1.94    0.23
   1 -18   4    2.28    0.34
   1  18  -4    1.92    0.38
  -1  18  -4    2.03    0.28
  -1  18  -4    2.36    0.33
  -1 -18   4    2.03    0.25
   1  18  -5   31.91    1.15
   1  18  -5   30.95    0.96
   1 -18   5   31.98    1.02
  -1 -18   5   28.25    0.98
  -1  18  -5   31.57    1.10
  -1  18  -5   30.01    1.03
   1  18  -6    1.61    0.23
   1 -18   6    1.52    0.23
   1  18  -6    2.06    0.28
  -1 -18   6    1.38    0.22
  -1  18  -6    1.81    0.35
   1 -18   7    1.69    0.25
   1  18  -7    1.35    0.29
  -1 -18   7    1.23    0.23
  -1  18  -7    0.99    0.30
   1 -18   8   15.01    0.64
   1  18  -8   14.83    0.73
  -1 -18   8   16.01    0.65
  -1  18  -8   14.61    0.73
   1  18  -9    0.39    0.28
   1 -18   9    0.07    0.21
  -1 -18   9    0.06    0.20
  -1  18  -9    0.50    0.28
   1  18 -10    0.14    0.27
   1 -18  10    0.75    0.23
  -1 -18  10    0.51    0.22
   1  18 -11   -0.20    0.30
   1 -18  11    0.59    0.24
  -1 -18  11    0.10    0.24
   1 -18  12    0.17    0.26
   1  18 -12   -0.19    0.31
  -1 -18  12   -0.03    0.27
   1 -18  13    1.16    0.31
  -1 -18  13    0.95    0.32
   1 -18  14    1.00    0.31
  -1 -18  14    0.12    0.35
   1 -18  15    0.63    0.40
  -1 -18  15    0.49    0.43
   2  18  15    0.18    0.35
  -2  18  15    0.28    0.35
   2  18  14    0.33    0.30
  -2  18  14   -0.31    0.34
   2  18  13    5.22    0.52
  -2  18  13    5.17    0.54
  -2  18  13    6.02    0.82
   2  18  12    5.29    0.50
  -2  18  12    4.87    0.52
  -2  18  12    5.07    0.50
   2  18  11    0.90    0.27
  -2  18  11    1.30    0.41
  -2  18  11    0.95    0.27
   2  18  10    0.52    0.22
  -2  18  10    0.47    0.34
  -2  18  10   -0.13    0.24
  -2  18  10    0.28    0.39
   2 -18  -9    1.59    0.53
   2  18   9    1.72    0.26
   2 -18  -9    1.62    0.55
  -2  18   9    2.01    0.28
  -2  18   9    1.98    0.35
   2 -18  -8    1.65    0.46
   2 -18  -8    1.59    0.48
   2  18   8    1.59    0.26
  -2  18   8    1.23    0.32
  -2  18   8    1.35    0.25
   2 -18  -7    8.67    0.68
   2 -18  -7    9.58    0.66
   2  18   7    8.95    0.50
  -2  18   7    9.13    0.52
  -2  18   7    8.92    0.53
   2  18   6    2.16    0.53
   2  18   6    2.21    0.34
   2 -18  -6    1.79    0.38
  -2  18   6    3.08    0.41
  -2  18   6    2.78    0.34
   2  18   5   12.82    0.86
   2  18   5   12.72    0.60
   2 -18  -5   14.05    0.73
  -2  18   5   12.82    0.62
  -2  18   5   12.94    0.59
   2  18   4    4.34    0.36
   2  18   4    5.39    0.63
   2 -18  -4    3.40    0.49
  -2  18   4    3.58    0.38
  -2  18   4    3.87    0.39
   2  18   3   11.75    0.52
   2 -18  -3   12.44    0.63
   2  18   3   11.74    0.77
  -2  18   3   10.60    0.60
  -2  18   3   12.35    0.55
   2 -18  -2    4.34    0.45
   2  18   2    4.72    0.32
   2  18   2    5.04    0.55
  -2  18   2    4.29    0.43
  -2 -18  -2    4.23    0.25
  -2  18   2    4.62    0.39
  -2 -18  -2    4.17    0.22
   2  18   1    0.44    0.32
   2 -18  -1    0.15    0.24
   2  18   1    0.74    0.17
   2  18   1    0.46    0.23
   2  18   1    0.58    0.22
  -2  18   1    0.41    0.21
  -2  18   1    0.53    0.24
  -2 -18  -1    0.34    0.12
   2  18   0   26.08    1.09
   2 -18   0   25.68    0.97
   2  18   0   26.74    0.84
  -2 -18   0   25.36    0.76
  -2  18   0   25.92    0.89
  -2  18   0   26.46    0.96
   2 -18   1    0.38    0.28
   2  18  -1    0.16    0.33
   2  18  -1    0.50    0.16
  -2  18  -1    0.51    0.21
  -2  18  -1    0.30    0.24
  -2 -18   1    0.45    0.13
   2 -18   2    4.43    0.46
   2  18  -2    4.92    0.56
   2  18  -2    4.69    0.31
  -2  18  -2    4.56    0.39
  -2 -18   2    4.48    0.29
  -2  18  -2    4.07    0.37
   2 -18   3   11.71    0.62
   2  18  -3   11.43    0.66
   2  18  -3   12.37    0.48
  -2  18  -3   14.03    0.63
  -2 -18   3   11.67    0.48
  -2  18  -3   11.88    0.57
   2  18  -4    3.66    0.45
   2 -18   4    3.81    0.39
   2  18  -4    4.38    0.31
  -2  18  -4    3.40    0.42
  -2 -18   4    3.89    0.32
  -2  18  -4    4.59    0.39
   2  18  -5   12.60    0.67
   2 -18   5   12.75    0.61
   2  18  -5   12.42    0.50
  -2 -18   5   13.05    0.58
  -2  18  -5   13.66    0.63
   2  18  -6    3.03    0.29
   2  18  -6    1.86    0.32
   2 -18   6    2.17    0.29
  -2  18  -6    3.06    0.41
  -2 -18   6    2.59    0.36
   2 -18   7    8.84    0.50
   2  18  -7    7.95    0.54
  -2 -18   7    8.23    0.47
   2 -18   8    1.40    0.26
   2  18  -8    1.22    0.30
  -2 -18   8    1.75    0.27
   2  18  -9    1.08    0.32
   2 -18   9    1.52    0.27
  -2 -18   9    1.66    0.29
   2  18 -10    1.09    0.32
   2 -18  10    0.38    0.24
  -2 -18  10    0.27    0.25
   2 -18  11    1.44    0.28
   2  18 -11    1.19    0.34
  -2 -18  11    1.30    0.30
   2  18 -12    4.13    0.57
   2 -18  12    4.97    0.48
  -2 -18  12    4.53    0.52
   2  18 -13    5.34    0.62
   2 -18  13    5.75    0.53
  -2 -18  13    6.65    0.62
   2 -18  14   -0.26    0.33
   2  18 -14   -0.22    0.43
  -2 -18  14    0.39    0.38
   2 -18  15    0.83    0.40
  -2 -18  15   -0.19    0.45
   3  18  14    1.29    0.36
  -3  18  14   -0.18    0.56
  -3  18  14    1.81    0.40
   3  18  13    0.27    0.32
  -3  18  13    0.81    0.36
  -3  18  13    0.46    0.51
   3  18  12    0.01    0.28
  -3  18  12    0.29    0.31
  -3  18  12    0.06    0.43
   3  18  11    0.97    0.29
  -3  18  11    1.30    0.32
  -3  18  11    1.10    0.41
   3  18  10    2.08    0.33
  -3  18  10    2.43    0.36
  -3  18  10    2.06    0.38
   3 -18  -9    0.64    0.51
   3 -18  -9    0.24    0.52
   3  18   9    1.06    0.29
  -3  18   9    1.13    0.26
   3 -18  -8    0.89    0.48
   3 -18  -8   -0.16    0.45
   3  18   8   -0.12    0.22
  -3  18   8   -0.21    0.24
   3 -18  -7    0.60    0.46
   3 -18  -7    0.88    0.46
   3  18   7    0.45    0.24
  -3  18   7    0.57    0.25
   3 -18  -6    0.75    0.46
   3  18   6    0.44    0.23
   3 -18  -6    1.12    0.44
  -3  18   6   -0.25    0.22
   3  18   5   14.68    0.95
   3 -18  -5   15.30    0.93
   3  18   5   16.09    0.68
  -3  18   5   15.26    0.55
  -3  18   5   14.39    0.70
   3 -18  -4    9.30    0.76
   3  18   4   10.35    0.54
   3  18   4    9.93    0.84
  -3  18   4    8.87    0.55
  -3  18   4    9.51    0.44
   3 -18  -3    1.58    0.41
   3  18   3    1.54    0.25
   3  18   3    1.77    0.46
  -3  18   3    1.68    0.31
  -3  18   3    1.80    0.24
   3  18   2    0.34    0.18
   3 -18  -2    0.27    0.30
   3  18   2    0.11    0.33
  -3  18   2    0.53    0.20
  -3  18   2   -0.15    0.26
   3 -18  -1    7.58    0.58
   3  18   1    6.54    0.37
   3  18   1    7.06    0.57
  -3  18   1    7.02    0.40
  -3 -18  -1    6.64    0.31
  -3  18   1    6.40    0.54
   3 -18   0   -0.38    0.26
   3  18   0   -0.31    0.29
   3  18   0   -0.17    0.15
  -3  18   0    0.14    0.28
  -3 -18   0   -0.11    0.15
  -3  18   0    0.41    0.20
   3  18  -1    6.78    0.35
   3 -18   1    6.34    0.53
   3  18  -1    7.34    0.58
  -3  18  -1    6.76    0.41
  -3 -18   1    7.11    0.37
  -3  18  -1    5.89    0.53
   3 -18   2    0.27    0.26
   3  18  -2    0.34    0.15
   3  18  -2   -0.19    0.25
  -3 -18   2    0.09    0.15
  -3  18  -2    0.38    0.21
  -3  18  -2   -0.14    0.28
   3  18  -3    2.10    0.34
   3  18  -3    1.81    0.21
   3 -18   3    1.74    0.29
  -3  18  -3    2.04    0.36
  -3 -18   3    1.69    0.22
   3 -18   4   10.36    0.60
   3  18  -4    9.99    0.63
   3  18  -4   10.15    0.41
  -3 -18   4    9.82    0.48
   3  18  -5   15.60    0.54
   3  18  -5   14.56    0.74
   3 -18   5   14.84    0.70
  -3 -18   5   14.63    0.68
   3 -18   6   -0.53    0.23
   3  18  -6    0.39    0.28
  -3 -18   6   -0.19    0.23
   3 -18   7    0.96    0.27
   3  18  -7    0.32    0.26
  -3 -18   7    0.63    0.25
   3  18  -8    0.15    0.27
   3 -18   8    0.09    0.25
  -3 -18   8    0.00    0.25
   3  18  -9    1.14    0.34
   3 -18   9    0.69    0.27
  -3 -18   9    1.06    0.29
   3  18 -10    1.91    0.38
   3 -18  10    2.83    0.42
  -3 -18  10    2.08    0.35
   3 -18  11    0.92    0.29
   3  18 -11    1.01    0.39
  -3 -18  11    1.05    0.36
   3  18 -12    0.13    0.43
  -3 -18  12    0.09    0.36
   3 -18  13    0.49    0.32
   3  18 -13    1.02    0.48
  -3 -18  13    1.21    0.39
   3 -18  14    0.01    0.65
   3  18 -14    0.83    0.51
   3 -18  14    1.10    0.39
  -3 -18  14    1.51    0.49
   4  18  13    0.20    0.34
  -4  18  13    0.32    0.39
  -4  18  13    0.27    0.51
   4  18  12    0.06    0.35
  -4  18  12    0.40    0.47
  -4  18  12    0.11    0.34
   4  18  11    6.83    0.62
  -4  18  11    6.10    0.69
  -4  18  11    6.73    0.61
   4  18  10    0.39    0.29
  -4  18  10    0.48    0.39
  -4  18  10    0.24    0.31
   4 -18  -9    0.41    0.56
   4 -18  -9    1.06    0.55
   4  18   9    0.14    0.29
  -4  18   9    0.67    0.29
   4 -18  -8    2.87    0.58
   4 -18  -8    2.65    0.61
   4  18   8    2.34    0.36
  -4  18   8    2.86    0.40
   4  18   7    1.02    0.27
   4 -18  -7    0.75    0.47
   4 -18  -7    0.78    0.50
  -4  18   7    1.24    0.29
   4 -18  -6    1.06    0.48
   4 -18  -6    0.57    0.44
   4  18   6    0.72    0.26
  -4  18   6    0.77    0.27
   4 -18  -5    0.36    0.40
   4 -18  -5    0.73    0.41
   4  18   5    0.25    0.40
   4  18   5    0.68    0.26
  -4  18   5   -0.27    0.25
   4  18   4    0.20    0.26
   4 -18  -4   -0.32    0.33
   4  18   4    0.20    0.39
  -4  18   4    0.28    0.27
   4 -18  -3    2.32    0.43
   4  18   3    1.59    0.43
   4  18   3    2.31    0.33
  -4  18   3    2.60    0.35
   4 -18  -2    0.31    0.34
   4  18   2   -0.26    0.36
   4  18   2   -0.10    0.19
  -4  18   2    0.39    0.26
   4 -18  -1    1.01    0.33
   4  18   1    0.69    0.37
   4  18   1    0.82    0.20
  -4  18   1    0.56    0.29
   4  18   0    5.26    0.32
   4  18   0    5.86    0.59
   4 -18   0    4.92    0.53
  -4 -18   0    4.96    0.34
  -4  18   0    4.36    0.47
   4 -18   1    0.58    0.31
   4  18  -1    0.70    0.17
   4  18  -1    0.22    0.33
  -4  18  -1    0.66    0.30
  -4 -18   1    0.22    0.20
   4  18  -2    0.06    0.16
   4 -18   2    0.14    0.27
   4  18  -2    0.70    0.31
  -4 -18   2    0.47    0.22
  -4  18  -2    0.07    0.29
   4  18  -3    1.83    0.38
   4 -18   3    1.72    0.34
   4  18  -3    1.91    0.21
  -4 -18   3    1.54    0.26
   4 -18   4   -0.07    0.28
   4  18  -4   -0.01    0.16
   4  18  -4    0.29    0.27
  -4 -18   4    0.21    0.22
   4 -18   5    0.66    0.31
   4  18  -5    0.62    0.29
  -4 -18   5    0.57    0.33
   4  18  -6    0.44    0.29
   4 -18   6   -0.10    0.29
  -4 -18   6    0.84    0.31
   4 -18   7    1.07    0.31
   4  18  -7    0.89    0.32
  -4 -18   7    0.80    0.30
   4 -18   8    2.45    0.37
   4  18  -8    1.65    0.35
  -4 -18   8    2.58    0.37
   4 -18   9    0.50    0.31
   4  18  -9    0.73    0.35
  -4 -18   9   -0.04    0.30
   4 -18  10    0.10    0.31
   4  18 -10    0.68    0.39
  -4 -18  10   -0.34    0.32
   4  18 -11    7.50    0.71
   4 -18  11    5.94    0.57
  -4 -18  11    6.09    0.66
   4 -18  12    0.22    0.35
   4  18 -12    0.62    0.45
  -4 -18  12    0.17    0.42
   4 -18  13    0.57    0.42
   4  18 -13    0.39    0.45
  -4 -18  13    0.23    0.44
  -4 -18  14   -0.10    0.51
   5  18  12    0.54    0.40
  -5  18  12    0.47    0.43
  -5  18  12    0.33    0.51
   5  18  11    3.93    0.50
  -5  18  11    4.14    0.58
  -5  18  11    3.72    0.53
   5  18  10    0.78    0.36
  -5  18  10    1.01    0.41
  -5  18  10    0.33    0.41
   5  18   9    0.49    0.31
   5 -18  -9    2.35    0.65
   5 -18  -9   -0.06    0.59
  -5  18   9    0.27    0.35
   5 -18  -8    2.89    0.64
   5  18   8    4.12    0.48
   5 -18  -8    2.47    0.64
  -5  18   8    3.67    0.55
   5  18   7   -0.36    0.28
   5 -18  -7   -0.35    0.49
   5 -18  -7    0.48    0.53
  -5  18   7   -0.52    0.29
   5  18   6    0.34    0.27
   5 -18  -6    0.03    0.46
   5 -18  -6   -0.79    0.47
  -5  18   6   -0.27    0.29
   5  18   5    3.21    0.58
   5  18   5    3.13    0.40
   5 -18  -5    2.67    0.49
   5 -18  -5    3.48    0.55
  -5  18   5    3.81    0.49
   5  18   4   -0.81    0.41
   5  18   4   -0.42    0.25
   5 -18  -4    0.22    0.40
  -5  18   4    0.04    0.28
   5 -18  -3    6.90    0.70
   5  18   3    6.43    0.74
   5  18   3    8.09    0.56
  -5  18   3    7.57    0.57
   5 -18  -2    0.46    0.39
   5  18   2    0.28    0.27
   5  18   2   -0.16    0.39
  -5  18   2    0.76    0.31
   5 -18  -1   -0.35    0.36
   5  18   1   -0.10    0.21
   5  18   1   -0.22    0.38
  -5  18   1    0.21    0.29
   5  18   0    0.45    0.37
   5  18   0    0.11    0.18
   5 -18   0    0.11    0.34
  -5  18   0    0.16    0.30
  -5 -18   0    0.27    0.20
   5  18  -1    0.14    0.18
   5 -18   1   -0.19    0.31
   5  18  -1   -0.39    0.35
  -5 -18   1    0.19    0.23
   5  18  -2    0.47    0.35
   5 -18   2    0.64    0.31
   5  18  -2    0.17    0.18
  -5 -18   2    0.11    0.24
   5  18  -3    7.37    0.61
   5  18  -3    7.43    0.37
   5 -18   3    8.55    0.65
  -5 -18   3    7.91    0.55
   5  18  -4   -0.20    0.35
   5 -18   4    0.37    0.33
  -5 -18   4   -0.06    0.33
   5 -18   5    3.44    0.47
   5  18  -5    2.95    0.45
  -5 -18   5    3.67    0.44
   5 -18   6   -0.05    0.31
   5  18  -6    0.06    0.36
  -5 -18   6    0.07    0.32
   5 -18   7    0.06    0.29
   5  18  -7   -0.02    0.37
  -5 -18   7    0.10    0.34
   5 -18   8    3.60    0.45
   5  18  -8    4.30    0.59
  -5 -18   8    3.77    0.51
   5 -18   9    0.39    0.36
   5  18  -9    0.21    0.40
  -5 -18   9    0.70    0.40
   5  18 -10    0.49    0.45
   5 -18  10    0.55    0.38
  -5 -18  10    0.58    0.44
   5 -18  11    4.45    0.64
   5  18 -11    4.18    0.59
  -5 -18  11    4.22    0.60
   5  18 -12    0.86    0.52
   5 -18  12    0.19    0.42
  -5 -18  12    0.67    0.51
   6  18  11    1.09    0.45
  -6  18  11   -0.12    0.51
  -6  18  11    0.16    0.45
   6 -18 -10   -0.46    0.72
   6 -18 -10    1.15    0.77
   6  18  10    1.07    0.39
  -6  18  10    0.43    0.46
   6 -18  -9    0.58    0.65
   6 -18  -9    0.26    0.67
   6  18   9    0.46    0.39
  -6  18   9    0.39    0.45
   6 -18  -8    0.12    0.62
   6 -18  -8   -0.74    0.56
   6  18   8    0.37    0.33
  -6  18   8    1.06    0.42
   6 -18  -7    3.32    0.64
   6 -18  -7    1.98    0.60
   6  18   7    2.85    0.41
  -6  18   7    2.22    0.45
   6 -18  -6    0.84    0.53
   6 -18  -6    0.52    0.57
   6  18   6    0.45    0.33
  -6  18   6    0.10    0.36
   6 -18  -5    0.33    0.48
   6 -18  -5    0.27    0.51
   6  18   5    0.68    0.29
   6  18   5    0.26    0.49
  -6  18   5   -0.09    0.35
   6  18   4    0.46    0.48
   6 -18  -4    0.61    0.48
   6  18   4   -0.04    0.30
  -6  18   4   -0.08    0.33
   6 -18  -3    2.31    0.53
   6  18   3    1.90    0.33
   6  18   3    1.75    0.47
  -6  18   3    0.95    0.35
   6  18   2    0.35    0.47
   6  18   2    0.63    0.30
   6 -18  -2    1.60    0.50
  -6  18   2    0.45    0.34
   6 -18  -1    2.36    0.48
   6  18   1    1.47    0.36
   6  18   1    1.19    0.47
  -6  18   1    1.71    0.37
   6  18   0    0.73    0.42
   6  18   0    0.07    0.25
   6 -18   0    0.55    0.41
   6  18  -1    2.34    0.34
   6  18  -1    1.86    0.49
   6 -18   1    1.28    0.39
  -6 -18   1    2.05    0.30
   6  18  -2   -0.03    0.38
   6 -18   2    0.89    0.44
   6  18  -2    1.19    0.22
  -6 -18   2    1.02    0.32
   6  18  -3    2.25    0.45
   6 -18   3    1.47    0.41
  -6 -18   3    1.76    0.42
   6  18  -4    0.49    0.44
   6 -18   4    0.51    0.36
  -6 -18   4    0.61    0.44
   6  18  -5    0.58    0.40
   6 -18   5    0.88    0.37
  -6 -18   5    0.47    0.39
   6 -18   6    0.04    0.38
   6  18  -6   -0.11    0.42
  -6 -18   6    1.44    0.40
   6 -18   7    1.66    0.42
   6  18  -7    1.80    0.48
  -6 -18   7    2.73    0.53
   6 -18   8    0.15    0.40
   6  18  -8    0.36    0.43
  -6 -18   8    0.06    0.45
   6  18  -9   -0.47    0.41
   6 -18   9    0.39    0.47
  -6 -18   9    0.20    0.49
   6  18 -10   -0.46    0.49
   6 -18  10    0.77    0.47
  -6 -18  10    0.63    0.53
   6  18 -11    0.50    0.55
   6 -18  11   -0.62    0.46
  -6 -18  11   -0.14    0.55
   7 -18  -8   -0.18    0.70
   7 -18  -8    0.35    0.70
   7  18   8    0.48    0.38
  -7  18   8    0.20    0.51
   7  18   7    0.39    0.40
   7 -18  -7    0.39    0.65
   7 -18  -7   -0.59    0.65
  -7  18   7   -0.33    0.44
   7 -18  -6    0.32    0.64
   7  18   6    1.20    0.36
   7 -18  -6   -0.74    0.59
  -7  18   6    0.94    0.46
   7 -18  -5   -0.37    0.58
   7  18   5   -0.49    0.57
   7  18   5    0.45    0.36
   7 -18  -5    0.24    0.61
  -7  18   5    0.15    0.43
   7 -18  -4   -0.52    0.52
   7  18   4   -0.16    0.31
   7  18   4   -0.01    0.52
  -7  18   4    0.30    0.41
   7  18   3    5.14    0.53
   7  18   3    3.00    0.63
   7 -18  -3    4.00    0.62
   7  18   2   -0.08    0.29
   7 -18  -2    0.20    0.54
   7  18   2    0.03    0.50
   7  18   1    2.40    0.37
   7 -18  -1    3.22    0.62
   7  18   1    3.11    0.65
   7 -18   0   -0.06    0.47
   7  18   0    0.48    0.37
   7  18   0   -0.19    0.48
   7  18  -1    1.26    0.56
   7 -18   1    2.39    0.57
   7  18  -1    3.18    0.41
   7  18  -2    0.27    0.48
   7 -18   2   -0.56    0.48
   7  18  -3    5.13    0.78
   7 -18   3    3.53    0.58
  -7 -18   3    5.35    0.78
   7  18  -4    0.05    0.49
   7 -18   4   -0.23    0.45
  -7 -18   4    0.06    0.45
   7  18  -5   -0.33    0.49
   7 -18   5   -0.59    0.43
  -7 -18   5    0.99    0.49
   7  18  -6    1.55    0.50
   7 -18   6    0.82    0.46
  -7 -18   6    0.42    0.50
   7 -18   7    0.29    0.54
   7  18  -7    0.02    0.45
  -7 -18   7    0.21    0.52
   7  18  -8    0.45    0.50
   7 -18   8   -0.37    0.46
  -7 -18   8    0.86    0.59
   8  18   5    0.23    0.72
   8 -18  -5    1.68    0.75
   8  18   5    0.71    0.44
   8  18   4    0.78    0.67
   8 -18  -4   -0.02    0.66
   8  18   4   -0.17    0.39
   8  18   3    0.51    0.65
   8  18   3    0.54    0.41
   8 -18  -3    0.57    0.77
   8  18   2    0.16    0.64
   8 -18  -2   -0.38    0.65
   8  18   2    0.25    0.40
   8  18   1   -0.53    0.37
   8  18   1    0.11    0.59
   8 -18  -1   -1.43    0.63
   8  18   0   -0.22    0.52
   8  18   0    0.07    0.41
   8 -18   0   -0.33    0.62
   8 -18   1   -0.10    0.62
   8  18  -1    0.47    0.55
   8  18  -2   -0.47    0.52
   8 -18   2    0.09    0.64
   8 -18   3    0.60    0.59
   8  18  -3    0.82    0.57
   8 -18   4    0.75    0.59
   8  18  -4   -0.02    0.53
   8  18  -5    1.06    0.57
   8 -18   5    0.88    0.59
  -8 -18   5    1.83    0.62
   0  19  15    0.03    0.33
   0  19  14   -0.06    0.31
   0  19  13    0.34    0.30
   0  19  12    0.12    0.27
   0  19  11   -0.22    0.24
   0  19  10   -0.14    0.22
   0  19   9    0.10    0.22
   0  19   9    0.03    0.39
   0 -19  -9   -0.17    0.27
   0  19   8   -0.04    0.22
   0  19   7    0.59    0.38
   0 -19  -7   -0.22    0.21
   0  19   7   -0.13    0.20
   0 -19  -6    0.32    0.21
   0  19   6    0.23    0.33
   0  19   5    0.29    0.30
   0  19   5    0.18    0.21
   0 -19  -5    0.03    0.19
   0 -19  -4    0.11    0.18
   0  19   4    0.22    0.26
   0  19   4   -0.02    0.24
   0 -19  -3    0.03    0.17
   0  19   3    0.42    0.27
   0  19   3    0.01    0.21
   0  19   2    0.10    0.19
   0  19   2    0.21    0.25
   0 -19  -2   -0.10    0.15
   0  19   1   -0.08    0.23
   0 -19  -1    0.03    0.15
   0  19   1    0.01    0.17
   0  19   0    0.96    0.20
   0 -19   0    0.75    0.17
   0  19   0    1.05    0.25
   0  19  -1   -0.53    0.23
   0  19  -1    0.01    0.18
   0 -19   1    0.13    0.15
   0  19  -2   -0.27    0.18
   0  19  -2    0.25    0.24
   0 -19   2   -0.08    0.14
   0 -19   3    0.21    0.18
   0  19  -3   -0.16    0.24
   0  19  -3    0.48    0.21
   0  19  -4    0.08    0.27
   0  19  -4    0.37    0.21
   0 -19   4    0.01    0.23
   0  19  -5   -0.11    0.20
   0 -19   5   -0.02    0.18
   0  19  -5    0.03    0.31
   0 -19   6    0.18    0.17
   0  19  -6    0.17    0.27
   0 -19   7    0.04    0.19
   0  19  -7   -0.43    0.25
   0  19  -8   -0.16    0.27
   0 -19   8    0.14    0.20
   0  19  -9   -0.17    0.26
   0 -19  10    0.12    0.23
   0  19 -10    0.04    0.30
   0 -19  11    0.12    0.24
   0  19 -11    0.20    0.30
   0 -19  12    0.20    0.27
   0 -19  13    0.14    0.31
   0 -19  14   -0.73    0.34
   0 -19  15    0.55    0.41
   1  19  15    1.74    0.42
  -1  19  15    1.69    0.41
   1  19  14   -0.01    0.31
  -1  19  14    0.45    0.32
   1  19  13   -0.24    0.30
  -1  19  13    0.19    0.31
   1  19  12   -0.50    0.25
  -1  19  12    0.12    0.27
   1  19  11    0.50    0.27
   1 -19 -11   -0.02    0.42
   1 -19 -11    0.31    0.41
  -1  19  11    0.03    0.43
  -1  19  11    0.21    0.25
   1 -19 -10    4.82    0.65
   1  19  10    6.27    0.48
   1 -19 -10    6.99    0.68
  -1  19  10    6.67    0.71
  -1  19  10    6.11    0.47
   1 -19  -9    0.44    0.34
   1 -19  -9    1.03    0.38
   1  19   9    0.76    0.24
  -1  19   9    0.45    0.40
  -1  19   9    0.85    0.25
   1  19   8    0.11    0.46
   1 -19  -8   -0.08    0.32
   1  19   8    0.46    0.22
  -1  19   8    0.34    0.38
  -1  19   8    0.38    0.22
   1 -19  -7    0.07    0.29
   1  19   7    0.21    0.38
   1  19   7    0.44    0.22
  -1  19   7   -0.26    0.19
  -1  19   7    0.18    0.32
   1  19   6    0.50    0.38
   1 -19  -6    0.18    0.28
   1  19   6    0.32    0.22
  -1  19   6    0.90    0.31
  -1  19   6    0.54    0.22
   1  19   5    4.76    0.54
   1 -19  -5    4.94    0.46
   1  19   5    4.56    0.40
  -1  19   5    4.29    0.40
  -1  19   5    5.05    0.48
   1 -19  -4    0.39    0.23
   1  19   4    0.71    0.25
   1  19   4    0.43    0.30
  -1  19   4    0.58    0.23
  -1 -19  -4    0.36    0.10
  -1  19   4    0.25    0.28
   1  19   3    3.30    0.34
   1  19   3    4.01    0.49
   1 -19  -3    3.76    0.39
  -1 -19  -3    3.61    0.21
  -1  19   3    3.08    0.41
  -1 -19  -3    3.21    0.31
  -1  19   3    3.49    0.41
   1 -19  -2   10.11    0.51
   1  19   2    8.45    0.45
   1  19   2    9.45    0.63
  -1 -19  -2    9.40    0.35
  -1  19   2    9.23    0.54
  -1  19   2    9.44    0.54
   1  19   1    8.47    0.44
   1  19   1    9.13    0.59
   1 -19  -1    8.79    0.48
  -1  19   1    8.67    0.50
  -1 -19  -1    8.70    0.35
  -1  19   1    8.81    0.52
   1  19   0   13.87    0.72
   1 -19   0   13.48    0.59
   1  19   0   13.41    0.56
  -1 -19   0   13.04    0.46
  -1  19   0   13.63    0.63
  -1  19   0   12.91    0.59
   1 -19   1    8.91    0.48
   1  19  -1    8.48    0.60
   1  19  -1    9.07    0.45
  -1  19  -1    8.26    0.49
  -1 -19   1    9.06    0.37
  -1  19  -1    7.98    0.50
   1  19  -2    9.00    0.45
   1  19  -2    9.62    0.64
   1 -19   2    9.93    0.54
  -1  19  -2   10.09    0.55
  -1 -19   2    9.49    0.40
  -1  19  -2    9.50    0.53
   1 -19   3    3.41    0.44
   1  19  -3    3.60    0.33
   1  19  -3    3.51    0.52
  -1  19  -3    3.56    0.37
  -1 -19   3    3.84    0.28
  -1  19  -3    3.76    0.38
   1  19  -4    0.29    0.30
   1  19  -4    0.50    0.20
   1 -19   4    0.30    0.19
  -1 -19   4    0.41    0.18
  -1  19  -4    0.50    0.25
  -1  19  -4    0.84    0.24
   1  19  -5    4.71    0.37
   1 -19   5    5.10    0.40
   1  19  -5    4.35    0.46
  -1 -19   5    5.24    0.41
  -1  19  -5    4.92    0.42
  -1  19  -5    5.15    0.52
   1 -19   6    0.34    0.21
   1  19  -6    0.77    0.28
   1  19  -6    0.11    0.21
  -1 -19   6    0.47    0.18
  -1  19  -6    0.68    0.29
   1 -19   7    0.03    0.20
   1  19  -7    0.66    0.26
  -1 -19   7    0.10    0.17
  -1  19  -7   -0.07    0.27
   1 -19   8    0.27    0.21
   1  19  -8    0.75    0.30
  -1 -19   8    0.83    0.22
  -1  19  -8    0.71    0.27
   1  19  -9    1.34    0.33
   1 -19   9    0.62    0.24
  -1  19  -9    0.65    0.29
  -1 -19   9    0.75    0.23
   1  19 -10    6.46    0.53
   1 -19  10    5.34    0.46
  -1 -19  10    6.54    0.51
   1 -19  11    0.25    0.25
   1  19 -11   -0.04    0.29
  -1 -19  11    0.46    0.27
   1 -19  12   -0.19    0.27
   1  19 -12    0.04    0.33
  -1 -19  12    0.11    0.29
   1 -19  13   -0.11    0.28
  -1 -19  13   -0.03    0.32
   1 -19  14   -0.09    0.35
   1 -19  15    1.64    0.45
  -1 -19  15    1.41    0.46
   2  19  14   -0.23    0.35
  -2  19  14   -0.32    0.33
   2  19  13    2.17    0.39
  -2  19  13    2.91    0.44
   2  19  12    5.13    0.52
  -2  19  12    6.03    0.75
  -2  19  12    5.90    0.54
   2  19  11    2.28    0.34
  -2  19  11    2.55    0.38
   2  19  10   -0.20    0.23
   2 -19 -10   -0.27    0.61
   2 -19 -10    1.12    0.68
  -2  19  10    0.23    0.25
   2 -19  -9    1.82    0.56
   2 -19  -9    1.96    0.56
   2  19   9    1.51    0.29
  -2  19   9    1.71    0.28
  -2  19   9    1.43    0.34
   2  19   8    0.55    0.23
   2 -19  -8    0.71    0.48
   2 -19  -8    0.44    0.50
  -2  19   8    0.27    0.29
  -2  19   8   -0.10    0.22
   2 -19  -7    1.83    0.45
   2  19   7    1.52    0.28
   2  19   7    1.96    0.58
  -2  19   7    1.88    0.29
  -2  19   7    2.18    0.34
   2 -19  -6   17.14    0.87
   2  19   6   18.75    0.73
   2  19   6   17.90    1.12
  -2  19   6   16.99    0.72
  -2  19   6   17.81    0.76
   2  19   5    3.50    0.64
   2  19   5    3.83    0.41
   2 -19  -5    4.01    0.55
  -2  19   5    4.64    0.41
  -2  19   5    3.52    0.42
   2  19   4    0.15    0.43
   2 -19  -4    0.08    0.29
   2  19   4    0.13    0.26
  -2  19   4    0.02    0.22
  -2  19   4   -0.09    0.24
   2 -19  -3   24.87    0.98
   2  19   3   24.00    0.85
   2  19   3   24.31    1.16
  -2  19   3   22.90    0.92
  -2  19   3   24.72    0.86
   2  19   2    0.81    0.42
   2  19   2    0.93    0.21
  -2  19   2    1.05    0.25
  -2 -19  -2    0.94    0.12
  -2 -19  -2    0.53    0.17
  -2  19   2    0.44    0.28
   2  19   1    0.58    0.19
   2 -19  -1    0.90    0.32
   2  19   1    0.82    0.39
  -2  19   1    0.23    0.27
  -2  19   1    0.68    0.23
  -2 -19  -1    0.61    0.13
   2  19   0   -0.08    0.16
   2  19   0    0.01    0.34
   2 -19   0    0.00    0.30
  -2  19   0    0.45    0.29
  -2 -19   0    0.10    0.13
  -2  19   0   -0.23    0.21
   2  19  -1    0.54    0.18
   2 -19   1    0.63    0.31
   2  19  -1    0.98    0.37
  -2  19  -1    0.71    0.24
  -2 -19   1    0.87    0.15
  -2  19  -1    1.03    0.28
   2 -19   2    0.90    0.26
   2  19  -2    0.88    0.19
   2  19  -2    1.44    0.35
  -2  19  -2    0.99    0.24
  -2  19  -2    1.07    0.27
  -2 -19   2    1.05    0.17
   2 -19   3   23.10    0.88
   2  19  -3   23.28    0.98
   2  19  -3   24.54    0.78
  -2  19  -3   23.06    0.92
  -2  19  -3   23.98    0.88
  -2 -19   3   23.62    0.77
   2  19  -4    0.43    0.26
   2  19  -4   -0.04    0.19
   2 -19   4    0.08    0.22
  -2  19  -4    0.21    0.25
  -2 -19   4    0.25    0.18
  -2  19  -4    0.48    0.23
   2  19  -5    3.40    0.33
   2  19  -5    3.39    0.44
   2 -19   5    4.15    0.41
  -2 -19   5    3.44    0.44
  -2  19  -5    3.70    0.48
   2  19  -6   16.97    0.62
   2  19  -6   15.74    0.79
   2 -19   6   16.90    0.73
  -2  19  -6   18.66    0.84
  -2 -19   6   17.60    0.70
   2  19  -7    1.76    0.32
   2 -19   7    1.64    0.27
  -2 -19   7    1.43    0.26
   2  19  -8    0.65    0.29
   2 -19   8    0.51    0.25
  -2 -19   8    0.81    0.26
   2  19  -9    0.89    0.29
   2 -19   9    1.71    0.29
  -2 -19   9    1.89    0.30
   2  19 -10    0.36    0.31
   2 -19  10   -0.59    0.24
  -2 -19  10    0.07    0.26
   2  19 -11    1.93    0.35
   2 -19  11    3.06    0.42
  -2 -19  11    2.57    0.38
   2 -19  12    5.75    0.53
   2  19 -12    5.29    0.60
  -2 -19  12    7.02    0.58
   2 -19  13    4.42    0.52
   2  19 -13    2.92    0.52
  -2 -19  13    3.14    0.48
   2  19 -14    0.34    0.40
   2 -19  14   -0.23    0.36
  -2 -19  14    0.81    0.41
   3  19  14    1.01    0.44
  -3  19  14    1.80    0.43
  -3  19  14    1.04    0.87
   3  19  13    0.04    0.34
  -3  19  13    0.63    0.54
  -3  19  13    0.32    0.36
   3  19  12    0.17    0.31
  -3  19  12    0.25    0.33
  -3  19  12    0.09    0.44
   3  19  11    0.96    0.32
  -3  19  11    0.85    0.33
  -3  19  11    1.36    0.42
   3 -19 -10    1.49    0.61
   3 -19 -10    1.02    0.62
   3  19  10    1.41    0.31
  -3  19  10    0.73    0.30
   3 -19  -9   -0.69    0.50
   3 -19  -9    0.11    0.53
   3  19   9    0.17    0.25
  -3  19   9    0.44    0.27
   3 -19  -8   -0.23    0.46
   3 -19  -8   -0.68    0.47
   3  19   8    0.11    0.25
   3 -19  -7    1.13    0.46
   3 -19  -7    0.70    0.48
   3  19   7    1.13    0.27
  -3  19   7    1.07    0.26
   3  19   6    0.46    0.48
   3  19   6    0.54    0.25
   3 -19  -6   -0.25    0.44
  -3  19   6    0.56    0.25
  -3  19   6    0.64    0.20
   3 -19  -5    9.00    0.82
   3  19   5    7.92    0.77
   3  19   5    9.28    0.50
  -3  19   5    9.00    0.42
  -3  19   5    8.64    0.55
   3  19   4    9.91    0.80
   3 -19  -4    9.12    0.73
   3  19   4    9.11    0.54
  -3  19   4    8.77    0.56
  -3  19   4    7.68    0.43
   3  19   3    3.51    0.50
   3 -19  -3    4.26    0.58
   3  19   3    4.74    0.44
  -3  19   3    3.49    0.35
  -3  19   3    3.61    0.43
   3  19   2    2.23    0.44
   3 -19  -2    2.08    0.36
   3  19   2    1.97    0.27
  -3  19   2    1.91    0.31
  -3  19   2    2.02    0.26
   3 -19  -1   -0.02    0.31
   3  19   1    0.18    0.18
   3  19   1   -0.51    0.33
  -3  19   1    0.53    0.28
  -3 -19  -1    0.31    0.13
  -3  19   1    0.45    0.22
   3  19   0   24.34    1.07
   3 -19   0   26.81    1.03
   3  19   0   25.44    0.83
  -3 -19   0   24.33    0.76
  -3  19   0   25.32    1.01
  -3  19   0   25.03    0.86
   3  19  -1    0.25    0.31
   3 -19   1    0.39    0.27
   3  19  -1    0.43    0.17
  -3  19  -1   -0.06    0.32
  -3 -19   1    0.46    0.18
  -3  19  -1    0.11    0.20
   3  19  -2    1.95    0.35
   3  19  -2    1.93    0.22
   3 -19   2    1.86    0.32
  -3  19  -2    2.35    0.41
  -3  19  -2    1.88    0.29
  -3 -19   2    1.88    0.23
   3 -19   3    3.87    0.46
   3  19  -3    4.54    0.49
   3  19  -3    3.58    0.30
  -3  19  -3    3.80    0.51
  -3 -19   3    3.73    0.34
   3  19  -4    9.09    0.40
   3  19  -4    9.11    0.62
   3 -19   4    7.97    0.55
  -3 -19   4    8.11    0.47
   3 -19   5    8.75    0.58
   3  19  -5    8.80    0.60
   3  19  -5    9.36    0.42
  -3 -19   5    8.36    0.59
   3  19  -6    0.28    0.28
   3 -19   6    0.43    0.25
  -3 -19   6    0.64    0.26
   3 -19   7    1.59    0.30
   3  19  -7    1.13    0.31
  -3 -19   7    1.69    0.30
   3  19  -8    0.70    0.33
   3 -19   8    0.11    0.25
  -3 -19   8    0.22    0.26
   3 -19   9   -0.17    0.28
   3  19  -9   -0.02    0.31
  -3 -19   9    0.21    0.27
   3  19 -10    1.05    0.37
   3 -19  10    0.67    0.30
  -3 -19  10    0.52    0.33
   3  19 -11    0.25    0.39
   3 -19  11    1.35    0.33
  -3 -19  11    0.66    0.35
   3  19 -12   -0.04    0.45
   3 -19  12   -0.28    0.29
  -3 -19  12   -0.10    0.37
   3  19 -13    0.50    0.46
   3 -19  13   -0.18    0.36
  -3 -19  13    0.32    0.40
   3  19 -14    0.49    0.47
   3 -19  14    0.81    0.39
  -3 -19  14    1.30    0.55
   4  19  13   -0.04    0.37
  -4  19  13    0.07    0.59
  -4  19  13   -0.30    0.39
   4  19  12   -0.13    0.36
  -4  19  12    0.08    0.36
  -4  19  12   -0.96    0.45
   4  19  11    0.75    0.36
  -4  19  11    0.24    0.36
  -4  19  11   -0.34    0.45
   4 -19 -10    1.12    0.62
   4  19  10    0.41    0.32
   4 -19 -10    0.25    0.64
  -4  19  10    0.30    0.33
   4 -19  -9    0.90    0.59
   4 -19  -9    0.26    0.57
   4  19   9    0.73    0.31
  -4  19   9    0.47    0.30
   4 -19  -8    0.07    0.57
   4 -19  -8    0.50    0.55
   4  19   8   -0.06    0.27
  -4  19   8   -0.24    0.29
   4 -19  -7    6.45    0.84
   4  19   7    6.71    0.51
   4 -19  -7    6.92    0.81
  -4  19   7    6.76    0.55
   4 -19  -6   -0.28    0.44
   4  19   6    0.48    0.24
   4  19   6    0.18    0.45
   4 -19  -6    0.42    0.45
  -4  19   6   -0.08    0.27
   4 -19  -5    2.00    0.49
   4  19   5    1.76    0.49
   4  19   5    2.21    0.33
   4  19   4    0.42    0.25
   4  19   4   -0.87    0.41
   4 -19  -4    0.12    0.39
  -4  19   4   -0.20    0.26
   4  19   3    5.33    0.69
   4 -19  -3    6.26    0.69
   4  19   3    6.95    0.52
  -4  19   3    6.26    0.54
   4  19   2   -0.29    0.38
   4 -19  -2    0.65    0.35
   4  19   2    0.01    0.23
  -4  19   2    0.45    0.30
   4 -19  -1    7.02    0.62
   4  19   1    7.32    0.65
   4  19   1    8.09    0.45
  -4  19   1    7.87    0.59
   4  19   0   -0.02    0.18
   4  19   0    0.37    0.37
   4 -19   0    0.43    0.32
  -4 -19   0    0.04    0.17
  -4  19   0   -0.13    0.29
   4 -19   1    8.10    0.64
   4  19  -1    8.26    0.40
   4  19  -1    8.32    0.64
  -4  19  -1    8.12    0.62
  -4 -19   1    7.74    0.44
   4 -19   2   -0.06    0.30
   4  19  -2   -0.42    0.17
  -4 -19   2    0.34    0.21
  -4  19  -2   -0.28    0.30
   4  19  -3    6.21    0.57
   4  19  -3    5.61    0.35
   4 -19   3    6.52    0.56
  -4 -19   3    5.98    0.46
   4 -19   4    0.13    0.29
   4  19  -4   -0.25    0.30
   4  19  -4    0.21    0.19
  -4 -19   4   -0.13    0.25
   4  19  -5    2.29    0.38
   4 -19   5    2.16    0.35
  -4 -19   5    2.02    0.37
   4  19  -6   -0.35    0.33
   4 -19   6   -0.30    0.27
   4  19  -7    5.73    0.53
   4 -19   7    6.67    0.57
  -4 -19   7    5.71    0.58
   4 -19   8   -0.11    0.30
   4  19  -8   -0.21    0.34
  -4 -19   8   -0.57    0.31
   4  19  -9    0.93    0.38
   4 -19   9    0.92    0.32
  -4 -19   9    0.01    0.34
   4  19 -10    0.47    0.45
   4 -19  10   -0.32    0.32
  -4 -19  10   -0.30    0.36
   4 -19  11    0.34    0.35
   4  19 -11    0.63    0.43
  -4 -19  11   -0.07    0.40
   4 -19  12   -0.45    0.37
   4  19 -12   -0.19    0.45
  -4 -19  12   -0.40    0.46
   4 -19  13   -0.33    0.38
   4  19 -13   -0.20    0.47
  -4 -19  13   -0.72    0.46
   5  19  12    0.91    0.40
  -5  19  12    0.02    0.52
   5  19  11   -0.26    0.35
  -5  19  11    0.13    0.49
  -5  19  11   -0.17    0.42
   5  19  10    1.14    0.39
   5 -19 -10    1.31    0.71
   5 -19 -10    1.10    0.75
  -5  19  10    2.33    0.49
   5 -19  -9    2.58    0.71
   5  19   9    3.72    0.52
   5 -19  -9    2.58    0.76
  -5  19   9    3.60    0.47
   5 -19  -8    1.45    0.64
   5 -19  -8    0.58    0.65
   5  19   8    1.50    0.36
  -5  19   8    1.50    0.40
   5 -19  -7    0.10    0.54
   5  19   7   -0.18    0.31
   5 -19  -7    0.27    0.57
  -5  19   7    0.02    0.35
   5 -19  -6   -0.42    0.49
   5 -19  -6    0.61    0.54
   5  19   6    0.41    0.28
   5  19   6   -0.03    0.50
  -5  19   6    0.48    0.33
   5  19   5    3.92    0.43
   5  19   5    4.41    0.63
   5 -19  -5    3.70    0.57
  -5  19   5    4.57    0.53
   5 -19  -4    0.25    0.44
   5  19   4    0.02    0.25
   5  19   4    0.07    0.45
  -5  19   4   -0.50    0.30
   5  19   3    3.11    0.42
   5 -19  -3    2.83    0.52
   5  19   3    3.16    0.54
  -5  19   3    2.08    0.37
   5 -19  -2    0.34    0.39
   5  19   2    1.03    0.46
   5  19   2    1.06    0.31
  -5  19   2    0.77    0.35
   5  19   1    1.52    0.47
   5 -19  -1    2.32    0.42
   5  19   1    2.51    0.35
  -5  19   1    1.74    0.39
   5  19   0   -0.10    0.38
   5  19   0    0.22    0.21
   5 -19   0    0.60    0.38
  -5  19   0   -0.10    0.31
   5  19  -1    2.68    0.30
   5 -19   1    2.19    0.44
   5  19  -1    1.94    0.40
  -5  19  -1    2.24    0.41
  -5 -19   1    2.68    0.39
   5  19  -2    0.83    0.20
   5  19  -2    0.62    0.38
   5 -19   2    1.03    0.36
  -5 -19   2    0.96    0.27
   5  19  -3    2.87    0.44
   5  19  -3    2.82    0.31
   5 -19   3    2.22    0.44
  -5 -19   3    3.31    0.48
   5  19  -4    0.29    0.37
   5 -19   4    0.44    0.34
  -5 -19   4    0.14    0.36
   5  19  -5    4.52    0.59
  -5 -19   5    4.96    0.60
   5 -19   6    0.25    0.33
   5  19  -6    0.47    0.34
  -5 -19   6    0.01    0.36
   5  19  -7    0.17    0.39
   5 -19   7   -0.60    0.31
  -5 -19   7   -0.10    0.36
   5 -19   8    0.96    0.38
   5  19  -8    1.70    0.43
  -5 -19   8    1.36    0.41
   5 -19   9    4.10    0.59
   5  19  -9    2.71    0.56
  -5 -19   9    3.45    0.53
   5  19 -10    1.59    0.50
   5 -19  10    1.48    0.41
  -5 -19  10    1.31    0.50
   5 -19  11    0.09    0.44
   5  19 -11   -0.75    0.48
  -5 -19  11    0.04    0.49
   5  19 -12    0.38    0.56
   5 -19  12   -0.02    0.43
  -5 -19  12    0.04    0.58
   6  19  10   -0.22    0.40
   6 -19 -10   -1.06    0.79
   6 -19 -10   -0.71    0.76
  -6  19  10    0.98    0.48
   6  19   9   -0.60    0.36
   6 -19  -9   -0.26    0.72
   6 -19  -9    0.09    0.71
  -6  19   9    0.63    0.42
   6 -19  -8   -0.21    0.68
   6 -19  -8    0.18    0.68
   6  19   8    0.13    0.36
  -6  19   8    0.70    0.45
   6 -19  -7   -0.79    0.62
   6  19   7    0.50    0.34
   6 -19  -7    0.35    0.61
  -6  19   7    0.90    0.41
   6 -19  -6    0.24    0.57
   6 -19  -6    1.16    0.57
   6  19   6   -0.60    0.52
   6  19   6   -0.08    0.31
  -6  19   6   -0.31    0.38
   6  19   5   -0.02    0.53
   6 -19  -5   -0.70    0.51
   6  19   5    0.27    0.28
  -6  19   5   -0.05    0.39
   6  19   4   -0.73    0.51
   6  19   4   -0.05    0.27
   6 -19  -4    0.09    0.50
  -6  19   4   -0.47    0.37
   6  19   3    0.40    0.27
   6  19   3   -0.08    0.50
   6 -19  -3   -0.72    0.48
  -6  19   3   -0.19    0.37
   6  19   2    1.28    0.29
   6 -19  -2    2.01    0.54
  -6  19   2    1.23    0.40
   6  19   1   -0.02    0.45
   6 -19  -1    0.62    0.45
   6  19   1    0.22    0.31
  -6  19   1    0.13    0.35
   6  19   0   -0.21    0.29
   6 -19   0    0.09    0.45
   6  19   0    0.53    0.44
   6 -19   1    0.77    0.46
   6  19  -1    0.66    0.44
   6  19  -1    0.69    0.24
   6  19  -2    0.77    0.25
   6 -19   2    1.45    0.45
   6  19  -2    1.11    0.47
  -6 -19   2    1.31    0.34
   6 -19   3    0.22    0.39
   6  19  -3   -0.45    0.43
  -6 -19   3    0.30    0.38
   6  19  -4   -0.01    0.37
   6 -19   4   -0.49    0.40
  -6 -19   4    0.12    0.43
   6  19  -5    0.36    0.46
   6 -19   5    0.25    0.41
  -6 -19   5    1.21    0.40
   6  19  -6    0.22    0.43
   6 -19   6    0.41    0.39
  -6 -19   6    0.38    0.44
   6  19  -7    0.45    0.46
   6 -19   7    0.28    0.39
  -6 -19   7    0.46    0.48
   6 -19   8   -0.32    0.40
   6  19  -8   -0.17    0.39
  -6 -19   8   -0.25    0.49
   6  19  -9   -0.17    0.43
   6 -19   9   -0.78    0.47
  -6 -19   9    0.16    0.53
   6  19 -10   -0.06    0.54
   6 -19  10   -0.34    0.47
  -6 -19  10    0.48    0.57
   7 -19  -7    0.35    0.72
   7  19   7   -0.04    0.40
   7 -19  -7   -0.83    0.73
  -7  19   7    0.66    0.48
   7 -19  -6    0.33    0.66
   7  19   6   -0.09    0.38
   7  19   6    1.06    0.64
   7 -19  -6   -0.02    0.64
  -7  19   6    0.05    0.44
   7  19   5   -0.38    0.35
   7  19   5    0.42    0.63
   7 -19  -5   -0.42    0.56
  -7  19   5   -0.73    0.42
   7  19   4    0.20    0.35
   7  19   4    0.61    0.61
   7 -19  -4   -0.68    0.53
  -7  19   4    0.38    0.46
   7  19   3    1.00    0.34
   7 -19  -3    1.73    0.67
   7  19   3    0.80    0.55
   7  19   2   -0.59    0.30
   7  19   2   -0.13    0.55
   7 -19  -2   -0.37    0.54
   7  19   1    0.86    0.36
   7 -19  -1    1.49    0.56
   7  19   1    1.65    0.61
   7  19   0    6.57    0.89
   7  19   0    5.00    0.58
   7 -19   0    5.92    0.84
   7  19  -1    0.69    0.38
   7  19  -1    1.37    0.58
   7 -19   1    0.06    0.50
   7 -19   2   -0.36    0.49
   7  19  -2    0.20    0.50
   7  19  -3    1.10    0.54
   7 -19   3    0.83    0.50
   7  19  -4    0.14    0.50
   7 -19   4    0.50    0.50
  -7 -19   4    0.70    0.51
   7 -19   5    0.57    0.53
   7  19  -5    0.68    0.48
  -7 -19   5    0.47    0.50
   7  19  -6    0.72    0.47
   7 -19   6    0.58    0.51
  -7 -19   6    0.17    0.51
   7  19  -7    0.37    0.51
   7 -19   7    0.44    0.50
  -7 -19   7    0.40    0.56
   8  19   3   -0.12    0.69
   8 -19  -3   -0.21    0.74
   8  19   2    1.16    0.62
   8 -19  -2    0.55    0.74
   8  19   2   -0.32    0.42
   8  19   1    0.17    0.42
   8  19   1   -0.06    0.65
   8 -19  -1   -0.08    0.67
   8  19   0    0.51    0.52
   8 -19   0   -0.12    0.65
   8  19   0    0.19    0.62
   8 -19   1   -0.78    0.63
   8  19  -1   -0.79    0.59
   8 -19   2    0.12    0.63
   8  19  -2    0.12    0.60
   8 -19   3   -0.07    0.59
   8  19  -3    0.13    0.60
   0  20  14    1.58    0.38
   0  20  13    0.45    0.31
   0  20  12    0.53    0.32
   0  20  11    3.29    0.44
   0  20  10    0.24    0.25
   0  20  10   -0.88    0.53
   0  20   9    7.09    0.49
   0  20   9    6.64    0.77
   0 -20  -8    2.80    0.40
   0  20   8    2.59    0.34
   0  20   8    3.38    0.51
   0  20   7   10.48    0.75
   0  20   7   10.55    0.56
   0 -20  -7   10.75    0.48
   0 -20  -6    0.04    0.19
   0  20   6    0.29    0.37
   0  20   6    0.18    0.21
   0 -20  -5   15.61    0.58
   0  20   5   15.97    0.70
   0  20   5   15.28    0.81
   0  20   4   -0.19    0.21
   0  20   4   -0.06    0.28
   0 -20  -4   -0.27    0.17
   0 -20  -3    1.28    0.20
   0  20   3    0.96    0.30
   0  20   3    0.76    0.29
   0  20   2   12.70    0.69
   0  20   2   12.89    0.64
   0 -20  -2   12.70    0.50
   0  20   1    9.06    0.53
   0  20   1    9.26    0.55
   0 -20  -1    9.11    0.42
   0  20   0    0.54    0.25
   0  20   0   -0.12    0.21
   0 -20   0    0.22    0.15
   0  20  -1    9.10    0.50
   0 -20   1    9.73    0.44
   0  20  -1    8.20    0.55
   0 -20   2   13.35    0.54
   0  20  -2   13.07    0.70
   0  20  -2   12.36    0.59
   0 -20   3    0.95    0.24
   0  20  -3    0.94    0.26
   0  20  -3    0.84    0.34
   0  20  -4    0.33    0.34
   0 -20   4    0.07    0.20
   0  20  -4   -0.19    0.21
   0 -20   5   16.37    0.63
   0  20  -5   15.06    0.78
   0  20  -5   15.48    0.65
   0 -20   6   -0.05    0.19
   0  20  -6    0.41    0.29
   0  20  -7   10.60    0.63
   0 -20   7   10.50    0.52
   0  20  -8    2.81    0.43
   0 -20   8    2.99    0.36
   0 -20   9    6.64    0.49
   0  20  -9    6.54    0.56
   0  20 -10   -0.02    0.29
   0 -20  10    0.00    0.24
   0 -20  11    2.63    0.34
   0  20 -11    1.88    0.40
   0 -20  12    0.39    0.30
   0 -20  13    0.47    0.32
   0 -20  14    1.17    0.47
   1  20  14   -0.27    0.34
  -1  20  14    0.26    0.38
   1  20  13    0.11    0.33
  -1  20  13    0.33    0.33
   1  20  12    0.40    0.31
  -1  20  12    1.59    0.53
  -1  20  12    0.44    0.31
   1  20  11    0.35    0.28
  -1  20  11    0.33    0.47
  -1  20  11    0.54    0.29
   1 -20 -10    0.45    0.41
   1  20  10    0.33    0.25
   1 -20 -10    0.44    0.39
  -1  20  10    0.93    0.44
  -1  20  10    0.81    0.27
   1  20   9   -0.06    0.24
   1 -20  -9    0.34    0.35
   1  20   9   -0.24    0.64
  -1  20   9   -0.47    0.39
  -1  20   9    0.10    0.24
   1  20   8   -0.76    0.60
   1  20   8    0.12    0.22
   1 -20  -8   -0.56    0.32
  -1  20   8    0.03    0.37
  -1  20   8    0.24    0.23
   1 -20  -7   19.48    0.82
   1  20   7   20.12    0.79
   1  20   7   20.54    1.16
  -1  20   7   17.99    0.87
  -1  20   7   18.85    0.80
   1  20   6    2.07    0.51
   1  20   6    1.82    0.29
   1 -20  -6    1.68    0.33
  -1  20   6    1.14    0.33
  -1  20   6    1.31    0.27
   1 -20  -5    0.07    0.27
   1  20   5    0.23    0.23
  -1  20   5    0.13    0.29
  -1  20   5    0.26    0.24
   1 -20  -4   25.42    0.89
   1  20   4   24.95    1.09
   1  20   4   23.97    0.90
  -1  20   4   23.29    0.93
  -1  20   4   23.55    0.91
  -1 -20  -4   23.35    0.66
   1 -20  -3    1.15    0.25
   1  20   3    0.28    0.25
   1  20   3    0.93    0.34
  -1 -20  -3    0.64    0.12
  -1  20   3    0.49    0.26
  -1  20   3    1.04    0.29
   1 -20  -2   -0.02    0.20
   1  20   2    0.00    0.23
   1  20   2    0.42    0.33
  -1 -20  -2    0.32    0.12
  -1  20   2    0.51    0.26
  -1  20   2    0.17    0.26
   1  20   1   11.31    0.73
   1 -20  -1   11.71    0.56
   1  20   1   11.74    0.55
  -1 -20  -1   11.49    0.42
  -1  20   1   10.92    0.60
  -1  20   1   12.10    0.65
   1  20   0    0.08    0.32
   1 -20   0    0.21    0.22
   1  20   0    0.14    0.19
  -1  20   0    0.43    0.25
  -1 -20   0    0.15    0.13
  -1  20   0    0.06    0.25
   1 -20   1   10.97    0.58
   1  20  -1   11.62    0.52
   1  20  -1    9.83    0.76
  -1  20  -1   12.31    0.61
  -1  20  -1   10.42    0.59
  -1 -20   1   11.28    0.43
   1  20  -2    0.06    0.20
   1  20  -2    0.40    0.36
   1 -20   2    0.57    0.29
  -1  20  -2    0.68    0.24
  -1 -20   2    0.26    0.14
  -1  20  -2    0.29    0.23
   1  20  -3    0.96    0.34
   1 -20   3    0.65    0.23
  -1 -20   3    0.58    0.18
  -1  20  -3    0.76    0.27
  -1  20  -3    0.15    0.24
   1  20  -4   23.79    0.83
   1  20  -4   23.65    0.98
   1 -20   4   23.40    0.86
  -1 -20   4   22.57    0.82
  -1  20  -4   24.20    0.90
  -1  20  -4   24.05    0.98
   1 -20   5    0.17    0.21
   1  20  -5    0.15    0.27
   1  20  -5    0.58    0.23
  -1 -20   5    0.18    0.21
  -1  20  -5    0.66    0.25
  -1  20  -5    0.21    0.30
   1  20  -6    1.86    0.33
   1  20  -6    1.25    0.26
   1 -20   6    1.49    0.26
  -1  20  -6    1.37    0.31
  -1 -20   6    1.70    0.25
   1 -20   7   19.10    0.78
   1  20  -7   19.20    0.86
  -1  20  -7   19.90    0.86
  -1 -20   7   19.98    0.76
   1  20  -8    0.71    0.31
   1 -20   8    0.00    0.21
  -1 -20   8    0.22    0.22
  -1  20  -8    0.04    0.29
   1  20  -9   -0.01    0.32
   1 -20   9   -0.16    0.24
  -1  20  -9    0.23    0.32
  -1 -20   9    0.10    0.22
   1 -20  10    0.31    0.25
   1  20 -10    0.38    0.29
  -1 -20  10    0.55    0.27
   1 -20  11    0.38    0.27
   1  20 -11   -0.31    0.33
  -1 -20  11   -0.09    0.27
   1  20 -12    0.31    0.34
   1 -20  12    1.60    0.34
  -1 -20  12    0.92    0.32
   1 -20  13    0.07    0.32
  -1 -20  13    0.12    0.33
   1 -20  14   -0.21    0.36
  -1 -20  14   -0.48    0.45
   2  20  14   -0.17    0.34
  -2  20  14    0.56    0.39
   2  20  13    0.00    0.33
  -2  20  13    0.01    0.36
   2  20  12    0.19    0.31
   2 -20 -12   -0.57    0.67
   2 -20 -12    0.38    0.65
  -2  20  12    0.96    0.35
   2 -20 -11    3.00    0.67
   2 -20 -11    2.79    0.66
   2  20  11    2.79    0.38
  -2  20  11    2.65    0.36
   2 -20 -10   -0.23    0.65
   2 -20 -10    0.03    0.62
   2  20  10    0.04    0.27
  -2  20  10    0.58    0.28
   2 -20  -9    1.60    0.61
   2 -20  -9    0.86    0.56
   2  20   9    1.26    0.29
  -2  20   9    1.41    0.29
  -2  20   9    2.23    0.47
   2 -20  -8    0.75    0.51
   2  20   8    0.41    0.26
   2  20   8    0.68    0.48
  -2  20   8    0.39    0.30
  -2  20   8    0.15    0.24
   2  20   7    0.87    0.25
   2  20   7    0.86    0.48
   2 -20  -7    0.40    0.47
  -2  20   7    0.60    0.25
  -2  20   7    0.60    0.30
   2 -20  -6    0.10    0.39
   2  20   6    0.74    0.24
   2  20   6    0.95    0.51
  -2  20   6    0.63    0.25
  -2  20   6    0.24    0.28
   2  20   5    4.22    0.63
   2  20   5    6.14    0.46
   2 -20  -5    5.23    0.64
  -2  20   5    6.55    0.48
  -2  20   5    5.33    0.47
   2 -20  -4    6.89    0.65
   2  20   4    6.10    0.82
   2  20   4    7.40    0.50
  -2  20   4    7.62    0.51
  -2  20   4    8.11    0.52
   2  20   3    7.12    0.51
   2  20   3    7.39    0.76
   2 -20  -3    7.85    0.66
  -2  20   3    7.94    0.53
  -2  20   3    7.92    0.50
   2 -20  -2   -0.01    0.33
   2  20   2    0.01    0.39
   2  20   2   -0.26    0.23
  -2  20   2    0.02    0.26
  -2 -20  -2    0.26    0.11
  -2  20   2    0.05    0.24
   2  20   1    5.91    0.65
   2  20   1    5.91    0.37
   2 -20  -1    4.91    0.62
  -2 -20  -1    6.10    0.29
  -2  20   1    5.75    0.43
  -2  20   1    6.16    0.52
   2  20   0   28.57    1.19
   2  20   0   27.19    0.91
   2 -20   0   27.81    1.07
  -2  20   0   27.80    0.97
  -2  20   0   28.45    1.11
  -2 -20   0   27.10    0.82
   2  20  -1    5.93    0.59
   2 -20   1    5.73    0.51
   2  20  -1    6.12    0.37
  -2 -20   1    6.22    0.34
  -2  20  -1    6.12    0.46
  -2  20  -1    5.63    0.59
   2 -20   2    0.35    0.25
   2  20  -2   -0.10    0.29
   2  20  -2   -0.06    0.18
  -2  20  -2   -0.33    0.31
  -2  20  -2    0.08    0.23
  -2 -20   2    0.15    0.16
   2  20  -3    7.50    0.60
   2 -20   3    8.75    0.51
   2  20  -3    7.40    0.43
  -2  20  -3    7.77    0.52
  -2 -20   3    9.01    0.42
  -2  20  -3    8.12    0.62
   2 -20   4    6.66    0.49
   2  20  -4    7.01    0.56
   2  20  -4    7.08    0.41
  -2  20  -4    7.65    0.57
  -2  20  -4    7.82    0.60
  -2 -20   4    7.41    0.46
   2  20  -5    4.63    0.37
   2 -20   5    5.65    0.45
   2  20  -5    4.69    0.44
  -2 -20   5    4.90    0.45
  -2  20  -5    5.98    0.59
   2 -20   6    0.46    0.25
   2  20  -6    0.39    0.23
   2  20  -6    0.94    0.31
  -2 -20   6    0.56    0.24
  -2  20  -6    1.13    0.31
   2 -20   7    0.86    0.25
   2  20  -7    0.41    0.30
  -2 -20   7    0.71    0.26
   2  20  -8    0.77    0.31
   2 -20   8    0.01    0.24
  -2 -20   8    0.11    0.24
   2  20  -9    1.42    0.35
   2 -20   9    1.31    0.29
  -2 -20   9    1.66    0.28
   2 -20  10   -0.22    0.25
   2  20 -10   -0.17    0.32
  -2 -20  10    0.31    0.29
   2  20 -11    2.40    0.42
   2 -20  11    2.71    0.36
  -2 -20  11    3.08    0.41
   2  20 -12    1.30    0.43
   2 -20  12    0.90    0.30
  -2 -20  12    0.65    0.36
   2  20 -13   -0.10    0.42
   2 -20  13    0.16    0.35
  -2 -20  13   -0.48    0.36
   2  20 -14    0.23    0.49
   2 -20  14    0.60    0.39
  -2 -20  14    1.12    0.52
   3  20  13    1.32    0.41
  -3  20  13    1.81    0.41
   3  20  12    0.76    0.34
  -3  20  12    0.88    0.38
   3 -20 -11    1.14    0.66
   3  20  11    0.68    0.31
   3 -20 -11    0.56    0.69
  -3  20  11    0.45    0.35
   3  20  10    0.26    0.29
   3 -20 -10    0.78    0.66
   3 -20 -10   -0.03    0.59
  -3  20  10    0.42    0.31
   3 -20  -9    0.83    0.59
   3 -20  -9    0.31    0.58
   3  20   9    0.44    0.29
  -3  20   9   -0.07    0.29
   3 -20  -8    4.82    0.63
   3 -20  -8    3.94    0.65
   3  20   8    4.17    0.47
  -3  20   8    3.56    0.47
   3 -20  -7   -0.33    0.46
   3  20   7    0.51    0.48
   3  20   7    0.26    0.26
  -3  20   7   -0.15    0.25
   3  20   6   17.61    0.73
   3 -20  -6   17.43    1.03
   3  20   6   16.60    1.05
  -3  20   6   16.27    0.79
   3  20   5   15.08    0.66
   3  20   5   15.98    0.95
   3 -20  -5   14.44    0.91
  -3  20   5   14.53    0.72
  -3  20   5   12.99    0.56
   3  20   4    1.55    0.28
   3 -20  -4    1.11    0.41
   3  20   4    1.73    0.45
  -3  20   4    1.24    0.23
  -3  20   4    1.43    0.32
   3  20   3    0.77    0.30
   3 -20  -3    1.22    0.37
   3  20   3    1.11    0.41
  -3  20   3    0.44    0.23
  -3  20   3    0.80    0.28
   3 -20  -2    0.09    0.32
   3  20   2    0.24    0.25
   3  20   2    0.40    0.37
  -3  20   2   -0.16    0.26
  -3  20   2   -0.06    0.21
   3 -20  -1    8.86    0.67
   3  20   1   10.37    0.75
   3  20   1   10.49    0.50
  -3  20   1    9.87    0.52
  -3 -20  -1    9.17    0.37
  -3  20   1   10.23    0.64
   3 -20   0    0.35    0.30
   3  20   0   -0.41    0.32
   3  20   0    0.12    0.19
  -3  20   0   -0.01    0.21
  -3 -20   0    0.10    0.16
  -3  20   0    0.20    0.29
   3  20  -1    9.11    0.66
   3 -20   1   10.32    0.64
   3  20  -1    9.33    0.44
  -3  20  -1    9.62    0.65
  -3  20  -1    9.70    0.53
  -3 -20   1    9.47    0.44
   3 -20   2    0.24    0.27
   3  20  -2   -0.32    0.18
   3  20  -2    0.00    0.32
  -3  20  -2    0.24    0.31
  -3  20  -2   -0.21    0.23
  -3 -20   2   -0.29    0.17
   3 -20   3    0.63    0.29
   3  20  -3    0.95    0.20
   3  20  -3    0.36    0.31
  -3  20  -3    1.07    0.34
  -3 -20   3    0.39    0.21
   3  20  -4    1.37    0.32
   3  20  -4    1.48    0.22
   3 -20   4    1.21    0.30
  -3 -20   4    1.11    0.27
   3  20  -5   13.60    0.76
   3 -20   5   13.03    0.68
   3  20  -5   15.38    0.70
  -3 -20   5   13.16    0.70
   3  20  -6   15.84    0.83
   3 -20   6   17.23    0.78
  -3 -20   6   16.15    0.75
   3  20  -7    0.28    0.31
   3 -20   7    0.29    0.26
  -3 -20   7    0.28    0.29
   3  20  -8    3.71    0.52
   3 -20   8    3.47    0.46
  -3 -20   8    3.19    0.40
   3  20  -9    0.19    0.34
   3 -20   9    0.65    0.29
  -3 -20   9    0.53    0.32
   3 -20  10    0.00    0.28
   3  20 -10    0.30    0.38
  -3 -20  10    0.30    0.34
   3  20 -11    0.96    0.46
   3 -20  11    1.01    0.32
  -3 -20  11    0.76    0.40
   3 -20  12    2.01    0.41
   3  20 -12    1.78    0.53
  -3 -20  12    1.13    0.45
   3 -20  13    1.16    0.42
   3  20 -13    0.43    0.48
  -3 -20  13    0.95    0.46
   4  20  12    5.53    0.60
  -4  20  12    6.31    0.68
   4 -20 -11    1.32    0.75
   4 -20 -11    2.07    0.74
   4  20  11    1.39    0.38
  -4  20  11    1.37    0.40
   4 -20 -10    0.19    0.66
   4  20  10    0.55    0.33
   4 -20 -10    0.10    0.70
  -4  20  10    0.82    0.38
   4 -20  -9    1.28    0.67
   4  20   9    0.96    0.31
   4 -20  -9    1.00    0.62
  -4  20   9    0.80    0.34
   4 -20  -8   -0.14    0.57
   4 -20  -8    0.29    0.53
   4  20   8    0.12    0.29
   4 -20  -7    2.14    0.60
   4  20   7    1.06    0.51
   4 -20  -7    1.79    0.57
   4  20   7    1.03    0.27
  -4  20   7    0.84    0.33
   4  20   6    5.46    0.46
   4  20   6    5.45    0.78
   4 -20  -6    4.96    0.65
  -4  20   6    5.69    0.55
   4 -20  -5    0.32    0.43
   4  20   5    0.87    0.49
   4  20   5    0.99    0.26
  -4  20   5    0.71    0.32
   4 -20  -4    0.66    0.41
   4  20   4   -0.54    0.43
   4  20   4    0.16    0.25
  -4  20   4    0.02    0.31
   4  20   3    3.77    0.53
   4  20   3    3.33    0.40
   4 -20  -3    3.73    0.51
  -4  20   3    3.90    0.48
   4  20   2    0.56    0.32
   4  20   2    0.97    0.40
   4 -20  -2    0.66    0.37
  -4  20   2    0.01    0.30
   4 -20  -1    7.42    0.68
   4  20   1    6.19    0.67
   4  20   1    7.65    0.48
  -4  20   1    6.58    0.57
   4 -20   0    0.58    0.35
   4  20   0    0.79    0.21
   4  20   0    0.59    0.38
  -4  20   0    0.91    0.34
  -4 -20   0    1.32    0.26
   4 -20   1    6.74    0.61
   4  20  -1    7.05    0.40
   4  20  -1    7.02    0.65
  -4  20  -1    7.28    0.61
  -4 -20   1    7.41    0.42
   4 -20   2    0.10    0.33
   4  20  -2    0.46    0.37
   4  20  -2    0.27    0.19
  -4  20  -2   -0.05    0.34
  -4 -20   2    0.35    0.22
   4 -20   3    3.56    0.51
   4  20  -3    3.05    0.32
   4  20  -3    3.36    0.48
  -4 -20   3    3.12    0.43
   4 -20   4    0.03    0.30
   4  20  -4    0.03    0.34
  -4 -20   4    0.01    0.30
   4  20  -5    0.03    0.33
   4 -20   5   -0.46    0.28
  -4 -20   5    0.40    0.32
   4 -20   6    5.70    0.55
   4  20  -6    3.93    0.58
  -4 -20   6    4.56    0.54
   4 -20   7    1.04    0.35
   4  20  -7    0.35    0.34
  -4 -20   7    0.64    0.32
   4  20  -8    1.20    0.41
   4 -20   8    0.66    0.32
  -4 -20   8    0.21    0.34
   4  20  -9    1.36    0.43
   4 -20   9    0.48    0.33
  -4 -20   9    0.00    0.38
   4  20 -10    0.33    0.40
   4 -20  10    0.16    0.35
  -4 -20  10    0.71    0.44
   4  20 -11    0.67    0.46
   4 -20  11    0.97    0.38
  -4 -20  11    0.26    0.44
   4 -20  12    4.69    0.65
   4  20 -12    5.28    0.75
  -4 -20  12    5.54    0.68
   5 -20 -11    4.31    0.97
   5 -20 -11    2.78    0.87
   5  20  11    4.63    0.62
  -5  20  11    5.37    0.72
   5 -20 -10   -1.24    0.68
   5 -20 -10    0.50    0.76
   5  20  10    0.44    0.37
  -5  20  10   -0.53    0.41
   5 -20  -9    0.79    0.69
   5 -20  -9    1.15    0.74
   5  20   9    1.89    0.39
  -5  20   9    1.35    0.46
   5 -20  -8    2.62    0.71
   5 -20  -8    2.83    0.74
   5  20   8    2.23    0.36
  -5  20   8    2.16    0.45
   5 -20  -7    1.12    0.61
   5  20   7    1.35    0.57
   5 -20  -7    1.92    0.60
   5  20   7    0.91    0.34
  -5  20   7    0.78    0.37
   5  20   6   -0.05    0.28
   5 -20  -6   -0.11    0.53
   5  20   6    0.65    0.55
  -5  20   6    0.47    0.35
   5  20   5   -0.36    0.51
   5  20   5    0.22    0.25
   5 -20  -5    0.73    0.52
  -5  20   5    0.81    0.37
   5  20   4    0.70    0.48
   5 -20  -4    0.09    0.49
   5  20   4    1.07    0.30
  -5  20   4    0.67    0.34
   5  20   3    0.41    0.48
   5 -20  -3    0.82    0.46
   5  20   3    0.92    0.26
  -5  20   3   -0.08    0.34
   5  20   2   -0.08    0.46
   5  20   2    0.55    0.26
   5 -20  -2    0.99    0.42
  -5  20   2    0.61    0.36
   5 -20  -1    0.60    0.41
   5  20   1    0.55    0.44
   5  20   1    0.06    0.30
  -5  20   1    0.18    0.35
   5 -20   0   -0.35    0.40
   5  20   0   -0.18    0.24
  -5  20   0   -0.19    0.34
   5  20  -1   -0.08    0.21
   5 -20   1   -0.49    0.36
   5  20  -1    0.14    0.39
  -5  20  -1    0.33    0.35
   5 -20   2    1.01    0.39
   5  20  -2    0.33    0.21
   5  20  -2    0.02    0.38
  -5 -20   2    0.67    0.27
   5  20  -3    0.46    0.39
   5 -20   3    1.18    0.39
  -5 -20   3    0.99    0.30
   5 -20   4    0.79    0.38
   5  20  -4    0.36    0.40
  -5 -20   4    0.69    0.38
   5  20  -5   -0.26    0.36
   5 -20   5   -0.33    0.33
  -5 -20   5    0.80    0.38
   5  20  -6    0.32    0.38
   5 -20   6    0.43    0.34
  -5 -20   6    0.33    0.38
   5 -20   7    0.56    0.34
   5  20  -7    0.90    0.41
  -5 -20   7    0.89    0.41
   5  20  -8    3.14    0.47
   5 -20   8    2.59    0.45
  -5 -20   8    2.92    0.51
   5 -20   9    1.45    0.41
   5  20  -9    2.45    0.55
  -5 -20   9    1.72    0.49
   5  20 -10   -0.29    0.50
   5 -20  10    0.78    0.45
  -5 -20  10    0.01    0.48
   5 -20  11    3.64    0.52
   5  20 -11    3.11    0.60
  -5 -20  11    3.66    0.64
   6 -20  -9    5.37    0.95
   6 -20  -9    6.88    1.02
   6  20   9    5.79    0.62
   6 -20  -8    0.67    0.70
   6 -20  -8    0.29    0.75
   6  20   8    0.82    0.37
  -6  20   8    1.08    0.46
   6 -20  -7    0.52    0.67
   6  20   7    0.68    0.34
   6 -20  -7    0.91    0.71
   6  20   7    0.58    0.60
  -6  20   7    0.64    0.43
   6 -20  -6    0.26    0.59
   6  20   6    0.34    0.57
   6  20   6    0.28    0.33
  -6  20   6   -0.18    0.40
   6  20   5    0.54    0.33
   6 -20  -5   -0.34    0.57
   6  20   5    1.32    0.56
  -6  20   5    0.79    0.45
   6 -20  -4    0.71    0.55
   6  20   4    0.74    0.55
   6  20   4    1.29    0.32
  -6  20   4    0.35    0.42
   6 -20  -3    1.72    0.56
   6  20   3    0.45    0.51
   6  20   3    1.54    0.31
  -6  20   3    1.01    0.41
   6 -20  -2    5.95    0.81
   6  20   2    7.31    0.52
   6  20   2    8.26    0.84
  -6  20   2    6.86    0.73
   6 -20  -1    0.31    0.45
   6  20   1    0.16    0.47
   6  20   1    0.49    0.30
  -6  20   1    0.11    0.41
   6 -20   0    6.87    0.77
   6  20   0    4.53    0.63
   6  20   0    5.70    0.56
   6  20  -1   -0.25    0.26
   6  20  -1   -0.11    0.48
   6 -20   1    0.14    0.43
   6 -20   2    7.52    0.78
   6  20  -2    6.87    0.80
   6 -20   3    1.02    0.45
   6  20  -3    0.77    0.48
  -6 -20   3    1.21    0.73
   6 -20   4    0.58    0.41
   6  20  -4    0.24    0.47
  -6 -20   4    1.08    0.43
   6 -20   5    0.08    0.41
   6  20  -5    0.34    0.42
  -6 -20   5    0.31    0.42
   6 -20   6    0.50    0.42
   6  20  -6    0.33    0.50
  -6 -20   6    0.41    0.45
   6 -20   7   -0.21    0.43
   6  20  -7    0.17    0.50
  -6 -20   7    0.23    0.50
   6  20  -8   -0.05    0.42
   6 -20   8    0.23    0.50
  -6 -20   8   -0.01    0.52
   6  20  -9    7.33    0.77
   6 -20   9    5.73    0.83
  -6 -20   9    7.15    0.98
   7  20   6    1.05    0.64
   7 -20  -6   -0.11    0.71
   7  20   6    0.41    0.39
  -7  20   6    1.03    0.49
   7 -20  -5    0.20    0.64
   7  20   5   -0.31    0.60
  -7  20   5    0.43    0.47
   7  20   4   -0.42    0.35
   7 -20  -4   -0.02    0.64
   7  20   4    0.90    0.64
  -7  20   4    0.06    0.46
   7 -20  -3   -0.46    0.63
   7  20   3   -0.40    0.57
   7  20   3   -0.14    0.33
   7  20   2    0.13    0.53
   7 -20  -2   -1.39    0.61
   7  20   2    0.71    0.33
   7  20   1   -0.12    0.33
   7  20   1   -0.11    0.54
   7 -20  -1    1.02    0.60
   7  20   0   -0.71    0.34
   7 -20   0    0.25    0.51
   7  20  -1    0.26    0.50
   7 -20   1   -0.17    0.55
   7 -20   2    0.22    0.55
   7  20  -2    0.46    0.52
   7 -20   3    0.12    0.54
   7  20  -3   -0.39    0.54
   7 -20   4    0.28    0.52
   7  20  -4   -0.29    0.53
   7 -20   5    0.14    0.55
   7  20  -5    0.56    0.49
   7  20  -6    0.38    0.53
   7 -20   6    0.31    0.49
  -7 -20   6    0.34    0.54
   0  21  13    0.32    0.34
   0  21  12   -1.10    0.67
   0  21  12    0.14    0.32
   0  21  11   -0.57    0.28
   0  21  11    0.07    0.75
   0  21  10    0.15    0.60
   0  21  10   -0.38    0.26
   0  21   9    0.49    0.56
   0  21   9   -0.04    0.25
   0  21   8   -0.41    0.45
   0  21   8    0.08    0.24
   0  21   7    0.47    0.23
   0  21   7    0.11    0.39
   0  21   6   -0.09    0.22
   0  21   6   -0.16    0.37
   0 -21  -6   -0.07    0.19
   0 -21  -5   -0.31    0.17
   0  21   5    0.29    0.25
   0  21   5   -0.15    0.33
   0 -21  -4    0.07    0.18
   0  21   4    0.34    0.32
   0  21   4    0.35    0.24
   0  21   3    0.03    0.25
   0 -21  -3    0.07    0.17
   0  21   3   -0.18    0.29
   0  21   2    0.41    0.28
   0 -21  -2    0.16    0.17
   0  21   2    0.56    0.30
   0  21   1    0.40    0.28
   0 -21  -1    0.14    0.17
   0  21   1    0.51    0.28
   0 -21   0    0.01    0.17
   0  21   0   -0.43    0.25
   0  21   0   -0.27    0.30
   0  21  -1    0.04    0.22
   0  21  -1    0.08    0.31
   0 -21   1    0.00    0.16
   0  21  -2    0.59    0.37
   0 -21   2    0.23    0.20
   0  21  -2    0.08    0.24
   0  21  -3    0.41    0.25
   0  21  -3    0.22    0.33
   0 -21   3   -0.18    0.25
   0  21  -4    0.14    0.24
   0  21  -4    0.19    0.28
   0 -21   4   -0.01    0.20
   0 -21   5   -0.23    0.21
   0  21  -5   -0.14    0.24
   0  21  -5   -0.16    0.28
   0  21  -6    0.09    0.29
   0 -21   6   -0.19    0.22
   0  21  -7   -0.27    0.28
   0 -21   7    0.17    0.22
   0 -21   8    0.16    0.22
   0  21  -8   -0.59    0.31
   0 -21   9    0.12    0.24
   0  21  -9   -0.27    0.30
   0  21 -10    0.28    0.33
   0 -21  10   -0.15    0.26
   0  21 -11    0.36    0.33
   0 -21  11    0.15    0.29
   0 -21  12    0.49    0.33
   0 -21  13    0.67    0.37
   1  21  13   -0.22    0.34
  -1  21  13    0.18    0.34
   1  21  12    0.31    0.33
  -1  21  12    1.30    0.34
   1  21  11    0.32    0.31
  -1  21  11   -0.18    0.46
  -1  21  11    0.49    0.29
   1  21  10    0.09    0.27
   1  21  10    1.22    0.59
  -1  21  10   -0.02    0.44
  -1  21  10   -0.18    0.27
   1 -21  -9    0.21    0.41
   1  21   9   -0.64    0.54
   1  21   9    0.00    0.24
  -1  21   9    0.40    0.28
  -1  21   9    0.25    0.39
   1 -21  -8    0.06    0.33
   1  21   8   -0.48    0.24
   1  21   8   -0.23    0.54
  -1  21   8   -0.25    0.39
  -1  21   8   -0.04    0.26
   1 -21  -7    1.41    0.33
   1  21   7    1.42    0.26
   1  21   7    1.77    0.67
  -1  21   7    0.92    0.37
  -1  21   7    1.61    0.31
   1  21   6    1.08    0.26
   1 -21  -6    0.76    0.30
   1  21   6    0.42    0.56
  -1  21   6    0.44    0.34
  -1  21   6    1.06    0.27
   1  21   5    0.96    0.26
   1  21   5    1.05    0.51
   1 -21  -5    1.25    0.29
  -1  21   5    1.25    0.34
  -1  21   5    0.89    0.28
   1 -21  -4    1.37    0.29
   1  21   4    1.50    0.28
   1  21   4    1.73    0.51
  -1  21   4    1.54    0.33
  -1 -21  -4    1.47    0.17
  -1  21   4    2.21    0.33
   1  21   3    1.15    0.44
   1  21   3    1.74    0.33
   1 -21  -3    1.65    0.28
  -1  21   3    1.71    0.30
  -1 -21  -3    1.65    0.18
  -1  21   3    2.03    0.34
   1 -21  -2    0.07    0.22
   1  21   2    0.59    0.43
   1  21   2    0.32    0.28
  -1  21   2    0.46    0.24
  -1  21   2    0.25    0.27
  -1 -21  -2    0.14    0.12
   1  21   1    7.76    0.75
   1  21   1    9.67    0.57
   1 -21  -1    8.72    0.51
  -1  21   1    9.17    0.63
  -1  21   1   10.08    0.60
  -1 -21  -1    9.62    0.38
   1  21   0   26.78    1.14
   1  21   0   26.72    0.93
   1 -21   0   26.84    0.94
  -1  21   0   26.15    0.99
  -1  21   0   23.76    1.01
  -1 -21   0   26.17    0.79
   1  21  -1    8.88    0.50
   1 -21   1    9.46    0.62
   1  21  -1    9.28    0.69
  -1 -21   1    9.66    0.40
  -1  21  -1    9.41    0.60
  -1  21  -1    9.16    0.58
   1 -21   2    0.66    0.27
   1  21  -2   -0.02    0.31
   1  21  -2    0.22    0.21
  -1  21  -2    0.23    0.30
  -1 -21   2    0.26    0.15
  -1  21  -2    0.05    0.29
   1  21  -3    1.37    0.36
   1  21  -3    1.65    0.26
   1 -21   3    2.15    0.28
  -1  21  -3    2.04    0.39
  -1 -21   3    1.80    0.24
  -1  21  -3    1.89    0.34
   1  21  -4    1.74    0.28
   1 -21   4    1.92    0.27
   1  21  -4    2.18    0.39
  -1  21  -4    1.86    0.34
  -1  21  -4    2.00    0.39
  -1 -21   4    1.89    0.29
   1 -21   5    0.85    0.25
   1  21  -5    0.83    0.31
   1  21  -5    0.65    0.25
  -1  21  -5    1.08    0.30
  -1 -21   5    0.93    0.23
  -1  21  -5    1.30    0.35
   1 -21   6    0.40    0.23
   1  21  -6    0.59    0.26
   1  21  -6    0.51    0.31
  -1 -21   6    0.86    0.24
  -1  21  -6    0.36    0.30
   1  21  -7    1.30    0.34
   1 -21   7    1.05    0.25
  -1 -21   7    1.37    0.27
  -1  21  -7    1.78    0.35
   1  21  -8   -0.33    0.30
   1 -21   8    0.35    0.24
  -1 -21   8   -0.10    0.24
  -1  21  -8    0.74    0.31
   1  21  -9   -0.11    0.32
   1 -21   9    0.00    0.24
  -1 -21   9   -0.19    0.25
  -1  21  -9   -0.09    0.31
   1  21 -10   -0.11    0.33
   1 -21  10    0.02    0.26
  -1 -21  10    0.34    0.29
   1  21 -11   -0.12    0.36
   1 -21  11   -0.14    0.29
  -1 -21  11    0.89    0.31
   1 -21  12    0.48    0.32
   1  21 -12    0.36    0.38
  -1 -21  12    1.56    0.38
   1 -21  13    0.28    0.36
   1  21 -13    0.37    0.41
  -1 -21  13   -0.26    0.36
   2  21  13    0.49    0.38
  -2  21  13   -0.16    0.39
   2  21  12    1.44    0.38
  -2  21  12    0.77    0.33
   2  21  11    0.94    0.34
   2 -21 -11   -0.29    0.69
   2 -21 -11    1.61    0.76
  -2  21  11    1.03    0.32
   2  21  10    0.30    0.31
   2 -21 -10   -0.92    0.59
   2 -21 -10    0.42    0.57
  -2  21  10    0.17    0.32
   2  21   9    1.87    0.33
   2  21   9    1.17    0.59
   2 -21  -9    2.07    0.64
  -2  21   9    1.87    0.35
   2  21   8    5.70    0.48
   2 -21  -8    5.45    0.64
   2  21   8    5.35    0.79
  -2  21   8    5.82    0.54
  -2  21   8    5.95    0.50
   2 -21  -7    0.05    0.47
   2  21   7    0.82    0.27
   2  21   7    0.13    0.47
  -2  21   7    0.48    0.27
  -2  21   7   -0.08    0.29
   2  21   6   -0.12    0.43
   2  21   6    0.35    0.26
   2 -21  -6    0.48    0.43
  -2  21   6    0.43    0.26
  -2  21   6    0.69    0.30
   2  21   5    0.79    0.26
   2 -21  -5    0.65    0.42
   2  21   5    1.31    0.49
  -2  21   5    0.38    0.28
  -2  21   5    0.09    0.26
   2  21   4    8.09    0.54
   2  21   4    8.74    0.77
   2 -21  -4    7.42    0.73
  -2  21   4    8.96    0.57
  -2  21   4    8.16    0.55
   2  21   3    1.07    0.41
   2 -21  -3    1.59    0.42
   2  21   3    1.96    0.30
  -2  21   3    1.35    0.31
  -2  21   3    1.62    0.30
   2  21   2    8.31    0.57
   2  21   2    8.31    0.72
   2 -21  -2    8.41    0.73
  -2  21   2    9.51    0.54
  -2 -21  -2    9.01    0.35
  -2  21   2    9.23    0.59
   2 -21  -1   22.63    0.96
   2  21   1   20.79    1.02
   2  21   1   21.19    0.80
  -2  21   1   22.43    0.91
  -2  21   1   21.46    0.84
  -2 -21  -1   20.32    0.64
   2  21   0    0.10    0.22
   2 -21   0    0.38    0.30
   2  21   0   -0.26    0.34
  -2  21   0    0.20    0.24
  -2 -21   0    0.14    0.15
  -2  21   0    0.30    0.30
   2  21  -1   21.80    0.78
   2  21  -1   20.85    0.99
   2 -21   1   22.24    0.89
  -2 -21   1   20.61    0.69
  -2  21  -1   20.73    0.86
  -2  21  -1   21.91    0.96
   2  21  -2    9.82    0.65
   2 -21   2    9.16    0.58
   2  21  -2    8.86    0.47
  -2 -21   2    9.50    0.45
  -2  21  -2    9.59    0.71
  -2  21  -2    8.71    0.56
   2 -21   3    1.47    0.30
   2  21  -3    1.64    0.26
   2  21  -3    1.85    0.35
  -2  21  -3    1.91    0.45
  -2 -21   3    2.26    0.32
  -2  21  -3    1.14    0.34
   2  21  -4    8.01    0.62
   2  21  -4    8.27    0.46
   2 -21   4    8.94    0.55
  -2 -21   4    8.43    0.53
  -2  21  -4    8.74    0.72
  -2  21  -4    7.72    0.71
   2 -21   5    0.36    0.25
   2  21  -5    0.86    0.32
   2  21  -5    0.94    0.25
  -2 -21   5    0.27    0.25
  -2  21  -5    0.74    0.32
   2 -21   6   -0.10    0.23
   2  21  -6    0.18    0.32
  -2 -21   6    0.06    0.24
  -2  21  -6    0.15    0.30
   2  21  -7    0.02    0.33
   2 -21   7    0.05    0.26
  -2 -21   7   -0.12    0.25
   2  21  -8    6.33    0.56
   2 -21   8    5.53    0.51
  -2 -21   8    6.27    0.53
   2  21  -9    1.94    0.41
   2 -21   9    1.75    0.31
  -2 -21   9    1.92    0.36
   2  21 -10    0.54    0.37
   2 -21  10   -0.08    0.27
  -2 -21  10    0.05    0.31
   2  21 -11    0.96    0.39
   2 -21  11    0.43    0.31
  -2 -21  11    0.43    0.35
   2 -21  12    0.74    0.35
   2  21 -12    0.98    0.43
  -2 -21  12    0.94    0.39
   2  21 -13    0.45    0.46
   2 -21  13    1.60    0.43
  -2 -21  13    0.53    0.45
   3 -21 -12   -0.91    0.69
   3 -21 -12   -0.39    0.73
  -3  21  12   -0.08    0.38
   3 -21 -11    0.82    0.69
   3  21  11    0.05    0.35
   3 -21 -11    0.16    0.73
  -3  21  11   -0.51    0.34
   3 -21 -10    1.05    0.66
   3  21  10    1.10    0.35
   3 -21 -10    1.47    0.62
  -3  21  10    0.60    0.35
   3 -21  -9   -0.77    0.58
   3  21   9   -0.29    0.29
   3 -21  -9    0.95    0.56
  -3  21   9   -0.05    0.31
   3  21   8    0.69    0.56
   3 -21  -8    1.48    0.57
   3  21   8    1.37    0.30
  -3  21   8    1.26    0.33
   3  21   7    1.77    0.54
   3  21   7    2.09    0.32
   3 -21  -7    2.43    0.58
  -3  21   7    2.22    0.38
   3  21   6    1.38    0.51
   3 -21  -6    2.11    0.49
   3  21   6    2.31    0.33
  -3  21   6    3.22    0.45
   3  21   5    0.77    0.46
   3  21   5    0.27    0.25
   3 -21  -5   -0.17    0.42
  -3  21   5    0.07    0.28
  -3  21   5    0.61    0.28
   3  21   4    0.57    0.25
   3  21   4    0.77    0.45
   3 -21  -4    1.40    0.45
  -3  21   4    0.39    0.22
  -3  21   4    0.98    0.32
   3  21   3   10.71    0.81
   3  21   3   11.64    0.57
   3 -21  -3   10.86    0.79
  -3  21   3   10.65    0.53
  -3  21   3   11.33    0.66
   3 -21  -2    2.19    0.40
   3  21   2    1.56    0.35
   3  21   2    1.50    0.42
  -3  21   2    1.60    0.27
  -3  21   2    2.22    0.38
   3  21   1    6.09    0.48
   3  21   1    6.01    0.64
   3 -21  -1    6.48    0.59
  -3  21   1    6.04    0.54
  -3  21   1    5.14    0.45
   3  21   0    1.21    0.25
   3  21   0    1.18    0.40
   3 -21   0    1.27    0.36
  -3  21   0    1.51    0.35
  -3  21   0    1.57    0.28
  -3 -21   0    1.28    0.18
   3 -21   1    5.67    0.55
   3  21  -1    4.25    0.60
   3  21  -1    5.52    0.38
  -3 -21   1    5.59    0.36
  -3  21  -1    5.04    0.44
  -3  21  -1    5.72    0.55
   3  21  -2    2.13    0.31
   3  21  -2    1.80    0.37
   3 -21   2    1.61    0.33
  -3  21  -2    2.16    0.42
  -3 -21   2    2.06    0.25
  -3  21  -2    1.92    0.31
   3  21  -3   11.94    0.50
   3  21  -3   10.44    0.70
   3 -21   3   11.77    0.69
  -3  21  -3   10.21    0.68
  -3 -21   3   11.02    0.54
   3  21  -4    0.61    0.24
   3 -21   4    0.57    0.28
   3  21  -4    0.01    0.32
  -3 -21   4    0.45    0.29
   3  21  -5   -0.09    0.32
   3 -21   5    0.26    0.28
  -3 -21   5    0.08    0.27
   3 -21   6    1.99    0.34
   3  21  -6    2.74    0.42
  -3 -21   6    2.30    0.33
   3 -21   7    2.13    0.36
   3  21  -7    1.82    0.39
  -3 -21   7    1.99    0.36
   3 -21   8    0.69    0.32
   3  21  -8    1.08    0.37
  -3 -21   8    1.28    0.35
   3  21  -9    0.44    0.35
   3 -21   9   -0.41    0.27
  -3 -21   9    0.56    0.36
   3  21 -10    1.00    0.41
   3 -21  10    1.18    0.33
  -3 -21  10    1.17    0.41
   3  21 -11   -0.04    0.43
   3 -21  11   -0.11    0.32
  -3 -21  11    0.60    0.44
   3  21 -12   -0.10    0.47
   3 -21  12   -0.84    0.39
  -3 -21  12    0.02    0.45
   4 -21 -11    1.66    0.86
   4  21  11    1.76    0.37
   4 -21 -11    0.59    0.78
  -4  21  11    1.57    0.48
   4 -21 -10    0.82    0.72
   4 -21 -10    0.34    0.74
   4  21  10    0.98    0.34
  -4  21  10    0.72    0.41
   4 -21  -9    0.37    0.69
   4 -21  -9    0.97    0.68
   4  21   9    1.63    0.36
  -4  21   9    0.82    0.35
   4  21   8   -0.18    0.54
   4 -21  -8    0.39    0.60
   4 -21  -8    0.63    0.65
  -4  21   8    0.36    0.34
   4  21   7    1.46    0.53
   4 -21  -7    0.88    0.57
   4  21   7    0.77    0.31
  -4  21   7    0.34    0.32
   4  21   6   -0.06    0.47
   4  21   6    0.59    0.29
   4 -21  -6    0.59    0.52
  -4  21   6    0.26    0.33
   4  21   5    0.09    0.48
   4  21   5    0.06    0.26
   4 -21  -5    0.51    0.48
  -4  21   5    0.72    0.34
   4 -21  -4    1.13    0.49
   4  21   4    1.47    0.29
   4  21   4    1.69    0.52
  -4  21   4    1.41    0.38
   4 -21  -3    3.47    0.53
   4  21   3    3.34    0.52
   4  21   3    4.06    0.40
  -4  21   3    3.55    0.52
   4 -21  -2    0.34    0.38
   4  21   2    0.05    0.26
   4  21   2    0.06    0.42
  -4  21   2   -0.21    0.33
   4  21   1    2.66    0.53
   4  21   1    3.35    0.48
   4 -21  -1    3.38    0.50
  -4  21   1    3.13    0.43
   4 -21   0   -0.25    0.35
   4  21   0    0.32    0.38
   4  21   0   -0.25    0.22
  -4  21   0    0.54    0.36
   4  21  -1    3.14    0.50
   4 -21   1    4.42    0.60
   4  21  -1    2.49    0.34
  -4 -21   1    3.56    0.42
  -4  21  -1    3.36    0.48
   4 -21   2    0.16    0.34
   4  21  -2    0.02    0.38
   4  21  -2    0.17    0.21
  -4  21  -2    0.58    0.36
  -4 -21   2   -0.07    0.22
   4  21  -3    3.30    0.35
   4  21  -3    3.50    0.50
   4 -21   3    3.17    0.45
  -4 -21   3    3.71    0.44
   4 -21   4    1.04    0.35
   4  21  -4    0.96    0.38
  -4 -21   4    0.93    0.35
   4  21  -5   -0.31    0.35
   4 -21   5    0.09    0.32
  -4 -21   5   -0.17    0.32
   4 -21   6    0.43    0.34
   4  21  -6    0.46    0.34
  -4 -21   6    0.29    0.32
   4  21  -7    0.82    0.38
   4 -21   7    0.31    0.32
  -4 -21   7   -0.05    0.36
   4  21  -8    0.20    0.41
   4 -21   8    0.20    0.33
  -4 -21   8    0.09    0.36
   4 -21   9    2.01    0.36
   4  21  -9    1.85    0.54
  -4 -21   9    1.19    0.40
   4  21 -10    1.60    0.53
   4 -21  10    1.41    0.42
  -4 -21  10    0.95    0.47
   4  21 -11    2.38    0.56
   4 -21  11    1.75    0.46
  -4 -21  11    0.61    0.49
   5 -21 -10   -0.50    0.82
   5  21  10   -0.10    0.38
   5 -21 -10   -0.40    0.76
  -5  21  10    0.00    0.46
   5 -21  -9    1.08    0.78
   5  21   9    0.32    0.34
   5 -21  -9   -0.03    0.72
  -5  21   9   -0.22    0.43
   5 -21  -8   -0.07    0.69
   5  21   8    0.74    0.35
   5  21   8    0.28    0.62
   5 -21  -8   -0.67    0.63
  -5  21   8    0.58    0.40
   5  21   7    1.18    0.60
   5  21   7    0.11    0.29
   5 -21  -7   -1.15    0.58
  -5  21   7   -0.09    0.40
   5  21   6    3.30    0.65
   5 -21  -6    2.60    0.62
   5  21   6    2.30    0.34
  -5  21   6    2.02    0.43
   5 -21  -5    0.56    0.56
   5  21   5   -0.23    0.27
   5  21   5   -0.37    0.52
  -5  21   5   -0.73    0.35
   5 -21  -4    0.37    0.52
   5  21   4    0.39    0.50
   5  21   4   -0.01    0.24
  -5  21   4   -0.31    0.36
   5 -21  -3   -0.79    0.46
   5  21   3    0.47    0.49
   5  21   3   -0.04    0.24
  -5  21   3   -0.10    0.35
   5 -21  -2    3.15    0.53
   5  21   2    2.67    0.53
   5  21   2    3.69    0.43
  -5  21   2    4.60    0.60
   5  21   1    0.58    0.46
   5  21   1   -0.45    0.27
   5 -21  -1   -0.04    0.44
  -5  21   1    0.25    0.36
   5 -21   0    2.11    0.47
   5  21   0    1.48    0.48
   5  21   0    1.46    0.34
  -5  21   0    1.71    0.41
   5  21  -1   -0.15    0.40
   5 -21   1    0.36    0.42
  -5  21  -1    0.60    0.40
   5  21  -2    2.74    0.37
   5  21  -2    2.57    0.52
   5 -21   2    3.77    0.53
   5  21  -3   -0.21    0.42
   5 -21   3    0.55    0.37
  -5 -21   3   -0.71    0.29
   5  21  -4    0.15    0.41
   5 -21   4   -0.70    0.37
  -5 -21   4   -0.12    0.39
   5  21  -5    0.30    0.45
   5 -21   5   -0.07    0.35
  -5 -21   5    0.27    0.37
   5 -21   6    1.45    0.41
   5  21  -6    2.39    0.51
  -5 -21   6    2.86    0.46
   5  21  -7   -0.09    0.41
   5 -21   7   -0.03    0.38
  -5 -21   7    0.12    0.41
   5 -21   8    1.25    0.41
   5  21  -8    0.54    0.43
  -5 -21   8    0.44    0.45
   5  21  -9    1.11    0.52
   5 -21   9    0.53    0.44
  -5 -21   9    0.52    0.50
   5 -21  10   -0.58    0.45
   5  21 -10    0.20    0.50
  -5 -21  10   -0.06    0.53
   6  21   8    0.96    0.39
   6  21   8    1.91    0.67
   6 -21  -8    1.73    0.83
   6 -21  -8    2.11    0.79
  -6  21   8    1.53    0.51
   6 -21  -7    1.02    0.73
   6  21   7    1.37    0.36
   6  21   7    0.28    0.64
  -6  21   7    0.45    0.46
   6  21   6    1.11    0.37
   6 -21  -6    0.72    0.67
   6  21   6    1.47    0.62
  -6  21   6    0.07    0.44
   6  21   5    0.22    0.58
   6 -21  -5   -0.11    0.66
   6  21   5   -0.41    0.31
  -6  21   5    0.11    0.42
   6  21   4    0.16    0.30
   6  21   4    0.42    0.57
   6 -21  -4    1.01    0.61
  -6  21   4    0.39    0.43
   6  21   3    0.10    0.48
   6 -21  -3   -0.32    0.52
   6  21   3   -0.58    0.28
  -6  21   3    0.43    0.45
   6 -21  -2    2.00    0.57
   6  21   2    1.87    0.33
   6  21   2    0.37    0.50
  -6  21   2    1.80    0.49
   6  21   1    0.81    0.31
   6  21   1    0.23    0.53
   6 -21  -1    0.50    0.49
  -6  21   1    0.31    0.42
   6 -21   0    0.28    0.48
   6  21   0   -0.07    0.33
   6  21   0   -0.16    0.49
   6  21  -1    0.13    0.33
   6 -21   1   -0.77    0.47
   6  21  -1    1.00    0.48
   6  21  -2    1.87    0.52
   6 -21   2    0.87    0.49
   6  21  -3    0.39    0.50
   6 -21   3    0.57    0.46
   6  21  -4    0.21    0.47
   6 -21   4   -0.28    0.43
   6  21  -5    0.50    0.46
   6 -21   5    0.51    0.47
  -6 -21   5   -0.07    0.46
   6 -21   6    0.58    0.47
   6  21  -6    1.08    0.48
  -6 -21   6    0.84    0.48
   6  21  -7    0.87    0.48
   6 -21   7    0.36    0.49
  -6 -21   7    0.73    0.51
   6 -21   8    1.94    0.53
   6  21  -8    1.47    0.51
  -6 -21   8    1.33    0.59
   7  21   4   -0.25    0.62
   7 -21  -4    0.92    0.79
   7  21   4    0.16    0.36
  -7  21   4   -0.55    0.52
   7  21   3    0.53    0.67
   7  21   3    0.07    0.36
   7 -21  -3    0.00    0.73
  -7  21   3    1.04    0.55
   7  21   2    0.29    0.35
   7  21   2   -0.61    0.55
   7 -21  -2   -0.20    0.64
   7  21   1    0.53    0.35
   7  21   1    1.17    0.57
   7 -21  -1    1.14    0.65
   7  21   0    0.28    0.42
   7  21   0    0.39    0.58
   7 -21   0    0.81    0.67
   7 -21   1   -0.89    0.61
   7  21  -1   -0.22    0.56
   7  21  -2    0.83    0.59
   7 -21   2    0.55    0.63
   7  21  -3   -0.03    0.58
   7 -21   3    0.52    0.62
   7  21  -4    0.55    0.57
   7 -21   4    0.14    0.56
   0  22  13    4.13    0.61
   0  22  13    4.42    0.86
   0  22  12    0.88    0.37
   0  22  12    0.16    0.73
   0  22  11   10.56    1.21
   0  22  11    9.59    0.68
   0  22  10    1.04    0.33
   0  22  10    2.67    0.82
   0  22   9    1.77    0.35
   0  22   9    1.99    0.65
   0  22   8    0.31    0.54
   0  22   8    0.15    0.26
   0  22   7   -0.26    0.24
   0  22   7   -0.25    0.49
   0  22   6    0.31    0.27
   0  22   6    0.57    0.43
   0  22   5    9.77    0.57
   0  22   5    9.70    0.76
   0 -22  -5    8.94    0.44
   0 -22  -4   14.24    0.54
   0  22   4   15.15    0.70
   0  22   4   14.05    0.85
   0  22   3   -0.05    0.38
   0 -22  -3   -0.20    0.17
   0  22   3    0.48    0.27
   0  22   2    3.05    0.46
   0  22   2    2.80    0.38
   0 -22  -2    3.15    0.31
   0  22   1    0.12    0.28
   0  22   1    0.50    0.38
   0 -22  -1   -0.20    0.17
   0 -22   0   15.54    0.58
   0  22   0   12.40    0.71
   0  22   0   13.30    0.83
   0  22  -1   -0.14    0.29
   0 -22   1   -0.20    0.19
   0  22  -1    0.58    0.39
   0  22  -2    2.98    0.39
   0  22  -2    3.35    0.51
   0 -22   2    2.54    0.32
   0 -22   3    0.12    0.23
   0  22  -3    0.01    0.26
   0  22  -3    0.12    0.33
   0  22  -4   14.91    0.77
   0 -22   4   15.65    0.65
   0  22  -4   14.97    0.68
   0  22  -5    9.18    0.55
   0  22  -5    9.29    0.61
   0 -22   5    9.00    0.52
   0 -22   6    0.55    0.23
   0  22  -6    0.71    0.31
   0 -22   7    0.24    0.23
   0  22  -7    0.01    0.32
   0 -22   8    0.34    0.25
   0  22  -8    0.46    0.31
   0 -22   9    1.64    0.31
   0  22  -9    1.41    0.38
   0  22 -10    1.64    0.38
   0 -22  10    1.87    0.32
   0  22 -11   10.16    0.75
   0 -22  11   10.69    0.71
   0 -22  12    0.64    0.36
   0 -22  13    3.72    0.55
   1  22  12    0.45    0.35
   1  22  12    0.23    0.70
  -1  22  12    0.81    0.37
   1  22  11    0.03    0.33
   1  22  11   -0.26    0.70
   1  22  10    0.98    0.66
   1  22  10    0.47    0.30
  -1  22  10   -0.16    0.31
  -1  22  10    0.93    0.46
   1  22   9    0.74    0.29
   1  22   9    1.01    0.62
  -1  22   9    0.52    0.29
  -1  22   9    1.36    0.46
   1  22   8    1.15    0.31
   1  22   8    0.56    0.56
  -1  22   8    1.42    0.42
  -1  22   8    1.12    0.31
   1  22   7    3.06    0.39
   1 -22  -7    2.60    0.36
   1  22   7    2.12    0.60
  -1  22   7    3.50    0.49
  -1  22   7    2.69    0.36
   1 -22  -6    0.28    0.29
   1  22   6   -0.29    0.25
   1  22   6    0.94    0.52
  -1  22   6    0.33    0.29
  -1  22   6   -0.27    0.35
   1 -22  -5    0.45    0.27
   1  22   5    0.60    0.27
   1  22   5    0.29    0.51
  -1  22   5    0.29    0.34
  -1  22   5    0.94    0.28
   1  22   4    3.91    0.44
   1  22   4    4.48    0.61
   1 -22  -4    4.16    0.49
  -1  22   4    4.27    0.53
  -1  22   4    4.00    0.49
   1  22   3    5.23    0.77
   1 -22  -3    5.76    0.48
   1  22   3    5.78    0.49
  -1 -22  -3    5.78    0.28
  -1  22   3    6.14    0.50
  -1  22   3    5.46    0.52
   1  22   2    2.11    0.47
   1 -22  -2    2.01    0.30
   1  22   2    2.81    0.40
  -1  22   2    1.77    0.33
  -1  22   2    2.05    0.35
  -1 -22  -2    1.76    0.21
   1  22   1    3.62    0.52
   1  22   1    3.45    0.51
   1 -22  -1    3.73    0.47
  -1  22   1    4.01    0.47
  -1  22   1    4.44    0.50
  -1 -22  -1    4.77    0.28
   1  22   0    0.72    0.30
   1 -22   0    0.03    0.30
   1  22   0   -0.20    0.35
  -1  22   0    0.47    0.32
  -1 -22   0    0.06    0.14
  -1  22   0    0.37    0.30
   1  22  -1    4.07    0.45
   1 -22   1    4.29    0.49
   1  22  -1    3.90    0.54
  -1  22  -1    5.04    0.60
  -1 -22   1    4.23    0.32
  -1  22  -1    5.03    0.54
   1  22  -2    2.29    0.32
   1  22  -2    1.28    0.37
   1 -22   2    1.75    0.31
  -1  22  -2    2.32    0.45
  -1  22  -2    1.86    0.46
  -1 -22   2    1.89    0.23
   1  22  -3    5.53    0.58
   1  22  -3    5.65    0.44
   1 -22   3    6.10    0.47
  -1  22  -3    6.50    0.62
  -1  22  -3    6.46    0.62
  -1 -22   3    5.78    0.44
   1  22  -4    4.12    0.51
   1  22  -4    4.34    0.41
   1 -22   4    4.37    0.44
  -1 -22   4    3.91    0.40
  -1  22  -4    4.75    0.57
  -1  22  -4    3.36    0.50
   1  22  -5   -0.19    0.30
   1  22  -5   -0.35    0.26
   1 -22   5    0.45    0.24
  -1 -22   5    0.19    0.23
  -1  22  -5    0.13    0.29
  -1  22  -5    0.48    0.30
   1 -22   6   -0.13    0.23
   1  22  -6    0.18    0.31
   1  22  -6   -0.24    0.27
  -1 -22   6    0.03    0.24
  -1  22  -6    0.51    0.32
   1  22  -7    3.43    0.50
   1 -22   7    3.59    0.45
  -1 -22   7    4.36    0.47
  -1  22  -7    3.87    0.50
   1 -22   8    1.21    0.27
   1  22  -8    0.72    0.36
  -1 -22   8    1.21    0.29
  -1  22  -8    0.95    0.35
   1  22  -9    0.83    0.33
   1 -22   9    0.87    0.30
  -1  22  -9    0.79    0.33
  -1 -22   9    1.00    0.31
   1 -22  10    0.75    0.30
   1  22 -10    0.53    0.36
  -1 -22  10    0.70    0.33
   1 -22  11    0.56    0.33
   1  22 -11   -0.18    0.37
  -1 -22  11    0.11    0.31
   1 -22  12    0.86    0.37
   1  22 -12   -0.24    0.41
  -1 -22  12    0.29    0.35
   1 -22  13    1.25    0.44
   1  22 -13    2.01    0.53
  -1 -22  13    1.35    0.51
   2  22  12    0.29    0.38
  -2  22  12   -0.09    0.36
   2  22  11    1.39    0.39
  -2  22  11    0.97    0.39
   2  22  10    0.34    0.31
   2  22  10    1.18    0.66
  -2  22  10    0.94    0.35
   2  22   9    0.25    0.30
   2  22   9    0.41    0.60
   2 -22  -9    0.07    0.55
  -2  22   9   -0.28    0.28
   2  22   8    0.41    0.31
   2 -22  -8    0.10    0.55
   2  22   8    0.55    0.56
  -2  22   8    0.80    0.31
   2  22   7    0.42    0.27
   2  22   7    0.47    0.51
   2 -22  -7    0.57    0.49
  -2  22   7    0.20    0.29
  -2  22   7   -0.18    0.30
   2  22   6    0.46    0.45
   2 -22  -6   -0.02    0.49
  -2  22   6    0.69    0.29
  -2  22   6    0.56    0.30
   2 -22  -5    0.07    0.45
   2  22   5   -0.05    0.42
   2  22   5    0.32    0.27
  -2  22   5   -0.03    0.28
  -2  22   5    0.30    0.29
   2  22   4    0.58    0.26
   2  22   4    0.33    0.42
   2 -22  -4    0.34    0.43
  -2  22   4    0.12    0.28
  -2  22   4    0.40    0.30
   2  22   3    2.79    0.39
   2 -22  -3    2.61    0.47
   2  22   3    2.34    0.47
  -2  22   3    2.56    0.37
  -2  22   3    2.24    0.37
   2  22   2   16.83    0.93
   2 -22  -2   15.91    0.85
   2  22   2   15.81    0.71
  -2  22   2   15.83    0.79
  -2  22   2   15.85    0.72
   2  22   1    5.27    0.63
   2 -22  -1    5.72    0.61
   2  22   1    4.53    0.54
  -2  22   1    6.37    0.48
  -2  22   1    7.05    0.53
  -2 -22  -1    5.09    0.29
   2 -22   0    1.41    0.36
   2  22   0    2.23    0.42
   2  22   0    2.27    0.34
  -2  22   0    1.51    0.31
  -2 -22   0    1.89    0.25
  -2  22   0    1.61    0.38
   2 -22   1    5.94    0.54
   2  22  -1    5.28    0.57
   2  22  -1    6.79    0.43
  -2  22  -1    5.04    0.50
  -2  22  -1    5.53    0.58
  -2 -22   1    6.13    0.35
   2 -22   2   15.31    0.75
   2  22  -2   15.09    0.85
   2  22  -2   15.13    0.64
  -2  22  -2   15.30    0.82
  -2  22  -2   15.76    0.78
  -2 -22   2   15.54    0.60
   2 -22   3    2.06    0.34
   2  22  -3    2.59    0.42
   2  22  -3    3.35    0.38
  -2 -22   3    3.03    0.38
  -2  22  -3    2.70    0.50
  -2  22  -3    2.88    0.41
   2  22  -4    0.18    0.36
   2 -22   4    0.19    0.26
   2  22  -4    0.84    0.25
  -2 -22   4    0.16    0.28
  -2  22  -4    0.65    0.37
  -2  22  -4    0.63    0.34
   2  22  -5   -0.48    0.33
   2 -22   5   -0.33    0.25
   2  22  -5    0.08    0.26
  -2 -22   5   -0.38    0.24
  -2  22  -5    0.27    0.29
   2  22  -6   -0.16    0.33
   2 -22   6    0.04    0.27
  -2  22  -6    0.43    0.31
  -2 -22   6   -0.16    0.28
   2 -22   7   -0.06    0.28
   2  22  -7   -0.35    0.34
  -2 -22   7    0.47    0.28
   2  22  -8    0.05    0.35
   2 -22   8    0.14    0.29
  -2 -22   8   -0.01    0.30
   2 -22   9    0.04    0.28
   2  22  -9    0.04    0.35
  -2 -22   9    0.07    0.30
   2 -22  10    0.50    0.32
   2  22 -10    0.78    0.43
  -2 -22  10    0.63    0.38
   2 -22  11    0.63    0.33
   2  22 -11    0.78    0.42
  -2 -22  11    1.32    0.41
   2  22 -12   -0.43    0.45
   2 -22  12    0.48    0.37
  -2 -22  12   -0.11    0.41
   3 -22 -11    0.47    0.69
   3  22  11    0.19    0.35
   3 -22 -11   -0.16    0.73
  -3  22  11    0.32    0.38
   3 -22 -10    0.27    0.66
   3  22  10   -0.28    0.33
   3 -22 -10    0.59    0.62
  -3  22  10   -0.11    0.35
   3 -22  -9    1.04    0.59
   3  22   9    0.84    0.33
   3  22   9    1.52    0.59
  -3  22   9    1.32    0.38
   3  22   8    1.28    0.37
   3 -22  -8    1.50    0.58
   3  22   8    1.18    0.55
  -3  22   8    0.90    0.36
   3 -22  -7    0.31    0.54
   3  22   7    1.24    0.57
   3  22   7    0.29    0.28
  -3  22   7   -0.20    0.32
   3 -22  -6    0.49    0.51
   3  22   6    0.23    0.28
   3  22   6   -0.45    0.51
  -3  22   6    0.87    0.32
   3  22   5   -0.16    0.25
   3  22   5    0.16    0.46
   3 -22  -5    0.41    0.46
  -3  22   5    0.42    0.32
   3 -22  -4    1.01    0.43
   3  22   4    1.90    0.31
   3  22   4    1.09    0.46
  -3  22   4    1.56    0.33
  -3  22   4    1.43    0.27
   3  22   3   -0.36    0.25
   3  22   3   -0.14    0.40
   3 -22  -3   -0.14    0.41
  -3  22   3    0.02    0.31
  -3  22   3    0.20    0.24
   3 -22  -2    0.08    0.39
   3  22   2    0.36    0.27
   3  22   2    0.37    0.38
  -3  22   2   -0.45    0.33
  -3  22   2   -0.37    0.23
   3  22   1    0.65    0.35
   3  22   1    0.87    0.38
   3 -22  -1    0.51    0.36
  -3  22   1    0.05    0.32
  -3  22   1    0.06    0.26
   3  22   0    0.11    0.24
   3  22   0   -0.56    0.36
   3 -22   0   -0.32    0.33
  -3  22   0    0.21    0.27
  -3  22   0    0.45    0.35
   3 -22   1    0.54    0.33
   3  22  -1    0.11    0.37
   3  22  -1    0.10    0.23
  -3  22  -1    0.96    0.29
  -3 -22   1    0.58    0.19
  -3  22  -1    0.09    0.36
   3 -22   2   -0.31    0.31
   3  22  -2    0.28    0.22
   3  22  -2    0.31    0.35
  -3 -22   2    0.07    0.20
  -3  22  -2    0.67    0.34
  -3  22  -2    0.14    0.27
   3  22  -3    0.25    0.36
   3  22  -3    0.03    0.24
   3 -22   3   -0.31    0.31
  -3  22  -3    0.47    0.35
  -3 -22   3    0.12    0.22
   3  22  -4    0.89    0.27
   3 -22   4    1.67    0.33
   3  22  -4    0.60    0.36
  -3 -22   4    1.38    0.33
   3 -22   5    0.06    0.31
   3  22  -5   -0.52    0.33
  -3 -22   5    0.24    0.29
   3  22  -6    0.21    0.36
   3 -22   6   -0.01    0.30
  -3 -22   6    0.63    0.33
   3 -22   7    0.58    0.30
   3  22  -7    0.56    0.38
  -3 -22   7   -0.14    0.32
   3 -22   8    0.90    0.34
   3  22  -8    1.13    0.40
  -3 -22   8    1.80    0.40
   3 -22   9    0.80    0.34
   3  22  -9    0.65    0.43
  -3 -22   9    1.47    0.43
   3  22 -10   -0.18    0.42
   3 -22  10   -0.03    0.32
  -3 -22  10    0.16    0.41
   3 -22  11   -0.12    0.40
   3  22 -11    0.79    0.47
  -3 -22  11   -0.03    0.44
   4 -22 -10    2.45    0.79
   4 -22 -10    2.20    0.84
   4  22  10    3.00    0.42
  -4  22  10    2.82    0.49
   4  22   9   -0.91    0.60
   4 -22  -9   -0.36    0.71
   4  22   9   -0.07    0.34
   4 -22  -9   -0.03    0.68
  -4  22   9    1.25    0.42
   4  22   8    1.17    0.34
   4  22   8    0.81    0.57
   4 -22  -8    1.23    0.65
  -4  22   8    0.61    0.41
   4 -22  -7   -0.33    0.58
   4  22   7    0.19    0.31
   4  22   7    0.40    0.59
  -4  22   7    0.59    0.37
   4  22   6    0.51    0.29
   4  22   6    1.35    0.57
   4 -22  -6    1.08    0.57
  -4  22   6    1.32    0.39
   4 -22  -5   -0.33    0.49
   4  22   5    0.11    0.28
   4  22   5    0.46    0.51
  -4  22   5    0.48    0.37
   4 -22  -4    0.57    0.48
   4  22   4    0.22    0.27
   4  22   4   -0.15    0.47
  -4  22   4   -0.03    0.38
   4 -22  -3    0.43    0.46
   4  22   3    0.54    0.46
   4  22   3   -0.05    0.23
  -4  22   3   -0.12    0.35
   4  22   2    2.84    0.40
   4 -22  -2    2.58    0.53
   4  22   2    2.29    0.52
  -4  22   2    2.76    0.44
   4 -22  -1    0.76    0.41
   4  22   1    0.40    0.43
   4  22   1    0.86    0.30
  -4  22   1    1.28    0.37
   4 -22   0    1.74    0.41
   4  22   0    0.94    0.33
   4  22   0    0.87    0.45
  -4  22   0    1.52    0.42
   4  22  -1    0.63    0.40
   4  22  -1    0.52    0.23
   4 -22   1    0.75    0.38
  -4  22  -1    0.30    0.37
   4  22  -2    2.94    0.47
   4  22  -2    2.94    0.36
   4 -22   2    3.72    0.48
  -4  22  -2    3.07    0.48
  -4 -22   2    2.77    0.46
   4  22  -3    0.28    0.34
   4  22  -3   -0.11    0.37
   4 -22   3    0.79    0.37
  -4 -22   3    0.31    0.25
   4  22  -4    0.28    0.37
   4 -22   4    0.56    0.36
  -4 -22   4    0.11    0.31
   4  22  -5   -0.46    0.36
   4 -22   5   -0.21    0.32
  -4 -22   5    0.12    0.33
   4 -22   6    0.40    0.34
   4  22  -6    1.38    0.44
  -4 -22   6    1.27    0.37
   4 -22   7    0.61    0.36
   4  22  -7    1.00    0.44
  -4 -22   7   -0.29    0.36
   4  22  -8    0.61    0.47
   4 -22   8    1.55    0.38
  -4 -22   8    1.53    0.45
   4  22  -9   -0.30    0.45
   4 -22   9   -0.14    0.37
  -4 -22   9   -0.06    0.44
   4  22 -10    3.26    0.57
   4 -22  10    2.23    0.50
  -4 -22  10    2.92    0.55
   5 -22  -9    2.77    0.89
   5  22   9    2.60    0.45
   5  22   9    3.61    0.80
   5 -22  -9    2.81    0.83
  -5  22   9    3.62    0.59
   5  22   8    0.75    0.33
   5 -22  -8    0.53    0.72
   5  22   8    1.10    0.64
  -5  22   8    0.84    0.44
   5 -22  -7    0.49    0.65
   5  22   7    0.39    0.63
   5  22   7    0.55    0.32
  -5  22   7    0.12    0.43
   5 -22  -6    5.64    0.81
   5  22   6    6.26    0.82
   5  22   6    6.70    0.55
  -5  22   6    7.18    0.71
   5  22   5    0.04    0.30
   5 -22  -5    0.20    0.62
   5  22   5   -0.15    0.55
  -5  22   5    0.22    0.42
   5  22   4    0.49    0.54
   5 -22  -4    0.11    0.54
   5  22   4   -0.23    0.27
  -5  22   4   -0.57    0.39
   5 -22  -3    1.42    0.54
   5  22   3    1.48    0.54
   5  22   3    0.79    0.29
  -5  22   3    0.52    0.43
   5 -22  -2    0.61    0.52
   5  22   2    0.59    0.28
   5  22   2    1.54    0.49
  -5  22   2    1.17    0.43
   5  22   1    0.44    0.50
   5 -22  -1    0.35    0.44
   5  22   1   -0.30    0.28
  -5  22   1    0.19    0.40
   5 -22   0    0.14    0.44
   5  22   0    0.00    0.34
   5  22   0    0.37    0.42
  -5  22   0   -0.75    0.39
   5  22  -1    0.47    0.28
   5 -22   1   -0.58    0.43
   5  22  -1    0.10    0.43
  -5  22  -1    0.45    0.43
   5 -22   2    0.40    0.42
   5  22  -2    0.61    0.45
   5 -22   3    0.96    0.43
   5  22  -3    1.24    0.47
   5  22  -4   -0.10    0.43
   5 -22   4    0.16    0.42
  -5 -22   4    0.39    0.45
   5  22  -5    0.38    0.42
   5 -22   5   -0.12    0.41
  -5 -22   5   -0.08    0.38
   5  22  -6    6.64    0.76
   5 -22   6    5.87    0.67
  -5 -22   6    7.00    0.74
   5  22  -7    0.04    0.44
   5 -22   7   -0.30    0.42
  -5 -22   7   -0.22    0.45
   5 -22   8    0.09    0.44
   5  22  -8    0.60    0.46
  -5 -22   8    0.46    0.47
   5  22  -9    4.30    0.64
   5 -22   9    2.77    0.54
  -5 -22   9    3.21    0.61
   6  22   6    2.37    0.39
   6 -22  -6    2.52    0.86
   6  22   6    1.63    0.67
  -6  22   6    2.56    0.59
   6  22   5   -0.69    0.59
   6 -22  -5   -0.04    0.66
   6  22   5    0.05    0.33
  -6  22   5   -0.49    0.48
   6  22   4    0.54    0.60
   6  22   4    0.29    0.32
   6 -22  -4    1.05    0.65
  -6  22   4    0.67    0.50
   6 -22  -3   -0.10    0.60
   6  22   3    0.53    0.59
   6  22   3    0.76    0.30
  -6  22   3   -0.08    0.47
   6  22   2    1.09    0.53
   6  22   2    1.63    0.32
   6 -22  -2    1.08    0.59
  -6  22   2    0.86    0.46
   6 -22  -1    0.06    0.56
   6  22   1    0.24    0.32
   6  22   1    0.46    0.51
  -6  22   1    0.05    0.47
   6  22   0    1.92    0.38
   6 -22   0    1.82    0.58
   6  22   0    2.89    0.60
   6  22  -1    0.06    0.50
   6 -22   1    0.09    0.56
   6  22  -2    0.21    0.52
   6 -22   2    0.98    0.49
   6  22  -3    0.67    0.49
   6 -22   3    0.56    0.47
   6  22  -4    0.59    0.51
   6 -22   4    0.15    0.50
   6  22  -5   -0.25    0.49
   6 -22   5   -0.38    0.49
   6 -22   6    2.09    0.54
   6  22  -6    2.22    0.56
  -6 -22   6    2.84    0.96
   7  22   1   -1.13    0.57
   7 -22  -1   -0.04    0.70
   7  22   0   -0.09    0.62
   7 -22   0    0.62    0.72
   7 -22   1    0.12    0.68
   7  22  -1   -0.03    0.58
   0  23  12   -0.49    0.73
   0  23  12   -0.29    0.37
   0  23  11   -1.46    0.66
   0  23  11    0.64    0.36
   0  23  10   -0.05    0.34
   0  23  10   -0.03    0.66
   0  23   9    0.21    0.67
   0  23   9    0.22    0.31
   0  23   8   -0.20    0.66
   0  23   8   -0.01    0.29
   0  23   7   -0.01    0.29
   0  23   7   -0.07    0.57
   0  23   6   -0.08    0.29
   0  23   6    0.01    0.48
   0  23   5   -0.31    0.45
   0  23   5   -0.61    0.28
   0  23   4   -0.32    0.45
   0 -23  -4   -0.05    0.18
   0  23   4    0.05    0.26
   0  23   3    0.20    0.26
   0  23   3   -0.25    0.47
   0 -23  -3   -0.16    0.17
   0 -23  -2   -0.30    0.17
   0  23   2    0.20    0.49
   0  23   2   -0.13    0.28
   0 -23  -1   -0.05    0.19
   0  23   1    0.03    0.41
   0  23   1   -0.42    0.28
   0  23   0    0.19    0.29
   0 -23   0    0.17    0.19
   0  23   0    0.34    0.35
   0  23  -1    0.08    0.36
   0  23  -1   -0.02    0.37
   0 -23   1    0.20    0.25
   0  23  -2    0.11    0.37
   0  23  -2   -0.62    0.32
   0 -23   2   -0.38    0.25
   0  23  -3   -0.21    0.31
   0 -23   3    0.02    0.23
   0  23  -3   -0.40    0.29
   0 -23   4    0.34    0.24
   0  23  -4   -0.06    0.30
   0  23  -4    0.31    0.34
   0  23  -5   -0.30    0.30
   0  23  -5    0.44    0.30
   0 -23   5    0.24    0.24
   0 -23   6    0.07    0.25
   0  23  -6   -0.55    0.32
   0  23  -7   -0.25    0.32
   0 -23   7    0.13    0.25
   0  23  -8    0.38    0.34
   0 -23   8    0.19    0.29
   0  23  -9    0.16    0.35
   0 -23   9    0.36    0.31
   0 -23  10   -0.06    0.31
   0  23 -10    0.24    0.38
   0  23 -11   -0.37    0.39
   0 -23  11    0.21    0.35
   0 -23  12   -0.46    0.39
   1  23  12    0.35    0.38
   1  23  12    0.07    0.80
  -1  23  12    0.71    0.40
   1  23  11    1.79    0.41
   1  23  11    1.36    0.71
  -1  23  11    1.42    0.40
   1  23  10    0.40    0.33
   1  23  10   -1.08    0.67
  -1  23  10    0.04    0.34
   1  23   9    0.08    0.32
   1  23   9    0.13    0.59
  -1  23   9    0.11    0.35
  -1  23   9    0.31    0.43
   1  23   8    0.43    0.33
   1  23   8    0.86    0.57
  -1  23   8    0.29    0.42
  -1  23   8    0.30    0.30
   1  23   7    0.67    0.55
   1  23   7   -0.13    0.28
  -1  23   7   -0.03    0.41
  -1  23   7   -0.32    0.30
   1  23   6   -0.03    0.29
   1  23   6   -0.19    0.47
   1 -23  -6    0.18    0.30
  -1  23   6    0.17    0.29
  -1  23   6    0.05    0.38
   1  23   5    3.97    0.49
   1  23   5    5.35    0.77
   1 -23  -5    4.79    0.50
  -1  23   5    4.98    0.50
  -1  23   5    4.11    0.56
   1  23   4    1.86    0.47
   1  23   4    1.66    0.30
   1 -23  -4    1.54    0.31
  -1  23   4    2.08    0.38
  -1  23   4    1.64    0.33
   1  23   3    2.30    0.31
   1  23   3    2.22    0.50
   1 -23  -3    2.28    0.34
  -1  23   3    2.32    0.37
  -1  23   3    1.93    0.37
   1 -23  -2    8.34    0.59
   1  23   2    7.89    0.56
   1  23   2    7.45    0.69
  -1  23   2    7.31    0.61
  -1  23   2    7.11    0.55
  -1 -23  -2    8.08    0.36
   1  23   1    1.93    0.41
   1 -23  -1    1.15    0.33
   1  23   1    1.30    0.32
  -1  23   1    1.44    0.40
  -1  23   1    1.07    0.33
  -1 -23  -1    1.36    0.17
   1  23   0    1.06    0.36
   1 -23   0    0.25    0.33
   1  23   0    1.35    0.38
  -1 -23   0    1.34    0.18
  -1  23   0    1.47    0.42
  -1  23   0    0.93    0.34
   1  23  -1    1.14    0.34
   1  23  -1    1.10    0.35
   1 -23   1    0.80    0.29
  -1  23  -1    2.02    0.36
  -1 -23   1    1.10    0.21
  -1  23  -1    1.53    0.49
   1  23  -2    6.40    0.61
   1 -23   2    7.35    0.55
   1  23  -2    7.92    0.52
  -1 -23   2    8.45    0.47
  -1  23  -2    7.10    0.63
  -1  23  -2    7.75    0.61
   1  23  -3    1.87    0.38
   1 -23   3    1.69    0.32
   1  23  -3    2.53    0.35
  -1  23  -3    2.57    0.46
  -1 -23   3    2.28    0.32
  -1  23  -3    2.51    0.41
   1  23  -4    1.26    0.38
   1 -23   4    1.70    0.30
   1  23  -4    1.47    0.29
  -1  23  -4    1.03    0.43
  -1  23  -4    1.34    0.36
  -1 -23   4    1.35    0.26
   1  23  -5    4.91    0.56
   1 -23   5    4.97    0.48
   1  23  -5    3.15    0.45
  -1  23  -5    3.94    0.56
  -1  23  -5    4.49    0.54
  -1 -23   5    4.24    0.44
   1  23  -6    0.35    0.33
   1  23  -6    0.29    0.32
   1 -23   6    0.23    0.26
  -1 -23   6    0.09    0.25
  -1  23  -6   -0.23    0.33
   1  23  -7   -0.54    0.34
   1 -23   7    0.13    0.27
  -1  23  -7    0.37    0.36
  -1 -23   7    0.64    0.28
   1 -23   8    0.13    0.29
   1  23  -8   -0.36    0.35
  -1 -23   8    0.62    0.30
  -1  23  -8    0.77    0.35
   1 -23   9   -0.10    0.29
   1  23  -9    0.40    0.40
  -1 -23   9    0.01    0.31
  -1  23  -9   -0.24    0.35
   1 -23  10    0.20    0.32
   1  23 -10    0.61    0.39
  -1 -23  10    0.22    0.36
   1  23 -11    1.17    0.44
   1 -23  11    1.34    0.37
  -1 -23  11    1.28    0.41
   1  23 -12    0.03    0.44
   1 -23  12    0.27    0.42
  -1 -23  12   -0.34    0.43
   2  23  11   -0.78    0.35
   2  23  11   -0.16    0.74
  -2  23  11   -0.37    0.36
   2  23  10    3.74    0.48
   2  23  10    3.08    0.76
  -2  23  10    3.22    0.49
   2  23   9    0.85    0.65
   2  23   9   -0.43    0.32
  -2  23   9    0.07    0.35
   2  23   8    2.99    0.66
   2 -23  -8    2.61    0.57
   2  23   8    2.00    0.37
  -2  23   8    2.12    0.38
   2 -23  -7    1.84    0.59
   2  23   7    2.48    0.62
   2  23   7    2.29    0.37
  -2  23   7    3.55    0.52
   2  23   6    1.80    0.56
   2 -23  -6    1.95    0.57
   2  23   6    1.74    0.34
  -2  23   6    2.33    0.42
  -2  23   6    1.99    0.36
   2  23   5    0.06    0.29
   2 -23  -5   -0.61    0.47
   2  23   5   -0.09    0.46
  -2  23   5    0.38    0.31
  -2  23   5    0.13    0.31
   2  23   4    2.33    0.35
   2 -23  -4    2.47    0.49
   2  23   4    1.91    0.50
  -2  23   4    2.60    0.38
  -2  23   4    2.36    0.39
   2  23   3    2.34    0.49
   2  23   3    2.70    0.39
   2 -23  -3    1.97    0.42
  -2  23   3    2.84    0.38
  -2  23   3    2.60    0.41
   2  23   2    0.24    0.27
   2 -23  -2    0.46    0.37
   2  23   2    0.65    0.44
  -2  23   2    0.28    0.31
  -2  23   2    0.47    0.31
   2  23   1    1.09    0.41
   2 -23  -1    1.83    0.40
   2  23   1    2.34    0.34
  -2  23   1    1.65    0.34
  -2  23   1    1.32    0.37
   2  23   0   -0.28    0.33
   2  23   0   -0.31    0.35
   2 -23   0   -0.50    0.30
  -2  23   0    0.24    0.32
  -2 -23   0   -0.08    0.16
  -2  23   0   -0.56    0.28
   2  23  -1    1.76    0.33
   2  23  -1    1.16    0.37
   2 -23   1    2.15    0.39
  -2 -23   1    2.04    0.28
  -2  23  -1    1.78    0.38
  -2  23  -1    1.81    0.40
   2  23  -2    0.48    0.35
   2 -23   2    0.67    0.31
   2  23  -2    0.87    0.26
  -2  23  -2   -0.34    0.44
  -2  23  -2    0.23    0.33
  -2 -23   2    0.68    0.20
   2 -23   3    2.31    0.37
   2  23  -3    2.49    0.32
   2  23  -3    2.20    0.45
  -2  23  -3    2.69    0.41
  -2  23  -3    2.86    0.45
  -2 -23   3    2.47    0.33
   2 -23   4    1.91    0.36
   2  23  -4    2.56    0.44
  -2 -23   4    2.71    0.35
  -2  23  -4    3.62    0.54
  -2  23  -4    2.73    0.43
   2  23  -5   -0.06    0.33
   2 -23   5   -0.06    0.28
  -2 -23   5    0.28    0.26
  -2  23  -5    0.05    0.31
   2  23  -6    1.81    0.44
   2 -23   6    1.85    0.35
  -2 -23   6    2.12    0.34
  -2  23  -6    2.71    0.42
   2 -23   7    2.16    0.36
   2  23  -7    2.20    0.42
  -2 -23   7    2.45    0.39
   2 -23   8    2.24    0.35
   2  23  -8    2.30    0.43
  -2 -23   8    2.00    0.37
   2  23  -9   -0.25    0.39
   2 -23   9   -0.12    0.32
  -2 -23   9    1.17    0.36
   2 -23  10    3.55    0.53
   2  23 -10    3.03    0.51
  -2 -23  10    4.48    0.67
   2 -23  11    0.18    0.40
   2  23 -11   -0.01    0.42
  -2 -23  11    0.39    0.44
   3  23  10   -0.38    0.67
   3 -23 -10   -0.70    0.71
   3  23  10    0.51    0.37
  -3  23  10    0.00    0.38
   3  23   9    0.21    0.35
   3 -23  -9   -0.39    0.62
   3  23   9    0.67    0.66
  -3  23   9    0.13    0.38
   3  23   8    0.39    0.33
   3  23   8    0.01    0.60
   3 -23  -8    0.73    0.58
  -3  23   8   -0.39    0.37
   3  23   7    0.04    0.52
   3 -23  -7    0.95    0.54
   3  23   7    0.57    0.30
  -3  23   7   -0.02    0.35
   3 -23  -6    1.49    0.55
   3  23   6    2.04    0.36
   3  23   6    1.70    0.55
  -3  23   6    2.71    0.45
   3  23   5   -0.33    0.49
   3 -23  -5    0.84    0.49
   3  23   5   -0.02    0.28
  -3  23   5    0.43    0.35
   3  23   4    0.54    0.45
   3 -23  -4   -0.35    0.43
   3  23   4   -0.08    0.26
  -3  23   4   -0.13    0.35
   3 -23  -3   -0.27    0.39
   3  23   3    0.00    0.25
   3  23   3    0.35    0.45
  -3  23   3   -0.19    0.25
  -3  23   3   -0.20    0.34
   3  23   2    2.75    0.52
   3  23   2    2.93    0.41
   3 -23  -2    2.65    0.48
  -3  23   2    2.50    0.38
  -3  23   2    2.81    0.44
   3  23   1    1.30    0.30
   3  23   1    0.69    0.43
   3 -23  -1    0.88    0.43
  -3  23   1    0.68    0.36
  -3  23   1    1.75    0.31
   3  23   0    6.75    0.59
   3  23   0    6.28    0.70
   3 -23   0    6.39    0.69
  -3  23   0    6.28    0.53
  -3  23   0    6.81    0.61
   3  23  -1    1.68    0.32
   3  23  -1    0.45    0.40
   3 -23   1    1.52    0.38
  -3  23  -1    0.93    0.38
  -3  23  -1    1.22    0.34
   3 -23   2    2.53    0.43
   3  23  -2    1.96    0.45
  -3  23  -2    2.66    0.44
  -3 -23   2    2.62    0.36
  -3  23  -2    3.03    0.43
   3  23  -3    0.20    0.38
   3  23  -3    0.10    0.26
   3 -23   3    0.21    0.34
  -3  23  -3   -0.29    0.37
  -3 -23   3   -0.15    0.24
   3 -23   4    0.23    0.31
   3  23  -4    0.28    0.39
  -3 -23   4   -0.13    0.34
   3  23  -5   -0.28    0.38
   3 -23   5    0.13    0.31
  -3 -23   5    0.26    0.31
   3 -23   6    1.92    0.37
   3  23  -6    2.02    0.45
  -3 -23   6    2.78    0.39
   3  23  -7    0.11    0.35
   3 -23   7    0.09    0.33
  -3 -23   7    0.28    0.35
   3  23  -8    0.62    0.43
   3 -23   8    0.02    0.32
  -3 -23   8    0.46    0.40
   3 -23   9   -0.22    0.34
   3  23  -9    0.02    0.44
  -3 -23   9   -0.26    0.40
   3  23 -10   -0.84    0.43
   3 -23  10   -0.52    0.37
  -3 -23  10    0.06    0.43
   4  23   9    0.31    0.37
   4  23   9   -0.23    0.66
   4 -23  -9    0.11    0.70
  -4  23   9    0.60    0.45
   4 -23  -8    2.62    0.72
   4  23   8    1.36    0.36
   4  23   8    1.85    0.70
  -4  23   8    0.92    0.43
   4 -23  -7   -0.83    0.62
   4  23   7   -0.87    0.57
   4  23   7    0.18    0.30
  -4  23   7   -0.25    0.39
   4  23   6   -0.16    0.57
   4  23   6    0.30    0.31
   4 -23  -6    0.71    0.61
  -4  23   6    0.30    0.40
   4  23   5    0.45    0.52
   4  23   5    0.17    0.31
   4 -23  -5    0.32    0.55
  -4  23   5    0.49    0.42
   4  23   4    0.82    0.49
   4 -23  -4    0.33    0.53
   4  23   4    0.11    0.29
  -4  23   4    0.14    0.40
   4  23   3   -0.06    0.27
   4  23   3    0.37    0.45
   4 -23  -3   -0.40    0.48
  -4  23   3   -0.08    0.36
   4  23   2    0.62    0.28
   4 -23  -2   -0.68    0.46
  -4  23   2   -0.04    0.40
   4  23   1    0.22    0.47
   4 -23  -1   -0.10    0.45
   4  23   1    0.18    0.28
  -4  23   1   -0.01    0.38
   4  23   0   -0.24    0.33
   4 -23   0   -0.16    0.42
  -4  23   0   -0.50    0.37
   4  23  -1    0.16    0.30
   4  23  -1   -0.06    0.43
   4 -23   1    0.14    0.40
  -4  23  -1    0.41    0.41
   4  23  -2    0.39    0.27
   4  23  -2    0.08    0.40
   4 -23   2   -0.01    0.41
  -4  23  -2    0.39    0.42
   4 -23   3    0.32    0.37
   4  23  -3   -0.28    0.39
   4  23  -4    0.73    0.42
   4 -23   4    0.00    0.37
  -4 -23   4    0.90    0.37
   4 -23   5    0.37    0.36
   4  23  -5    0.27    0.39
  -4 -23   5    0.14    0.35
   4  23  -6    0.57    0.43
   4 -23   6   -0.57    0.37
  -4 -23   6   -0.17    0.36
   4  23  -7    0.00    0.44
   4 -23   7   -0.35    0.36
  -4 -23   7   -0.69    0.39
   4  23  -8    1.36    0.51
   4 -23   8    1.47    0.42
  -4 -23   8    1.44    0.46
   4 -23   9    0.22    0.43
   4  23  -9   -0.11    0.49
  -4 -23   9   -0.10    0.48
   5  23   7    0.44    0.35
   5 -23  -7    0.53    0.75
   5  23   7   -0.34    0.61
  -5  23   7    0.84    0.45
   5  23   6    0.10    0.60
   5  23   6    0.53    0.34
   5 -23  -6   -0.10    0.70
  -5  23   6    0.43    0.48
   5  23   5    4.08    0.72
   5  23   5    5.14    0.54
   5 -23  -5    5.33    0.83
  -5  23   5    6.28    0.73
   5  23   4    0.18    0.57
   5 -23  -4    0.67    0.63
   5  23   4   -0.54    0.31
  -5  23   4    0.25    0.44
   5  23   3    1.19    0.59
   5 -23  -3    1.64    0.59
   5  23   3    0.79    0.33
  -5  23   3    1.06    0.47
   5  23   2    1.59    0.57
   5  23   2    1.92    0.34
   5 -23  -2    1.59    0.63
  -5  23   2    2.68    0.50
   5  23   1   -0.60    0.49
   5  23   1   -0.09    0.28
   5 -23  -1    0.17    0.51
  -5  23   1    0.40    0.43
   5 -23   0    1.40    0.51
   5  23   0    0.16    0.47
   5  23   0    0.95    0.34
  -5  23   0    0.76    0.45
   5  23  -1    0.40    0.36
   5 -23   1    0.31    0.44
   5  23  -1    0.35    0.48
  -5  23  -1    0.47    0.46
   5 -23   2    2.79    0.51
   5  23  -2    2.36    0.52
   5  23  -3    1.69    0.52
   5 -23   3    1.67    0.51
   5  23  -4   -0.66    0.45
   5 -23   4    0.19    0.44
   5  23  -5    3.72    0.57
   5 -23   5    3.98    0.52
   5 -23   6   -0.04    0.46
   5  23  -6    0.49    0.48
  -5 -23   6    0.27    0.44
   5  23  -7   -0.45    0.48
   5 -23   7   -0.72    0.46
  -5 -23   7    0.12    0.46
   5 -23   8    3.25    0.57
   5  23  -8    2.51    0.59
  -5 -23   8    2.95    0.58
   6 -23  -5   -0.54    0.79
   6  23   5    0.57    0.65
   6  23   4    0.20    0.35
   6 -23  -4   -0.14    0.72
   6  23   4   -0.50    0.59
  -6  23   4    1.36    0.54
   6 -23  -3    1.97    0.72
   6  23   3    0.04    0.63
  -6  23   3    1.12    0.52
   6  23   2    2.06    0.61
   6 -23  -2   -0.14    0.64
   6  23   2    0.84    0.35
  -6  23   2    0.45    0.49
   6  23   1    0.47    0.54
   6  23   1   -0.54    0.34
   6 -23  -1    1.12    0.64
  -6  23   1    0.96    0.49
   6  23   0    0.34    0.50
   6 -23   0   -0.37    0.55
   6  23   0    0.00    0.39
   6  23  -1    0.66    0.54
   6 -23   1   -0.28    0.54
   6 -23   2    0.89    0.53
   6  23  -2    1.36    0.61
   6  23  -3   -0.01    0.53
   6 -23   3    1.82    0.62
   6  23  -4   -0.12    0.51
   6 -23   4   -1.12    0.51
   6 -23   5    0.18    0.55
   6  23  -5    0.40    0.55
   0  24  11   -0.65    0.68
   0  24  11   -0.36    0.36
   0  24  10   -0.14    0.36
   0  24  10    0.11    0.63
   0  24   9    0.30    0.64
   0  24   9    0.00    0.36
   0  24   8   -0.60    0.58
   0  24   8   -0.09    0.32
   0  24   7    0.84    0.56
   0  24   7    0.42    0.35
   0  24   6    0.38    0.55
   0  24   6    0.57    0.32
   0  24   5    0.73    0.32
   0  24   5   -0.04    0.50
   0  24   4   -0.17    0.47
   0  24   4    0.39    0.31
   0 -24  -3    0.12    0.22
   0  24   3    0.18    0.30
   0  24   3    0.53    0.44
   0 -24  -2    0.44    0.19
   0  24   2    0.86    0.44
   0  24   2    0.93    0.32
   0 -24  -1    0.33    0.20
   0  24   1    0.42    0.31
   0  24   1    0.16    0.35
   0  24   0    9.38    0.74
   0  24   0    9.08    0.61
   0 -24   0    9.00    0.52
   0  24  -1    0.57    0.33
   0  24  -1    0.31    0.36
   0 -24   1    0.47    0.28
   0  24  -2    0.42    0.34
   0 -24   2    0.17    0.25
   0  24  -2    1.13    0.37
   0 -24   3    0.16    0.25
   0  24  -3    0.95    0.37
   0  24  -3   -0.10    0.41
   0 -24   4    0.34    0.26
   0  24  -4    0.25    0.33
   0  24  -4    0.65    0.41
   0  24  -5    0.73    0.39
   0 -24   5    0.76    0.29
   0  24  -5    1.50    0.37
   0  24  -6    0.57    0.36
   0 -24   6    0.68    0.28
   0  24  -7    0.37    0.37
   0 -24   7    0.70    0.32
   0  24  -8   -0.18    0.35
   0 -24   8    0.10    0.30
   0 -24   9   -0.21    0.32
   0  24  -9   -0.15    0.39
   0  24 -10    0.09    0.42
   0 -24  10    0.81    0.38
   0 -24  11    0.21    0.40
   0  24 -11   -0.71    0.43
   1  24  11    1.96    0.45
   1  24  11    1.24    0.82
  -1  24  11    1.58    0.45
   1  24  10    1.65    0.71
   1  24  10    0.30    0.37
  -1  24  10    1.18    0.41
   1  24   9   -0.81    0.34
   1  24   9   -1.44    0.63
  -1  24   9    0.13    0.38
   1  24   8    1.39    0.62
   1  24   8    1.32    0.35
  -1  24   8    1.73    0.49
  -1  24   8    1.32    0.41
   1  24   7    0.50    0.57
   1  24   7    0.34    0.33
  -1  24   7    0.76    0.45
  -1  24   7   -0.14    0.30
   1  24   6    0.01    0.28
   1  24   6   -0.04    0.51
  -1  24   6    0.43    0.44
  -1  24   6    0.18    0.32
   1  24   5    0.53    0.31
   1 -24  -5    0.59    0.31
   1  24   5    1.24    0.50
  -1  24   5   -0.24    0.31
  -1  24   5    0.87    0.42
   1 -24  -4    0.46    0.28
   1  24   4    0.87    0.30
   1  24   4   -0.16    0.43
  -1  24   4    0.77    0.34
  -1  24   4    0.46    0.44
   1  24   3    0.44    0.28
   1  24   3    0.49    0.44
   1 -24  -3    0.08    0.31
  -1  24   3    0.06    0.40
  -1  24   3    0.46    0.32
   1  24   2    1.75    0.47
   1 -24  -2    1.71    0.37
   1  24   2    1.72    0.33
  -1  24   2    2.91    0.52
  -1  24   2    1.88    0.37
   1 -24  -1    1.42    0.39
   1  24   1    1.23    0.41
   1  24   1    2.23    0.34
  -1  24   1    1.58    0.53
  -1 -24  -1    2.00    0.29
  -1  24   1    1.89    0.37
   1  24   0    0.00    0.36
   1 -24   0    0.01    0.29
   1  24   0   -0.39    0.28
  -1 -24   0   -0.16    0.16
  -1  24   0    0.07    0.31
  -1  24   0    0.02    0.41
   1  24  -1    2.27    0.41
   1  24  -1    1.60    0.39
   1 -24   1    1.35    0.32
  -1 -24   1    2.61    0.32
  -1  24  -1    1.89    0.45
  -1  24  -1    2.04    0.38
   1  24  -2    1.25    0.45
   1 -24   2    1.99    0.33
   1  24  -2    2.01    0.45
  -1  24  -2    1.56    0.36
  -1  24  -2    1.82    0.40
  -1 -24   2    1.94    0.30
   1  24  -3    0.35    0.40
   1 -24   3    0.29    0.28
   1  24  -3    0.17    0.33
  -1 -24   3    0.67    0.27
  -1  24  -3   -0.11    0.35
  -1  24  -3    0.14    0.35
   1  24  -4    0.16    0.30
   1 -24   4    0.26    0.29
   1  24  -4    0.32    0.35
  -1 -24   4    0.58    0.26
  -1  24  -4    0.92    0.37
   1  24  -5    0.56    0.36
   1 -24   5    0.66    0.28
   1  24  -5   -0.14    0.32
  -1  24  -5    0.55    0.47
  -1 -24   5    0.26    0.28
  -1  24  -5    0.35    0.35
   1 -24   6   -0.54    0.28
   1  24  -6    0.49    0.36
  -1 -24   6    0.19    0.30
  -1  24  -6   -0.10    0.34
   1  24  -7   -0.07    0.38
   1 -24   7   -0.01    0.29
  -1 -24   7    0.37    0.31
  -1  24  -7    0.77    0.35
   1 -24   8    1.79    0.37
   1  24  -8    1.60    0.44
  -1  24  -8    1.21    0.44
  -1 -24   8    2.26    0.40
   1 -24   9   -0.31    0.31
   1  24  -9    0.14    0.40
  -1 -24   9    0.37    0.35
  -1  24  -9    0.45    0.39
   1 -24  10    1.05    0.36
   1  24 -10    0.25    0.40
  -1 -24  10    0.72    0.41
   1 -24  11    2.25    0.49
   1  24 -11    2.30    0.51
  -1 -24  11    2.22    0.51
   2  24  10    0.21    0.38
   2  24  10    0.66    0.78
  -2  24  10    0.21    0.40
   2  24   9    1.32    0.68
   2  24   9    1.05    0.38
  -2  24   9    1.40    0.42
   2  24   8   -0.58    0.33
   2  24   8    0.13    0.61
  -2  24   8    0.98    0.38
   2  24   7    0.27    0.32
   2  24   7   -0.17    0.56
   2 -24  -7    0.75    0.55
  -2  24   7    0.00    0.37
   2 -24  -6    0.19    0.45
   2  24   6    0.20    0.30
   2  24   6    0.05    0.52
  -2  24   6    0.91    0.36
   2  24   5   -0.14    0.29
   2 -24  -5   -0.14    0.43
   2  24   5    0.28    0.50
  -2  24   5    0.67    0.37
  -2  24   5    0.66    0.34
   2 -24  -4   -0.12    0.41
   2  24   4    0.04    0.28
   2  24   4    0.39    0.45
  -2  24   4    0.20    0.33
  -2  24   4    0.11    0.33
   2  24   3    9.77    0.60
   2 -24  -3   10.19    0.78
   2  24   3    9.69    0.80
  -2  24   3    9.25    0.65
  -2  24   3    9.77    0.69
   2 -24  -2    0.10    0.38
   2  24   2   -0.06    0.42
   2  24   2    0.36    0.28
  -2  24   2   -0.03    0.32
  -2  24   2    0.11    0.35
   2  24   1    0.42    0.41
   2 -24  -1   -0.10    0.35
   2  24   1    0.47    0.29
  -2  24   1    0.10    0.34
  -2  24   1   -0.09    0.36
   2  24   0    0.60    0.42
   2  24   0    0.54    0.31
   2 -24   0    0.60    0.36
  -2  24   0    0.61    0.40
   2 -24   1   -0.56    0.32
   2  24  -1    0.10    0.38
   2  24  -1    0.84    0.39
  -2 -24   1   -0.06    0.18
  -2  24  -1    0.37    0.35
  -2  24  -1    0.05    0.45
   2  24  -2    0.52    0.34
   2 -24   2   -0.09    0.33
   2  24  -2   -0.22    0.36
  -2  24  -2   -0.38    0.37
  -2 -24   2    0.07    0.20
  -2  24  -2   -0.30    0.36
   2  24  -3    9.51    0.59
   2 -24   3    9.40    0.66
   2  24  -3    9.33    0.71
  -2 -24   3    9.27    0.56
  -2  24  -3    8.97    0.66
  -2  24  -3    8.49    0.67
   2  24  -4   -0.21    0.32
   2  24  -4   -0.38    0.36
   2 -24   4   -0.39    0.30
  -2 -24   4   -0.25    0.27
  -2  24  -4    0.17    0.36
  -2  24  -4    0.62    0.39
   2  24  -5    0.51    0.39
   2 -24   5    0.26    0.33
  -2  24  -5    1.15    0.41
  -2 -24   5    0.54    0.29
   2 -24   6    0.32    0.32
   2  24  -6    0.72    0.41
  -2 -24   6    0.68    0.31
  -2  24  -6    0.89    0.36
   2  24  -7    0.34    0.42
   2 -24   7   -0.05    0.32
  -2 -24   7    0.21    0.33
   2 -24   8    0.79    0.34
   2  24  -8    0.32    0.38
  -2 -24   8    0.03    0.34
   2 -24   9    1.66    0.36
   2  24  -9    1.36    0.48
  -2 -24   9    1.33    0.43
   2 -24  10    0.25    0.38
   2  24 -10    0.21    0.46
  -2 -24  10    1.49    0.45
   3  24   9    0.05    0.68
   3  24   9    0.37    0.37
  -3  24   9    0.24    0.41
   3  24   8    1.19    0.38
   3  24   8   -0.61    0.62
   3 -24  -8    1.14    0.61
  -3  24   8   -0.25    0.42
   3  24   7    2.69    0.70
   3  24   7    1.94    0.38
   3 -24  -7    2.57    0.61
  -3  24   7    1.36    0.42
   3  24   6    0.35    0.56
   3 -24  -6    0.85    0.53
   3  24   6    0.43    0.33
  -3  24   6    0.33    0.38
   3 -24  -5   -0.02    0.49
   3  24   5    0.06    0.50
   3  24   5   -0.12    0.27
  -3  24   5    0.13    0.35
   3  24   4    0.46    0.48
   3 -24  -4    1.27    0.49
   3  24   4    1.07    0.31
  -3  24   4    0.69    0.38
   3 -24  -3    4.03    0.56
   3  24   3    4.26    0.47
   3  24   3    4.88    0.73
  -3  24   3    4.90    0.61
  -3  24   3    4.46    0.60
   3  24   2    0.00    0.26
   3 -24  -2    0.30    0.44
   3  24   2   -0.59    0.41
  -3  24   2    0.27    0.29
  -3  24   2   -0.09    0.37
   3  24   1    2.22    0.34
   3 -24  -1    2.80    0.47
   3  24   1    2.72    0.52
  -3  24   1    2.42    0.45
  -3  24   1    2.79    0.37
   3  24   0    0.31    0.30
   3  24   0    0.49    0.42
   3 -24   0    0.75    0.40
  -3  24   0    0.20    0.33
  -3  24   0    0.51    0.39
   3  24  -1    2.83    0.48
   3  24  -1    2.70    0.42
   3 -24   1    3.15    0.47
  -3  24  -1    2.66    0.46
  -3  24  -1    2.58    0.46
   3 -24   2   -0.20    0.38
   3  24  -2   -0.20    0.37
   3  24  -2    0.14    0.30
  -3  24  -2   -0.30    0.38
  -3  24  -2    0.00    0.45
   3  24  -3    5.04    0.50
   3 -24   3    4.05    0.51
   3  24  -3    3.82    0.57
  -3  24  -3    4.73    0.59
  -3 -24   3    4.29    0.52
   3 -24   4    0.44    0.38
   3  24  -4    1.55    0.44
  -3 -24   4    0.66    0.35
   3  24  -5    0.31    0.36
   3 -24   5    0.45    0.36
  -3 -24   5    0.04    0.31
   3  24  -6    0.11    0.42
   3 -24   6    0.15    0.36
  -3 -24   6    0.52    0.36
   3  24  -7    1.83    0.46
   3 -24   7    1.45    0.41
  -3 -24   7    2.01    0.41
   3 -24   8    0.73    0.36
   3  24  -8    0.78    0.43
  -3 -24   8    0.58    0.40
   3 -24   9   -0.28    0.38
   3  24  -9    0.03    0.45
  -3 -24   9    0.26    0.48
   4 -24  -8    1.47    0.74
   4  24   8    1.04    0.67
   4  24   8    0.37    0.35
  -4  24   8    1.62    0.47
   4  24   7   -0.72    0.32
   4  24   7    0.25    0.64
   4 -24  -7    1.64    0.68
  -4  24   7    0.83    0.45
   4 -24  -6    0.16    0.62
   4  24   6    0.71    0.63
   4  24   6    0.19    0.34
  -4  24   6    0.24    0.43
   4  24   5   -0.27    0.31
   4 -24  -5    0.55    0.61
   4  24   5   -0.15    0.57
  -4  24   5   -0.46    0.43
   4 -24  -4    0.15    0.57
   4  24   4    0.04    0.30
   4  24   4    0.47    0.52
  -4  24   4    0.25    0.40
   4 -24  -3    1.77    0.56
   4  24   3    0.94    0.32
   4  24   3    1.13    0.55
  -4  24   3    1.68    0.45
   4 -24  -2    2.44    0.56
   4  24   2    2.30    0.34
   4  24   2    2.77    0.56
  -4  24   2    2.06    0.46
   4 -24  -1    1.24    0.50
   4  24   1    0.32    0.30
   4  24   1    1.29    0.51
  -4  24   1    1.90    0.48
   4 -24   0   -0.08    0.44
   4  24   0    0.17    0.46
   4  24   0    1.20    0.32
  -4  24   0    0.40    0.40
   4  24  -1    1.09    0.41
   4  24  -1    0.58    0.46
   4 -24   1    1.71    0.50
  -4  24  -1    0.67    0.45
   4  24  -2    2.09    0.49
   4 -24   2    2.42    0.49
   4  24  -2    2.81    0.50
  -4  24  -2    2.28    0.50
   4  24  -3    0.97    0.45
   4 -24   3    1.70    0.44
   4  24  -4   -0.51    0.40
   4 -24   4    0.10    0.40
   4 -24   5   -0.29    0.41
   4  24  -5   -0.26    0.44
  -4 -24   5   -0.20    0.36
   4  24  -6    1.13    0.48
   4 -24   6    0.66    0.42
  -4 -24   6   -0.02    0.39
   4  24  -7    0.43    0.44
   4 -24   7   -0.23    0.42
  -4 -24   7    0.23    0.43
   4  24  -8    1.94    0.57
   4 -24   8    0.47    0.48
  -4 -24   8    0.76    0.47
   5 -24  -6    2.19    0.78
   5  24   6    0.98    0.64
   5  24   6    1.08    0.39
  -5  24   6    0.93    0.53
   5  24   5    0.34    0.61
   5  24   5   -0.16    0.34
   5 -24  -5    0.21    0.66
  -5  24   5    0.32    0.48
   5  24   4   -0.01    0.35
   5 -24  -4    0.57    0.63
   5  24   4    1.22    0.57
  -5  24   4   -0.01    0.47
   5  24   3    0.37    0.56
   5  24   3   -0.29    0.32
   5 -24  -3    0.79    0.64
  -5  24   3    1.01    0.47
   5 -24  -2   -0.51    0.56
   5  24   2   -0.34    0.52
   5  24   2   -0.06    0.31
  -5  24   2   -0.05    0.45
   5 -24  -1    0.64    0.56
   5  24   1    1.50    0.55
   5  24   1    0.56    0.33
  -5  24   1    0.35    0.48
   5  24   0    0.20    0.36
   5 -24   0    0.34    0.52
   5  24   0    0.26    0.51
  -5  24   0   -0.24    0.48
   5  24  -1   -0.39    0.47
   5 -24   1    1.51    0.53
  -5  24  -1    0.90    0.52
   5  24  -2    0.04    0.49
   5 -24   2    0.38    0.51
   5 -24   3    0.10    0.46
   5  24  -3    0.71    0.49
   5 -24   4   -0.03    0.44
   5  24  -4    0.93    0.51
   5 -24   5   -0.86    0.46
   5  24  -5    0.46    0.52
   5  24  -6    1.00    0.55
   5 -24   6    1.02    0.56
   6  24   1    0.28    0.58
   6 -24  -1    0.65    0.65
   6 -24   0    0.63    0.66
   6  24   0   -0.78    0.54
   6 -24   1    0.45    0.62
   6  24  -1    0.08    0.56
   0  25  10   -0.12    0.68
   0  25  10    0.08    0.41
   0  25   9    1.16    0.65
   0  25   9    0.03    0.37
   0  25   8    0.06    0.37
   0  25   8    0.08    0.56
   0  25   7    0.29    0.36
   0  25   7    0.20    0.57
   0  25   6   -0.18    0.31
   0  25   6    0.65    0.53
   0  25   5    0.19    0.49
   0  25   5    0.18    0.30
   0  25   4   -0.42    0.30
   0  25   4   -0.32    0.42
   0  25   3   -0.33    0.32
   0  25   3   -0.28    0.42
   0  25   2   -0.14    0.30
   0  25   2   -0.11    0.42
   0  25   1    0.46    0.42
   0  25   1    0.08    0.31
   0 -25   0   -0.10    0.25
   0  25   0    0.21    0.32
   0  25   0    0.00    0.40
   0 -25   1   -0.10    0.28
   0  25  -1    0.27    0.35
   0  25  -1    0.05    0.39
   0 -25   2    0.28    0.27
   0  25  -2   -0.56    0.39
   0  25  -2   -0.04    0.34
   0 -25   3    0.03    0.27
   0  25  -3    0.02    0.38
   0  25  -3   -0.17    0.37
   0  25  -4    0.09    0.45
   0 -25   4   -0.03    0.26
   0  25  -4    0.24    0.37
   0  25  -5    0.35    0.48
   0  25  -5   -0.16    0.34
   0 -25   5   -0.02    0.29
   0  25  -6    0.01    0.39
   0 -25   6    0.40    0.30
   0 -25   7    0.29    0.34
   0  25  -7   -0.35    0.39
   0 -25   8   -0.34    0.34
   0  25  -8   -0.52    0.40
   0 -25   9    0.05    0.37
   0  25  -9   -0.27    0.40
   0  25 -10   -0.50    0.42
   0 -25  10    0.09    0.38
   1  25  10    0.48    0.72
   1  25   9    0.36    0.69
   1  25   9    0.25    0.38
  -1  25   9    0.20    0.39
   1  25   8    0.00    0.34
   1  25   8   -0.02    0.63
  -1  25   8    0.46    0.80
  -1  25   8    0.10    0.36
   1  25   7    0.50    0.33
   1  25   7    0.12    0.57
  -1  25   7    0.69    0.54
  -1  25   7    1.00    0.42
   1  25   6   -0.13    0.31
   1  25   6    0.28    0.53
  -1  25   6   -0.08    0.51
  -1  25   6    0.12    0.34
   1  25   5   -0.42    0.52
   1  25   5   -0.06    0.31
  -1  25   5    0.00    0.51
  -1  25   5    0.03    0.35
   1  25   4   -0.80    0.45
   1  25   4   -0.11    0.33
  -1  25   4    0.58    0.49
  -1  25   4    0.30    0.34
   1  25   3    1.84    0.52
   1 -25  -3    2.48    0.39
   1  25   3    1.61    0.35
  -1  25   3    2.92    0.44
  -1  25   3    1.99    0.57
   1  25   2    0.78    0.32
   1 -25  -2    0.63    0.35
   1  25   2   -0.06    0.43
  -1  25   2    0.62    0.35
  -1  25   2    0.41    0.49
   1 -25  -1    1.86    0.36
   1  25   1    1.73    0.35
   1  25   1    2.18    0.47
  -1  25   1    1.77    0.48
  -1  25   1    1.71    0.38
   1  25   0    5.58    0.52
   1  25   0    4.73    0.65
   1 -25   0    4.43    0.52
  -1  25   0    5.36    0.67
  -1  25   0    4.44    0.54
   1  25  -1    1.70    0.37
   1 -25   1    1.52    0.33
   1  25  -1    2.29    0.46
  -1 -25   1    2.27    0.34
  -1  25  -1    2.06    0.44
  -1  25  -1    2.03    0.41
   1 -25   2    0.51    0.29
   1  25  -2    0.65    0.38
   1  25  -2   -0.02    0.41
  -1  25  -2    0.38    0.35
  -1 -25   2    0.56    0.28
  -1  25  -2    0.20    0.36
   1 -25   3    1.78    0.36
   1  25  -3    2.12    0.47
   1  25  -3    2.29    0.48
  -1  25  -3    3.05    0.43
  -1  25  -3    2.37    0.47
  -1 -25   3    2.45    0.32
   1 -25   4    0.28    0.31
   1  25  -4    0.30    0.39
   1  25  -4    0.02    0.38
  -1 -25   4    0.10    0.27
  -1  25  -4   -0.29    0.36
  -1  25  -4   -0.66    0.37
   1  25  -5    0.28    0.42
   1 -25   5   -0.68    0.30
   1  25  -5    0.07    0.37
  -1 -25   5   -0.06    0.29
  -1  25  -5   -0.55    0.36
  -1  25  -5    0.00    0.41
   1  25  -6    0.08    0.38
   1 -25   6    0.05    0.33
  -1 -25   6    0.45    0.32
  -1  25  -6   -0.56    0.36
   1  25  -7    0.68    0.42
   1 -25   7    0.94    0.33
  -1  25  -7   -0.06    0.40
  -1 -25   7    0.63    0.35
   1  25  -8   -0.30    0.42
   1 -25   8    0.10    0.34
  -1 -25   8    0.56    0.36
  -1  25  -8    0.32    0.42
   1  25  -9   -0.21    0.42
   1 -25   9    0.64    0.39
  -1 -25   9    0.00    0.37
  -1  25  -9    0.00    0.43
   1 -25  10   -0.12    0.36
   1  25 -10   -0.42    0.43
  -1 -25  10   -0.22    0.43
   2  25   9    0.90    0.68
   2  25   9   -0.48    0.36
  -2  25   9    0.09    0.40
   2  25   8    0.46    0.64
   2  25   8    0.70    0.37
  -2  25   8    0.97    0.39
   2  25   7    1.47    0.64
  -2  25   7    0.76    0.40
   2  25   6    0.11    0.32
   2  25   6    0.14    0.57
  -2  25   6    0.03    0.38
   2 -25  -5   -0.73    0.42
   2  25   5    0.35    0.32
   2  25   5    0.41    0.52
  -2  25   5    0.02    0.42
  -2  25   5   -0.63    0.36
   2  25   4   -0.08    0.32
   2  25   4   -0.11    0.46
   2 -25  -4    0.37    0.43
  -2  25   4    0.36    0.36
  -2  25   4   -0.20    0.34
   2 -25  -3    1.81    0.44
   2  25   3    2.36    0.51
   2  25   3    2.29    0.36
  -2  25   3    1.93    0.40
  -2  25   3    2.03    0.42
   2  25   2    4.12    0.48
   2 -25  -2    2.40    0.43
   2  25   2    2.27    0.50
  -2  25   2    3.04    0.50
  -2  25   2    4.23    0.55
   2  25   1    1.85    0.33
   2  25   1    1.52    0.45
   2 -25  -1    1.90    0.43
  -2  25   1    1.70    0.43
  -2  25   1    1.73    0.45
   2 -25   0   -0.14    0.35
   2  25   0    0.12    0.40
   2  25   0    0.13    0.32
  -2  25   0    0.33    0.48
  -2  25   0    0.23    0.37
   2  25  -1    1.84    0.37
   2  25  -1    1.63    0.42
   2 -25   1    1.34    0.41
  -2  25  -1    2.17    0.45
  -2  25  -1    1.06    0.40
   2  25  -2    3.00    0.50
   2 -25   2    2.41    0.41
   2  25  -2    2.54    0.46
  -2 -25   2    2.84    0.49
  -2  25  -2    2.46    0.44
  -2  25  -2    2.68    0.46
   2  25  -3    2.14    0.48
   2  25  -3    2.14    0.41
   2 -25   3    1.80    0.39
  -2 -25   3    1.32    0.34
  -2  25  -3    2.42    0.44
  -2  25  -3    2.07    0.46
   2 -25   4   -0.18    0.33
   2  25  -4   -0.12    0.41
  -2 -25   4   -0.25    0.28
  -2  25  -4   -0.35    0.39
  -2  25  -4    0.29    0.39
   2  25  -5   -0.28    0.40
   2 -25   5    0.22    0.36
  -2  25  -5    0.00    0.39
  -2 -25   5    0.11    0.30
   2  25  -6   -0.18    0.42
  -2  25  -6   -0.18    0.40
  -2 -25   6    0.15    0.32
   2  25  -7    0.50    0.41
   2 -25   7    0.47    0.38
  -2 -25   7   -0.04    0.35
   2 -25   8    0.95    0.40
   2  25  -8    1.27    0.44
  -2 -25   8    1.20    0.43
   2  25  -9    0.35    0.46
   2 -25   9    0.15    0.38
  -2 -25   9    0.41    0.43
   3  25   8   -1.09    0.67
   3  25   8    0.29    0.36
  -3  25   8   -0.10    0.43
   3 -25  -7    0.31    0.58
   3  25   7    0.40    0.37
   3  25   7   -1.09    0.61
  -3  25   7    0.52    0.44
   3  25   6    2.84    0.65
   3 -25  -6    1.96    0.60
   3  25   6    0.50    0.36
  -3  25   6    1.58    0.46
   3 -25  -5    1.43    0.56
   3  25   5    0.24    0.56
   3  25   5    1.20    0.32
  -3  25   5    0.57    0.44
   3 -25  -4    1.54    0.56
   3  25   4    0.81    0.56
   3  25   4    1.16    0.33
  -3  25   4    2.54    0.48
   3  25   3    1.05    0.33
   3  25   3    1.49    0.53
   3 -25  -3    1.05    0.51
  -3  25   3    0.83    0.40
   3  25   2   -0.56    0.30
   3  25   2    0.15    0.49
   3 -25  -2   -0.15    0.47
  -3  25   2    0.18    0.39
  -3  25   2   -0.50    0.31
   3 -25  -1   -0.10    0.47
   3  25   1   -0.45    0.45
   3  25   1    0.06    0.30
  -3  25   1    0.11    0.33
  -3  25   1    0.54    0.40
   3 -25   0    2.31    0.48
   3  25   0    1.82    0.50
   3  25   0    2.44    0.36
  -3  25   0    1.97    0.45
  -3  25   0    2.95    0.47
   3 -25   1    0.30    0.41
   3  25  -1    0.32    0.37
   3  25  -1    0.10    0.41
  -3  25  -1   -0.16    0.46
  -3  25  -1    0.38    0.39
   3 -25   2    0.18    0.41
   3  25  -2    0.68    0.41
   3  25  -2    0.77    0.40
  -3  25  -2    0.07    0.42
  -3  25  -2    0.38    0.41
   3  25  -3    0.96    0.44
   3 -25   3    0.68    0.43
  -3  25  -3    1.25    0.45
   3 -25   4    1.16    0.43
   3  25  -4    1.31    0.44
  -3 -25   4    1.39    0.46
   3 -25   5    1.02    0.44
   3  25  -5    1.38    0.51
  -3 -25   5    0.62    0.35
   3  25  -6    0.47    0.44
   3 -25   6    1.05    0.40
  -3 -25   6    1.54    0.42
   3 -25   7    0.47    0.40
   3  25  -7   -0.61    0.48
  -3 -25   7    0.41    0.40
   3 -25   8   -0.25    0.37
   3  25  -8    0.23    0.46
  -3 -25   8    0.19    0.45
   4  25   6    0.27    0.66
   4 -25  -6    1.01    0.69
   4  25   6    1.31    0.37
  -4  25   6    0.84    0.49
   4 -25  -5    1.94    0.68
   4  25   5    1.06    0.34
   4  25   5    1.55    0.61
  -4  25   5    0.80    0.52
   4  25   4    0.14    0.33
   4  25   4    0.20    0.56
   4 -25  -4    1.25    0.61
  -4  25   4   -0.14    0.43
   4  25   3    0.48    0.54
   4 -25  -3   -0.74    0.58
   4  25   3   -0.04    0.32
  -4  25   3    0.38    0.44
   4  25   2   -0.32    0.32
   4  25   2    0.67    0.53
   4 -25  -2    0.43    0.55
  -4  25   2   -0.05    0.45
   4 -25  -1    1.50    0.58
   4  25   1    2.77    0.39
   4  25   1    1.72    0.57
  -4  25   1    3.20    0.55
   4 -25   0    0.36    0.50
   4  25   0   -0.48    0.34
   4  25   0   -0.39    0.47
  -4  25   0    0.72    0.46
   4  25  -1    1.95    0.56
   4 -25   1    2.68    0.54
   4  25  -1    1.97    0.43
  -4  25  -1    2.33    0.51
   4 -25   2   -0.47    0.43
   4  25  -2    0.57    0.49
  -4  25  -2    0.34    0.46
   4  25  -3    0.86    0.46
   4 -25   3   -0.36    0.44
   4  25  -4   -0.48    0.44
   4 -25   4    0.49    0.44
   4 -25   5    1.17    0.44
   4  25  -5    1.37    0.49
   4  25  -6    1.18    0.49
   4 -25   6    1.75    0.45
   5  25   4   -0.61    0.59
   5 -25  -4    0.62    0.73
   5 -25  -3    0.40    0.64
   5  25   3   -0.80    0.55
   5  25   3    0.86    0.37
  -5  25   3    1.22    0.52
   5  25   2    0.07    0.56
   5 -25  -2   -0.01    0.63
   5  25   2    0.86    0.38
  -5  25   2    0.47    0.51
   5  25   1    0.41    0.56
   5 -25  -1   -0.34    0.59
   5  25   1    0.59    0.37
  -5  25   1    0.44    0.49
   5  25   0    0.29    0.55
   5  25   0    0.02    0.39
   5 -25   0    0.54    0.62
  -5  25   0    0.82    0.50
   5  25  -1    0.11    0.53
   5 -25   1    0.86    0.60
  -5  25  -1    1.02    0.55
   5 -25   2    0.86    0.55
   5  25  -2   -0.20    0.52
   5 -25   3    0.76    0.55
   5  25  -3    0.19    0.50
   5  25  -4    0.11    0.53
   5 -25   4    0.63    0.55
   0  26   8   -0.74    0.61
   0  26   8    0.71    0.40
   0  26   7   -0.56    0.54
   0  26   7   -0.15    0.38
   0  26   6    1.00    0.54
   0  26   6    1.27    0.41
   0  26   5    1.95    0.41
   0  26   5    1.16    0.57
   0  26   4    0.73    0.37
   0  26   4    0.92    0.52
   0  26   3    1.87    0.38
   0  26   3    1.34    0.50
   0  26   2    1.12    0.50
   0  26   2    0.86    0.38
   0  26   1    2.77    0.53
   0  26   1    3.06    0.44
   0  26   0    3.05    0.41
   0  26   0    2.53    0.54
   0 -26   0    2.44    0.34
   0 -26   1    4.08    0.49
   0  26  -1    3.51    0.46
   0  26  -1    3.51    0.54
   0  26  -2    0.64    0.36
   0 -26   2    0.65    0.28
   0  26  -2    1.10    0.48
   0  26  -3    1.98    0.48
   0  26  -3    2.10    0.42
   0 -26   3    1.79    0.33
   0 -26   4    0.97    0.33
   0  26  -4    1.34    0.43
   0  26  -4    0.89    0.42
   0  26  -5    1.04    0.51
   0  26  -5    1.15    0.45
   0 -26   5    1.91    0.35
   0 -26   6    1.49    0.38
   0  26  -6    1.57    0.44
   0  26  -7    0.56    0.43
   0 -26   7   -0.15    0.37
   0 -26   8    0.18    0.36
   0  26  -8   -0.22    0.41
   1  26   8    1.48    0.72
   1  26   8    2.00    0.43
  -1  26   8    1.92    0.47
   1  26   7   -0.40    0.35
   1  26   7    0.38    0.67
  -1  26   7   -0.05    0.71
  -1  26   7   -0.37    0.41
   1  26   6    3.19    0.67
   1  26   6    2.57    0.43
  -1  26   6    1.84    0.64
  -1  26   6    3.05    0.49
   1  26   5    0.34    0.55
   1  26   5    0.22    0.34
  -1  26   5    0.34    0.39
  -1  26   5    1.17    0.57
   1  26   4    0.38    0.36
   1  26   4    0.32    0.55
  -1  26   4   -0.36    0.49
  -1  26   4    0.44    0.35
   1  26   3    0.41    0.49
   1  26   3    0.18    0.35
  -1  26   3    0.07    0.36
  -1  26   3    0.22    0.51
   1 -26  -2   -0.19    0.32
   1  26   2    0.12    0.43
   1  26   2   -0.42    0.32
  -1  26   2    0.32    0.35
  -1  26   2    0.67    0.45
   1 -26  -1    5.32    0.57
   1  26   1    5.41    0.55
   1  26   1    4.62    0.67
  -1  26   1    5.58    0.73
  -1  26   1    7.09    0.65
   1  26   0    0.08    0.41
   1 -26   0   -0.01    0.30
   1  26   0    0.37    0.35
  -1  26   0   -0.12    0.42
  -1  26   0    0.44    0.36
   1  26  -1    6.47    0.70
   1  26  -1    4.47    0.55
   1 -26   1    5.48    0.56
  -1  26  -1    3.98    0.61
  -1  26  -1    5.79    0.72
   1  26  -2    0.65    0.44
   1 -26   2    0.01    0.31
   1  26  -2    0.79    0.39
  -1  26  -2   -0.07    0.37
  -1  26  -2   -0.70    0.41
  -1 -26   2    0.08    0.26
   1 -26   3   -0.05    0.32
   1  26  -3   -0.58    0.41
   1  26  -3   -0.15    0.43
  -1  26  -3    0.60    0.43
  -1 -26   3    0.52    0.29
  -1  26  -3    0.19    0.39
   1  26  -4    0.86    0.51
   1  26  -4    0.47    0.46
   1 -26   4    0.98    0.35
  -1 -26   4    0.42    0.30
  -1  26  -4    0.42    0.44
  -1  26  -4   -0.15    0.39
   1  26  -5    0.88    0.43
   1 -26   5    0.69    0.34
  -1  26  -5   -0.23    0.44
  -1 -26   5    0.47    0.34
  -1  26  -5   -0.27    0.41
   1 -26   6    2.66    0.43
   1  26  -6    2.39    0.49
  -1  26  -6    2.97    0.51
  -1 -26   6    2.80    0.41
   1  26  -7    0.57    0.46
   1 -26   7    0.20    0.38
  -1 -26   7   -0.13    0.37
  -1  26  -7    0.01    0.43
   1  26  -8    1.91    0.50
  -1 -26   8    2.74    0.47
  -1  26  -8    0.86    0.48
   2  26   8    0.27    0.39
   2  26   8   -0.26    0.66
   2  26   7    1.03    0.41
   2  26   7   -0.04    0.67
  -2  26   7    1.34    0.46
   2  26   6    0.36    0.65
   2  26   6    2.19    0.42
  -2  26   6    1.58    0.46
   2  26   5    0.88    0.56
   2  26   5    0.49    0.33
  -2  26   5    0.83    0.44
   2 -26  -4   -0.02    0.44
   2  26   4   -0.39    0.52
  -2  26   4   -0.40    0.41
  -2  26   4    0.22    0.42
   2 -26  -3   -0.07    0.39
   2  26   3    1.22    0.49
   2  26   3    1.27    0.35
  -2  26   3    0.51    0.46
  -2  26   3    0.08    0.40
   2  26   2    4.00    0.54
   2  26   2    2.89    0.54
   2 -26  -2    3.56    0.47
  -2  26   2    4.16    0.61
  -2  26   2    3.47    0.54
   2  26   1   -0.09    0.42
   2 -26  -1   -0.32    0.38
  -2  26   1    0.16    0.47
  -2  26   1    0.11    0.40
   2  26   0    0.60    0.35
   2  26   0    0.08    0.44
   2 -26   0   -0.18    0.39
  -2  26   0   -0.18    0.38
  -2  26   0    0.01    0.44
   2 -26   1    0.05    0.37
   2  26  -1    0.26    0.42
   2  26  -1   -0.19    0.34
  -2  26  -1    0.78    0.43
  -2  26  -1    0.08    0.41
   2  26  -2    4.57    0.63
   2  26  -2    2.74    0.52
   2 -26   2    2.55    0.45
  -2  26  -2    4.11    0.50
  -2  26  -2    3.33    0.52
   2  26  -3    0.26    0.45
   2 -26   3    0.24    0.37
   2  26  -3   -0.25    0.47
  -2  26  -3   -0.07    0.41
  -2  26  -3    0.94    0.44
   2  26  -4    0.62    0.46
   2 -26   4    0.68    0.39
  -2  26  -4    0.79    0.46
  -2  26  -4    0.19    0.41
  -2 -26   4    0.19    0.31
   2 -26   5    0.62    0.41
   2  26  -5    0.22    0.45
  -2 -26   5    0.10    0.35
  -2  26  -5    0.23    0.46
   2  26  -6    0.05    0.44
   2 -26   6    2.15    0.43
  -2  26  -6    1.94    0.51
  -2 -26   6    0.82    0.38
   2  26  -7    1.26    0.47
   2 -26   7    0.02    0.40
  -2 -26   7    1.10    0.43
   2 -26   8    0.50    0.42
   2  26  -8   -0.38    0.47
  -2 -26   8    0.46    0.44
   3  26   6    1.80    0.42
   3  26   6    2.27    0.71
   3 -26  -6    0.92    0.76
  -3  26   6    2.24    0.49
   3 -26  -5    0.13    0.53
   3  26   5    0.18    0.58
   3  26   5    0.68    0.37
  -3  26   5    0.74    0.45
   3  26   4    0.51    0.36
   3 -26  -4    0.98    0.53
   3  26   4    0.94    0.54
  -3  26   4    1.37    0.50
   3  26   3    0.43    0.35
   3 -26  -3    1.24    0.53
  -3  26   3    0.01    0.46
   3  26   2    0.52    0.34
   3 -26  -2    0.77    0.48
   3  26   2    0.23    0.51
  -3  26   2    1.02    0.46
   3  26   1    1.19    0.35
   3 -26  -1    0.98    0.49
   3  26   1    1.51    0.50
  -3  26   1    2.03    0.47
  -3  26   1    1.19    0.44
   3  26   0   -0.72    0.45
   3  26   0   -0.55    0.35
   3 -26   0    0.21    0.47
  -3  26   0   -0.28    0.45
  -3  26   0   -0.10    0.44
   3 -26   1    1.43    0.47
   3  26  -1    2.03    0.52
   3  26  -1    2.00    0.41
  -3  26  -1    1.69    0.47
  -3  26  -1    2.24    0.48
   3 -26   2    0.07    0.41
   3  26  -2    1.23    0.52
   3  26  -2    0.84    0.47
  -3  26  -2    0.61    0.45
  -3  26  -2    0.48    0.42
   3  26  -3   -0.28    0.43
   3 -26   3   -0.34    0.45
  -3  26  -3    0.16    0.45
   3 -26   4    0.70    0.45
   3  26  -4    0.68    0.51
   3  26  -5    1.55    0.53
   3 -26   5    1.27    0.43
   3  26  -6    2.10    0.53
   3 -26   6    2.21    0.50
  -3 -26   6    2.62    0.45
   4  26   4    0.39    0.59
   4  26   4    0.66    0.35
   4 -26  -4    0.21    0.63
  -4  26   4   -0.25    0.47
   4 -26  -3    0.79    0.62
   4  26   3    0.31    0.53
   4  26   3    0.60    0.35
  -4  26   3    0.96    0.51
   4 -26  -2   -0.68    0.59
   4  26   2    0.68    0.37
   4  26   2    0.11    0.53
  -4  26   2    0.91    0.50
   4  26   1    0.20    0.52
   4  26   1    0.64    0.37
   4 -26  -1    0.43    0.57
  -4  26   1    0.28    0.49
   4 -26   0    1.43    0.55
   4  26   0   -0.43    0.38
   4  26   0    0.08    0.51
  -4  26   0    0.65    0.49
   4  26  -1    0.44    0.48
   4 -26   1    0.59    0.53
  -4  26  -1   -0.69    0.48
   4  26  -2   -0.04    0.47
   4 -26   2   -0.25    0.51
  -4  26  -2    0.22    0.50
   4 -26   3    0.48    0.52
   4  26  -3    0.49    0.50
   4  26  -4   -0.70    0.46
   4 -26   4    0.40    0.51
   0  27   7   -0.41    0.39
   0  27   7   -0.50    0.60
   0  27   6    0.12    0.43
   0  27   6    0.21    0.58
   0  27   5   -0.79    0.41
   0  27   5    0.41    0.55
   0  27   4    0.47    0.52
   0  27   4    0.38    0.36
   0  27   3    0.14    0.48
   0  27   2   -0.27    0.36
   0  27   2    0.33    0.46
   0  27   1    0.32    0.38
   0  27   1   -0.27    0.50
   0  27   0   -0.31    0.38
   0  27   0    0.08    0.50
   0  27  -1    0.68    0.40
   0  27  -1    0.74    0.52
   0 -27   1    0.17    0.32
   0  27  -2   -0.16    0.39
   0 -27   2    0.15    0.29
   0  27  -2    0.96    0.50
   0 -27   3    0.11    0.31
   0  27  -3    0.14    0.45
   0  27  -3    0.05    0.41
   0  27  -4    0.69    0.44
   0  27  -4    0.99    0.48
   0 -27   4    0.36    0.32
   0  27  -5    0.25    0.44
   0 -27   5   -0.02    0.34
   0  27  -5   -0.35    0.51
   0  27  -6    0.85    0.48
   0 -27   6   -0.31    0.36
   0  27  -7    0.19    0.45
   0 -27   7    0.71    0.39
   1  27   7    0.45    0.67
   1  27   7    0.50    0.42
  -1  27   7    1.69    0.49
   1  27   6    1.82    0.44
   1  27   6    0.58    0.67
  -1  27   6    0.50    0.60
  -1  27   6    0.66    0.44
   1  27   5    1.05    0.40
   1  27   5    1.10    0.63
  -1  27   5    1.47    0.46
  -1  27   5    0.50    0.53
   1  27   4    0.95    0.57
   1  27   4    0.94    0.39
  -1  27   4    1.87    0.57
  -1  27   4    1.23    0.43
   1  27   3    0.24    0.50
   1  27   3   -0.13    0.39
  -1  27   3   -0.40    0.37
  -1  27   3    0.41    0.50
   1  27   2    0.41    0.48
   1  27   2    0.36    0.35
  -1  27   2   -0.09    0.41
  -1  27   2    0.57    0.50
   1  27   1    4.44    0.63
   1  27   1    4.45    0.59
   1 -27  -1    3.53    0.45
  -1  27   1    4.03    0.62
  -1  27   1    5.41    0.67
   1 -27   0   -0.10    0.32
   1  27   0    0.13    0.36
   1  27   0    0.51    0.45
  -1  27   0    0.13    0.39
  -1  27   0    0.08    0.46
   1 -27   1    3.82    0.56
   1  27  -1    4.48    0.61
   1  27  -1    4.29    0.62
  -1  27  -1    3.94    0.57
  -1  27  -1    3.15    0.48
   1 -27   2    0.20    0.35
   1  27  -2   -0.12    0.44
   1  27  -2   -0.83    0.41
  -1  27  -2   -0.76    0.44
  -1  27  -2   -0.01    0.41
   1 -27   3    0.31    0.34
   1  27  -3    0.45    0.45
   1  27  -3    0.76    0.45
  -1  27  -3   -0.74    0.44
  -1 -27   3    0.57    0.35
  -1  27  -3   -0.28    0.45
   1  27  -4    1.91    0.50
   1  27  -4    2.02    0.76
   1 -27   4    1.09    0.38
  -1  27  -4    0.99    0.47
  -1 -27   4    1.61    0.36
  -1  27  -4    0.20    0.46
   1 -27   5    0.74    0.40
   1  27  -5    0.13    0.44
  -1 -27   5    1.09    0.37
  -1  27  -5    0.51    0.50
  -1  27  -5    0.00    0.50
   1 -27   6    1.29    0.42
   1  27  -6    0.39    0.47
  -1 -27   6    0.06    0.37
  -1  27  -6    0.99    0.48
   1 -27   7    0.49    0.43
   1  27  -7    0.43    0.51
  -1  27  -7    0.19    0.48
  -1 -27   7    0.87    0.42
   2  27   6   -0.15    0.38
   2  27   6    0.18    0.66
  -2  27   6   -0.43    0.45
   2  27   5   -0.66    0.58
   2  27   5    0.16    0.40
  -2  27   5    1.11    0.46
   2  27   4    0.34    0.62
   2  27   4    1.35    0.36
  -2  27   4    0.22    0.44
   2  27   3    0.16    0.53
   2  27   3    0.97    0.40
   2 -27  -3    0.46    0.76
  -2  27   3    0.96    0.44
  -2  27   3    0.87    0.53
   2  27   2    2.42    0.56
   2 -27  -2    1.90    0.46
   2  27   2    1.76    0.41
  -2  27   2    1.86    0.52
  -2  27   2    1.60    0.42
   2  27   1    0.25    0.46
   2  27   1    0.95    0.37
   2 -27  -1    0.13    0.41
  -2  27   1    0.60    0.47
  -2  27   1   -0.02    0.45
   2 -27   0    0.30    0.41
   2  27   0    0.33    0.45
   2  27   0   -0.29    0.36
  -2  27   0    0.00    0.44
  -2  27   0   -0.87    0.40
   2  27  -1    0.05    0.44
   2  27  -1    0.59    0.41
   2 -27   1    0.86    0.41
  -2  27  -1    0.22    0.47
  -2  27  -1   -0.09    0.44
   2 -27   2    1.39    0.41
   2  27  -2    1.64    0.47
   2  27  -2    0.82    0.46
  -2  27  -2    2.44    0.47
  -2  27  -2    1.66    0.50
   2  27  -3    0.73    0.52
   2 -27   3    0.17    0.41
  -2  27  -3    0.34    0.47
  -2  27  -3    1.04    0.50
   2  27  -4    0.45    0.53
   2 -27   4   -0.16    0.40
  -2  27  -4    0.42    0.48
  -2  27  -4   -0.03    0.45
   2 -27   5   -0.46    0.38
   2  27  -5    0.42    0.50
  -2 -27   5    0.28    0.48
  -2  27  -5   -0.08    0.49
   2 -27   6    1.10    0.45
   2  27  -6    0.15    0.47
  -2 -27   6    0.10    0.39
  -2  27  -6    0.29    0.52
   3  27   4   -0.16    0.55
   3  27   4   -0.04    0.38
   3 -27  -4   -0.34    0.54
  -3  27   4    0.14    0.49
   3  27   3    0.33    0.38
   3 -27  -3    0.66    0.52
   3  27   3    0.93    0.56
  -3  27   3    0.07    0.47
   3  27   2    1.56    0.42
   3  27   2    1.44    0.57
   3 -27  -2    1.64    0.55
  -3  27   2    3.03    0.52
   3 -27  -1    2.17    0.52
   3  27   1    0.96    0.41
   3  27   1    0.71    0.54
  -3  27   1    0.94    0.49
   3 -27   0    3.01    0.56
   3  27   0    1.32    0.42
   3  27   0    1.78    0.54
  -3  27   0    1.08    0.47
  -3  27   0    0.63    0.50
   3  27  -1    1.42    0.52
   3  27  -1    1.67    0.45
   3 -27   1    1.90    0.53
  -3  27  -1    1.45    0.48
  -3  27  -1    0.64    0.47
   3  27  -2    1.95    0.51
   3 -27   2    1.43    0.50
  -3  27  -2    2.14    0.49
   3  27  -3    0.07    0.47
   3 -27   3    0.00    0.42
  -3  27  -3    0.96    0.51
   3 -27   4   -0.35    0.46
   3  27  -4   -0.17    0.51
   0  28   5   -0.97    0.40
   0  28   5   -0.56    0.56
   0  28   4    4.23    0.58
   0  28   4    4.70    0.72
   0  28   3    3.81    0.66
   0  28   3    4.51    0.56
   0  28   2   14.02    1.10
   0  28   2   13.56    0.85
   0  28   1    0.62    0.59
   0  28   1    0.83    0.45
   0  28   0    4.63    0.67
   0  28   0    4.31    0.65
   0  28  -1   -0.25    0.44
   0  28  -1   -0.20    0.53
   0  28  -2   13.62    1.02
   0  28  -2   14.29    0.88
   0 -28   3    4.49    0.56
   0  28  -3    3.46    0.61
   0  28  -3    4.70    0.58
   0 -28   4    4.55    0.59
   0  28  -4    4.19    0.63
   0  28  -4    4.43    0.65
   0  28  -5   -0.37    0.47
   0 -28   5    0.12    0.37
   1  28   4    0.48    0.59
   1  28   4    1.09    0.44
  -1  28   4    0.57    0.43
  -1  28   4    0.86    0.58
   1  28   3    0.19    0.56
   1  28   3    1.20    0.42
  -1  28   3    1.11    0.56
  -1  28   3    0.26    0.45
   1  28   2    0.20    0.39
   1  28   2    1.14    0.55
  -1  28   2    1.85    0.56
  -1  28   2    0.72    0.46
   1  28   1   -0.15    0.38
   1  28   1    0.19    0.52
  -1  28   1    0.14    0.44
  -1  28   1   -0.18    0.50
   1  28   0    0.12    0.43
   1  28   0    0.38    0.51
  -1  28   0   -0.41    0.49
  -1  28   0   -0.07    0.42
   1 -28   1   -0.01    0.34
   1  28  -1    0.33    0.43
   1  28  -1   -0.32    0.53
  -1  28  -1    0.47    0.46
  -1  28  -1    0.11    0.51
   1  28  -2    1.30    0.57
   1 -28   2    1.17    0.38
   1  28  -2    1.67    0.49
  -1  28  -2    2.01    0.50
  -1  28  -2    1.81    0.52
   1  28  -3    0.50    0.51
   1  28  -3    0.91    0.50
   1 -28   3    0.43    0.37
  -1  28  -3    0.57    0.51
  -1  28  -3    0.47    0.52
   1  28  -4    0.81    0.50
   1 -28   4    0.13    0.40
  -1  28  -4    0.22    0.51
  -1  28  -4    0.23    0.52
   2  28   3   -0.12    0.59
   2  28   3   -0.32    0.39
  -2  28   3   -0.63    0.46
   2  28   2   -0.20    0.52
   2  28   2    0.10    0.41
  -2  28   2   -0.30    0.48
  -2  28   2    0.32    0.48
   2  28   1    0.47    0.40
   2  28   1    0.43    0.50
   2 -28  -1    0.07    0.41
  -2  28   1    0.11    0.47
  -2  28   1    0.09    0.48
   2  28   0    0.94    0.45
   2 -28   0    1.36    0.46
   2  28   0    0.99    0.54
  -2  28   0    1.26    0.51
  -2  28   0    2.05    0.53
   2 -28   1   -0.52    0.39
   2  28  -1    0.68    0.47
   2  28  -1    0.36    0.50
  -2  28  -1    0.75    0.48
  -2  28  -1   -0.04    0.47
   2  28  -2    0.59    0.58
   2  28  -2   -0.13    0.51
   2 -28   2    0.06    0.42
  -2  28  -2    0.40    0.51
  -2  28  -2    0.14    0.53
   2 -28   3   -0.04    0.43
   2  28  -3    0.35    0.55
  -2  28  -3   -0.69    0.50
  -2  28  -3   -0.16    0.51
   0   0   0    0.00    0.00
;
_shelx_hkl_checksum              98967
_shelx_shelxl_version_number     2014/7
_olex2_submission_special_instructions 'No special instructions were received'
loop_
_space_group_symop_operation_xyz
'x, y, z'
'-x+1/2, -y+1/2, z+1/2'
'x+1/2, -y+1/2, -z'
'-x, y, -z+1/2'
'-x, -y, -z'
'x-1/2, y-1/2, -z-1/2'
'-x-1/2, y-1/2, z'
'x, -y, z-1/2'
loop_
_atom_site_label
_atom_site_type_symbol
_atom_site_fract_x
_atom_site_fract_y
_atom_site_fract_z
_atom_site_U_iso_or_equiv
_atom_site_adp_type
_atom_site_occupancy
_atom_site_site_symmetry_order
_atom_site_calc_flag
_atom_site_refinement_flags_posn
_atom_site_refinement_flags_adp
_atom_site_refinement_flags_occupancy
C2C C 0.0394(2) 0.18046(9) -0.13543(11) 0.0583(5) Uani 1 1 d . . .
H2C H 0.073(2) 0.2140(7) -0.1690(11) 0.059(5) Uiso 1 1 d . . .
C3C C -0.1089(2) 0.15791(10) -0.14052(12) 0.0669(5) Uani 1 1 d . . .
H3C H -0.182(2) 0.1760(9) -0.1793(12) 0.079(6) Uiso 1 1 d . . .
C4C C -0.1538(2) 0.11279(9) -0.09086(12) 0.0641(5) Uani 1 1 d . . .
H4C H -0.260(2) 0.0973(9) -0.0960(12) 0.079(6) Uiso 1 1 d . . .
C5C C -0.0527(2) 0.08856(8) -0.03506(11) 0.0546(4) Uani 1 1 d . . .
H5C H -0.086(2) 0.0561(8) 0.0010(12) 0.072(6) Uiso 1 1 d . . .
C6C C 0.09633(18) 0.10981(6) -0.03109(9) 0.0432(4) Uani 1 1 d . . .
C7C C 0.22800(18) 0.09155(6) 0.01857(8) 0.0408(4) Uani 1 1 d . . .
C8C C 0.2429(2) 0.04764(7) 0.07636(10) 0.0481(4) Uani 1 1 d . . .
H8C H 0.1520(19) 0.0236(7) 0.0899(10) 0.054(5) Uiso 1 1 d . . .
C9C C 0.3826(2) 0.03962(7) 0.11472(10) 0.0488(4) Uani 1 1 d . . .
H9C H 0.3952(19) 0.0097(8) 0.1572(11) 0.061(5) Uiso 1 1 d . . .
C10C C 0.51005(19) 0.07437(6) 0.09721(9) 0.0430(4) Uani 1 1 d . . .
C11C C 0.49312(19) 0.11915(6) 0.03984(9) 0.0422(4) Uani 1 1 d . . .
H11C H 0.5801(18) 0.1444(6) 0.0279(9) 0.043(4) Uiso 1 1 d . . .
C12C C 0.35333(18) 0.12726(6) 0.00068(8) 0.0389(4) Uani 1 1 d . . .
C13C C 0.30889(18) 0.17267(6) -0.06308(9) 0.0426(4) Uani 1 1 d . . .
C14C C 0.14236(18) 0.15617(7) -0.08058(9) 0.0443(4) Uani 1 1 d . . .
C15C C 0.3178(3) 0.23344(8) -0.02566(12) 0.0563(5) Uani 1 1 d . . .
H15A H 0.256(2) 0.2353(8) 0.0284(11) 0.067(5) Uiso 1 1 d . . .
H15B H 0.276(2) 0.2623(9) -0.0651(11) 0.073(6) Uiso 1 1 d . . .
H15C H 0.429(2) 0.2429(8) -0.0093(11) 0.069(6) Uiso 1 1 d . . .
C16C C 0.4086(2) 0.16883(9) -0.14100(11) 0.0534(4) Uani 1 1 d . . .
H16A H 0.372(2) 0.1988(8) -0.1846(12) 0.071(5) Uiso 1 1 d . . .
H16B H 0.406(2) 0.1292(8) -0.1665(11) 0.061(5) Uiso 1 1 d . . .
H16C H 0.517(2) 0.1784(7) -0.1280(11) 0.068(6) Uiso 1 1 d . . .
C17C C 0.65840(19) 0.06339(6) 0.13965(9) 0.0433(4) Uani 1 1 d . . .
C18C C 0.7068(2) 0.00638(7) 0.15304(9) 0.0463(4) Uani 1 1 d . . .
H18C H 0.6412(18) -0.0248(7) 0.1304(10) 0.052(4) Uiso 1 1 d . . .
C19C C 0.8406(2) -0.00594(6) 0.19568(9) 0.0447(4) Uani 1 1 d . . .
H19C H 0.8742(18) -0.0464(7) 0.2029(10) 0.053(4) Uiso 1 1 d . . .
C20C C 0.92941(18) 0.03916(6) 0.22579(8) 0.0395(3) Uani 1 1 d . . .
C21C C 0.88571(18) 0.09642(6) 0.21060(8) 0.0401(4) Uani 1 1 d . . .
C22C C 0.7517(2) 0.10827(6) 0.16837(9) 0.0437(4) Uani 1 1 d . . .
H22C H 0.7173(19) 0.1480(7) 0.1589(9) 0.053(5) Uiso 1 1 d . . .
C23C C 1.0000 0.13820(8) 0.2500 0.0411(5) Uani 1 2 d S T P
C24C C 1.0807(2) 0.17652(7) 0.18597(11) 0.0521(4) Uani 1 1 d . . .
H24A H 1.156(2) 0.2045(8) 0.2158(11) 0.070(5) Uiso 1 1 d . . .
H24B H 1.000(2) 0.2000(8) 0.1527(12) 0.075(6) Uiso 1 1 d . . .
H24C H 1.142(2) 0.1522(8) 0.1440(12) 0.076(6) Uiso 1 1 d . . .
loop_
_atom_site_aniso_label
_atom_site_aniso_U_11
_atom_site_aniso_U_22
_atom_site_aniso_U_33
_atom_site_aniso_U_23
_atom_site_aniso_U_13
_atom_site_aniso_U_12
C2C 0.0532(11) 0.0704(12) 0.0512(10) 0.0033(9) -0.0037(8) 0.0014(9)
C3C 0.0484(11) 0.0902(14) 0.0621(11) -0.0051(11) -0.0109(9) 0.0084(11)
C4C 0.0436(11) 0.0816(13) 0.0673(12) -0.0165(10) -0.0013(9) -0.0057(10)
C5C 0.0455(10) 0.0615(10) 0.0568(10) -0.0105(9) 0.0023(8) -0.0105(8)
C6C 0.0423(9) 0.0470(8) 0.0402(8) -0.0114(7) 0.0020(7) -0.0053(7)
C7C 0.0450(9) 0.0406(8) 0.0368(7) -0.0063(6) 0.0032(7) -0.0074(7)
C8C 0.0517(10) 0.0457(9) 0.0468(9) 0.0000(7) 0.0045(8) -0.0158(8)
C9C 0.0591(11) 0.0435(8) 0.0439(8) 0.0055(7) -0.0001(8) -0.0096(8)
C10C 0.0509(9) 0.0399(7) 0.0381(7) -0.0018(6) -0.0012(7) -0.0061(7)
C11C 0.0454(9) 0.0410(8) 0.0401(8) -0.0004(6) -0.0005(7) -0.0114(8)
C12C 0.0430(9) 0.0390(7) 0.0348(7) -0.0031(6) 0.0014(6) -0.0063(7)
C13C 0.0433(9) 0.0433(8) 0.0412(8) 0.0018(7) 0.0000(7) -0.0049(7)
C14C 0.0433(9) 0.0505(9) 0.0391(7) -0.0067(7) -0.0004(7) -0.0007(7)
C15C 0.0631(13) 0.0441(9) 0.0616(11) -0.0002(8) -0.0051(10) -0.0039(9)
C16C 0.0510(11) 0.0608(11) 0.0485(9) 0.0097(9) 0.0071(8) -0.0021(9)
C17C 0.0536(10) 0.0408(8) 0.0354(7) 0.0008(6) -0.0012(7) -0.0043(7)
C18C 0.0569(11) 0.0374(8) 0.0446(8) -0.0041(7) -0.0036(8) -0.0071(8)
C19C 0.0587(10) 0.0302(7) 0.0451(8) -0.0018(6) 0.0009(8) -0.0009(7)
C20C 0.0515(9) 0.0330(7) 0.0341(7) -0.0013(6) 0.0005(6) 0.0004(6)
C21C 0.0523(10) 0.0337(7) 0.0342(7) 0.0001(6) -0.0031(7) -0.0018(7)
C22C 0.0565(10) 0.0339(8) 0.0406(8) 0.0024(6) -0.0074(7) -0.0024(7)
C23C 0.0543(14) 0.0301(9) 0.0390(10) 0.000 -0.0084(10) 0.000
C24C 0.0661(12) 0.0410(9) 0.0491(9) 0.0059(7) -0.0050(9) -0.0040(9)
loop_
_atom_type_symbol
_atom_type_description
_atom_type_scat_dispersion_real
_atom_type_scat_dispersion_imag
_atom_type_scat_source
C C 0.0033 0.0016 'International Tables Vol C Tables 4.2.6.8 and 6.1.1.4'
H H 0.0000 0.0000 'International Tables Vol C Tables 4.2.6.8 and 6.1.1.4'
loop_
_geom_angle_atom_site_label_1
_geom_angle_atom_site_label_2
_geom_angle_atom_site_label_3
_geom_angle
_geom_angle_site_symmetry_1
_geom_angle_site_symmetry_3
C3C C2C H2C 122.2(10) . .
C14C C2C H2C 118.9(10) . .
C14C C2C C3C 118.93(19) . .
C2C C3C H3C 118.2(12) . .
C4C C3C C2C 120.88(19) . .
C4C C3C H3C 120.9(12) . .
C3C C4C H4C 119.3(12) . .
C3C C4C C5C 120.79(19) . .
C5C C4C H4C 119.9(12) . .
C4C C5C H5C 120.4(11) . .
C4C C5C C6C 118.67(18) . .
C6C C5C H5C 121.0(11) . .
C5C C6C C7C 130.79(15) . .
C5C C6C C14C 120.87(16) . .
C14C C6C C7C 108.33(13) . .
C8C C7C C6C 131.03(14) . .
C8C C7C C12C 120.09(15) . .
C12C C7C C6C 108.88(13) . .
C7C C8C H8C 119.2(9) . .
C9C C8C C7C 119.05(15) . .
C9C C8C H8C 121.8(9) . .
C8C C9C H9C 120.6(10) . .
C8C C9C C10C 121.91(15) . .
C10C C9C H9C 117.5(10) . .
C9C C10C C11C 118.60(15) . .
C9C C10C C17C 119.67(13) . .
C11C C10C C17C 121.73(14) . .
C10C C11C H11C 119.8(9) . .
C12C C11C C10C 119.82(14) . .
C12C C11C H11C 120.4(9) . .
C7C C12C C13C 110.64(13) . .
C11C C12C C7C 120.52(13) . .
C11C C12C C13C 128.84(13) . .
C12C C13C C15C 110.69(13) . .
C12C C13C C16C 112.00(13) . .
C14C C13C C12C 101.13(12) . .
C14C C13C C15C 110.61(14) . .
C14C C13C C16C 111.62(13) . .
C16C C13C C15C 110.47(14) . .
C2C C14C C6C 119.82(16) . .
C2C C14C C13C 129.22(15) . .
C6C C14C C13C 110.96(13) . .
C13C C15C H15A 110.3(11) . .
C13C C15C H15B 110.3(11) . .
C13C C15C H15C 110.3(10) . .
H15A C15C H15B 109.2(16) . .
H15A C15C H15C 105.3(15) . .
H15B C15C H15C 111.3(15) . .
C13C C16C H16A 110.2(10) . .
C13C C16C H16B 112.1(10) . .
C13C C16C H16C 110.4(11) . .
H16A C16C H16B 108.8(14) . .
H16A C16C H16C 106.7(14) . .
H16B C16C H16C 108.4(15) . .
C18C C17C C10C 119.55(13) . .
C22C C17C C10C 122.02(14) . .
C22C C17C C18C 118.42(15) . .
C17C C18C H18C 117.3(9) . .
C19C C18C C17C 121.56(14) . .
C19C C18C H18C 121.1(9) . .
C18C C19C H19C 120.2(9) . .
C18C C19C C20C 119.15(14) . .
C20C C19C H19C 120.6(9) . .
C19C C20C C20C 131.10(9) . 4_755
C19C C20C C21C 120.09(14) . .
C21C C20C C20C 108.81(9) . 4_755
C20C C21C C23C 110.57(13) . .
C22C C21C C20C 120.29(13) . .
C22C C21C C23C 129.07(13) . .
C17C C22C H22C 118.1(10) . .
C21C C22C C17C 120.42(14) . .
C21C C22C H22C 121.5(10) . .
C21C C23C C21C 101.24(15) . 4_755
C21C C23C C24C 112.42(9) 4_755 4_755
C21C C23C C24C 110.67(9) . 4_755
C21C C23C C24C 110.67(9) 4_755 .
C21C C23C C24C 112.43(9) . .
C24C C23C C24C 109.26(18) . 4_755
C23C C24C H24A 109.5(10) . .
C23C C24C H24B 110.3(11) . .
C23C C24C H24C 111.3(10) . .
H24A C24C H24B 109.7(14) . .
H24A C24C H24C 109.0(14) . .
H24B C24C H24C 106.9(14) . .
loop_
_geom_bond_atom_site_label_1
_geom_bond_atom_site_label_2
_geom_bond_distance
_geom_bond_site_symmetry_2
C2C H2C 0.992(17) .
C2C C3C 1.392(3) .
C2C C14C 1.380(2) .
C3C H3C 0.98(2) .
C3C C4C 1.375(3) .
C4C H4C 0.99(2) .
C4C C5C 1.379(3) .
C5C H5C 1.00(2) .
C5C C6C 1.386(2) .
C6C C7C 1.460(2) .
C6C C14C 1.398(2) .
C7C C8C 1.388(2) .
C7C C12C 1.397(2) .
C8C H8C 0.990(17) .
C8C C9C 1.375(2) .
C9C H9C 0.983(18) .
C9C C10C 1.397(2) .
C10C C11C 1.400(2) .
C10C C17C 1.481(2) .
C11C H11C 0.975(15) .
C11C C12C 1.382(2) .
C12C C13C 1.524(2) .
C13C C14C 1.522(2) .
C13C C15C 1.535(2) .
C13C C16C 1.532(2) .
C15C H15A 1.028(18) .
C15C H15B 0.99(2) .
C15C H15C 1.02(2) .
C16C H16A 1.04(2) .
C16C H16B 1.006(18) .
C16C H16C 0.99(2) .
C17C C18C 1.403(2) .
C17C C22C 1.398(2) .
C18C H18C 0.991(16) .
C18C C19C 1.381(2) .
C19C H19C 0.989(16) .
C19C C20C 1.387(2) .
C20C C20C 1.455(3) 4_755
C20C C21C 1.4019(19) .
C21C C22C 1.377(2) .
C21C C23C 1.5258(18) .
C22C H22C 0.980(17) .
C23C C21C 1.5258(18) 4_755
C23C C24C 1.5343(19) .
C23C C24C 1.5343(19) 4_755
C24C H24A 1.038(19) .
C24C H24B 1.04(2) .
C24C H24C 1.03(2) .
loop_
_geom_torsion_atom_site_label_1
_geom_torsion_atom_site_label_2
_geom_torsion_atom_site_label_3
_geom_torsion_atom_site_label_4
_geom_torsion
_geom_torsion_site_symmetry_1
_geom_torsion_site_symmetry_4
C2C C3C C4C C5C -0.3(3) . .
C3C C2C C14C C6C -0.3(2) . .
C3C C2C C14C C13C -179.74(16) . .
C3C C4C C5C C6C -1.3(3) . .
C4C C5C C6C C7C -177.26(16) . .
C4C C5C C6C C14C 2.1(2) . .
C5C C6C C7C C8C 0.0(3) . .
C5C C6C C7C C12C -179.49(16) . .
C5C C6C C14C C2C -1.4(2) . .
C5C C6C C14C C13C 178.20(14) . .
C6C C7C C8C C9C 179.90(15) . .
C6C C7C C12C C11C 179.85(13) . .
C6C C7C C12C C13C 0.56(16) . .
C7C C6C C14C C2C 178.13(14) . .
C7C C6C C14C C13C -2.29(16) . .
C7C C8C C9C C10C 0.0(2) . .
C7C C12C C13C C14C -1.78(15) . .
C7C C12C C13C C15C 115.46(15) . .
C7C C12C C13C C16C -120.76(15) . .
C8C C7C C12C C11C 0.3(2) . .
C8C C7C C12C C13C -178.99(13) . .
C8C C9C C10C C11C 1.1(2) . .
C8C C9C C10C C17C -179.29(14) . .
C9C C10C C11C C12C -1.4(2) . .
C9C C10C C17C C18C 39.7(2) . .
C9C C10C C17C C22C -139.18(16) . .
C10C C11C C12C C7C 0.8(2) . .
C10C C11C C12C C13C 179.91(14) . .
C10C C17C C18C C19C -176.96(14) . .
C10C C17C C22C C21C 177.27(13) . .
C11C C10C C17C C18C -140.66(15) . .
C11C C10C C17C C22C 40.5(2) . .
C11C C12C C13C C14C 179.00(14) . .
C11C C12C C13C C15C -63.8(2) . .
C11C C12C C13C C16C 60.0(2) . .
C12C C7C C8C C9C -0.7(2) . .
C12C C13C C14C C2C -178.01(16) . .
C12C C13C C14C C6C 2.47(15) . .
C14C C2C C3C C4C 1.1(3) . .
C14C C6C C7C C8C -179.45(15) . .
C14C C6C C7C C12C 1.07(16) . .
C15C C13C C14C C2C 64.7(2) . .
C15C C13C C14C C6C -114.84(15) . .
C16C C13C C14C C2C -58.8(2) . .
C16C C13C C14C C6C 121.72(14) . .
C17C C10C C11C C12C 178.94(13) . .
C17C C18C C19C C20C -0.1(2) . .
C18C C17C C22C C21C -1.6(2) . .
C18C C19C C20C C20C 177.81(18) . 4_755
C18C C19C C20C C21C -2.0(2) . .
C19C C20C C21C C22C 2.4(2) . .
C19C C20C C21C C23C 179.69(12) . .
C20C C20C C21C C22C -177.51(15) 4_755 .
C20C C20C C21C C23C -0.19(19) 4_755 .
C20C C21C C22C C17C -0.5(2) . .
C20C C21C C23C C21C 0.07(7) . 4_755
C20C C21C C23C C24C 118.20(14) . .
C20C C21C C23C C24C -119.31(14) . 4_755
C22C C17C C18C C19C 2.0(2) . .
C22C C21C C23C C21C 177.09(18) . 4_755
C22C C21C C23C C24C 57.71(18) . 4_755
C22C C21C C23C C24C -64.78(19) . .
C23C C21C C22C C17C -177.26(12) . .
